AV-unprocessed.smi:1703|AV-procd|sdf|6873|dock2
  -GOLD-   22720 8 73D 1   1.00000     0.00000
 Structure written by MMmdl.
 50 52  0  0  0  0  0  0  0  0  3 V2000
  152.9239  143.0914  161.5320 C   0  0  0  0  0  0  0  0  0  0  0  0
  153.3988  141.9487  160.6280 C   0  0  2  0  0  0  0  0  0  0  0  0
  152.2212  141.1735  160.0095 C   0  0  0  0  0  0  0  0  0  0  0  0
  152.7190  140.0272  159.2155 N   0  3  2  0  0  0  0  0  0  0  0  0
  151.6338  139.3149  158.4939 C   0  0  0  0  0  0  0  0  0  0  0  0
  151.9184  139.1798  156.9849 C   0  0  2  0  0  0  0  0  0  0  0  0
  153.3190  139.1510  156.7855 O   0  0  0  0  0  0  0  0  0  0  0  0
  151.3058  140.3428  156.1793 C   0  0  0  0  0  0  0  0  0  0  0  0
  150.4799  139.8808  155.0507 N   0  0  0  0  0  0  0  0  0  0  0  0
  150.6846  138.8487  154.1813 C   0  0  0  0  0  0  0  0  0  0  0  0
  151.8464  137.9063  154.1731 C   0  0  0  0  0  0  0  0  0  0  0  0
  151.4679  136.5564  154.0040 O   0  0  0  0  0  0  0  0  0  0  0  0
  149.6380  138.8454  153.3070 N   0  3  0  0  0  0  0  0  0  0  0  0
  148.7544  139.8780  153.6204 C   0  0  0  0  0  0  0  0  0  0  0  0
  147.5610  140.2671  153.0202 C   0  0  0  0  0  0  0  0  0  0  0  0
  146.8988  141.3750  153.5882 C   0  0  0  0  0  0  0  0  0  0  0  0
  147.4261  142.0492  154.7084 C   0  0  0  0  0  0  0  0  0  0  0  0
  148.6370  141.6451  155.3084 C   0  0  0  0  0  0  0  0  0  0  0  0
  149.2868  140.5481  154.7413 C   0  0  0  0  0  0  0  0  0  0  0  0
  153.5559  139.1415  160.0615 C   0  0  0  0  0  0  0  0  0  0  0  0
  154.7050  139.9311  160.7186 C   0  0  1  0  0  0  0  0  0  0  0  0
  155.8259  140.3133  159.7355 C   0  0  0  0  0  0  0  0  0  0  0  0
  154.1877  141.0631  161.4184 O   0  0  0  0  0  0  0  0  0  0  0  0
  152.3197  143.8080  160.9755 H   0  0  0  0  0  0  0  0  0  0  0  0
  153.7715  143.6308  161.9555 H   0  0  0  0  0  0  0  0  0  0  0  0
  152.3212  142.7167  162.3598 H   0  0  0  0  0  0  0  0  0  0  0  0
  154.0105  142.3787  159.8346 H   0  0  0  0  0  0  0  0  0  0  0  0
  151.5488  140.8123  160.7896 H   0  0  0  0  0  0  0  0  0  0  0  0
  151.6424  141.8418  159.3704 H   0  0  0  0  0  0  0  0  0  0  0  0
  151.4852  138.3331  158.9465 H   0  0  0  0  0  0  0  0  0  0  0  0
  150.6927  139.8525  158.6212 H   0  0  0  0  0  0  0  0  0  0  0  0
  151.5064  138.2449  156.6062 H   0  0  0  0  0  0  0  0  0  0  0  0
  153.5148  138.5416  156.0904 H   0  0  0  0  0  0  0  0  0  0  0  0
  150.6645  140.9434  156.8248 H   0  0  0  0  0  0  0  0  0  0  0  0
  152.0762  141.0211  155.8127 H   0  0  0  0  0  0  0  0  0  0  0  0
  152.5239  138.1873  153.3666 H   0  0  0  0  0  0  0  0  0  0  0  0
  152.3990  137.9973  155.1081 H   0  0  0  0  0  0  0  0  0  0  0  0
  151.1892  136.4303  153.1095 H   0  0  0  0  0  0  0  0  0  0  0  0
  147.1556  139.7527  152.1612 H   0  0  0  0  0  0  0  0  0  0  0  0
  145.9687  141.7148  153.1558 H   0  0  0  0  0  0  0  0  0  0  0  0
  146.8910  142.8948  155.1156 H   0  0  0  0  0  0  0  0  0  0  0  0
  149.0282  142.1742  156.1640 H   0  0  0  0  0  0  0  0  0  0  0  0
  152.9304  138.6958  160.8366 H   0  0  0  0  0  0  0  0  0  0  0  0
  153.9655  138.3174  159.4785 H   0  0  0  0  0  0  0  0  0  0  0  0
  155.1566  139.2900  161.4762 H   0  0  0  0  0  0  0  0  0  0  0  0
  156.2899  139.4215  159.3140 H   0  0  0  0  0  0  0  0  0  0  0  0
  156.6074  140.8830  160.2393 H   0  0  0  0  0  0  0  0  0  0  0  0
  155.4606  140.9110  158.9010 H   0  0  0  0  0  0  0  0  0  0  0  0
  153.3231  140.4169  158.5056 H   0  0  0  0  0  0  0  0  0  0  0  0
  149.5420  138.1827  152.5481 H   0  0  0  0  0  0  0  0  0  0  0  0
  1  2  1  0  0  0  0
  1 24  1  0  0  0  0
  1 25  1  0  0  0  0
  1 26  1  0  0  0  0
  2 23  1  0  0  0  0
  2  3  1  0  0  0  0
  2 27  1  0  0  0  0
  3  4  1  0  0  0  0
  3 28  1  0  0  0  0
  3 29  1  0  0  0  0
  4  5  1  0  0  0  0
  4 20  1  0  0  0  0
  4 49  1  0  0  0  0
  5  6  1  0  0  0  0
  5 30  1  0  0  0  0
  5 31  1  0  0  0  0
  6  7  1  0  0  0  0
  6  8  1  0  0  0  0
  6 32  1  0  0  0  0
  7 33  1  0  0  0  0
  8  9  1  0  0  0  0
  8 34  1  0  0  0  0
  8 35  1  0  0  0  0
  9 19  1  0  0  0  0
  9 10  1  0  0  0  0
 10 11  1  0  0  0  0
 10 13  2  0  0  0  0
 11 12  1  0  0  0  0
 11 36  1  0  0  0  0
 11 37  1  0  0  0  0
 12 38  1  0  0  0  0
 13 14  1  0  0  0  0
 13 50  1  0  0  0  0
 14 19  2  0  0  0  0
 14 15  1  0  0  0  0
 15 16  2  0  0  0  0
 15 39  1  0  0  0  0
 16 17  1  0  0  0  0
 16 40  1  0  0  0  0
 17 18  2  0  0  0  0
 17 41  1  0  0  0  0
 18 19  1  0  0  0  0
 18 42  1  0  0  0  0
 20 21  1  0  0  0  0
 20 43  1  0  0  0  0
 20 44  1  0  0  0  0
 21 22  1  0  0  0  0
 21 23  1  0  0  0  0
 21 45  1  0  0  0  0
 22 46  1  0  0  0  0
 22 47  1  0  0  0  0
 22 48  1  0  0  0  0
M  CHG  1   4   1
M  CHG  1  13   1
M  END
> <s_m_source_file>
AV-unprocessed.smi

> <i_m_source_file_index>
1703

> <i_lp_mmshare_version>
43012

> <i_f3d_flags>
0

> <s_epik_input>
W0NIM11bQ0BASF0xW0NIMl1OKFtDSDJdW0NASF0oTzEpW0NIM10pW0NIMl1bQ0BIXShbT0hdKVtDSDJdbihjKG4yKVtDSDJdW09IXSljKGMyMylbY0hdW2NIXVtjSF1bY0hdMw==

> <s_epik_cmdline>
J2VwaWtfcHl0aG9uJywgJy1waCcsICc3LjAnLCAnLXRuJywgJzgnLCAnLW1hJywgJzIwMCcsICctbWV0YWxfYmluZGluZycsICctaW1hZScsICc8aW5maWxlLm1hZT4nLCAnLW9tYWUnLCAnPG91dGZpbGUubWFlPic=

> <r_epik_Ionization_Penalty>
2.22579

> <r_epik_Ionization_Penalty_Charging>
2.22492

> <r_epik_Ionization_Penalty_Neutral>
0.000870007

> <r_epik_State_Penalty>
2.3141

> <r_epik_Charging_Adjusted_Penalty>
4.53902

> <i_epik_Tot_Q>
2

> <i_epik_Tot_abs_Q>
2

> <r_epik_Metal_State_Penalty>
6.36517

> <b_epik_Metal_Only>
0

> <s_lp_Force_Field>
OPLS_2005

> <r_lp_Energy>
31.3711

> <b_lp_Chiralities_Consistent>
1

> <s_lp_Variant>
AV-unprocessed.smi:1703-21

> <Gold.Version>
5.8.1

> <Gold.Id.Protein>
6NUR|6NUR_protein|mol2

> <Gold.PLP.Fitness>
56.0806

> <Gold.PLP.PLP>
-45.6178

> <Gold.PLP.part.hbond>
-5.1595

> <Gold.PLP.part.metal>
0.0000

> <Gold.PLP.part.buried>
-1.5597

> <Gold.PLP.part.nonpolar>
-40.7426

> <Gold.PLP.part.repulsive>
0.2173

> <Gold.PLP.ligand.clash>
0.0000

> <Gold.PLP.ligand.torsion>
2.2962

> <Gold.PLP.Chemscore.Hbond>
5.0000

> <Gold.PLP.Chemscore.CHOScore>
0.0000

> <Gold.PLP.Chemscore.Metal>
0.0000

> <Gold.Chemscore.Hbonds>
donor molecule, donor type, donor heavy atom, donor atom, acceptor molecule, acceptor atom, score
      L1  H    12    38       P1  7949  1.00
      L1  H    13    50       P1  7948  1.66
      P1  H  7997  8010       L1     7  0.84
      P1  H 10752 10765       L1    12  1.00

> <Gold.PLP.Chemscore.Internal.Correction>
0.0551

> <Gold.Rescore>
     Score         DG    S(hbond)    S(metal)    S(lipo)     H(rot)  DE(clash)    DE(int)     intcor
     16.76     -19.60       2.65        0.00     111.48       3.04       0.39       2.45       ----

> <Gold.Chemscore.Fitness>
16.7585

> <Gold.Chemscore.DG>
-19.5968

> <Gold.Chemscore.ZeroCoef>
-5.4800

> <Gold.Chemscore.Hbond>
2.6498

> <Gold.Chemscore.Metal>
0.0000

> <Gold.Chemscore.Lipo>
111.4809

> <Gold.Chemscore.Internal_Hbond>
0.0000

> <Gold.Chemscore.DEClash>
0.3877

> <Gold.Chemscore.DEInternal>
2.4506

> <Gold.Chemscore.Rot>
3.0378

> <Gold.Chemscore.Internal.Correction>
   9.000000E+99

> <Gold.Chemscore.Hbonds>
donor molecule, donor type, donor heavy atom, donor atom, acceptor molecule, acceptor atom, score
      L1  H    12    38       P1  7949  0.50
      L1  H    13    50       P1  7948  0.50
      P1  H  7997  8010       L1     7  0.39
      P1  H 10752 10765       L1    12  0.25

> <Gold.Chemscore.Hbond.Weighted>
-8.8502

> <Gold.Chemscore.Metal.Weighted>
-0.0000

> <Gold.Chemscore.Lipo.Weighted>
-13.0433

> <Gold.Chemscore.Internal_Hbond.Weighted>
0.0000

> <Gold.Chemscore.DEClash.Weighted>
0.3877

> <Gold.Chemscore.DEInternal.Weighted>
2.4506

> <Gold.Chemscore.Rot.Weighted>
7.7767

> <Gold.Chemscore.Internal.Correction.Weighted>
   9.000000E+99

> <Gold.Protein.RotatedTorsions>
[ 6907 6896 6895 6894 ] final    7.91 input  -60.11 | X-H torsion
[ 7974 7965 7964 7962 ] final -133.94 input  175.53 | X-H torsion
[ 8008 7997 7996 7995 ] final   41.97 input   59.86 | X-H torsion
[ 10167 10162 10161 10158 ] final  162.89 input  -65.29 | X-H torsion
[ 10718 10713 10712 10709 ] final   -7.82 input   66.30 | X-H torsion
[ 10763 10752 10751 10750 ] final  155.01 input  -60.55 | X-H torsion
[ 11005 11000 10999 10996 ] final  -43.77 input  -57.11 | X-H torsion

> <Gold.Protein.ActiveResidues>
 VAL166  LYS551  ARG553  GLY616  TRP617  ASP618  TYR619  PRO620  LYS621  CYS622 
 ASP623  PHE694  ASN695  SER759  ASP760  ASP761  ALA762  ILE779  LEU786  VAL792 
 PHE793  MET794  SER795  GLU796  ALA797  LYS798  CYS799  TRP800  GLU811  SER814 

> <Gold.Protein.RotatedAtoms>
  151.6975  135.0936  160.0244 H   0  0  0  0  0  0  0  0  0  0  0  0  # atno 6907 bound_to 6896
  152.3741  133.6453  159.6118 H   0  0  0  0  0  0  0  0  0  0  0  0  # atno 6908 bound_to 6896
  150.7695  133.9139  159.3419 H   0  0  0  0  0  0  0  0  0  0  0  0  # atno 6909 bound_to 6896
  144.9147  140.6940  143.5003 H   0  0  0  0  0  0  0  0  0  0  0  0  # atno 7974 bound_to 7965
  155.2785  140.3371  155.4260 H   0  0  0  0  0  0  0  0  0  0  0  0  # atno 8008 bound_to 7997
  156.2100  140.1766  156.7756 H   0  0  0  0  0  0  0  0  0  0  0  0  # atno 8009 bound_to 7997
  154.5674  140.0676  156.8896 H   0  0  0  0  0  0  0  0  0  0  0  0  # atno 8010 bound_to 7997
  139.4866  144.4392  151.8974 H   0  0  0  0  0  0  0  0  0  0  0  0  # atno 10167 bound_to 10162
  156.7117  130.5124  149.5890 H   0  0  0  0  0  0  0  0  0  0  0  0  # atno 10718 bound_to 10713
  154.1614  135.2809  155.3107 H   0  0  0  0  0  0  0  0  0  0  0  0  # atno 10763 bound_to 10752
  154.6144  135.5488  153.7510 H   0  0  0  0  0  0  0  0  0  0  0  0  # atno 10764 bound_to 10752
  153.0191  135.6423  154.1756 H   0  0  0  0  0  0  0  0  0  0  0  0  # atno 10765 bound_to 10752
  141.0406  133.6781  156.2779 H   0  0  0  0  0  0  0  0  0  0  0  0  # atno 11005 bound_to 11000
  145.3395  139.1736  143.4493 LP  0  0  0  0  0  0  0  0  0  0  0  0  # atno 17320 bound_to 7965
  146.3176  140.3434  142.8650 LP  0  0  0  0  0  0  0  0  0  0  0  0  # atno 17321 bound_to 7965
  140.3843  144.2697  150.5905 LP  0  0  0  0  0  0  0  0  0  0  0  0  # atno 17342 bound_to 10162
  140.5205  143.2267  151.8396 LP  0  0  0  0  0  0  0  0  0  0  0  0  # atno 17343 bound_to 10162
  156.1656  130.6403  151.0774 LP  0  0  0  0  0  0  0  0  0  0  0  0  # atno 17370 bound_to 10713
  157.6933  131.0802  150.7043 LP  0  0  0  0  0  0  0  0  0  0  0  0  # atno 17371 bound_to 10713
  140.6241  134.5331  157.5551 LP  0  0  0  0  0  0  0  0  0  0  0  0  # atno 17394 bound_to 11000
  139.9273  134.8032  156.1032 LP  0  0  0  0  0  0  0  0  0  0  0  0  # atno 17395 bound_to 11000

$$$$
