AV-unprocessed.smi:3331|AV-procd|sdf|12820|dock7
  -GOLD-   2272019193D 1   1.00000     0.00000
 Structure written by MMmdl.
 47 48  0  0  0  0  0  0  0  0  2 V2000
  143.2767  134.2848  152.3753 C   0  0  0  0  0  0  0  0  0  0  0  0
  144.1802  134.0055  151.1610 C   0  0  2  0  0  0  0  0  0  0  0  0
  144.2589  132.4993  150.8249 C   0  0  0  0  0  0  0  0  0  0  0  0
  145.1851  131.7160  151.7824 C   0  0  1  0  0  0  0  0  0  0  0  0
  145.3459  130.2556  151.3375 C   0  0  0  0  0  0  0  0  0  0  0  0
  146.5497  132.4250  151.9053 C   0  0  0  0  0  0  0  0  0  0  0  0
  146.3361  133.8111  152.3450 N   0  0  0  0  0  0  0  0  0  0  0  0
  146.7174  134.2536  153.5710 C   0  0  0  0  0  0  0  0  0  0  0  0
  147.3231  133.5304  154.3633 O   0  0  0  0  0  0  0  0  0  0  0  0
  146.4119  135.7055  153.9913 C   0  0  1  0  0  0  0  0  0  0  0  0
  145.4947  135.7682  155.2308 C   0  0  0  0  0  0  0  0  0  0  0  0
  147.6808  136.4261  154.2387 N   0  3  0  0  0  0  0  0  0  0  0  0
  147.5334  137.8075  154.7395 C   0  0  0  0  0  0  0  0  0  0  0  0
  147.8824  138.8262  153.6455 C   0  0  0  0  0  0  0  0  0  0  0  0
  147.7193  140.1899  154.1102 N   0  0  0  0  0  0  0  0  0  0  0  0
  146.7673  141.1160  153.7386 C   0  0  0  0  0  0  0  0  0  0  0  0
  147.0155  142.2578  154.4451 C   0  0  0  0  0  0  0  0  0  0  0  0
  148.1520  141.9273  155.2352 C   0  0  0  0  0  0  0  0  0  0  0  0
  148.5698  140.6878  155.0336 N   0  0  0  0  0  0  0  0  0  0  0  0
  145.6026  134.5828  151.3300 C   0  0  0  0  0  0  0  0  0  0  0  0
  143.6563  133.8189  153.2844 H   0  0  0  0  0  0  0  0  0  0  0  0
  142.2688  133.9043  152.2072 H   0  0  0  0  0  0  0  0  0  0  0  0
  143.1934  135.3557  152.5617 H   0  0  0  0  0  0  0  0  0  0  0  0
  143.7188  134.5068  150.3093 H   0  0  0  0  0  0  0  0  0  0  0  0
  143.2609  132.0595  150.8182 H   0  0  0  0  0  0  0  0  0  0  0  0
  144.6392  132.3939  149.8079 H   0  0  0  0  0  0  0  0  0  0  0  0
  144.7229  131.7039  152.7705 H   0  0  0  0  0  0  0  0  0  0  0  0
  145.8037  130.1895  150.3499 H   0  0  0  0  0  0  0  0  0  0  0  0
  144.3802  129.7512  151.2918 H   0  0  0  0  0  0  0  0  0  0  0  0
  145.9745  129.6995  152.0336 H   0  0  0  0  0  0  0  0  0  0  0  0
  147.1974  131.8632  152.5795 H   0  0  0  0  0  0  0  0  0  0  0  0
  147.0631  132.4272  150.9424 H   0  0  0  0  0  0  0  0  0  0  0  0
  145.8713  136.1871  153.1770 H   0  0  0  0  0  0  0  0  0  0  0  0
  144.5862  135.1834  155.0792 H   0  0  0  0  0  0  0  0  0  0  0  0
  145.1790  136.7892  155.4438 H   0  0  0  0  0  0  0  0  0  0  0  0
  145.9927  135.3846  156.1223 H   0  0  0  0  0  0  0  0  0  0  0  0
  148.2395  135.8891  154.8867 H   0  0  0  0  0  0  0  0  0  0  0  0
  146.5061  137.9573  155.0749 H   0  0  0  0  0  0  0  0  0  0  0  0
  148.1814  137.9598  155.6029 H   0  0  0  0  0  0  0  0  0  0  0  0
  148.9142  138.6928  153.3175 H   0  0  0  0  0  0  0  0  0  0  0  0
  147.2492  138.6814  152.7687 H   0  0  0  0  0  0  0  0  0  0  0  0
  146.0019  140.8897  153.0107 H   0  0  0  0  0  0  0  0  0  0  0  0
  146.4674  143.1876  154.4054 H   0  0  0  0  0  0  0  0  0  0  0  0
  148.6818  142.5464  155.9441 H   0  0  0  0  0  0  0  0  0  0  0  0
  146.1392  134.5053  150.3830 H   0  0  0  0  0  0  0  0  0  0  0  0
  145.5529  135.6511  151.5303 H   0  0  0  0  0  0  0  0  0  0  0  0
  148.1751  136.4779  153.3593 H   0  0  0  0  0  0  0  0  0  0  0  0
  1  2  1  0  0  0  0
  1 21  1  0  0  0  0
  1 22  1  0  0  0  0
  1 23  1  0  0  0  0
  2 20  1  0  0  0  0
  2  3  1  0  0  0  0
  2 24  1  0  0  0  0
  3  4  1  0  0  0  0
  3 25  1  0  0  0  0
  3 26  1  0  0  0  0
  4  5  1  0  0  0  0
  4  6  1  0  0  0  0
  4 27  1  0  0  0  0
  5 28  1  0  0  0  0
  5 29  1  0  0  0  0
  5 30  1  0  0  0  0
  6  7  1  0  0  0  0
  6 31  1  0  0  0  0
  6 32  1  0  0  0  0
  7  8  1  0  0  0  0
  7 20  1  0  0  0  0
  8  9  2  0  0  0  0
  8 10  1  0  0  0  0
 10 11  1  0  0  0  0
 10 12  1  0  0  0  0
 10 33  1  0  0  0  0
 11 34  1  0  0  0  0
 11 35  1  0  0  0  0
 11 36  1  0  0  0  0
 12 13  1  0  0  0  0
 12 37  1  0  0  0  0
 12 47  1  0  0  0  0
 13 14  1  0  0  0  0
 13 38  1  0  0  0  0
 13 39  1  0  0  0  0
 14 15  1  0  0  0  0
 14 40  1  0  0  0  0
 14 41  1  0  0  0  0
 15 19  1  0  0  0  0
 15 16  1  0  0  0  0
 16 17  2  0  0  0  0
 16 42  1  0  0  0  0
 17 18  1  0  0  0  0
 17 43  1  0  0  0  0
 18 19  2  0  0  0  0
 18 44  1  0  0  0  0
 20 45  1  0  0  0  0
 20 46  1  0  0  0  0
M  CHG  1  12   1
M  END
> <s_m_source_file>
AV-unprocessed.smi

> <i_m_source_file_index>
3331

> <i_lp_mmshare_version>
43012

> <i_f3d_flags>
0

> <s_epik_input>
W0NIM11bQ0BASF0xW0NIMl1bQ0BASF0oW0NIM10pW0NIMl1OKFtDSDJdMSlDKD1PKVtDQEhdKFtDSDNdKVtOSF1bQ0gyXVtDSDJdbjJbY0hdW2NIXVtjSF1uMg==

> <s_epik_cmdline>
J2VwaWtfcHl0aG9uJywgJy1waCcsICc3LjAnLCAnLXRuJywgJzgnLCAnLW1hJywgJzIwMCcsICctbWV0YWxfYmluZGluZycsICctaW1hZScsICc8aW5maWxlLm1hZT4nLCAnLW9tYWUnLCAnPG91dGZpbGUubWFlPic=

> <r_lp_tautomer_probability>
1

> <r_epik_Ionization_Penalty>
0.189706

> <r_epik_Ionization_Penalty_Charging>
0.189703

> <r_epik_Ionization_Penalty_Neutral>
2.45875e-06

> <r_epik_State_Penalty>
0.179341

> <r_epik_Charging_Adjusted_Penalty>
0.369044

> <i_epik_Tot_Q>
1

> <i_epik_Tot_abs_Q>
1

> <r_epik_Metal_State_Penalty>
0.179578

> <b_epik_Metal_Only>
0

> <s_lp_Force_Field>
OPLS_2005

> <r_lp_Energy>
29.8241

> <b_lp_Chiralities_Consistent>
1

> <s_lp_Variant>
AV-unprocessed.smi:3331-4

> <Gold.Version>
5.8.1

> <Gold.Id.Protein>
6NUR|6NUR_protein|mol2

> <Gold.PLP.Fitness>
42.1196

> <Gold.PLP.PLP>
-31.0287

> <Gold.PLP.part.hbond>
-1.0000

> <Gold.PLP.part.metal>
0.0000

> <Gold.PLP.part.buried>
-1.5678

> <Gold.PLP.part.nonpolar>
-28.7390

> <Gold.PLP.part.repulsive>
0.1647

> <Gold.PLP.ligand.clash>
0.0000

> <Gold.PLP.ligand.torsion>
0.4495

> <Gold.PLP.Chemscore.Hbond>
2.0000

> <Gold.PLP.Chemscore.CHOScore>
1.9853

> <Gold.PLP.Chemscore.Metal>
0.0000

> <Gold.Chemscore.Hbonds>
donor molecule, donor type, donor heavy atom, donor atom, acceptor molecule, acceptor atom, score
      L1  H    12    47       P1  7948  2.00
      L1  C    16    42       P1 10175  1.00
      L1  C    18    44       P1  8028  0.82

> <Gold.PLP.Chemscore.Internal.Correction>
0.0339

> <Gold.Rescore>
     Score         DG    S(hbond)    S(metal)    S(lipo)     H(rot)  DE(clash)    DE(int)     intcor
     12.73     -13.58       1.00        0.00      78.48       1.73       0.34       0.51       ----

> <Gold.Chemscore.Fitness>
12.7294

> <Gold.Chemscore.DG>
-13.5772

> <Gold.Chemscore.ZeroCoef>
-5.4800

> <Gold.Chemscore.Hbond>
0.9975

> <Gold.Chemscore.Metal>
0.0000

> <Gold.Chemscore.Lipo>
78.4826

> <Gold.Chemscore.Internal_Hbond>
0.0000

> <Gold.Chemscore.DEClash>
0.3373

> <Gold.Chemscore.DEInternal>
0.5105

> <Gold.Chemscore.Rot>
1.7254

> <Gold.Chemscore.Internal.Correction>
   9.000000E+99

> <Gold.Chemscore.Hbonds>
donor molecule, donor type, donor heavy atom, donor atom, acceptor molecule, acceptor atom, score
      L1  H    12    47       P1  7948  1.00

> <Gold.Chemscore.Hbond.Weighted>
-3.3318

> <Gold.Chemscore.Metal.Weighted>
-0.0000

> <Gold.Chemscore.Lipo.Weighted>
-9.1825

> <Gold.Chemscore.Internal_Hbond.Weighted>
0.0000

> <Gold.Chemscore.DEClash.Weighted>
0.3373

> <Gold.Chemscore.DEInternal.Weighted>
0.5105

> <Gold.Chemscore.Rot.Weighted>
4.4170

> <Gold.Chemscore.Internal.Correction.Weighted>
   9.000000E+99

> <Gold.Protein.RotatedTorsions>
[ 6907 6896 6895 6894 ] final  174.28 input  -60.11 | X-H torsion
[ 7974 7965 7964 7962 ] final   -2.02 input  175.53 | X-H torsion
[ 8008 7997 7996 7995 ] final -107.60 input   59.86 | X-H torsion
[ 10167 10162 10161 10158 ] final    5.82 input  -65.29 | X-H torsion
[ 10718 10713 10712 10709 ] final  136.76 input   66.30 | X-H torsion
[ 10763 10752 10751 10750 ] final  129.21 input  -60.55 | X-H torsion
[ 11005 11000 10999 10996 ] final  -33.81 input  -57.11 | X-H torsion

> <Gold.Protein.ActiveResidues>
 VAL166  LYS551  ARG553  GLY616  TRP617  ASP618  TYR619  PRO620  LYS621  CYS622 
 ASP623  PHE694  ASN695  SER759  ASP760  ASP761  ALA762  ILE779  LEU786  VAL792 
 PHE793  MET794  SER795  GLU796  ALA797  LYS798  CYS799  TRP800  GLU811  SER814 

> <Gold.Protein.RotatedAtoms>
  151.7549  133.3329  159.3401 H   0  0  0  0  0  0  0  0  0  0  0  0  # atno 6907 bound_to 6896
  150.7521  134.6159  159.6120 H   0  0  0  0  0  0  0  0  0  0  0  0  # atno 6908 bound_to 6896
  152.3444  134.7093  160.0306 H   0  0  0  0  0  0  0  0  0  0  0  0  # atno 6909 bound_to 6896
  146.2410  140.1508  142.8334 H   0  0  0  0  0  0  0  0  0  0  0  0  # atno 7974 bound_to 7965
  154.9318  140.0405  157.2052 H   0  0  0  0  0  0  0  0  0  0  0  0  # atno 8008 bound_to 7997
  154.8153  140.2875  155.5802 H   0  0  0  0  0  0  0  0  0  0  0  0  # atno 8009 bound_to 7997
  156.2975  140.2529  156.3050 H   0  0  0  0  0  0  0  0  0  0  0  0  # atno 8010 bound_to 7997
  140.6462  143.7657  150.7502 H   0  0  0  0  0  0  0  0  0  0  0  0  # atno 10167 bound_to 10162
  157.4432  131.1059  151.0119 H   0  0  0  0  0  0  0  0  0  0  0  0  # atno 10718 bound_to 10713
  153.7380  135.3228  155.3298 H   0  0  0  0  0  0  0  0  0  0  0  0  # atno 10763 bound_to 10752
  154.8304  135.4538  154.1055 H   0  0  0  0  0  0  0  0  0  0  0  0  # atno 10764 bound_to 10752
  153.2221  135.6949  153.8069 H   0  0  0  0  0  0  0  0  0  0  0  0  # atno 10765 bound_to 10752
  140.9665  133.7134  156.1454 H   0  0  0  0  0  0  0  0  0  0  0  0  # atno 11005 bound_to 11000
  145.0169  140.8761  143.5190 LP  0  0  0  0  0  0  0  0  0  0  0  0  # atno 17320 bound_to 7965
  145.1551  139.2491  143.5421 LP  0  0  0  0  0  0  0  0  0  0  0  0  # atno 17321 bound_to 7965
  140.1299  143.4536  152.2261 LP  0  0  0  0  0  0  0  0  0  0  0  0  # atno 17342 bound_to 10162
  139.5672  144.7442  151.3989 LP  0  0  0  0  0  0  0  0  0  0  0  0  # atno 17343 bound_to 10162
  157.0975  130.5968  149.5453 LP  0  0  0  0  0  0  0  0  0  0  0  0  # atno 17370 bound_to 10713
  155.9957  130.5024  150.7468 LP  0  0  0  0  0  0  0  0  0  0  0  0  # atno 17371 bound_to 10713
  140.7391  134.4169  157.5557 LP  0  0  0  0  0  0  0  0  0  0  0  0  # atno 17394 bound_to 11000
  139.8896  134.8825  156.2410 LP  0  0  0  0  0  0  0  0  0  0  0  0  # atno 17395 bound_to 11000

$$$$
