AV-unprocessed.smi:1443|AV-procd|sdf|5877|dock4
  -GOLD-   22720 5553D 1   1.00000     0.00000
 Structure written by MMmdl.
 27 28  0  0  0  0  0  0  0  0  1 V2000
  150.5072  142.0688  157.1780 C   0  0  0  0  0  0  0  0  0  0  0  0
  151.2067  140.5363  157.8513 S   0  0  0  0  0  0  0  0  0  0  0  0
  151.4324  139.4603  156.4722 C   0  0  0  0  0  0  0  0  0  0  0  0
  152.5156  139.5749  155.6823 N   0  0  0  0  0  0  0  0  0  0  0  0
  152.4204  138.4051  154.4650 S   0  0  0  0  0  0  0  0  0  0  0  0
  150.9094  137.8233  155.0998 C   0  0  0  0  0  0  0  0  0  0  0  0
  150.1912  136.7460  154.5036 N   0  0  0  0  0  0  0  0  0  0  0  0
  149.7328  135.5875  155.0254 C   0  0  0  0  0  0  0  0  0  0  0  0
  149.9085  135.3127  156.2113 O   0  0  0  0  0  0  0  0  0  0  0  0
  149.0834  134.7751  154.1767 N   0  0  0  0  0  0  0  0  0  0  0  0
  148.5130  133.5085  154.4955 C   0  0  2  0  0  0  0  0  0  0  0  0
  149.3179  132.2852  154.1143 C   0  0  0  0  0  0  0  0  0  0  0  0
  148.0686  132.6249  153.3472 C   0  0  1  0  0  0  0  0  0  0  0  0
  146.8434  131.7453  153.4704 C   0  0  0  0  0  0  0  0  0  0  0  0
  150.5306  138.5072  156.1794 N   0  0  0  0  0  0  0  0  0  0  0  0
  150.3479  142.7922  157.9776 H   0  0  0  0  0  0  0  0  0  0  0  0
  149.5503  141.8713  156.6945 H   0  0  0  0  0  0  0  0  0  0  0  0
  151.1836  142.5078  156.4443 H   0  0  0  0  0  0  0  0  0  0  0  0
  149.9834  136.8746  153.5240 H   0  0  0  0  0  0  0  0  0  0  0  0
  148.9865  135.0855  153.2203 H   0  0  0  0  0  0  0  0  0  0  0  0
  147.9399  133.4343  155.4189 H   0  0  0  0  0  0  0  0  0  0  0  0
  150.2706  132.4378  153.6098 H   0  0  0  0  0  0  0  0  0  0  0  0
  149.2835  131.4341  154.7917 H   0  0  0  0  0  0  0  0  0  0  0  0
  148.2193  133.0241  152.3455 H   0  0  0  0  0  0  0  0  0  0  0  0
  146.7372  131.3678  154.4879 H   0  0  0  0  0  0  0  0  0  0  0  0
  146.9221  130.8971  152.7905 H   0  0  0  0  0  0  0  0  0  0  0  0
  145.9489  132.3139  153.2158 H   0  0  0  0  0  0  0  0  0  0  0  0
  1  2  1  0  0  0  0
  1 16  1  0  0  0  0
  1 17  1  0  0  0  0
  1 18  1  0  0  0  0
  2  3  1  0  0  0  0
  3 15  1  0  0  0  0
  3  4  2  0  0  0  0
  4  5  1  0  0  0  0
  5  6  1  0  0  0  0
  6  7  1  0  0  0  0
  6 15  2  0  0  0  0
  7  8  1  0  0  0  0
  7 19  1  0  0  0  0
  8  9  2  0  0  0  0
  8 10  1  0  0  0  0
 10 11  1  0  0  0  0
 10 20  1  0  0  0  0
 11 13  1  0  0  0  0
 11 12  1  0  0  0  0
 11 21  1  0  0  0  0
 12 13  1  0  0  0  0
 12 22  1  0  0  0  0
 12 23  1  0  0  0  0
 13 14  1  0  0  0  0
 13 24  1  0  0  0  0
 14 25  1  0  0  0  0
 14 26  1  0  0  0  0
 14 27  1  0  0  0  0
M  END
> <s_m_source_file>
AV-unprocessed.smi

> <i_m_source_file_index>
1443

> <i_lp_mmshare_version>
43012

> <i_f3d_flags>
0

> <s_epik_input>
W0NIM11TYzFuc2MobjEpW05IXUMoPU8pW05IXVtDQEBIXTJbQ0gyXVtDQEhdMltDSDNd

> <s_epik_cmdline>
J2VwaWtfcHl0aG9uJywgJy1waCcsICc3LjAnLCAnLXRuJywgJzgnLCAnLW1hJywgJzIwMCcsICctbWV0YWxfYmluZGluZycsICctaW1hZScsICc8aW5maWxlLm1hZT4nLCAnLW9tYWUnLCAnPG91dGZpbGUubWFlPic=

> <r_lp_tautomer_probability>
1

> <r_epik_Ionization_Penalty>
2.74658e-05

> <r_epik_Ionization_Penalty_Charging>
0

> <r_epik_Ionization_Penalty_Neutral>
2.74658e-05

> <r_epik_State_Penalty>
-0

> <r_epik_Charging_Adjusted_Penalty>
0

> <i_epik_Tot_Q>
0

> <i_epik_Tot_abs_Q>
0

> <r_epik_Metal_State_Penalty>
-0

> <b_epik_Metal_Only>
0

> <s_lp_Force_Field>
OPLS_2005

> <r_lp_Energy>
20.7527

> <b_lp_Chiralities_Consistent>
1

> <s_lp_Variant>
AV-unprocessed.smi:1443-1

> <Gold.Version>
5.8.1

> <Gold.Id.Protein>
6NUR|6NUR_protein|mol2

> <Gold.PLP.Fitness>
32.7611

> <Gold.PLP.PLP>
-25.8205

> <Gold.PLP.part.hbond>
-3.3720

> <Gold.PLP.part.metal>
0.0000

> <Gold.PLP.part.buried>
-4.1711

> <Gold.PLP.part.nonpolar>
-19.1269

> <Gold.PLP.part.repulsive>
0.0954

> <Gold.PLP.ligand.clash>
0.0000

> <Gold.PLP.ligand.torsion>
1.0103

> <Gold.PLP.Chemscore.Hbond>
2.9760

> <Gold.PLP.Chemscore.CHOScore>
0.0000

> <Gold.PLP.Chemscore.Metal>
0.0000

> <Gold.Chemscore.Hbonds>
donor molecule, donor type, donor heavy atom, donor atom, acceptor molecule, acceptor atom, score
      L1  H     7    19       P1  7948  0.98
      L1  H    10    20       P1  7948  1.00
      P1  H  7997  8010       L1     4  1.00

> <Gold.PLP.Chemscore.Internal.Correction>
0.0332

> <Gold.Rescore>
     Score         DG    S(hbond)    S(metal)    S(lipo)     H(rot)  DE(clash)    DE(int)     intcor
     14.24     -15.36       2.53        0.00      40.15       1.27       0.00       1.12       ----

> <Gold.Chemscore.Fitness>
14.2419

> <Gold.Chemscore.DG>
-15.3599

> <Gold.Chemscore.ZeroCoef>
-5.4800

> <Gold.Chemscore.Hbond>
2.5251

> <Gold.Chemscore.Metal>
0.0000

> <Gold.Chemscore.Lipo>
40.1451

> <Gold.Chemscore.Internal_Hbond>
0.0000

> <Gold.Chemscore.DEClash>
0.0015

> <Gold.Chemscore.DEInternal>
1.1165

> <Gold.Chemscore.Rot>
1.2699

> <Gold.Chemscore.Internal.Correction>
   9.000000E+99

> <Gold.Chemscore.Hbonds>
donor molecule, donor type, donor heavy atom, donor atom, acceptor molecule, acceptor atom, score
      L1  H     7    19       P1  7948  0.23
      L1  H    10    20       P1  7948  0.25
      P1  H  7997  8010       L1     4  0.91

> <Gold.Chemscore.Hbond.Weighted>
-8.4339

> <Gold.Chemscore.Metal.Weighted>
-0.0000

> <Gold.Chemscore.Lipo.Weighted>
-4.6970

> <Gold.Chemscore.Internal_Hbond.Weighted>
0.0000

> <Gold.Chemscore.DEClash.Weighted>
0.0015

> <Gold.Chemscore.DEInternal.Weighted>
1.1165

> <Gold.Chemscore.Rot.Weighted>
3.2509

> <Gold.Chemscore.Internal.Correction.Weighted>
   9.000000E+99

> <Gold.Protein.RotatedTorsions>
[ 6907 6896 6895 6894 ] final    1.08 input  -60.11 | X-H torsion
[ 7974 7965 7964 7962 ] final  100.33 input  175.53 | X-H torsion
[ 8008 7997 7996 7995 ] final   80.24 input   59.86 | X-H torsion
[ 10167 10162 10161 10158 ] final  102.83 input  -65.29 | X-H torsion
[ 10718 10713 10712 10709 ] final   38.24 input   66.30 | X-H torsion
[ 10763 10752 10751 10750 ] final   32.19 input  -60.55 | X-H torsion
[ 11005 11000 10999 10996 ] final  156.69 input  -57.11 | X-H torsion

> <Gold.Protein.ActiveResidues>
 VAL166  LYS551  ARG553  GLY616  TRP617  ASP618  TYR619  PRO620  LYS621  CYS622 
 ASP623  PHE694  ASN695  SER759  ASP760  ASP761  ALA762  ILE779  LEU786  VAL792 
 PHE793  MET794  SER795  GLU796  ALA797  LYS798  CYS799  TRP800  GLU811  SER814 

> <Gold.Protein.RotatedAtoms>
  151.5868  135.1055  160.0029 H   0  0  0  0  0  0  0  0  0  0  0  0  # atno 6907 bound_to 6896
  152.4326  133.7300  159.6593 H   0  0  0  0  0  0  0  0  0  0  0  0  # atno 6908 bound_to 6896
  150.8220  133.8165  159.3157 H   0  0  0  0  0  0  0  0  0  0  0  0  # atno 6909 bound_to 6896
  145.3870  139.2369  143.3372 H   0  0  0  0  0  0  0  0  0  0  0  0  # atno 7974 bound_to 7965
  155.8807  140.3444  155.5886 H   0  0  0  0  0  0  0  0  0  0  0  0  # atno 8008 bound_to 7997
  155.7723  140.0847  157.2121 H   0  0  0  0  0  0  0  0  0  0  0  0  # atno 8009 bound_to 7997
  154.4024  140.1516  156.2943 H   0  0  0  0  0  0  0  0  0  0  0  0  # atno 8010 bound_to 7997
  139.7316  144.7034  151.0714 H   0  0  0  0  0  0  0  0  0  0  0  0  # atno 10167 bound_to 10162
  157.3565  130.7626  149.7016 H   0  0  0  0  0  0  0  0  0  0  0  0  # atno 10718 bound_to 10713
  153.0275  135.6419  154.1316 H   0  0  0  0  0  0  0  0  0  0  0  0  # atno 10763 bound_to 10752
  154.1043  135.2857  155.3246 H   0  0  0  0  0  0  0  0  0  0  0  0  # atno 10764 bound_to 10752
  154.6376  135.5471  153.7815 H   0  0  0  0  0  0  0  0  0  0  0  0  # atno 10765 bound_to 10752
  140.1698  134.8551  157.2677 H   0  0  0  0  0  0  0  0  0  0  0  0  # atno 11005 bound_to 11000
  146.2815  140.4547  142.8774 LP  0  0  0  0  0  0  0  0  0  0  0  0  # atno 17320 bound_to 7965
  144.8467  140.6939  143.6194 LP  0  0  0  0  0  0  0  0  0  0  0  0  # atno 17321 bound_to 7965
  140.7772  143.5037  150.9739 LP  0  0  0  0  0  0  0  0  0  0  0  0  # atno 17342 bound_to 10162
  139.8725  143.7174  152.3165 LP  0  0  0  0  0  0  0  0  0  0  0  0  # atno 17343 bound_to 10162
  155.9730  130.4126  150.4039 LP  0  0  0  0  0  0  0  0  0  0  0  0  # atno 17370 bound_to 10713
  157.2110  131.0460  151.2599 LP  0  0  0  0  0  0  0  0  0  0  0  0  # atno 17371 bound_to 10713
  140.2390  134.3818  155.7488 LP  0  0  0  0  0  0  0  0  0  0  0  0  # atno 17394 bound_to 11000
  141.2216  133.7255  156.8760 LP  0  0  0  0  0  0  0  0  0  0  0  0  # atno 17395 bound_to 11000

$$$$
