AV-unprocessed.smi:114|AV-procd|sdf|1118|dock5
  -GOLD-   2262018243D 1   1.00000     0.00000
 Structure written by MMmdl.
 32 34  0  0  0  0  0  0  0  0  1 V2000
  144.7905  135.5316  150.0210 N   0  0  0  0  0  0  0  0  0  0  0  0
  144.7638  136.0707  151.2481 C   0  0  0  0  0  0  0  0  0  0  0  0
  143.7874  135.6825  152.1012 N   0  0  0  0  0  0  0  0  0  0  0  0
  143.7248  136.1965  153.3357 C   0  0  0  0  0  0  0  0  0  0  0  0
  142.7171  135.7511  154.1225 F   0  0  0  0  0  0  0  0  0  0  0  0
  144.5465  137.1003  153.8794 N   0  0  0  0  0  0  0  0  0  0  0  0
  145.5334  137.4944  153.0236 C   0  0  0  0  0  0  0  0  0  0  0  0
  145.7087  137.0271  151.6934 C   0  0  0  0  0  0  0  0  0  0  0  0
  146.8110  137.6424  151.1155 N   0  0  0  0  0  0  0  0  0  0  0  0
  147.2588  138.4300  152.0565 C   0  0  0  0  0  0  0  0  0  0  0  0
  146.5532  138.4000  153.2395 N   0  0  0  0  0  0  0  0  0  0  0  0
  146.8317  139.1803  154.4869 C   0  0  1  0  0  0  0  0  0  0  0  0
  148.1002  138.8394  154.9494 O   0  0  0  0  0  0  0  0  0  0  0  0
  148.7054  139.9864  155.5343 C   0  0  1  0  0  0  0  0  0  0  0  0
  150.2304  139.8107  155.6466 C   0  0  0  0  0  0  0  0  0  0  0  0
  150.7908  139.6000  154.3677 O   0  0  0  0  0  0  0  0  0  0  0  0
  148.2326  141.1323  154.6270 C   0  0  1  0  0  0  0  0  0  0  0  0
  149.0683  141.2628  153.4897 O   0  0  0  0  0  0  0  0  0  0  0  0
  146.8094  140.7083  154.2678 C   0  0  1  0  0  0  0  0  0  0  0  0
  146.3919  141.1446  152.9838 O   0  0  0  0  0  0  0  0  0  0  0  0
  146.0720  138.8472  155.1951 H   0  0  0  0  0  0  0  0  0  0  0  0
  148.2710  140.1380  156.5247 H   0  0  0  0  0  0  0  0  0  0  0  0
  148.2407  142.0870  155.1537 H   0  0  0  0  0  0  0  0  0  0  0  0
  146.1194  141.1210  155.0051 H   0  0  0  0  0  0  0  0  0  0  0  0
  145.5095  135.8058  149.3670 H   0  0  0  0  0  0  0  0  0  0  0  0
  144.0919  134.8536  149.7528 H   0  0  0  0  0  0  0  0  0  0  0  0
  148.1270  139.0568  151.9138 H   0  0  0  0  0  0  0  0  0  0  0  0
  150.6950  140.6727  156.1269 H   0  0  0  0  0  0  0  0  0  0  0  0
  150.4648  138.9343  156.2516 H   0  0  0  0  0  0  0  0  0  0  0  0
  150.1651  139.1270  153.8408 H   0  0  0  0  0  0  0  0  0  0  0  0
  148.9504  140.4994  152.9451 H   0  0  0  0  0  0  0  0  0  0  0  0
  145.5202  140.8163  152.8241 H   0  0  0  0  0  0  0  0  0  0  0  0
  1  2  1  0  0  0  0
  1 25  1  0  0  0  0
  1 26  1  0  0  0  0
  2  8  1  0  0  0  0
  2  3  2  0  0  0  0
  3  4  1  0  0  0  0
  4  5  1  0  0  0  0
  4  6  2  0  0  0  0
  6  7  1  0  0  0  0
  7 11  1  0  0  0  0
  7  8  2  0  0  0  0
  8  9  1  0  0  0  0
  9 10  2  0  0  0  0
 10 11  1  0  0  0  0
 10 27  1  0  0  0  0
 11 12  1  0  0  0  0
 12 21  1  0  0  0  0
 12 19  1  0  0  0  0
 12 13  1  0  0  0  0
 13 14  1  0  0  0  0
 14 22  1  0  0  0  0
 14 15  1  0  0  0  0
 14 17  1  0  0  0  0
 15 16  1  0  0  0  0
 15 28  1  0  0  0  0
 15 29  1  0  0  0  0
 16 30  1  0  0  0  0
 17 23  1  0  0  0  0
 17 18  1  0  0  0  0
 17 19  1  0  0  0  0
 18 31  1  0  0  0  0
 19 24  1  0  0  0  0
 19 20  1  0  0  0  0
 20 32  1  0  0  0  0
M  END
> <s_m_source_file>
AV-unprocessed.smi

> <i_m_source_file_index>
114

> <i_lp_mmshare_version>
43012

> <i_f3d_flags>
0

> <s_epik_input>
RmMobjEpbmMoW05IMl0pYyhjMTIpbltjSF1uMltDQEBIXTNPW0NASF0oW0NIMl1bT0hdKVtDQEBIXShbT0hdKVtDQEBIXTNbT0hd

> <s_epik_cmdline>
J2VwaWtfcHl0aG9uJywgJy1waCcsICc3LjAnLCAnLXRuJywgJzgnLCAnLW1hJywgJzIwMCcsICctbWV0YWxfYmluZGluZycsICctaW1hZScsICc8aW5maWxlLm1hZT4nLCAnLW9tYWUnLCAnPG91dGZpbGUubWFlPic=

> <r_lp_tautomer_probability>
1

> <r_epik_Ionization_Penalty>
1.13199e-05

> <r_epik_Ionization_Penalty_Charging>
0

> <r_epik_Ionization_Penalty_Neutral>
1.13199e-05

> <r_epik_State_Penalty>
-0

> <r_epik_Charging_Adjusted_Penalty>
0

> <i_epik_Tot_Q>
0

> <i_epik_Tot_abs_Q>
0

> <r_epik_Metal_State_Penalty>
-0

> <b_epik_Metal_Only>
0

> <s_epik_Chemistry_Notes>
This compound contains an acetal/aminal-like group ( X-CH(R)-Y where X, Y are N, S, or O) that may be acid/base labile, releasing an aldehyde.

> <s_lp_Force_Field>
OPLS_2005

> <r_lp_Energy>
48.1785

> <b_lp_Chiralities_Consistent>
1

> <s_lp_Variant>
AV-unprocessed.smi:114-12

> <Gold.Version>
5.8.1

> <Gold.Id.Protein>
6NUR|6NUR_protein|mol2

> <Gold.PLP.Fitness>
37.3077

> <Gold.PLP.PLP>
-20.1883

> <Gold.PLP.part.hbond>
-7.6152

> <Gold.PLP.part.metal>
0.0000

> <Gold.PLP.part.buried>
1.6238

> <Gold.PLP.part.nonpolar>
-18.6560

> <Gold.PLP.part.repulsive>
3.5895

> <Gold.PLP.ligand.clash>
0.1099

> <Gold.PLP.ligand.torsion>
0.0026

> <Gold.PLP.Chemscore.Hbond>
5.0983

> <Gold.PLP.Chemscore.CHOScore>
0.6457

> <Gold.PLP.Chemscore.Metal>
0.0000

> <Gold.Chemscore.Hbonds>
donor molecule, donor type, donor heavy atom, donor atom, acceptor molecule, acceptor atom, score
      L1  H     1    25       P1  7921  0.52
      L1  H    18    31       P1  7957  0.64
      L1  H    20    32       P1 10175  1.00
      P1  H  7954  7966       L1     9  0.95
      P1  H  7989  7998       L1    16  1.00
      P1  H  8011  8017       L1    18  0.96
      L1  C    10    27       P1  7957  0.68

> <Gold.PLP.Chemscore.Internal.Correction>
0.0024

> <Gold.Rescore>
     Score         DG    S(hbond)    S(metal)    S(lipo)     H(rot)  DE(clash)    DE(int)     intcor
      3.51      -9.09       3.12        0.00      29.81       4.03       5.47       0.11       ----

> <Gold.Chemscore.Fitness>
3.5132

> <Gold.Chemscore.DG>
-9.0899

> <Gold.Chemscore.ZeroCoef>
-5.4800

> <Gold.Chemscore.Hbond>
3.1237

> <Gold.Chemscore.Metal>
0.0000

> <Gold.Chemscore.Lipo>
29.8101

> <Gold.Chemscore.Internal_Hbond>
0.0000

> <Gold.Chemscore.DEClash>
5.4664

> <Gold.Chemscore.DEInternal>
0.1103

> <Gold.Chemscore.Rot>
4.0277

> <Gold.Chemscore.Internal.Correction>
   9.000000E+99

> <Gold.Chemscore.Hbonds>
donor molecule, donor type, donor heavy atom, donor atom, acceptor molecule, acceptor atom, score
      L1  H     1    25       P1  7921  0.50
      L1  H    18    31       P1  7957  0.63
      L1  H    20    32       P1 10175  0.40
      P1  H  7954  7966       L1     9  0.22
      P1  H  7989  7998       L1    16  0.85
      P1  H  8011  8017       L1    18  0.28

> <Gold.Chemscore.Hbond.Weighted>
-10.4331

> <Gold.Chemscore.Metal.Weighted>
-0.0000

> <Gold.Chemscore.Lipo.Weighted>
-3.4878

> <Gold.Chemscore.Internal_Hbond.Weighted>
0.0000

> <Gold.Chemscore.DEClash.Weighted>
5.4664

> <Gold.Chemscore.DEInternal.Weighted>
0.1103

> <Gold.Chemscore.Rot.Weighted>
10.3110

> <Gold.Chemscore.Internal.Correction.Weighted>
   9.000000E+99

> <Gold.Protein.RotatedTorsions>
[ 6907 6896 6895 6894 ] final   29.80 input  -60.11 | X-H torsion
[ 7974 7965 7964 7962 ] final   57.49 input  175.53 | X-H torsion
[ 8008 7997 7996 7995 ] final   98.59 input   59.86 | X-H torsion
[ 10167 10162 10161 10158 ] final  123.53 input  -65.29 | X-H torsion
[ 10718 10713 10712 10709 ] final  157.51 input   66.30 | X-H torsion
[ 10763 10752 10751 10750 ] final  -57.94 input  -60.55 | X-H torsion
[ 11005 11000 10999 10996 ] final -101.73 input  -57.11 | X-H torsion

> <Gold.Protein.ActiveResidues>
 VAL166  LYS551  ARG553  GLY616  TRP617  ASP618  TYR619  PRO620  LYS621  CYS622 
 ASP623  PHE694  ASN695  SER759  ASP760  ASP761  ALA762  ILE779  LEU786  VAL792 
 PHE793  MET794  SER795  GLU796  ALA797  LYS798  CYS799  TRP800  GLU811  SER814 

> <Gold.Protein.RotatedAtoms>
  152.0367  134.9736  160.0573 H   0  0  0  0  0  0  0  0  0  0  0  0  # atno 6907 bound_to 6896
  152.1191  133.4338  159.4675 H   0  0  0  0  0  0  0  0  0  0  0  0  # atno 6908 bound_to 6896
  150.6848  134.2476  159.4541 H   0  0  0  0  0  0  0  0  0  0  0  0  # atno 6909 bound_to 6896
  145.9285  139.3787  143.0436 H   0  0  0  0  0  0  0  0  0  0  0  0  # atno 7974 bound_to 7965
  156.1020  140.3241  155.7955 H   0  0  0  0  0  0  0  0  0  0  0  0  # atno 8008 bound_to 7997
  155.4820  140.0555  157.2983 H   0  0  0  0  0  0  0  0  0  0  0  0  # atno 8009 bound_to 7997
  154.4703  140.2008  156.0027 H   0  0  0  0  0  0  0  0  0  0  0  0  # atno 8010 bound_to 7997
  139.5794  144.6979  151.3568 H   0  0  0  0  0  0  0  0  0  0  0  0  # atno 10167 bound_to 10162
  157.1905  131.0653  151.2082 H   0  0  0  0  0  0  0  0  0  0  0  0  # atno 10718 bound_to 10713
  154.2303  135.6362  153.5173 H   0  0  0  0  0  0  0  0  0  0  0  0  # atno 10763 bound_to 10752
  152.9950  135.5518  154.6020 H   0  0  0  0  0  0  0  0  0  0  0  0  # atno 10764 bound_to 10752
  154.5501  135.2901  155.0991 H   0  0  0  0  0  0  0  0  0  0  0  0  # atno 10765 bound_to 10752
  141.1219  133.8501  157.1269 H   0  0  0  0  0  0  0  0  0  0  0  0  # atno 11005 bound_to 11000
  145.8458  140.9556  143.0775 LP  0  0  0  0  0  0  0  0  0  0  0  0  # atno 17320 bound_to 7965
  144.6761  140.0343  143.7482 LP  0  0  0  0  0  0  0  0  0  0  0  0  # atno 17321 bound_to 7965
  140.7074  143.7479  150.7505 LP  0  0  0  0  0  0  0  0  0  0  0  0  # atno 17342 bound_to 10162
  140.1008  143.4790  152.2426 LP  0  0  0  0  0  0  0  0  0  0  0  0  # atno 17343 bound_to 10162
  157.3865  130.7259  149.6667 LP  0  0  0  0  0  0  0  0  0  0  0  0  # atno 17370 bound_to 10713
  155.9712  130.4158  150.4199 LP  0  0  0  0  0  0  0  0  0  0  0  0  # atno 17371 bound_to 10713
  140.0183  134.9957  157.0539 LP  0  0  0  0  0  0  0  0  0  0  0  0  # atno 17394 bound_to 11000
  140.4482  134.1610  155.7179 LP  0  0  0  0  0  0  0  0  0  0  0  0  # atno 17395 bound_to 11000

$$$$
