AV-unprocessed.smi:1566|AV-procd|sdf|6303|dock3
  -GOLD-   22720 6503D 1   1.00000     0.00000
 Structure written by MMmdl.
 42 43  0  0  0  0  0  0  0  0  1 V2000
  145.2858  136.2493  151.7326 C   0  0  0  0  0  0  0  0  0  0  0  0
  145.7326  137.7146  151.6429 C   0  0  0  0  0  0  0  0  0  0  0  0
  147.0598  137.9074  152.2157 N   0  0  0  0  0  0  0  0  0  0  0  0
  147.3662  138.8016  153.1665 C   0  0  0  0  0  0  0  0  0  0  0  0
  146.5457  139.5738  153.6624 O   0  0  0  0  0  0  0  0  0  0  0  0
  148.6722  138.7486  153.4798 N   0  0  0  0  0  0  0  0  0  0  0  0
  149.3811  139.5191  154.4401 C   0  0  0  0  0  0  0  0  0  0  0  0
  150.7451  139.2345  154.6421 C   0  0  0  0  0  0  0  0  0  0  0  0
  151.4685  139.9719  155.5982 C   0  0  0  0  0  0  0  0  0  0  0  0
  150.8049  140.9759  156.3416 C   0  0  0  0  0  0  0  0  0  0  0  0
  151.5111  141.7305  157.3034 N   0  0  0  0  0  0  0  0  0  0  0  0
  150.8991  143.0021  157.6795 C   0  0  0  0  0  0  0  0  0  0  0  0
  151.8959  143.8644  158.4770 C   0  0  1  0  0  0  0  0  0  0  0  0
  151.2528  145.1549  158.9956 C   0  0  0  0  0  0  0  0  0  0  0  0
  152.3715  143.1206  159.5957 O   0  0  0  0  0  0  0  0  0  0  0  0
  153.0643  141.9373  159.2078 C   0  0  1  0  0  0  0  0  0  0  0  0
  153.6121  141.2635  160.4702 C   0  0  0  0  0  0  0  0  0  0  0  0
  152.1002  141.0182  158.4351 C   0  0  0  0  0  0  0  0  0  0  0  0
  149.4858  141.2330  156.1634 N   0  0  0  0  0  0  0  0  0  0  0  0
  148.7961  140.5270  155.2425 C   0  0  0  0  0  0  0  0  0  0  0  0
  144.3077  136.1146  151.2708 H   0  0  0  0  0  0  0  0  0  0  0  0
  145.2092  135.9198  152.7694 H   0  0  0  0  0  0  0  0  0  0  0  0
  145.9883  135.5903  151.2217 H   0  0  0  0  0  0  0  0  0  0  0  0
  145.7647  138.0254  150.5985 H   0  0  0  0  0  0  0  0  0  0  0  0
  145.0084  138.3636  152.1381 H   0  0  0  0  0  0  0  0  0  0  0  0
  147.7983  137.3174  151.8611 H   0  0  0  0  0  0  0  0  0  0  0  0
  149.2363  138.1204  152.9266 H   0  0  0  0  0  0  0  0  0  0  0  0
  151.2371  138.4613  154.0702 H   0  0  0  0  0  0  0  0  0  0  0  0
  152.5128  139.7499  155.7594 H   0  0  0  0  0  0  0  0  0  0  0  0
  150.5658  143.5609  156.8061 H   0  0  0  0  0  0  0  0  0  0  0  0
  150.0129  142.7978  158.2819 H   0  0  0  0  0  0  0  0  0  0  0  0
  152.7410  144.1313  157.8395 H   0  0  0  0  0  0  0  0  0  0  0  0
  150.8786  145.7647  158.1729 H   0  0  0  0  0  0  0  0  0  0  0  0
  151.9752  145.7536  159.5510 H   0  0  0  0  0  0  0  0  0  0  0  0
  150.4163  144.9396  159.6609 H   0  0  0  0  0  0  0  0  0  0  0  0
  153.9055  142.2092  158.5674 H   0  0  0  0  0  0  0  0  0  0  0  0
  154.1634  140.3560  160.2223 H   0  0  0  0  0  0  0  0  0  0  0  0
  152.8069  140.9906  161.1529 H   0  0  0  0  0  0  0  0  0  0  0  0
  154.2907  141.9290  161.0042 H   0  0  0  0  0  0  0  0  0  0  0  0
  151.3031  140.6700  159.0938 H   0  0  0  0  0  0  0  0  0  0  0  0
  152.6419  140.1388  158.0843 H   0  0  0  0  0  0  0  0  0  0  0  0
  147.7483  140.7745  155.1773 H   0  0  0  0  0  0  0  0  0  0  0  0
  1  2  1  0  0  0  0
  1 21  1  0  0  0  0
  1 22  1  0  0  0  0
  1 23  1  0  0  0  0
  2  3  1  0  0  0  0
  2 24  1  0  0  0  0
  2 25  1  0  0  0  0
  3  4  1  0  0  0  0
  3 26  1  0  0  0  0
  4  5  2  0  0  0  0
  4  6  1  0  0  0  0
  6  7  1  0  0  0  0
  6 27  1  0  0  0  0
  7 20  1  0  0  0  0
  7  8  2  0  0  0  0
  8  9  1  0  0  0  0
  8 28  1  0  0  0  0
  9 10  2  0  0  0  0
  9 29  1  0  0  0  0
 10 11  1  0  0  0  0
 10 19  1  0  0  0  0
 11 18  1  0  0  0  0
 11 12  1  0  0  0  0
 12 13  1  0  0  0  0
 12 30  1  0  0  0  0
 12 31  1  0  0  0  0
 13 14  1  0  0  0  0
 13 15  1  0  0  0  0
 13 32  1  0  0  0  0
 14 33  1  0  0  0  0
 14 34  1  0  0  0  0
 14 35  1  0  0  0  0
 15 16  1  0  0  0  0
 16 17  1  0  0  0  0
 16 18  1  0  0  0  0
 16 36  1  0  0  0  0
 17 37  1  0  0  0  0
 17 38  1  0  0  0  0
 17 39  1  0  0  0  0
 18 40  1  0  0  0  0
 18 41  1  0  0  0  0
 19 20  2  0  0  0  0
 20 42  1  0  0  0  0
M  END
> <s_m_source_file>
AV-unprocessed.smi

> <i_m_source_file_index>
1566

> <i_lp_mmshare_version>
43012

> <i_f3d_flags>
0

> <s_epik_input>
W0NIM11bQ0gyXVtOSF1DKD1PKVtOSF1jMVtjSF1bY0hdYyhuW2NIXTEpTjJbQ0gyXVtDQEBIXShbQ0gzXSlPW0NAQEhdKFtDSDNdKVtDSDJdMg==

> <s_epik_cmdline>
J2VwaWtfcHl0aG9uJywgJy1waCcsICc3LjAnLCAnLXRuJywgJzgnLCAnLW1hJywgJzIwMCcsICctbWV0YWxfYmluZGluZycsICctaW1hZScsICc8aW5maWxlLm1hZT4nLCAnLW9tYWUnLCAnPG91dGZpbGUubWFlPic=

> <r_lp_tautomer_probability>
1

> <r_epik_Ionization_Penalty>
0.0027066

> <r_epik_Ionization_Penalty_Charging>
0

> <r_epik_Ionization_Penalty_Neutral>
0.0027066

> <r_epik_State_Penalty>
0.00185803

> <r_epik_Charging_Adjusted_Penalty>
0.00185803

> <i_epik_Tot_Q>
0

> <i_epik_Tot_abs_Q>
0

> <r_epik_Metal_State_Penalty>
-0

> <b_epik_Metal_Only>
0

> <s_lp_Force_Field>
OPLS_2005

> <r_lp_Energy>
18.2391

> <b_lp_Chiralities_Consistent>
1

> <s_lp_Variant>
AV-unprocessed.smi:1566-1

> <Gold.Version>
5.8.1

> <Gold.Id.Protein>
6NUR|6NUR_protein|mol2

> <Gold.PLP.Fitness>
45.2792

> <Gold.PLP.PLP>
-40.8423

> <Gold.PLP.part.hbond>
-2.9213

> <Gold.PLP.part.metal>
0.0000

> <Gold.PLP.part.buried>
-0.7705

> <Gold.PLP.part.nonpolar>
-38.3305

> <Gold.PLP.part.repulsive>
0.4396

> <Gold.PLP.ligand.clash>
0.0000

> <Gold.PLP.ligand.torsion>
0.3093

> <Gold.PLP.Chemscore.Hbond>
1.5773

> <Gold.PLP.Chemscore.CHOScore>
0.0000

> <Gold.PLP.Chemscore.Metal>
0.0000

> <Gold.Chemscore.Hbonds>
donor molecule, donor type, donor heavy atom, donor atom, acceptor molecule, acceptor atom, score
      L1  H     3    26       P1  7948  1.00
      L1  H     6    27       P1  7948  0.54

> <Gold.PLP.Chemscore.Internal.Correction>
0.3236

> <Gold.Rescore>
     Score         DG    S(hbond)    S(metal)    S(lipo)     H(rot)  DE(clash)    DE(int)     intcor
     17.32     -20.27       1.82        0.00     100.34       1.19       1.48       1.47       ----

> <Gold.Chemscore.Fitness>
17.3226

> <Gold.Chemscore.DG>
-20.2708

> <Gold.Chemscore.ZeroCoef>
-5.4800

> <Gold.Chemscore.Hbond>
1.8236

> <Gold.Chemscore.Metal>
0.0000

> <Gold.Chemscore.Lipo>
100.3379

> <Gold.Chemscore.Internal_Hbond>
0.0000

> <Gold.Chemscore.DEClash>
1.4829

> <Gold.Chemscore.DEInternal>
1.4653

> <Gold.Chemscore.Rot>
1.1873

> <Gold.Chemscore.Internal.Correction>
   9.000000E+99

> <Gold.Chemscore.Hbonds>
donor molecule, donor type, donor heavy atom, donor atom, acceptor molecule, acceptor atom, score
      L1  H     3    26       P1  7948  0.96
      L1  H     6    27       P1  7948  0.50

> <Gold.Chemscore.Hbond.Weighted>
-6.0908

> <Gold.Chemscore.Metal.Weighted>
-0.0000

> <Gold.Chemscore.Lipo.Weighted>
-11.7395

> <Gold.Chemscore.Internal_Hbond.Weighted>
0.0000

> <Gold.Chemscore.DEClash.Weighted>
1.4829

> <Gold.Chemscore.DEInternal.Weighted>
1.4653

> <Gold.Chemscore.Rot.Weighted>
3.0396

> <Gold.Chemscore.Internal.Correction.Weighted>
   9.000000E+99

> <Gold.Protein.RotatedTorsions>
[ 6907 6896 6895 6894 ] final  -80.60 input  -60.11 | X-H torsion
[ 7974 7965 7964 7962 ] final  -31.90 input  175.53 | X-H torsion
[ 8008 7997 7996 7995 ] final  130.44 input   59.86 | X-H torsion
[ 10167 10162 10161 10158 ] final    4.29 input  -65.29 | X-H torsion
[ 10718 10713 10712 10709 ] final -116.29 input   66.30 | X-H torsion
[ 10763 10752 10751 10750 ] final  150.83 input  -60.55 | X-H torsion
[ 11005 11000 10999 10996 ] final -145.83 input  -57.11 | X-H torsion

> <Gold.Protein.ActiveResidues>
 VAL166  LYS551  ARG553  GLY616  TRP617  ASP618  TYR619  PRO620  LYS621  CYS622 
 ASP623  PHE694  ASN695  SER759  ASP760  ASP761  ALA762  ILE779  LEU786  VAL792 
 PHE793  MET794  SER795  GLU796  ALA797  LYS798  CYS799  TRP800  GLU811  SER814 

> <Gold.Protein.RotatedAtoms>
  150.6926  134.3945  159.5091 H   0  0  0  0  0  0  0  0  0  0  0  0  # atno 6907 bound_to 6896
  152.1728  134.8817  160.0542 H   0  0  0  0  0  0  0  0  0  0  0  0  # atno 6908 bound_to 6896
  151.9836  133.3731  159.4154 H   0  0  0  0  0  0  0  0  0  0  0  0  # atno 6909 bound_to 6896
  146.1032  140.5725  142.8811 H   0  0  0  0  0  0  0  0  0  0  0  0  # atno 7974 bound_to 7965
  156.2954  140.2596  156.2762 H   0  0  0  0  0  0  0  0  0  0  0  0  # atno 8008 bound_to 7997
  154.9646  140.0392  157.2225 H   0  0  0  0  0  0  0  0  0  0  0  0  # atno 8009 bound_to 7997
  154.7915  140.2812  155.5993 H   0  0  0  0  0  0  0  0  0  0  0  0  # atno 8010 bound_to 7997
  140.6542  143.7469  150.7626 H   0  0  0  0  0  0  0  0  0  0  0  0  # atno 10167 bound_to 10162
  156.0953  130.6127  150.9016 H   0  0  0  0  0  0  0  0  0  0  0  0  # atno 10718 bound_to 10713
  154.0939  135.2850  155.3266 H   0  0  0  0  0  0  0  0  0  0  0  0  # atno 10763 bound_to 10752
  154.6601  135.5337  153.8011 H   0  0  0  0  0  0  0  0  0  0  0  0  # atno 10764 bound_to 10752
  153.0403  135.6532  154.1106 H   0  0  0  0  0  0  0  0  0  0  0  0  # atno 10765 bound_to 10752
  140.7882  134.2999  157.5022 H   0  0  0  0  0  0  0  0  0  0  0  0  # atno 11005 bound_to 11000
  144.7449  140.5041  143.6843 LP  0  0  0  0  0  0  0  0  0  0  0  0  # atno 17320 bound_to 7965
  145.5814  139.1489  143.3233 LP  0  0  0  0  0  0  0  0  0  0  0  0  # atno 17321 bound_to 7965
  140.1125  143.4686  152.2361 LP  0  0  0  0  0  0  0  0  0  0  0  0  # atno 17342 bound_to 10162
  139.5762  144.7488  151.3759 LP  0  0  0  0  0  0  0  0  0  0  0  0  # atno 17343 bound_to 10162
  157.6113  131.0936  150.8790 LP  0  0  0  0  0  0  0  0  0  0  0  0  # atno 17370 bound_to 10713
  156.8929  130.5219  149.5285 LP  0  0  0  0  0  0  0  0  0  0  0  0  # atno 17371 bound_to 10713
  139.8734  134.9359  156.3646 LP  0  0  0  0  0  0  0  0  0  0  0  0  # atno 17394 bound_to 11000
  140.9415  133.7511  156.0153 LP  0  0  0  0  0  0  0  0  0  0  0  0  # atno 17395 bound_to 11000

$$$$
