AV-unprocessed.smi:532|AV-procd|sdf|2852|dock4
  -GOLD-   2262023343D 1   1.00000     0.00000
 Structure written by MMmdl.
 48 50  0  0  0  0  0  0  0  0  2 V2000
  147.7233  140.6717  154.2880 C   0  0  0  0  0  0  0  0  0  0  0  0
  147.1145  140.2877  155.5079 O   0  0  0  0  0  0  0  0  0  0  0  0
  147.2183  138.8950  155.7491 C   0  0  0  0  0  0  0  0  0  0  0  0
  147.7006  138.6758  157.1875 C   0  0  0  0  0  0  0  0  0  0  0  0
  148.3095  137.3606  157.3508 N   0  0  0  0  0  0  0  0  0  0  0  0
  147.9992  136.3901  158.2543 C   0  0  0  0  0  0  0  0  0  0  0  0
  146.9692  136.5232  159.1914 N   0  0  0  0  0  0  0  0  0  0  0  0
  146.8207  135.5810  160.3016 C   0  0  0  0  0  0  0  0  0  0  0  0
  146.3693  136.2653  161.6043 C   0  0  2  0  0  0  0  0  0  0  0  0
  146.2764  135.2601  162.7601 C   0  0  0  0  0  0  0  0  0  0  0  0
  145.0296  136.9814  161.3738 C   0  0  0  0  0  0  0  0  0  0  0  0
  145.1112  137.9289  160.1654 C   0  0  1  0  0  0  0  0  0  0  0  0
  145.8518  139.2357  160.4955 C   0  0  0  0  0  0  0  0  0  0  0  0
  145.6856  137.1859  158.9359 C   0  0  0  0  0  0  0  0  0  0  0  0
  148.7856  135.3124  158.1970 N   0  0  0  0  0  0  0  0  0  0  0  0
  149.6593  135.6126  157.1645 C   0  0  0  0  0  0  0  0  0  0  0  0
  149.4022  136.8429  156.6464 C   0  0  0  0  0  0  0  0  0  0  0  0
  150.1975  137.4588  155.5602 C   0  0  0  0  0  0  0  0  0  0  0  0
  149.9464  138.5900  155.1501 O   0  0  0  0  0  0  0  0  0  0  0  0
  151.1958  136.6309  155.1166 N   0  5  0  0  0  0  0  0  0  0  0  0
  151.4838  135.3748  155.6056 C   0  0  0  0  0  0  0  0  0  0  0  0
  152.4032  134.6942  155.1485 O   0  0  0  0  0  0  0  0  0  0  0  0
  150.7362  134.8549  156.6292 N   0  0  0  0  0  0  0  0  0  0  0  0
  151.0273  133.5271  157.1773 C   0  0  0  0  0  0  0  0  0  0  0  0
  147.6116  141.7464  154.1455 H   0  0  0  0  0  0  0  0  0  0  0  0
  147.2582  140.1687  153.4392 H   0  0  0  0  0  0  0  0  0  0  0  0
  148.7895  140.4416  154.2908 H   0  0  0  0  0  0  0  0  0  0  0  0
  146.2516  138.4130  155.5966 H   0  0  0  0  0  0  0  0  0  0  0  0
  147.9235  138.4477  155.0464 H   0  0  0  0  0  0  0  0  0  0  0  0
  148.4104  139.4466  157.4618 H   0  0  0  0  0  0  0  0  0  0  0  0
  146.8810  138.7918  157.8947 H   0  0  0  0  0  0  0  0  0  0  0  0
  146.1135  134.8012  160.0153 H   0  0  0  0  0  0  0  0  0  0  0  0
  147.7756  135.0825  160.4735 H   0  0  0  0  0  0  0  0  0  0  0  0
  147.1209  137.0068  161.8774 H   0  0  0  0  0  0  0  0  0  0  0  0
  145.5410  134.4824  162.5513 H   0  0  0  0  0  0  0  0  0  0  0  0
  145.9855  135.7542  163.6875 H   0  0  0  0  0  0  0  0  0  0  0  0
  147.2359  134.7727  162.9336 H   0  0  0  0  0  0  0  0  0  0  0  0
  144.2523  136.2382  161.1899 H   0  0  0  0  0  0  0  0  0  0  0  0
  144.7254  137.5263  162.2682 H   0  0  0  0  0  0  0  0  0  0  0  0
  144.0898  138.2189  159.9164 H   0  0  0  0  0  0  0  0  0  0  0  0
  146.9001  139.0598  160.7331 H   0  0  0  0  0  0  0  0  0  0  0  0
  145.4000  139.7349  161.3529 H   0  0  0  0  0  0  0  0  0  0  0  0
  145.8093  139.9326  159.6585 H   0  0  0  0  0  0  0  0  0  0  0  0
  145.7601  137.8572  158.0815 H   0  0  0  0  0  0  0  0  0  0  0  0
  144.9773  136.4153  158.6284 H   0  0  0  0  0  0  0  0  0  0  0  0
  150.9392  132.7656  156.4012 H   0  0  0  0  0  0  0  0  0  0  0  0
  150.3518  133.2475  157.9853 H   0  0  0  0  0  0  0  0  0  0  0  0
  152.0423  133.4932  157.5754 H   0  0  0  0  0  0  0  0  0  0  0  0
  1  2  1  0  0  0  0
  1 25  1  0  0  0  0
  1 26  1  0  0  0  0
  1 27  1  0  0  0  0
  2  3  1  0  0  0  0
  3  4  1  0  0  0  0
  3 28  1  0  0  0  0
  3 29  1  0  0  0  0
  4  5  1  0  0  0  0
  4 30  1  0  0  0  0
  4 31  1  0  0  0  0
  5 17  1  0  0  0  0
  5  6  1  0  0  0  0
  6  7  1  0  0  0  0
  6 15  2  0  0  0  0
  7 14  1  0  0  0  0
  7  8  1  0  0  0  0
  8  9  1  0  0  0  0
  8 32  1  0  0  0  0
  8 33  1  0  0  0  0
  9 10  1  0  0  0  0
  9 11  1  0  0  0  0
  9 34  1  0  0  0  0
 10 35  1  0  0  0  0
 10 36  1  0  0  0  0
 10 37  1  0  0  0  0
 11 12  1  0  0  0  0
 11 38  1  0  0  0  0
 11 39  1  0  0  0  0
 12 13  1  0  0  0  0
 12 14  1  0  0  0  0
 12 40  1  0  0  0  0
 13 41  1  0  0  0  0
 13 42  1  0  0  0  0
 13 43  1  0  0  0  0
 14 44  1  0  0  0  0
 14 45  1  0  0  0  0
 15 16  1  0  0  0  0
 16 23  1  0  0  0  0
 16 17  2  0  0  0  0
 17 18  1  0  0  0  0
 18 19  2  0  0  0  0
 18 20  1  0  0  0  0
 20 21  1  0  0  0  0
 21 22  2  0  0  0  0
 21 23  1  0  0  0  0
 23 24  1  0  0  0  0
 24 46  1  0  0  0  0
 24 47  1  0  0  0  0
 24 48  1  0  0  0  0
M  CHG  1  20  -1
M  END
> <s_m_source_file>
AV-unprocessed.smi

> <i_m_source_file_index>
532

> <i_lp_mmshare_version>
43012

> <i_f3d_flags>
0

> <s_epik_input>
W0NIM11uMWMoPU8pW25IXWMoPU8pYyhjMTIpbihbQ0gyXVtDSDJdT1tDSDNdKWMobjIpTjNbQ0gyXVtDQEBIXShbQ0gzXSlbQ0gyXVtDQEBIXShbQ0gzXSlbQ0gyXTM=

> <s_epik_cmdline>
J2VwaWtfcHl0aG9uJywgJy1waCcsICc3LjAnLCAnLXRuJywgJzgnLCAnLW1hJywgJzIwMCcsICctbWV0YWxfYmluZGluZycsICctaW1hZScsICc8aW5maWxlLm1hZT4nLCAnLW9tYWUnLCAnPG91dGZpbGUubWFlPic=

> <r_lp_tautomer_probability>
1

> <r_epik_Ionization_Penalty>
5.12128

> <r_epik_Ionization_Penalty_Charging>
0.0789629

> <r_epik_Ionization_Penalty_Neutral>
5.04232

> <r_epik_State_Penalty>
5.03111

> <r_epik_Charging_Adjusted_Penalty>
5.11007

> <i_epik_Tot_Q>
-1

> <i_epik_Tot_abs_Q>
1

> <r_epik_Metal_State_Penalty>
1.14201

> <b_epik_Metal_Only>
1

> <s_lp_Force_Field>
OPLS_2005

> <r_lp_Energy>
45.9264

> <b_lp_Chiralities_Consistent>
1

> <s_lp_Variant>
AV-unprocessed.smi:532-5

> <Gold.Version>
5.8.1

> <Gold.Id.Protein>
6NUR|6NUR_protein|mol2

> <Gold.PLP.Fitness>
37.1273

> <Gold.PLP.PLP>
-29.1782

> <Gold.PLP.part.hbond>
-3.1715

> <Gold.PLP.part.metal>
0.0000

> <Gold.PLP.part.buried>
-2.8362

> <Gold.PLP.part.nonpolar>
-22.4056

> <Gold.PLP.part.repulsive>
0.0352

> <Gold.PLP.ligand.clash>
0.0000

> <Gold.PLP.ligand.torsion>
0.7534

> <Gold.PLP.Chemscore.Hbond>
3.0050

> <Gold.PLP.Chemscore.CHOScore>
0.0000

> <Gold.PLP.Chemscore.Metal>
0.0000

> <Gold.PLP.Chemscore.Internal.Correction>
0.4410

> <Gold.Rescore>
     Score         DG    S(hbond)    S(metal)    S(lipo)     H(rot)  DE(clash)    DE(int)     intcor
     10.71     -13.02       1.69        0.00      47.12       1.41       0.13       2.18       ----

> <Gold.Chemscore.Fitness>
10.7096

> <Gold.Chemscore.DG>
-13.0224

> <Gold.Chemscore.ZeroCoef>
-5.4800

> <Gold.Chemscore.Hbond>
1.6918

> <Gold.Chemscore.Metal>
0.0000

> <Gold.Chemscore.Lipo>
47.1216

> <Gold.Chemscore.Internal_Hbond>
0.0000

> <Gold.Chemscore.DEClash>
0.1334

> <Gold.Chemscore.DEInternal>
2.1794

> <Gold.Chemscore.Rot>
1.4147

> <Gold.Chemscore.Internal.Correction>
   9.000000E+99

> <Gold.Chemscore.Hbond.Weighted>
-5.6507

> <Gold.Chemscore.Metal.Weighted>
-0.0000

> <Gold.Chemscore.Lipo.Weighted>
-5.5132

> <Gold.Chemscore.Internal_Hbond.Weighted>
0.0000

> <Gold.Chemscore.DEClash.Weighted>
0.1334

> <Gold.Chemscore.DEInternal.Weighted>
2.1794

> <Gold.Chemscore.Rot.Weighted>
3.6216

> <Gold.Chemscore.Internal.Correction.Weighted>
   9.000000E+99

> <Gold.Protein.RotatedTorsions>
[ 6907 6896 6895 6894 ] final  -24.63 input  -60.11 | X-H torsion
[ 7974 7965 7964 7962 ] final  -88.33 input  175.53 | X-H torsion
[ 8008 7997 7996 7995 ] final   63.94 input   59.86 | X-H torsion
[ 10167 10162 10161 10158 ] final    7.04 input  -65.29 | X-H torsion
[ 10718 10713 10712 10709 ] final -163.23 input   66.30 | X-H torsion
[ 10763 10752 10751 10750 ] final -116.92 input  -60.55 | X-H torsion
[ 11005 11000 10999 10996 ] final   78.89 input  -57.11 | X-H torsion

> <Gold.Protein.ActiveResidues>
 VAL166  LYS551  ARG553  GLY616  TRP617  ASP618  TYR619  PRO620  LYS621  CYS622 
 ASP623  PHE694  ASN695  SER759  ASP760  ASP761  ALA762  ILE779  LEU786  VAL792 
 PHE793  MET794  SER795  GLU796  ALA797  LYS798  CYS799  TRP800  GLU811  SER814 

> <Gold.Protein.RotatedAtoms>
  151.1867  135.0384  159.8815 H   0  0  0  0  0  0  0  0  0  0  0  0  # atno 6907 bound_to 6896
  152.5442  134.1002  159.8324 H   0  0  0  0  0  0  0  0  0  0  0  0  # atno 6908 bound_to 6896
  151.1125  133.5115  159.2637 H   0  0  0  0  0  0  0  0  0  0  0  0  # atno 6909 bound_to 6896
  145.4546  140.9561  143.2003 H   0  0  0  0  0  0  0  0  0  0  0  0  # atno 7974 bound_to 7965
  155.6381  140.3496  155.4705 H   0  0  0  0  0  0  0  0  0  0  0  0  # atno 8008 bound_to 7997
  155.9948  140.1201  157.0627 H   0  0  0  0  0  0  0  0  0  0  0  0  # atno 8009 bound_to 7997
  154.4230  140.1112  156.5601 H   0  0  0  0  0  0  0  0  0  0  0  0  # atno 8010 bound_to 7997
  140.6394  143.7810  150.7406 H   0  0  0  0  0  0  0  0  0  0  0  0  # atno 10167 bound_to 10162
  156.6217  130.8893  151.2959 H   0  0  0  0  0  0  0  0  0  0  0  0  # atno 10718 bound_to 10713
  154.8536  135.4328  154.1897 H   0  0  0  0  0  0  0  0  0  0  0  0  # atno 10763 bound_to 10752
  153.2968  135.6966  153.7246 H   0  0  0  0  0  0  0  0  0  0  0  0  # atno 10764 bound_to 10752
  153.6392  135.3471  155.3040 H   0  0  0  0  0  0  0  0  0  0  0  0  # atno 10765 bound_to 10752
  139.9194  134.7799  156.1708 H   0  0  0  0  0  0  0  0  0  0  0  0  # atno 11005 bound_to 11000
  144.8040  139.6086  143.7059 LP  0  0  0  0  0  0  0  0  0  0  0  0  # atno 17320 bound_to 7965
  146.2485  139.6150  142.9443 LP  0  0  0  0  0  0  0  0  0  0  0  0  # atno 17321 bound_to 7965
  140.1438  143.4418  152.2176 LP  0  0  0  0  0  0  0  0  0  0  0  0  # atno 17342 bound_to 10162
  139.5603  144.7401  151.4173 LP  0  0  0  0  0  0  0  0  0  0  0  0  # atno 17343 bound_to 10162
  157.7226  130.9578  150.1499 LP  0  0  0  0  0  0  0  0  0  0  0  0  # atno 17370 bound_to 10713
  156.2306  130.3682  149.8449 LP  0  0  0  0  0  0  0  0  0  0  0  0  # atno 17371 bound_to 10713
  141.0701  133.6800  156.2124 LP  0  0  0  0  0  0  0  0  0  0  0  0  # atno 17394 bound_to 11000
  140.6520  134.5057  157.5578 LP  0  0  0  0  0  0  0  0  0  0  0  0  # atno 17395 bound_to 11000

$$$$
