AV-unprocessed.smi:1258|AV-procd|sdf|5289|dock4
  -GOLD-   22720 4413D 1   1.00000     0.00000
 Structure written by MMmdl.
 33 34  0  0  0  0  0  0  0  0  1 V2000
  152.7369  142.9731  162.1728 C   0  0  0  0  0  0  0  0  0  0  0  0
  152.7670  143.3944  160.6969 C   0  0  2  0  0  0  0  0  0  0  0  0
  152.0685  144.7510  160.4840 C   0  0  0  0  0  0  0  0  0  0  0  0
  152.0982  145.1730  159.0068 C   0  0  0  0  0  0  0  0  0  0  0  0
  151.4750  144.0946  158.1076 C   0  0  0  0  0  0  0  0  0  0  0  0
  152.1677  142.7337  158.3040 C   0  0  2  0  0  0  0  0  0  0  0  0
  151.5145  141.7291  157.4698 N   0  0  0  0  0  0  0  0  0  0  0  0
  151.8816  140.4421  157.3731 C   0  0  0  0  0  0  0  0  0  0  0  0
  152.8216  139.9607  158.0075 O   0  0  0  0  0  0  0  0  0  0  0  0
  151.0507  139.5858  156.4096 C   0  0  0  0  0  0  0  0  0  0  0  0
  150.0333  140.3509  155.7094 N   0  0  0  0  0  0  0  0  0  0  0  0
  148.9312  140.9582  156.1539 C   0  0  0  0  0  0  0  0  0  0  0  0
  148.2684  141.5489  155.1714 N   0  0  0  0  0  0  0  0  0  0  0  0
  149.0411  141.2678  154.0571 N   0  0  0  0  0  0  0  0  0  0  0  0
  150.0899  140.5576  154.3701 N   0  0  0  0  0  0  0  0  0  0  0  0
  152.1411  142.3166  159.7897 C   0  0  0  0  0  0  0  0  0  0  0  0
  151.7141  142.8447  162.5283 H   0  0  0  0  0  0  0  0  0  0  0  0
  153.2178  143.7206  162.8043 H   0  0  0  0  0  0  0  0  0  0  0  0
  153.2624  142.0295  162.3220 H   0  0  0  0  0  0  0  0  0  0  0  0
  153.8136  143.5070  160.4100 H   0  0  0  0  0  0  0  0  0  0  0  0
  151.0336  144.6917  160.8238 H   0  0  0  0  0  0  0  0  0  0  0  0
  152.5491  145.5183  161.0922 H   0  0  0  0  0  0  0  0  0  0  0  0
  151.5664  146.1162  158.8791 H   0  0  0  0  0  0  0  0  0  0  0  0
  153.1286  145.3553  158.6991 H   0  0  0  0  0  0  0  0  0  0  0  0
  150.4115  144.0063  158.3351 H   0  0  0  0  0  0  0  0  0  0  0  0
  151.5444  144.4031  157.0637 H   0  0  0  0  0  0  0  0  0  0  0  0
  153.2069  142.8346  157.9845 H   0  0  0  0  0  0  0  0  0  0  0  0
  150.7311  142.0411  156.9143 H   0  0  0  0  0  0  0  0  0  0  0  0
  151.7079  139.1279  155.6691 H   0  0  0  0  0  0  0  0  0  0  0  0
  150.5725  138.7760  156.9627 H   0  0  0  0  0  0  0  0  0  0  0  0
  148.6168  140.9660  157.1872 H   0  0  0  0  0  0  0  0  0  0  0  0
  152.6765  141.3755  159.9209 H   0  0  0  0  0  0  0  0  0  0  0  0
  151.1119  142.1304  160.1008 H   0  0  0  0  0  0  0  0  0  0  0  0
  1  2  1  0  0  0  0
  1 17  1  0  0  0  0
  1 18  1  0  0  0  0
  1 19  1  0  0  0  0
  2 16  1  0  0  0  0
  2  3  1  0  0  0  0
  2 20  1  0  0  0  0
  3  4  1  0  0  0  0
  3 21  1  0  0  0  0
  3 22  1  0  0  0  0
  4  5  1  0  0  0  0
  4 23  1  0  0  0  0
  4 24  1  0  0  0  0
  5  6  1  0  0  0  0
  5 25  1  0  0  0  0
  5 26  1  0  0  0  0
  6  7  1  0  0  0  0
  6 16  1  0  0  0  0
  6 27  1  0  0  0  0
  7  8  1  0  0  0  0
  7 28  1  0  0  0  0
  8  9  2  0  0  0  0
  8 10  1  0  0  0  0
 10 11  1  0  0  0  0
 10 29  1  0  0  0  0
 10 30  1  0  0  0  0
 11 15  1  0  0  0  0
 11 12  1  0  0  0  0
 12 13  2  0  0  0  0
 12 31  1  0  0  0  0
 13 14  1  0  0  0  0
 14 15  2  0  0  0  0
 16 32  1  0  0  0  0
 16 33  1  0  0  0  0
M  END
> <s_m_source_file>
AV-unprocessed.smi

> <i_m_source_file_index>
1258

> <i_lp_mmshare_version>
43012

> <i_f3d_flags>
0

> <s_epik_input>
W0NIM11bQ0BASF0xW0NIMl1bQ0gyXVtDSDJdW0NASF0oW0NIMl0xKVtOSF1DKD1PKVtDSDJdbjJbY0hdbm5uMg==

> <s_epik_cmdline>
J2VwaWtfcHl0aG9uJywgJy1waCcsICc3LjAnLCAnLXRuJywgJzgnLCAnLW1hJywgJzIwMCcsICctbWV0YWxfYmluZGluZycsICctaW1hZScsICc8aW5maWxlLm1hZT4nLCAnLW9tYWUnLCAnPG91dGZpbGUubWFlPic=

> <r_lp_tautomer_probability>
1

> <r_epik_Ionization_Penalty>
5.03816e-07

> <r_epik_Ionization_Penalty_Charging>
0

> <r_epik_Ionization_Penalty_Neutral>
5.03816e-07

> <r_epik_State_Penalty>
-0

> <r_epik_Charging_Adjusted_Penalty>
0

> <i_epik_Tot_Q>
0

> <i_epik_Tot_abs_Q>
0

> <r_epik_Metal_State_Penalty>
-0

> <b_epik_Metal_Only>
0

> <s_lp_Force_Field>
OPLS_2005

> <r_lp_Energy>
11.1566

> <b_lp_Chiralities_Consistent>
1

> <s_lp_Variant>
AV-unprocessed.smi:1258-3

> <Gold.Version>
5.8.1

> <Gold.Id.Protein>
6NUR|6NUR_protein|mol2

> <Gold.PLP.Fitness>
43.9293

> <Gold.PLP.PLP>
-36.3867

> <Gold.PLP.part.hbond>
-3.7211

> <Gold.PLP.part.metal>
0.0000

> <Gold.PLP.part.buried>
-4.5848

> <Gold.PLP.part.nonpolar>
-28.7588

> <Gold.PLP.part.repulsive>
0.7607

> <Gold.PLP.ligand.clash>
0.0030

> <Gold.PLP.ligand.torsion>
0.0575

> <Gold.PLP.Chemscore.Hbond>
2.5520

> <Gold.PLP.Chemscore.CHOScore>
0.0000

> <Gold.PLP.Chemscore.Metal>
0.0000

> <Gold.Chemscore.Hbonds>
donor molecule, donor type, donor heavy atom, donor atom, acceptor molecule, acceptor atom, score
      P1  H  7989  7998       L1    15  0.83
      P1  H  7997  8010       L1     9  1.00
      P1  H  8011  8017       L1    14  0.44

> <Gold.PLP.Chemscore.Internal.Correction>
0.0045

> <Gold.Rescore>
     Score         DG    S(hbond)    S(metal)    S(lipo)     H(rot)  DE(clash)    DE(int)     intcor
     15.61     -16.68       1.75        0.00      87.69       1.92       0.00       1.07       ----

> <Gold.Chemscore.Fitness>
15.6082

> <Gold.Chemscore.DG>
-16.6842

> <Gold.Chemscore.ZeroCoef>
-5.4800

> <Gold.Chemscore.Hbond>
1.7519

> <Gold.Chemscore.Metal>
0.0000

> <Gold.Chemscore.Lipo>
87.6930

> <Gold.Chemscore.Internal_Hbond>
0.0000

> <Gold.Chemscore.DEClash>
0.0018

> <Gold.Chemscore.DEInternal>
1.0741

> <Gold.Chemscore.Rot>
1.9169

> <Gold.Chemscore.Internal.Correction>
   9.000000E+99

> <Gold.Chemscore.Hbonds>
donor molecule, donor type, donor heavy atom, donor atom, acceptor molecule, acceptor atom, score
      P1  H  7989  7998       L1    15  0.78
      P1  H  7997  8010       L1     9  0.61
      P1  H  8011  8017       L1    14  0.13

> <Gold.Chemscore.Hbond.Weighted>
-5.8513

> <Gold.Chemscore.Metal.Weighted>
-0.0000

> <Gold.Chemscore.Lipo.Weighted>
-10.2601

> <Gold.Chemscore.Internal_Hbond.Weighted>
0.0000

> <Gold.Chemscore.DEClash.Weighted>
0.0018

> <Gold.Chemscore.DEInternal.Weighted>
1.0741

> <Gold.Chemscore.Rot.Weighted>
4.9073

> <Gold.Chemscore.Internal.Correction.Weighted>
   9.000000E+99

> <Gold.Protein.RotatedTorsions>
[ 6907 6896 6895 6894 ] final  -44.54 input  -60.11 | X-H torsion
[ 7974 7965 7964 7962 ] final  136.24 input  175.53 | X-H torsion
[ 8008 7997 7996 7995 ] final   47.65 input   59.86 | X-H torsion
[ 10167 10162 10161 10158 ] final   -2.76 input  -65.29 | X-H torsion
[ 10718 10713 10712 10709 ] final -170.19 input   66.30 | X-H torsion
[ 10763 10752 10751 10750 ] final  -69.31 input  -60.55 | X-H torsion
[ 11005 11000 10999 10996 ] final   51.25 input  -57.11 | X-H torsion

> <Gold.Protein.ActiveResidues>
 VAL166  LYS551  ARG553  GLY616  TRP617  ASP618  TYR619  PRO620  LYS621  CYS622 
 ASP623  PHE694  ASN695  SER759  ASP760  ASP761  ALA762  ILE779  LEU786  VAL792 
 PHE793  MET794  SER795  GLU796  ALA797  LYS798  CYS799  TRP800  GLU811  SER814 

> <Gold.Protein.RotatedAtoms>
  150.9317  134.8732  159.7555 H   0  0  0  0  0  0  0  0  0  0  0  0  # atno 6907 bound_to 6896
  152.5041  134.4069  159.9445 H   0  0  0  0  0  0  0  0  0  0  0  0  # atno 6908 bound_to 6896
  151.4095  133.3692  159.2777 H   0  0  0  0  0  0  0  0  0  0  0  0  # atno 6909 bound_to 6896
  144.9584  139.4738  143.5491 H   0  0  0  0  0  0  0  0  0  0  0  0  # atno 7974 bound_to 7965
  155.3726  140.3424  155.4244 H   0  0  0  0  0  0  0  0  0  0  0  0  # atno 8008 bound_to 7997
  156.1654  140.1614  156.8574 H   0  0  0  0  0  0  0  0  0  0  0  0  # atno 8009 bound_to 7997
  154.5180  140.0774  156.8100 H   0  0  0  0  0  0  0  0  0  0  0  0  # atno 8010 bound_to 7997
  140.6863  143.6620  150.8259 H   0  0  0  0  0  0  0  0  0  0  0  0  # atno 10167 bound_to 10162
  156.7225  130.9275  151.3098 H   0  0  0  0  0  0  0  0  0  0  0  0  # atno 10718 bound_to 10713
  154.4015  135.6030  153.5900 H   0  0  0  0  0  0  0  0  0  0  0  0  # atno 10763 bound_to 10752
  152.9788  135.5907  154.4178 H   0  0  0  0  0  0  0  0  0  0  0  0  # atno 10764 bound_to 10752
  154.3977  135.2842  155.2094 H   0  0  0  0  0  0  0  0  0  0  0  0  # atno 10765 bound_to 10752
  140.0949  134.5159  155.8817 H   0  0  0  0  0  0  0  0  0  0  0  0  # atno 11005 bound_to 11000
  146.3345  139.8718  142.8839 LP  0  0  0  0  0  0  0  0  0  0  0  0  # atno 17320 bound_to 7965
  145.2736  141.0116  143.3757 LP  0  0  0  0  0  0  0  0  0  0  0  0  # atno 17321 bound_to 7965
  140.0327  143.5427  152.2753 LP  0  0  0  0  0  0  0  0  0  0  0  0  # atno 17342 bound_to 10162
  139.6225  144.7631  151.2708 LP  0  0  0  0  0  0  0  0  0  0  0  0  # atno 17343 bound_to 10162
  157.6892  130.9216  150.0468 LP  0  0  0  0  0  0  0  0  0  0  0  0  # atno 17370 bound_to 10713
  156.1584  130.3643  149.9335 LP  0  0  0  0  0  0  0  0  0  0  0  0  # atno 17371 bound_to 10713
  141.2089  133.6678  156.6402 LP  0  0  0  0  0  0  0  0  0  0  0  0  # atno 17394 bound_to 11000
  140.3301  134.7936  157.4319 LP  0  0  0  0  0  0  0  0  0  0  0  0  # atno 17395 bound_to 11000

$$$$
