AV-unprocessed.smi:3200|AV-procd|sdf|12235|dock3
  -GOLD-   2272018 73D 1   1.00000     0.00000
 Structure written by MMmdl.
 38 39  0  0  0  0  0  0  0  0  2 V2000
  152.0343  141.2785  158.5810 C   0  0  0  0  0  0  0  0  0  0  0  0
  152.0570  140.0767  157.6992 C   0  0  0  0  0  0  0  0  0  0  0  0
  153.0515  139.1985  157.7500 N   0  0  0  0  0  0  0  0  0  0  0  0
  152.6907  138.2443  156.7880 O   0  0  0  0  0  0  0  0  0  0  0  0
  151.5225  138.6790  156.2577 C   0  0  0  0  0  0  0  0  0  0  0  0
  150.8457  137.8444  155.2227 C   0  0  0  0  0  0  0  0  0  0  0  0
  150.8805  138.4937  153.8334 C   0  0  0  0  0  0  0  0  0  0  0  0
  149.5414  138.4830  153.2102 N   0  3  0  0  0  0  0  0  0  0  0  0
  148.4144  138.6703  154.1520 C   0  0  2  0  0  0  0  0  0  0  0  0
  147.8951  137.3583  154.7566 C   0  0  0  0  0  0  0  0  0  0  0  0
  146.4326  137.6316  155.1313 C   0  0  0  0  0  0  0  0  0  0  0  0
  146.0856  139.0090  154.5462 C   0  0  0  0  0  0  0  0  0  0  0  0
  147.1761  139.3301  153.5080 C   0  0  0  0  0  0  0  0  0  0  0  0
  147.3574  140.8506  153.3422 C   0  0  0  0  0  0  0  0  0  0  0  0
  146.8008  138.7033  152.1447 C   0  0  0  0  0  0  0  0  0  0  0  0
  151.0695  139.8054  156.8019 N   0  0  0  0  0  0  0  0  0  0  0  0
  152.8974  141.2916  159.2477 H   0  0  0  0  0  0  0  0  0  0  0  0
  151.1296  141.2820  159.1893 H   0  0  0  0  0  0  0  0  0  0  0  0
  152.0503  142.1869  157.9788 H   0  0  0  0  0  0  0  0  0  0  0  0
  151.3303  136.8675  155.1941 H   0  0  0  0  0  0  0  0  0  0  0  0
  149.8141  137.6745  155.5342 H   0  0  0  0  0  0  0  0  0  0  0  0
  151.2371  139.5212  153.9148 H   0  0  0  0  0  0  0  0  0  0  0  0
  151.5812  137.9577  153.1914 H   0  0  0  0  0  0  0  0  0  0  0  0
  149.5073  139.2345  152.5361 H   0  0  0  0  0  0  0  0  0  0  0  0
  148.7562  139.3080  154.9698 H   0  0  0  0  0  0  0  0  0  0  0  0
  147.9370  136.5539  154.0208 H   0  0  0  0  0  0  0  0  0  0  0  0
  148.4854  137.0428  155.6176 H   0  0  0  0  0  0  0  0  0  0  0  0
  145.7873  136.8595  154.7111 H   0  0  0  0  0  0  0  0  0  0  0  0
  146.2880  137.6230  156.2121 H   0  0  0  0  0  0  0  0  0  0  0  0
  145.0786  139.0380  154.1276 H   0  0  0  0  0  0  0  0  0  0  0  0
  146.1118  139.7439  155.3523 H   0  0  0  0  0  0  0  0  0  0  0  0
  146.4458  141.3165  152.9663 H   0  0  0  0  0  0  0  0  0  0  0  0
  148.1586  141.0796  152.6386 H   0  0  0  0  0  0  0  0  0  0  0  0
  147.6049  141.3327  154.2886 H   0  0  0  0  0  0  0  0  0  0  0  0
  145.8658  139.1198  151.7687 H   0  0  0  0  0  0  0  0  0  0  0  0
  146.6690  137.6232  152.2109 H   0  0  0  0  0  0  0  0  0  0  0  0
  147.5619  138.8966  151.3885 H   0  0  0  0  0  0  0  0  0  0  0  0
  149.4120  137.6082  152.7220 H   0  0  0  0  0  0  0  0  0  0  0  0
  1  2  1  0  0  0  0
  1 17  1  0  0  0  0
  1 18  1  0  0  0  0
  1 19  1  0  0  0  0
  2 16  1  0  0  0  0
  2  3  2  0  0  0  0
  3  4  1  0  0  0  0
  4  5  1  0  0  0  0
  5  6  1  0  0  0  0
  5 16  2  0  0  0  0
  6  7  1  0  0  0  0
  6 20  1  0  0  0  0
  6 21  1  0  0  0  0
  7  8  1  0  0  0  0
  7 22  1  0  0  0  0
  7 23  1  0  0  0  0
  8  9  1  0  0  0  0
  8 24  1  0  0  0  0
  8 38  1  0  0  0  0
  9 13  1  0  0  0  0
  9 10  1  0  0  0  0
  9 25  1  0  0  0  0
 10 11  1  0  0  0  0
 10 26  1  0  0  0  0
 10 27  1  0  0  0  0
 11 12  1  0  0  0  0
 11 28  1  0  0  0  0
 11 29  1  0  0  0  0
 12 13  1  0  0  0  0
 12 30  1  0  0  0  0
 12 31  1  0  0  0  0
 13 14  1  0  0  0  0
 13 15  1  0  0  0  0
 14 32  1  0  0  0  0
 14 33  1  0  0  0  0
 14 34  1  0  0  0  0
 15 35  1  0  0  0  0
 15 36  1  0  0  0  0
 15 37  1  0  0  0  0
M  CHG  1   8   1
M  END
> <s_m_source_file>
AV-unprocessed.smi

> <i_m_source_file_index>
3200

> <i_lp_mmshare_version>
43012

> <i_f3d_flags>
0

> <s_epik_input>
W0NIM11jMW5vYyhuMSlbQ0gyXVtDSDJdW05IXVtDQEBIXShDMihbQ0gzXSlbQ0gzXSlbQ0gyXVtDSDJdW0NIMl0y

> <s_epik_cmdline>
J2VwaWtfcHl0aG9uJywgJy1waCcsICc3LjAnLCAnLXRuJywgJzgnLCAnLW1hJywgJzIwMCcsICctbWV0YWxfYmluZGluZycsICctaW1hZScsICc8aW5maWxlLm1hZT4nLCAnLW9tYWUnLCAnPG91dGZpbGUubWFlPic=

> <r_lp_tautomer_probability>
1

> <r_epik_Ionization_Penalty>
0.000953161

> <r_epik_Ionization_Penalty_Charging>
0.000953161

> <r_epik_Ionization_Penalty_Neutral>
4.23223e-13

> <r_epik_State_Penalty>
0.000619331

> <r_epik_Charging_Adjusted_Penalty>
0.00157249

> <i_epik_Tot_Q>
1

> <i_epik_Tot_abs_Q>
1

> <r_epik_Metal_State_Penalty>
-0

> <b_epik_Metal_Only>
0

> <s_lp_Force_Field>
OPLS_2005

> <r_lp_Energy>
25.4915

> <b_lp_Chiralities_Consistent>
1

> <s_lp_Variant>
AV-unprocessed.smi:3200-1

> <Gold.Version>
5.8.1

> <Gold.Id.Protein>
6NUR|6NUR_protein|mol2

> <Gold.PLP.Fitness>
32.8454

> <Gold.PLP.PLP>
-22.7340

> <Gold.PLP.part.hbond>
-3.3041

> <Gold.PLP.part.metal>
0.0000

> <Gold.PLP.part.buried>
-1.7838

> <Gold.PLP.part.nonpolar>
-16.2832

> <Gold.PLP.part.repulsive>
0.0994

> <Gold.PLP.ligand.clash>
0.0000

> <Gold.PLP.ligand.torsion>
0.9418

> <Gold.PLP.Chemscore.Hbond>
3.9913

> <Gold.PLP.Chemscore.CHOScore>
0.0000

> <Gold.PLP.Chemscore.Metal>
0.0000

> <Gold.Chemscore.Hbonds>
donor molecule, donor type, donor heavy atom, donor atom, acceptor molecule, acceptor atom, score
      L1  H     8    24       P1  7957  1.00
      L1  H     8    38       P1  7948  2.00
      P1  H  7997  8009       L1     3  1.00

> <Gold.PLP.Chemscore.Internal.Correction>
0.0213

> <Gold.Rescore>
     Score         DG    S(hbond)    S(metal)    S(lipo)     H(rot)  DE(clash)    DE(int)     intcor
     14.48     -16.26       2.76        0.00      52.38       1.79       0.13       1.66       ----

> <Gold.Chemscore.Fitness>
14.4751

> <Gold.Chemscore.DG>
-16.2613

> <Gold.Chemscore.ZeroCoef>
-5.4800

> <Gold.Chemscore.Hbond>
2.7628

> <Gold.Chemscore.Metal>
0.0000

> <Gold.Chemscore.Lipo>
52.3822

> <Gold.Chemscore.Internal_Hbond>
0.0000

> <Gold.Chemscore.DEClash>
0.1255

> <Gold.Chemscore.DEInternal>
1.6608

> <Gold.Chemscore.Rot>
1.7872

> <Gold.Chemscore.Internal.Correction>
   9.000000E+99

> <Gold.Chemscore.Hbonds>
donor molecule, donor type, donor heavy atom, donor atom, acceptor molecule, acceptor atom, score
      L1  H     8    24       P1  7957  0.96
      L1  H     8    38       P1  7948  0.85
      P1  H  7997  8009       L1     3  0.33

> <Gold.Chemscore.Hbond.Weighted>
-9.2278

> <Gold.Chemscore.Metal.Weighted>
-0.0000

> <Gold.Chemscore.Lipo.Weighted>
-6.1287

> <Gold.Chemscore.Internal_Hbond.Weighted>
0.0000

> <Gold.Chemscore.DEClash.Weighted>
0.1255

> <Gold.Chemscore.DEInternal.Weighted>
1.6608

> <Gold.Chemscore.Rot.Weighted>
4.5753

> <Gold.Chemscore.Internal.Correction.Weighted>
   9.000000E+99

> <Gold.Protein.RotatedTorsions>
[ 6907 6896 6895 6894 ] final  -37.01 input  -60.11 | X-H torsion
[ 7974 7965 7964 7962 ] final   12.26 input  175.53 | X-H torsion
[ 8008 7997 7996 7995 ] final  152.13 input   59.86 | X-H torsion
[ 10167 10162 10161 10158 ] final -104.54 input  -65.29 | X-H torsion
[ 10718 10713 10712 10709 ] final   19.39 input   66.30 | X-H torsion
[ 10763 10752 10751 10750 ] final   16.24 input  -60.55 | X-H torsion
[ 11005 11000 10999 10996 ] final  -36.84 input  -57.11 | X-H torsion

> <Gold.Protein.ActiveResidues>
 VAL166  LYS551  ARG553  GLY616  TRP617  ASP618  TYR619  PRO620  LYS621  CYS622 
 ASP623  PHE694  ASN695  SER759  ASP760  ASP761  ALA762  ILE779  LEU786  VAL792 
 PHE793  MET794  SER795  GLU796  ALA797  LYS798  CYS799  TRP800  GLU811  SER814 

> <Gold.Protein.RotatedAtoms>
  151.0200  134.9462  159.8053 H   0  0  0  0  0  0  0  0  0  0  0  0  # atno 6907 bound_to 6896
  152.5323  134.2916  159.9055 H   0  0  0  0  0  0  0  0  0  0  0  0  # atno 6908 bound_to 6896
  151.2924  133.4117  159.2668 H   0  0  0  0  0  0  0  0  0  0  0  0  # atno 6909 bound_to 6896
  146.2355  139.9363  142.8489 H   0  0  0  0  0  0  0  0  0  0  0  0  # atno 7974 bound_to 7965
  156.2643  140.2029  156.6285 H   0  0  0  0  0  0  0  0  0  0  0  0  # atno 8008 bound_to 7997
  154.6701  140.0551  157.0181 H   0  0  0  0  0  0  0  0  0  0  0  0  # atno 8009 bound_to 7997
  155.1149  140.3219  155.4515 H   0  0  0  0  0  0  0  0  0  0  0  0  # atno 8010 bound_to 7997
  140.2081  143.3767  152.1073 H   0  0  0  0  0  0  0  0  0  0  0  0  # atno 10167 bound_to 10162
  157.1098  130.6503  149.5894 H   0  0  0  0  0  0  0  0  0  0  0  0  # atno 10718 bound_to 10713
  153.1449  135.6767  153.8969 H   0  0  0  0  0  0  0  0  0  0  0  0  # atno 10763 bound_to 10752
  153.8414  135.3105  155.3427 H   0  0  0  0  0  0  0  0  0  0  0  0  # atno 10764 bound_to 10752
  154.7817  135.4884  153.9944 H   0  0  0  0  0  0  0  0  0  0  0  0  # atno 10765 bound_to 10752
  140.9906  133.7007  156.1843 H   0  0  0  0  0  0  0  0  0  0  0  0  # atno 11005 bound_to 11000
  145.1996  140.9848  143.4163 LP  0  0  0  0  0  0  0  0  0  0  0  0  # atno 17320 bound_to 7965
  144.9785  139.3807  143.6273 LP  0  0  0  0  0  0  0  0  0  0  0  0  # atno 17321 bound_to 7965
  139.5190  144.7014  151.5482 LP  0  0  0  0  0  0  0  0  0  0  0  0  # atno 17342 bound_to 10162
  140.6343  143.9015  150.6633 LP  0  0  0  0  0  0  0  0  0  0  0  0  # atno 17343 bound_to 10162
  155.9853  130.4882  150.7026 LP  0  0  0  0  0  0  0  0  0  0  0  0  # atno 17370 bound_to 10713
  157.4569  131.0879  151.0787 LP  0  0  0  0  0  0  0  0  0  0  0  0  # atno 17371 bound_to 10713
  140.7046  134.4527  157.5584 LP  0  0  0  0  0  0  0  0  0  0  0  0  # atno 17394 bound_to 11000
  139.8990  134.8600  156.1977 LP  0  0  0  0  0  0  0  0  0  0  0  0  # atno 17395 bound_to 11000

$$$$
