AV-unprocessed.smi:221|AV-procd|sdf|1690|dock10
  -GOLD-   2262020133D 1   1.00000     0.00000
 Structure written by MMmdl.
 50 53  0  0  0  0  0  0  0  0  1 V2000
  153.4178  140.8999  161.6925 N   0  0  0  0  0  0  0  0  0  0  0  0
  152.9215  142.1130  161.9465 C   0  0  0  0  0  0  0  0  0  0  0  0
  152.7059  142.5039  163.0926 O   0  0  0  0  0  0  0  0  0  0  0  0
  152.6490  143.0160  160.7348 C   0  0  2  0  0  0  0  0  0  0  0  0
  152.4207  144.4756  161.1499 C   0  0  0  0  0  0  0  0  0  0  0  0
  151.6098  145.0425  159.9901 C   0  0  1  0  0  0  0  0  0  0  0  0
  152.4309  145.3808  158.9946 F   0  0  0  0  0  0  0  0  0  0  0  0
  150.7400  143.8596  159.5582 C   0  0  0  0  0  0  0  0  0  0  0  0
  151.4136  142.6548  160.0360 N   0  0  0  0  0  0  0  0  0  0  0  0
  151.5126  141.6464  159.1419 C   0  0  0  0  0  0  0  0  0  0  0  0
  152.3546  140.6292  159.4460 N   0  0  0  0  0  0  0  0  0  0  0  0
  152.4952  139.6039  158.5999 C   0  0  0  0  0  0  0  0  0  0  0  0
  151.8988  139.4048  157.4221 N   0  0  0  0  0  0  0  0  0  0  0  0
  151.0512  140.4286  157.1152 C   0  0  0  0  0  0  0  0  0  0  0  0
  150.7999  141.5803  157.9119 C   0  0  0  0  0  0  0  0  0  0  0  0
  149.8804  142.4065  157.2770 N   0  0  0  0  0  0  0  0  0  0  0  0
  149.6035  141.7788  156.1668 C   0  0  0  0  0  0  0  0  0  0  0  0
  150.2656  140.5858  155.9865 N   0  0  0  0  0  0  0  0  0  0  0  0
  150.1430  139.6944  154.8462 C   0  0  0  0  0  0  0  0  0  0  0  0
  149.0769  138.5898  155.0514 C   0  0  1  0  0  0  0  0  0  0  0  0
  147.8545  138.7636  154.1176 C   0  0  0  0  0  0  0  0  0  0  0  0
  148.2113  138.5933  152.7611 O   0  0  0  0  0  0  0  0  0  0  0  0
  149.6981  137.1731  154.9546 C   0  0  2  0  0  0  0  0  0  0  0  0
  148.7788  136.0399  155.3758 C   0  0  0  0  0  0  0  0  0  0  0  0
  149.7631  134.9032  155.6269 C   0  0  0  0  0  0  0  0  0  0  0  0
  150.9500  135.5238  156.1069 O   0  0  0  0  0  0  0  0  0  0  0  0
  150.8847  136.9306  155.8939 C   0  0  0  0  0  0  0  0  0  0  0  0
  153.4960  142.9676  160.0477 H   0  0  0  0  0  0  0  0  0  0  0  0
  151.0327  145.9286  160.2551 H   0  0  0  0  0  0  0  0  0  0  0  0
  153.6128  140.2694  162.4566 H   0  0  0  0  0  0  0  0  0  0  0  0
  153.5955  140.6165  160.7398 H   0  0  0  0  0  0  0  0  0  0  0  0
  151.8307  144.5326  162.0666 H   0  0  0  0  0  0  0  0  0  0  0  0
  153.3515  145.0186  161.3170 H   0  0  0  0  0  0  0  0  0  0  0  0
  149.7706  143.9103  160.0549 H   0  0  0  0  0  0  0  0  0  0  0  0
  150.5509  143.8665  158.4831 H   0  0  0  0  0  0  0  0  0  0  0  0
  153.1841  138.8328  158.9116 H   0  0  0  0  0  0  0  0  0  0  0  0
  148.9063  142.1730  155.4417 H   0  0  0  0  0  0  0  0  0  0  0  0
  149.9112  140.2866  153.9603 H   0  0  0  0  0  0  0  0  0  0  0  0
  151.1244  139.2539  154.6706 H   0  0  0  0  0  0  0  0  0  0  0  0
  148.7005  138.7029  156.0692 H   0  0  0  0  0  0  0  0  0  0  0  0
  147.0718  138.0463  154.3641 H   0  0  0  0  0  0  0  0  0  0  0  0
  147.4045  139.7488  154.2401 H   0  0  0  0  0  0  0  0  0  0  0  0
  148.6412  137.7571  152.6654 H   0  0  0  0  0  0  0  0  0  0  0  0
  150.0271  136.9865  153.9310 H   0  0  0  0  0  0  0  0  0  0  0  0
  148.2567  136.2936  156.2995 H   0  0  0  0  0  0  0  0  0  0  0  0
  148.0346  135.7849  154.6209 H   0  0  0  0  0  0  0  0  0  0  0  0
  149.3810  134.1682  156.3354 H   0  0  0  0  0  0  0  0  0  0  0  0
  149.9936  134.3876  154.6939 H   0  0  0  0  0  0  0  0  0  0  0  0
  151.8229  137.3068  155.4856 H   0  0  0  0  0  0  0  0  0  0  0  0
  150.7210  137.4129  156.8585 H   0  0  0  0  0  0  0  0  0  0  0  0
  1  2  1  0  0  0  0
  1 30  1  0  0  0  0
  1 31  1  0  0  0  0
  2  3  2  0  0  0  0
  2  4  1  0  0  0  0
  4 28  1  0  0  0  0
  4  9  1  0  0  0  0
  4  5  1  0  0  0  0
  5  6  1  0  0  0  0
  5 32  1  0  0  0  0
  5 33  1  0  0  0  0
  6 29  1  0  0  0  0
  6  7  1  0  0  0  0
  6  8  1  0  0  0  0
  8  9  1  0  0  0  0
  8 34  1  0  0  0  0
  8 35  1  0  0  0  0
  9 10  1  0  0  0  0
 10 15  1  0  0  0  0
 10 11  2  0  0  0  0
 11 12  1  0  0  0  0
 12 13  2  0  0  0  0
 12 36  1  0  0  0  0
 13 14  1  0  0  0  0
 14 18  1  0  0  0  0
 14 15  2  0  0  0  0
 15 16  1  0  0  0  0
 16 17  2  0  0  0  0
 17 18  1  0  0  0  0
 17 37  1  0  0  0  0
 18 19  1  0  0  0  0
 19 20  1  0  0  0  0
 19 38  1  0  0  0  0
 19 39  1  0  0  0  0
 20 21  1  0  0  0  0
 20 23  1  0  0  0  0
 20 40  1  0  0  0  0
 21 22  1  0  0  0  0
 21 41  1  0  0  0  0
 21 42  1  0  0  0  0
 22 43  1  0  0  0  0
 23 27  1  0  0  0  0
 23 24  1  0  0  0  0
 23 44  1  0  0  0  0
 24 25  1  0  0  0  0
 24 45  1  0  0  0  0
 24 46  1  0  0  0  0
 25 26  1  0  0  0  0
 25 47  1  0  0  0  0
 25 48  1  0  0  0  0
 26 27  1  0  0  0  0
 27 49  1  0  0  0  0
 27 50  1  0  0  0  0
M  END
> <s_m_source_file>
AV-unprocessed.smi

> <i_m_source_file_index>
221

> <i_lp_mmshare_version>
43012

> <i_f3d_flags>
0

> <s_epik_input>
W05IMl1DKD1PKVtDQEBIXTFbQ0gyXVtDQEBIXShGKVtDSDJdTjFjKG5bY0hdbjIpYyhjMjMpbltjSF1uM1tDSDJdW0NASF0oW0NIMl1bT0hdKVtDQEBIXTRbQ0gyXVtDSDJdT1tDSDJdNA==

> <s_epik_cmdline>
J2VwaWtfcHl0aG9uJywgJy1waCcsICc3LjAnLCAnLXRuJywgJzgnLCAnLW1hJywgJzIwMCcsICctbWV0YWxfYmluZGluZycsICctaW1hZScsICc8aW5maWxlLm1hZT4nLCAnLW9tYWUnLCAnPG91dGZpbGUubWFlPic=

> <r_lp_tautomer_probability>
1

> <r_epik_Ionization_Penalty>
0.000818822

> <r_epik_Ionization_Penalty_Charging>
0

> <r_epik_Ionization_Penalty_Neutral>
0.000818822

> <r_epik_State_Penalty>
0.000440551

> <r_epik_Charging_Adjusted_Penalty>
0.000440551

> <i_epik_Tot_Q>
0

> <i_epik_Tot_abs_Q>
0

> <r_epik_Metal_State_Penalty>
-0

> <b_epik_Metal_Only>
0

> <s_lp_Force_Field>
OPLS_2005

> <r_lp_Energy>
51.1408

> <b_lp_Chiralities_Consistent>
1

> <s_lp_Variant>
AV-unprocessed.smi:221-5

> <Gold.Version>
5.8.1

> <Gold.Id.Protein>
6NUR|6NUR_protein|mol2

> <Gold.PLP.Fitness>
48.4723

> <Gold.PLP.PLP>
-45.1359

> <Gold.PLP.part.hbond>
-3.2407

> <Gold.PLP.part.metal>
0.0000

> <Gold.PLP.part.buried>
-4.6943

> <Gold.PLP.part.nonpolar>
-36.6401

> <Gold.PLP.part.repulsive>
1.4592

> <Gold.PLP.ligand.clash>
0.0000

> <Gold.PLP.ligand.torsion>
2.0282

> <Gold.PLP.Chemscore.Hbond>
2.0000

> <Gold.PLP.Chemscore.CHOScore>
0.3621

> <Gold.PLP.Chemscore.Metal>
0.0000

> <Gold.Chemscore.Hbonds>
donor molecule, donor type, donor heavy atom, donor atom, acceptor molecule, acceptor atom, score
      L1  H    22    43       P1  7948  1.00
      L1  C    17    37       P1  8028  0.55

> <Gold.PLP.Chemscore.Internal.Correction>
0.3063

> <Gold.Rescore>
     Score         DG    S(hbond)    S(metal)    S(lipo)     H(rot)  DE(clash)    DE(int)     intcor
      4.26     -11.60       1.92        0.00      78.90       3.72       0.10       7.24       ----

> <Gold.Chemscore.Fitness>
4.2611

> <Gold.Chemscore.DG>
-11.6018

> <Gold.Chemscore.ZeroCoef>
-5.4800

> <Gold.Chemscore.Hbond>
1.9204

> <Gold.Chemscore.Metal>
0.0000

> <Gold.Chemscore.Lipo>
78.8996

> <Gold.Chemscore.Internal_Hbond>
0.0000

> <Gold.Chemscore.DEClash>
0.1038

> <Gold.Chemscore.DEInternal>
7.2369

> <Gold.Chemscore.Rot>
3.7202

> <Gold.Chemscore.Internal.Correction>
   9.000000E+99

> <Gold.Chemscore.Hbonds>
donor molecule, donor type, donor heavy atom, donor atom, acceptor molecule, acceptor atom, score
      L1  H    22    43       P1  7948  0.98

> <Gold.Chemscore.Hbond.Weighted>
-6.4143

> <Gold.Chemscore.Metal.Weighted>
-0.0000

> <Gold.Chemscore.Lipo.Weighted>
-9.2312

> <Gold.Chemscore.Internal_Hbond.Weighted>
0.0000

> <Gold.Chemscore.DEClash.Weighted>
0.1038

> <Gold.Chemscore.DEInternal.Weighted>
7.2369

> <Gold.Chemscore.Rot.Weighted>
9.5237

> <Gold.Chemscore.Internal.Correction.Weighted>
   9.000000E+99

> <Gold.Protein.RotatedTorsions>
[ 6907 6896 6895 6894 ] final -110.58 input  -60.11 | X-H torsion
[ 7974 7965 7964 7962 ] final  -96.64 input  175.53 | X-H torsion
[ 8008 7997 7996 7995 ] final  148.75 input   59.86 | X-H torsion
[ 10167 10162 10161 10158 ] final  -44.80 input  -65.29 | X-H torsion
[ 10718 10713 10712 10709 ] final -146.46 input   66.30 | X-H torsion
[ 10763 10752 10751 10750 ] final   66.13 input  -60.55 | X-H torsion
[ 11005 11000 10999 10996 ] final  160.78 input  -57.11 | X-H torsion

> <Gold.Protein.ActiveResidues>
 VAL166  LYS551  ARG553  GLY616  TRP617  ASP618  TYR619  PRO620  LYS621  CYS622 
 ASP623  PHE694  ASN695  SER759  ASP760  ASP761  ALA762  ILE779  LEU786  VAL792 
 PHE793  MET794  SER795  GLU796  ALA797  LYS798  CYS799  TRP800  GLU811  SER814 

> <Gold.Protein.RotatedAtoms>
  150.7634  133.9360  159.3441 H   0  0  0  0  0  0  0  0  0  0  0  0  # atno 6907 bound_to 6896
  151.7264  135.0882  160.0302 H   0  0  0  0  0  0  0  0  0  0  0  0  # atno 6908 bound_to 6896
  152.3617  133.6268  159.6056 H   0  0  0  0  0  0  0  0  0  0  0  0  # atno 6909 bound_to 6896
  145.3442  140.9465  143.2591 H   0  0  0  0  0  0  0  0  0  0  0  0  # atno 7974 bound_to 7965
  156.2780  140.2120  156.5748 H   0  0  0  0  0  0  0  0  0  0  0  0  # atno 8008 bound_to 7997
  154.7106  140.0512  157.0570 H   0  0  0  0  0  0  0  0  0  0  0  0  # atno 8009 bound_to 7997
  155.0610  140.3166  155.4663 H   0  0  0  0  0  0  0  0  0  0  0  0  # atno 8010 bound_to 7997
  140.6883  143.2912  151.3547 H   0  0  0  0  0  0  0  0  0  0  0  0  # atno 10167 bound_to 10162
  156.3952  130.7906  151.2112 H   0  0  0  0  0  0  0  0  0  0  0  0  # atno 10718 bound_to 10713
  153.0126  135.5331  154.6776 H   0  0  0  0  0  0  0  0  0  0  0  0  # atno 10763 bound_to 10752
  154.5944  135.2862  155.0603 H   0  0  0  0  0  0  0  0  0  0  0  0  # atno 10764 bound_to 10752
  154.1684  135.6536  153.5055 H   0  0  0  0  0  0  0  0  0  0  0  0  # atno 10765 bound_to 10752
  140.2093  134.8279  157.3104 H   0  0  0  0  0  0  0  0  0  0  0  0  # atno 11005 bound_to 11000
  144.8767  139.4961  143.6742 LP  0  0  0  0  0  0  0  0  0  0  0  0  # atno 17320 bound_to 7965
  146.2995  139.7382  142.9102 LP  0  0  0  0  0  0  0  0  0  0  0  0  # atno 17321 bound_to 7965
  139.6261  144.0812  152.2435 LP  0  0  0  0  0  0  0  0  0  0  0  0  # atno 17342 bound_to 10162
  140.0271  144.6109  150.7518 LP  0  0  0  0  0  0  0  0  0  0  0  0  # atno 17343 bound_to 10162
  157.7501  131.0303  150.4133 LP  0  0  0  0  0  0  0  0  0  0  0  0  # atno 17370 bound_to 10713
  156.4402  130.3990  149.6702 LP  0  0  0  0  0  0  0  0  0  0  0  0  # atno 17371 bound_to 10713
  140.1968  134.4304  155.7685 LP  0  0  0  0  0  0  0  0  0  0  0  0  # atno 17394 bound_to 11000
  141.2226  133.7053  156.8118 LP  0  0  0  0  0  0  0  0  0  0  0  0  # atno 17395 bound_to 11000

$$$$
