AV-unprocessed.smi:1542|AV-procd|sdf|6204|dock2
  -GOLD-   22720 6373D 1   1.00000     0.00000
 Structure written by MMmdl.
 46 48  0  0  0  0  0  0  0  0  2 V2000
  145.9434  141.2015  154.1467 O   0  0  0  0  0  0  0  0  0  0  0  0
  147.3082  140.9465  153.8903 C   0  0  0  0  0  0  0  0  0  0  0  0
  148.1921  141.7075  154.8887 C   0  0  0  0  0  0  0  0  0  0  0  0
  148.8412  140.7889  155.9394 C   0  0  0  0  0  0  0  0  0  0  0  0
  149.7859  141.5113  156.8505 C   0  0  0  0  0  0  0  0  0  0  0  0
  150.0158  142.8559  156.8823 N   0  3  0  0  0  0  0  0  0  0  0  0
  151.0004  143.1484  157.8262 C   0  0  0  0  0  0  0  0  0  0  0  0
  151.5597  144.3622  158.2131 C   0  0  0  0  0  0  0  0  0  0  0  0
  152.5625  144.3096  159.2034 C   0  0  0  0  0  0  0  0  0  0  0  0
  152.9743  143.0845  159.7668 C   0  0  0  0  0  0  0  0  0  0  0  0
  152.3984  141.8606  159.3671 C   0  0  0  0  0  0  0  0  0  0  0  0
  151.4036  141.9219  158.3913 C   0  0  0  0  0  0  0  0  0  0  0  0
  150.6289  140.9410  157.7602 N   0  0  0  0  0  0  0  0  0  0  0  0
  150.8164  139.5267  158.1279 C   0  0  0  0  0  0  0  0  0  0  0  0
  151.3313  138.6035  156.9804 C   0  0  0  0  0  0  0  0  0  0  0  0
  152.1465  137.6270  157.6030 O   0  0  0  0  0  0  0  0  0  0  0  0
  150.1434  137.8725  156.3078 C   0  0  0  0  0  0  0  0  0  0  0  0
  150.5672  136.9610  155.1417 C   0  0  0  0  0  0  0  0  0  0  0  0
  151.3935  137.7278  154.1007 C   0  0  0  0  0  0  0  0  0  0  0  0
  152.6164  138.3867  154.7521 C   0  0  0  0  0  0  0  0  0  0  0  0
  152.1987  139.3159  155.9055 C   0  0  0  0  0  0  0  0  0  0  0  0
  145.4288  140.8090  153.4577 H   0  0  0  0  0  0  0  0  0  0  0  0
  147.4818  139.8736  153.9774 H   0  0  0  0  0  0  0  0  0  0  0  0
  147.5457  141.2301  152.8645 H   0  0  0  0  0  0  0  0  0  0  0  0
  148.9574  142.2633  154.3451 H   0  0  0  0  0  0  0  0  0  0  0  0
  147.5775  142.4495  155.4000 H   0  0  0  0  0  0  0  0  0  0  0  0
  148.0617  140.3178  156.5380 H   0  0  0  0  0  0  0  0  0  0  0  0
  149.3890  139.9843  155.4484 H   0  0  0  0  0  0  0  0  0  0  0  0
  151.2491  145.3012  157.7793 H   0  0  0  0  0  0  0  0  0  0  0  0
  153.0274  145.2270  159.5348 H   0  0  0  0  0  0  0  0  0  0  0  0
  153.7491  143.0826  160.5199 H   0  0  0  0  0  0  0  0  0  0  0  0
  152.7270  140.9275  159.8007 H   0  0  0  0  0  0  0  0  0  0  0  0
  151.4753  139.4931  158.9967 H   0  0  0  0  0  0  0  0  0  0  0  0
  149.8618  139.1663  158.5117 H   0  0  0  0  0  0  0  0  0  0  0  0
  151.6754  136.8077  157.6133 H   0  0  0  0  0  0  0  0  0  0  0  0
  149.5952  137.2844  157.0455 H   0  0  0  0  0  0  0  0  0  0  0  0
  149.4380  138.6129  155.9289 H   0  0  0  0  0  0  0  0  0  0  0  0
  151.1474  136.1191  155.5211 H   0  0  0  0  0  0  0  0  0  0  0  0
  149.6830  136.5329  154.6689 H   0  0  0  0  0  0  0  0  0  0  0  0
  151.7128  137.0514  153.3072 H   0  0  0  0  0  0  0  0  0  0  0  0
  150.7728  138.4903  153.6283 H   0  0  0  0  0  0  0  0  0  0  0  0
  153.2977  137.6181  155.1184 H   0  0  0  0  0  0  0  0  0  0  0  0
  153.1714  138.9544  154.0048 H   0  0  0  0  0  0  0  0  0  0  0  0
  151.6404  140.1456  155.4709 H   0  0  0  0  0  0  0  0  0  0  0  0
  153.0902  139.7494  156.3600 H   0  0  0  0  0  0  0  0  0  0  0  0
  149.5330  143.5233  156.2945 H   0  0  0  0  0  0  0  0  0  0  0  0
  1  2  1  0  0  0  0
  1 22  1  0  0  0  0
  2  3  1  0  0  0  0
  2 23  1  0  0  0  0
  2 24  1  0  0  0  0
  3  4  1  0  0  0  0
  3 25  1  0  0  0  0
  3 26  1  0  0  0  0
  4  5  1  0  0  0  0
  4 27  1  0  0  0  0
  4 28  1  0  0  0  0
  5 13  1  0  0  0  0
  5  6  2  0  0  0  0
  6  7  1  0  0  0  0
  6 46  1  0  0  0  0
  7 12  2  0  0  0  0
  7  8  1  0  0  0  0
  8  9  2  0  0  0  0
  8 29  1  0  0  0  0
  9 10  1  0  0  0  0
  9 30  1  0  0  0  0
 10 11  2  0  0  0  0
 10 31  1  0  0  0  0
 11 12  1  0  0  0  0
 11 32  1  0  0  0  0
 12 13  1  0  0  0  0
 13 14  1  0  0  0  0
 14 15  1  0  0  0  0
 14 33  1  0  0  0  0
 14 34  1  0  0  0  0
 15 21  1  0  0  0  0
 15 16  1  0  0  0  0
 15 17  1  0  0  0  0
 16 35  1  0  0  0  0
 17 18  1  0  0  0  0
 17 36  1  0  0  0  0
 17 37  1  0  0  0  0
 18 19  1  0  0  0  0
 18 38  1  0  0  0  0
 18 39  1  0  0  0  0
 19 20  1  0  0  0  0
 19 40  1  0  0  0  0
 19 41  1  0  0  0  0
 20 21  1  0  0  0  0
 20 42  1  0  0  0  0
 20 43  1  0  0  0  0
 21 44  1  0  0  0  0
 21 45  1  0  0  0  0
M  CHG  1   6   1
M  END
> <s_m_source_file>
AV-unprocessed.smi

> <i_m_source_file_index>
1542

> <i_lp_mmshare_version>
43012

> <i_f3d_flags>
0

> <s_epik_input>
W09IXVtDSDJdW0NIMl1bQ0gyXWMobjEpbihjKGMxMilbY0hdW2NIXVtjSF1bY0hdMilbQ0gyXUMzKFtPSF0pW0NIMl1bQ0gyXVtDSDJdW0NIMl1bQ0gyXTM=

> <s_epik_cmdline>
J2VwaWtfcHl0aG9uJywgJy1waCcsICc3LjAnLCAnLXRuJywgJzgnLCAnLW1hJywgJzIwMCcsICctbWV0YWxfYmluZGluZycsICctaW1hZScsICc8aW5maWxlLm1hZT4nLCAnLW9tYWUnLCAnPG91dGZpbGUubWFlPic=

> <r_epik_Ionization_Penalty>
0.555973

> <r_epik_Ionization_Penalty_Charging>
0.555973

> <r_epik_Ionization_Penalty_Neutral>
2.09159e-07

> <r_epik_State_Penalty>
0.566728

> <r_epik_Charging_Adjusted_Penalty>
1.1227

> <i_epik_Tot_Q>
1

> <i_epik_Tot_abs_Q>
1

> <r_epik_Metal_State_Penalty>
4.37256

> <b_epik_Metal_Only>
0

> <s_lp_Force_Field>
OPLS_2005

> <r_lp_Energy>
23.0728

> <b_lp_Chiralities_Consistent>
1

> <s_lp_Variant>
AV-unprocessed.smi:1542-2

> <Gold.Version>
5.8.1

> <Gold.Id.Protein>
6NUR|6NUR_protein|mol2

> <Gold.PLP.Fitness>
49.7728

> <Gold.PLP.PLP>
-42.9868

> <Gold.PLP.part.hbond>
-1.8991

> <Gold.PLP.part.metal>
0.0000

> <Gold.PLP.part.buried>
-4.8442

> <Gold.PLP.part.nonpolar>
-38.3202

> <Gold.PLP.part.repulsive>
0.0228

> <Gold.PLP.ligand.clash>
0.0000

> <Gold.PLP.ligand.torsion>
1.0769

> <Gold.PLP.Chemscore.Hbond>
2.8763

> <Gold.PLP.Chemscore.CHOScore>
0.0000

> <Gold.PLP.Chemscore.Metal>
0.0000

> <Gold.Chemscore.Hbonds>
donor molecule, donor type, donor heavy atom, donor atom, acceptor molecule, acceptor atom, score
      L1  H     1    22       P1 10175  1.00
      L1  H     6    46       P1  8028  1.85

> <Gold.PLP.Chemscore.Internal.Correction>
0.3111

> <Gold.Rescore>
     Score         DG    S(hbond)    S(metal)    S(lipo)     H(rot)  DE(clash)    DE(int)     intcor
     17.87     -19.12       1.90        0.00     123.94       2.82       0.19       1.05       ----

> <Gold.Chemscore.Fitness>
17.8700

> <Gold.Chemscore.DG>
-19.1185

> <Gold.Chemscore.ZeroCoef>
-5.4800

> <Gold.Chemscore.Hbond>
1.9013

> <Gold.Chemscore.Metal>
0.0000

> <Gold.Chemscore.Lipo>
123.9394

> <Gold.Chemscore.Internal_Hbond>
0.0000

> <Gold.Chemscore.DEClash>
0.1938

> <Gold.Chemscore.DEInternal>
1.0547

> <Gold.Chemscore.Rot>
2.8175

> <Gold.Chemscore.Internal.Correction>
   9.000000E+99

> <Gold.Chemscore.Hbonds>
donor molecule, donor type, donor heavy atom, donor atom, acceptor molecule, acceptor atom, score
      L1  H     1    22       P1 10175  0.74
      L1  H     6    46       P1  8028  0.89

> <Gold.Chemscore.Hbond.Weighted>
-6.3504

> <Gold.Chemscore.Metal.Weighted>
-0.0000

> <Gold.Chemscore.Lipo.Weighted>
-14.5009

> <Gold.Chemscore.Internal_Hbond.Weighted>
0.0000

> <Gold.Chemscore.DEClash.Weighted>
0.1938

> <Gold.Chemscore.DEInternal.Weighted>
1.0547

> <Gold.Chemscore.Rot.Weighted>
7.2128

> <Gold.Chemscore.Internal.Correction.Weighted>
   9.000000E+99

> <Gold.Protein.RotatedTorsions>
[ 6907 6896 6895 6894 ] final   96.14 input  -60.11 | X-H torsion
[ 7974 7965 7964 7962 ] final -147.29 input  175.53 | X-H torsion
[ 8008 7997 7996 7995 ] final  -41.84 input   59.86 | X-H torsion
[ 10167 10162 10161 10158 ] final  154.26 input  -65.29 | X-H torsion
[ 10718 10713 10712 10709 ] final  -99.80 input   66.30 | X-H torsion
[ 10763 10752 10751 10750 ] final   88.83 input  -60.55 | X-H torsion
[ 11005 11000 10999 10996 ] final -153.20 input  -57.11 | X-H torsion

> <Gold.Protein.ActiveResidues>
 VAL166  LYS551  ARG553  GLY616  TRP617  ASP618  TYR619  PRO620  LYS621  CYS622 
 ASP623  PHE694  ASN695  SER759  ASP760  ASP761  ALA762  ILE779  LEU786  VAL792 
 PHE793  MET794  SER795  GLU796  ALA797  LYS798  CYS799  TRP800  GLU811  SER814 

> <Gold.Protein.RotatedAtoms>
  152.5438  134.0932  159.8285 H   0  0  0  0  0  0  0  0  0  0  0  0  # atno 6907 bound_to 6896
  151.1019  133.5230  159.2617 H   0  0  0  0  0  0  0  0  0  0  0  0  # atno 6908 bound_to 6896
  151.1981  135.0440  159.8915 H   0  0  0  0  0  0  0  0  0  0  0  0  # atno 6909 bound_to 6896
  144.8103  140.5345  143.5647 H   0  0  0  0  0  0  0  0  0  0  0  0  # atno 7974 bound_to 7965
  154.4002  140.1489  156.3257 H   0  0  0  0  0  0  0  0  0  0  0  0  # atno 8008 bound_to 7997
  155.8489  140.3458  155.5659 H   0  0  0  0  0  0  0  0  0  0  0  0  # atno 8009 bound_to 7997
  155.8006  140.0869  157.1949 H   0  0  0  0  0  0  0  0  0  0  0  0  # atno 8010 bound_to 7997
  139.4824  144.5202  151.7888 H   0  0  0  0  0  0  0  0  0  0  0  0  # atno 10167 bound_to 10162
  156.0144  130.5299  150.6724 H   0  0  0  0  0  0  0  0  0  0  0  0  # atno 10718 bound_to 10713
  153.1808  135.4492  155.0026 H   0  0  0  0  0  0  0  0  0  0  0  0  # atno 10763 bound_to 10752
  154.8029  135.3263  154.7508 H   0  0  0  0  0  0  0  0  0  0  0  0  # atno 10764 bound_to 10752
  153.7972  135.6965  153.4916 H   0  0  0  0  0  0  0  0  0  0  0  0  # atno 10765 bound_to 10752
  140.7107  134.3835  157.5198 H   0  0  0  0  0  0  0  0  0  0  0  0  # atno 11005 bound_to 11000
  145.5340  139.1475  143.3484 LP  0  0  0  0  0  0  0  0  0  0  0  0  # atno 17320 bound_to 7965
  146.2400  140.5481  142.8938 LP  0  0  0  0  0  0  0  0  0  0  0  0  # atno 17321 bound_to 7965
  140.4715  144.1580  150.5919 LP  0  0  0  0  0  0  0  0  0  0  0  0  # atno 17342 bound_to 10162
  140.4377  143.2540  151.9514 LP  0  0  0  0  0  0  0  0  0  0  0  0  # atno 17343 bound_to 10162
  157.4444  131.0865  151.0911 LP  0  0  0  0  0  0  0  0  0  0  0  0  # atno 17370 bound_to 10713
  157.1445  130.6157  149.5564 LP  0  0  0  0  0  0  0  0  0  0  0  0  # atno 17371 bound_to 10713
  139.8872  134.8888  156.2540 LP  0  0  0  0  0  0  0  0  0  0  0  0  # atno 17394 bound_to 11000
  141.0086  133.7109  156.1075 LP  0  0  0  0  0  0  0  0  0  0  0  0  # atno 17395 bound_to 11000

$$$$
