AV-unprocessed.smi:515|AV-procd|sdf|2780|dock9
  -GOLD-   2262023253D 1   1.00000     0.00000
 Structure written by MMmdl.
 47 49  0  0  0  0  0  0  0  0  1 V2000
  150.8799  144.7454  160.5993 C   0  0  0  0  0  0  0  0  0  0  0  0
  151.9668  145.6883  160.0826 C   0  0  0  0  0  0  0  0  0  0  0  0
  152.0603  145.5680  158.6728 O   0  0  0  0  0  0  0  0  0  0  0  0
  152.5600  144.3017  158.2760 C   0  0  0  0  0  0  0  0  0  0  0  0
  151.4049  143.3243  158.0089 C   0  0  0  0  0  0  0  0  0  0  0  0
  151.8306  141.9270  158.0105 N   0  0  0  0  0  0  0  0  0  0  0  0
  151.5748  140.9664  157.0818 C   0  0  0  0  0  0  0  0  0  0  0  0
  150.7514  141.2000  155.8484 C   0  0  0  0  0  0  0  0  0  0  0  0
  149.5866  140.3243  155.7288 N   0  0  0  0  0  0  0  0  0  0  0  0
  148.6126  140.5585  156.7946 C   0  0  0  0  0  0  0  0  0  0  0  0
  147.3466  139.6983  156.6337 C   0  0  0  0  0  0  0  0  0  0  0  0
  146.7773  139.9063  155.3457 O   0  0  0  0  0  0  0  0  0  0  0  0
  147.6884  139.6159  154.2916 C   0  0  0  0  0  0  0  0  0  0  0  0
  148.9342  140.5049  154.4373 C   0  0  0  0  0  0  0  0  0  0  0  0
  152.1024  139.7718  157.3703 N   0  0  0  0  0  0  0  0  0  0  0  0
  152.7401  139.9876  158.5820 C   0  0  0  0  0  0  0  0  0  0  0  0
  152.5738  141.2699  158.9911 C   0  0  0  0  0  0  0  0  0  0  0  0
  153.1127  141.7679  160.2634 C   0  0  0  0  0  0  0  0  0  0  0  0
  152.9533  142.9190  160.6635 O   0  0  0  0  0  0  0  0  0  0  0  0
  153.7934  140.8237  160.9574 N   0  0  0  0  0  0  0  0  0  0  0  0
  154.0021  139.5191  160.6018 C   0  0  0  0  0  0  0  0  0  0  0  0
  154.6361  138.7727  161.3475 O   0  0  0  0  0  0  0  0  0  0  0  0
  153.4800  139.0929  159.4070 N   0  0  0  0  0  0  0  0  0  0  0  0
  153.6643  137.7057  158.9772 C   0  0  0  0  0  0  0  0  0  0  0  0
  154.1850  141.1139  161.8415 H   0  0  0  0  0  0  0  0  0  0  0  0
  150.7905  144.8105  161.6837 H   0  0  0  0  0  0  0  0  0  0  0  0
  151.1082  143.7105  160.3444 H   0  0  0  0  0  0  0  0  0  0  0  0
  149.9104  144.9967  160.1690 H   0  0  0  0  0  0  0  0  0  0  0  0
  151.7245  146.7159  160.3582 H   0  0  0  0  0  0  0  0  0  0  0  0
  152.9230  145.4391  160.5451 H   0  0  0  0  0  0  0  0  0  0  0  0
  153.1758  144.4170  157.3842 H   0  0  0  0  0  0  0  0  0  0  0  0
  153.2026  143.8953  159.0581 H   0  0  0  0  0  0  0  0  0  0  0  0
  150.6249  143.4500  158.7599 H   0  0  0  0  0  0  0  0  0  0  0  0
  150.9390  143.5718  157.0575 H   0  0  0  0  0  0  0  0  0  0  0  0
  150.4300  142.2427  155.8411 H   0  0  0  0  0  0  0  0  0  0  0  0
  151.3933  141.0942  154.9748 H   0  0  0  0  0  0  0  0  0  0  0  0
  149.0599  140.3477  157.7659 H   0  0  0  0  0  0  0  0  0  0  0  0
  148.3253  141.6110  156.8054 H   0  0  0  0  0  0  0  0  0  0  0  0
  147.5756  138.6423  156.7676 H   0  0  0  0  0  0  0  0  0  0  0  0
  146.6117  139.9621  157.3942 H   0  0  0  0  0  0  0  0  0  0  0  0
  147.9607  138.5595  154.3132 H   0  0  0  0  0  0  0  0  0  0  0  0
  147.1986  139.8020  153.3358 H   0  0  0  0  0  0  0  0  0  0  0  0
  148.6457  141.5498  154.3105 H   0  0  0  0  0  0  0  0  0  0  0  0
  149.6355  140.2752  153.6343 H   0  0  0  0  0  0  0  0  0  0  0  0
  154.7077  137.4006  159.0704 H   0  0  0  0  0  0  0  0  0  0  0  0
  153.3799  137.5520  157.9362 H   0  0  0  0  0  0  0  0  0  0  0  0
  153.0577  137.0379  159.5903 H   0  0  0  0  0  0  0  0  0  0  0  0
  1  2  1  0  0  0  0
  1 26  1  0  0  0  0
  1 27  1  0  0  0  0
  1 28  1  0  0  0  0
  2  3  1  0  0  0  0
  2 29  1  0  0  0  0
  2 30  1  0  0  0  0
  3  4  1  0  0  0  0
  4  5  1  0  0  0  0
  4 31  1  0  0  0  0
  4 32  1  0  0  0  0
  5  6  1  0  0  0  0
  5 33  1  0  0  0  0
  5 34  1  0  0  0  0
  6 17  1  0  0  0  0
  6  7  1  0  0  0  0
  7  8  1  0  0  0  0
  7 15  2  0  0  0  0
  8  9  1  0  0  0  0
  8 35  1  0  0  0  0
  8 36  1  0  0  0  0
  9 14  1  0  0  0  0
  9 10  1  0  0  0  0
 10 11  1  0  0  0  0
 10 37  1  0  0  0  0
 10 38  1  0  0  0  0
 11 12  1  0  0  0  0
 11 39  1  0  0  0  0
 11 40  1  0  0  0  0
 12 13  1  0  0  0  0
 13 14  1  0  0  0  0
 13 41  1  0  0  0  0
 13 42  1  0  0  0  0
 14 43  1  0  0  0  0
 14 44  1  0  0  0  0
 15 16  1  0  0  0  0
 16 23  1  0  0  0  0
 16 17  2  0  0  0  0
 17 18  1  0  0  0  0
 18 19  2  0  0  0  0
 18 20  1  0  0  0  0
 20 25  1  0  0  0  0
 20 21  1  0  0  0  0
 21 22  2  0  0  0  0
 21 23  1  0  0  0  0
 23 24  1  0  0  0  0
 24 45  1  0  0  0  0
 24 46  1  0  0  0  0
 24 47  1  0  0  0  0
M  END
> <s_m_source_file>
AV-unprocessed.smi

> <i_m_source_file_index>
515

> <i_lp_mmshare_version>
43012

> <i_f3d_flags>
0

> <s_epik_input>
W0NIM11uMWMoPU8pW25IXWMoPU8pYyhjMTIpbihbQ0gyXVtDSDJdT1tDSDJdW0NIM10pYyhuMilbQ0gyXU4zW0NIMl1bQ0gyXU9bQ0gyXVtDSDJdMw==

> <s_epik_cmdline>
J2VwaWtfcHl0aG9uJywgJy1waCcsICc3LjAnLCAnLXRuJywgJzgnLCAnLW1hJywgJzIwMCcsICctbWV0YWxfYmluZGluZycsICctaW1hZScsICc8aW5maWxlLm1hZT4nLCAnLW9tYWUnLCAnPG91dGZpbGUubWFlPic=

> <r_epik_Ionization_Penalty>
0.0971954

> <r_epik_Ionization_Penalty_Charging>
0.000195337

> <r_epik_Ionization_Penalty_Neutral>
0.0970001

> <r_epik_State_Penalty>
0.0871068

> <r_epik_Charging_Adjusted_Penalty>
0.0873021

> <i_epik_Tot_Q>
0

> <i_epik_Tot_abs_Q>
0

> <r_epik_Metal_State_Penalty>
0.234549

> <b_epik_Metal_Only>
0

> <s_lp_Force_Field>
OPLS_2005

> <r_lp_Energy>
38.6843

> <b_lp_Chiralities_Consistent>
1

> <s_lp_Variant>
AV-unprocessed.smi:515-1

> <Gold.Version>
5.8.1

> <Gold.Id.Protein>
6NUR|6NUR_protein|mol2

> <Gold.PLP.Fitness>
38.6761

> <Gold.PLP.PLP>
-39.4894

> <Gold.PLP.part.hbond>
-0.8060

> <Gold.PLP.part.metal>
0.0000

> <Gold.PLP.part.buried>
-5.9537

> <Gold.PLP.part.nonpolar>
-32.5791

> <Gold.PLP.part.repulsive>
0.2171

> <Gold.PLP.ligand.clash>
0.0000

> <Gold.PLP.ligand.torsion>
0.4200

> <Gold.PLP.Chemscore.Hbond>
0.0000

> <Gold.PLP.Chemscore.CHOScore>
0.0000

> <Gold.PLP.Chemscore.Metal>
0.0000

> <Gold.PLP.Chemscore.Internal.Correction>
0.0268

> <Gold.Rescore>
     Score         DG    S(hbond)    S(metal)    S(lipo)     H(rot)  DE(clash)    DE(int)     intcor
      8.21      -9.73       0.00        0.00      83.30       2.15       0.03       1.48       ----

> <Gold.Chemscore.Fitness>
8.2137

> <Gold.Chemscore.DG>
-9.7332

> <Gold.Chemscore.ZeroCoef>
-5.4800

> <Gold.Chemscore.Hbond>
0.0000

> <Gold.Chemscore.Metal>
0.0000

> <Gold.Chemscore.Lipo>
83.3022

> <Gold.Chemscore.Internal_Hbond>
0.0000

> <Gold.Chemscore.DEClash>
0.0349

> <Gold.Chemscore.DEInternal>
1.4846

> <Gold.Chemscore.Rot>
2.1458

> <Gold.Chemscore.Internal.Correction>
   9.000000E+99

> <Gold.Chemscore.Hbond.Weighted>
-0.0000

> <Gold.Chemscore.Metal.Weighted>
-0.0000

> <Gold.Chemscore.Lipo.Weighted>
-9.7464

> <Gold.Chemscore.Internal_Hbond.Weighted>
0.0000

> <Gold.Chemscore.DEClash.Weighted>
0.0349

> <Gold.Chemscore.DEInternal.Weighted>
1.4846

> <Gold.Chemscore.Rot.Weighted>
5.4932

> <Gold.Chemscore.Internal.Correction.Weighted>
   9.000000E+99

> <Gold.Protein.RotatedTorsions>
[ 6907 6896 6895 6894 ] final  -93.51 input  -60.11 | X-H torsion
[ 7974 7965 7964 7962 ] final -160.17 input  175.53 | X-H torsion
[ 8008 7997 7996 7995 ] final  -89.99 input   59.86 | X-H torsion
[ 10167 10162 10161 10158 ] final   37.24 input  -65.29 | X-H torsion
[ 10718 10713 10712 10709 ] final -107.44 input   66.30 | X-H torsion
[ 10763 10752 10751 10750 ] final  159.61 input  -60.55 | X-H torsion
[ 11005 11000 10999 10996 ] final  175.37 input  -57.11 | X-H torsion

> <Gold.Protein.ActiveResidues>
 VAL166  LYS551  ARG553  GLY616  TRP617  ASP618  TYR619  PRO620  LYS621  CYS622 
 ASP623  PHE694  ASN695  SER759  ASP760  ASP761  ALA762  ILE779  LEU786  VAL792 
 PHE793  MET794  SER795  GLU796  ALA797  LYS798  CYS799  TRP800  GLU811  SER814 

> <Gold.Protein.RotatedAtoms>
  150.6924  134.1957  159.4302 H   0  0  0  0  0  0  0  0  0  0  0  0  # atno 6907 bound_to 6896
  151.9925  134.9969  160.0571 H   0  0  0  0  0  0  0  0  0  0  0  0  # atno 6908 bound_to 6896
  152.1654  133.4574  159.4919 H   0  0  0  0  0  0  0  0  0  0  0  0  # atno 6909 bound_to 6896
  144.7437  140.3580  143.6102 H   0  0  0  0  0  0  0  0  0  0  0  0  # atno 7974 bound_to 7965
  154.6931  140.0535  157.0384 H   0  0  0  0  0  0  0  0  0  0  0  0  # atno 8008 bound_to 7997
  155.0788  140.3207  155.4589 H   0  0  0  0  0  0  0  0  0  0  0  0  # atno 8009 bound_to 7997
  156.2735  140.2068  156.5916 H   0  0  0  0  0  0  0  0  0  0  0  0  # atno 8010 bound_to 7997
  140.4051  144.1669  150.6136 H   0  0  0  0  0  0  0  0  0  0  0  0  # atno 10167 bound_to 10162
  156.0437  130.5662  150.7822 H   0  0  0  0  0  0  0  0  0  0  0  0  # atno 10718 bound_to 10713
  154.2344  135.2777  155.2877 H   0  0  0  0  0  0  0  0  0  0  0  0  # atno 10763 bound_to 10752
  154.5597  135.5651  153.6999 H   0  0  0  0  0  0  0  0  0  0  0  0  # atno 10764 bound_to 10752
  153.0013  135.6295  154.2487 H   0  0  0  0  0  0  0  0  0  0  0  0  # atno 10765 bound_to 10752
  140.3615  134.7109  157.4334 H   0  0  0  0  0  0  0  0  0  0  0  0  # atno 11005 bound_to 11000
  145.7207  139.1709  143.2486 LP  0  0  0  0  0  0  0  0  0  0  0  0  # atno 17320 bound_to 7965
  146.1279  140.7224  142.9426 LP  0  0  0  0  0  0  0  0  0  0  0  0  # atno 17321 bound_to 7965
  140.4698  143.2417  151.9105 LP  0  0  0  0  0  0  0  0  0  0  0  0  # atno 17342 bound_to 10162
  139.4783  144.5382  151.8567 LP  0  0  0  0  0  0  0  0  0  0  0  0  # atno 17343 bound_to 10162
  157.5286  131.0935  150.9985 LP  0  0  0  0  0  0  0  0  0  0  0  0  # atno 17370 bound_to 10713
  157.0297  130.5706  149.5341 LP  0  0  0  0  0  0  0  0  0  0  0  0  # atno 17371 bound_to 10713
  140.0623  134.5978  155.8735 LP  0  0  0  0  0  0  0  0  0  0  0  0  # atno 17394 bound_to 11000
  141.1982  133.6600  156.5783 LP  0  0  0  0  0  0  0  0  0  0  0  0  # atno 17395 bound_to 11000

$$$$
