AV-unprocessed.smi:1056|AV-procd|sdf|4645|dock8
  -GOLD-   22720 3153D 1   1.00000     0.00000
 Structure written by MMmdl.
 44 46  0  0  0  0  0  0  0  0  3 V2000
  151.1148  143.8108  159.6015 C   0  0  0  0  0  0  0  0  0  0  0  0
  151.1825  142.6812  158.5881 C   0  0  0  0  0  0  0  0  0  0  0  0
  150.3811  142.7517  157.4266 C   0  0  0  0  0  0  0  0  0  0  0  0
  150.4176  141.7249  156.4582 C   0  0  0  0  0  0  0  0  0  0  0  0
  149.7267  141.5888  155.2664 N   0  0  0  0  0  0  0  0  0  0  0  0
  150.1928  140.4277  154.8170 C   0  0  0  0  0  0  0  0  0  0  0  0
  151.1022  139.7914  155.5797 N   0  0  0  0  0  0  0  0  0  0  0  0
  151.7433  138.5211  155.2925 C   0  0  0  0  0  0  0  0  0  0  0  0
  150.8380  137.5684  154.4877 C   0  0  1  0  0  0  0  0  0  0  0  0
  151.6816  136.6859  153.7746 O   0  0  0  0  0  0  0  0  0  0  0  0
  149.8777  136.7447  155.3753 C   0  0  0  0  0  0  0  0  0  0  0  0
  149.1992  135.6504  154.6355 N   0  3  1  0  0  0  0  0  0  0  0  0
  149.9537  134.3722  154.6909 C   0  0  0  0  0  0  0  0  0  0  0  0
  149.3882  133.3722  153.6645 C   0  0  0  0  0  0  0  0  0  0  0  0
  147.9247  133.3163  153.7593 N   0  5  0  0  0  0  0  0  0  0  0  0
  147.1053  134.2849  154.2744 C   0  0  0  0  0  0  0  0  0  0  0  0
  145.8774  134.2796  154.2249 O   0  0  0  0  0  0  0  0  0  0  0  0
  147.7721  135.4670  155.0285 C   0  0  0  0  0  0  0  0  0  0  0  0
  151.2862  140.6172  156.6839 C   0  0  0  0  0  0  0  0  0  0  0  0
  152.0867  140.5344  157.8370 C   0  0  0  0  0  0  0  0  0  0  0  0
  152.0362  141.5681  158.7956 C   0  0  0  0  0  0  0  0  0  0  0  0
  152.9041  141.4696  160.0374 C   0  0  0  0  0  0  0  0  0  0  0  0
  150.4540  144.6097  159.2640 H   0  0  0  0  0  0  0  0  0  0  0  0
  152.1030  144.2422  159.7615 H   0  0  0  0  0  0  0  0  0  0  0  0
  150.7373  143.4451  160.5566 H   0  0  0  0  0  0  0  0  0  0  0  0
  149.7303  143.5992  157.2686 H   0  0  0  0  0  0  0  0  0  0  0  0
  149.8520  140.0131  153.8793 H   0  0  0  0  0  0  0  0  0  0  0  0
  152.6625  138.7236  154.7407 H   0  0  0  0  0  0  0  0  0  0  0  0
  152.0433  138.0603  156.2346 H   0  0  0  0  0  0  0  0  0  0  0  0
  150.2806  138.1611  153.7633 H   0  0  0  0  0  0  0  0  0  0  0  0
  151.4147  136.6710  152.8682 H   0  0  0  0  0  0  0  0  0  0  0  0
  150.4515  136.3304  156.2057 H   0  0  0  0  0  0  0  0  0  0  0  0
  149.1134  137.3801  155.8235 H   0  0  0  0  0  0  0  0  0  0  0  0
  151.0089  134.5406  154.4729 H   0  0  0  0  0  0  0  0  0  0  0  0
  149.8999  133.9607  155.7003 H   0  0  0  0  0  0  0  0  0  0  0  0
  149.6971  133.6872  152.6675 H   0  0  0  0  0  0  0  0  0  0  0  0
  149.8453  132.3957  153.8223 H   0  0  0  0  0  0  0  0  0  0  0  0
  147.7020  135.2776  156.1006 H   0  0  0  0  0  0  0  0  0  0  0  0
  147.2022  136.3722  154.8220 H   0  0  0  0  0  0  0  0  0  0  0  0
  152.7340  139.6824  157.9829 H   0  0  0  0  0  0  0  0  0  0  0  0
  153.4561  140.5296  160.0638 H   0  0  0  0  0  0  0  0  0  0  0  0
  152.2923  141.5228  160.9382 H   0  0  0  0  0  0  0  0  0  0  0  0
  153.6279  142.2844  160.0611 H   0  0  0  0  0  0  0  0  0  0  0  0
  149.1988  135.9128  153.6607 H   0  0  0  0  0  0  0  0  0  0  0  0
  1  2  1  0  0  0  0
  1 23  1  0  0  0  0
  1 24  1  0  0  0  0
  1 25  1  0  0  0  0
  2 21  1  0  0  0  0
  2  3  2  0  0  0  0
  3  4  1  0  0  0  0
  3 26  1  0  0  0  0
  4 19  2  0  0  0  0
  4  5  1  0  0  0  0
  5  6  2  0  0  0  0
  6  7  1  0  0  0  0
  6 27  1  0  0  0  0
  7  8  1  0  0  0  0
  7 19  1  0  0  0  0
  8  9  1  0  0  0  0
  8 28  1  0  0  0  0
  8 29  1  0  0  0  0
  9 10  1  0  0  0  0
  9 11  1  0  0  0  0
  9 30  1  0  0  0  0
 10 31  1  0  0  0  0
 11 12  1  0  0  0  0
 11 32  1  0  0  0  0
 11 33  1  0  0  0  0
 12 18  1  0  0  0  0
 12 13  1  0  0  0  0
 12 44  1  0  0  0  0
 13 14  1  0  0  0  0
 13 34  1  0  0  0  0
 13 35  1  0  0  0  0
 14 15  1  0  0  0  0
 14 36  1  0  0  0  0
 14 37  1  0  0  0  0
 15 16  1  0  0  0  0
 16 17  2  0  0  0  0
 16 18  1  0  0  0  0
 18 38  1  0  0  0  0
 18 39  1  0  0  0  0
 19 20  1  0  0  0  0
 20 21  2  0  0  0  0
 20 40  1  0  0  0  0
 21 22  1  0  0  0  0
 22 41  1  0  0  0  0
 22 42  1  0  0  0  0
 22 43  1  0  0  0  0
M  CHG  1  12   1
M  CHG  1  15  -1
M  END
> <s_m_source_file>
AV-unprocessed.smi

> <i_m_source_file_index>
1056

> <i_lp_mmshare_version>
43012

> <i_f3d_flags>
0

> <s_epik_input>
W0NIM11jKFtjSF0xKWMoW0NIM10pW2NIXWMoYzEyKW4oW2NIXW4yKVtDSDJdW0NASF0oW09IXSlbQ0gyXU4zW0NIMl1bQ0gyXVtOSF1DKD1PKVtDSDJdMw==

> <s_epik_cmdline>
J2VwaWtfcHl0aG9uJywgJy1waCcsICc3LjAnLCAnLXRuJywgJzgnLCAnLW1hJywgJzIwMCcsICctbWV0YWxfYmluZGluZycsICctaW1hZScsICc8aW5maWxlLm1hZT4nLCAnLW9tYWUnLCAnPG91dGZpbGUubWFlPic=

> <r_epik_Ionization_Penalty>
5.13411

> <r_epik_Ionization_Penalty_Charging>
5.04792

> <r_epik_Ionization_Penalty_Neutral>
0.0861879

> <r_epik_State_Penalty>
5.18224

> <r_epik_Charging_Adjusted_Penalty>
10.2302

> <i_epik_Tot_Q>
0

> <i_epik_Tot_abs_Q>
2

> <r_epik_Metal_State_Penalty>
1.33873

> <b_epik_Metal_Only>
1

> <s_lp_Force_Field>
OPLS_2005

> <r_lp_Energy>
19.55

> <b_lp_Chiralities_Consistent>
1

> <s_lp_Variant>
AV-unprocessed.smi:1056-16

> <Gold.Version>
5.8.1

> <Gold.Id.Protein>
6NUR|6NUR_protein|mol2

> <Gold.PLP.Fitness>
49.9690

> <Gold.PLP.PLP>
-37.6767

> <Gold.PLP.part.hbond>
-3.6696

> <Gold.PLP.part.metal>
0.0000

> <Gold.PLP.part.buried>
2.2443

> <Gold.PLP.part.nonpolar>
-36.0897

> <Gold.PLP.part.repulsive>
0.3392

> <Gold.PLP.ligand.clash>
0.0000

> <Gold.PLP.ligand.torsion>
1.1844

> <Gold.PLP.Chemscore.Hbond>
4.0000

> <Gold.PLP.Chemscore.CHOScore>
0.8776

> <Gold.PLP.Chemscore.Metal>
0.0000

> <Gold.Chemscore.Hbonds>
donor molecule, donor type, donor heavy atom, donor atom, acceptor molecule, acceptor atom, score
      L1  H    10    31       P1  7949  1.00
      L1  H    12    44       P1  7948  2.00
      P1  H 10752 10764       L1    10  1.00
      L1  C     6    27       P1  7957  0.51

> <Gold.PLP.Chemscore.Internal.Correction>
0.0283

> <Gold.Rescore>
     Score         DG    S(hbond)    S(metal)    S(lipo)     H(rot)  DE(clash)    DE(int)     intcor
     18.12     -19.27       2.53        0.00      96.35       2.31       0.05       1.10       ----

> <Gold.Chemscore.Fitness>
18.1228

> <Gold.Chemscore.DG>
-19.2737

> <Gold.Chemscore.ZeroCoef>
-5.4800

> <Gold.Chemscore.Hbond>
2.5287

> <Gold.Chemscore.Metal>
0.0000

> <Gold.Chemscore.Lipo>
96.3523

> <Gold.Chemscore.Internal_Hbond>
0.0000

> <Gold.Chemscore.DEClash>
0.0506

> <Gold.Chemscore.DEInternal>
1.1003

> <Gold.Chemscore.Rot>
2.3147

> <Gold.Chemscore.Internal.Correction>
   9.000000E+99

> <Gold.Chemscore.Hbonds>
donor molecule, donor type, donor heavy atom, donor atom, acceptor molecule, acceptor atom, score
      L1  H    10    31       P1  7949  0.83
      L1  H    12    44       P1  7948  0.82
      P1  H 10752 10764       L1    10  0.78

> <Gold.Chemscore.Hbond.Weighted>
-8.4460

> <Gold.Chemscore.Metal.Weighted>
-0.0000

> <Gold.Chemscore.Lipo.Weighted>
-11.2732

> <Gold.Chemscore.Internal_Hbond.Weighted>
0.0000

> <Gold.Chemscore.DEClash.Weighted>
0.0506

> <Gold.Chemscore.DEInternal.Weighted>
1.1003

> <Gold.Chemscore.Rot.Weighted>
5.9256

> <Gold.Chemscore.Internal.Correction.Weighted>
   9.000000E+99

> <Gold.Protein.RotatedTorsions>
[ 6907 6896 6895 6894 ] final -136.29 input  -60.11 | X-H torsion
[ 7974 7965 7964 7962 ] final -130.96 input  175.53 | X-H torsion
[ 8008 7997 7996 7995 ] final  -92.92 input   59.86 | X-H torsion
[ 10167 10162 10161 10158 ] final   37.01 input  -65.29 | X-H torsion
[ 10718 10713 10712 10709 ] final  -22.76 input   66.30 | X-H torsion
[ 10763 10752 10751 10750 ] final  -93.67 input  -60.55 | X-H torsion
[ 11005 11000 10999 10996 ] final -147.69 input  -57.11 | X-H torsion

> <Gold.Protein.ActiveResidues>
 VAL166  LYS551  ARG553  GLY616  TRP617  ASP618  TYR619  PRO620  LYS621  CYS622 
 ASP623  PHE694  ASN695  SER759  ASP760  ASP761  ALA762  ILE779  LEU786  VAL792 
 PHE793  MET794  SER795  GLU796  ALA797  LYS798  CYS799  TRP800  GLU811  SER814 

> <Gold.Protein.RotatedAtoms>
  151.0083  133.5989  159.2685 H   0  0  0  0  0  0  0  0  0  0  0  0  # atno 6907 bound_to 6896
  151.3150  135.0803  159.9295 H   0  0  0  0  0  0  0  0  0  0  0  0  # atno 6908 bound_to 6896
  152.5293  133.9741  159.7830 H   0  0  0  0  0  0  0  0  0  0  0  0  # atno 6909 bound_to 6896
  144.9425  140.7255  143.4838 H   0  0  0  0  0  0  0  0  0  0  0  0  # atno 7974 bound_to 7965
  154.7292  140.0504  157.0711 H   0  0  0  0  0  0  0  0  0  0  0  0  # atno 8008 bound_to 7997
  155.0324  140.3159  155.4734 H   0  0  0  0  0  0  0  0  0  0  0  0  # atno 8009 bound_to 7997
  156.2837  140.2147  156.5446 H   0  0  0  0  0  0  0  0  0  0  0  0  # atno 8010 bound_to 7997
  140.4074  144.1640  150.6137 H   0  0  0  0  0  0  0  0  0  0  0  0  # atno 10167 bound_to 10162
  156.5001  130.4586  149.6706 H   0  0  0  0  0  0  0  0  0  0  0  0  # atno 10718 bound_to 10713
  154.6982  135.5186  153.8488 H   0  0  0  0  0  0  0  0  0  0  0  0  # atno 10763 bound_to 10752
  153.0683  135.6592  154.0314 H   0  0  0  0  0  0  0  0  0  0  0  0  # atno 10764 bound_to 10752
  154.0177  135.2996  155.3364 H   0  0  0  0  0  0  0  0  0  0  0  0  # atno 10765 bound_to 10752
  140.7691  134.3210  157.5080 H   0  0  0  0  0  0  0  0  0  0  0  0  # atno 11005 bound_to 11000
  145.2969  139.1864  143.4710 LP  0  0  0  0  0  0  0  0  0  0  0  0  # atno 17320 bound_to 7965
  146.3291  140.2954  142.8617 LP  0  0  0  0  0  0  0  0  0  0  0  0  # atno 17321 bound_to 7965
  140.4675  143.2425  151.9135 LP  0  0  0  0  0  0  0  0  0  0  0  0  # atno 17342 bound_to 10162
  139.4783  144.5404  151.8536 LP  0  0  0  0  0  0  0  0  0  0  0  0  # atno 17343 bound_to 10162
  156.3341  130.7347  151.2281 LP  0  0  0  0  0  0  0  0  0  0  0  0  # atno 17370 bound_to 10713
  157.7464  131.0422  150.4682 LP  0  0  0  0  0  0  0  0  0  0  0  0  # atno 17371 bound_to 10713
  139.8758  134.9249  156.3362 LP  0  0  0  0  0  0  0  0  0  0  0  0  # atno 17394 bound_to 11000
  140.9591  133.7400  156.0376 LP  0  0  0  0  0  0  0  0  0  0  0  0  # atno 17395 bound_to 11000

$$$$
