AV-unprocessed.smi:1622|AV-procd|sdf|6498|dock7
  -GOLD-   22720 7163D 1   1.00000     0.00000
 Structure written by MMmdl.
 41 42  0  0  0  0  0  0  0  0  2 V2000
  143.3387  135.1570  152.2780 C   0  0  0  0  0  0  0  0  0  0  0  0
  144.0575  135.5031  150.9652 C   0  0  0  0  0  0  0  0  0  0  0  0
  145.5241  135.9827  151.1408 C   0  0  1  0  0  0  0  0  0  0  0  0
  145.6202  137.2787  151.9945 C   0  0  0  0  0  0  0  0  0  0  0  0
  146.9862  137.5965  152.4091 N   0  0  0  0  0  0  0  0  0  0  0  0
  147.3396  138.5885  153.2387 C   0  0  0  0  0  0  0  0  0  0  0  0
  146.5323  139.3544  153.7631 O   0  0  0  0  0  0  0  0  0  0  0  0
  148.6699  138.6208  153.4165 N   0  0  0  0  0  0  0  0  0  0  0  0
  149.4211  139.5235  154.2099 C   0  0  0  0  0  0  0  0  0  0  0  0
  150.7368  139.3191  154.3179 N   0  0  0  0  0  0  0  0  0  0  0  0
  151.3462  140.2771  155.1171 N   0  0  0  0  0  0  0  0  0  0  0  0
  150.4743  141.1766  155.5903 C   0  0  0  0  0  0  0  0  0  0  0  0
  150.8814  142.3112  156.4669 C   0  0  0  0  0  0  0  0  0  0  0  0
  148.8068  140.9225  155.0908 S   0  0  0  0  0  0  0  0  0  0  0  0
  146.3930  134.9071  151.7094 N   0  3  0  0  0  0  0  0  0  0  0  0
  146.1536  134.5489  153.1248 C   0  0  0  0  0  0  0  0  0  0  0  0
  146.7821  133.1711  153.2955 C   0  0  0  0  0  0  0  0  0  0  0  0
  146.4804  132.4876  151.9674 C   0  0  0  0  0  0  0  0  0  0  0  0
  146.3940  133.6313  150.9476 C   0  0  0  0  0  0  0  0  0  0  0  0
  142.2867  134.9405  152.0915 H   0  0  0  0  0  0  0  0  0  0  0  0
  143.3837  135.9872  152.9833 H   0  0  0  0  0  0  0  0  0  0  0  0
  143.7631  134.2788  152.7619 H   0  0  0  0  0  0  0  0  0  0  0  0
  144.0145  134.6510  150.2867 H   0  0  0  0  0  0  0  0  0  0  0  0
  143.4616  136.2852  150.4965 H   0  0  0  0  0  0  0  0  0  0  0  0
  145.9067  136.2121  150.1448 H   0  0  0  0  0  0  0  0  0  0  0  0
  145.2648  138.1285  151.4121 H   0  0  0  0  0  0  0  0  0  0  0  0
  144.9505  137.2434  152.8535 H   0  0  0  0  0  0  0  0  0  0  0  0
  147.7228  137.0281  152.0169 H   0  0  0  0  0  0  0  0  0  0  0  0
  149.2114  137.9255  152.9245 H   0  0  0  0  0  0  0  0  0  0  0  0
  151.8281  142.0927  156.9619 H   0  0  0  0  0  0  0  0  0  0  0  0
  150.1225  142.4875  157.2292 H   0  0  0  0  0  0  0  0  0  0  0  0
  150.9974  143.2169  155.8716 H   0  0  0  0  0  0  0  0  0  0  0  0
  146.5881  135.2760  153.8113 H   0  0  0  0  0  0  0  0  0  0  0  0
  145.0804  134.4923  153.3152 H   0  0  0  0  0  0  0  0  0  0  0  0
  147.8608  133.2696  153.4254 H   0  0  0  0  0  0  0  0  0  0  0  0
  146.3872  132.6271  154.1541 H   0  0  0  0  0  0  0  0  0  0  0  0
  147.2345  131.7455  151.7022 H   0  0  0  0  0  0  0  0  0  0  0  0
  145.5188  131.9755  152.0272 H   0  0  0  0  0  0  0  0  0  0  0  0
  145.4875  133.5177  150.3514 H   0  0  0  0  0  0  0  0  0  0  0  0
  147.2443  133.6197  150.2649 H   0  0  0  0  0  0  0  0  0  0  0  0
  147.3421  135.2511  151.6750 H   0  0  0  0  0  0  0  0  0  0  0  0
  1  2  1  0  0  0  0
  1 20  1  0  0  0  0
  1 21  1  0  0  0  0
  1 22  1  0  0  0  0
  2  3  1  0  0  0  0
  2 23  1  0  0  0  0
  2 24  1  0  0  0  0
  3  4  1  0  0  0  0
  3 15  1  0  0  0  0
  3 25  1  0  0  0  0
  4  5  1  0  0  0  0
  4 26  1  0  0  0  0
  4 27  1  0  0  0  0
  5  6  1  0  0  0  0
  5 28  1  0  0  0  0
  6  7  2  0  0  0  0
  6  8  1  0  0  0  0
  8  9  1  0  0  0  0
  8 29  1  0  0  0  0
  9 14  1  0  0  0  0
  9 10  2  0  0  0  0
 10 11  1  0  0  0  0
 11 12  2  0  0  0  0
 12 13  1  0  0  0  0
 12 14  1  0  0  0  0
 13 30  1  0  0  0  0
 13 31  1  0  0  0  0
 13 32  1  0  0  0  0
 15 19  1  0  0  0  0
 15 16  1  0  0  0  0
 15 41  1  0  0  0  0
 16 17  1  0  0  0  0
 16 33  1  0  0  0  0
 16 34  1  0  0  0  0
 17 18  1  0  0  0  0
 17 35  1  0  0  0  0
 17 36  1  0  0  0  0
 18 19  1  0  0  0  0
 18 37  1  0  0  0  0
 18 38  1  0  0  0  0
 19 39  1  0  0  0  0
 19 40  1  0  0  0  0
M  CHG  1  15   1
M  END
> <s_m_source_file>
AV-unprocessed.smi

> <i_m_source_file_index>
1622

> <i_lp_mmshare_version>
43012

> <i_f3d_flags>
0

> <s_epik_input>
W0NIMl0xW0NIMl1bQ0gyXVtDSDJdTjFbQ0BIXShbQ0gyXVtDSDNdKVtDSDJdW05IXUMoPU8pW05IXWMybm5jKHMyKVtDSDNd

> <s_epik_cmdline>
J2VwaWtfcHl0aG9uJywgJy1waCcsICc3LjAnLCAnLXRuJywgJzgnLCAnLW1hJywgJzIwMCcsICctbWV0YWxfYmluZGluZycsICctaW1hZScsICc8aW5maWxlLm1hZT4nLCAnLW9tYWUnLCAnPG91dGZpbGUubWFlPic=

> <r_lp_tautomer_probability>
1

> <r_epik_Ionization_Penalty>
0.00164835

> <r_epik_Ionization_Penalty_Charging>
0.00115997

> <r_epik_Ionization_Penalty_Neutral>
0.00048838

> <r_epik_State_Penalty>
-0

> <r_epik_Charging_Adjusted_Penalty>
0.00115997

> <i_epik_Tot_Q>
1

> <i_epik_Tot_abs_Q>
1

> <r_epik_Metal_State_Penalty>
0.216651

> <b_epik_Metal_Only>
0

> <s_lp_Force_Field>
OPLS_2005

> <r_lp_Energy>
37.4677

> <b_lp_Chiralities_Consistent>
1

> <s_lp_Variant>
AV-unprocessed.smi:1622-2

> <Gold.Version>
5.8.1

> <Gold.Id.Protein>
6NUR|6NUR_protein|mol2

> <Gold.PLP.Fitness>
44.4315

> <Gold.PLP.PLP>
-33.6496

> <Gold.PLP.part.hbond>
-5.7672

> <Gold.PLP.part.metal>
0.0000

> <Gold.PLP.part.buried>
-3.8655

> <Gold.PLP.part.nonpolar>
-25.9865

> <Gold.PLP.part.repulsive>
0.5138

> <Gold.PLP.ligand.clash>
0.0000

> <Gold.PLP.ligand.torsion>
0.1729

> <Gold.PLP.Chemscore.Hbond>
3.6701

> <Gold.PLP.Chemscore.CHOScore>
0.0000

> <Gold.PLP.Chemscore.Metal>
0.0000

> <Gold.Chemscore.Hbonds>
donor molecule, donor type, donor heavy atom, donor atom, acceptor molecule, acceptor atom, score
      L1  H     5    28       P1  7948  0.81
      L1  H     8    29       P1  7948  0.83
      L1  H    15    41       P1  7948  2.00

> <Gold.PLP.Chemscore.Internal.Correction>
0.1174

> <Gold.Rescore>
     Score         DG    S(hbond)    S(metal)    S(lipo)     H(rot)  DE(clash)    DE(int)     intcor
     16.48     -17.50       2.77        0.00      62.39       1.77       0.03       0.99       ----

> <Gold.Chemscore.Fitness>
16.4789

> <Gold.Chemscore.DG>
-17.4994

> <Gold.Chemscore.ZeroCoef>
-5.4800

> <Gold.Chemscore.Hbond>
2.7726

> <Gold.Chemscore.Metal>
0.0000

> <Gold.Chemscore.Lipo>
62.3921

> <Gold.Chemscore.Internal_Hbond>
0.0000

> <Gold.Chemscore.DEClash>
0.0310

> <Gold.Chemscore.DEInternal>
0.9895

> <Gold.Chemscore.Rot>
1.7738

> <Gold.Chemscore.Internal.Correction>
   9.000000E+99

> <Gold.Chemscore.Hbonds>
donor molecule, donor type, donor heavy atom, donor atom, acceptor molecule, acceptor atom, score
      L1  H     5    28       P1  7948  0.80
      L1  H     8    29       P1  7948  0.77
      L1  H    15    41       P1  7948  0.94

> <Gold.Chemscore.Hbond.Weighted>
-9.2606

> <Gold.Chemscore.Metal.Weighted>
-0.0000

> <Gold.Chemscore.Lipo.Weighted>
-7.2999

> <Gold.Chemscore.Internal_Hbond.Weighted>
0.0000

> <Gold.Chemscore.DEClash.Weighted>
0.0310

> <Gold.Chemscore.DEInternal.Weighted>
0.9895

> <Gold.Chemscore.Rot.Weighted>
4.5411

> <Gold.Chemscore.Internal.Correction.Weighted>
   9.000000E+99

> <Gold.Protein.RotatedTorsions>
[ 6907 6896 6895 6894 ] final -155.51 input  -60.11 | X-H torsion
[ 7974 7965 7964 7962 ] final   58.35 input  175.53 | X-H torsion
[ 8008 7997 7996 7995 ] final   64.69 input   59.86 | X-H torsion
[ 10167 10162 10161 10158 ] final  -49.54 input  -65.29 | X-H torsion
[ 10718 10713 10712 10709 ] final  -42.91 input   66.30 | X-H torsion
[ 10763 10752 10751 10750 ] final   14.86 input  -60.55 | X-H torsion
[ 11005 11000 10999 10996 ] final -167.26 input  -57.11 | X-H torsion

> <Gold.Protein.ActiveResidues>
 VAL166  LYS551  ARG553  GLY616  TRP617  ASP618  TYR619  PRO620  LYS621  CYS622 
 ASP623  PHE694  ASN695  SER759  ASP760  ASP761  ALA762  ILE779  LEU786  VAL792 
 PHE793  MET794  SER795  GLU796  ALA797  LYS798  CYS799  TRP800  GLU811  SER814 

> <Gold.Protein.RotatedAtoms>
  151.2737  133.4243  159.2622 H   0  0  0  0  0  0  0  0  0  0  0  0  # atno 6907 bound_to 6896
  151.0422  134.9616  159.8178 H   0  0  0  0  0  0  0  0  0  0  0  0  # atno 6908 bound_to 6896
  152.5367  134.2694  159.9018 H   0  0  0  0  0  0  0  0  0  0  0  0  # atno 6909 bound_to 6896
  145.9191  139.3715  143.0489 H   0  0  0  0  0  0  0  0  0  0  0  0  # atno 7974 bound_to 7965
  155.6500  140.3497  155.4745 H   0  0  0  0  0  0  0  0  0  0  0  0  # atno 8008 bound_to 7997
  155.9855  140.1183  157.0710 H   0  0  0  0  0  0  0  0  0  0  0  0  # atno 8009 bound_to 7997
  154.4204  140.1130  156.5480 H   0  0  0  0  0  0  0  0  0  0  0  0  # atno 8010 bound_to 7997
  140.6680  143.2693  151.4230 H   0  0  0  0  0  0  0  0  0  0  0  0  # atno 10167 bound_to 10162
  156.2546  130.4191  149.8611 H   0  0  0  0  0  0  0  0  0  0  0  0  # atno 10718 bound_to 10713
  153.1581  135.6791  153.8782 H   0  0  0  0  0  0  0  0  0  0  0  0  # atno 10763 bound_to 10752
  153.8187  135.3133  155.3409 H   0  0  0  0  0  0  0  0  0  0  0  0  # atno 10764 bound_to 10752
  154.7912  135.4833  154.0146 H   0  0  0  0  0  0  0  0  0  0  0  0  # atno 10765 bound_to 10752
  140.5552  134.5388  157.5131 H   0  0  0  0  0  0  0  0  0  0  0  0  # atno 11005 bound_to 11000
  145.8573  140.9495  143.0718 LP  0  0  0  0  0  0  0  0  0  0  0  0  # atno 17320 bound_to 7965
  144.6751  140.0484  143.7479 LP  0  0  0  0  0  0  0  0  0  0  0  0  # atno 17321 bound_to 7965
  139.5936  144.1445  152.2118 LP  0  0  0  0  0  0  0  0  0  0  0  0  # atno 17342 bound_to 10162
  140.0807  144.5703  150.7124 LP  0  0  0  0  0  0  0  0  0  0  0  0  # atno 17343 bound_to 10162
  156.6148  130.8601  151.3462 LP  0  0  0  0  0  0  0  0  0  0  0  0  # atno 17370 bound_to 10713
  157.7227  130.9581  150.1506 LP  0  0  0  0  0  0  0  0  0  0  0  0  # atno 17371 bound_to 10713
  139.9435  134.7744  156.0620 LP  0  0  0  0  0  0  0  0  0  0  0  0  # atno 17394 bound_to 11000
  141.1147  133.6631  156.3065 LP  0  0  0  0  0  0  0  0  0  0  0  0  # atno 17395 bound_to 11000

$$$$
