AV-unprocessed.smi:72|AV-procd|sdf|751|dock4
  -GOLD-   2262017 83D 1   1.00000     0.00000
 Structure written by MMmdl.
 29 30  0  0  0  0  0  0  0  0  1 V2000
  150.1330  131.7151  156.4252 N   0  0  0  0  0  0  0  0  0  0  0  0
  150.0572  133.0872  156.3059 C   0  0  0  0  0  0  0  0  0  0  0  0
  149.5029  133.5800  155.1161 N   0  0  0  0  0  0  0  0  0  0  0  0
  149.4235  134.8681  155.0035 C   0  0  0  0  0  0  0  0  0  0  0  0
  149.8801  135.7469  156.0655 N   0  0  0  0  0  0  0  0  0  0  0  0
  149.7878  137.2531  155.9313 C   0  0  2  0  0  0  0  0  0  0  0  0
  148.4861  137.5920  155.5697 O   0  0  0  0  0  0  0  0  0  0  0  0
  148.5260  138.7776  154.7912 C   0  0  2  0  0  0  0  0  0  0  0  0
  147.2322  138.9125  153.9734 C   0  0  0  0  0  0  0  0  0  0  0  0
  147.3523  139.9674  153.0430 O   0  0  0  0  0  0  0  0  0  0  0  0
  149.7764  138.5708  153.9293 C   0  0  1  0  0  0  0  0  0  0  0  0
  150.3085  139.8192  153.5322 O   0  0  0  0  0  0  0  0  0  0  0  0
  150.7388  137.8435  154.8647 C   0  0  2  0  0  0  0  0  0  0  0  0
  151.4962  136.8813  154.1527 O   0  0  0  0  0  0  0  0  0  0  0  0
  150.4523  135.1803  157.2367 C   0  0  0  0  0  0  0  0  0  0  0  0
  150.8807  135.9076  158.1327 O   0  0  0  0  0  0  0  0  0  0  0  0
  150.5099  133.7831  157.3096 N   0  0  0  0  0  0  0  0  0  0  0  0
  149.9656  137.6692  156.9241 H   0  0  0  0  0  0  0  0  0  0  0  0
  148.6682  139.6340  155.4545 H   0  0  0  0  0  0  0  0  0  0  0  0
  149.5380  137.9574  153.0585 H   0  0  0  0  0  0  0  0  0  0  0  0
  151.4136  138.5364  155.3697 H   0  0  0  0  0  0  0  0  0  0  0  0
  150.5139  131.2481  157.2353 H   0  0  0  0  0  0  0  0  0  0  0  0
  149.8149  131.0757  155.7115 H   0  0  0  0  0  0  0  0  0  0  0  0
  149.0226  135.3687  154.1210 H   0  0  0  0  0  0  0  0  0  0  0  0
  147.0497  137.9987  153.4072 H   0  0  0  0  0  0  0  0  0  0  0  0
  146.3688  139.0704  154.6202 H   0  0  0  0  0  0  0  0  0  0  0  0
  147.8936  139.6751  152.3257 H   0  0  0  0  0  0  0  0  0  0  0  0
  149.8504  140.1077  152.7578 H   0  0  0  0  0  0  0  0  0  0  0  0
  151.0685  136.7145  153.3266 H   0  0  0  0  0  0  0  0  0  0  0  0
  1  2  1  0  0  0  0
  1 22  1  0  0  0  0
  1 23  1  0  0  0  0
  2 17  2  0  0  0  0
  2  3  1  0  0  0  0
  3  4  2  0  0  0  0
  4  5  1  0  0  0  0
  4 24  1  0  0  0  0
  5  6  1  0  0  0  0
  5 15  1  0  0  0  0
  6 18  1  0  0  0  0
  6 13  1  0  0  0  0
  6  7  1  0  0  0  0
  7  8  1  0  0  0  0
  8 19  1  0  0  0  0
  8  9  1  0  0  0  0
  8 11  1  0  0  0  0
  9 10  1  0  0  0  0
  9 25  1  0  0  0  0
  9 26  1  0  0  0  0
 10 27  1  0  0  0  0
 11 20  1  0  0  0  0
 11 12  1  0  0  0  0
 11 13  1  0  0  0  0
 12 28  1  0  0  0  0
 13 21  1  0  0  0  0
 13 14  1  0  0  0  0
 14 29  1  0  0  0  0
 15 16  2  0  0  0  0
 15 17  1  0  0  0  0
M  END
> <s_m_source_file>
AV-unprocessed.smi

> <i_m_source_file_index>
72

> <i_lp_mmshare_version>
43012

> <i_f3d_flags>
0

> <s_epik_input>
W05IMl1jMW5bY0hdbihjKD1PKW4xKVtDQEBIXTJPW0NASF0oW0NIMl1bT0hdKVtDQEBIXShbT0hdKVtDQEhdMltPSF0=

> <s_epik_cmdline>
J2VwaWtfcHl0aG9uJywgJy1waCcsICc3LjAnLCAnLXRuJywgJzgnLCAnLW1hJywgJzIwMCcsICctbWV0YWxfYmluZGluZycsICctaW1hZScsICc8aW5maWxlLm1hZT4nLCAnLW9tYWUnLCAnPG91dGZpbGUubWFlPic=

> <r_lp_tautomer_probability>
4.77166e-05

> <r_epik_Ionization_Penalty>
1.3546

> <r_epik_Ionization_Penalty_Charging>
1.46833e-10

> <r_epik_Ionization_Penalty_Neutral>
1.3546

> <r_epik_State_Penalty>
3.51908

> <r_epik_Charging_Adjusted_Penalty>
3.51908

> <i_epik_Tot_Q>
0

> <i_epik_Tot_abs_Q>
0

> <r_epik_Metal_State_Penalty>
3.44088

> <b_epik_Metal_Only>
1

> <s_epik_Chemistry_Notes>
This compound contains an acetal/aminal-like group ( X-CH(R)-Y where X, Y are N, S, or O) that may be acid/base labile, releasing an aldehyde.

> <s_lp_Force_Field>
OPLS_2005

> <r_lp_Energy>
32.6436

> <b_lp_Chiralities_Consistent>
1

> <s_lp_Variant>
AV-unprocessed.smi:72-89

> <Gold.Version>
5.8.1

> <Gold.Id.Protein>
6NUR|6NUR_protein|mol2

> <Gold.PLP.Fitness>
36.7043

> <Gold.PLP.PLP>
-16.6502

> <Gold.PLP.part.hbond>
-6.8095

> <Gold.PLP.part.metal>
0.0000

> <Gold.PLP.part.buried>
0.6790

> <Gold.PLP.part.nonpolar>
-11.0726

> <Gold.PLP.part.repulsive>
0.1476

> <Gold.PLP.ligand.clash>
0.0000

> <Gold.PLP.ligand.torsion>
0.1835

> <Gold.PLP.Chemscore.Hbond>
5.7138

> <Gold.PLP.Chemscore.CHOScore>
1.0000

> <Gold.PLP.Chemscore.Metal>
0.0000

> <Gold.Chemscore.Hbonds>
donor molecule, donor type, donor heavy atom, donor atom, acceptor molecule, acceptor atom, score
      L1  H    10    27       P1  7957  0.81
      L1  H    12    28       P1  7957  0.99
      L1  H    14    29       P1  7949  0.98
      P1  H  6896  6907       L1    17  0.64
      P1  H  6896  6908       L1    16  0.50
      P1  H  7989  7998       L1    12  0.71
      P1  H 10752 10765       L1    14  1.00
      L1  C     4    24       P1  7948  1.00

> <Gold.PLP.Chemscore.Internal.Correction>
0.2798

> <Gold.Rescore>
     Score         DG    S(hbond)    S(metal)    S(lipo)     H(rot)  DE(clash)    DE(int)     intcor
      6.54      -9.28       3.43        0.00      23.53       4.06       2.36       0.38       ----

> <Gold.Chemscore.Fitness>
6.5413

> <Gold.Chemscore.DG>
-9.2815

> <Gold.Chemscore.ZeroCoef>
-5.4800

> <Gold.Chemscore.Hbond>
3.4259

> <Gold.Chemscore.Metal>
0.0000

> <Gold.Chemscore.Lipo>
23.5269

> <Gold.Chemscore.Internal_Hbond>
0.0000

> <Gold.Chemscore.DEClash>
2.3650

> <Gold.Chemscore.DEInternal>
0.3752

> <Gold.Chemscore.Rot>
4.0600

> <Gold.Chemscore.Internal.Correction>
   9.000000E+99

> <Gold.Chemscore.Hbonds>
donor molecule, donor type, donor heavy atom, donor atom, acceptor molecule, acceptor atom, score
      L1  H    10    27       P1  7957  0.76
      L1  H    12    28       P1  7957  0.93
      L1  H    14    29       P1  7949  0.32
      P1  H  6896  6907       L1    17  0.21
      P1  H  6896  6908       L1    16  0.44
      P1  H  7989  7998       L1    12  0.14
      P1  H 10752 10765       L1    14  0.34

> <Gold.Chemscore.Hbond.Weighted>
-11.4425

> <Gold.Chemscore.Metal.Weighted>
-0.0000

> <Gold.Chemscore.Lipo.Weighted>
-2.7526

> <Gold.Chemscore.Internal_Hbond.Weighted>
0.0000

> <Gold.Chemscore.DEClash.Weighted>
2.3650

> <Gold.Chemscore.DEInternal.Weighted>
0.3752

> <Gold.Chemscore.Rot.Weighted>
10.3936

> <Gold.Chemscore.Internal.Correction.Weighted>
   9.000000E+99

> <Gold.Protein.RotatedTorsions>
[ 6907 6896 6895 6894 ] final -150.74 input  -60.11 | X-H torsion
[ 7974 7965 7964 7962 ] final  138.32 input  175.53 | X-H torsion
[ 8008 7997 7996 7995 ] final  125.37 input   59.86 | X-H torsion
[ 10167 10162 10161 10158 ] final -153.61 input  -65.29 | X-H torsion
[ 10718 10713 10712 10709 ] final -157.86 input   66.30 | X-H torsion
[ 10763 10752 10751 10750 ] final  147.16 input  -60.55 | X-H torsion
[ 11005 11000 10999 10996 ] final -125.90 input  -57.11 | X-H torsion

> <Gold.Protein.ActiveResidues>
 VAL166  LYS551  ARG553  GLY616  TRP617  ASP618  TYR619  PRO620  LYS621  CYS622 
 ASP623  PHE694  ASN695  SER759  ASP760  ASP761  ALA762  ILE779  LEU786  VAL792 
 PHE793  MET794  SER795  GLU796  ALA797  LYS798  CYS799  TRP800  GLU811  SER814 

> <Gold.Protein.RotatedAtoms>
  151.2030  133.4600  159.2596 H   0  0  0  0  0  0  0  0  0  0  0  0  # atno 6907 bound_to 6896
  151.1051  134.9994  159.8477 H   0  0  0  0  0  0  0  0  0  0  0  0  # atno 6908 bound_to 6896
  152.5446  134.1954  159.8743 H   0  0  0  0  0  0  0  0  0  0  0  0  # atno 6909 bound_to 6896
  144.9384  139.4961  143.5584 H   0  0  0  0  0  0  0  0  0  0  0  0  # atno 7974 bound_to 7965
  156.2832  140.2718  156.1938 H   0  0  0  0  0  0  0  0  0  0  0  0  # atno 8008 bound_to 7997
  155.0431  140.0386  157.2534 H   0  0  0  0  0  0  0  0  0  0  0  0  # atno 8009 bound_to 7997
  154.7258  140.2697  155.6506 H   0  0  0  0  0  0  0  0  0  0  0  0  # atno 8010 bound_to 7997
  139.7082  143.9152  152.2457 H   0  0  0  0  0  0  0  0  0  0  0  0  # atno 10167 bound_to 10162
  156.5461  130.8585  151.2765 H   0  0  0  0  0  0  0  0  0  0  0  0  # atno 10718 bound_to 10713
  154.0337  135.2895  155.3365 H   0  0  0  0  0  0  0  0  0  0  0  0  # atno 10763 bound_to 10752
  154.6972  135.5203  153.8478 H   0  0  0  0  0  0  0  0  0  0  0  0  # atno 10764 bound_to 10752
  153.0629  135.6620  154.0548 H   0  0  0  0  0  0  0  0  0  0  0  0  # atno 10765 bound_to 10752
  140.9725  134.0786  157.3854 H   0  0  0  0  0  0  0  0  0  0  0  0  # atno 11005 bound_to 11000
  146.3276  139.8385  142.8895 LP  0  0  0  0  0  0  0  0  0  0  0  0  # atno 17320 bound_to 7965
  145.3030  141.0199  143.3597 LP  0  0  0  0  0  0  0  0  0  0  0  0  # atno 17321 bound_to 7965
  139.9013  144.6910  150.8662 LP  0  0  0  0  0  0  0  0  0  0  0  0  # atno 17342 bound_to 10162
  140.7727  143.3511  151.2012 LP  0  0  0  0  0  0  0  0  0  0  0  0  # atno 17343 bound_to 10162
  157.7396  130.9835  150.2325 LP  0  0  0  0  0  0  0  0  0  0  0  0  # atno 17370 bound_to 10713
  156.2927  130.3748  149.7826 LP  0  0  0  0  0  0  0  0  0  0  0  0  # atno 17371 bound_to 10713
  139.8918  135.0120  156.6809 LP  0  0  0  0  0  0  0  0  0  0  0  0  # atno 17394 bound_to 11000
  140.7308  133.9061  155.8210 LP  0  0  0  0  0  0  0  0  0  0  0  0  # atno 17395 bound_to 11000

$$$$
