AV-unprocessed.smi:2760|AV-procd|sdf|10628|dock10
  -GOLD-   2272015 73D 1   1.00000     0.00000
 Structure written by MMmdl.
 32 33  0  0  0  0  0  0  0  0  1 V2000
  150.7851  140.2319  155.0559 O   0  0  0  0  0  0  0  0  0  0  0  0
  151.0373  140.7610  156.1361 C   0  0  0  0  0  0  0  0  0  0  0  0
  150.7839  142.1695  156.4378 C   0  0  0  0  0  0  0  0  0  0  0  0
  151.0901  142.6799  157.6577 C   0  0  0  0  0  0  0  0  0  0  0  0
  150.8611  144.1066  158.0345 C   0  0  0  0  0  0  0  0  0  0  0  0
  151.9945  145.0331  158.4190 C   0  0  0  0  0  0  0  0  0  0  0  0
  150.9995  144.5870  159.4628 C   0  0  0  0  0  0  0  0  0  0  0  0
  151.6544  141.8630  158.6476 N   0  0  0  0  0  0  0  0  0  0  0  0
  151.8908  140.6114  158.4039 C   0  0  0  0  0  0  0  0  0  0  0  0
  152.6133  139.3467  159.4892 S   0  0  0  0  0  0  0  0  0  0  0  0
  154.2006  140.1139  159.9240 C   0  0  0  0  0  0  0  0  0  0  0  0
  154.8557  139.4239  161.1252 C   0  0  0  0  0  0  0  0  0  0  0  0
  154.6713  138.0214  161.0227 O   0  0  0  0  0  0  0  0  0  0  0  0
  153.8063  137.5059  162.0226 C   0  0  0  0  0  0  0  0  0  0  0  0
  154.6369  136.9945  163.2062 C   0  0  0  0  0  0  0  0  0  0  0  0
  155.4386  136.0147  162.7903 F   0  0  0  0  0  0  0  0  0  0  0  0
  155.3862  137.9786  163.7024 F   0  0  0  0  0  0  0  0  0  0  0  0
  153.8367  136.5169  164.1590 F   0  0  0  0  0  0  0  0  0  0  0  0
  151.5838  140.0598  157.1555 N   0  0  0  0  0  0  0  0  0  0  0  0
  151.7786  139.0816  156.9997 H   0  0  0  0  0  0  0  0  0  0  0  0
  150.3510  142.7960  155.6722 H   0  0  0  0  0  0  0  0  0  0  0  0
  150.0567  144.5603  157.4574 H   0  0  0  0  0  0  0  0  0  0  0  0
  153.0010  144.6240  158.4762 H   0  0  0  0  0  0  0  0  0  0  0  0
  151.9340  146.0647  158.0782 H   0  0  0  0  0  0  0  0  0  0  0  0
  150.2780  145.3212  159.8147 H   0  0  0  0  0  0  0  0  0  0  0  0
  151.3422  143.8779  160.2136 H   0  0  0  0  0  0  0  0  0  0  0  0
  154.0437  141.1719  160.1362 H   0  0  0  0  0  0  0  0  0  0  0  0
  154.8651  140.0536  159.0618 H   0  0  0  0  0  0  0  0  0  0  0  0
  155.9188  139.6669  161.1629 H   0  0  0  0  0  0  0  0  0  0  0  0
  154.4039  139.7885  162.0490 H   0  0  0  0  0  0  0  0  0  0  0  0
  153.1198  138.2840  162.3605 H   0  0  0  0  0  0  0  0  0  0  0  0
  153.2039  136.6938  161.6127 H   0  0  0  0  0  0  0  0  0  0  0  0
  1  2  2  0  0  0  0
  2 19  1  0  0  0  0
  2  3  1  0  0  0  0
  3 21  1  0  0  0  0
  3  4  2  0  0  0  0
  4  5  1  0  0  0  0
  4  8  1  0  0  0  0
  5  7  1  0  0  0  0
  5  6  1  0  0  0  0
  5 22  1  0  0  0  0
  6  7  1  0  0  0  0
  6 23  1  0  0  0  0
  6 24  1  0  0  0  0
  7 25  1  0  0  0  0
  7 26  1  0  0  0  0
  8  9  2  0  0  0  0
  9 10  1  0  0  0  0
  9 19  1  0  0  0  0
 10 11  1  0  0  0  0
 11 12  1  0  0  0  0
 11 27  1  0  0  0  0
 11 28  1  0  0  0  0
 12 13  1  0  0  0  0
 12 29  1  0  0  0  0
 12 30  1  0  0  0  0
 13 14  1  0  0  0  0
 14 15  1  0  0  0  0
 14 31  1  0  0  0  0
 14 32  1  0  0  0  0
 15 16  1  0  0  0  0
 15 17  1  0  0  0  0
 15 18  1  0  0  0  0
 19 20  1  0  0  0  0
M  END
> <s_m_source_file>
AV-unprocessed.smi

> <i_m_source_file_index>
2760

> <i_lp_mmshare_version>
43012

> <i_f3d_flags>
0

> <s_epik_input>
W09IXWMxW2NIXWMoW0NIXTJbQ0gyXVtDSDJdMiluYyhuMSlTW0NIMl1bQ0gyXU9bQ0gyXUMoRikoRilG

> <s_epik_cmdline>
J2VwaWtfcHl0aG9uJywgJy1waCcsICc3LjAnLCAnLXRuJywgJzgnLCAnLW1hJywgJzIwMCcsICctbWV0YWxfYmluZGluZycsICctaW1hZScsICc8aW5maWxlLm1hZT4nLCAnLW9tYWUnLCAnPG91dGZpbGUubWFlPic=

> <r_lp_tautomer_probability>
0.660323

> <r_epik_Ionization_Penalty>
0.00540315

> <r_epik_Ionization_Penalty_Charging>
0.00540219

> <r_epik_Ionization_Penalty_Neutral>
9.53041e-07

> <r_epik_State_Penalty>
0.139188

> <r_epik_Charging_Adjusted_Penalty>
0.14459

> <i_epik_Tot_Q>
0

> <i_epik_Tot_abs_Q>
0

> <r_epik_Metal_State_Penalty>
0.790013

> <b_epik_Metal_Only>
0

> <s_lp_Force_Field>
OPLS_2005

> <r_lp_Energy>
15.5574

> <b_lp_Chiralities_Consistent>
1

> <s_lp_Variant>
AV-unprocessed.smi:2760-1

> <Gold.Version>
5.8.1

> <Gold.Id.Protein>
6NUR|6NUR_protein|mol2

> <Gold.PLP.Fitness>
44.1122

> <Gold.PLP.PLP>
-42.6430

> <Gold.PLP.part.hbond>
-1.0000

> <Gold.PLP.part.metal>
0.0000

> <Gold.PLP.part.buried>
-6.3377

> <Gold.PLP.part.nonpolar>
-35.1668

> <Gold.PLP.part.repulsive>
0.1309

> <Gold.PLP.ligand.clash>
0.0000

> <Gold.PLP.ligand.torsion>
0.8606

> <Gold.PLP.Chemscore.Hbond>
1.0000

> <Gold.PLP.Chemscore.CHOScore>
0.0000

> <Gold.PLP.Chemscore.Metal>
0.0000

> <Gold.Chemscore.Hbonds>
donor molecule, donor type, donor heavy atom, donor atom, acceptor molecule, acceptor atom, score
      P1  H  7989  7998       L1     1  1.00

> <Gold.PLP.Chemscore.Internal.Correction>
0.1903

> <Gold.Rescore>
     Score         DG    S(hbond)    S(metal)    S(lipo)     H(rot)  DE(clash)    DE(int)     intcor
     11.67     -12.97       0.96        0.00      92.70       2.57       0.01       1.30       ----

> <Gold.Chemscore.Fitness>
11.6669

> <Gold.Chemscore.DG>
-12.9739

> <Gold.Chemscore.ZeroCoef>
-5.4800

> <Gold.Chemscore.Hbond>
0.9648

> <Gold.Chemscore.Metal>
0.0000

> <Gold.Chemscore.Lipo>
92.6970

> <Gold.Chemscore.Internal_Hbond>
0.0000

> <Gold.Chemscore.DEClash>
0.0079

> <Gold.Chemscore.DEInternal>
1.2991

> <Gold.Chemscore.Rot>
2.5680

> <Gold.Chemscore.Internal.Correction>
   9.000000E+99

> <Gold.Chemscore.Hbonds>
donor molecule, donor type, donor heavy atom, donor atom, acceptor molecule, acceptor atom, score
      P1  H  7989  7998       L1     1  0.96

> <Gold.Chemscore.Hbond.Weighted>
-3.2225

> <Gold.Chemscore.Metal.Weighted>
-0.0000

> <Gold.Chemscore.Lipo.Weighted>
-10.8455

> <Gold.Chemscore.Internal_Hbond.Weighted>
0.0000

> <Gold.Chemscore.DEClash.Weighted>
0.0079

> <Gold.Chemscore.DEInternal.Weighted>
1.2991

> <Gold.Chemscore.Rot.Weighted>
6.5741

> <Gold.Chemscore.Internal.Correction.Weighted>
   9.000000E+99

> <Gold.Protein.RotatedTorsions>
[ 6907 6896 6895 6894 ] final   63.25 input  -60.11 | X-H torsion
[ 7974 7965 7964 7962 ] final   33.28 input  175.53 | X-H torsion
[ 8008 7997 7996 7995 ] final  -37.57 input   59.86 | X-H torsion
[ 10167 10162 10161 10158 ] final  -94.61 input  -65.29 | X-H torsion
[ 10718 10713 10712 10709 ] final  108.26 input   66.30 | X-H torsion
[ 10763 10752 10751 10750 ] final -120.43 input  -60.55 | X-H torsion
[ 11005 11000 10999 10996 ] final    4.43 input  -57.11 | X-H torsion

> <Gold.Protein.ActiveResidues>
 VAL166  LYS551  ARG553  GLY616  TRP617  ASP618  TYR619  PRO620  LYS621  CYS622 
 ASP623  PHE694  ASN695  SER759  ASP760  ASP761  ALA762  ILE779  LEU786  VAL792 
 PHE793  MET794  SER795  GLU796  ALA797  LYS798  CYS799  TRP800  GLU811  SER814 

> <Gold.Protein.RotatedAtoms>
  152.4238  134.5906  159.9972 H   0  0  0  0  0  0  0  0  0  0  0  0  # atno 6907 bound_to 6896
  151.6048  133.3347  159.3063 H   0  0  0  0  0  0  0  0  0  0  0  0  # atno 6908 bound_to 6896
  150.8127  134.7329  159.6768 H   0  0  0  0  0  0  0  0  0  0  0  0  # atno 6909 bound_to 6896
  146.1431  139.6417  142.9150 H   0  0  0  0  0  0  0  0  0  0  0  0  # atno 7974 bound_to 7965
  154.4051  140.1600  156.2559 H   0  0  0  0  0  0  0  0  0  0  0  0  # atno 8008 bound_to 7997
  155.9079  140.3429  155.6053 H   0  0  0  0  0  0  0  0  0  0  0  0  # atno 8009 bound_to 7997
  155.7371  140.0788  157.2253 H   0  0  0  0  0  0  0  0  0  0  0  0  # atno 8010 bound_to 7997
  140.3127  143.3095  152.0131 H   0  0  0  0  0  0  0  0  0  0  0  0  # atno 10167 bound_to 10162
  157.6593  131.0890  150.6279 H   0  0  0  0  0  0  0  0  0  0  0  0  # atno 10718 bound_to 10713
  154.8644  135.4203  154.2458 H   0  0  0  0  0  0  0  0  0  0  0  0  # atno 10763 bound_to 10752
  153.3414  135.6994  153.6870 H   0  0  0  0  0  0  0  0  0  0  0  0  # atno 10764 bound_to 10752
  153.5846  135.3566  155.2861 H   0  0  0  0  0  0  0  0  0  0  0  0  # atno 10765 bound_to 10752
  140.5819  134.0004  155.8051 H   0  0  0  0  0  0  0  0  0  0  0  0  # atno 11005 bound_to 11000
  145.5001  141.0437  143.2545 LP  0  0  0  0  0  0  0  0  0  0  0  0  # atno 17320 bound_to 7965
  144.7815  139.6517  143.7152 LP  0  0  0  0  0  0  0  0  0  0  0  0  # atno 17321 bound_to 7965
  139.4890  144.6372  151.6951 LP  0  0  0  0  0  0  0  0  0  0  0  0  # atno 17342 bound_to 10162
  140.5554  144.0357  150.6145 LP  0  0  0  0  0  0  0  0  0  0  0  0  # atno 17343 bound_to 10162
  156.6583  130.4505  149.5696 LP  0  0  0  0  0  0  0  0  0  0  0  0  # atno 17370 bound_to 10713
  156.2086  130.6664  151.1245 LP  0  0  0  0  0  0  0  0  0  0  0  0  # atno 17371 bound_to 10713
  141.0990  133.9798  157.3111 LP  0  0  0  0  0  0  0  0  0  0  0  0  # atno 17394 bound_to 11000
  139.9313  135.0199  156.8409 LP  0  0  0  0  0  0  0  0  0  0  0  0  # atno 17395 bound_to 11000

$$$$
