AV-unprocessed.smi:1868|AV-procd|sdf|7590|dock3
  -GOLD-   22720 9303D 1   1.00000     0.00000
 Structure written by MMmdl.
 48 50  0  0  0  0  0  0  0  0  3 V2000
  142.1810  135.2962  153.0620 C   0  0  0  0  0  0  0  0  0  0  0  0
  143.1981  134.4879  152.3286 C   0  0  0  0  0  0  0  0  0  0  0  0
  142.9911  133.8022  151.1692 N   0  3  0  0  0  0  0  0  0  0  0  0
  144.1712  133.1680  150.7780 C   0  0  0  0  0  0  0  0  0  0  0  0
  144.4532  132.3647  149.6773 C   0  0  0  0  0  0  0  0  0  0  0  0
  145.7711  131.8735  149.5735 C   0  0  0  0  0  0  0  0  0  0  0  0
  146.7494  132.1851  150.5402 C   0  0  0  0  0  0  0  0  0  0  0  0
  146.4518  133.0006  151.6523 C   0  0  0  0  0  0  0  0  0  0  0  0
  145.1462  133.4815  151.7472 C   0  0  0  0  0  0  0  0  0  0  0  0
  144.5006  134.2943  152.6858 N   0  0  0  0  0  0  0  0  0  0  0  0
  145.2570  134.7983  153.8430 C   0  0  0  0  0  0  0  0  0  0  0  0
  145.8293  136.2135  153.6214 C   0  0  2  0  0  0  0  0  0  0  0  0
  146.2457  136.3364  152.2746 O   0  0  0  0  0  0  0  0  0  0  0  0
  147.0307  136.4839  154.5512 C   0  0  0  0  0  0  0  0  0  0  0  0
  147.8383  137.6638  154.1441 N   0  3  2  0  0  0  0  0  0  0  0  0
  148.9794  137.8999  155.0662 C   0  0  0  0  0  0  0  0  0  0  0  0
  149.8839  139.0392  154.5624 C   0  0  0  0  0  0  0  0  0  0  0  0
  149.1018  140.3435  154.3256 C   0  0  2  0  0  0  0  0  0  0  0  0
  148.7095  141.0502  155.6353 C   0  0  0  0  0  0  0  0  0  0  0  0
  147.8913  140.0547  153.4198 C   0  0  0  0  0  0  0  0  0  0  0  0
  147.0280  138.8968  153.9524 C   0  0  0  0  0  0  0  0  0  0  0  0
  141.2213  135.2651  152.5455 H   0  0  0  0  0  0  0  0  0  0  0  0
  142.5039  136.3351  153.1307 H   0  0  0  0  0  0  0  0  0  0  0  0
  142.0438  134.9054  154.0701 H   0  0  0  0  0  0  0  0  0  0  0  0
  143.7058  132.1253  148.9349 H   0  0  0  0  0  0  0  0  0  0  0  0
  146.0369  131.2459  148.7351 H   0  0  0  0  0  0  0  0  0  0  0  0
  147.7487  131.7906  150.4254 H   0  0  0  0  0  0  0  0  0  0  0  0
  147.2086  133.2340  152.3861 H   0  0  0  0  0  0  0  0  0  0  0  0
  144.6036  134.7738  154.7159 H   0  0  0  0  0  0  0  0  0  0  0  0
  146.0625  134.0913  154.0459 H   0  0  0  0  0  0  0  0  0  0  0  0
  145.0351  136.9373  153.7975 H   0  0  0  0  0  0  0  0  0  0  0  0
  147.1820  136.4610  152.2511 H   0  0  0  0  0  0  0  0  0  0  0  0
  146.6922  136.6248  155.5787 H   0  0  0  0  0  0  0  0  0  0  0  0
  147.6612  135.5934  154.5613 H   0  0  0  0  0  0  0  0  0  0  0  0
  148.6033  138.1223  156.0655 H   0  0  0  0  0  0  0  0  0  0  0  0
  149.5753  136.9904  155.1517 H   0  0  0  0  0  0  0  0  0  0  0  0
  150.6987  139.2095  155.2671 H   0  0  0  0  0  0  0  0  0  0  0  0
  150.3542  138.7294  153.6279 H   0  0  0  0  0  0  0  0  0  0  0  0
  149.7589  141.0302  153.7901 H   0  0  0  0  0  0  0  0  0  0  0  0
  148.0558  140.4375  156.2555 H   0  0  0  0  0  0  0  0  0  0  0  0
  148.1878  141.9860  155.4317 H   0  0  0  0  0  0  0  0  0  0  0  0
  149.5920  141.2925  156.2283 H   0  0  0  0  0  0  0  0  0  0  0  0
  147.2837  140.9528  153.3038 H   0  0  0  0  0  0  0  0  0  0  0  0
  148.2455  139.8001  152.4199 H   0  0  0  0  0  0  0  0  0  0  0  0
  146.2207  138.7157  153.2444 H   0  0  0  0  0  0  0  0  0  0  0  0
  146.5558  139.1763  154.8950 H   0  0  0  0  0  0  0  0  0  0  0  0
  148.2480  137.4362  153.2497 H   0  0  0  0  0  0  0  0  0  0  0  0
  142.1050  133.7734  150.6809 H   0  0  0  0  0  0  0  0  0  0  0  0
  1  2  1  0  0  0  0
  1 22  1  0  0  0  0
  1 23  1  0  0  0  0
  1 24  1  0  0  0  0
  2 10  1  0  0  0  0
  2  3  2  0  0  0  0
  3  4  1  0  0  0  0
  3 48  1  0  0  0  0
  4  9  2  0  0  0  0
  4  5  1  0  0  0  0
  5  6  2  0  0  0  0
  5 25  1  0  0  0  0
  6  7  1  0  0  0  0
  6 26  1  0  0  0  0
  7  8  2  0  0  0  0
  7 27  1  0  0  0  0
  8  9  1  0  0  0  0
  8 28  1  0  0  0  0
  9 10  1  0  0  0  0
 10 11  1  0  0  0  0
 11 12  1  0  0  0  0
 11 29  1  0  0  0  0
 11 30  1  0  0  0  0
 12 13  1  0  0  0  0
 12 14  1  0  0  0  0
 12 31  1  0  0  0  0
 13 32  1  0  0  0  0
 14 15  1  0  0  0  0
 14 33  1  0  0  0  0
 14 34  1  0  0  0  0
 15 21  1  0  0  0  0
 15 16  1  0  0  0  0
 15 47  1  0  0  0  0
 16 17  1  0  0  0  0
 16 35  1  0  0  0  0
 16 36  1  0  0  0  0
 17 18  1  0  0  0  0
 17 37  1  0  0  0  0
 17 38  1  0  0  0  0
 18 19  1  0  0  0  0
 18 20  1  0  0  0  0
 18 39  1  0  0  0  0
 19 40  1  0  0  0  0
 19 41  1  0  0  0  0
 19 42  1  0  0  0  0
 20 21  1  0  0  0  0
 20 43  1  0  0  0  0
 20 44  1  0  0  0  0
 21 45  1  0  0  0  0
 21 46  1  0  0  0  0
M  CHG  1   3   1
M  CHG  1  15   1
M  END
> <s_m_source_file>
AV-unprocessed.smi

> <i_m_source_file_index>
1868

> <i_lp_mmshare_version>
43012

> <i_f3d_flags>
0

> <s_epik_input>
W2NIXTFbY0hdW2NIXVtjSF1jKGMxMiluKGMobjIpW0NIM10pW0NIMl1bQ0BIXShbT0hdKVtDSDJdTjNbQ0gyXVtDSDJdW0NIXShbQ0gzXSlbQ0gyXVtDSDJdMw==

> <s_epik_cmdline>
J2VwaWtfcHl0aG9uJywgJy1waCcsICc3LjAnLCAnLXRuJywgJzgnLCAnLW1hJywgJzIwMCcsICctbWV0YWxfYmluZGluZycsICctaW1hZScsICc8aW5maWxlLm1hZT4nLCAnLW9tYWUnLCAnPG91dGZpbGUubWFlPic=

> <r_epik_Ionization_Penalty>
1.10901

> <r_epik_Ionization_Penalty_Charging>
1.10901

> <r_epik_Ionization_Penalty_Neutral>
6.90208e-07

> <r_epik_State_Penalty>
1.18788

> <r_epik_Charging_Adjusted_Penalty>
2.29689

> <i_epik_Tot_Q>
2

> <i_epik_Tot_abs_Q>
2

> <r_epik_Metal_State_Penalty>
5.19353

> <b_epik_Metal_Only>
0

> <s_lp_Force_Field>
OPLS_2005

> <r_lp_Energy>
32.3741

> <b_lp_Chiralities_Consistent>
1

> <s_lp_Variant>
AV-unprocessed.smi:1868-7

> <Gold.Version>
5.8.1

> <Gold.Id.Protein>
6NUR|6NUR_protein|mol2

> <Gold.PLP.Fitness>
47.6872

> <Gold.PLP.PLP>
-34.2266

> <Gold.PLP.part.hbond>
-3.0000

> <Gold.PLP.part.metal>
0.0000

> <Gold.PLP.part.buried>
-0.4833

> <Gold.PLP.part.nonpolar>
-30.1757

> <Gold.PLP.part.repulsive>
0.0000

> <Gold.PLP.ligand.clash>
0.0000

> <Gold.PLP.ligand.torsion>
0.7156

> <Gold.PLP.Chemscore.Hbond>
4.9520

> <Gold.PLP.Chemscore.CHOScore>
0.0000

> <Gold.PLP.Chemscore.Metal>
0.0000

> <Gold.Chemscore.Hbonds>
donor molecule, donor type, donor heavy atom, donor atom, acceptor molecule, acceptor atom, score
      L1  H     3    48       P1 10186  2.00
      L1  H    13    32       P1  7948  1.00
      L1  H    15    47       P1  7948  2.00

> <Gold.PLP.Chemscore.Internal.Correction>
0.0359

> <Gold.Rescore>
     Score         DG    S(hbond)    S(metal)    S(lipo)     H(rot)  DE(clash)    DE(int)     intcor
     18.88     -21.33       2.87        0.00      97.03       1.99       1.80       0.65       ----

> <Gold.Chemscore.Fitness>
18.8821

> <Gold.Chemscore.DG>
-21.3327

> <Gold.Chemscore.ZeroCoef>
-5.4800

> <Gold.Chemscore.Hbond>
2.8698

> <Gold.Chemscore.Metal>
0.0000

> <Gold.Chemscore.Lipo>
97.0297

> <Gold.Chemscore.Internal_Hbond>
0.0000

> <Gold.Chemscore.DEClash>
1.7989

> <Gold.Chemscore.DEInternal>
0.6517

> <Gold.Chemscore.Rot>
1.9863

> <Gold.Chemscore.Internal.Correction>
   9.000000E+99

> <Gold.Chemscore.Hbonds>
donor molecule, donor type, donor heavy atom, donor atom, acceptor molecule, acceptor atom, score
      L1  H     3    48       P1 10186  0.71
      L1  H    13    32       P1  7948  1.00
      L1  H    15    47       P1  7948  0.97

> <Gold.Chemscore.Hbond.Weighted>
-9.5852

> <Gold.Chemscore.Metal.Weighted>
-0.0000

> <Gold.Chemscore.Lipo.Weighted>
-11.3525

> <Gold.Chemscore.Internal_Hbond.Weighted>
0.0000

> <Gold.Chemscore.DEClash.Weighted>
1.7989

> <Gold.Chemscore.DEInternal.Weighted>
0.6517

> <Gold.Chemscore.Rot.Weighted>
5.0850

> <Gold.Chemscore.Internal.Correction.Weighted>
   9.000000E+99

> <Gold.Protein.RotatedTorsions>
[ 6907 6896 6895 6894 ] final  173.10 input  -60.11 | X-H torsion
[ 7974 7965 7964 7962 ] final   29.96 input  175.53 | X-H torsion
[ 8008 7997 7996 7995 ] final  130.55 input   59.86 | X-H torsion
[ 10167 10162 10161 10158 ] final -107.05 input  -65.29 | X-H torsion
[ 10718 10713 10712 10709 ] final  124.79 input   66.30 | X-H torsion
[ 10763 10752 10751 10750 ] final  -88.09 input  -60.55 | X-H torsion
[ 11005 11000 10999 10996 ] final  147.76 input  -57.11 | X-H torsion

> <Gold.Protein.ActiveResidues>
 VAL166  LYS551  ARG553  GLY616  TRP617  ASP618  TYR619  PRO620  LYS621  CYS622 
 ASP623  PHE694  ASN695  SER759  ASP760  ASP761  ALA762  ILE779  LEU786  VAL792 
 PHE793  MET794  SER795  GLU796  ALA797  LYS798  CYS799  TRP800  GLU811  SER814 

> <Gold.Protein.RotatedAtoms>
  151.7738  133.3343  159.3451 H   0  0  0  0  0  0  0  0  0  0  0  0  # atno 6907 bound_to 6896
  150.7452  134.5994  159.6038 H   0  0  0  0  0  0  0  0  0  0  0  0  # atno 6908 bound_to 6896
  152.3323  134.7245  160.0337 H   0  0  0  0  0  0  0  0  0  0  0  0  # atno 6909 bound_to 6896
  146.1640  139.6852  142.9013 H   0  0  0  0  0  0  0  0  0  0  0  0  # atno 7974 bound_to 7965
  156.2956  140.2593  156.2781 H   0  0  0  0  0  0  0  0  0  0  0  0  # atno 8008 bound_to 7997
  154.9629  140.0392  157.2217 H   0  0  0  0  0  0  0  0  0  0  0  0  # atno 8009 bound_to 7997
  154.7930  140.2815  155.5982 H   0  0  0  0  0  0  0  0  0  0  0  0  # atno 8010 bound_to 7997
  140.1811  143.3966  152.1280 H   0  0  0  0  0  0  0  0  0  0  0  0  # atno 10167 bound_to 10162
  157.5556  131.1092  150.8627 H   0  0  0  0  0  0  0  0  0  0  0  0  # atno 10718 bound_to 10713
  154.6407  135.5390  153.7786 H   0  0  0  0  0  0  0  0  0  0  0  0  # atno 10763 bound_to 10752
  153.0332  135.6458  154.1163 H   0  0  0  0  0  0  0  0  0  0  0  0  # atno 10764 bound_to 10752
  154.1088  135.2928  155.3215 H   0  0  0  0  0  0  0  0  0  0  0  0  # atno 10765 bound_to 10752
  140.0903  134.9045  157.1640 H   0  0  0  0  0  0  0  0  0  0  0  0  # atno 11005 bound_to 11000
  145.4514  141.0428  143.2802 LP  0  0  0  0  0  0  0  0  0  0  0  0  # atno 17320 bound_to 7965
  144.8067  139.6038  143.7048 LP  0  0  0  0  0  0  0  0  0  0  0  0  # atno 17321 bound_to 7965
  139.5296  144.7143  151.5105 LP  0  0  0  0  0  0  0  0  0  0  0  0  # atno 17342 bound_to 10162
  140.6519  143.8679  150.6794 LP  0  0  0  0  0  0  0  0  0  0  0  0  # atno 17343 bound_to 10162
  156.9139  130.5290  149.5280 LP  0  0  0  0  0  0  0  0  0  0  0  0  # atno 17370 bound_to 10713
  156.0616  130.5667  150.9204 LP  0  0  0  0  0  0  0  0  0  0  0  0  # atno 17371 bound_to 10713
  140.3362  134.2755  155.7219 LP  0  0  0  0  0  0  0  0  0  0  0  0  # atno 17394 bound_to 11000
  141.2076  133.7802  157.0111 LP  0  0  0  0  0  0  0  0  0  0  0  0  # atno 17395 bound_to 11000

$$$$
