AV-unprocessed.smi:2124|AV-procd|sdf|8660|dock1
  -GOLD-   2272011413D 1   1.00000     0.00000
 Structure written by MMmdl.
 47 49  0  0  0  0  0  0  0  0  1 V2000
  144.0881  145.0188  153.7620 C   0  0  0  0  0  0  0  0  0  0  0  0
  144.7237  143.9534  154.6288 C   0  0  0  0  0  0  0  0  0  0  0  0
  145.6928  143.2102  153.9753 N   0  0  0  0  0  0  0  0  0  0  0  0
  146.3201  142.1996  154.6821 C   0  0  0  0  0  0  0  0  0  0  0  0
  147.3591  141.4261  153.8893 C   0  0  0  0  0  0  0  0  0  0  0  0
  146.0071  141.9514  155.9793 C   0  0  0  0  0  0  0  0  0  0  0  0
  146.6756  140.8471  156.7975 C   0  0  0  0  0  0  0  0  0  0  0  0
  148.2052  140.7970  156.7520 C   0  0  0  0  0  0  0  0  0  0  0  0
  148.7863  140.0470  155.9670 O   0  0  0  0  0  0  0  0  0  0  0  0
  148.8403  141.6175  157.6034 N   0  0  0  0  0  0  0  0  0  0  0  0
  150.2887  141.7695  157.7351 C   0  0  2  0  0  0  0  0  0  0  0  0
  150.9084  140.3714  157.8979 C   0  0  0  0  0  0  0  0  0  0  0  0
  150.6223  142.7037  158.9252 C   0  0  1  0  0  0  0  0  0  0  0  0
  152.0650  142.5302  159.4611 C   0  0  0  0  0  0  0  0  0  0  0  0
  152.6331  143.9599  159.4243 C   0  0  2  0  0  0  0  0  0  0  0  0
  151.9401  144.8184  160.4974 C   0  0  0  0  0  0  0  0  0  0  0  0
  150.5316  145.0203  159.9089 C   0  0  0  0  0  0  0  0  0  0  0  0
  150.5938  144.2194  158.5943 C   0  0  1  0  0  0  0  0  0  0  0  0
  152.0216  144.4991  158.1381 C   0  0  0  0  0  0  0  0  0  0  0  0
  144.9784  142.7954  156.6318 C   0  0  0  0  0  0  0  0  0  0  0  0
  144.6708  142.6375  157.8126 O   0  0  0  0  0  0  0  0  0  0  0  0
  144.3582  143.7952  155.8647 N   0  0  0  0  0  0  0  0  0  0  0  0
  145.9582  143.3630  153.0130 H   0  0  0  0  0  0  0  0  0  0  0  0
  143.2300  145.4687  154.2633 H   0  0  0  0  0  0  0  0  0  0  0  0
  143.7444  144.5909  152.8195 H   0  0  0  0  0  0  0  0  0  0  0  0
  144.8088  145.8070  153.5430 H   0  0  0  0  0  0  0  0  0  0  0  0
  147.0732  140.3774  153.8071 H   0  0  0  0  0  0  0  0  0  0  0  0
  148.3317  141.4822  154.3792 H   0  0  0  0  0  0  0  0  0  0  0  0
  147.4703  141.8221  152.8791 H   0  0  0  0  0  0  0  0  0  0  0  0
  146.3042  139.8826  156.4513 H   0  0  0  0  0  0  0  0  0  0  0  0
  146.3584  140.9079  157.8394 H   0  0  0  0  0  0  0  0  0  0  0  0
  148.2719  142.1964  158.2047 H   0  0  0  0  0  0  0  0  0  0  0  0
  150.7014  142.2071  156.8247 H   0  0  0  0  0  0  0  0  0  0  0  0
  151.9955  140.4168  157.9610 H   0  0  0  0  0  0  0  0  0  0  0  0
  150.6610  139.7329  157.0491 H   0  0  0  0  0  0  0  0  0  0  0  0
  150.5454  139.8784  158.8003 H   0  0  0  0  0  0  0  0  0  0  0  0
  149.9067  142.4976  159.7231 H   0  0  0  0  0  0  0  0  0  0  0  0
  152.0868  142.0993  160.4627 H   0  0  0  0  0  0  0  0  0  0  0  0
  152.6590  141.8846  158.8131 H   0  0  0  0  0  0  0  0  0  0  0  0
  153.7219  143.9986  159.4688 H   0  0  0  0  0  0  0  0  0  0  0  0
  151.9189  144.3250  161.4697 H   0  0  0  0  0  0  0  0  0  0  0  0
  152.4471  145.7766  160.6175 H   0  0  0  0  0  0  0  0  0  0  0  0
  149.7446  144.6692  160.5773 H   0  0  0  0  0  0  0  0  0  0  0  0
  150.3499  146.0770  159.7082 H   0  0  0  0  0  0  0  0  0  0  0  0
  149.8229  144.5200  157.8851 H   0  0  0  0  0  0  0  0  0  0  0  0
  152.2233  145.5590  157.9741 H   0  0  0  0  0  0  0  0  0  0  0  0
  152.3136  143.9386  157.2485 H   0  0  0  0  0  0  0  0  0  0  0  0
  1 24  1  0  0  0  0
  1 25  1  0  0  0  0
  1 26  1  0  0  0  0
  1  2  1  0  0  0  0
  2  3  1  0  0  0  0
  2 22  2  0  0  0  0
  3  4  1  0  0  0  0
  3 23  1  0  0  0  0
  4  6  2  0  0  0  0
  4  5  1  0  0  0  0
  5 27  1  0  0  0  0
  5 28  1  0  0  0  0
  5 29  1  0  0  0  0
  6 20  1  0  0  0  0
  6  7  1  0  0  0  0
  7  8  1  0  0  0  0
  7 30  1  0  0  0  0
  7 31  1  0  0  0  0
  8  9  2  0  0  0  0
  8 10  1  0  0  0  0
 10 11  1  0  0  0  0
 10 32  1  0  0  0  0
 11 12  1  0  0  0  0
 11 13  1  0  0  0  0
 11 33  1  0  0  0  0
 12 34  1  0  0  0  0
 12 35  1  0  0  0  0
 12 36  1  0  0  0  0
 13 18  1  0  0  0  0
 13 14  1  0  0  0  0
 13 37  1  0  0  0  0
 14 15  1  0  0  0  0
 14 38  1  0  0  0  0
 14 39  1  0  0  0  0
 15 19  1  0  0  0  0
 15 16  1  0  0  0  0
 15 40  1  0  0  0  0
 16 17  1  0  0  0  0
 16 41  1  0  0  0  0
 16 42  1  0  0  0  0
 17 18  1  0  0  0  0
 17 43  1  0  0  0  0
 17 44  1  0  0  0  0
 18 19  1  0  0  0  0
 18 45  1  0  0  0  0
 19 46  1  0  0  0  0
 19 47  1  0  0  0  0
 20 21  2  0  0  0  0
 20 22  1  0  0  0  0
M  END
> <s_m_source_file>
AV-unprocessed.smi

> <i_m_source_file_index>
2124

> <i_lp_mmshare_version>
43012

> <i_f3d_flags>
0

> <s_epik_input>
W0NIM11jMW5jKFtDSDNdKWMoYyg9TylbbkhdMSlbQ0gyXUMoPU8pW05IXVtDQEhdKFtDSDNdKVtDQEhdKFtDSDJdW0NASF0yMylbQ0BIXShbQ0gyXTMpW0NIMl1bQ0gyXTI=

> <s_epik_cmdline>
J2VwaWtfcHl0aG9uJywgJy1waCcsICc3LjAnLCAnLXRuJywgJzgnLCAnLW1hJywgJzIwMCcsICctbWV0YWxfYmluZGluZycsICctaW1hZScsICc8aW5maWxlLm1hZT4nLCAnLW9tYWUnLCAnPG91dGZpbGUubWFlPic=

> <r_lp_tautomer_probability>
0.156392

> <r_epik_Ionization_Penalty>
0.0139374

> <r_epik_Ionization_Penalty_Charging>
0.0138122

> <r_epik_Ionization_Penalty_Neutral>
0.000125146

> <r_epik_State_Penalty>
1.15342

> <r_epik_Charging_Adjusted_Penalty>
1.16723

> <i_epik_Tot_Q>
0

> <i_epik_Tot_abs_Q>
0

> <r_epik_Metal_State_Penalty>
1.3173

> <b_epik_Metal_Only>
0

> <s_lp_Force_Field>
OPLS_2005

> <r_lp_Energy>
56.0933

> <b_lp_Chiralities_Consistent>
1

> <s_lp_Variant>
AV-unprocessed.smi:2124-11

> <Gold.Version>
5.8.1

> <Gold.Id.Protein>
6NUR|6NUR_protein|mol2

> <Gold.PLP.Fitness>
42.3227

> <Gold.PLP.PLP>
-44.2821

> <Gold.PLP.part.hbond>
0.0000

> <Gold.PLP.part.metal>
0.0000

> <Gold.PLP.part.buried>
-8.7912

> <Gold.PLP.part.nonpolar>
-36.7266

> <Gold.PLP.part.repulsive>
0.4070

> <Gold.PLP.ligand.clash>
0.0000

> <Gold.PLP.ligand.torsion>
0.9887

> <Gold.PLP.Chemscore.Hbond>
0.0000

> <Gold.PLP.Chemscore.CHOScore>
0.0000

> <Gold.PLP.Chemscore.Metal>
0.0000

> <Gold.PLP.Chemscore.Internal.Correction>
0.0180

> <Gold.Rescore>
     Score         DG    S(hbond)    S(metal)    S(lipo)     H(rot)  DE(clash)    DE(int)     intcor
     12.27     -14.43       0.00        0.00     112.69       1.65       0.10       2.06       ----

> <Gold.Chemscore.Fitness>
12.2726

> <Gold.Chemscore.DG>
-14.4322

> <Gold.Chemscore.ZeroCoef>
-5.4800

> <Gold.Chemscore.Hbond>
0.0000

> <Gold.Chemscore.Metal>
0.0000

> <Gold.Chemscore.Lipo>
112.6905

> <Gold.Chemscore.Internal_Hbond>
0.0000

> <Gold.Chemscore.DEClash>
0.0971

> <Gold.Chemscore.DEInternal>
2.0625

> <Gold.Chemscore.Rot>
1.6534

> <Gold.Chemscore.Internal.Correction>
   9.000000E+99

> <Gold.Chemscore.Hbond.Weighted>
-0.0000

> <Gold.Chemscore.Metal.Weighted>
-0.0000

> <Gold.Chemscore.Lipo.Weighted>
-13.1848

> <Gold.Chemscore.Internal_Hbond.Weighted>
0.0000

> <Gold.Chemscore.DEClash.Weighted>
0.0971

> <Gold.Chemscore.DEInternal.Weighted>
2.0625

> <Gold.Chemscore.Rot.Weighted>
4.2326

> <Gold.Chemscore.Internal.Correction.Weighted>
   9.000000E+99

> <Gold.Protein.RotatedTorsions>
[ 6907 6896 6895 6894 ] final -153.08 input  -60.11 | X-H torsion
[ 7974 7965 7964 7962 ] final  -48.60 input  175.53 | X-H torsion
[ 8008 7997 7996 7995 ] final   59.73 input   59.86 | X-H torsion
[ 10167 10162 10161 10158 ] final  163.81 input  -65.29 | X-H torsion
[ 10718 10713 10712 10709 ] final  116.08 input   66.30 | X-H torsion
[ 10763 10752 10751 10750 ] final   75.43 input  -60.55 | X-H torsion
[ 11005 11000 10999 10996 ] final  176.87 input  -57.11 | X-H torsion

> <Gold.Protein.ActiveResidues>
 VAL166  LYS551  ARG553  GLY616  TRP617  ASP618  TYR619  PRO620  LYS621  CYS622 
 ASP623  PHE694  ASN695  SER759  ASP760  ASP761  ALA762  ILE779  LEU786  VAL792 
 PHE793  MET794  SER795  GLU796  ALA797  LYS798  CYS799  TRP800  GLU811  SER814 

> <Gold.Protein.RotatedAtoms>
  151.2372  133.4418  159.2605 H   0  0  0  0  0  0  0  0  0  0  0  0  # atno 6907 bound_to 6896
  151.0739  134.9816  159.8332 H   0  0  0  0  0  0  0  0  0  0  0  0  # atno 6908 bound_to 6896
  152.5416  134.2316  159.8880 H   0  0  0  0  0  0  0  0  0  0  0  0  # atno 6909 bound_to 6896
  145.9494  140.7586  142.9512 H   0  0  0  0  0  0  0  0  0  0  0  0  # atno 7974 bound_to 7965
  155.5710  140.3490  155.4515 H   0  0  0  0  0  0  0  0  0  0  0  0  # atno 8008 bound_to 7997
  156.0444  140.1303  157.0145 H   0  0  0  0  0  0  0  0  0  0  0  0  # atno 8009 bound_to 7997
  154.4406  140.1017  156.6270 H   0  0  0  0  0  0  0  0  0  0  0  0  # atno 8010 bound_to 7997
  139.4879  144.4299  151.9083 H   0  0  0  0  0  0  0  0  0  0  0  0  # atno 10167 bound_to 10162
  157.6182  131.1021  150.7422 H   0  0  0  0  0  0  0  0  0  0  0  0  # atno 10718 bound_to 10713
  153.0654  135.4989  154.8188 H   0  0  0  0  0  0  0  0  0  0  0  0  # atno 10763 bound_to 10752
  154.6945  135.2990  154.9433 H   0  0  0  0  0  0  0  0  0  0  0  0  # atno 10764 bound_to 10752
  154.0177  135.6746  153.4823 H   0  0  0  0  0  0  0  0  0  0  0  0  # atno 10765 bound_to 10752
  140.3778  134.6973  157.4432 H   0  0  0  0  0  0  0  0  0  0  0  0  # atno 11005 bound_to 11000
  144.6793  140.2410  143.7343 LP  0  0  0  0  0  0  0  0  0  0  0  0  # atno 17320 bound_to 7965
  145.8191  139.2036  143.1948 LP  0  0  0  0  0  0  0  0  0  0  0  0  # atno 17321 bound_to 7965
  140.3746  144.2812  150.5915 LP  0  0  0  0  0  0  0  0  0  0  0  0  # atno 17342 bound_to 10162
  140.5288  143.2248  151.8272 LP  0  0  0  0  0  0  0  0  0  0  0  0  # atno 17343 bound_to 10162
  156.7785  130.4851  149.5405 LP  0  0  0  0  0  0  0  0  0  0  0  0  # atno 17370 bound_to 10713
  156.1315  130.6181  151.0340 LP  0  0  0  0  0  0  0  0  0  0  0  0  # atno 17371 bound_to 10713
  140.0501  134.6142  155.8872 LP  0  0  0  0  0  0  0  0  0  0  0  0  # atno 17394 bound_to 11000
  141.1933  133.6578  156.5543 LP  0  0  0  0  0  0  0  0  0  0  0  0  # atno 17395 bound_to 11000

$$$$
