AV-unprocessed.smi:2078|AV-procd|sdf|8473|dock9
  -GOLD-   2272011173D 1   1.00000     0.00000
 Structure written by MMmdl.
 41 42  0  0  0  0  0  0  0  0  3 V2000
  147.4702  133.9039  156.4738 C   0  0  0  0  0  0  0  0  0  0  0  0
  148.4743  135.0015  156.5626 C   0  0  0  0  0  0  0  0  0  0  0  0
  148.6296  136.1755  155.8807 C   0  0  0  0  0  0  0  0  0  0  0  0
  149.7909  136.7392  156.4725 C   0  0  0  0  0  0  0  0  0  0  0  0
  150.2850  137.9989  156.0431 N   0  0  0  0  0  0  0  0  0  0  0  0
  151.5262  138.4999  156.1730 C   0  0  0  0  0  0  0  0  0  0  0  0
  152.4410  137.7938  156.6141 O   0  0  0  0  0  0  0  0  0  0  0  0
  151.6052  139.8024  155.7827 N   0  5  0  0  0  0  0  0  0  0  0  0
  150.5052  140.7696  155.8555 C   0  0  0  0  0  0  0  0  0  0  0  0
  150.2307  141.1696  157.3223 C   0  0  0  0  0  0  0  0  0  0  0  0
  151.4101  141.8132  157.9625 N   0  3  1  0  0  0  0  0  0  0  0  0
  151.9078  143.0165  157.2443 C   0  0  0  0  0  0  0  0  0  0  0  0
  153.2430  143.4910  157.8373 C   0  0  0  0  0  0  0  0  0  0  0  0
  153.1121  143.7584  159.3441 C   0  0  0  0  0  0  0  0  0  0  0  0
  152.5313  142.5380  160.0836 C   0  0  2  0  0  0  0  0  0  0  0  0
  153.5491  141.3932  160.2348 C   0  0  0  0  0  0  0  0  0  0  0  0
  151.2218  142.0710  159.4139 C   0  0  0  0  0  0  0  0  0  0  0  0
  150.2940  135.9807  157.4353 N   0  0  0  0  0  0  0  0  0  0  0  0
  149.4539  134.8625  157.4966 O   0  0  0  0  0  0  0  0  0  0  0  0
  146.6401  134.0856  157.1563 H   0  0  0  0  0  0  0  0  0  0  0  0
  147.9173  132.9435  156.7317 H   0  0  0  0  0  0  0  0  0  0  0  0
  147.0676  133.8277  155.4636 H   0  0  0  0  0  0  0  0  0  0  0  0
  148.0116  136.5661  155.0861 H   0  0  0  0  0  0  0  0  0  0  0  0
  149.6045  138.6134  155.6212 H   0  0  0  0  0  0  0  0  0  0  0  0
  150.6999  141.6684  155.2688 H   0  0  0  0  0  0  0  0  0  0  0  0
  149.5916  140.3477  155.4375 H   0  0  0  0  0  0  0  0  0  0  0  0
  149.3684  141.8353  157.3780 H   0  0  0  0  0  0  0  0  0  0  0  0
  149.9434  140.2720  157.8720 H   0  0  0  0  0  0  0  0  0  0  0  0
  152.0470  142.7904  156.1866 H   0  0  0  0  0  0  0  0  0  0  0  0
  151.1634  143.8119  157.3033 H   0  0  0  0  0  0  0  0  0  0  0  0
  154.0121  142.7392  157.6557 H   0  0  0  0  0  0  0  0  0  0  0  0
  153.5749  144.3958  157.3276 H   0  0  0  0  0  0  0  0  0  0  0  0
  154.0784  144.0384  159.7647 H   0  0  0  0  0  0  0  0  0  0  0  0
  152.4539  144.6150  159.4958 H   0  0  0  0  0  0  0  0  0  0  0  0
  152.2819  142.8595  161.0955 H   0  0  0  0  0  0  0  0  0  0  0  0
  153.8687  141.0006  159.2704 H   0  0  0  0  0  0  0  0  0  0  0  0
  153.1251  140.5635  160.8009 H   0  0  0  0  0  0  0  0  0  0  0  0
  154.4404  141.7295  160.7648 H   0  0  0  0  0  0  0  0  0  0  0  0
  150.4445  142.8255  159.5427 H   0  0  0  0  0  0  0  0  0  0  0  0
  150.8658  141.1659  159.9082 H   0  0  0  0  0  0  0  0  0  0  0  0
  152.1430  141.1189  157.9033 H   0  0  0  0  0  0  0  0  0  0  0  0
  1  2  1  0  0  0  0
  1 20  1  0  0  0  0
  1 21  1  0  0  0  0
  1 22  1  0  0  0  0
  2 19  1  0  0  0  0
  2  3  2  0  0  0  0
  3  4  1  0  0  0  0
  3 23  1  0  0  0  0
  4  5  1  0  0  0  0
  4 18  2  0  0  0  0
  5  6  1  0  0  0  0
  5 24  1  0  0  0  0
  6  7  2  0  0  0  0
  6  8  1  0  0  0  0
  8  9  1  0  0  0  0
  9 10  1  0  0  0  0
  9 25  1  0  0  0  0
  9 26  1  0  0  0  0
 10 11  1  0  0  0  0
 10 27  1  0  0  0  0
 10 28  1  0  0  0  0
 11 17  1  0  0  0  0
 11 12  1  0  0  0  0
 11 41  1  0  0  0  0
 12 13  1  0  0  0  0
 12 29  1  0  0  0  0
 12 30  1  0  0  0  0
 13 14  1  0  0  0  0
 13 31  1  0  0  0  0
 13 32  1  0  0  0  0
 14 15  1  0  0  0  0
 14 33  1  0  0  0  0
 14 34  1  0  0  0  0
 15 16  1  0  0  0  0
 15 17  1  0  0  0  0
 15 35  1  0  0  0  0
 16 36  1  0  0  0  0
 16 37  1  0  0  0  0
 16 38  1  0  0  0  0
 17 39  1  0  0  0  0
 17 40  1  0  0  0  0
 18 19  1  0  0  0  0
M  CHG  1   8  -1
M  CHG  1  11   1
M  END
> <s_m_source_file>
AV-unprocessed.smi

> <i_m_source_file_index>
2078

> <i_lp_mmshare_version>
43012

> <i_f3d_flags>
0

> <s_epik_input>
W0NIM11jMVtjSF1jKG5vMSlbTkhdQyg9TylbTkhdW0NIMl1bQ0gyXU4yW0NIMl1bQ0gyXVtDSDJdW0NAQEhdKFtDSDNdKVtDSDJdMg==

> <s_epik_cmdline>
J2VwaWtfcHl0aG9uJywgJy1waCcsICc3LjAnLCAnLXRuJywgJzgnLCAnLW1hJywgJzIwMCcsICctbWV0YWxfYmluZGluZycsICctaW1hZScsICc8aW5maWxlLm1hZT4nLCAnLW9tYWUnLCAnPG91dGZpbGUubWFlPic=

> <r_epik_Ionization_Penalty>
6.76934

> <r_epik_Ionization_Penalty_Charging>
6.76934

> <r_epik_Ionization_Penalty_Neutral>
5.77849e-06

> <r_epik_State_Penalty>
6.79457

> <r_epik_Charging_Adjusted_Penalty>
13.5639

> <i_epik_Tot_Q>
0

> <i_epik_Tot_abs_Q>
2

> <r_epik_Metal_State_Penalty>
2.72837

> <b_epik_Metal_Only>
1

> <s_lp_Force_Field>
OPLS_2005

> <r_lp_Energy>
11.5184

> <b_lp_Chiralities_Consistent>
1

> <s_lp_Variant>
AV-unprocessed.smi:2078-11

> <Gold.Version>
5.8.1

> <Gold.Id.Protein>
6NUR|6NUR_protein|mol2

> <Gold.PLP.Fitness>
42.1765

> <Gold.PLP.PLP>
-37.9169

> <Gold.PLP.part.hbond>
-4.0000

> <Gold.PLP.part.metal>
0.0000

> <Gold.PLP.part.buried>
-1.8382

> <Gold.PLP.part.nonpolar>
-32.5411

> <Gold.PLP.part.repulsive>
0.1663

> <Gold.PLP.ligand.clash>
0.0000

> <Gold.PLP.ligand.torsion>
0.3710

> <Gold.PLP.Chemscore.Hbond>
1.6320

> <Gold.PLP.Chemscore.CHOScore>
0.0000

> <Gold.PLP.Chemscore.Metal>
0.0000

> <Gold.PLP.Chemscore.Internal.Correction>
0.1056

> <Gold.Rescore>
     Score         DG    S(hbond)    S(metal)    S(lipo)     H(rot)  DE(clash)    DE(int)     intcor
     13.79     -15.84       1.00        0.00      93.84       1.54       0.36       1.69       ----

> <Gold.Chemscore.Fitness>
13.7859

> <Gold.Chemscore.DG>
-15.8423

> <Gold.Chemscore.ZeroCoef>
-5.4800

> <Gold.Chemscore.Hbond>
0.9965

> <Gold.Chemscore.Metal>
0.0000

> <Gold.Chemscore.Lipo>
93.8353

> <Gold.Chemscore.Internal_Hbond>
0.0000

> <Gold.Chemscore.DEClash>
0.3649

> <Gold.Chemscore.DEInternal>
1.6915

> <Gold.Chemscore.Rot>
1.5409

> <Gold.Chemscore.Internal.Correction>
   9.000000E+99

> <Gold.Chemscore.Hbond.Weighted>
-3.3282

> <Gold.Chemscore.Metal.Weighted>
-0.0000

> <Gold.Chemscore.Lipo.Weighted>
-10.9787

> <Gold.Chemscore.Internal_Hbond.Weighted>
0.0000

> <Gold.Chemscore.DEClash.Weighted>
0.3649

> <Gold.Chemscore.DEInternal.Weighted>
1.6915

> <Gold.Chemscore.Rot.Weighted>
3.9446

> <Gold.Chemscore.Internal.Correction.Weighted>
   9.000000E+99

> <Gold.Protein.RotatedTorsions>
[ 6907 6896 6895 6894 ] final   53.96 input  -60.11 | X-H torsion
[ 7974 7965 7964 7962 ] final  102.45 input  175.53 | X-H torsion
[ 8008 7997 7996 7995 ] final -167.27 input   59.86 | X-H torsion
[ 10167 10162 10161 10158 ] final  -69.91 input  -65.29 | X-H torsion
[ 10718 10713 10712 10709 ] final   -2.08 input   66.30 | X-H torsion
[ 10763 10752 10751 10750 ] final  149.99 input  -60.55 | X-H torsion
[ 11005 11000 10999 10996 ] final -115.07 input  -57.11 | X-H torsion

> <Gold.Protein.ActiveResidues>
 VAL166  LYS551  ARG553  GLY616  TRP617  ASP618  TYR619  PRO620  LYS621  CYS622 
 ASP623  PHE694  ASN695  SER759  ASP760  ASP761  ALA762  ILE779  LEU786  VAL792 
 PHE793  MET794  SER795  GLU796  ALA797  LYS798  CYS799  TRP800  GLU811  SER814 

> <Gold.Protein.RotatedAtoms>
  152.3390  134.7159  160.0268 H   0  0  0  0  0  0  0  0  0  0  0  0  # atno 6907 bound_to 6896
  151.7550  133.3324  159.3410 H   0  0  0  0  0  0  0  0  0  0  0  0  # atno 6908 bound_to 6896
  150.7468  134.6090  159.6120 H   0  0  0  0  0  0  0  0  0  0  0  0  # atno 6909 bound_to 6896
  145.3589  139.2422  143.3517 H   0  0  0  0  0  0  0  0  0  0  0  0  # atno 7974 bound_to 7965
  155.8753  140.1000  157.1522 H   0  0  0  0  0  0  0  0  0  0  0  0  # atno 8008 bound_to 7997
  154.4000  140.1339  156.4192 H   0  0  0  0  0  0  0  0  0  0  0  0  # atno 8009 bound_to 7997
  155.7704  140.3461  155.5246 H   0  0  0  0  0  0  0  0  0  0  0  0  # atno 8010 bound_to 7997
  140.5394  143.2316  151.7117 H   0  0  0  0  0  0  0  0  0  0  0  0  # atno 10167 bound_to 10162
  156.7961  130.5377  149.5728 H   0  0  0  0  0  0  0  0  0  0  0  0  # atno 10718 bound_to 10713
  154.0801  135.2860  155.3292 H   0  0  0  0  0  0  0  0  0  0  0  0  # atno 10763 bound_to 10752
  154.6689  135.5307  153.8116 H   0  0  0  0  0  0  0  0  0  0  0  0  # atno 10764 bound_to 10752
  153.0452  135.6552  154.0977 H   0  0  0  0  0  0  0  0  0  0  0  0  # atno 10765 bound_to 10752
  141.0511  133.9686  157.2834 H   0  0  0  0  0  0  0  0  0  0  0  0  # atno 11005 bound_to 11000
  146.2936  140.4219  142.8730 LP  0  0  0  0  0  0  0  0  0  0  0  0  # atno 17320 bound_to 7965
  144.8661  140.7208  143.6076 LP  0  0  0  0  0  0  0  0  0  0  0  0  # atno 17321 bound_to 7965
  139.4983  144.3992  152.0199 LP  0  0  0  0  0  0  0  0  0  0  0  0  # atno 17342 bound_to 10162
  140.3100  144.3549  150.6036 LP  0  0  0  0  0  0  0  0  0  0  0  0  # atno 17343 bound_to 10162
  156.1130  130.6054  151.0076 LP  0  0  0  0  0  0  0  0  0  0  0  0  # atno 17370 bound_to 10713
  157.6577  131.0886  150.7910 LP  0  0  0  0  0  0  0  0  0  0  0  0  # atno 17371 bound_to 10713
  139.9351  135.0197  156.8529 LP  0  0  0  0  0  0  0  0  0  0  0  0  # atno 17394 bound_to 11000
  140.6053  134.0133  155.7554 LP  0  0  0  0  0  0  0  0  0  0  0  0  # atno 17395 bound_to 11000

$$$$
