AV-unprocessed.smi:1394|AV-procd|sdf|5666|dock1
  -GOLD-   22720 5283D 1   1.00000     0.00000
 Structure written by MMmdl.
 41 42  0  0  0  0  0  0  0  0  1 V2000
  148.1489  139.7551  153.8369 C   0  0  0  0  0  0  0  0  0  0  0  0
  149.5378  140.0518  154.4275 C   0  0  1  0  0  0  0  0  0  0  0  0
  149.4328  140.6837  155.8309 C   0  0  0  0  0  0  0  0  0  0  0  0
  150.8169  141.0435  156.3939 C   0  0  0  0  0  0  0  0  0  0  0  0
  151.7453  139.8203  156.4170 C   0  0  0  0  0  0  0  0  0  0  0  0
  151.8578  139.1796  155.0228 C   0  0  0  0  0  0  0  0  0  0  0  0
  150.4797  138.8196  154.4309 C   0  0  1  0  0  0  0  0  0  0  0  0
  149.9067  137.6895  155.1657 N   0  0  0  0  0  0  0  0  0  0  0  0
  150.5636  136.5893  155.5648 C   0  0  0  0  0  0  0  0  0  0  0  0
  151.7553  136.3879  155.3257 O   0  0  0  0  0  0  0  0  0  0  0  0
  149.7272  135.5576  156.3359 C   0  0  0  0  0  0  0  0  0  0  0  0
  149.6898  134.2323  155.6931 N   0  0  0  0  0  0  0  0  0  0  0  0
  149.0587  134.1520  154.4390 C   0  0  0  0  0  0  0  0  0  0  0  0
  148.9760  132.9981  153.7632 C   0  0  0  0  0  0  0  0  0  0  0  0
  149.5601  131.8187  154.3535 C   0  0  0  0  0  0  0  0  0  0  0  0
  150.1754  131.8648  155.5579 C   0  0  0  0  0  0  0  0  0  0  0  0
  150.8082  130.6282  156.1919 C   0  0  0  0  0  0  0  0  0  0  0  0
  152.1175  130.8093  156.3707 F   0  0  0  0  0  0  0  0  0  0  0  0
  150.2561  130.3769  157.3795 F   0  0  0  0  0  0  0  0  0  0  0  0
  150.6478  129.5448  155.4301 F   0  0  0  0  0  0  0  0  0  0  0  0
  150.2558  133.1414  156.2971 C   0  0  0  0  0  0  0  0  0  0  0  0
  150.8014  133.2328  157.3982 O   0  0  0  0  0  0  0  0  0  0  0  0
  147.5801  139.0696  154.4654 H   0  0  0  0  0  0  0  0  0  0  0  0
  148.2316  139.3097  152.8452 H   0  0  0  0  0  0  0  0  0  0  0  0
  147.5644  140.6701  153.7382 H   0  0  0  0  0  0  0  0  0  0  0  0
  149.9966  140.7971  153.7758 H   0  0  0  0  0  0  0  0  0  0  0  0
  148.8148  141.5812  155.7885 H   0  0  0  0  0  0  0  0  0  0  0  0
  148.9286  139.9968  156.5119 H   0  0  0  0  0  0  0  0  0  0  0  0
  151.2650  141.8304  155.7857 H   0  0  0  0  0  0  0  0  0  0  0  0
  150.7146  141.4516  157.3999 H   0  0  0  0  0  0  0  0  0  0  0  0
  152.7343  140.1122  156.7707 H   0  0  0  0  0  0  0  0  0  0  0  0
  151.3682  139.0879  157.1319 H   0  0  0  0  0  0  0  0  0  0  0  0
  152.3628  139.8761  154.3524 H   0  0  0  0  0  0  0  0  0  0  0  0
  152.4919  138.2932  155.0695 H   0  0  0  0  0  0  0  0  0  0  0  0
  150.6477  138.5205  153.3948 H   0  0  0  0  0  0  0  0  0  0  0  0
  148.9269  137.7591  155.3994 H   0  0  0  0  0  0  0  0  0  0  0  0
  150.1143  135.4716  157.3530 H   0  0  0  0  0  0  0  0  0  0  0  0
  148.7183  135.9567  156.4501 H   0  0  0  0  0  0  0  0  0  0  0  0
  148.6556  135.0814  154.0636 H   0  0  0  0  0  0  0  0  0  0  0  0
  148.4898  132.9535  152.7996 H   0  0  0  0  0  0  0  0  0  0  0  0
  149.4999  130.8891  153.8078 H   0  0  0  0  0  0  0  0  0  0  0  0
  1  2  1  0  0  0  0
  1 23  1  0  0  0  0
  1 24  1  0  0  0  0
  1 25  1  0  0  0  0
  2  7  1  0  0  0  0
  2  3  1  0  0  0  0
  2 26  1  0  0  0  0
  3  4  1  0  0  0  0
  3 27  1  0  0  0  0
  3 28  1  0  0  0  0
  4  5  1  0  0  0  0
  4 29  1  0  0  0  0
  4 30  1  0  0  0  0
  5  6  1  0  0  0  0
  5 31  1  0  0  0  0
  5 32  1  0  0  0  0
  6  7  1  0  0  0  0
  6 33  1  0  0  0  0
  6 34  1  0  0  0  0
  7  8  1  0  0  0  0
  7 35  1  0  0  0  0
  8  9  1  0  0  0  0
  8 36  1  0  0  0  0
  9 10  2  0  0  0  0
  9 11  1  0  0  0  0
 11 12  1  0  0  0  0
 11 37  1  0  0  0  0
 11 38  1  0  0  0  0
 12 21  1  0  0  0  0
 12 13  1  0  0  0  0
 13 14  2  0  0  0  0
 13 39  1  0  0  0  0
 14 15  1  0  0  0  0
 14 40  1  0  0  0  0
 15 16  2  0  0  0  0
 15 41  1  0  0  0  0
 16 17  1  0  0  0  0
 16 21  1  0  0  0  0
 17 18  1  0  0  0  0
 17 19  1  0  0  0  0
 17 20  1  0  0  0  0
 21 22  2  0  0  0  0
M  END
> <s_m_source_file>
AV-unprocessed.smi

> <i_m_source_file_index>
1394

> <i_lp_mmshare_version>
43012

> <i_f3d_flags>
0

> <s_epik_input>
W0NIM11bQ0BASF0xW0NIMl1bQ0gyXVtDSDJdW0NIMl1bQ0BIXTFbTkhdQyg9TylbQ0gyXW4yW2NIXVtjSF1bY0hdYyhDKEYpKEYpRiljMj1P

> <s_epik_cmdline>
J2VwaWtfcHl0aG9uJywgJy1waCcsICc3LjAnLCAnLXRuJywgJzgnLCAnLW1hJywgJzIwMCcsICctbWV0YWxfYmluZGluZycsICctaW1hZScsICc8aW5maWxlLm1hZT4nLCAnLW9tYWUnLCAnPG91dGZpbGUubWFlPic=

> <r_lp_tautomer_probability>
1

> <r_epik_Ionization_Penalty>
2.11487e-08

> <r_epik_Ionization_Penalty_Charging>
2.10183e-09

> <r_epik_Ionization_Penalty_Neutral>
1.90469e-08

> <r_epik_State_Penalty>
-0

> <r_epik_Charging_Adjusted_Penalty>
2.10183e-09

> <i_epik_Tot_Q>
0

> <i_epik_Tot_abs_Q>
0

> <r_epik_Metal_State_Penalty>
-0

> <b_epik_Metal_Only>
0

> <s_lp_Force_Field>
OPLS_2005

> <r_lp_Energy>
19.806

> <b_lp_Chiralities_Consistent>
1

> <s_lp_Variant>
AV-unprocessed.smi:1394-2

> <Gold.Version>
5.8.1

> <Gold.Id.Protein>
6NUR|6NUR_protein|mol2

> <Gold.PLP.Fitness>
46.7582

> <Gold.PLP.PLP>
-38.5881

> <Gold.PLP.part.hbond>
-2.0000

> <Gold.PLP.part.metal>
0.0000

> <Gold.PLP.part.buried>
-1.5395

> <Gold.PLP.part.nonpolar>
-36.0889

> <Gold.PLP.part.repulsive>
0.1135

> <Gold.PLP.ligand.clash>
0.3279

> <Gold.PLP.ligand.torsion>
0.2312

> <Gold.PLP.Chemscore.Hbond>
1.9120

> <Gold.PLP.Chemscore.CHOScore>
0.9575

> <Gold.PLP.Chemscore.Metal>
0.0000

> <Gold.Chemscore.Hbonds>
donor molecule, donor type, donor heavy atom, donor atom, acceptor molecule, acceptor atom, score
      P1  H  6896  6907       L1    22  0.91
      P1  H 10752 10764       L1    10  1.00
      L1  C    13    39       P1  7948  1.00

> <Gold.PLP.Chemscore.Internal.Correction>
0.3518

> <Gold.Rescore>
     Score         DG    S(hbond)    S(metal)    S(lipo)     H(rot)  DE(clash)    DE(int)     intcor
     12.95     -17.06       1.96        0.00      76.30       1.52       0.12       3.98       ----

> <Gold.Chemscore.Fitness>
12.9528

> <Gold.Chemscore.DG>
-17.0562

> <Gold.Chemscore.ZeroCoef>
-5.4800

> <Gold.Chemscore.Hbond>
1.9615

> <Gold.Chemscore.Metal>
0.0000

> <Gold.Chemscore.Lipo>
76.2967

> <Gold.Chemscore.Internal_Hbond>
0.0000

> <Gold.Chemscore.DEClash>
0.1215

> <Gold.Chemscore.DEInternal>
3.9818

> <Gold.Chemscore.Rot>
1.5242

> <Gold.Chemscore.Internal.Correction>
   9.000000E+99

> <Gold.Chemscore.Hbonds>
donor molecule, donor type, donor heavy atom, donor atom, acceptor molecule, acceptor atom, score
      P1  H  6896  6907       L1    22  0.90
      P1  H 10752 10764       L1    10  0.98

> <Gold.Chemscore.Hbond.Weighted>
-6.5514

> <Gold.Chemscore.Metal.Weighted>
-0.0000

> <Gold.Chemscore.Lipo.Weighted>
-8.9267

> <Gold.Chemscore.Internal_Hbond.Weighted>
0.0000

> <Gold.Chemscore.DEClash.Weighted>
0.1215

> <Gold.Chemscore.DEInternal.Weighted>
3.9818

> <Gold.Chemscore.Rot.Weighted>
3.9019

> <Gold.Chemscore.Internal.Correction.Weighted>
   9.000000E+99

> <Gold.Protein.RotatedTorsions>
[ 6907 6896 6895 6894 ] final -149.02 input  -60.11 | X-H torsion
[ 7974 7965 7964 7962 ] final   32.29 input  175.53 | X-H torsion
[ 8008 7997 7996 7995 ] final   27.84 input   59.86 | X-H torsion
[ 10167 10162 10161 10158 ] final  -83.02 input  -65.29 | X-H torsion
[ 10718 10713 10712 10709 ] final  139.42 input   66.30 | X-H torsion
[ 10763 10752 10751 10750 ] final  -55.62 input  -60.55 | X-H torsion
[ 11005 11000 10999 10996 ] final  -89.52 input  -57.11 | X-H torsion

> <Gold.Protein.ActiveResidues>
 VAL166  LYS551  ARG553  GLY616  TRP617  ASP618  TYR619  PRO620  LYS621  CYS622 
 ASP623  PHE694  ASN695  SER759  ASP760  ASP761  ALA762  ILE779  LEU786  VAL792 
 PHE793  MET794  SER795  GLU796  ALA797  LYS798  CYS799  TRP800  GLU811  SER814 

> <Gold.Protein.RotatedAtoms>
  151.1782  133.4741  159.2593 H   0  0  0  0  0  0  0  0  0  0  0  0  # atno 6907 bound_to 6896
  151.1286  135.0118  159.8582 H   0  0  0  0  0  0  0  0  0  0  0  0  # atno 6908 bound_to 6896
  152.5459  134.1687  159.8641 H   0  0  0  0  0  0  0  0  0  0  0  0  # atno 6909 bound_to 6896
  146.1496  139.6546  142.9108 H   0  0  0  0  0  0  0  0  0  0  0  0  # atno 7974 bound_to 7965
  155.0493  140.3178  155.4697 H   0  0  0  0  0  0  0  0  0  0  0  0  # atno 8008 bound_to 7997
  156.2838  140.2149  156.5562 H   0  0  0  0  0  0  0  0  0  0  0  0  # atno 8009 bound_to 7997
  154.7224  140.0488  157.0639 H   0  0  0  0  0  0  0  0  0  0  0  0  # atno 8010 bound_to 7997
  140.4266  143.2564  151.8818 H   0  0  0  0  0  0  0  0  0  0  0  0  # atno 10167 bound_to 10162
  157.4145  131.1032  151.0419 H   0  0  0  0  0  0  0  0  0  0  0  0  # atno 10718 bound_to 10713
  154.1937  135.6423  153.5067 H   0  0  0  0  0  0  0  0  0  0  0  0  # atno 10763 bound_to 10752
  153.0028  135.5435  154.6388 H   0  0  0  0  0  0  0  0  0  0  0  0  # atno 10764 bound_to 10752
  154.5783  135.2923  155.0731 H   0  0  0  0  0  0  0  0  0  0  0  0  # atno 10765 bound_to 10752
  141.1583  133.7635  156.9607 H   0  0  0  0  0  0  0  0  0  0  0  0  # atno 11005 bound_to 11000
  145.4855  141.0438  143.2622 LP  0  0  0  0  0  0  0  0  0  0  0  0  # atno 17320 bound_to 7965
  144.7888  139.6372  143.7122 LP  0  0  0  0  0  0  0  0  0  0  0  0  # atno 17321 bound_to 7965
  139.4783  144.5380  151.8569 LP  0  0  0  0  0  0  0  0  0  0  0  0  # atno 17342 bound_to 10162
  140.4475  144.1902  150.5895 LP  0  0  0  0  0  0  0  0  0  0  0  0  # atno 17343 bound_to 10162
  157.1371  130.6127  149.5545 LP  0  0  0  0  0  0  0  0  0  0  0  0  # atno 17370 bound_to 10713
  155.9861  130.4894  150.7062 LP  0  0  0  0  0  0  0  0  0  0  0  0  # atno 17371 bound_to 10713
  140.1195  134.9426  157.2183 LP  0  0  0  0  0  0  0  0  0  0  0  0  # atno 17394 bound_to 11000
  140.3090  134.3045  155.7271 LP  0  0  0  0  0  0  0  0  0  0  0  0  # atno 17395 bound_to 11000

$$$$
