AV-unprocessed.smi:2004|AV-procd|sdf|8124|dock3
  -GOLD-   2272010363D 1   1.00000     0.00000
 Structure written by MMmdl.
 40 42  0  0  0  0  0  0  0  0  2 V2000
  153.1289  139.4366  155.3447 O   0  0  0  0  0  0  0  0  0  0  0  0
  152.0495  140.2583  155.7442 C   0  0  1  0  0  0  0  0  0  0  0  0
  150.7395  139.4907  155.5119 C   0  0  0  0  0  0  0  0  0  0  0  0
  150.1807  139.9011  154.2749 O   0  0  0  0  0  0  0  0  0  0  0  0
  148.8600  139.4215  154.0820 C   0  0  0  0  0  0  0  0  0  0  0  0
  147.8235  140.4494  154.4923 C   0  0  0  0  0  0  0  0  0  0  0  0
  147.6687  140.7938  155.8518 C   0  0  0  0  0  0  0  0  0  0  0  0
  146.6959  141.7367  156.2375 C   0  0  0  0  0  0  0  0  0  0  0  0
  145.8708  142.3355  155.2659 C   0  0  0  0  0  0  0  0  0  0  0  0
  146.0175  141.9894  153.9088 C   0  0  0  0  0  0  0  0  0  0  0  0
  146.9898  141.0461  153.5226 C   0  0  0  0  0  0  0  0  0  0  0  0
  152.2384  140.6415  157.2254 C   0  0  0  0  0  0  0  0  0  0  0  0
  151.6366  141.9390  157.5592 N   0  0  0  0  0  0  0  0  0  0  0  0
  150.7909  142.7233  156.8375 C   0  0  0  0  0  0  0  0  0  0  0  0
  150.5121  143.8257  157.5874 N   0  3  0  0  0  0  0  0  0  0  0  0
  151.1898  143.7440  158.8060 C   0  0  0  0  0  0  0  0  0  0  0  0
  151.2226  144.6131  159.8925 C   0  0  0  0  0  0  0  0  0  0  0  0
  152.0200  144.2252  160.9896 C   0  0  0  0  0  0  0  0  0  0  0  0
  152.7458  143.0161  160.9798 C   0  0  0  0  0  0  0  0  0  0  0  0
  152.7058  142.1428  159.8730 C   0  0  0  0  0  0  0  0  0  0  0  0
  151.9149  142.5339  158.7935 C   0  0  0  0  0  0  0  0  0  0  0  0
  152.7796  138.6984  154.8685 H   0  0  0  0  0  0  0  0  0  0  0  0
  152.0526  141.1634  155.1359 H   0  0  0  0  0  0  0  0  0  0  0  0
  150.9034  138.4120  155.5396 H   0  0  0  0  0  0  0  0  0  0  0  0
  150.0279  139.7303  156.3038 H   0  0  0  0  0  0  0  0  0  0  0  0
  148.7166  139.1536  153.0339 H   0  0  0  0  0  0  0  0  0  0  0  0
  148.7010  138.5186  154.6732 H   0  0  0  0  0  0  0  0  0  0  0  0
  148.2960  140.3355  156.6023 H   0  0  0  0  0  0  0  0  0  0  0  0
  146.5817  141.9997  157.2789 H   0  0  0  0  0  0  0  0  0  0  0  0
  145.1244  143.0580  155.5616 H   0  0  0  0  0  0  0  0  0  0  0  0
  145.3834  142.4465  153.1637 H   0  0  0  0  0  0  0  0  0  0  0  0
  147.0929  140.7845  152.4795 H   0  0  0  0  0  0  0  0  0  0  0  0
  151.8105  139.8852  157.8847 H   0  0  0  0  0  0  0  0  0  0  0  0
  153.3002  140.7005  157.4695 H   0  0  0  0  0  0  0  0  0  0  0  0
  150.4064  142.5065  155.8512 H   0  0  0  0  0  0  0  0  0  0  0  0
  150.6673  145.5395  159.9031 H   0  0  0  0  0  0  0  0  0  0  0  0
  152.0763  144.8679  161.8564 H   0  0  0  0  0  0  0  0  0  0  0  0
  153.3453  142.7526  161.8391 H   0  0  0  0  0  0  0  0  0  0  0  0
  153.2630  141.2177  159.8743 H   0  0  0  0  0  0  0  0  0  0  0  0
  149.9016  144.5749  157.2875 H   0  0  0  0  0  0  0  0  0  0  0  0
  1  2  1  0  0  0  0
  1 22  1  0  0  0  0
  2  3  1  0  0  0  0
  2 12  1  0  0  0  0
  2 23  1  0  0  0  0
  3  4  1  0  0  0  0
  3 24  1  0  0  0  0
  3 25  1  0  0  0  0
  4  5  1  0  0  0  0
  5  6  1  0  0  0  0
  5 26  1  0  0  0  0
  5 27  1  0  0  0  0
  6 11  1  0  0  0  0
  6  7  2  0  0  0  0
  7  8  1  0  0  0  0
  7 28  1  0  0  0  0
  8  9  2  0  0  0  0
  8 29  1  0  0  0  0
  9 10  1  0  0  0  0
  9 30  1  0  0  0  0
 10 11  2  0  0  0  0
 10 31  1  0  0  0  0
 11 32  1  0  0  0  0
 12 13  1  0  0  0  0
 12 33  1  0  0  0  0
 12 34  1  0  0  0  0
 13 21  1  0  0  0  0
 13 14  1  0  0  0  0
 14 15  2  0  0  0  0
 14 35  1  0  0  0  0
 15 16  1  0  0  0  0
 15 40  1  0  0  0  0
 16 21  2  0  0  0  0
 16 17  1  0  0  0  0
 17 18  2  0  0  0  0
 17 36  1  0  0  0  0
 18 19  1  0  0  0  0
 18 37  1  0  0  0  0
 19 20  2  0  0  0  0
 19 38  1  0  0  0  0
 20 21  1  0  0  0  0
 20 39  1  0  0  0  0
M  CHG  1  15   1
M  END
> <s_m_source_file>
AV-unprocessed.smi

> <i_m_source_file_index>
2004

> <i_lp_mmshare_version>
43012

> <i_f3d_flags>
0

> <s_epik_input>
W2NIXTFbY0hdW2NIXVtjSF1jKGMxMiluKFtjSF1uMilbQ0gyXVtDQEhdKFtPSF0pW0NIMl1PW0NIMl1jM1tjSF1bY0hdW2NIXVtjSF1bY0hdMw==

> <s_epik_cmdline>
J2VwaWtfcHl0aG9uJywgJy1waCcsICc3LjAnLCAnLXRuJywgJzgnLCAnLW1hJywgJzIwMCcsICctbWV0YWxfYmluZGluZycsICctaW1hZScsICc8aW5maWxlLm1hZT4nLCAnLW9tYWUnLCAnPG91dGZpbGUubWFlPic=

> <r_epik_Ionization_Penalty>
1.28975

> <r_epik_Ionization_Penalty_Charging>
1.28975

> <r_epik_Ionization_Penalty_Neutral>
1.07667e-06

> <r_epik_State_Penalty>
1.36276

> <r_epik_Charging_Adjusted_Penalty>
2.65251

> <i_epik_Tot_Q>
1

> <i_epik_Tot_abs_Q>
1

> <r_epik_Metal_State_Penalty>
5.39298

> <b_epik_Metal_Only>
0

> <s_lp_Force_Field>
OPLS_2005

> <r_lp_Energy>
18.9764

> <b_lp_Chiralities_Consistent>
1

> <s_lp_Variant>
AV-unprocessed.smi:2004-4

> <Gold.Version>
5.8.1

> <Gold.Id.Protein>
6NUR|6NUR_protein|mol2

> <Gold.PLP.Fitness>
55.0456

> <Gold.PLP.PLP>
-47.7100

> <Gold.PLP.part.hbond>
-3.0000

> <Gold.PLP.part.metal>
0.0000

> <Gold.PLP.part.buried>
-5.9065

> <Gold.PLP.part.nonpolar>
-38.2066

> <Gold.PLP.part.repulsive>
0.1255

> <Gold.PLP.ligand.clash>
0.0000

> <Gold.PLP.ligand.torsion>
1.3129

> <Gold.PLP.Chemscore.Hbond>
3.1102

> <Gold.PLP.Chemscore.CHOScore>
0.1808

> <Gold.PLP.Chemscore.Metal>
0.0000

> <Gold.Chemscore.Hbonds>
donor molecule, donor type, donor heavy atom, donor atom, acceptor molecule, acceptor atom, score
      L1  H    15    40       P1  8028  1.16
      P1  H  7989  7998       L1     4  1.00
      P1  H  7997  8009       L1     1  1.00
      L1  C    14    35       P1  8028  0.19

> <Gold.PLP.Chemscore.Internal.Correction>
0.0882

> <Gold.Rescore>
     Score         DG    S(hbond)    S(metal)    S(lipo)     H(rot)  DE(clash)    DE(int)     intcor
     16.89     -18.40       1.39        0.00     123.78       2.43       0.26       1.25       ----

> <Gold.Chemscore.Fitness>
16.8899

> <Gold.Chemscore.DG>
-18.3979

> <Gold.Chemscore.ZeroCoef>
-5.4800

> <Gold.Chemscore.Hbond>
1.3918

> <Gold.Chemscore.Metal>
0.0000

> <Gold.Chemscore.Lipo>
123.7786

> <Gold.Chemscore.Internal_Hbond>
0.0000

> <Gold.Chemscore.DEClash>
0.2558

> <Gold.Chemscore.DEInternal>
1.2521

> <Gold.Chemscore.Rot>
2.4269

> <Gold.Chemscore.Internal.Correction>
   9.000000E+99

> <Gold.Chemscore.Hbonds>
donor molecule, donor type, donor heavy atom, donor atom, acceptor molecule, acceptor atom, score
      L1  H    15    40       P1  8028  0.13
      P1  H  7989  7998       L1     4  0.39
      P1  H  7997  8009       L1     1  0.50

> <Gold.Chemscore.Hbond.Weighted>
-4.6485

> <Gold.Chemscore.Metal.Weighted>
-0.0000

> <Gold.Chemscore.Lipo.Weighted>
-14.4821

> <Gold.Chemscore.Internal_Hbond.Weighted>
0.0000

> <Gold.Chemscore.DEClash.Weighted>
0.2558

> <Gold.Chemscore.DEInternal.Weighted>
1.2521

> <Gold.Chemscore.Rot.Weighted>
6.2127

> <Gold.Chemscore.Internal.Correction.Weighted>
   9.000000E+99

> <Gold.Protein.RotatedTorsions>
[ 6907 6896 6895 6894 ] final  112.85 input  -60.11 | X-H torsion
[ 7974 7965 7964 7962 ] final -178.05 input  175.53 | X-H torsion
[ 8008 7997 7996 7995 ] final -135.05 input   59.86 | X-H torsion
[ 10167 10162 10161 10158 ] final -131.52 input  -65.29 | X-H torsion
[ 10718 10713 10712 10709 ] final  100.15 input   66.30 | X-H torsion
[ 10763 10752 10751 10750 ] final  100.43 input  -60.55 | X-H torsion
[ 11005 11000 10999 10996 ] final   81.51 input  -57.11 | X-H torsion

> <Gold.Protein.ActiveResidues>
 VAL166  LYS551  ARG553  GLY616  TRP617  ASP618  TYR619  PRO620  LYS621  CYS622 
 ASP623  PHE694  ASN695  SER759  ASP760  ASP761  ALA762  ILE779  LEU786  VAL792 
 PHE793  MET794  SER795  GLU796  ALA797  LYS798  CYS799  TRP800  GLU811  SER814 

> <Gold.Protein.RotatedAtoms>
  152.4894  133.8458  159.7176 H   0  0  0  0  0  0  0  0  0  0  0  0  # atno 6907 bound_to 6896
  150.9009  133.7110  159.2886 H   0  0  0  0  0  0  0  0  0  0  0  0  # atno 6908 bound_to 6896
  151.4552  135.1037  159.9761 H   0  0  0  0  0  0  0  0  0  0  0  0  # atno 6909 bound_to 6896
  144.7129  140.0927  143.6420 H   0  0  0  0  0  0  0  0  0  0  0  0  # atno 7974 bound_to 7965
  155.3723  140.0489  157.3045 H   0  0  0  0  0  0  0  0  0  0  0  0  # atno 8008 bound_to 7997
  154.5124  140.2196  155.9094 H   0  0  0  0  0  0  0  0  0  0  0  0  # atno 8009 bound_to 7997
  156.1597  140.3119  155.8792 H   0  0  0  0  0  0  0  0  0  0  0  0  # atno 8010 bound_to 7997
  139.9181  143.6415  152.2560 H   0  0  0  0  0  0  0  0  0  0  0  0  # atno 10167 bound_to 10162
  157.6860  131.0690  150.5056 H   0  0  0  0  0  0  0  0  0  0  0  0  # atno 10718 bound_to 10713
  153.3139  135.4079  155.1359 H   0  0  0  0  0  0  0  0  0  0  0  0  # atno 10763 bound_to 10752
  154.8583  135.3571  154.5687 H   0  0  0  0  0  0  0  0  0  0  0  0  # atno 10764 bound_to 10752
  153.6117  135.7067  153.5403 H   0  0  0  0  0  0  0  0  0  0  0  0  # atno 10765 bound_to 10752
  139.9095  134.8002  156.2051 H   0  0  0  0  0  0  0  0  0  0  0  0  # atno 11005 bound_to 11000
  145.9606  139.2798  143.1157 LP  0  0  0  0  0  0  0  0  0  0  0  0  # atno 17320 bound_to 7965
  145.9224  140.9106  143.0398 LP  0  0  0  0  0  0  0  0  0  0  0  0  # atno 17321 bound_to 7965
  139.6885  144.7649  151.1481 LP  0  0  0  0  0  0  0  0  0  0  0  0  # atno 17342 bound_to 10162
  140.7669  143.5623  150.9086 LP  0  0  0  0  0  0  0  0  0  0  0  0  # atno 17343 bound_to 10162
  156.5376  130.4200  149.6170 LP  0  0  0  0  0  0  0  0  0  0  0  0  # atno 17370 bound_to 10713
  156.3014  130.7179  151.2051 LP  0  0  0  0  0  0  0  0  0  0  0  0  # atno 17371 bound_to 10713
  141.0500  133.6893  156.1754 LP  0  0  0  0  0  0  0  0  0  0  0  0  # atno 17394 bound_to 11000
  140.6825  134.4752  157.5589 LP  0  0  0  0  0  0  0  0  0  0  0  0  # atno 17395 bound_to 11000

$$$$
