AV-unprocessed.smi:1802|AV-procd|sdf|7274|dock1
  -GOLD-   22720 8533D 1   1.00000     0.00000
 Structure written by MMmdl.
 41 42  0  0  0  0  0  0  0  0  2 V2000
  146.4042  131.1350  152.2905 C   0  0  0  0  0  0  0  0  0  0  0  0
  145.8270  131.9860  151.1506 C   0  0  1  0  0  0  0  0  0  0  0  0
  144.3932  131.5551  150.7987 C   0  0  0  0  0  0  0  0  0  0  0  0
  143.8321  132.4389  149.6778 C   0  0  0  0  0  0  0  0  0  0  0  0
  143.9194  133.9263  150.0545 C   0  0  0  0  0  0  0  0  0  0  0  0
  145.3165  134.3127  150.3805 N   0  3  1  0  0  0  0  0  0  0  0  0
  145.4589  135.7729  150.6086 C   0  0  0  0  0  0  0  0  0  0  0  0
  145.1069  136.1758  152.0506 C   0  0  0  0  0  0  0  0  0  0  0  0
  145.3677  137.6675  152.3185 C   0  0  0  0  0  0  0  0  0  0  0  0
  146.7835  137.9359  152.5451 N   0  0  0  0  0  0  0  0  0  0  0  0
  147.2607  138.8386  153.4147 C   0  0  0  0  0  0  0  0  0  0  0  0
  146.5384  139.5559  154.1077 O   0  0  0  0  0  0  0  0  0  0  0  0
  148.6053  138.8485  153.4222 N   0  0  0  0  0  0  0  0  0  0  0  0
  149.4738  139.6547  154.2054 C   0  0  0  0  0  0  0  0  0  0  0  0
  150.7721  139.3757  154.4021 N   0  0  0  0  0  0  0  0  0  0  0  0
  151.3917  140.3245  155.2053 N   0  0  0  0  0  0  0  0  0  0  0  0
  150.5378  141.2800  155.5829 C   0  0  0  0  0  0  0  0  0  0  0  0
  148.8922  141.1134  154.9949 S   0  0  0  0  0  0  0  0  0  0  0  0
  145.8649  133.4895  151.4916 C   0  0  0  0  0  0  0  0  0  0  0  0
  145.8238  131.2509  153.2065 H   0  0  0  0  0  0  0  0  0  0  0  0
  147.4339  131.4188  152.5101 H   0  0  0  0  0  0  0  0  0  0  0  0
  146.4048  130.0767  152.0282 H   0  0  0  0  0  0  0  0  0  0  0  0
  146.4536  131.8246  150.2721 H   0  0  0  0  0  0  0  0  0  0  0  0
  144.3770  130.5095  150.4895 H   0  0  0  0  0  0  0  0  0  0  0  0
  143.7536  131.6298  151.6793 H   0  0  0  0  0  0  0  0  0  0  0  0
  144.3875  132.2607  148.7560 H   0  0  0  0  0  0  0  0  0  0  0  0
  142.7966  132.1661  149.4722 H   0  0  0  0  0  0  0  0  0  0  0  0
  143.5540  134.5258  149.2197 H   0  0  0  0  0  0  0  0  0  0  0  0
  143.2722  134.1391  150.9071 H   0  0  0  0  0  0  0  0  0  0  0  0
  146.4946  136.0632  150.4258 H   0  0  0  0  0  0  0  0  0  0  0  0
  144.8539  136.3264  149.8888 H   0  0  0  0  0  0  0  0  0  0  0  0
  144.0609  135.9569  152.2644 H   0  0  0  0  0  0  0  0  0  0  0  0
  145.6962  135.5713  152.7416 H   0  0  0  0  0  0  0  0  0  0  0  0
  145.0046  138.2757  151.4881 H   0  0  0  0  0  0  0  0  0  0  0  0
  144.8152  137.9889  153.2016 H   0  0  0  0  0  0  0  0  0  0  0  0
  147.4441  137.3872  152.0140 H   0  0  0  0  0  0  0  0  0  0  0  0
  149.0629  138.1986  152.8001 H   0  0  0  0  0  0  0  0  0  0  0  0
  150.8799  142.0883  156.2122 H   0  0  0  0  0  0  0  0  0  0  0  0
  145.2958  133.6843  152.4025 H   0  0  0  0  0  0  0  0  0  0  0  0
  146.8947  133.7798  151.6978 H   0  0  0  0  0  0  0  0  0  0  0  0
  145.8627  134.0997  149.5579 H   0  0  0  0  0  0  0  0  0  0  0  0
  1  2  1  0  0  0  0
  1 20  1  0  0  0  0
  1 21  1  0  0  0  0
  1 22  1  0  0  0  0
  2 19  1  0  0  0  0
  2  3  1  0  0  0  0
  2 23  1  0  0  0  0
  3  4  1  0  0  0  0
  3 24  1  0  0  0  0
  3 25  1  0  0  0  0
  4  5  1  0  0  0  0
  4 26  1  0  0  0  0
  4 27  1  0  0  0  0
  5  6  1  0  0  0  0
  5 28  1  0  0  0  0
  5 29  1  0  0  0  0
  6  7  1  0  0  0  0
  6 19  1  0  0  0  0
  6 41  1  0  0  0  0
  7  8  1  0  0  0  0
  7 30  1  0  0  0  0
  7 31  1  0  0  0  0
  8  9  1  0  0  0  0
  8 32  1  0  0  0  0
  8 33  1  0  0  0  0
  9 10  1  0  0  0  0
  9 34  1  0  0  0  0
  9 35  1  0  0  0  0
 10 11  1  0  0  0  0
 10 36  1  0  0  0  0
 11 12  2  0  0  0  0
 11 13  1  0  0  0  0
 13 14  1  0  0  0  0
 13 37  1  0  0  0  0
 14 18  1  0  0  0  0
 14 15  2  0  0  0  0
 15 16  1  0  0  0  0
 16 17  2  0  0  0  0
 17 18  1  0  0  0  0
 17 38  1  0  0  0  0
 19 39  1  0  0  0  0
 19 40  1  0  0  0  0
M  CHG  1   6   1
M  END
> <s_m_source_file>
AV-unprocessed.smi

> <i_m_source_file_index>
1802

> <i_lp_mmshare_version>
43012

> <i_f3d_flags>
0

> <s_epik_input>
W0NIM11bQ0BASF0xW0NIMl1bQ0gyXVtDSDJdTihbQ0gyXTEpW0NIMl1bQ0gyXVtDSDJdW05IXUMoPU8pW05IXWMybm5bY0hdczI=

> <s_epik_cmdline>
J2VwaWtfcHl0aG9uJywgJy1waCcsICc3LjAnLCAnLXRuJywgJzgnLCAnLW1hJywgJzIwMCcsICctbWV0YWxfYmluZGluZycsICctaW1hZScsICc8aW5maWxlLm1hZT4nLCAnLW9tYWUnLCAnPG91dGZpbGUubWFlPic=

> <r_lp_tautomer_probability>
1

> <r_epik_Ionization_Penalty>
0.00272894

> <r_epik_Ionization_Penalty_Charging>
0.000288442

> <r_epik_Ionization_Penalty_Neutral>
0.0024405

> <r_epik_State_Penalty>
-0

> <r_epik_Charging_Adjusted_Penalty>
0.000288442

> <i_epik_Tot_Q>
1

> <i_epik_Tot_abs_Q>
1

> <r_epik_Metal_State_Penalty>
0.350525

> <b_epik_Metal_Only>
0

> <s_lp_Force_Field>
OPLS_2005

> <r_lp_Energy>
15.2014

> <b_lp_Chiralities_Consistent>
1

> <s_lp_Variant>
AV-unprocessed.smi:1802-4

> <Gold.Version>
5.8.1

> <Gold.Id.Protein>
6NUR|6NUR_protein|mol2

> <Gold.PLP.Fitness>
43.1235

> <Gold.PLP.PLP>
-36.4114

> <Gold.PLP.part.hbond>
-6.0000

> <Gold.PLP.part.metal>
0.0000

> <Gold.PLP.part.buried>
-2.2343

> <Gold.PLP.part.nonpolar>
-28.3640

> <Gold.PLP.part.repulsive>
0.4687

> <Gold.PLP.ligand.clash>
0.0000

> <Gold.PLP.ligand.torsion>
0.5262

> <Gold.PLP.Chemscore.Hbond>
2.5605

> <Gold.PLP.Chemscore.CHOScore>
0.0000

> <Gold.PLP.Chemscore.Metal>
0.0000

> <Gold.Chemscore.Hbonds>
donor molecule, donor type, donor heavy atom, donor atom, acceptor molecule, acceptor atom, score
      L1  H     6    41       P1  7921  0.73
      L1  H    10    36       P1  7948  1.00
      L1  H    13    37       P1  7948  0.66

> <Gold.PLP.Chemscore.Internal.Correction>
0.0829

> <Gold.Rescore>
     Score         DG    S(hbond)    S(metal)    S(lipo)     H(rot)  DE(clash)    DE(int)     intcor
     15.94     -18.48       2.41        0.00      85.48       1.98       0.84       1.70       ----

> <Gold.Chemscore.Fitness>
15.9386

> <Gold.Chemscore.DG>
-18.4778

> <Gold.Chemscore.ZeroCoef>
-5.4800

> <Gold.Chemscore.Hbond>
2.4144

> <Gold.Chemscore.Metal>
0.0000

> <Gold.Chemscore.Lipo>
85.4756

> <Gold.Chemscore.Internal_Hbond>
0.0000

> <Gold.Chemscore.DEClash>
0.8365

> <Gold.Chemscore.DEInternal>
1.7028

> <Gold.Chemscore.Rot>
1.9793

> <Gold.Chemscore.Internal.Correction>
   9.000000E+99

> <Gold.Chemscore.Hbonds>
donor molecule, donor type, donor heavy atom, donor atom, acceptor molecule, acceptor atom, score
      L1  H     6    41       P1  7921  0.28
      L1  H    10    36       P1  7948  0.97
      L1  H    13    37       P1  7948  0.64

> <Gold.Chemscore.Hbond.Weighted>
-8.0642

> <Gold.Chemscore.Metal.Weighted>
-0.0000

> <Gold.Chemscore.Lipo.Weighted>
-10.0006

> <Gold.Chemscore.Internal_Hbond.Weighted>
0.0000

> <Gold.Chemscore.DEClash.Weighted>
0.8365

> <Gold.Chemscore.DEInternal.Weighted>
1.7028

> <Gold.Chemscore.Rot.Weighted>
5.0670

> <Gold.Chemscore.Internal.Correction.Weighted>
   9.000000E+99

> <Gold.Protein.RotatedTorsions>
[ 6907 6896 6895 6894 ] final   -4.39 input  -60.11 | X-H torsion
[ 7974 7965 7964 7962 ] final   60.50 input  175.53 | X-H torsion
[ 8008 7997 7996 7995 ] final  -89.68 input   59.86 | X-H torsion
[ 10167 10162 10161 10158 ] final  -25.44 input  -65.29 | X-H torsion
[ 10718 10713 10712 10709 ] final  -84.58 input   66.30 | X-H torsion
[ 10763 10752 10751 10750 ] final  172.28 input  -60.55 | X-H torsion
[ 11005 11000 10999 10996 ] final  -29.74 input  -57.11 | X-H torsion

> <Gold.Protein.ActiveResidues>
 VAL166  LYS551  ARG553  GLY616  TRP617  ASP618  TYR619  PRO620  LYS621  CYS622 
 ASP623  PHE694  ASN695  SER759  ASP760  ASP761  ALA762  ILE779  LEU786  VAL792 
 PHE793  MET794  SER795  GLU796  ALA797  LYS798  CYS799  TRP800  GLU811  SER814 

> <Gold.Protein.RotatedAtoms>
  151.4984  135.1060  159.9821 H   0  0  0  0  0  0  0  0  0  0  0  0  # atno 6907 bound_to 6896
  152.4712  133.8030  159.6973 H   0  0  0  0  0  0  0  0  0  0  0  0  # atno 6908 bound_to 6896
  150.8722  133.7426  159.2983 H   0  0  0  0  0  0  0  0  0  0  0  0  # atno 6909 bound_to 6896
  145.8953  139.3541  143.0625 H   0  0  0  0  0  0  0  0  0  0  0  0  # atno 7974 bound_to 7965
  154.6894  140.0539  157.0348 H   0  0  0  0  0  0  0  0  0  0  0  0  # atno 8008 bound_to 7997
  155.0838  140.3212  155.4575 H   0  0  0  0  0  0  0  0  0  0  0  0  # atno 8009 bound_to 7997
  156.2723  140.2060  156.5966 H   0  0  0  0  0  0  0  0  0  0  0  0  # atno 8010 bound_to 7997
  140.7286  143.4265  151.0869 H   0  0  0  0  0  0  0  0  0  0  0  0  # atno 10167 bound_to 10162
  156.0005  130.4702  150.4431 H   0  0  0  0  0  0  0  0  0  0  0  0  # atno 10718 bound_to 10713
  154.4239  135.2758  155.1957 H   0  0  0  0  0  0  0  0  0  0  0  0  # atno 10763 bound_to 10752
  154.3892  135.6070  153.5837 H   0  0  0  0  0  0  0  0  0  0  0  0  # atno 10764 bound_to 10752
  152.9834  135.5899  154.4539 H   0  0  0  0  0  0  0  0  0  0  0  0  # atno 10765 bound_to 10752
  140.9322  133.7331  156.0953 H   0  0  0  0  0  0  0  0  0  0  0  0  # atno 11005 bound_to 11000
  145.8858  140.9334  143.0577 LP  0  0  0  0  0  0  0  0  0  0  0  0  # atno 17320 bound_to 7965
  144.6732  140.0840  143.7468 LP  0  0  0  0  0  0  0  0  0  0  0  0  # atno 17321 bound_to 7965
  139.7917  143.8209  152.3152 LP  0  0  0  0  0  0  0  0  0  0  0  0  # atno 17342 bound_to 10162
  139.8195  144.7301  150.9591 LP  0  0  0  0  0  0  0  0  0  0  0  0  # atno 17343 bound_to 10162
  157.2471  131.0538  151.2402 LP  0  0  0  0  0  0  0  0  0  0  0  0  # atno 17370 bound_to 10713
  157.3565  130.7109  149.6474 LP  0  0  0  0  0  0  0  0  0  0  0  0  # atno 17371 bound_to 10713
  140.7846  134.3686  157.5479 LP  0  0  0  0  0  0  0  0  0  0  0  0  # atno 17394 bound_to 11000
  139.8799  134.9103  156.3011 LP  0  0  0  0  0  0  0  0  0  0  0  0  # atno 17395 bound_to 11000

$$$$
