AV-unprocessed.smi:3295|AV-procd|sdf|12635|dock4
  -GOLD-   2272018573D 1   1.00000     0.00000
 Structure written by MMmdl.
 37 38  0  0  0  0  0  0  0  0  1 V2000
  147.5644  132.9702  152.3150 C   0  0  0  0  0  0  0  0  0  0  0  0
  146.2328  132.9714  151.5845 C   0  0  0  0  0  0  0  0  0  0  0  0
  145.5936  131.7488  151.2863 C   0  0  0  0  0  0  0  0  0  0  0  0
  144.4099  131.6621  150.6457 N   0  0  0  0  0  0  0  0  0  0  0  0
  143.8091  132.8122  150.2782 C   0  0  0  0  0  0  0  0  0  0  0  0
  144.3564  134.0865  150.5240 C   0  0  0  0  0  0  0  0  0  0  0  0
  145.6067  134.1770  151.1830 C   0  0  0  0  0  0  0  0  0  0  0  0
  146.2415  135.4131  151.4960 N   0  0  0  0  0  0  0  0  0  0  0  0
  145.6862  136.5797  151.8684 C   0  0  0  0  0  0  0  0  0  0  0  0
  144.4810  136.7849  152.0094 O   0  0  0  0  0  0  0  0  0  0  0  0
  146.6235  137.5195  152.0550 N   0  0  0  0  0  0  0  0  0  0  0  0
  146.3681  138.8936  152.4789 C   0  0  0  0  0  0  0  0  0  0  0  0
  147.4177  139.4250  153.4891 C   0  0  0  0  0  0  0  0  0  0  0  0
  148.6541  138.7920  153.2226 O   0  0  0  0  0  0  0  0  0  0  0  0
  147.5672  140.9548  153.5194 C   0  0  0  0  0  0  0  0  0  0  0  0
  146.4240  141.4420  154.4151 C   0  0  0  0  0  0  0  0  0  0  0  0
  146.1135  140.2813  155.3732 C   0  0  0  0  0  0  0  0  0  0  0  0
  147.0019  139.1086  154.9330 C   0  0  0  0  0  0  0  0  0  0  0  0
  147.8972  131.9545  152.5305 H   0  0  0  0  0  0  0  0  0  0  0  0
  147.4803  133.5050  153.2613 H   0  0  0  0  0  0  0  0  0  0  0  0
  148.3311  133.4550  151.7100 H   0  0  0  0  0  0  0  0  0  0  0  0
  146.0434  130.8088  151.5708 H   0  0  0  0  0  0  0  0  0  0  0  0
  142.8574  132.7147  149.7772 H   0  0  0  0  0  0  0  0  0  0  0  0
  143.8027  134.9594  150.2154 H   0  0  0  0  0  0  0  0  0  0  0  0
  147.2407  135.4283  151.3548 H   0  0  0  0  0  0  0  0  0  0  0  0
  147.5888  137.2638  151.9092 H   0  0  0  0  0  0  0  0  0  0  0  0
  146.3952  139.4979  151.5718 H   0  0  0  0  0  0  0  0  0  0  0  0
  145.3567  139.0052  152.8744 H   0  0  0  0  0  0  0  0  0  0  0  0
  149.1630  139.3511  152.6560 H   0  0  0  0  0  0  0  0  0  0  0  0
  148.5148  141.2203  153.9912 H   0  0  0  0  0  0  0  0  0  0  0  0
  147.5634  141.4258  152.5364 H   0  0  0  0  0  0  0  0  0  0  0  0
  146.6881  142.3565  154.9470 H   0  0  0  0  0  0  0  0  0  0  0  0
  145.5451  141.6601  153.8074 H   0  0  0  0  0  0  0  0  0  0  0  0
  146.3091  140.5513  156.4115 H   0  0  0  0  0  0  0  0  0  0  0  0
  145.0595  140.0110  155.3008 H   0  0  0  0  0  0  0  0  0  0  0  0
  146.5030  138.1436  155.0313 H   0  0  0  0  0  0  0  0  0  0  0  0
  147.8820  139.0813  155.5779 H   0  0  0  0  0  0  0  0  0  0  0  0
  1  2  1  0  0  0  0
  1 19  1  0  0  0  0
  1 20  1  0  0  0  0
  1 21  1  0  0  0  0
  2  7  1  0  0  0  0
  2  3  2  0  0  0  0
  3  4  1  0  0  0  0
  3 22  1  0  0  0  0
  4  5  2  0  0  0  0
  5  6  1  0  0  0  0
  5 23  1  0  0  0  0
  6  7  2  0  0  0  0
  6 24  1  0  0  0  0
  7  8  1  0  0  0  0
  8  9  1  0  0  0  0
  8 25  1  0  0  0  0
  9 10  2  0  0  0  0
  9 11  1  0  0  0  0
 11 12  1  0  0  0  0
 11 26  1  0  0  0  0
 12 13  1  0  0  0  0
 12 27  1  0  0  0  0
 12 28  1  0  0  0  0
 13 18  1  0  0  0  0
 13 14  1  0  0  0  0
 13 15  1  0  0  0  0
 14 29  1  0  0  0  0
 15 16  1  0  0  0  0
 15 30  1  0  0  0  0
 15 31  1  0  0  0  0
 16 17  1  0  0  0  0
 16 32  1  0  0  0  0
 16 33  1  0  0  0  0
 17 18  1  0  0  0  0
 17 34  1  0  0  0  0
 17 35  1  0  0  0  0
 18 36  1  0  0  0  0
 18 37  1  0  0  0  0
M  END
> <s_m_source_file>
AV-unprocessed.smi

> <i_m_source_file_index>
3295

> <i_lp_mmshare_version>
43012

> <i_f3d_flags>
0

> <s_epik_input>
W0NIM11jMVtjSF1uW2NIXVtjSF1jMVtOSF1DKD1PKVtOSF1bQ0gyXUMyKFtPSF0pW0NIMl1bQ0gyXVtDSDJdW0NIMl0y

> <s_epik_cmdline>
J2VwaWtfcHl0aG9uJywgJy1waCcsICc3LjAnLCAnLXRuJywgJzgnLCAnLW1hJywgJzIwMCcsICctbWV0YWxfYmluZGluZycsICctaW1hZScsICc8aW5maWxlLm1hZT4nLCAnLW9tYWUnLCAnPG91dGZpbGUubWFlPic=

> <r_epik_Ionization_Penalty>
0.224243

> <r_epik_Ionization_Penalty_Charging>
0

> <r_epik_Ionization_Penalty_Neutral>
0.224243

> <r_epik_State_Penalty>
0.214648

> <r_epik_Charging_Adjusted_Penalty>
0.214648

> <i_epik_Tot_Q>
0

> <i_epik_Tot_abs_Q>
0

> <r_epik_Metal_State_Penalty>
0.155078

> <b_epik_Metal_Only>
0

> <s_lp_Force_Field>
OPLS_2005

> <r_lp_Energy>
30.8814

> <b_lp_Chiralities_Consistent>
1

> <s_lp_Variant>
AV-unprocessed.smi:3295-1

> <Gold.Version>
5.8.1

> <Gold.Id.Protein>
6NUR|6NUR_protein|mol2

> <Gold.PLP.Fitness>
41.2561

> <Gold.PLP.PLP>
-31.1928

> <Gold.PLP.part.hbond>
-4.0000

> <Gold.PLP.part.metal>
0.0000

> <Gold.PLP.part.buried>
-5.0074

> <Gold.PLP.part.nonpolar>
-24.8109

> <Gold.PLP.part.repulsive>
1.9576

> <Gold.PLP.ligand.clash>
0.0000

> <Gold.PLP.ligand.torsion>
0.9050

> <Gold.PLP.Chemscore.Hbond>
2.9760

> <Gold.PLP.Chemscore.CHOScore>
0.9786

> <Gold.PLP.Chemscore.Metal>
0.0000

> <Gold.Chemscore.Hbonds>
donor molecule, donor type, donor heavy atom, donor atom, acceptor molecule, acceptor atom, score
      L1  H     8    25       P1  7948  0.98
      L1  H    11    26       P1  7948  1.00
      L1  H    14    29       P1  7957  1.00
      L1  C     5    23       P1 10186  0.98

> <Gold.PLP.Chemscore.Internal.Correction>
0.0097

> <Gold.Rescore>
     Score         DG    S(hbond)    S(metal)    S(lipo)     H(rot)  DE(clash)    DE(int)     intcor
     17.38     -18.81       2.81        0.00      71.04       1.71       0.51       0.92       ----

> <Gold.Chemscore.Fitness>
17.3821

> <Gold.Chemscore.DG>
-18.8077

> <Gold.Chemscore.ZeroCoef>
-5.4800

> <Gold.Chemscore.Hbond>
2.8129

> <Gold.Chemscore.Metal>
0.0000

> <Gold.Chemscore.Lipo>
71.0354

> <Gold.Chemscore.Internal_Hbond>
0.0000

> <Gold.Chemscore.DEClash>
0.5077

> <Gold.Chemscore.DEInternal>
0.9178

> <Gold.Chemscore.Rot>
1.7103

> <Gold.Chemscore.Internal.Correction>
   9.000000E+99

> <Gold.Chemscore.Hbonds>
donor molecule, donor type, donor heavy atom, donor atom, acceptor molecule, acceptor atom, score
      L1  H     8    25       P1  7948  0.84
      L1  H    11    26       P1  7948  0.99
      L1  H    14    29       P1  7957  0.98

> <Gold.Chemscore.Hbond.Weighted>
-9.3950

> <Gold.Chemscore.Metal.Weighted>
-0.0000

> <Gold.Chemscore.Lipo.Weighted>
-8.3111

> <Gold.Chemscore.Internal_Hbond.Weighted>
0.0000

> <Gold.Chemscore.DEClash.Weighted>
0.5077

> <Gold.Chemscore.DEInternal.Weighted>
0.9178

> <Gold.Chemscore.Rot.Weighted>
4.3785

> <Gold.Chemscore.Internal.Correction.Weighted>
   9.000000E+99

> <Gold.Protein.RotatedTorsions>
[ 6907 6896 6895 6894 ] final   92.53 input  -60.11 | X-H torsion
[ 7974 7965 7964 7962 ] final   23.68 input  175.53 | X-H torsion
[ 8008 7997 7996 7995 ] final   -8.92 input   59.86 | X-H torsion
[ 10167 10162 10161 10158 ] final   -6.57 input  -65.29 | X-H torsion
[ 10718 10713 10712 10709 ] final  113.60 input   66.30 | X-H torsion
[ 10763 10752 10751 10750 ] final   48.48 input  -60.55 | X-H torsion
[ 11005 11000 10999 10996 ] final   90.58 input  -57.11 | X-H torsion

> <Gold.Protein.ActiveResidues>
 VAL166  LYS551  ARG553  GLY616  TRP617  ASP618  TYR619  PRO620  LYS621  CYS622 
 ASP623  PHE694  ASN695  SER759  ASP760  ASP761  ALA762  ILE779  LEU786  VAL792 
 PHE793  MET794  SER795  GLU796  ALA797  LYS798  CYS799  TRP800  GLU811  SER814 

> <Gold.Protein.RotatedAtoms>
  152.5452  134.1488  159.8509 H   0  0  0  0  0  0  0  0  0  0  0  0  # atno 6907 bound_to 6896
  151.1517  133.4896  159.2602 H   0  0  0  0  0  0  0  0  0  0  0  0  # atno 6908 bound_to 6896
  151.1465  135.0216  159.8704 H   0  0  0  0  0  0  0  0  0  0  0  0  # atno 6909 bound_to 6896
  146.1973  139.7710  142.8788 H   0  0  0  0  0  0  0  0  0  0  0  0  # atno 7974 bound_to 7965
  154.5696  140.2368  155.8212 H   0  0  0  0  0  0  0  0  0  0  0  0  # atno 8008 bound_to 7997
  156.2096  140.3030  155.9660 H   0  0  0  0  0  0  0  0  0  0  0  0  # atno 8009 bound_to 7997
  155.2738  140.0419  157.3000 H   0  0  0  0  0  0  0  0  0  0  0  0  # atno 8010 bound_to 7997
  140.7001  143.6179  150.8640 H   0  0  0  0  0  0  0  0  0  0  0  0  # atno 10167 bound_to 10162
  157.6329  131.0986  150.7064 H   0  0  0  0  0  0  0  0  0  0  0  0  # atno 10718 bound_to 10713
  152.9792  135.5943  154.3933 H   0  0  0  0  0  0  0  0  0  0  0  0  # atno 10763 bound_to 10752
  154.3586  135.2767  155.2334 H   0  0  0  0  0  0  0  0  0  0  0  0  # atno 10764 bound_to 10752
  154.4342  135.6029  153.6143 H   0  0  0  0  0  0  0  0  0  0  0  0  # atno 10765 bound_to 10752
  139.8853  134.8622  156.3305 H   0  0  0  0  0  0  0  0  0  0  0  0  # atno 11005 bound_to 11000
  145.3602  141.0324  143.3289 LP  0  0  0  0  0  0  0  0  0  0  0  0  # atno 17320 bound_to 7965
  144.8607  139.5182  143.6813 LP  0  0  0  0  0  0  0  0  0  0  0  0  # atno 17321 bound_to 7965
  139.9901  143.5857  152.2913 LP  0  0  0  0  0  0  0  0  0  0  0  0  # atno 17342 bound_to 10162
  139.6509  144.7660  151.2151 LP  0  0  0  0  0  0  0  0  0  0  0  0  # atno 17343 bound_to 10162
  156.7401  130.4736  149.5479 LP  0  0  0  0  0  0  0  0  0  0  0  0  # atno 17370 bound_to 10713
  156.1545  130.6333  151.0640 LP  0  0  0  0  0  0  0  0  0  0  0  0  # atno 17371 bound_to 10713
  140.9726  133.7318  156.0556 LP  0  0  0  0  0  0  0  0  0  0  0  0  # atno 17394 bound_to 11000
  140.7852  134.3680  157.5478 LP  0  0  0  0  0  0  0  0  0  0  0  0  # atno 17395 bound_to 11000

$$$$
