AV-unprocessed.smi:170|AV-procd|sdf|1408|dock7
  -GOLD-   2262019163D 1   1.00000     0.00000
 Structure written by MMmdl.
 57 61  0  0  0  0  0  0  0  0  1 V2000
  147.2220  137.4326  162.3636 O   0  0  0  0  0  0  0  0  0  0  0  0
  146.8197  136.1321  161.9762 C   0  0  2  0  0  0  0  0  0  0  0  0
  146.4214  136.1446  160.4873 C   0  0  0  0  0  0  0  0  0  0  0  0
  147.5039  136.5882  159.6273 N   0  0  0  0  0  0  0  0  0  0  0  0
  148.7927  136.1039  159.6042 C   0  0  0  0  0  0  0  0  0  0  0  0
  149.5847  136.6706  158.7345 N   0  0  0  0  0  0  0  0  0  0  0  0
  148.7781  137.6152  158.1124 C   0  0  0  0  0  0  0  0  0  0  0  0
  148.9927  138.5721  157.0853 C   0  0  0  0  0  0  0  0  0  0  0  0
  150.1908  138.6964  156.4648 N   0  0  0  0  0  0  0  0  0  0  0  0
  150.1095  138.1354  155.1200 C   0  0  0  0  0  0  0  0  0  0  0  0
  151.4952  138.1059  154.4634 C   0  0  0  0  0  0  0  0  0  0  0  0
  152.0251  139.4235  154.4552 O   0  0  0  0  0  0  0  0  0  0  0  0
  152.2103  139.9248  155.7733 C   0  0  0  0  0  0  0  0  0  0  0  0
  150.8607  140.0039  156.5275 C   0  0  2  0  0  0  0  0  0  0  0  0
  151.0673  140.4863  157.9883 C   0  0  0  0  0  0  0  0  0  0  0  0
  151.9559  141.7222  158.1211 C   0  0  0  0  0  0  0  0  0  0  0  0
  152.1680  142.3644  159.5006 C   0  0  0  0  0  0  0  0  0  0  0  0
  152.2161  143.7281  158.8055 C   0  0  0  0  0  0  0  0  0  0  0  0
  151.4427  143.0909  157.6482 C   0  0  0  0  0  0  0  0  0  0  0  0
  147.9380  139.3436  156.7078 N   0  0  0  0  0  0  0  0  0  0  0  0
  146.7541  139.2000  157.3116 C   0  0  0  0  0  0  0  0  0  0  0  0
  146.4117  138.3582  158.2897 N   0  0  0  0  0  0  0  0  0  0  0  0
  147.4660  137.5760  158.6605 C   0  0  0  0  0  0  0  0  0  0  0  0
  145.6697  135.6371  162.8774 C   0  0  2  0  0  0  0  0  0  0  0  0
  145.1505  134.2159  162.6334 C   0  0  0  0  0  0  0  0  0  0  0  0
  143.7484  134.3167  163.1906 C   0  0  0  0  0  0  0  0  0  0  0  0
  143.3428  135.7225  162.7552 C   0  0  0  0  0  0  0  0  0  0  0  0
  144.5380  136.4987  162.7844 O   0  0  0  0  0  0  0  0  0  0  0  0
  146.9838  137.5585  163.2697 H   0  0  0  0  0  0  0  0  0  0  0  0
  147.6730  135.4642  162.1019 H   0  0  0  0  0  0  0  0  0  0  0  0
  146.1221  135.1456  160.1681 H   0  0  0  0  0  0  0  0  0  0  0  0
  145.5604  136.7942  160.3248 H   0  0  0  0  0  0  0  0  0  0  0  0
  149.1272  135.3094  160.2554 H   0  0  0  0  0  0  0  0  0  0  0  0
  149.7020  137.1239  155.1549 H   0  0  0  0  0  0  0  0  0  0  0  0
  149.4268  138.7366  154.5175 H   0  0  0  0  0  0  0  0  0  0  0  0
  152.1671  137.4276  154.9920 H   0  0  0  0  0  0  0  0  0  0  0  0
  151.4180  137.7467  153.4373 H   0  0  0  0  0  0  0  0  0  0  0  0
  152.9216  139.2956  156.3114 H   0  0  0  0  0  0  0  0  0  0  0  0
  152.6626  140.9122  155.6862 H   0  0  0  0  0  0  0  0  0  0  0  0
  150.2311  140.7259  156.0054 H   0  0  0  0  0  0  0  0  0  0  0  0
  150.1052  140.7065  158.4497 H   0  0  0  0  0  0  0  0  0  0  0  0
  151.4889  139.6708  158.5773 H   0  0  0  0  0  0  0  0  0  0  0  0
  152.9374  141.5457  157.6768 H   0  0  0  0  0  0  0  0  0  0  0  0
  151.3036  142.2595  160.1584 H   0  0  0  0  0  0  0  0  0  0  0  0
  153.0916  142.0748  160.0024 H   0  0  0  0  0  0  0  0  0  0  0  0
  151.6864  144.5265  159.3260 H   0  0  0  0  0  0  0  0  0  0  0  0
  153.2280  144.0255  158.5255 H   0  0  0  0  0  0  0  0  0  0  0  0
  151.7796  143.3855  156.6539 H   0  0  0  0  0  0  0  0  0  0  0  0
  150.3615  143.1970  157.7540 H   0  0  0  0  0  0  0  0  0  0  0  0
  145.9682  139.8516  156.9591 H   0  0  0  0  0  0  0  0  0  0  0  0
  145.9929  135.7026  163.9177 H   0  0  0  0  0  0  0  0  0  0  0  0
  145.1033  133.9774  161.5706 H   0  0  0  0  0  0  0  0  0  0  0  0
  145.7532  133.4530  163.1268 H   0  0  0  0  0  0  0  0  0  0  0  0
  143.0784  133.5432  162.8143 H   0  0  0  0  0  0  0  0  0  0  0  0
  143.7715  134.2516  164.2793 H   0  0  0  0  0  0  0  0  0  0  0  0
  142.9663  135.7072  161.7317 H   0  0  0  0  0  0  0  0  0  0  0  0
  142.5706  136.1520  163.3940 H   0  0  0  0  0  0  0  0  0  0  0  0
  1  2  1  0  0  0  0
  1 29  1  0  0  0  0
  2  3  1  0  0  0  0
  2 24  1  0  0  0  0
  2 30  1  0  0  0  0
  3  4  1  0  0  0  0
  3 31  1  0  0  0  0
  3 32  1  0  0  0  0
  4 23  1  0  0  0  0
  4  5  1  0  0  0  0
  5  6  2  0  0  0  0
  5 33  1  0  0  0  0
  6  7  1  0  0  0  0
  7 23  2  0  0  0  0
  7  8  1  0  0  0  0
  8  9  1  0  0  0  0
  8 20  2  0  0  0  0
  9 14  1  0  0  0  0
  9 10  1  0  0  0  0
 10 11  1  0  0  0  0
 10 34  1  0  0  0  0
 10 35  1  0  0  0  0
 11 12  1  0  0  0  0
 11 36  1  0  0  0  0
 11 37  1  0  0  0  0
 12 13  1  0  0  0  0
 13 14  1  0  0  0  0
 13 38  1  0  0  0  0
 13 39  1  0  0  0  0
 14 15  1  0  0  0  0
 14 40  1  0  0  0  0
 15 16  1  0  0  0  0
 15 41  1  0  0  0  0
 15 42  1  0  0  0  0
 16 19  1  0  0  0  0
 16 17  1  0  0  0  0
 16 43  1  0  0  0  0
 17 18  1  0  0  0  0
 17 44  1  0  0  0  0
 17 45  1  0  0  0  0
 18 19  1  0  0  0  0
 18 46  1  0  0  0  0
 18 47  1  0  0  0  0
 19 48  1  0  0  0  0
 19 49  1  0  0  0  0
 20 21  1  0  0  0  0
 21 22  2  0  0  0  0
 21 50  1  0  0  0  0
 22 23  1  0  0  0  0
 24 28  1  0  0  0  0
 24 25  1  0  0  0  0
 24 51  1  0  0  0  0
 25 26  1  0  0  0  0
 25 52  1  0  0  0  0
 25 53  1  0  0  0  0
 26 27  1  0  0  0  0
 26 54  1  0  0  0  0
 26 55  1  0  0  0  0
 27 28  1  0  0  0  0
 27 56  1  0  0  0  0
 27 57  1  0  0  0  0
M  END
> <s_m_source_file>
AV-unprocessed.smi

> <i_m_source_file_index>
170

> <i_lp_mmshare_version>
43012

> <i_f3d_flags>
0

> <s_epik_input>
TzFbQ0gyXVtDSDJdW0NIMl1bQ0BIXTFbQ0BIXShbT0hdKVtDSDJdbihbY0hdbjIpYyhjMjMpbltjSF1uYzNONFtDSDJdW0NIMl1PW0NIMl1bQ0BIXTRbQ0gyXVtDSF01W0NIMl1bQ0gyXVtDSDJdNQ==

> <s_epik_cmdline>
J2VwaWtfcHl0aG9uJywgJy1waCcsICc3LjAnLCAnLXRuJywgJzgnLCAnLW1hJywgJzIwMCcsICctbWV0YWxfYmluZGluZycsICctaW1hZScsICc8aW5maWxlLm1hZT4nLCAnLW9tYWUnLCAnPG91dGZpbGUubWFlPic=

> <r_lp_tautomer_probability>
1

> <r_epik_Ionization_Penalty>
4.98275e-05

> <r_epik_Ionization_Penalty_Charging>
0

> <r_epik_Ionization_Penalty_Neutral>
4.98275e-05

> <r_epik_State_Penalty>
-0

> <r_epik_Charging_Adjusted_Penalty>
0

> <i_epik_Tot_Q>
0

> <i_epik_Tot_abs_Q>
0

> <r_epik_Metal_State_Penalty>
-0

> <b_epik_Metal_Only>
0

> <s_lp_Force_Field>
OPLS_2005

> <r_lp_Energy>
52.7672

> <b_lp_Chiralities_Consistent>
1

> <s_lp_Variant>
AV-unprocessed.smi:170-3

> <Gold.Version>
5.8.1

> <Gold.Id.Protein>
6NUR|6NUR_protein|mol2

> <Gold.PLP.Fitness>
47.3608

> <Gold.PLP.PLP>
-41.4589

> <Gold.PLP.part.hbond>
-3.0000

> <Gold.PLP.part.metal>
0.0000

> <Gold.PLP.part.buried>
-3.5912

> <Gold.PLP.part.nonpolar>
-33.8862

> <Gold.PLP.part.repulsive>
0.1337

> <Gold.PLP.ligand.clash>
0.0000

> <Gold.PLP.ligand.torsion>
0.3112

> <Gold.PLP.Chemscore.Hbond>
2.0843

> <Gold.PLP.Chemscore.CHOScore>
0.0000

> <Gold.PLP.Chemscore.Metal>
0.0000

> <Gold.Chemscore.Hbonds>
donor molecule, donor type, donor heavy atom, donor atom, acceptor molecule, acceptor atom, score
      P1  H  6931  6943       L1     1  0.69
      P1  H  6934  6947       L1     1  0.44
      P1  H  7989  7998       L1    12  0.86

> <Gold.PLP.Chemscore.Internal.Correction>
0.2715

> <Gold.Rescore>
     Score         DG    S(hbond)    S(metal)    S(lipo)     H(rot)  DE(clash)    DE(int)     intcor
     17.85     -18.22       1.84        0.00     113.64       2.61       0.11       0.25       ----

> <Gold.Chemscore.Fitness>
17.8495

> <Gold.Chemscore.DG>
-18.2174

> <Gold.Chemscore.ZeroCoef>
-5.4800

> <Gold.Chemscore.Hbond>
1.8367

> <Gold.Chemscore.Metal>
0.0000

> <Gold.Chemscore.Lipo>
113.6396

> <Gold.Chemscore.Internal_Hbond>
0.0000

> <Gold.Chemscore.DEClash>
0.1141

> <Gold.Chemscore.DEInternal>
0.2537

> <Gold.Chemscore.Rot>
2.6144

> <Gold.Chemscore.Internal.Correction>
   9.000000E+99

> <Gold.Chemscore.Hbonds>
donor molecule, donor type, donor heavy atom, donor atom, acceptor molecule, acceptor atom, score
      P1  H  6931  6943       L1     1  0.53
      P1  H  6934  6947       L1     1  0.42
      P1  H  7989  7998       L1    12  0.42

> <Gold.Chemscore.Hbond.Weighted>
-6.1345

> <Gold.Chemscore.Metal.Weighted>
-0.0000

> <Gold.Chemscore.Lipo.Weighted>
-13.2958

> <Gold.Chemscore.Internal_Hbond.Weighted>
0.0000

> <Gold.Chemscore.DEClash.Weighted>
0.1141

> <Gold.Chemscore.DEInternal.Weighted>
0.2537

> <Gold.Chemscore.Rot.Weighted>
6.6929

> <Gold.Chemscore.Internal.Correction.Weighted>
   9.000000E+99

> <Gold.Protein.RotatedTorsions>
[ 6907 6896 6895 6894 ] final -157.10 input  -60.11 | X-H torsion
[ 7974 7965 7964 7962 ] final  -78.28 input  175.53 | X-H torsion
[ 8008 7997 7996 7995 ] final   64.25 input   59.86 | X-H torsion
[ 10167 10162 10161 10158 ] final -173.03 input  -65.29 | X-H torsion
[ 10718 10713 10712 10709 ] final  -74.28 input   66.30 | X-H torsion
[ 10763 10752 10751 10750 ] final  -48.66 input  -60.55 | X-H torsion
[ 11005 11000 10999 10996 ] final -161.67 input  -57.11 | X-H torsion

> <Gold.Protein.ActiveResidues>
 VAL166  LYS551  ARG553  GLY616  TRP617  ASP618  TYR619  PRO620  LYS621  CYS622 
 ASP623  PHE694  ASN695  SER759  ASP760  ASP761  ALA762  ILE779  LEU786  VAL792 
 PHE793  MET794  SER795  GLU796  ALA797  LYS798  CYS799  TRP800  GLU811  SER814 

> <Gold.Protein.RotatedAtoms>
  151.2978  133.4136  159.2637 H   0  0  0  0  0  0  0  0  0  0  0  0  # atno 6907 bound_to 6896
  151.0222  134.9478  159.8076 H   0  0  0  0  0  0  0  0  0  0  0  0  # atno 6908 bound_to 6896
  152.5327  134.2940  159.9106 H   0  0  0  0  0  0  0  0  0  0  0  0  # atno 6909 bound_to 6896
  145.5885  140.9434  143.1305 H   0  0  0  0  0  0  0  0  0  0  0  0  # atno 7974 bound_to 7965
  155.6431  140.3497  155.4722 H   0  0  0  0  0  0  0  0  0  0  0  0  # atno 8008 bound_to 7997
  155.9910  140.1193  157.0662 H   0  0  0  0  0  0  0  0  0  0  0  0  # atno 8009 bound_to 7997
  154.4219  140.1119  156.5551 H   0  0  0  0  0  0  0  0  0  0  0  0  # atno 8010 bound_to 7997
  139.5711  144.1639  152.1385 H   0  0  0  0  0  0  0  0  0  0  0  0  # atno 10167 bound_to 10162
  156.0248  130.4413  150.2868 H   0  0  0  0  0  0  0  0  0  0  0  0  # atno 10718 bound_to 10713
  154.0813  135.6590  153.4838 H   0  0  0  0  0  0  0  0  0  0  0  0  # atno 10763 bound_to 10752
  153.0355  135.5180  154.7471 H   0  0  0  0  0  0  0  0  0  0  0  0  # atno 10764 bound_to 10752
  154.6567  135.3009  154.9887 H   0  0  0  0  0  0  0  0  0  0  0  0  # atno 10765 bound_to 10752
  140.6178  134.4782  157.5221 H   0  0  0  0  0  0  0  0  0  0  0  0  # atno 11005 bound_to 11000
  144.7362  139.7580  143.7328 LP  0  0  0  0  0  0  0  0  0  0  0  0  # atno 17320 bound_to 7965
  146.1664  139.4797  142.9955 LP  0  0  0  0  0  0  0  0  0  0  0  0  # atno 17321 bound_to 7965
  140.1172  144.5405  150.6886 LP  0  0  0  0  0  0  0  0  0  0  0  0  # atno 17342 bound_to 10162
  140.6995  143.2426  151.4904 LP  0  0  0  0  0  0  0  0  0  0  0  0  # atno 17343 bound_to 10162
  157.0972  131.0186  151.3099 LP  0  0  0  0  0  0  0  0  0  0  0  0  # atno 17370 bound_to 10713
  157.4808  130.7764  149.7412 LP  0  0  0  0  0  0  0  0  0  0  0  0  # atno 17371 bound_to 10713
  139.9165  134.8235  156.1348 LP  0  0  0  0  0  0  0  0  0  0  0  0  # atno 17394 bound_to 11000
  141.0763  133.6774  156.2243 LP  0  0  0  0  0  0  0  0  0  0  0  0  # atno 17395 bound_to 11000

$$$$
