AV-unprocessed.smi:33|AV-procd|sdf|204|dock8
  -GOLD-   2262015483D 1   1.00000     0.00000
 Structure written by MMmdl.
 67 72  0  0  0  0  0  0  0  0  1 V2000
  153.4728  139.7640  158.7239 O   0  0  0  0  0  0  0  0  0  0  0  0
  152.4219  140.3033  158.3710 C   0  0  0  0  0  0  0  0  0  0  0  0
  151.4447  139.6605  157.6931 O   0  0  0  0  0  0  0  0  0  0  0  0
  151.7392  138.4418  157.0240 C   0  0  0  0  0  0  0  0  0  0  0  0
  151.3971  138.4684  155.5209 C   0  0  1  0  0  0  0  0  0  0  0  0
  151.5886  137.2016  154.8961 O   0  0  0  0  0  0  0  0  0  0  0  0
  150.3673  136.5418  154.7083 C   0  0  1  0  0  0  0  0  0  0  0  0
  150.3393  135.3536  155.6201 N   0  0  0  0  0  0  0  0  0  0  0  0
  150.5839  135.2844  156.9764 C   0  0  0  0  0  0  0  0  0  0  0  0
  150.4728  134.0962  157.5063 N   0  0  0  0  0  0  0  0  0  0  0  0
  150.1835  133.2748  156.4254 C   0  0  0  0  0  0  0  0  0  0  0  0
  149.9633  131.8797  156.2751 C   0  0  0  0  0  0  0  0  0  0  0  0
  149.9803  131.0240  157.3226 N   0  0  0  0  0  0  0  0  0  0  0  0
  150.6771  129.7470  157.1278 C   0  0  0  0  0  0  0  0  0  0  0  0
  150.2631  128.7310  157.6888 O   0  0  0  0  0  0  0  0  0  0  0  0
  151.8577  129.6679  156.2025 C   0  0  0  0  0  0  0  0  0  0  0  0
  152.0981  128.4927  155.4575 C   0  0  0  0  0  0  0  0  0  0  0  0
  153.2190  128.4077  154.6090 C   0  0  0  0  0  0  0  0  0  0  0  0
  154.1157  129.4892  154.5146 C   0  0  0  0  0  0  0  0  0  0  0  0
  153.8964  130.6531  155.2757 C   0  0  0  0  0  0  0  0  0  0  0  0
  152.7753  130.7396  156.1230 C   0  0  0  0  0  0  0  0  0  0  0  0
  149.2729  131.4298  158.5471 C   0  0  0  0  0  0  0  0  0  0  0  0
  148.4321  132.3300  158.5011 O   0  0  0  0  0  0  0  0  0  0  0  0
  149.5431  130.7309  159.8494 C   0  0  0  0  0  0  0  0  0  0  0  0
  150.8316  130.2209  160.1205 C   0  0  0  0  0  0  0  0  0  0  0  0
  151.0903  129.5527  161.3330 C   0  0  0  0  0  0  0  0  0  0  0  0
  150.0582  129.3742  162.2737 C   0  0  0  0  0  0  0  0  0  0  0  0
  148.7645  129.8561  161.9980 C   0  0  0  0  0  0  0  0  0  0  0  0
  148.5051  130.5252  160.7862 C   0  0  0  0  0  0  0  0  0  0  0  0
  149.7254  131.4017  155.0266 N   0  0  0  0  0  0  0  0  0  0  0  0
  149.6883  132.2452  153.9904 C   0  0  0  0  0  0  0  0  0  0  0  0
  149.8620  133.5693  153.9837 N   0  0  0  0  0  0  0  0  0  0  0  0
  150.1118  134.0493  155.2363 C   0  0  0  0  0  0  0  0  0  0  0  0
  149.2435  137.5293  155.0803 C   0  0  2  0  0  0  0  0  0  0  0  0
  148.1968  137.5823  154.1313 O   0  0  0  0  0  0  0  0  0  0  0  0
  149.9692  138.8655  155.1571 C   0  0  2  0  0  0  0  0  0  0  0  0
  150.0149  139.4489  153.9557 F   0  0  0  0  0  0  0  0  0  0  0  0
  152.0935  141.7263  158.6729 C   0  0  0  0  0  0  0  0  0  0  0  0
  152.6421  142.3311  159.8283 C   0  0  0  0  0  0  0  0  0  0  0  0
  152.3499  143.6718  160.1446 C   0  0  0  0  0  0  0  0  0  0  0  0
  151.5092  144.4255  159.3062 C   0  0  0  0  0  0  0  0  0  0  0  0
  150.9537  143.8348  158.1564 C   0  0  0  0  0  0  0  0  0  0  0  0
  151.2432  142.4938  157.8407 C   0  0  0  0  0  0  0  0  0  0  0  0
  152.8023  138.2340  157.1503 H   0  0  0  0  0  0  0  0  0  0  0  0
  151.1987  137.6162  157.4894 H   0  0  0  0  0  0  0  0  0  0  0  0
  152.0975  139.1658  155.0599 H   0  0  0  0  0  0  0  0  0  0  0  0
  150.2964  136.1266  153.7021 H   0  0  0  0  0  0  0  0  0  0  0  0
  150.8257  136.1498  157.5759 H   0  0  0  0  0  0  0  0  0  0  0  0
  151.4177  127.6558  155.5240 H   0  0  0  0  0  0  0  0  0  0  0  0
  153.3917  127.5114  154.0318 H   0  0  0  0  0  0  0  0  0  0  0  0
  154.9757  129.4232  153.8643 H   0  0  0  0  0  0  0  0  0  0  0  0
  154.5891  131.4792  155.2118 H   0  0  0  0  0  0  0  0  0  0  0  0
  152.6224  131.6342  156.7099 H   0  0  0  0  0  0  0  0  0  0  0  0
  151.6313  130.3527  159.4058 H   0  0  0  0  0  0  0  0  0  0  0  0
  152.0810  129.1763  161.5406 H   0  0  0  0  0  0  0  0  0  0  0  0
  150.2571  128.8618  163.2033 H   0  0  0  0  0  0  0  0  0  0  0  0
  147.9702  129.7120  162.7154 H   0  0  0  0  0  0  0  0  0  0  0  0
  147.5071  130.8866  160.5837 H   0  0  0  0  0  0  0  0  0  0  0  0
  149.4893  131.7952  153.0290 H   0  0  0  0  0  0  0  0  0  0  0  0
  148.8325  137.2747  156.0557 H   0  0  0  0  0  0  0  0  0  0  0  0
  148.4032  136.9896  153.4247 H   0  0  0  0  0  0  0  0  0  0  0  0
  149.5157  139.5735  155.8514 H   0  0  0  0  0  0  0  0  0  0  0  0
  153.2911  141.7724  160.4873 H   0  0  0  0  0  0  0  0  0  0  0  0
  152.7713  144.1219  161.0315 H   0  0  0  0  0  0  0  0  0  0  0  0
  151.2826  145.4532  159.5494 H   0  0  0  0  0  0  0  0  0  0  0  0
  150.3006  144.4104  157.5169 H   0  0  0  0  0  0  0  0  0  0  0  0
  150.8017  142.0737  156.9512 H   0  0  0  0  0  0  0  0  0  0  0  0
  1  2  2  0  0  0  0
  2  3  1  0  0  0  0
  2 38  1  0  0  0  0
  3  4  1  0  0  0  0
  4  5  1  0  0  0  0
  4 44  1  0  0  0  0
  4 45  1  0  0  0  0
  5 36  1  0  0  0  0
  5  6  1  0  0  0  0
  5 46  1  0  0  0  0
  6  7  1  0  0  0  0
  7  8  1  0  0  0  0
  7 34  1  0  0  0  0
  7 47  1  0  0  0  0
  8 33  1  0  0  0  0
  8  9  1  0  0  0  0
  9 10  2  0  0  0  0
  9 48  1  0  0  0  0
 10 11  1  0  0  0  0
 11 33  2  0  0  0  0
 11 12  1  0  0  0  0
 12 13  1  0  0  0  0
 12 30  2  0  0  0  0
 13 14  1  0  0  0  0
 13 22  1  0  0  0  0
 14 15  2  0  0  0  0
 14 16  1  0  0  0  0
 16 21  1  0  0  0  0
 16 17  2  0  0  0  0
 17 18  1  0  0  0  0
 17 49  1  0  0  0  0
 18 19  2  0  0  0  0
 18 50  1  0  0  0  0
 19 20  1  0  0  0  0
 19 51  1  0  0  0  0
 20 21  2  0  0  0  0
 20 52  1  0  0  0  0
 21 53  1  0  0  0  0
 22 23  2  0  0  0  0
 22 24  1  0  0  0  0
 24 29  1  0  0  0  0
 24 25  2  0  0  0  0
 25 26  1  0  0  0  0
 25 54  1  0  0  0  0
 26 27  2  0  0  0  0
 26 55  1  0  0  0  0
 27 28  1  0  0  0  0
 27 56  1  0  0  0  0
 28 29  2  0  0  0  0
 28 57  1  0  0  0  0
 29 58  1  0  0  0  0
 30 31  1  0  0  0  0
 31 32  2  0  0  0  0
 31 59  1  0  0  0  0
 32 33  1  0  0  0  0
 34 35  1  0  0  0  0
 34 36  1  0  0  0  0
 34 60  1  0  0  0  0
 35 61  1  0  0  0  0
 36 37  1  0  0  0  0
 36 62  1  0  0  0  0
 38 43  1  0  0  0  0
 38 39  2  0  0  0  0
 39 40  1  0  0  0  0
 39 63  1  0  0  0  0
 40 41  2  0  0  0  0
 40 64  1  0  0  0  0
 41 42  1  0  0  0  0
 41 65  1  0  0  0  0
 42 43  2  0  0  0  0
 42 66  1  0  0  0  0
 43 67  1  0  0  0  0
M  END
> <s_m_source_file>
AV-unprocessed.smi

> <i_m_source_file_index>
33

> <i_lp_mmshare_version>
43012

> <i_f3d_flags>
0

> <s_epik_input>
W2NIXTFbY0hdW2NIXVtjSF1bY0hdYzFDKD1PKU9bQ0gyXVtDQEBIXTJPW0NASF0oW0NAQEhdKFtPSF0pW0NAQEhdMkYpbihbY0hdbjMpYyhjMzQpbltjSF1uYzROKEMoPU8pYzVbY0hdW2NIXVtjSF1bY0hdW2NIXTUpQyg9TyljNltjSF1bY0hdW2NIXVtjSF1bY0hdNg==

> <s_epik_cmdline>
J2VwaWtfcHl0aG9uJywgJy1waCcsICc3LjAnLCAnLXRuJywgJzgnLCAnLW1hJywgJzIwMCcsICctbWV0YWxfYmluZGluZycsICctaW1hZScsICc8aW5maWxlLm1hZT4nLCAnLW9tYWUnLCAnPG91dGZpbGUubWFlPic=

> <r_lp_tautomer_probability>
1

> <r_epik_Ionization_Penalty>
0.00067664

> <r_epik_Ionization_Penalty_Charging>
0

> <r_epik_Ionization_Penalty_Neutral>
0.00067664

> <r_epik_State_Penalty>
0.000428095

> <r_epik_Charging_Adjusted_Penalty>
0.000428095

> <i_epik_Tot_Q>
0

> <i_epik_Tot_abs_Q>
0

> <r_epik_Metal_State_Penalty>
-0

> <b_epik_Metal_Only>
0

> <s_epik_Chemistry_Notes>
This compound has an ester and may undergo hydrolysis at high or low pH. This compound contains an acetal/aminal-like group ( X-CH(R)-Y where X, Y are N, S, or O) that may be acid/base labile, releasing an aldehyde.

> <s_lp_Force_Field>
OPLS_2005

> <r_lp_Energy>
67.2923

> <b_lp_Chiralities_Consistent>
1

> <s_lp_Variant>
AV-unprocessed.smi:33-6

> <Gold.Version>
5.8.1

> <Gold.Id.Protein>
6NUR|6NUR_protein|mol2

> <Gold.PLP.Fitness>
64.6501

> <Gold.PLP.PLP>
-56.9198

> <Gold.PLP.part.hbond>
-3.9865

> <Gold.PLP.part.metal>
0.0000

> <Gold.PLP.part.buried>
-0.8215

> <Gold.PLP.part.nonpolar>
-51.6384

> <Gold.PLP.part.repulsive>
0.2757

> <Gold.PLP.ligand.clash>
0.0000

> <Gold.PLP.ligand.torsion>
3.2165

> <Gold.PLP.Chemscore.Hbond>
3.4390

> <Gold.PLP.Chemscore.CHOScore>
0.0000

> <Gold.PLP.Chemscore.Metal>
0.0000

> <Gold.Chemscore.Hbonds>
donor molecule, donor type, donor heavy atom, donor atom, acceptor molecule, acceptor atom, score
      L1  H    35    61       P1  7948  1.00
      P1  H  6896  6907       L1    10  0.51
      P1  H  7997  8009       L1     1  1.00
      P1  H 10752 10765       L1     6  0.81
      L1  C    31    59       P1 10747  0.03

> <Gold.PLP.Chemscore.Internal.Correction>
3.8464

> <Gold.Rescore>
     Score         DG    S(hbond)    S(metal)    S(lipo)     H(rot)  DE(clash)    DE(int)     intcor
     18.25     -26.30       3.24        0.00     140.61       2.52       0.73       7.33       ----

> <Gold.Chemscore.Fitness>
18.2459

> <Gold.Chemscore.DG>
-26.3025

> <Gold.Chemscore.ZeroCoef>
-5.4800

> <Gold.Chemscore.Hbond>
3.2437

> <Gold.Chemscore.Metal>
0.0000

> <Gold.Chemscore.Lipo>
140.6132

> <Gold.Chemscore.Internal_Hbond>
0.0000

> <Gold.Chemscore.DEClash>
0.7268

> <Gold.Chemscore.DEInternal>
7.3298

> <Gold.Chemscore.Rot>
2.5247

> <Gold.Chemscore.Internal.Correction>
   9.000000E+99

> <Gold.Chemscore.Hbonds>
donor molecule, donor type, donor heavy atom, donor atom, acceptor molecule, acceptor atom, score
      L1  H    35    61       P1  7948  1.00
      P1  H  6896  6907       L1    10  0.50
      P1  H  7997  8009       L1     1  0.46
      P1  H 10752 10765       L1     6  0.23

> <Gold.Chemscore.Hbond.Weighted>
-10.8340

> <Gold.Chemscore.Metal.Weighted>
-0.0000

> <Gold.Chemscore.Lipo.Weighted>
-16.4517

> <Gold.Chemscore.Internal_Hbond.Weighted>
0.0000

> <Gold.Chemscore.DEClash.Weighted>
0.7268

> <Gold.Chemscore.DEInternal.Weighted>
7.3298

> <Gold.Chemscore.Rot.Weighted>
6.4633

> <Gold.Chemscore.Internal.Correction.Weighted>
   9.000000E+99

> <Gold.Protein.RotatedTorsions>
[ 6907 6896 6895 6894 ] final -146.37 input  -60.11 | X-H torsion
[ 7974 7965 7964 7962 ] final  -16.35 input  175.53 | X-H torsion
[ 8008 7997 7996 7995 ] final  141.94 input   59.86 | X-H torsion
[ 10167 10162 10161 10158 ] final -136.36 input  -65.29 | X-H torsion
[ 10718 10713 10712 10709 ] final  -10.15 input   66.30 | X-H torsion
[ 10763 10752 10751 10750 ] final  176.49 input  -60.55 | X-H torsion
[ 11005 11000 10999 10996 ] final   92.22 input  -57.11 | X-H torsion

> <Gold.Protein.ActiveResidues>
 VAL166  LYS551  ARG553  GLY616  TRP617  ASP618  TYR619  PRO620  LYS621  CYS622 
 ASP623  PHE694  ASN695  SER759  ASP760  ASP761  ALA762  ILE779  LEU786  VAL792 
 PHE793  MET794  SER795  GLU796  ALA797  LYS798  CYS799  TRP800  GLU811  SER814 

> <Gold.Protein.RotatedAtoms>
  151.1407  133.4973  159.2596 H   0  0  0  0  0  0  0  0  0  0  0  0  # atno 6907 bound_to 6896
  151.1658  135.0294  159.8740 H   0  0  0  0  0  0  0  0  0  0  0  0  # atno 6908 bound_to 6896
  152.5462  134.1276  159.8478 H   0  0  0  0  0  0  0  0  0  0  0  0  # atno 6909 bound_to 6896
  146.1991  140.3624  142.8430 H   0  0  0  0  0  0  0  0  0  0  0  0  # atno 7974 bound_to 7965
  156.2958  140.2302  156.4647 H   0  0  0  0  0  0  0  0  0  0  0  0  # atno 8008 bound_to 7997
  154.7988  140.0450  157.1278 H   0  0  0  0  0  0  0  0  0  0  0  0  # atno 8009 bound_to 7997
  154.9558  140.3048  155.5057 H   0  0  0  0  0  0  0  0  0  0  0  0  # atno 8010 bound_to 7997
  139.8685  143.6987  152.2642 H   0  0  0  0  0  0  0  0  0  0  0  0  # atno 10167 bound_to 10162
  156.6777  130.5028  149.5981 H   0  0  0  0  0  0  0  0  0  0  0  0  # atno 10718 bound_to 10713
  154.4818  135.2775  155.1564 H   0  0  0  0  0  0  0  0  0  0  0  0  # atno 10763 bound_to 10752
  154.3271  135.6197  153.5538 H   0  0  0  0  0  0  0  0  0  0  0  0  # atno 10764 bound_to 10752
  152.9876  135.5756  154.5221 H   0  0  0  0  0  0  0  0  0  0  0  0  # atno 10765 bound_to 10752
  139.8827  134.8720  156.3541 H   0  0  0  0  0  0  0  0  0  0  0  0  # atno 11005 bound_to 11000
  144.8644  140.7185  143.6086 LP  0  0  0  0  0  0  0  0  0  0  0  0  # atno 17320 bound_to 7965
  145.3544  139.1698  143.4417 LP  0  0  0  0  0  0  0  0  0  0  0  0  # atno 17321 bound_to 7965
  139.7306  144.7583  151.0808 LP  0  0  0  0  0  0  0  0  0  0  0  0  # atno 17342 bound_to 10162
  140.7764  143.5093  150.9673 LP  0  0  0  0  0  0  0  0  0  0  0  0  # atno 17343 bound_to 10162
  156.1891  130.6548  151.1040 LP  0  0  0  0  0  0  0  0  0  0  0  0  # atno 17370 bound_to 10713
  157.7055  131.0758  150.6682 LP  0  0  0  0  0  0  0  0  0  0  0  0  # atno 17371 bound_to 10713
  140.9574  133.7411  156.0354 LP  0  0  0  0  0  0  0  0  0  0  0  0  # atno 17394 bound_to 11000
  140.8031  134.3485  157.5433 LP  0  0  0  0  0  0  0  0  0  0  0  0  # atno 17395 bound_to 11000

$$$$
