AV-unprocessed.smi:2702|AV-procd|sdf|10434|dock4
  -GOLD-   2272014473D 1   1.00000     0.00000
 Structure written by MMmdl.
 47 48  0  0  0  0  0  0  0  0  1 V2000
  152.2422  138.3366  157.3523 C   0  0  0  0  0  0  0  0  0  0  0  0
  152.7730  139.3291  156.4918 O   0  0  0  0  0  0  0  0  0  0  0  0
  151.9287  140.4630  156.3855 C   0  0  0  0  0  0  0  0  0  0  0  0
  150.7147  140.1415  155.5378 C   0  0  0  0  0  0  0  0  0  0  0  0
  149.7906  141.0789  155.2231 C   0  0  0  0  0  0  0  0  0  0  0  0
  148.6235  140.7330  154.4115 C   0  0  0  0  0  0  0  0  0  0  0  0
  147.7631  141.5573  154.1006 O   0  0  0  0  0  0  0  0  0  0  0  0
  148.5608  139.4249  154.0227 N   0  0  0  0  0  0  0  0  0  0  0  0
  147.4460  138.9259  153.1970 C   0  0  0  0  0  0  0  0  0  0  0  0
  146.6570  137.7934  153.8695 C   0  0  0  0  0  0  0  0  0  0  0  0
  145.8024  138.0430  154.7204 O   0  0  0  0  0  0  0  0  0  0  0  0
  146.9708  136.5495  153.4764 N   0  0  0  0  0  0  0  0  0  0  0  0
  146.3501  135.3088  153.9455 C   0  0  2  0  0  0  0  0  0  0  0  0
  147.3865  134.4635  154.7083 C   0  0  0  0  0  0  0  0  0  0  0  0
  148.4616  133.8934  153.7715 C   0  0  0  0  0  0  0  0  0  0  0  0
  147.8252  133.0902  152.6293 C   0  0  0  0  0  0  0  0  0  0  0  0
  146.8006  133.9226  151.8306 C   0  0  1  0  0  0  0  0  0  0  0  0
  146.2105  133.0685  150.6941 C   0  0  0  0  0  0  0  0  0  0  0  0
  145.7149  134.5091  152.7761 C   0  0  2  0  0  0  0  0  0  0  0  0
  144.6513  135.3428  152.0326 C   0  0  0  0  0  0  0  0  0  0  0  0
  149.5442  138.4856  154.3922 C   0  0  0  0  0  0  0  0  0  0  0  0
  150.5694  138.8179  155.1102 N   0  0  0  0  0  0  0  0  0  0  0  0
  152.9279  137.4908  157.4027 H   0  0  0  0  0  0  0  0  0  0  0  0
  151.2821  137.9704  156.9865 H   0  0  0  0  0  0  0  0  0  0  0  0
  152.1079  138.7223  158.3638 H   0  0  0  0  0  0  0  0  0  0  0  0
  151.5944  140.7774  157.3759 H   0  0  0  0  0  0  0  0  0  0  0  0
  152.4766  141.2999  155.9484 H   0  0  0  0  0  0  0  0  0  0  0  0
  149.9107  142.0957  155.5679 H   0  0  0  0  0  0  0  0  0  0  0  0
  146.7688  139.7508  152.9657 H   0  0  0  0  0  0  0  0  0  0  0  0
  147.7920  138.5662  152.2264 H   0  0  0  0  0  0  0  0  0  0  0  0
  147.6892  136.4507  152.7738 H   0  0  0  0  0  0  0  0  0  0  0  0
  145.5568  135.5511  154.6547 H   0  0  0  0  0  0  0  0  0  0  0  0
  147.8526  135.0568  155.4959 H   0  0  0  0  0  0  0  0  0  0  0  0
  146.8778  133.6396  155.2105 H   0  0  0  0  0  0  0  0  0  0  0  0
  149.0659  134.7027  153.3599 H   0  0  0  0  0  0  0  0  0  0  0  0
  149.1443  133.2578  154.3361 H   0  0  0  0  0  0  0  0  0  0  0  0
  148.6102  132.7271  151.9647 H   0  0  0  0  0  0  0  0  0  0  0  0
  147.3381  132.2047  153.0400 H   0  0  0  0  0  0  0  0  0  0  0  0
  147.3355  134.7524  151.3663 H   0  0  0  0  0  0  0  0  0  0  0  0
  145.5973  132.2560  151.0855 H   0  0  0  0  0  0  0  0  0  0  0  0
  147.0008  132.6243  150.0882 H   0  0  0  0  0  0  0  0  0  0  0  0
  145.5930  133.6619  150.0203 H   0  0  0  0  0  0  0  0  0  0  0  0
  145.1881  133.6656  153.2252 H   0  0  0  0  0  0  0  0  0  0  0  0
  145.1040  136.1362  151.4371 H   0  0  0  0  0  0  0  0  0  0  0  0
  143.9601  135.8093  152.7352 H   0  0  0  0  0  0  0  0  0  0  0  0
  144.0523  134.7258  151.3634 H   0  0  0  0  0  0  0  0  0  0  0  0
  149.3789  137.4675  154.0364 H   0  0  0  0  0  0  0  0  0  0  0  0
  1  2  1  0  0  0  0
  1 23  1  0  0  0  0
  1 24  1  0  0  0  0
  1 25  1  0  0  0  0
  2  3  1  0  0  0  0
  3  4  1  0  0  0  0
  3 26  1  0  0  0  0
  3 27  1  0  0  0  0
  4 22  1  0  0  0  0
  4  5  2  0  0  0  0
  5  6  1  0  0  0  0
  5 28  1  0  0  0  0
  6  7  2  0  0  0  0
  6  8  1  0  0  0  0
  8  9  1  0  0  0  0
  8 21  1  0  0  0  0
  9 10  1  0  0  0  0
  9 29  1  0  0  0  0
  9 30  1  0  0  0  0
 10 11  2  0  0  0  0
 10 12  1  0  0  0  0
 12 13  1  0  0  0  0
 12 31  1  0  0  0  0
 13 19  1  0  0  0  0
 13 14  1  0  0  0  0
 13 32  1  0  0  0  0
 14 15  1  0  0  0  0
 14 33  1  0  0  0  0
 14 34  1  0  0  0  0
 15 16  1  0  0  0  0
 15 35  1  0  0  0  0
 15 36  1  0  0  0  0
 16 17  1  0  0  0  0
 16 37  1  0  0  0  0
 16 38  1  0  0  0  0
 17 18  1  0  0  0  0
 17 19  1  0  0  0  0
 17 39  1  0  0  0  0
 18 40  1  0  0  0  0
 18 41  1  0  0  0  0
 18 42  1  0  0  0  0
 19 20  1  0  0  0  0
 19 43  1  0  0  0  0
 20 44  1  0  0  0  0
 20 45  1  0  0  0  0
 20 46  1  0  0  0  0
 21 22  2  0  0  0  0
 21 47  1  0  0  0  0
M  END
> <s_m_source_file>
AV-unprocessed.smi

> <i_m_source_file_index>
2702

> <i_lp_mmshare_version>
43012

> <i_f3d_flags>
0

> <s_epik_input>
W0NIM11PW0NIMl1jMVtjSF1jKD1PKW4oW2NIXW4xKVtDSDJdQyg9TylbTkhdW0NAQEhdMltDSDJdW0NIMl1bQ0gyXVtDQEBIXShbQ0gzXSlbQ0BIXTJbQ0gzXQ==

> <s_epik_cmdline>
J2VwaWtfcHl0aG9uJywgJy1waCcsICc3LjAnLCAnLXRuJywgJzgnLCAnLW1hJywgJzIwMCcsICctbWV0YWxfYmluZGluZycsICctaW1hZScsICc8aW5maWxlLm1hZT4nLCAnLW9tYWUnLCAnPG91dGZpbGUubWFlPic=

> <r_lp_tautomer_probability>
1

> <r_epik_Ionization_Penalty>
1.22164e-06

> <r_epik_Ionization_Penalty_Charging>
3.17988e-07

> <r_epik_Ionization_Penalty_Neutral>
9.03656e-07

> <r_epik_State_Penalty>
-0

> <r_epik_Charging_Adjusted_Penalty>
3.17988e-07

> <i_epik_Tot_Q>
0

> <i_epik_Tot_abs_Q>
0

> <r_epik_Metal_State_Penalty>
-0

> <b_epik_Metal_Only>
0

> <s_lp_Force_Field>
OPLS_2005

> <r_lp_Energy>
16.9419

> <b_lp_Chiralities_Consistent>
1

> <s_lp_Variant>
AV-unprocessed.smi:2702-5

> <Gold.Version>
5.8.1

> <Gold.Id.Protein>
6NUR|6NUR_protein|mol2

> <Gold.PLP.Fitness>
39.9160

> <Gold.PLP.PLP>
-31.6279

> <Gold.PLP.part.hbond>
-2.0000

> <Gold.PLP.part.metal>
0.0000

> <Gold.PLP.part.buried>
-1.2329

> <Gold.PLP.part.nonpolar>
-28.1042

> <Gold.PLP.part.repulsive>
0.3132

> <Gold.PLP.ligand.clash>
0.0000

> <Gold.PLP.ligand.torsion>
0.3726

> <Gold.PLP.Chemscore.Hbond>
2.0000

> <Gold.PLP.Chemscore.CHOScore>
0.9957

> <Gold.PLP.Chemscore.Metal>
0.0000

> <Gold.Chemscore.Hbonds>
donor molecule, donor type, donor heavy atom, donor atom, acceptor molecule, acceptor atom, score
      L1  H    12    31       P1  7948  1.00
      P1  H  7997  8009       L1     2  1.00
      L1  C    21    47       P1  7948  1.00

> <Gold.PLP.Chemscore.Internal.Correction>
0.0462

> <Gold.Rescore>
     Score         DG    S(hbond)    S(metal)    S(lipo)     H(rot)  DE(clash)    DE(int)     intcor
     14.11     -14.55       1.87        0.00      66.30       1.93       0.05       0.39       ----

> <Gold.Chemscore.Fitness>
14.1130

> <Gold.Chemscore.DG>
-14.5471

> <Gold.Chemscore.ZeroCoef>
-5.4800

> <Gold.Chemscore.Hbond>
1.8705

> <Gold.Chemscore.Metal>
0.0000

> <Gold.Chemscore.Lipo>
66.2953

> <Gold.Chemscore.Internal_Hbond>
0.0000

> <Gold.Chemscore.DEClash>
0.0481

> <Gold.Chemscore.DEInternal>
0.3860

> <Gold.Chemscore.Rot>
1.9284

> <Gold.Chemscore.Internal.Correction>
   9.000000E+99

> <Gold.Chemscore.Hbonds>
donor molecule, donor type, donor heavy atom, donor atom, acceptor molecule, acceptor atom, score
      L1  H    12    31       P1  7948  0.97
      P1  H  7997  8009       L1     2  0.35

> <Gold.Chemscore.Hbond.Weighted>
-6.2473

> <Gold.Chemscore.Metal.Weighted>
-0.0000

> <Gold.Chemscore.Lipo.Weighted>
-7.7565

> <Gold.Chemscore.Internal_Hbond.Weighted>
0.0000

> <Gold.Chemscore.DEClash.Weighted>
0.0481

> <Gold.Chemscore.DEInternal.Weighted>
0.3860

> <Gold.Chemscore.Rot.Weighted>
4.9368

> <Gold.Chemscore.Internal.Correction.Weighted>
   9.000000E+99

> <Gold.Protein.RotatedTorsions>
[ 6907 6896 6895 6894 ] final   21.37 input  -60.11 | X-H torsion
[ 7974 7965 7964 7962 ] final -167.28 input  175.53 | X-H torsion
[ 8008 7997 7996 7995 ] final -177.62 input   59.86 | X-H torsion
[ 10167 10162 10161 10158 ] final -154.86 input  -65.29 | X-H torsion
[ 10718 10713 10712 10709 ] final -166.88 input   66.30 | X-H torsion
[ 10763 10752 10751 10750 ] final  -24.94 input  -60.55 | X-H torsion
[ 11005 11000 10999 10996 ] final  134.27 input  -57.11 | X-H torsion

> <Gold.Protein.ActiveResidues>
 VAL166  LYS551  ARG553  GLY616  TRP617  ASP618  TYR619  PRO620  LYS621  CYS622 
 ASP623  PHE694  ASN695  SER759  ASP760  ASP761  ALA762  ILE779  LEU786  VAL792 
 PHE793  MET794  SER795  GLU796  ALA797  LYS798  CYS799  TRP800  GLU811  SER814 

> <Gold.Protein.RotatedAtoms>
  151.9108  135.0340  160.0513 H   0  0  0  0  0  0  0  0  0  0  0  0  # atno 6907 bound_to 6896
  152.2281  133.5032  159.5208 H   0  0  0  0  0  0  0  0  0  0  0  0  # atno 6908 bound_to 6896
  150.7018  134.1169  159.4063 H   0  0  0  0  0  0  0  0  0  0  0  0  # atno 6909 bound_to 6896
  144.7226  140.2542  143.6274 H   0  0  0  0  0  0  0  0  0  0  0  0  # atno 7974 bound_to 7965
  156.0091  140.1237  157.0472 H   0  0  0  0  0  0  0  0  0  0  0  0  # atno 8008 bound_to 7997
  154.4269  140.1091  156.5873 H   0  0  0  0  0  0  0  0  0  0  0  0  # atno 8009 bound_to 7997
  155.6105  140.3471  155.4623 H   0  0  0  0  0  0  0  0  0  0  0  0  # atno 8010 bound_to 7997
  139.6979  143.9312  152.2415 H   0  0  0  0  0  0  0  0  0  0  0  0  # atno 10167 bound_to 10162
  156.6742  130.9096  151.3048 H   0  0  0  0  0  0  0  0  0  0  0  0  # atno 10718 bound_to 10713
  153.6918  135.6961  153.5088 H   0  0  0  0  0  0  0  0  0  0  0  0  # atno 10763 bound_to 10752
  153.2408  135.4307  155.0694 H   0  0  0  0  0  0  0  0  0  0  0  0  # atno 10764 bound_to 10752
  154.8370  135.3507  154.6459 H   0  0  0  0  0  0  0  0  0  0  0  0  # atno 10765 bound_to 10752
  139.9904  134.9517  156.9843 H   0  0  0  0  0  0  0  0  0  0  0  0  # atno 11005 bound_to 11000
  145.8199  139.2039  143.1944 LP  0  0  0  0  0  0  0  0  0  0  0  0  # atno 17320 bound_to 7965
  146.0523  140.8056  142.9775 LP  0  0  0  0  0  0  0  0  0  0  0  0  # atno 17321 bound_to 7965
  139.9146  144.6836  150.8526 LP  0  0  0  0  0  0  0  0  0  0  0  0  # atno 17342 bound_to 10162
  140.7701  143.3418  151.2191 LP  0  0  0  0  0  0  0  0  0  0  0  0  # atno 17343 bound_to 10162
  157.7066  130.9392  150.0952 LP  0  0  0  0  0  0  0  0  0  0  0  0  # atno 17370 bound_to 10713
  156.1915  130.3655  149.8903 LP  0  0  0  0  0  0  0  0  0  0  0  0  # atno 17371 bound_to 10713
  140.4919  134.1184  155.7234 LP  0  0  0  0  0  0  0  0  0  0  0  0  # atno 17394 bound_to 11000
  141.1561  133.8880  157.1973 LP  0  0  0  0  0  0  0  0  0  0  0  0  # atno 17395 bound_to 11000

$$$$
