AV-unprocessed.smi:114|AV-procd|sdf|1110|dock2
  -GOLD-   2262018223D 1   1.00000     0.00000
 Structure written by MMmdl.
 32 34  0  0  0  0  0  0  0  0  1 V2000
  147.5667  143.2043  159.0516 N   0  0  0  0  0  0  0  0  0  0  0  0
  148.6703  142.7831  158.4176 C   0  0  0  0  0  0  0  0  0  0  0  0
  149.8755  143.1673  158.8973 N   0  0  0  0  0  0  0  0  0  0  0  0
  151.0006  142.7693  158.2917 C   0  0  0  0  0  0  0  0  0  0  0  0
  152.1628  143.1977  158.8381 F   0  0  0  0  0  0  0  0  0  0  0  0
  151.1060  141.9948  157.2071 N   0  0  0  0  0  0  0  0  0  0  0  0
  149.8947  141.6029  156.7171 C   0  0  0  0  0  0  0  0  0  0  0  0
  148.6327  141.9554  157.2687 C   0  0  0  0  0  0  0  0  0  0  0  0
  147.6114  141.3840  156.5236 N   0  0  0  0  0  0  0  0  0  0  0  0
  148.2395  140.7323  155.5827 C   0  0  0  0  0  0  0  0  0  0  0  0
  149.6144  140.8117  155.6184 N   0  0  0  0  0  0  0  0  0  0  0  0
  150.5667  140.1619  154.6633 C   0  0  1  0  0  0  0  0  0  0  0  0
  151.8088  140.0054  155.2761 O   0  0  0  0  0  0  0  0  0  0  0  0
  152.3747  138.7241  154.9889 C   0  0  1  0  0  0  0  0  0  0  0  0
  152.5298  137.9623  156.3224 C   0  0  0  0  0  0  0  0  0  0  0  0
  153.3317  138.7092  157.2121 O   0  0  0  0  0  0  0  0  0  0  0  0
  151.4012  138.0852  153.9780 C   0  0  1  0  0  0  0  0  0  0  0  0
  151.2911  136.6798  154.1000 O   0  0  0  0  0  0  0  0  0  0  0  0
  150.0761  138.7718  154.2672 C   0  0  2  0  0  0  0  0  0  0  0  0
  149.2991  138.8045  153.0859 O   0  0  0  0  0  0  0  0  0  0  0  0
  150.6563  140.8543  153.8249 H   0  0  0  0  0  0  0  0  0  0  0  0
  153.3529  138.8450  154.5217 H   0  0  0  0  0  0  0  0  0  0  0  0
  151.7376  138.3298  152.9687 H   0  0  0  0  0  0  0  0  0  0  0  0
  149.5498  138.3053  155.1022 H   0  0  0  0  0  0  0  0  0  0  0  0
  146.6563  142.9302  158.7107 H   0  0  0  0  0  0  0  0  0  0  0  0
  147.6464  143.7961  159.8658 H   0  0  0  0  0  0  0  0  0  0  0  0
  147.7121  140.1670  154.8280 H   0  0  0  0  0  0  0  0  0  0  0  0
  151.5653  137.7299  156.7718 H   0  0  0  0  0  0  0  0  0  0  0  0
  153.0455  137.0141  156.1721 H   0  0  0  0  0  0  0  0  0  0  0  0
  153.7606  138.1107  157.8044 H   0  0  0  0  0  0  0  0  0  0  0  0
  150.8663  136.3428  153.3261 H   0  0  0  0  0  0  0  0  0  0  0  0
  149.1219  137.9163  152.8169 H   0  0  0  0  0  0  0  0  0  0  0  0
  1  2  1  0  0  0  0
  1 25  1  0  0  0  0
  1 26  1  0  0  0  0
  2  8  1  0  0  0  0
  2  3  2  0  0  0  0
  3  4  1  0  0  0  0
  4  5  1  0  0  0  0
  4  6  2  0  0  0  0
  6  7  1  0  0  0  0
  7 11  1  0  0  0  0
  7  8  2  0  0  0  0
  8  9  1  0  0  0  0
  9 10  2  0  0  0  0
 10 11  1  0  0  0  0
 10 27  1  0  0  0  0
 11 12  1  0  0  0  0
 12 21  1  0  0  0  0
 12 19  1  0  0  0  0
 12 13  1  0  0  0  0
 13 14  1  0  0  0  0
 14 22  1  0  0  0  0
 14 15  1  0  0  0  0
 14 17  1  0  0  0  0
 15 16  1  0  0  0  0
 15 28  1  0  0  0  0
 15 29  1  0  0  0  0
 16 30  1  0  0  0  0
 17 23  1  0  0  0  0
 17 18  1  0  0  0  0
 17 19  1  0  0  0  0
 18 31  1  0  0  0  0
 19 24  1  0  0  0  0
 19 20  1  0  0  0  0
 20 32  1  0  0  0  0
M  END
> <s_m_source_file>
AV-unprocessed.smi

> <i_m_source_file_index>
114

> <i_lp_mmshare_version>
43012

> <i_f3d_flags>
0

> <s_epik_input>
RmMobjEpbmMoW05IMl0pYyhjMTIpbltjSF1uMltDQEBIXTNPW0NASF0oW0NIMl1bT0hdKVtDQEBIXShbT0hdKVtDQEBIXTNbT0hd

> <s_epik_cmdline>
J2VwaWtfcHl0aG9uJywgJy1waCcsICc3LjAnLCAnLXRuJywgJzgnLCAnLW1hJywgJzIwMCcsICctbWV0YWxfYmluZGluZycsICctaW1hZScsICc8aW5maWxlLm1hZT4nLCAnLW9tYWUnLCAnPG91dGZpbGUubWFlPic=

> <r_lp_tautomer_probability>
1

> <r_epik_Ionization_Penalty>
1.13199e-05

> <r_epik_Ionization_Penalty_Charging>
0

> <r_epik_Ionization_Penalty_Neutral>
1.13199e-05

> <r_epik_State_Penalty>
-0

> <r_epik_Charging_Adjusted_Penalty>
0

> <i_epik_Tot_Q>
0

> <i_epik_Tot_abs_Q>
0

> <r_epik_Metal_State_Penalty>
-0

> <b_epik_Metal_Only>
0

> <s_epik_Chemistry_Notes>
This compound contains an acetal/aminal-like group ( X-CH(R)-Y where X, Y are N, S, or O) that may be acid/base labile, releasing an aldehyde.

> <s_lp_Force_Field>
OPLS_2005

> <r_lp_Energy>
42.0862

> <b_lp_Chiralities_Consistent>
1

> <s_lp_Variant>
AV-unprocessed.smi:114-4

> <Gold.Version>
5.8.1

> <Gold.Id.Protein>
6NUR|6NUR_protein|mol2

> <Gold.PLP.Fitness>
42.4618

> <Gold.PLP.PLP>
-31.9210

> <Gold.PLP.part.hbond>
-5.8134

> <Gold.PLP.part.metal>
0.0000

> <Gold.PLP.part.buried>
-3.1889

> <Gold.PLP.part.nonpolar>
-22.4694

> <Gold.PLP.part.repulsive>
0.4296

> <Gold.PLP.ligand.clash>
0.0000

> <Gold.PLP.ligand.torsion>
0.6489

> <Gold.PLP.Chemscore.Hbond>
3.9440

> <Gold.PLP.Chemscore.CHOScore>
0.0000

> <Gold.PLP.Chemscore.Metal>
0.0000

> <Gold.Chemscore.Hbonds>
donor molecule, donor type, donor heavy atom, donor atom, acceptor molecule, acceptor atom, score
      L1  H    18    31       P1  7949  0.64
      L1  H    20    32       P1  7948  1.00
      P1  H  7997  8009       L1    16  1.00
      P1  H 10752 10765       L1    18  1.00

> <Gold.PLP.Chemscore.Internal.Correction>
0.0066

> <Gold.Rescore>
     Score         DG    S(hbond)    S(metal)    S(lipo)     H(rot)  DE(clash)    DE(int)     intcor
      5.53      -8.51       2.82        0.00      33.63       4.03       1.37       1.62       ----

> <Gold.Chemscore.Fitness>
5.5262

> <Gold.Chemscore.DG>
-8.5139

> <Gold.Chemscore.ZeroCoef>
-5.4800

> <Gold.Chemscore.Hbond>
2.8175

> <Gold.Chemscore.Metal>
0.0000

> <Gold.Chemscore.Lipo>
33.6283

> <Gold.Chemscore.Internal_Hbond>
0.0000

> <Gold.Chemscore.DEClash>
1.3696

> <Gold.Chemscore.DEInternal>
1.6182

> <Gold.Chemscore.Rot>
4.0277

> <Gold.Chemscore.Internal.Correction>
   9.000000E+99

> <Gold.Chemscore.Hbonds>
donor molecule, donor type, donor heavy atom, donor atom, acceptor molecule, acceptor atom, score
      L1  H    18    31       P1  7949  0.08
      L1  H    20    32       P1  7948  0.99
      P1  H  7997  8009       L1    16  0.49
      P1  H 10752 10765       L1    18  0.42

> <Gold.Chemscore.Hbond.Weighted>
-9.4104

> <Gold.Chemscore.Metal.Weighted>
-0.0000

> <Gold.Chemscore.Lipo.Weighted>
-3.9345

> <Gold.Chemscore.Internal_Hbond.Weighted>
0.0000

> <Gold.Chemscore.DEClash.Weighted>
1.3696

> <Gold.Chemscore.DEInternal.Weighted>
1.6182

> <Gold.Chemscore.Rot.Weighted>
10.3110

> <Gold.Chemscore.Internal.Correction.Weighted>
   9.000000E+99

> <Gold.Protein.RotatedTorsions>
[ 6907 6896 6895 6894 ] final   10.10 input  -60.11 | X-H torsion
[ 7974 7965 7964 7962 ] final -134.48 input  175.53 | X-H torsion
[ 8008 7997 7996 7995 ] final  159.82 input   59.86 | X-H torsion
[ 10167 10162 10161 10158 ] final -114.93 input  -65.29 | X-H torsion
[ 10718 10713 10712 10709 ] final  -60.97 input   66.30 | X-H torsion
[ 10763 10752 10751 10750 ] final  156.73 input  -60.55 | X-H torsion
[ 11005 11000 10999 10996 ] final  112.91 input  -57.11 | X-H torsion

> <Gold.Protein.ActiveResidues>
 VAL166  LYS551  ARG553  GLY616  TRP617  ASP618  TYR619  PRO620  LYS621  CYS622 
 ASP623  PHE694  ASN695  SER759  ASP760  ASP761  ALA762  ILE779  LEU786  VAL792 
 PHE793  MET794  SER795  GLU796  ALA797  LYS798  CYS799  TRP800  GLU811  SER814 

> <Gold.Protein.RotatedAtoms>
  151.7329  135.0871  160.0302 H   0  0  0  0  0  0  0  0  0  0  0  0  # atno 6907 bound_to 6896
  152.3529  133.6198  159.5967 H   0  0  0  0  0  0  0  0  0  0  0  0  # atno 6908 bound_to 6896
  150.7552  133.9461  159.3513 H   0  0  0  0  0  0  0  0  0  0  0  0  # atno 6909 bound_to 6896
  144.9099  140.6881  143.5031 H   0  0  0  0  0  0  0  0  0  0  0  0  # atno 7974 bound_to 7965
  156.2213  140.1821  156.7469 H   0  0  0  0  0  0  0  0  0  0  0  0  # atno 8008 bound_to 7997
  154.5870  140.0657  156.9214 H   0  0  0  0  0  0  0  0  0  0  0  0  # atno 8009 bound_to 7997
  155.2402  140.3321  155.4295 H   0  0  0  0  0  0  0  0  0  0  0  0  # atno 8010 bound_to 7997
  140.0956  143.4659  152.1843 H   0  0  0  0  0  0  0  0  0  0  0  0  # atno 10167 bound_to 10162
  156.0954  130.4194  150.0929 H   0  0  0  0  0  0  0  0  0  0  0  0  # atno 10718 bound_to 10713
  154.1889  135.2796  155.3028 H   0  0  0  0  0  0  0  0  0  0  0  0  # atno 10763 bound_to 10752
  154.5944  135.5549  153.7314 H   0  0  0  0  0  0  0  0  0  0  0  0  # atno 10764 bound_to 10752
  153.0117  135.6376  154.2028 H   0  0  0  0  0  0  0  0  0  0  0  0  # atno 10765 bound_to 10752
  139.8939  134.9539  156.6658 H   0  0  0  0  0  0  0  0  0  0  0  0  # atno 11005 bound_to 11000
  145.3472  139.1716  143.4454 LP  0  0  0  0  0  0  0  0  0  0  0  0  # atno 17320 bound_to 7965
  146.3153  140.3520  142.8657 LP  0  0  0  0  0  0  0  0  0  0  0  0  # atno 17321 bound_to 7965
  139.5700  144.7457  151.3917 LP  0  0  0  0  0  0  0  0  0  0  0  0  # atno 17342 bound_to 10162
  140.7005  143.7643  150.7395 LP  0  0  0  0  0  0  0  0  0  0  0  0  # atno 17343 bound_to 10162
  156.8929  130.9594  151.3586 LP  0  0  0  0  0  0  0  0  0  0  0  0  # atno 17370 bound_to 10713
  157.6113  130.8585  149.8956 LP  0  0  0  0  0  0  0  0  0  0  0  0  # atno 17371 bound_to 10713
  140.7411  133.8977  155.8279 LP  0  0  0  0  0  0  0  0  0  0  0  0  # atno 17394 bound_to 11000
  141.0076  134.1064  157.4254 LP  0  0  0  0  0  0  0  0  0  0  0  0  # atno 17395 bound_to 11000

$$$$
