AV-unprocessed.smi:1965|AV-procd|sdf|7946|dock7
  -GOLD-   2272010113D 1   1.00000     0.00000
 Structure written by MMmdl.
 36 38  0  0  0  0  0  0  0  0  3 V2000
  147.8397  137.0368  158.2570 O   0  0  0  0  0  0  0  0  0  0  0  0
  148.6314  136.1062  158.4009 C   0  0  0  0  0  0  0  0  0  0  0  0
  149.1738  135.7649  159.5984 N   0  5  0  0  0  0  0  0  0  0  0  0
  148.4383  135.6391  160.7184 C   0  0  0  0  0  0  0  0  0  0  0  0
  148.3851  136.5803  161.6680 N   0  0  0  0  0  0  0  0  0  0  0  0
  147.5595  136.2397  162.7411 C   0  0  0  0  0  0  0  0  0  0  0  0
  146.9700  135.0112  162.6043 C   0  0  0  0  0  0  0  0  0  0  0  0
  147.4318  134.2436  161.1123 S   0  0  0  0  0  0  0  0  0  0  0  0
  148.9931  135.3889  157.3198 N   0  0  0  0  0  0  0  0  0  0  0  0
  148.5415  135.6223  155.9521 C   0  0  2  0  0  0  0  0  0  0  0  0
  147.0287  135.7486  155.8305 C   0  0  0  0  0  0  0  0  0  0  0  0
  146.7804  135.4959  154.3400 C   0  0  0  0  0  0  0  0  0  0  0  0
  147.9013  134.6541  153.8531 N   0  3  2  0  0  0  0  0  0  0  0  0
  147.4701  133.3958  153.1873 C   0  0  0  0  0  0  0  0  0  0  0  0
  148.6351  132.4006  153.0831 C   0  0  0  0  0  0  0  0  0  0  0  0
  149.1515  131.9919  154.4756 C   0  0  0  0  0  0  0  0  0  0  0  0
  148.8507  133.0535  155.5512 C   0  0  0  0  0  0  0  0  0  0  0  0
  148.8777  134.4877  154.9663 C   0  0  2  0  0  0  0  0  0  0  0  0
  147.4492  136.9330  163.5615 H   0  0  0  0  0  0  0  0  0  0  0  0
  146.2931  134.5156  163.2837 H   0  0  0  0  0  0  0  0  0  0  0  0
  149.6457  134.6320  157.4635 H   0  0  0  0  0  0  0  0  0  0  0  0
  148.9829  136.5520  155.5864 H   0  0  0  0  0  0  0  0  0  0  0  0
  146.5361  134.9765  156.4238 H   0  0  0  0  0  0  0  0  0  0  0  0
  146.6550  136.7177  156.1634 H   0  0  0  0  0  0  0  0  0  0  0  0
  145.8003  135.0487  154.1687 H   0  0  0  0  0  0  0  0  0  0  0  0
  146.8074  136.4377  153.7913 H   0  0  0  0  0  0  0  0  0  0  0  0
  146.6556  132.9329  153.7473 H   0  0  0  0  0  0  0  0  0  0  0  0
  147.0777  133.6347  152.1983 H   0  0  0  0  0  0  0  0  0  0  0  0
  148.3344  131.5150  152.5224 H   0  0  0  0  0  0  0  0  0  0  0  0
  149.4446  132.8606  152.5145 H   0  0  0  0  0  0  0  0  0  0  0  0
  148.7034  131.0452  154.7789 H   0  0  0  0  0  0  0  0  0  0  0  0
  150.2257  131.8129  154.4173 H   0  0  0  0  0  0  0  0  0  0  0  0
  147.8689  132.8602  155.9857 H   0  0  0  0  0  0  0  0  0  0  0  0
  149.5671  132.9444  156.3657 H   0  0  0  0  0  0  0  0  0  0  0  0
  149.8777  134.6583  154.5647 H   0  0  0  0  0  0  0  0  0  0  0  0
  148.3815  135.2023  153.1539 H   0  0  0  0  0  0  0  0  0  0  0  0
  1  2  2  0  0  0  0
  2  3  1  0  0  0  0
  2  9  1  0  0  0  0
  3  4  1  0  0  0  0
  4  8  1  0  0  0  0
  4  5  2  0  0  0  0
  5  6  1  0  0  0  0
  6  7  2  0  0  0  0
  6 19  1  0  0  0  0
  7  8  1  0  0  0  0
  7 20  1  0  0  0  0
  9 10  1  0  0  0  0
  9 21  1  0  0  0  0
 10 18  1  0  0  0  0
 10 11  1  0  0  0  0
 10 22  1  0  0  0  0
 11 12  1  0  0  0  0
 11 23  1  0  0  0  0
 11 24  1  0  0  0  0
 12 13  1  0  0  0  0
 12 25  1  0  0  0  0
 12 26  1  0  0  0  0
 13 18  1  0  0  0  0
 13 14  1  0  0  0  0
 13 36  1  0  0  0  0
 14 15  1  0  0  0  0
 14 27  1  0  0  0  0
 14 28  1  0  0  0  0
 15 16  1  0  0  0  0
 15 29  1  0  0  0  0
 15 30  1  0  0  0  0
 16 17  1  0  0  0  0
 16 31  1  0  0  0  0
 16 32  1  0  0  0  0
 17 18  1  0  0  0  0
 17 33  1  0  0  0  0
 17 34  1  0  0  0  0
 18 35  1  0  0  0  0
M  CHG  1   3  -1
M  CHG  1  13   1
M  END
> <s_m_source_file>
AV-unprocessed.smi

> <i_m_source_file_index>
1965

> <i_lp_mmshare_version>
43012

> <i_f3d_flags>
0

> <s_epik_input>
czFbY0hdW2NIXW5jMVtOSF1DKD1PKVtOSF1bQ0BIXShbQ0gyXVtDSDJdMilbQ0BASF0oTjIzKVtDSDJdW0NIMl1bQ0gyXVtDSDJdMw==

> <s_epik_cmdline>
J2VwaWtfcHl0aG9uJywgJy1waCcsICc3LjAnLCAnLXRuJywgJzgnLCAnLW1hJywgJzIwMCcsICctbWV0YWxfYmluZGluZycsICctaW1hZScsICc8aW5maWxlLm1hZT4nLCAnLW9tYWUnLCAnPG91dGZpbGUubWFlPic=

> <r_lp_tautomer_probability>
1

> <r_epik_Ionization_Penalty>
7.4116

> <r_epik_Ionization_Penalty_Charging>
6.13869

> <r_epik_Ionization_Penalty_Neutral>
1.27291

> <r_epik_State_Penalty>
6.13761

> <r_epik_Charging_Adjusted_Penalty>
12.2763

> <i_epik_Tot_Q>
0

> <i_epik_Tot_abs_Q>
2

> <r_epik_Metal_State_Penalty>
2.08142

> <b_epik_Metal_Only>
1

> <s_lp_Force_Field>
OPLS_2005

> <r_lp_Energy>
32.0333

> <b_lp_Chiralities_Consistent>
1

> <s_lp_Variant>
AV-unprocessed.smi:1965-15

> <Gold.Version>
5.8.1

> <Gold.Id.Protein>
6NUR|6NUR_protein|mol2

> <Gold.PLP.Fitness>
40.6711

> <Gold.PLP.PLP>
-28.1206

> <Gold.PLP.part.hbond>
-3.2585

> <Gold.PLP.part.metal>
0.0000

> <Gold.PLP.part.buried>
-4.1844

> <Gold.PLP.part.nonpolar>
-21.3045

> <Gold.PLP.part.repulsive>
0.0594

> <Gold.PLP.ligand.clash>
0.0000

> <Gold.PLP.ligand.torsion>
1.2265

> <Gold.PLP.Chemscore.Hbond>
5.0000

> <Gold.PLP.Chemscore.CHOScore>
0.0000

> <Gold.PLP.Chemscore.Metal>
0.0000

> <Gold.Chemscore.Hbonds>
donor molecule, donor type, donor heavy atom, donor atom, acceptor molecule, acceptor atom, score
      L1  H    13    36       P1  7948  2.00
      P1  H  6896  6907       L1     3  2.00
      P1  H  6931  6943       L1     5  1.00

> <Gold.PLP.Chemscore.Internal.Correction>
0.0034

> <Gold.Rescore>
     Score         DG    S(hbond)    S(metal)    S(lipo)     H(rot)  DE(clash)    DE(int)     intcor
     16.18     -18.69       2.80        0.00      54.98       1.00       0.00       2.51       ----

> <Gold.Chemscore.Fitness>
16.1809

> <Gold.Chemscore.DG>
-18.6938

> <Gold.Chemscore.ZeroCoef>
-5.4800

> <Gold.Chemscore.Hbond>
2.7967

> <Gold.Chemscore.Metal>
0.0000

> <Gold.Chemscore.Lipo>
54.9822

> <Gold.Chemscore.Internal_Hbond>
0.0000

> <Gold.Chemscore.DEClash>
0.0038

> <Gold.Chemscore.DEInternal>
2.5091

> <Gold.Chemscore.Rot>
1.0000

> <Gold.Chemscore.Internal.Correction>
   9.000000E+99

> <Gold.Chemscore.Hbonds>
donor molecule, donor type, donor heavy atom, donor atom, acceptor molecule, acceptor atom, score
      L1  H    13    36       P1  7948  0.94
      P1  H  6896  6907       L1     3  0.80
      P1  H  6931  6943       L1     5  0.74

> <Gold.Chemscore.Hbond.Weighted>
-9.3409

> <Gold.Chemscore.Metal.Weighted>
-0.0000

> <Gold.Chemscore.Lipo.Weighted>
-6.4329

> <Gold.Chemscore.Internal_Hbond.Weighted>
0.0000

> <Gold.Chemscore.DEClash.Weighted>
0.0038

> <Gold.Chemscore.DEInternal.Weighted>
2.5091

> <Gold.Chemscore.Rot.Weighted>
2.5600

> <Gold.Chemscore.Internal.Correction.Weighted>
   9.000000E+99

> <Gold.Protein.RotatedTorsions>
[ 6907 6896 6895 6894 ] final  -56.14 input  -60.11 | X-H torsion
[ 7974 7965 7964 7962 ] final   38.90 input  175.53 | X-H torsion
[ 8008 7997 7996 7995 ] final -105.88 input   59.86 | X-H torsion
[ 10167 10162 10161 10158 ] final   57.78 input  -65.29 | X-H torsion
[ 10718 10713 10712 10709 ] final   57.68 input   66.30 | X-H torsion
[ 10763 10752 10751 10750 ] final -135.70 input  -60.55 | X-H torsion
[ 11005 11000 10999 10996 ] final   11.51 input  -57.11 | X-H torsion

> <Gold.Protein.ActiveResidues>
 VAL166  LYS551  ARG553  GLY616  TRP617  ASP618  TYR619  PRO620  LYS621  CYS622 
 ASP623  PHE694  ASN695  SER759  ASP760  ASP761  ALA762  ILE779  LEU786  VAL792 
 PHE793  MET794  SER795  GLU796  ALA797  LYS798  CYS799  TRP800  GLU811  SER814 

> <Gold.Protein.RotatedAtoms>
  150.8192  134.7391  159.6756 H   0  0  0  0  0  0  0  0  0  0  0  0  # atno 6907 bound_to 6896
  152.4309  134.5776  159.9949 H   0  0  0  0  0  0  0  0  0  0  0  0  # atno 6908 bound_to 6896
  151.5965  133.3323  159.3074 H   0  0  0  0  0  0  0  0  0  0  0  0  # atno 6909 bound_to 6896
  146.1026  139.5717  142.9404 H   0  0  0  0  0  0  0  0  0  0  0  0  # atno 7974 bound_to 7965
  154.9064  140.0411  157.1921 H   0  0  0  0  0  0  0  0  0  0  0  0  # atno 8008 bound_to 7997
  154.8392  140.2911  155.5649 H   0  0  0  0  0  0  0  0  0  0  0  0  # atno 8009 bound_to 7997
  156.2991  140.2486  156.3332 H   0  0  0  0  0  0  0  0  0  0  0  0  # atno 8010 bound_to 7997
  140.1943  144.4053  150.6557 H   0  0  0  0  0  0  0  0  0  0  0  0  # atno 10167 bound_to 10162
  157.5535  130.8783  149.8999 H   0  0  0  0  0  0  0  0  0  0  0  0  # atno 10718 bound_to 10713
  154.8698  135.3695  154.4940 H   0  0  0  0  0  0  0  0  0  0  0  0  # atno 10763 bound_to 10752
  153.5585  135.7023  153.5563 H   0  0  0  0  0  0  0  0  0  0  0  0  # atno 10764 bound_to 10752
  153.3649  135.4036  155.1710 H   0  0  0  0  0  0  0  0  0  0  0  0  # atno 10765 bound_to 10752
  140.5024  134.0733  155.7797 H   0  0  0  0  0  0  0  0  0  0  0  0  # atno 11005 bound_to 11000
  145.5824  141.0381  143.2115 LP  0  0  0  0  0  0  0  0  0  0  0  0  # atno 17320 bound_to 7965
  144.7445  139.7357  143.7298 LP  0  0  0  0  0  0  0  0  0  0  0  0  # atno 17321 bound_to 7965
  140.6434  143.2208  151.6239 LP  0  0  0  0  0  0  0  0  0  0  0  0  # atno 17342 bound_to 10162
  139.5243  144.3108  152.0994 LP  0  0  0  0  0  0  0  0  0  0  0  0  # atno 17343 bound_to 10162
  156.0597  130.3702  150.1009 LP  0  0  0  0  0  0  0  0  0  0  0  0  # atno 17370 bound_to 10713
  156.9180  130.9673  151.3553 LP  0  0  0  0  0  0  0  0  0  0  0  0  # atno 17371 bound_to 10713
  141.1428  133.9107  157.2285 LP  0  0  0  0  0  0  0  0  0  0  0  0  # atno 17394 bound_to 11000
  139.9705  135.0129  156.9501 LP  0  0  0  0  0  0  0  0  0  0  0  0  # atno 17395 bound_to 11000

$$$$
