AV-unprocessed.smi:2799|AV-procd|sdf|10789|dock5
  -GOLD-   2272015223D 1   1.00000     0.00000
 Structure written by MMmdl.
 52 53  0  0  0  0  0  0  0  0  2 V2000
  149.6724  138.7200  154.3830 C   0  0  0  0  0  0  0  0  0  0  0  0
  148.2852  139.0052  153.7839 C   0  0  0  0  0  0  0  0  0  0  0  0
  147.8967  140.4745  154.0070 C   0  0  0  0  0  0  0  0  0  0  0  0
  147.2071  138.0627  154.3551 C   0  0  0  0  0  0  0  0  0  0  0  0
  146.9182  136.9295  153.4289 N   0  3  2  0  0  0  0  0  0  0  0  0
  145.8644  137.3270  152.4530 C   0  0  0  0  0  0  0  0  0  0  0  0
  145.6033  136.2474  151.3999 C   0  0  0  0  0  0  0  0  0  0  0  0
  145.1798  134.9541  152.0893 C   0  0  0  0  0  0  0  0  0  0  0  0
  146.2795  134.5231  153.0606 C   0  0  0  0  0  0  0  0  0  0  0  0
  146.6485  135.6145  154.1024 C   0  0  1  0  0  0  0  0  0  0  0  0
  147.8703  135.1339  154.9380 C   0  0  0  0  0  0  0  0  0  0  0  0
  147.8044  135.5551  156.3359 N   0  0  0  0  0  0  0  0  0  0  0  0
  147.6398  134.7418  157.3896 C   0  0  0  0  0  0  0  0  0  0  0  0
  147.4962  133.5241  157.2850 O   0  0  0  0  0  0  0  0  0  0  0  0
  147.6660  135.4385  158.5407 N   0  0  0  0  0  0  0  0  0  0  0  0
  147.5123  134.9858  159.8631 C   0  0  0  0  0  0  0  0  0  0  0  0
  147.2746  133.6974  160.2161 C   0  0  0  0  0  0  0  0  0  0  0  0
  147.1227  133.3239  161.6019 C   0  0  0  0  0  0  0  0  0  0  0  0
  147.2076  134.2833  162.5338 C   0  0  0  0  0  0  0  0  0  0  0  0
  147.4387  135.6259  162.1906 N   0  0  0  0  0  0  0  0  0  0  0  0
  147.5161  136.6002  163.2823 C   0  0  0  0  0  0  0  0  0  0  0  0
  147.6000  136.0359  160.8972 C   0  0  0  0  0  0  0  0  0  0  0  0
  147.8075  137.2208  160.6244 O   0  0  0  0  0  0  0  0  0  0  0  0
  149.6694  138.8441  155.4664 H   0  0  0  0  0  0  0  0  0  0  0  0
  150.4230  139.3969  153.9736 H   0  0  0  0  0  0  0  0  0  0  0  0
  150.0013  137.7039  154.1649 H   0  0  0  0  0  0  0  0  0  0  0  0
  148.3469  138.8490  152.7062 H   0  0  0  0  0  0  0  0  0  0  0  0
  147.8193  140.7078  155.0696 H   0  0  0  0  0  0  0  0  0  0  0  0
  146.9360  140.7033  153.5448 H   0  0  0  0  0  0  0  0  0  0  0  0
  148.6362  141.1477  153.5722 H   0  0  0  0  0  0  0  0  0  0  0  0
  147.5091  137.7352  155.3462 H   0  0  0  0  0  0  0  0  0  0  0  0
  146.2896  138.6246  154.5380 H   0  0  0  0  0  0  0  0  0  0  0  0
  144.9373  137.5447  152.9863 H   0  0  0  0  0  0  0  0  0  0  0  0
  146.1621  138.2485  151.9514 H   0  0  0  0  0  0  0  0  0  0  0  0
  144.8236  136.5765  150.7123 H   0  0  0  0  0  0  0  0  0  0  0  0
  146.5000  136.0812  150.8011 H   0  0  0  0  0  0  0  0  0  0  0  0
  144.2416  135.1017  152.6257 H   0  0  0  0  0  0  0  0  0  0  0  0
  145.0013  134.1726  151.3502 H   0  0  0  0  0  0  0  0  0  0  0  0
  145.9514  133.6127  153.5623 H   0  0  0  0  0  0  0  0  0  0  0  0
  147.1680  134.2517  152.4882 H   0  0  0  0  0  0  0  0  0  0  0  0
  145.7959  135.7563  154.7688 H   0  0  0  0  0  0  0  0  0  0  0  0
  147.9687  134.0497  154.8622 H   0  0  0  0  0  0  0  0  0  0  0  0
  148.8102  135.5367  154.5693 H   0  0  0  0  0  0  0  0  0  0  0  0
  147.9157  136.5422  156.5171 H   0  0  0  0  0  0  0  0  0  0  0  0
  147.8572  136.4268  158.4604 H   0  0  0  0  0  0  0  0  0  0  0  0
  147.1760  132.9136  159.4831 H   0  0  0  0  0  0  0  0  0  0  0  0
  146.9473  132.2956  161.8811 H   0  0  0  0  0  0  0  0  0  0  0  0
  147.1073  134.0840  163.5908 H   0  0  0  0  0  0  0  0  0  0  0  0
  146.8255  137.4280  163.1143 H   0  0  0  0  0  0  0  0  0  0  0  0
  148.5251  137.0083  163.3555 H   0  0  0  0  0  0  0  0  0  0  0  0
  147.2664  136.1667  164.2514 H   0  0  0  0  0  0  0  0  0  0  0  0
  147.7614  136.7837  152.8922 H   0  0  0  0  0  0  0  0  0  0  0  0
  1  2  1  0  0  0  0
  1 24  1  0  0  0  0
  1 25  1  0  0  0  0
  1 26  1  0  0  0  0
  2  3  1  0  0  0  0
  2  4  1  0  0  0  0
  2 27  1  0  0  0  0
  3 28  1  0  0  0  0
  3 29  1  0  0  0  0
  3 30  1  0  0  0  0
  4  5  1  0  0  0  0
  4 31  1  0  0  0  0
  4 32  1  0  0  0  0
  5 10  1  0  0  0  0
  5  6  1  0  0  0  0
  5 52  1  0  0  0  0
  6  7  1  0  0  0  0
  6 33  1  0  0  0  0
  6 34  1  0  0  0  0
  7  8  1  0  0  0  0
  7 35  1  0  0  0  0
  7 36  1  0  0  0  0
  8  9  1  0  0  0  0
  8 37  1  0  0  0  0
  8 38  1  0  0  0  0
  9 10  1  0  0  0  0
  9 39  1  0  0  0  0
  9 40  1  0  0  0  0
 10 11  1  0  0  0  0
 10 41  1  0  0  0  0
 11 12  1  0  0  0  0
 11 42  1  0  0  0  0
 11 43  1  0  0  0  0
 12 13  1  0  0  0  0
 12 44  1  0  0  0  0
 13 14  2  0  0  0  0
 13 15  1  0  0  0  0
 15 16  1  0  0  0  0
 15 45  1  0  0  0  0
 16 22  1  0  0  0  0
 16 17  2  0  0  0  0
 17 18  1  0  0  0  0
 17 46  1  0  0  0  0
 18 19  2  0  0  0  0
 18 47  1  0  0  0  0
 19 20  1  0  0  0  0
 19 48  1  0  0  0  0
 20 21  1  0  0  0  0
 20 22  1  0  0  0  0
 21 49  1  0  0  0  0
 21 50  1  0  0  0  0
 21 51  1  0  0  0  0
 22 23  2  0  0  0  0
M  CHG  1   5   1
M  END
> <s_m_source_file>
AV-unprocessed.smi

> <i_m_source_file_index>
2799

> <i_lp_mmshare_version>
43012

> <i_f3d_flags>
0

> <s_epik_input>
W0NIM11bQ0hdKFtDSDNdKVtDSDJdTjFbQ0gyXVtDSDJdW0NIMl1bQ0gyXVtDQEhdMVtDSDJdW05IXUMoPU8pW05IXWMyW2NIXVtjSF1bY0hdbihbQ0gzXSljMj1P

> <s_epik_cmdline>
J2VwaWtfcHl0aG9uJywgJy1waCcsICc3LjAnLCAnLXRuJywgJzgnLCAnLW1hJywgJzIwMCcsICctbWV0YWxfYmluZGluZycsICctaW1hZScsICc8aW5maWxlLm1hZT4nLCAnLW9tYWUnLCAnPG91dGZpbGUubWFlPic=

> <r_lp_tautomer_probability>
1

> <r_epik_Ionization_Penalty>
0.0010885

> <r_epik_Ionization_Penalty_Charging>
0.00106921

> <r_epik_Ionization_Penalty_Neutral>
1.92865e-05

> <r_epik_State_Penalty>
0.000697184

> <r_epik_Charging_Adjusted_Penalty>
0.0017664

> <i_epik_Tot_Q>
1

> <i_epik_Tot_abs_Q>
1

> <r_epik_Metal_State_Penalty>
-0

> <b_epik_Metal_Only>
0

> <s_lp_Force_Field>
OPLS_2005

> <r_lp_Energy>
37.4199

> <b_lp_Chiralities_Consistent>
1

> <s_lp_Variant>
AV-unprocessed.smi:2799-1

> <Gold.Version>
5.8.1

> <Gold.Id.Protein>
6NUR|6NUR_protein|mol2

> <Gold.PLP.Fitness>
45.6323

> <Gold.PLP.PLP>
-37.6613

> <Gold.PLP.part.hbond>
-3.0000

> <Gold.PLP.part.metal>
0.0000

> <Gold.PLP.part.buried>
-3.4382

> <Gold.PLP.part.nonpolar>
-31.6012

> <Gold.PLP.part.repulsive>
0.0483

> <Gold.PLP.ligand.clash>
0.0000

> <Gold.PLP.ligand.torsion>
1.4823

> <Gold.PLP.Chemscore.Hbond>
3.6000

> <Gold.PLP.Chemscore.CHOScore>
0.0000

> <Gold.PLP.Chemscore.Metal>
0.0000

> <Gold.Chemscore.Hbonds>
donor molecule, donor type, donor heavy atom, donor atom, acceptor molecule, acceptor atom, score
      L1  H     5    52       P1  7948  2.00
      P1  H  6931  6943       L1    23  0.75
      P1  H  6934  6947       L1    23  0.86

> <Gold.PLP.Chemscore.Internal.Correction>
0.1356

> <Gold.Rescore>
     Score         DG    S(hbond)    S(metal)    S(lipo)     H(rot)  DE(clash)    DE(int)     intcor
     16.81     -19.56       2.62        0.00      79.73       1.57       0.05       2.69       ----

> <Gold.Chemscore.Fitness>
16.8145

> <Gold.Chemscore.DG>
-19.5550

> <Gold.Chemscore.ZeroCoef>
-5.4800

> <Gold.Chemscore.Hbond>
2.6235

> <Gold.Chemscore.Metal>
0.0000

> <Gold.Chemscore.Lipo>
79.7304

> <Gold.Chemscore.Internal_Hbond>
0.0000

> <Gold.Chemscore.DEClash>
0.0504

> <Gold.Chemscore.DEInternal>
2.6901

> <Gold.Chemscore.Rot>
1.5688

> <Gold.Chemscore.Internal.Correction>
   9.000000E+99

> <Gold.Chemscore.Hbonds>
donor molecule, donor type, donor heavy atom, donor atom, acceptor molecule, acceptor atom, score
      L1  H     5    52       P1  7948  1.00
      P1  H  6931  6943       L1    23  0.67
      P1  H  6934  6947       L1    23  0.84

> <Gold.Chemscore.Hbond.Weighted>
-8.7626

> <Gold.Chemscore.Metal.Weighted>
-0.0000

> <Gold.Chemscore.Lipo.Weighted>
-9.3285

> <Gold.Chemscore.Internal_Hbond.Weighted>
0.0000

> <Gold.Chemscore.DEClash.Weighted>
0.0504

> <Gold.Chemscore.DEInternal.Weighted>
2.6901

> <Gold.Chemscore.Rot.Weighted>
4.0161

> <Gold.Chemscore.Internal.Correction.Weighted>
   9.000000E+99

> <Gold.Protein.RotatedTorsions>
[ 6907 6896 6895 6894 ] final  -48.38 input  -60.11 | X-H torsion
[ 7974 7965 7964 7962 ] final   12.95 input  175.53 | X-H torsion
[ 8008 7997 7996 7995 ] final -110.45 input   59.86 | X-H torsion
[ 10167 10162 10161 10158 ] final   38.95 input  -65.29 | X-H torsion
[ 10718 10713 10712 10709 ] final   11.82 input   66.30 | X-H torsion
[ 10763 10752 10751 10750 ] final -179.13 input  -60.55 | X-H torsion
[ 11005 11000 10999 10996 ] final   25.79 input  -57.11 | X-H torsion

> <Gold.Protein.ActiveResidues>
 VAL166  LYS551  ARG553  GLY616  TRP617  ASP618  TYR619  PRO620  LYS621  CYS622 
 ASP623  PHE694  ASN695  SER759  ASP760  ASP761  ALA762  ILE779  LEU786  VAL792 
 PHE793  MET794  SER795  GLU796  ALA797  LYS798  CYS799  TRP800  GLU811  SER814 

> <Gold.Protein.RotatedAtoms>
  150.8911  134.8315  159.7293 H   0  0  0  0  0  0  0  0  0  0  0  0  # atno 6907 bound_to 6896
  152.4837  134.4647  159.9626 H   0  0  0  0  0  0  0  0  0  0  0  0  # atno 6908 bound_to 6896
  151.4709  133.3530  159.2859 H   0  0  0  0  0  0  0  0  0  0  0  0  # atno 6909 bound_to 6896
  146.2340  139.9261  142.8503 H   0  0  0  0  0  0  0  0  0  0  0  0  # atno 7974 bound_to 7965
  154.9747  140.0397  157.2250 H   0  0  0  0  0  0  0  0  0  0  0  0  # atno 8008 bound_to 7997
  154.7769  140.2812  155.6072 H   0  0  0  0  0  0  0  0  0  0  0  0  # atno 8009 bound_to 7997
  156.2930  140.2599  156.2585 H   0  0  0  0  0  0  0  0  0  0  0  0  # atno 8010 bound_to 7997
  140.3887  144.1882  150.6130 H   0  0  0  0  0  0  0  0  0  0  0  0  # atno 10167 bound_to 10162
  157.0012  130.6080  149.5696 H   0  0  0  0  0  0  0  0  0  0  0  0  # atno 10718 bound_to 10713
  154.5389  135.2805  155.1113 H   0  0  0  0  0  0  0  0  0  0  0  0  # atno 10763 bound_to 10752
  154.2603  135.6323  153.5276 H   0  0  0  0  0  0  0  0  0  0  0  0  # atno 10764 bound_to 10752
  152.9974  135.5604  154.5923 H   0  0  0  0  0  0  0  0  0  0  0  0  # atno 10765 bound_to 10752
  140.3440  134.2302  155.7687 H   0  0  0  0  0  0  0  0  0  0  0  0  # atno 11005 bound_to 11000
  145.2089  140.9887  143.4112 LP  0  0  0  0  0  0  0  0  0  0  0  0  # atno 17320 bound_to 7965
  144.9708  139.3882  143.6310 LP  0  0  0  0  0  0  0  0  0  0  0  0  # atno 17321 bound_to 7965
  140.4862  143.2362  151.8884 LP  0  0  0  0  0  0  0  0  0  0  0  0  # atno 17342 bound_to 10162
  139.4790  144.5216  151.8794 LP  0  0  0  0  0  0  0  0  0  0  0  0  # atno 17343 bound_to 10162
  156.0170  130.5265  150.8165 LP  0  0  0  0  0  0  0  0  0  0  0  0  # atno 17370 bound_to 10713
  157.5389  131.0940  150.9855 LP  0  0  0  0  0  0  0  0  0  0  0  0  # atno 17371 bound_to 10713
  141.2031  133.7922  157.0358 LP  0  0  0  0  0  0  0  0  0  0  0  0  # atno 17394 bound_to 11000
  140.0758  134.9677  157.1542 LP  0  0  0  0  0  0  0  0  0  0  0  0  # atno 17395 bound_to 11000

$$$$
