AV-unprocessed.smi:230|AV-procd|sdf|1763|dock5
  -GOLD-   2262020293D 1   1.00000     0.00000
 Structure written by MMmdl.
 56 59  0  0  0  0  0  0  0  0  1 V2000
  153.1859  138.8251  159.7570 C   0  0  0  0  0  0  0  0  0  0  0  0
  152.0843  139.5625  158.9833 C   0  0  0  0  0  0  0  0  0  0  0  0
  152.3873  141.0610  158.7192 C   0  0  2  0  0  0  0  0  0  0  0  0
  152.5377  141.8330  160.0498 C   0  0  0  0  0  0  0  0  0  0  0  0
  152.7224  143.2283  159.8250 O   0  0  0  0  0  0  0  0  0  0  0  0
  151.6856  143.8664  159.0774 C   0  0  0  0  0  0  0  0  0  0  0  0
  150.3580  143.8991  159.8648 C   0  0  0  0  0  0  0  0  0  0  0  0
  152.1718  145.3052  158.8438 C   0  0  0  0  0  0  0  0  0  0  0  0
  151.5416  143.1373  157.7273 C   0  0  0  0  0  0  0  0  0  0  0  0
  151.3431  141.7039  157.9120 N   0  0  0  0  0  0  0  0  0  0  0  0
  151.0304  141.1250  156.7298 C   0  0  0  0  0  0  0  0  0  0  0  0
  151.9357  140.3375  156.0900 N   0  0  0  0  0  0  0  0  0  0  0  0
  151.6215  139.7786  154.9172 C   0  0  0  0  0  0  0  0  0  0  0  0
  150.4858  139.8775  154.2220 N   0  0  0  0  0  0  0  0  0  0  0  0
  149.5808  140.6736  154.8613 C   0  0  0  0  0  0  0  0  0  0  0  0
  149.7733  141.3346  156.1057 C   0  0  0  0  0  0  0  0  0  0  0  0
  148.6385  142.0602  156.4435 N   0  0  0  0  0  0  0  0  0  0  0  0
  147.8159  141.8351  155.4550 C   0  0  0  0  0  0  0  0  0  0  0  0
  148.2976  141.0076  154.4650 N   0  0  0  0  0  0  0  0  0  0  0  0
  147.5963  140.5890  153.2610 C   0  0  0  0  0  0  0  0  0  0  0  0
  147.3045  139.0689  153.2015 C   0  0  0  0  0  0  0  0  0  0  0  0
  148.5501  138.3921  153.2025 O   0  0  0  0  0  0  0  0  0  0  0  0
  146.5083  138.6247  154.4451 C   0  0  0  0  0  0  0  0  0  0  0  0
  146.0499  137.1582  154.3484 C   0  0  0  0  0  0  0  0  0  0  0  0
  145.2999  136.9604  153.1561 O   0  0  0  0  0  0  0  0  0  0  0  0
  146.0653  137.1934  151.9802 C   0  0  0  0  0  0  0  0  0  0  0  0
  146.5278  138.6605  151.9306 C   0  0  0  0  0  0  0  0  0  0  0  0
  152.9606  137.7606  159.8235 H   0  0  0  0  0  0  0  0  0  0  0  0
  153.2851  139.1980  160.7761 H   0  0  0  0  0  0  0  0  0  0  0  0
  154.1515  138.9287  159.2612 H   0  0  0  0  0  0  0  0  0  0  0  0
  151.9481  139.0308  158.0419 H   0  0  0  0  0  0  0  0  0  0  0  0
  151.1391  139.4666  159.5190 H   0  0  0  0  0  0  0  0  0  0  0  0
  153.3287  141.1392  158.1730 H   0  0  0  0  0  0  0  0  0  0  0  0
  151.6810  141.6632  160.7020 H   0  0  0  0  0  0  0  0  0  0  0  0
  153.4105  141.4787  160.5973 H   0  0  0  0  0  0  0  0  0  0  0  0
  149.6062  144.4851  159.3352 H   0  0  0  0  0  0  0  0  0  0  0  0
  150.4955  144.3511  160.8475 H   0  0  0  0  0  0  0  0  0  0  0  0
  149.9352  142.9059  160.0136 H   0  0  0  0  0  0  0  0  0  0  0  0
  151.4557  145.8753  158.2512 H   0  0  0  0  0  0  0  0  0  0  0  0
  153.1249  145.3195  158.3137 H   0  0  0  0  0  0  0  0  0  0  0  0
  152.3143  145.8314  159.7882 H   0  0  0  0  0  0  0  0  0  0  0  0
  150.7110  143.5649  157.1628 H   0  0  0  0  0  0  0  0  0  0  0  0
  152.4411  143.2892  157.1278 H   0  0  0  0  0  0  0  0  0  0  0  0
  152.3903  139.1643  154.4720 H   0  0  0  0  0  0  0  0  0  0  0  0
  146.8250  142.2643  155.4224 H   0  0  0  0  0  0  0  0  0  0  0  0
  146.6673  141.1570  153.1928 H   0  0  0  0  0  0  0  0  0  0  0  0
  148.1960  140.8879  152.4005 H   0  0  0  0  0  0  0  0  0  0  0  0
  148.4500  137.5785  152.7324 H   0  0  0  0  0  0  0  0  0  0  0  0
  147.0972  138.7741  155.3510 H   0  0  0  0  0  0  0  0  0  0  0  0
  145.6235  139.2542  154.5498 H   0  0  0  0  0  0  0  0  0  0  0  0
  146.9011  136.4762  154.3738 H   0  0  0  0  0  0  0  0  0  0  0  0
  145.4213  136.9078  155.2032 H   0  0  0  0  0  0  0  0  0  0  0  0
  146.9161  136.5112  151.9447 H   0  0  0  0  0  0  0  0  0  0  0  0
  145.4475  136.9693  151.1106 H   0  0  0  0  0  0  0  0  0  0  0  0
  145.6481  139.2972  151.8278 H   0  0  0  0  0  0  0  0  0  0  0  0
  147.1297  138.8233  151.0359 H   0  0  0  0  0  0  0  0  0  0  0  0
  1  2  1  0  0  0  0
  1 28  1  0  0  0  0
  1 29  1  0  0  0  0
  1 30  1  0  0  0  0
  2  3  1  0  0  0  0
  2 31  1  0  0  0  0
  2 32  1  0  0  0  0
  3 10  1  0  0  0  0
  3  4  1  0  0  0  0
  3 33  1  0  0  0  0
  4  5  1  0  0  0  0
  4 34  1  0  0  0  0
  4 35  1  0  0  0  0
  5  6  1  0  0  0  0
  6  7  1  0  0  0  0
  6  8  1  0  0  0  0
  6  9  1  0  0  0  0
  7 36  1  0  0  0  0
  7 37  1  0  0  0  0
  7 38  1  0  0  0  0
  8 39  1  0  0  0  0
  8 40  1  0  0  0  0
  8 41  1  0  0  0  0
  9 10  1  0  0  0  0
  9 42  1  0  0  0  0
  9 43  1  0  0  0  0
 10 11  1  0  0  0  0
 11 16  1  0  0  0  0
 11 12  2  0  0  0  0
 12 13  1  0  0  0  0
 13 14  2  0  0  0  0
 13 44  1  0  0  0  0
 14 15  1  0  0  0  0
 15 19  1  0  0  0  0
 15 16  2  0  0  0  0
 16 17  1  0  0  0  0
 17 18  2  0  0  0  0
 18 19  1  0  0  0  0
 18 45  1  0  0  0  0
 19 20  1  0  0  0  0
 20 21  1  0  0  0  0
 20 46  1  0  0  0  0
 20 47  1  0  0  0  0
 21 27  1  0  0  0  0
 21 22  1  0  0  0  0
 21 23  1  0  0  0  0
 22 48  1  0  0  0  0
 23 24  1  0  0  0  0
 23 49  1  0  0  0  0
 23 50  1  0  0  0  0
 24 25  1  0  0  0  0
 24 51  1  0  0  0  0
 24 52  1  0  0  0  0
 25 26  1  0  0  0  0
 26 27  1  0  0  0  0
 26 53  1  0  0  0  0
 26 54  1  0  0  0  0
 27 55  1  0  0  0  0
 27 56  1  0  0  0  0
M  END
> <s_m_source_file>
AV-unprocessed.smi

> <i_m_source_file_index>
230

> <i_lp_mmshare_version>
43012

> <i_f3d_flags>
0

> <s_epik_input>
W0NIM11DMShbQ0gzXSlPW0NIMl1bQ0BASF0oW0NIMl1bQ0gzXSlOKFtDSDJdMSljKG5bY0hdbjIpYyhjMjMpbltjSF1uM1tDSDJdQzQoW09IXSlbQ0gyXVtDSDJdT1tDSDJdW0NIMl00

> <s_epik_cmdline>
J2VwaWtfcHl0aG9uJywgJy1waCcsICc3LjAnLCAnLXRuJywgJzgnLCAnLW1hJywgJzIwMCcsICctbWV0YWxfYmluZGluZycsICctaW1hZScsICc8aW5maWxlLm1hZT4nLCAnLW9tYWUnLCAnPG91dGZpbGUubWFlPic=

> <r_lp_tautomer_probability>
1

> <r_epik_Ionization_Penalty>
0.000120535

> <r_epik_Ionization_Penalty_Charging>
0

> <r_epik_Ionization_Penalty_Neutral>
0.000120535

> <r_epik_State_Penalty>
-0

> <r_epik_Charging_Adjusted_Penalty>
0

> <i_epik_Tot_Q>
0

> <i_epik_Tot_abs_Q>
0

> <r_epik_Metal_State_Penalty>
-0

> <b_epik_Metal_Only>
0

> <s_lp_Force_Field>
OPLS_2005

> <r_lp_Energy>
33.8878

> <b_lp_Chiralities_Consistent>
1

> <s_lp_Variant>
AV-unprocessed.smi:230-1

> <Gold.Version>
5.8.1

> <Gold.Id.Protein>
6NUR|6NUR_protein|mol2

> <Gold.PLP.Fitness>
47.5405

> <Gold.PLP.PLP>
-45.3684

> <Gold.PLP.part.hbond>
-3.0000

> <Gold.PLP.part.metal>
0.0000

> <Gold.PLP.part.buried>
-0.3770

> <Gold.PLP.part.nonpolar>
-45.0252

> <Gold.PLP.part.repulsive>
2.8268

> <Gold.PLP.ligand.clash>
0.0000

> <Gold.PLP.ligand.torsion>
0.4940

> <Gold.PLP.Chemscore.Hbond>
1.0000

> <Gold.PLP.Chemscore.CHOScore>
0.0000

> <Gold.PLP.Chemscore.Metal>
0.0000

> <Gold.Chemscore.Hbonds>
donor molecule, donor type, donor heavy atom, donor atom, acceptor molecule, acceptor atom, score
      L1  H    22    48       P1  7948  1.00

> <Gold.PLP.Chemscore.Internal.Correction>
0.1601

> <Gold.Rescore>
     Score         DG    S(hbond)    S(metal)    S(lipo)     H(rot)  DE(clash)    DE(int)     intcor
     13.79     -15.22       0.89        0.00     106.18       2.21       0.52       0.90       ----

> <Gold.Chemscore.Fitness>
13.7943

> <Gold.Chemscore.DG>
-15.2155

> <Gold.Chemscore.ZeroCoef>
-5.4800

> <Gold.Chemscore.Hbond>
0.8899

> <Gold.Chemscore.Metal>
0.0000

> <Gold.Chemscore.Lipo>
106.1776

> <Gold.Chemscore.Internal_Hbond>
0.0000

> <Gold.Chemscore.DEClash>
0.5250

> <Gold.Chemscore.DEInternal>
0.8963

> <Gold.Chemscore.Rot>
2.2107

> <Gold.Chemscore.Internal.Correction>
   9.000000E+99

> <Gold.Chemscore.Hbonds>
donor molecule, donor type, donor heavy atom, donor atom, acceptor molecule, acceptor atom, score
      L1  H    22    48       P1  7948  0.98

> <Gold.Chemscore.Hbond.Weighted>
-2.9722

> <Gold.Chemscore.Metal.Weighted>
-0.0000

> <Gold.Chemscore.Lipo.Weighted>
-12.4228

> <Gold.Chemscore.Internal_Hbond.Weighted>
0.0000

> <Gold.Chemscore.DEClash.Weighted>
0.5250

> <Gold.Chemscore.DEInternal.Weighted>
0.8963

> <Gold.Chemscore.Rot.Weighted>
5.6595

> <Gold.Chemscore.Internal.Correction.Weighted>
   9.000000E+99

> <Gold.Protein.RotatedTorsions>
[ 6907 6896 6895 6894 ] final -145.15 input  -60.11 | X-H torsion
[ 7974 7965 7964 7962 ] final   -1.64 input  175.53 | X-H torsion
[ 8008 7997 7996 7995 ] final -111.13 input   59.86 | X-H torsion
[ 10167 10162 10161 10158 ] final   67.33 input  -65.29 | X-H torsion
[ 10718 10713 10712 10709 ] final   96.29 input   66.30 | X-H torsion
[ 10763 10752 10751 10750 ] final -111.23 input  -60.55 | X-H torsion
[ 11005 11000 10999 10996 ] final  130.16 input  -57.11 | X-H torsion

> <Gold.Protein.ActiveResidues>
 VAL166  LYS551  ARG553  GLY616  TRP617  ASP618  TYR619  PRO620  LYS621  CYS622 
 ASP623  PHE694  ASN695  SER759  ASP760  ASP761  ALA762  ILE779  LEU786  VAL792 
 PHE793  MET794  SER795  GLU796  ALA797  LYS798  CYS799  TRP800  GLU811  SER814 

> <Gold.Protein.RotatedAtoms>
  151.1239  133.5085  159.2600 H   0  0  0  0  0  0  0  0  0  0  0  0  # atno 6907 bound_to 6896
  151.1832  135.0369  159.8811 H   0  0  0  0  0  0  0  0  0  0  0  0  # atno 6908 bound_to 6896
  152.5457  134.1088  159.8403 H   0  0  0  0  0  0  0  0  0  0  0  0  # atno 6909 bound_to 6896
  146.2414  140.1451  142.8335 H   0  0  0  0  0  0  0  0  0  0  0  0  # atno 7974 bound_to 7965
  154.9851  140.0396  157.2295 H   0  0  0  0  0  0  0  0  0  0  0  0  # atno 8008 bound_to 7997
  154.7678  140.2796  155.6139 H   0  0  0  0  0  0  0  0  0  0  0  0  # atno 8009 bound_to 7997
  156.2916  140.2616  156.2473 H   0  0  0  0  0  0  0  0  0  0  0  0  # atno 8010 bound_to 7997
  140.0907  144.4990  150.7101 H   0  0  0  0  0  0  0  0  0  0  0  0  # atno 10167 bound_to 10162
  157.6928  131.0573  150.4469 H   0  0  0  0  0  0  0  0  0  0  0  0  # atno 10718 bound_to 10713
  154.8289  135.4535  154.1007 H   0  0  0  0  0  0  0  0  0  0  0  0  # atno 10763 bound_to 10752
  153.2297  135.6904  153.7910 H   0  0  0  0  0  0  0  0  0  0  0  0  # atno 10764 bound_to 10752
  153.7297  135.3329  155.3260 H   0  0  0  0  0  0  0  0  0  0  0  0  # atno 10765 bound_to 10752
  139.9656  134.9591  156.9253 H   0  0  0  0  0  0  0  0  0  0  0  0  # atno 11005 bound_to 11000
  145.0214  140.8797  143.5164 LP  0  0  0  0  0  0  0  0  0  0  0  0  # atno 17320 bound_to 7965
  145.1500  139.2520  143.5446 LP  0  0  0  0  0  0  0  0  0  0  0  0  # atno 17321 bound_to 7965
  140.7030  143.2448  151.4809 LP  0  0  0  0  0  0  0  0  0  0  0  0  # atno 17342 bound_to 10162
  139.5726  144.1892  152.1858 LP  0  0  0  0  0  0  0  0  0  0  0  0  # atno 17343 bound_to 10162
  156.4823  130.4076  149.6454 LP  0  0  0  0  0  0  0  0  0  0  0  0  # atno 17370 bound_to 10713
  156.3495  130.7424  151.2382 LP  0  0  0  0  0  0  0  0  0  0  0  0  # atno 17371 bound_to 10713
  140.5404  134.0725  155.7340 LP  0  0  0  0  0  0  0  0  0  0  0  0  # atno 17394 bound_to 11000
  141.1335  133.9261  157.2484 LP  0  0  0  0  0  0  0  0  0  0  0  0  # atno 17395 bound_to 11000

$$$$
