AV-unprocessed.smi:921|AV-procd|sdf|4169|dock6
  -GOLD-   22720 2 73D 1   1.00000     0.00000
 Structure written by MMmdl.
 39 41  0  0  0  0  0  0  0  0  1 V2000
  151.5791  137.8878  153.5906 N   0  0  0  0  0  0  0  0  0  0  0  0
  152.0107  138.0965  154.8375 C   0  0  0  0  0  0  0  0  0  0  0  0
  152.3487  137.1735  155.5755 O   0  0  0  0  0  0  0  0  0  0  0  0
  152.0630  139.5487  155.3277 C   0  0  0  0  0  0  0  0  0  0  0  0
  150.6972  140.1771  155.1928 C   0  0  0  0  0  0  0  0  0  0  0  0
  149.9893  140.0853  154.0622 N   0  0  0  0  0  0  0  0  0  0  0  0
  148.8339  140.7783  154.3592 C   0  0  0  0  0  0  0  0  0  0  0  0
  147.6954  141.0497  153.5671 C   0  0  0  0  0  0  0  0  0  0  0  0
  146.6178  141.7896  154.0965 C   0  0  0  0  0  0  0  0  0  0  0  0
  146.6630  142.2659  155.4227 C   0  0  0  0  0  0  0  0  0  0  0  0
  147.7874  142.0041  156.2289 C   0  0  0  0  0  0  0  0  0  0  0  0
  148.8609  141.2662  155.6947 C   0  0  0  0  0  0  0  0  0  0  0  0
  150.0817  140.8406  156.2098 N   0  0  0  0  0  0  0  0  0  0  0  0
  150.5405  141.0823  157.5730 C   0  0  0  0  0  0  0  0  0  0  0  0
  150.5053  142.5731  157.9627 C   0  0  2  0  0  0  0  0  0  0  0  0
  150.9426  143.3682  156.8787 O   0  0  0  0  0  0  0  0  0  0  0  0
  151.3130  142.8275  159.2278 C   0  0  0  0  0  0  0  0  0  0  0  0
  152.1568  141.8206  159.7482 C   0  0  0  0  0  0  0  0  0  0  0  0
  152.8976  142.0489  160.9239 C   0  0  0  0  0  0  0  0  0  0  0  0
  153.7048  141.0789  161.4146 F   0  0  0  0  0  0  0  0  0  0  0  0
  152.7975  143.2847  161.5901 C   0  0  0  0  0  0  0  0  0  0  0  0
  151.9535  144.2900  161.0815 C   0  0  0  0  0  0  0  0  0  0  0  0
  151.2108  144.0636  159.9061 C   0  0  0  0  0  0  0  0  0  0  0  0
  150.3965  145.0398  159.4370 F   0  0  0  0  0  0  0  0  0  0  0  0
  151.5423  136.9474  153.2252 H   0  0  0  0  0  0  0  0  0  0  0  0
  151.3041  138.6692  153.0133 H   0  0  0  0  0  0  0  0  0  0  0  0
  152.3751  139.5916  156.3718 H   0  0  0  0  0  0  0  0  0  0  0  0
  152.8158  140.0759  154.7462 H   0  0  0  0  0  0  0  0  0  0  0  0
  147.6514  140.6886  152.5502 H   0  0  0  0  0  0  0  0  0  0  0  0
  145.7525  141.9922  153.4825 H   0  0  0  0  0  0  0  0  0  0  0  0
  145.8335  142.8316  155.8212 H   0  0  0  0  0  0  0  0  0  0  0  0
  147.8248  142.3672  157.2452 H   0  0  0  0  0  0  0  0  0  0  0  0
  149.8882  140.5212  158.2435 H   0  0  0  0  0  0  0  0  0  0  0  0
  151.5317  140.6551  157.7179 H   0  0  0  0  0  0  0  0  0  0  0  0
  149.4699  142.8607  158.1476 H   0  0  0  0  0  0  0  0  0  0  0  0
  150.1979  143.5706  156.3335 H   0  0  0  0  0  0  0  0  0  0  0  0
  152.2362  140.8662  159.2484 H   0  0  0  0  0  0  0  0  0  0  0  0
  153.3648  143.4604  162.4921 H   0  0  0  0  0  0  0  0  0  0  0  0
  151.8741  145.2365  161.5954 H   0  0  0  0  0  0  0  0  0  0  0  0
  1  2  1  0  0  0  0
  1 25  1  0  0  0  0
  1 26  1  0  0  0  0
  2  3  2  0  0  0  0
  2  4  1  0  0  0  0
  4  5  1  0  0  0  0
  4 27  1  0  0  0  0
  4 28  1  0  0  0  0
  5 13  1  0  0  0  0
  5  6  2  0  0  0  0
  6  7  1  0  0  0  0
  7 12  2  0  0  0  0
  7  8  1  0  0  0  0
  8  9  2  0  0  0  0
  8 29  1  0  0  0  0
  9 10  1  0  0  0  0
  9 30  1  0  0  0  0
 10 11  2  0  0  0  0
 10 31  1  0  0  0  0
 11 12  1  0  0  0  0
 11 32  1  0  0  0  0
 12 13  1  0  0  0  0
 13 14  1  0  0  0  0
 14 15  1  0  0  0  0
 14 33  1  0  0  0  0
 14 34  1  0  0  0  0
 15 16  1  0  0  0  0
 15 17  1  0  0  0  0
 15 35  1  0  0  0  0
 16 36  1  0  0  0  0
 17 23  1  0  0  0  0
 17 18  2  0  0  0  0
 18 19  1  0  0  0  0
 18 37  1  0  0  0  0
 19 20  1  0  0  0  0
 19 21  2  0  0  0  0
 21 22  1  0  0  0  0
 21 38  1  0  0  0  0
 22 23  2  0  0  0  0
 22 39  1  0  0  0  0
 23 24  1  0  0  0  0
M  END
> <s_m_source_file>
AV-unprocessed.smi

> <i_m_source_file_index>
921

> <i_lp_mmshare_version>
43012

> <i_f3d_flags>
0

> <s_epik_input>
W2NIXTFbY0hdW2NIXVtjSF1jKGMxMiluKGMobjIpW0NIMl1DKD1PKVtOSDJdKVtDSDJdW0NASF0oW09IXSljM1tjSF1jKEYpW2NIXVtjSF1jM0Y=

> <s_epik_cmdline>
J2VwaWtfcHl0aG9uJywgJy1waCcsICc3LjAnLCAnLXRuJywgJzgnLCAnLW1hJywgJzIwMCcsICctbWV0YWxfYmluZGluZycsICctaW1hZScsICc8aW5maWxlLm1hZT4nLCAnLW9tYWUnLCAnPG91dGZpbGUubWFlPic=

> <r_epik_Ionization_Penalty>
0.0366909

> <r_epik_Ionization_Penalty_Charging>
0

> <r_epik_Ionization_Penalty_Neutral>
0.0366909

> <r_epik_State_Penalty>
0.0306642

> <r_epik_Charging_Adjusted_Penalty>
0.0306642

> <i_epik_Tot_Q>
0

> <i_epik_Tot_abs_Q>
0

> <r_epik_Metal_State_Penalty>
0.028853

> <b_epik_Metal_Only>
0

> <s_lp_Force_Field>
OPLS_2005

> <r_lp_Energy>
14.0365

> <b_lp_Chiralities_Consistent>
1

> <s_lp_Variant>
AV-unprocessed.smi:921-1

> <Gold.Version>
5.8.1

> <Gold.Id.Protein>
6NUR|6NUR_protein|mol2

> <Gold.PLP.Fitness>
59.5891

> <Gold.PLP.PLP>
-52.8156

> <Gold.PLP.part.hbond>
-4.0000

> <Gold.PLP.part.metal>
0.0000

> <Gold.PLP.part.buried>
-4.1884

> <Gold.PLP.part.nonpolar>
-46.2950

> <Gold.PLP.part.repulsive>
1.3773

> <Gold.PLP.ligand.clash>
0.0000

> <Gold.PLP.ligand.torsion>
0.4764

> <Gold.PLP.Chemscore.Hbond>
2.5621

> <Gold.PLP.Chemscore.CHOScore>
0.0000

> <Gold.PLP.Chemscore.Metal>
0.0000

> <Gold.Chemscore.Hbonds>
donor molecule, donor type, donor heavy atom, donor atom, acceptor molecule, acceptor atom, score
      L1  H     1    25       P1  7949  0.80
      L1  H    16    36       P1  8028  1.00
      P1  H 10752 10763       L1     3  0.78

> <Gold.PLP.Chemscore.Internal.Correction>
0.0399

> <Gold.Rescore>
     Score         DG    S(hbond)    S(metal)    S(lipo)     H(rot)  DE(clash)    DE(int)     intcor
     13.41     -14.92       1.20        0.00     114.62       3.11       0.56       0.95       ----

> <Gold.Chemscore.Fitness>
13.4124

> <Gold.Chemscore.DG>
-14.9226

> <Gold.Chemscore.ZeroCoef>
-5.4800

> <Gold.Chemscore.Hbond>
1.1975

> <Gold.Chemscore.Metal>
0.0000

> <Gold.Chemscore.Lipo>
114.6158

> <Gold.Chemscore.Internal_Hbond>
0.0000

> <Gold.Chemscore.DEClash>
0.5578

> <Gold.Chemscore.DEInternal>
0.9525

> <Gold.Chemscore.Rot>
3.1121

> <Gold.Chemscore.Internal.Correction>
   9.000000E+99

> <Gold.Chemscore.Hbonds>
donor molecule, donor type, donor heavy atom, donor atom, acceptor molecule, acceptor atom, score
      L1  H     1    25       P1  7949  0.70
      L1  H    16    36       P1  8028  0.96
      P1  H 10752 10763       L1     3  0.76

> <Gold.Chemscore.Hbond.Weighted>
-3.9996

> <Gold.Chemscore.Metal.Weighted>
-0.0000

> <Gold.Chemscore.Lipo.Weighted>
-13.4100

> <Gold.Chemscore.Internal_Hbond.Weighted>
0.0000

> <Gold.Chemscore.DEClash.Weighted>
0.5578

> <Gold.Chemscore.DEInternal.Weighted>
0.9525

> <Gold.Chemscore.Rot.Weighted>
7.9670

> <Gold.Chemscore.Internal.Correction.Weighted>
   9.000000E+99

> <Gold.Protein.RotatedTorsions>
[ 6907 6896 6895 6894 ] final  -91.88 input  -60.11 | X-H torsion
[ 7974 7965 7964 7962 ] final   80.40 input  175.53 | X-H torsion
[ 8008 7997 7996 7995 ] final  -89.46 input   59.86 | X-H torsion
[ 10167 10162 10161 10158 ] final -137.06 input  -65.29 | X-H torsion
[ 10718 10713 10712 10709 ] final  140.22 input   66.30 | X-H torsion
[ 10763 10752 10751 10750 ] final   73.90 input  -60.55 | X-H torsion
[ 11005 11000 10999 10996 ] final   -4.73 input  -57.11 | X-H torsion

> <Gold.Protein.ActiveResidues>
 VAL166  LYS551  ARG553  GLY616  TRP617  ASP618  TYR619  PRO620  LYS621  CYS622 
 ASP623  PHE694  ASN695  SER759  ASP760  ASP761  ALA762  ILE779  LEU786  VAL792 
 PHE793  MET794  SER795  GLU796  ALA797  LYS798  CYS799  TRP800  GLU811  SER814 

> <Gold.Protein.RotatedAtoms>
  150.6898  134.2208  159.4395 H   0  0  0  0  0  0  0  0  0  0  0  0  # atno 6907 bound_to 6896
  152.0165  134.9844  160.0579 H   0  0  0  0  0  0  0  0  0  0  0  0  # atno 6908 bound_to 6896
  152.1438  133.4445  159.4817 H   0  0  0  0  0  0  0  0  0  0  0  0  # atno 6909 bound_to 6896
  145.6516  139.2449  143.1973 H   0  0  0  0  0  0  0  0  0  0  0  0  # atno 7974 bound_to 7965
  154.6869  140.0541  157.0323 H   0  0  0  0  0  0  0  0  0  0  0  0  # atno 8008 bound_to 7997
  155.0872  140.3215  155.4565 H   0  0  0  0  0  0  0  0  0  0  0  0  # atno 8009 bound_to 7997
  156.2714  140.2054  156.6000 H   0  0  0  0  0  0  0  0  0  0  0  0  # atno 8010 bound_to 7997
  139.8615  143.7071  152.2649 H   0  0  0  0  0  0  0  0  0  0  0  0  # atno 10167 bound_to 10162
  157.4057  131.1022  151.0505 H   0  0  0  0  0  0  0  0  0  0  0  0  # atno 10718 bound_to 10713
  153.0551  135.5046  154.7962 H   0  0  0  0  0  0  0  0  0  0  0  0  # atno 10763 bound_to 10752
  154.6794  135.2966  154.9636 H   0  0  0  0  0  0  0  0  0  0  0  0  # atno 10764 bound_to 10752
  154.0428  135.6714  153.4844 H   0  0  0  0  0  0  0  0  0  0  0  0  # atno 10765 bound_to 10752
  140.6835  133.9133  155.8570 H   0  0  0  0  0  0  0  0  0  0  0  0  # atno 11005 bound_to 11000
  146.1198  140.7323  142.9463 LP  0  0  0  0  0  0  0  0  0  0  0  0  # atno 17320 bound_to 7965
  144.7120  140.4075  143.7073 LP  0  0  0  0  0  0  0  0  0  0  0  0  # atno 17321 bound_to 7965
  139.7369  144.7569  151.0714 LP  0  0  0  0  0  0  0  0  0  0  0  0  # atno 17342 bound_to 10162
  140.7774  143.5020  150.9760 LP  0  0  0  0  0  0  0  0  0  0  0  0  # atno 17343 bound_to 10162
  157.1488  130.6175  149.5576 LP  0  0  0  0  0  0  0  0  0  0  0  0  # atno 17370 bound_to 10713
  155.9836  130.4856  150.6940 LP  0  0  0  0  0  0  0  0  0  0  0  0  # atno 17371 bound_to 10713
  141.0299  134.0771  157.4026 LP  0  0  0  0  0  0  0  0  0  0  0  0  # atno 17394 bound_to 11000
  139.8945  135.0136  156.6952 LP  0  0  0  0  0  0  0  0  0  0  0  0  # atno 17395 bound_to 11000

$$$$
