AV-unprocessed.smi:3068|AV-procd|sdf|11702|dock8
  -GOLD-   2272017103D 1   1.00000     0.00000
 Structure written by MMmdl.
 40 42  0  0  0  0  0  0  0  0  2 V2000
  150.2296  133.6428  157.4606 N   0  0  0  0  0  0  0  0  0  0  0  0
  150.4662  132.7198  156.8039 C   0  0  0  0  0  0  0  0  0  0  0  0
  150.7661  131.5567  155.9786 C   0  0  0  0  0  0  0  0  0  0  0  0
  152.0256  131.0669  156.0504 N   0  0  0  0  0  0  0  0  0  0  0  0
  152.3156  129.9922  155.2864 C   0  0  0  0  0  0  0  0  0  0  0  0
  151.3506  129.4009  154.4482 C   0  0  0  0  0  0  0  0  0  0  0  0
  150.0917  129.8820  154.3709 N   0  0  0  0  0  0  0  0  0  0  0  0
  149.7877  130.9632  155.1321 C   0  0  0  0  0  0  0  0  0  0  0  0
  148.4791  131.4733  155.0610 N   0  0  0  0  0  0  0  0  0  0  0  0
  147.3682  130.6076  154.6908 C   0  0  0  0  0  0  0  0  0  0  0  0
  147.1493  130.5850  153.1722 C   0  0  2  0  0  0  0  0  0  0  0  0
  147.0574  132.0096  152.5952 C   0  0  0  0  0  0  0  0  0  0  0  0
  146.7465  131.9687  151.1447 N   0  3  2  0  0  0  0  0  0  0  0  0
  146.6919  133.3084  150.5032 C   0  0  0  0  0  0  0  0  0  0  0  0
  145.4025  134.0729  150.8602 C   0  0  0  0  0  0  0  0  0  0  0  0
  144.1569  133.2373  150.5343 C   0  0  0  0  0  0  0  0  0  0  0  0
  144.2396  131.8644  151.2163 C   0  0  0  0  0  0  0  0  0  0  0  0
  145.5496  131.1363  150.8421 C   0  0  2  0  0  0  0  0  0  0  0  0
  145.6770  129.7575  151.5183 C   0  0  0  0  0  0  0  0  0  0  0  0
  145.9212  129.9136  152.9106 O   0  0  0  0  0  0  0  0  0  0  0  0
  153.3212  129.6029  155.3442 H   0  0  0  0  0  0  0  0  0  0  0  0
  151.5883  128.5415  153.8386 H   0  0  0  0  0  0  0  0  0  0  0  0
  148.3441  132.4737  155.0219 H   0  0  0  0  0  0  0  0  0  0  0  0
  147.5498  129.5968  155.0591 H   0  0  0  0  0  0  0  0  0  0  0  0
  146.4664  130.9740  155.1833 H   0  0  0  0  0  0  0  0  0  0  0  0
  147.9747  130.0506  152.6972 H   0  0  0  0  0  0  0  0  0  0  0  0
  146.2968  132.5772  153.1319 H   0  0  0  0  0  0  0  0  0  0  0  0
  148.0034  132.5310  152.7457 H   0  0  0  0  0  0  0  0  0  0  0  0
  147.5715  133.8907  150.7800 H   0  0  0  0  0  0  0  0  0  0  0  0
  146.7429  133.1710  149.4223 H   0  0  0  0  0  0  0  0  0  0  0  0
  145.4022  134.3385  151.9178 H   0  0  0  0  0  0  0  0  0  0  0  0
  145.3686  135.0151  150.3125 H   0  0  0  0  0  0  0  0  0  0  0  0
  143.2570  133.7630  150.8542 H   0  0  0  0  0  0  0  0  0  0  0  0
  144.0747  133.1067  149.4546 H   0  0  0  0  0  0  0  0  0  0  0  0
  144.1671  131.9867  152.2975 H   0  0  0  0  0  0  0  0  0  0  0  0
  143.3812  131.2597  150.9221 H   0  0  0  0  0  0  0  0  0  0  0  0
  145.5362  130.9726  149.7636 H   0  0  0  0  0  0  0  0  0  0  0  0
  144.7642  129.1779  151.3785 H   0  0  0  0  0  0  0  0  0  0  0  0
  146.4849  129.1801  151.0658 H   0  0  0  0  0  0  0  0  0  0  0  0
  147.5296  131.4913  150.7213 H   0  0  0  0  0  0  0  0  0  0  0  0
  1  2  3  0  0  0  0
  2  3  1  0  0  0  0
  3  8  1  0  0  0  0
  3  4  2  0  0  0  0
  4  5  1  0  0  0  0
  5  6  2  0  0  0  0
  5 21  1  0  0  0  0
  6  7  1  0  0  0  0
  6 22  1  0  0  0  0
  7  8  2  0  0  0  0
  8  9  1  0  0  0  0
  9 10  1  0  0  0  0
  9 23  1  0  0  0  0
 10 11  1  0  0  0  0
 10 24  1  0  0  0  0
 10 25  1  0  0  0  0
 11 20  1  0  0  0  0
 11 12  1  0  0  0  0
 11 26  1  0  0  0  0
 12 13  1  0  0  0  0
 12 27  1  0  0  0  0
 12 28  1  0  0  0  0
 13 18  1  0  0  0  0
 13 14  1  0  0  0  0
 13 40  1  0  0  0  0
 14 15  1  0  0  0  0
 14 29  1  0  0  0  0
 14 30  1  0  0  0  0
 15 16  1  0  0  0  0
 15 31  1  0  0  0  0
 15 32  1  0  0  0  0
 16 17  1  0  0  0  0
 16 33  1  0  0  0  0
 16 34  1  0  0  0  0
 17 18  1  0  0  0  0
 17 35  1  0  0  0  0
 17 36  1  0  0  0  0
 18 19  1  0  0  0  0
 18 37  1  0  0  0  0
 19 20  1  0  0  0  0
 19 38  1  0  0  0  0
 19 39  1  0  0  0  0
M  CHG  1  13   1
M  END
> <s_m_source_file>
AV-unprocessed.smi

> <i_m_source_file_index>
3068

> <i_lp_mmshare_version>
43012

> <i_f3d_flags>
0

> <s_epik_input>
TiNDYzFuW2NIXVtjSF1uYzFbTkhdW0NIMl1bQ0BIXShbQ0gyXTIpT1tDSDJdW0NAQEhdKE4yMylbQ0gyXVtDSDJdW0NIMl1bQ0gyXTM=

> <s_epik_cmdline>
J2VwaWtfcHl0aG9uJywgJy1waCcsICc3LjAnLCAnLXRuJywgJzgnLCAnLW1hJywgJzIwMCcsICctbWV0YWxfYmluZGluZycsICctaW1hZScsICc8aW5maWxlLm1hZT4nLCAnLW9tYWUnLCAnPG91dGZpbGUubWFlPic=

> <r_epik_Ionization_Penalty>
0.0804321

> <r_epik_Ionization_Penalty_Charging>
0.0803403

> <r_epik_Ionization_Penalty_Neutral>
9.17277e-05

> <r_epik_State_Penalty>
0.0711481

> <r_epik_Charging_Adjusted_Penalty>
0.151488

> <i_epik_Tot_Q>
1

> <i_epik_Tot_abs_Q>
1

> <r_epik_Metal_State_Penalty>
0.0711481

> <b_epik_Metal_Only>
0

> <s_lp_Force_Field>
OPLS_2005

> <r_lp_Energy>
39.3749

> <b_lp_Chiralities_Consistent>
1

> <s_lp_Variant>
AV-unprocessed.smi:3068-5

> <Gold.Version>
5.8.1

> <Gold.Id.Protein>
6NUR|6NUR_protein|mol2

> <Gold.PLP.Fitness>
40.6077

> <Gold.PLP.PLP>
-32.4869

> <Gold.PLP.part.hbond>
-2.0000

> <Gold.PLP.part.metal>
0.0000

> <Gold.PLP.part.buried>
-5.1192

> <Gold.PLP.part.nonpolar>
-24.6381

> <Gold.PLP.part.repulsive>
0.3095

> <Gold.PLP.ligand.clash>
0.0000

> <Gold.PLP.ligand.torsion>
0.3799

> <Gold.PLP.Chemscore.Hbond>
1.9600

> <Gold.PLP.Chemscore.CHOScore>
1.0000

> <Gold.PLP.Chemscore.Metal>
0.0000

> <Gold.Chemscore.Hbonds>
donor molecule, donor type, donor heavy atom, donor atom, acceptor molecule, acceptor atom, score
      L1  H    13    40       P1 10747  1.00
      P1  H  6896  6909       L1     1  0.96
      L1  C     6    22       P1 10737  1.00

> <Gold.PLP.Chemscore.Internal.Correction>
0.0007

> <Gold.Rescore>
     Score         DG    S(hbond)    S(metal)    S(lipo)     H(rot)  DE(clash)    DE(int)     intcor
     18.03     -18.47       1.98        0.00      83.24       1.32       0.01       0.43       ----

> <Gold.Chemscore.Fitness>
18.0260

> <Gold.Chemscore.DG>
-18.4689

> <Gold.Chemscore.ZeroCoef>
-5.4800

> <Gold.Chemscore.Hbond>
1.9842

> <Gold.Chemscore.Metal>
0.0000

> <Gold.Chemscore.Lipo>
83.2405

> <Gold.Chemscore.Internal_Hbond>
0.0000

> <Gold.Chemscore.DEClash>
0.0136

> <Gold.Chemscore.DEInternal>
0.4293

> <Gold.Chemscore.Rot>
1.3193

> <Gold.Chemscore.Internal.Correction>
   9.000000E+99

> <Gold.Chemscore.Hbonds>
donor molecule, donor type, donor heavy atom, donor atom, acceptor molecule, acceptor atom, score
      L1  H    13    40       P1 10747  1.00
      P1  H  6896  6909       L1     1  0.87

> <Gold.Chemscore.Hbond.Weighted>
-6.6271

> <Gold.Chemscore.Metal.Weighted>
-0.0000

> <Gold.Chemscore.Lipo.Weighted>
-9.7391

> <Gold.Chemscore.Internal_Hbond.Weighted>
0.0000

> <Gold.Chemscore.DEClash.Weighted>
0.0136

> <Gold.Chemscore.DEInternal.Weighted>
0.4293

> <Gold.Chemscore.Rot.Weighted>
3.3774

> <Gold.Chemscore.Internal.Correction.Weighted>
   9.000000E+99

> <Gold.Protein.RotatedTorsions>
[ 6907 6896 6895 6894 ] final  -12.82 input  -60.11 | X-H torsion
[ 7974 7965 7964 7962 ] final -145.90 input  175.53 | X-H torsion
[ 8008 7997 7996 7995 ] final  -62.81 input   59.86 | X-H torsion
[ 10167 10162 10161 10158 ] final -140.46 input  -65.29 | X-H torsion
[ 10718 10713 10712 10709 ] final  -86.50 input   66.30 | X-H torsion
[ 10763 10752 10751 10750 ] final -179.47 input  -60.55 | X-H torsion
[ 11005 11000 10999 10996 ] final  -94.60 input  -57.11 | X-H torsion

> <Gold.Protein.ActiveResidues>
 VAL166  LYS551  ARG553  GLY616  TRP617  ASP618  TYR619  PRO620  LYS621  CYS622 
 ASP623  PHE694  ASN695  SER759  ASP760  ASP761  ALA762  ILE779  LEU786  VAL792 
 PHE793  MET794  SER795  GLU796  ALA797  LYS798  CYS799  TRP800  GLU811  SER814 

> <Gold.Protein.RotatedAtoms>
  151.3646  135.0910  159.9445 H   0  0  0  0  0  0  0  0  0  0  0  0  # atno 6907 bound_to 6896
  152.5152  133.9225  159.7551 H   0  0  0  0  0  0  0  0  0  0  0  0  # atno 6908 bound_to 6896
  150.9626  133.6374  159.2781 H   0  0  0  0  0  0  0  0  0  0  0  0  # atno 6909 bound_to 6896
  144.8196  140.5525  143.5587 H   0  0  0  0  0  0  0  0  0  0  0  0  # atno 7974 bound_to 7965
  154.4520  140.0988  156.6645 H   0  0  0  0  0  0  0  0  0  0  0  0  # atno 8008 bound_to 7997
  155.5257  140.3480  155.4397 H   0  0  0  0  0  0  0  0  0  0  0  0  # atno 8009 bound_to 7997
  156.0700  140.1347  156.9829 H   0  0  0  0  0  0  0  0  0  0  0  0  # atno 8010 bound_to 7997
  139.8279  143.7486  152.2666 H   0  0  0  0  0  0  0  0  0  0  0  0  # atno 10167 bound_to 10162
  155.9989  130.4767  150.4724 H   0  0  0  0  0  0  0  0  0  0  0  0  # atno 10718 bound_to 10713
  154.5347  135.2802  155.1149 H   0  0  0  0  0  0  0  0  0  0  0  0  # atno 10763 bound_to 10752
  154.2655  135.6313  153.5294 H   0  0  0  0  0  0  0  0  0  0  0  0  # atno 10764 bound_to 10752
  152.9965  135.5616  154.5870 H   0  0  0  0  0  0  0  0  0  0  0  0  # atno 10765 bound_to 10752
  141.1466  133.7967  157.0320 H   0  0  0  0  0  0  0  0  0  0  0  0  # atno 11005 bound_to 11000
  145.5135  139.1478  143.3591 LP  0  0  0  0  0  0  0  0  0  0  0  0  # atno 17320 bound_to 7965
  146.2501  140.5276  142.8897 LP  0  0  0  0  0  0  0  0  0  0  0  0  # atno 17321 bound_to 7965
  139.7684  144.7484  151.0260 LP  0  0  0  0  0  0  0  0  0  0  0  0  # atno 17342 bound_to 10162
  140.7809  143.4672  151.0196 LP  0  0  0  0  0  0  0  0  0  0  0  0  # atno 17343 bound_to 10162
  157.2738  131.0592  151.2243 LP  0  0  0  0  0  0  0  0  0  0  0  0  # atno 17370 bound_to 10713
  157.3313  130.6986  149.6326 LP  0  0  0  0  0  0  0  0  0  0  0  0  # atno 17371 bound_to 10713
  140.0748  134.9682  157.1527 LP  0  0  0  0  0  0  0  0  0  0  0  0  # atno 17394 bound_to 11000
  140.3660  134.2442  155.7182 LP  0  0  0  0  0  0  0  0  0  0  0  0  # atno 17395 bound_to 11000

$$$$
