AV-unprocessed.smi:3108|AV-procd|sdf|11826|dock2
  -GOLD-   2272017203D 1   1.00000     0.00000
 Structure written by MMmdl.
 37 38  0  0  0  0  0  0  0  0  2 V2000
  153.5891  142.8897  162.9876 C   0  0  0  0  0  0  0  0  0  0  0  0
  153.2610  142.8343  161.5233 C   0  0  0  0  0  0  0  0  0  0  0  0
  153.5812  141.8050  160.5927 C   0  0  0  0  0  0  0  0  0  0  0  0
  153.1447  142.0631  159.3704 N   0  0  0  0  0  0  0  0  0  0  0  0
  152.5306  143.2601  159.4777 N   0  0  0  0  0  0  0  0  0  0  0  0
  151.9230  143.8642  158.3080 C   0  0  0  0  0  0  0  0  0  0  0  0
  150.6762  143.0924  157.8522 C   0  0  0  0  0  0  0  0  0  0  0  0
  150.6744  142.9038  156.3890 N   0  3  0  0  0  0  0  0  0  0  0  0
  150.5074  141.4995  155.9658 C   0  0  0  0  0  0  0  0  0  0  0  0
  149.4814  141.3771  154.8276 C   0  0  0  0  0  0  0  0  0  0  0  0
  148.0779  141.8763  155.1885 C   0  0  0  0  0  0  0  0  0  0  0  0
  147.1361  141.1966  154.1870 C   0  0  0  0  0  0  0  0  0  0  0  0
  147.8927  139.9756  153.6421 C   0  0  0  0  0  0  0  0  0  0  0  0
  149.2282  139.9326  154.3907 C   0  0  0  0  0  0  0  0  0  0  0  0
  152.5884  143.7503  160.7650 C   0  0  0  0  0  0  0  0  0  0  0  0
  154.3053  142.1184  163.2722 H   0  0  0  0  0  0  0  0  0  0  0  0
  152.7011  142.7467  163.6035 H   0  0  0  0  0  0  0  0  0  0  0  0
  154.0241  143.8495  163.2669 H   0  0  0  0  0  0  0  0  0  0  0  0
  154.1154  140.8829  160.7688 H   0  0  0  0  0  0  0  0  0  0  0  0
  151.6644  144.8968  158.5467 H   0  0  0  0  0  0  0  0  0  0  0  0
  152.6665  143.8992  157.5103 H   0  0  0  0  0  0  0  0  0  0  0  0
  150.6389  142.1162  158.3382 H   0  0  0  0  0  0  0  0  0  0  0  0
  149.7754  143.6338  158.1446 H   0  0  0  0  0  0  0  0  0  0  0  0
  149.9197  143.4483  155.9963 H   0  0  0  0  0  0  0  0  0  0  0  0
  151.4735  141.1192  155.6314 H   0  0  0  0  0  0  0  0  0  0  0  0
  150.2036  140.8917  156.8195 H   0  0  0  0  0  0  0  0  0  0  0  0
  149.8375  141.9335  153.9586 H   0  0  0  0  0  0  0  0  0  0  0  0
  147.8184  141.5581  156.1993 H   0  0  0  0  0  0  0  0  0  0  0  0
  147.9992  142.9636  155.1570 H   0  0  0  0  0  0  0  0  0  0  0  0
  146.1963  140.9124  154.6619 H   0  0  0  0  0  0  0  0  0  0  0  0
  146.8945  141.8774  153.3698 H   0  0  0  0  0  0  0  0  0  0  0  0
  147.3298  139.0507  153.7730 H   0  0  0  0  0  0  0  0  0  0  0  0
  148.0690  140.1006  152.5729 H   0  0  0  0  0  0  0  0  0  0  0  0
  150.0361  139.5326  153.7768 H   0  0  0  0  0  0  0  0  0  0  0  0
  149.1316  139.2900  155.2672 H   0  0  0  0  0  0  0  0  0  0  0  0
  152.1501  144.7002  161.0342 H   0  0  0  0  0  0  0  0  0  0  0  0
  151.5487  143.2481  156.0186 H   0  0  0  0  0  0  0  0  0  0  0  0
  1  2  1  0  0  0  0
  1 16  1  0  0  0  0
  1 17  1  0  0  0  0
  1 18  1  0  0  0  0
  2 15  2  0  0  0  0
  2  3  1  0  0  0  0
  3  4  2  0  0  0  0
  3 19  1  0  0  0  0
  4  5  1  0  0  0  0
  5  6  1  0  0  0  0
  5 15  1  0  0  0  0
  6  7  1  0  0  0  0
  6 20  1  0  0  0  0
  6 21  1  0  0  0  0
  7  8  1  0  0  0  0
  7 22  1  0  0  0  0
  7 23  1  0  0  0  0
  8  9  1  0  0  0  0
  8 24  1  0  0  0  0
  8 37  1  0  0  0  0
  9 10  1  0  0  0  0
  9 25  1  0  0  0  0
  9 26  1  0  0  0  0
 10 14  1  0  0  0  0
 10 11  1  0  0  0  0
 10 27  1  0  0  0  0
 11 12  1  0  0  0  0
 11 28  1  0  0  0  0
 11 29  1  0  0  0  0
 12 13  1  0  0  0  0
 12 30  1  0  0  0  0
 12 31  1  0  0  0  0
 13 14  1  0  0  0  0
 13 32  1  0  0  0  0
 13 33  1  0  0  0  0
 14 34  1  0  0  0  0
 14 35  1  0  0  0  0
 15 36  1  0  0  0  0
M  CHG  1   8   1
M  END
> <s_m_source_file>
AV-unprocessed.smi

> <i_m_source_file_index>
3108

> <i_lp_mmshare_version>
43012

> <i_f3d_flags>
0

> <s_epik_input>
W0NIM11jMVtjSF1ubihbY0hdMSlbQ0gyXVtDSDJdW05IXVtDSDJdW0NIXTJbQ0gyXVtDSDJdW0NIMl1bQ0gyXTI=

> <s_epik_cmdline>
J2VwaWtfcHl0aG9uJywgJy1waCcsICc3LjAnLCAnLXRuJywgJzgnLCAnLW1hJywgJzIwMCcsICctbWV0YWxfYmluZGluZycsICctaW1hZScsICc8aW5maWxlLm1hZT4nLCAnLW9tYWUnLCAnPG91dGZpbGUubWFlPic=

> <r_lp_tautomer_probability>
1

> <r_epik_Ionization_Penalty>
0.00170215

> <r_epik_Ionization_Penalty_Charging>
0.00169627

> <r_epik_Ionization_Penalty_Neutral>
5.87243e-06

> <r_epik_State_Penalty>
-0

> <r_epik_Charging_Adjusted_Penalty>
0.00169627

> <i_epik_Tot_Q>
1

> <i_epik_Tot_abs_Q>
1

> <r_epik_Metal_State_Penalty>
-0

> <b_epik_Metal_Only>
0

> <s_lp_Force_Field>
OPLS_2005

> <r_lp_Energy>
23.864

> <b_lp_Chiralities_Consistent>
1

> <s_lp_Variant>
AV-unprocessed.smi:3108-1

> <Gold.Version>
5.8.1

> <Gold.Id.Protein>
6NUR|6NUR_protein|mol2

> <Gold.PLP.Fitness>
45.0085

> <Gold.PLP.PLP>
-41.1601

> <Gold.PLP.part.hbond>
-1.0000

> <Gold.PLP.part.metal>
0.0000

> <Gold.PLP.part.buried>
-0.6737

> <Gold.PLP.part.nonpolar>
-38.3402

> <Gold.PLP.part.repulsive>
0.0857

> <Gold.PLP.ligand.clash>
0.0000

> <Gold.PLP.ligand.torsion>
1.0894

> <Gold.PLP.Chemscore.Hbond>
2.0000

> <Gold.PLP.Chemscore.CHOScore>
0.0000

> <Gold.PLP.Chemscore.Metal>
0.0000

> <Gold.Chemscore.Hbonds>
donor molecule, donor type, donor heavy atom, donor atom, acceptor molecule, acceptor atom, score
      L1  H     8    24       P1  8028  2.00

> <Gold.PLP.Chemscore.Internal.Correction>
0.0271

> <Gold.Rescore>
     Score         DG    S(hbond)    S(metal)    S(lipo)     H(rot)  DE(clash)    DE(int)     intcor
     15.91     -17.45       1.00        0.00     107.19       1.52       0.30       1.24       ----

> <Gold.Chemscore.Fitness>
15.9097

> <Gold.Chemscore.DG>
-17.4532

> <Gold.Chemscore.ZeroCoef>
-5.4800

> <Gold.Chemscore.Hbond>
0.9968

> <Gold.Chemscore.Metal>
0.0000

> <Gold.Chemscore.Lipo>
107.1855

> <Gold.Chemscore.Internal_Hbond>
0.0000

> <Gold.Chemscore.DEClash>
0.3019

> <Gold.Chemscore.DEInternal>
1.2415

> <Gold.Chemscore.Rot>
1.5222

> <Gold.Chemscore.Internal.Correction>
   9.000000E+99

> <Gold.Chemscore.Hbonds>
donor molecule, donor type, donor heavy atom, donor atom, acceptor molecule, acceptor atom, score
      L1  H     8    24       P1  8028  1.00

> <Gold.Chemscore.Hbond.Weighted>
-3.3293

> <Gold.Chemscore.Metal.Weighted>
-0.0000

> <Gold.Chemscore.Lipo.Weighted>
-12.5407

> <Gold.Chemscore.Internal_Hbond.Weighted>
0.0000

> <Gold.Chemscore.DEClash.Weighted>
0.3019

> <Gold.Chemscore.DEInternal.Weighted>
1.2415

> <Gold.Chemscore.Rot.Weighted>
3.8969

> <Gold.Chemscore.Internal.Correction.Weighted>
   9.000000E+99

> <Gold.Protein.RotatedTorsions>
[ 6907 6896 6895 6894 ] final  127.54 input  -60.11 | X-H torsion
[ 7974 7965 7964 7962 ] final  -53.41 input  175.53 | X-H torsion
[ 8008 7997 7996 7995 ] final  -97.12 input   59.86 | X-H torsion
[ 10167 10162 10161 10158 ] final -103.97 input  -65.29 | X-H torsion
[ 10718 10713 10712 10709 ] final  -53.01 input   66.30 | X-H torsion
[ 10763 10752 10751 10750 ] final   57.48 input  -60.55 | X-H torsion
[ 11005 11000 10999 10996 ] final  101.18 input  -57.11 | X-H torsion

> <Gold.Protein.ActiveResidues>
 VAL166  LYS551  ARG553  GLY616  TRP617  ASP618  TYR619  PRO620  LYS621  CYS622 
 ASP623  PHE694  ASN695  SER759  ASP760  ASP761  ALA762  ILE779  LEU786  VAL792 
 PHE793  MET794  SER795  GLU796  ALA797  LYS798  CYS799  TRP800  GLU811  SER814 

> <Gold.Protein.RotatedAtoms>
  152.3803  133.6536  159.6155 H   0  0  0  0  0  0  0  0  0  0  0  0  # atno 6907 bound_to 6896
  150.7735  133.9125  159.3382 H   0  0  0  0  0  0  0  0  0  0  0  0  # atno 6908 bound_to 6896
  151.6932  135.0944  160.0289 H   0  0  0  0  0  0  0  0  0  0  0  0  # atno 6909 bound_to 6896
  145.8972  140.8023  142.9761 H   0  0  0  0  0  0  0  0  0  0  0  0  # atno 7974 bound_to 7965
  154.7835  140.0465  157.1145 H   0  0  0  0  0  0  0  0  0  0  0  0  # atno 8008 bound_to 7997
  154.9677  140.3085  155.4982 H   0  0  0  0  0  0  0  0  0  0  0  0  # atno 8009 bound_to 7997
  156.2940  140.2259  156.4767 H   0  0  0  0  0  0  0  0  0  0  0  0  # atno 8010 bound_to 7997
  140.2142  143.3723  152.1024 H   0  0  0  0  0  0  0  0  0  0  0  0  # atno 10167 bound_to 10162
  156.1572  130.4150  149.9850 H   0  0  0  0  0  0  0  0  0  0  0  0  # atno 10718 bound_to 10713
  152.9851  135.5640  154.5397 H   0  0  0  0  0  0  0  0  0  0  0  0  # atno 10763 bound_to 10752
  154.4854  135.2790  155.1540 H   0  0  0  0  0  0  0  0  0  0  0  0  # atno 10764 bound_to 10752
  154.3032  135.6303  153.5486 H   0  0  0  0  0  0  0  0  0  0  0  0  # atno 10765 bound_to 10752
  139.8772  134.9172  156.4868 H   0  0  0  0  0  0  0  0  0  0  0  0  # atno 11005 bound_to 11000
  144.6733  140.1620  143.7421 LP  0  0  0  0  0  0  0  0  0  0  0  0  # atno 17320 bound_to 7965
  145.8836  139.2336  143.1591 LP  0  0  0  0  0  0  0  0  0  0  0  0  # atno 17321 bound_to 7965
  139.5168  144.6983  151.5567 LP  0  0  0  0  0  0  0  0  0  0  0  0  # atno 17342 bound_to 10162
  140.6301  143.9092  150.6598 LP  0  0  0  0  0  0  0  0  0  0  0  0  # atno 17343 bound_to 10162
  156.7690  130.9179  151.3644 LP  0  0  0  0  0  0  0  0  0  0  0  0  # atno 17370 bound_to 10713
  157.6704  130.9046  150.0027 LP  0  0  0  0  0  0  0  0  0  0  0  0  # atno 17371 bound_to 10713
  140.8687  133.8004  155.9342 LP  0  0  0  0  0  0  0  0  0  0  0  0  # atno 17394 bound_to 11000
  140.8975  134.2420  157.5060 LP  0  0  0  0  0  0  0  0  0  0  0  0  # atno 17395 bound_to 11000

$$$$
