AV-unprocessed.smi:72|AV-procd|sdf|736|dock1
  -GOLD-   2262017 63D 1   1.00000     0.00000
 Structure written by MMmdl.
 28 29  0  0  0  0  0  0  0  0  2 V2000
  153.6067  137.3753  155.9048 N   0  0  0  0  0  0  0  0  0  0  0  0
  152.7795  138.3102  155.7272 C   0  0  0  0  0  0  0  0  0  0  0  0
  151.9613  138.3350  154.5350 N   0  0  0  0  0  0  0  0  0  0  0  0
  151.1029  139.3001  154.4096 C   0  0  0  0  0  0  0  0  0  0  0  0
  150.9351  140.3232  155.4364 N   0  0  0  0  0  0  0  0  0  0  0  0
  149.9419  141.4689  155.2991 C   0  0  1  0  0  0  0  0  0  0  0  0
  149.2783  141.3950  154.0706 O   0  0  0  0  0  0  0  0  0  0  0  0
  148.0225  140.7587  154.2547 C   0  0  2  0  0  0  0  0  0  0  0  0
  147.0928  141.0191  153.0557 C   0  0  0  0  0  0  0  0  0  0  0  0
  146.2028  139.9467  152.8240 O   0  0  0  0  0  0  0  0  0  0  0  0
  147.5497  141.2439  155.6267 C   0  0  1  0  0  0  0  0  0  0  0  0
  146.7247  140.2681  156.2316 O   0  0  0  0  0  0  0  0  0  0  0  0
  148.8568  141.4036  156.4029 C   0  0  2  0  0  0  0  0  0  0  0  0
  148.8256  142.5908  157.1685 O   0  0  0  0  0  0  0  0  0  0  0  0
  151.7918  140.2998  156.5708 C   0  0  0  0  0  0  0  0  0  0  0  0
  151.6828  141.2050  157.3985 O   0  0  0  0  0  0  0  0  0  0  0  0
  152.6936  139.2865  156.6940 N   0  5  0  0  0  0  0  0  0  0  0  0
  150.5570  142.3703  155.3228 H   0  0  0  0  0  0  0  0  0  0  0  0
  148.2161  139.6858  154.3053 H   0  0  0  0  0  0  0  0  0  0  0  0
  147.0236  142.1964  155.5542 H   0  0  0  0  0  0  0  0  0  0  0  0
  149.0379  140.5486  157.0564 H   0  0  0  0  0  0  0  0  0  0  0  0
  153.6056  136.7039  155.1510 H   0  0  0  0  0  0  0  0  0  0  0  0
  150.4659  139.3984  153.5312 H   0  0  0  0  0  0  0  0  0  0  0  0
  146.5257  141.9382  153.2050 H   0  0  0  0  0  0  0  0  0  0  0  0
  147.6901  141.1562  152.1540 H   0  0  0  0  0  0  0  0  0  0  0  0
  145.3286  140.2950  152.7389 H   0  0  0  0  0  0  0  0  0  0  0  0
  146.0331  140.7131  156.6973 H   0  0  0  0  0  0  0  0  0  0  0  0
  148.5546  143.2984  156.6029 H   0  0  0  0  0  0  0  0  0  0  0  0
  1  2  2  0  0  0  0
  1 22  1  0  0  0  0
  2 17  1  0  0  0  0
  2  3  1  0  0  0  0
  3  4  2  0  0  0  0
  4  5  1  0  0  0  0
  4 23  1  0  0  0  0
  5  6  1  0  0  0  0
  5 15  1  0  0  0  0
  6 18  1  0  0  0  0
  6 13  1  0  0  0  0
  6  7  1  0  0  0  0
  7  8  1  0  0  0  0
  8 19  1  0  0  0  0
  8  9  1  0  0  0  0
  8 11  1  0  0  0  0
  9 10  1  0  0  0  0
  9 24  1  0  0  0  0
  9 25  1  0  0  0  0
 10 26  1  0  0  0  0
 11 20  1  0  0  0  0
 11 12  1  0  0  0  0
 11 13  1  0  0  0  0
 12 27  1  0  0  0  0
 13 21  1  0  0  0  0
 13 14  1  0  0  0  0
 14 28  1  0  0  0  0
 15 16  2  0  0  0  0
 15 17  1  0  0  0  0
M  CHG  1  17  -1
M  END
> <s_m_source_file>
AV-unprocessed.smi

> <i_m_source_file_index>
72

> <i_lp_mmshare_version>
43012

> <i_f3d_flags>
0

> <s_epik_input>
W05IMl1jMW5bY0hdbihjKD1PKW4xKVtDQEBIXTJPW0NASF0oW0NIMl1bT0hdKVtDQEBIXShbT0hdKVtDQEhdMltPSF0=

> <s_epik_cmdline>
J2VwaWtfcHl0aG9uJywgJy1waCcsICc3LjAnLCAnLXRuJywgJzgnLCAnLW1hJywgJzIwMCcsICctbWV0YWxfYmluZGluZycsICctaW1hZScsICc8aW5maWxlLm1hZT4nLCAnLW9tYWUnLCAnPG91dGZpbGUubWFlPic=

> <r_lp_tautomer_probability>
7.17554e-07

> <r_epik_Ionization_Penalty>
12.8705

> <r_epik_Ionization_Penalty_Charging>
5.64144

> <r_epik_Ionization_Penalty_Neutral>
7.22905

> <r_epik_State_Penalty>
3.30104

> <r_epik_Charging_Adjusted_Penalty>
8.94249

> <i_epik_Tot_Q>
-1

> <i_epik_Tot_abs_Q>
1

> <r_epik_Metal_State_Penalty>
0.529074

> <b_epik_Metal_Only>
1

> <s_epik_Chemistry_Notes>
This compound contains an acetal/aminal-like group ( X-CH(R)-Y where X, Y are N, S, or O) that may be acid/base labile, releasing an aldehyde.

> <s_lp_Force_Field>
OPLS_2005

> <r_lp_Energy>
32.432

> <b_lp_Chiralities_Consistent>
1

> <s_lp_Variant>
AV-unprocessed.smi:72-74

> <Gold.Version>
5.8.1

> <Gold.Id.Protein>
6NUR|6NUR_protein|mol2

> <Gold.PLP.Fitness>
40.5859

> <Gold.PLP.PLP>
-24.9470

> <Gold.PLP.part.hbond>
-6.0000

> <Gold.PLP.part.metal>
0.0000

> <Gold.PLP.part.buried>
-0.3307

> <Gold.PLP.part.nonpolar>
-16.9534

> <Gold.PLP.part.repulsive>
0.2968

> <Gold.PLP.ligand.clash>
0.0000

> <Gold.PLP.ligand.torsion>
0.4441

> <Gold.PLP.Chemscore.Hbond>
4.6435

> <Gold.PLP.Chemscore.CHOScore>
0.8587

> <Gold.PLP.Chemscore.Metal>
0.0000

> <Gold.Chemscore.Hbonds>
donor molecule, donor type, donor heavy atom, donor atom, acceptor molecule, acceptor atom, score
      L1  H    10    26       P1 10175  1.00
      L1  H    14    28       P1  8028  1.00
      P1  H  7997  8009       L1    17  2.00
      P1  H  8011  8017       L1     7  0.63
      L1  C     4    23       P1  7957  0.85

> <Gold.PLP.Chemscore.Internal.Correction>
0.0204

> <Gold.Rescore>
     Score         DG    S(hbond)    S(metal)    S(lipo)     H(rot)  DE(clash)    DE(int)     intcor
      5.50      -6.82       2.73        0.00      22.08       4.04       0.39       0.93       ----

> <Gold.Chemscore.Fitness>
5.4980

> <Gold.Chemscore.DG>
-6.8249

> <Gold.Chemscore.ZeroCoef>
-5.4800

> <Gold.Chemscore.Hbond>
2.7261

> <Gold.Chemscore.Metal>
0.0000

> <Gold.Chemscore.Lipo>
22.0755

> <Gold.Chemscore.Internal_Hbond>
0.0000

> <Gold.Chemscore.DEClash>
0.3936

> <Gold.Chemscore.DEInternal>
0.9334

> <Gold.Chemscore.Rot>
4.0403

> <Gold.Chemscore.Internal.Correction>
   9.000000E+99

> <Gold.Chemscore.Hbonds>
donor molecule, donor type, donor heavy atom, donor atom, acceptor molecule, acceptor atom, score
      L1  H    10    26       P1 10175  0.90
      L1  H    14    28       P1  8028  0.63
      P1  H  7997  8009       L1    17  0.32
      P1  H  8011  8017       L1     7  0.61

> <Gold.Chemscore.Hbond.Weighted>
-9.1052

> <Gold.Chemscore.Metal.Weighted>
-0.0000

> <Gold.Chemscore.Lipo.Weighted>
-2.5828

> <Gold.Chemscore.Internal_Hbond.Weighted>
0.0000

> <Gold.Chemscore.DEClash.Weighted>
0.3936

> <Gold.Chemscore.DEInternal.Weighted>
0.9334

> <Gold.Chemscore.Rot.Weighted>
10.3431

> <Gold.Chemscore.Internal.Correction.Weighted>
   9.000000E+99

> <Gold.Protein.RotatedTorsions>
[ 6907 6896 6895 6894 ] final -143.89 input  -60.11 | X-H torsion
[ 7974 7965 7964 7962 ] final   11.30 input  175.53 | X-H torsion
[ 8008 7997 7996 7995 ] final  168.55 input   59.86 | X-H torsion
[ 10167 10162 10161 10158 ] final  -43.22 input  -65.29 | X-H torsion
[ 10718 10713 10712 10709 ] final -155.43 input   66.30 | X-H torsion
[ 10763 10752 10751 10750 ] final -146.06 input  -60.55 | X-H torsion
[ 11005 11000 10999 10996 ] final  179.28 input  -57.11 | X-H torsion

> <Gold.Protein.ActiveResidues>
 VAL166  LYS551  ARG553  GLY616  TRP617  ASP618  TYR619  PRO620  LYS621  CYS622 
 ASP623  PHE694  ASN695  SER759  ASP760  ASP761  ALA762  ILE779  LEU786  VAL792 
 PHE793  MET794  SER795  GLU796  ALA797  LYS798  CYS799  TRP800  GLU811  SER814 

> <Gold.Protein.RotatedAtoms>
  151.1066  133.5203  159.2607 H   0  0  0  0  0  0  0  0  0  0  0  0  # atno 6907 bound_to 6896
  151.2014  135.0443  159.8883 H   0  0  0  0  0  0  0  0  0  0  0  0  # atno 6908 bound_to 6896
  152.5447  134.0894  159.8324 H   0  0  0  0  0  0  0  0  0  0  0  0  # atno 6909 bound_to 6896
  146.2373  139.9506  142.8471 H   0  0  0  0  0  0  0  0  0  0  0  0  # atno 7974 bound_to 7965
  156.1537  140.1587  156.8728 H   0  0  0  0  0  0  0  0  0  0  0  0  # atno 8008 bound_to 7997
  154.5094  140.0804  156.7997 H   0  0  0  0  0  0  0  0  0  0  0  0  # atno 8009 bound_to 7997
  155.3846  140.3407  155.4250 H   0  0  0  0  0  0  0  0  0  0  0  0  # atno 8010 bound_to 7997
  140.6941  143.2995  151.3321 H   0  0  0  0  0  0  0  0  0  0  0  0  # atno 10167 bound_to 10162
  156.5127  130.8442  151.2652 H   0  0  0  0  0  0  0  0  0  0  0  0  # atno 10718 bound_to 10713
  154.8354  135.3396  154.6603 H   0  0  0  0  0  0  0  0  0  0  0  0  # atno 10763 bound_to 10752
  153.7218  135.6957  153.5015 H   0  0  0  0  0  0  0  0  0  0  0  0  # atno 10764 bound_to 10752
  153.2376  135.4395  155.0616 H   0  0  0  0  0  0  0  0  0  0  0  0  # atno 10765 bound_to 10752
  140.4044  134.6748  157.4580 H   0  0  0  0  0  0  0  0  0  0  0  0  # atno 11005 bound_to 11000
  145.1865  140.9792  143.4236 LP  0  0  0  0  0  0  0  0  0  0  0  0  # atno 17320 bound_to 7965
  144.9895  139.3703  143.6222 LP  0  0  0  0  0  0  0  0  0  0  0  0  # atno 17321 bound_to 7965
  139.6377  144.0599  152.2529 LP  0  0  0  0  0  0  0  0  0  0  0  0  # atno 17342 bound_to 10162
  140.0094  144.6235  150.7660 LP  0  0  0  0  0  0  0  0  0  0  0  0  # atno 17343 bound_to 10162
  157.7448  130.9944  150.2707 LP  0  0  0  0  0  0  0  0  0  0  0  0  # atno 17370 bound_to 10713
  156.3225  130.3788  149.7563 LP  0  0  0  0  0  0  0  0  0  0  0  0  # atno 17371 bound_to 10713
  140.0313  134.6402  155.9103 LP  0  0  0  0  0  0  0  0  0  0  0  0  # atno 17394 bound_to 11000
  141.1845  133.6553  156.5158 LP  0  0  0  0  0  0  0  0  0  0  0  0  # atno 17395 bound_to 11000

$$$$
