AV-unprocessed.smi:3272|AV-procd|sdf|12519|dock6
  -GOLD-   2272018433D 1   1.00000     0.00000
 Structure written by MMmdl.
 35 36  0  0  0  0  0  0  0  0  1 V2000
  145.1691  130.8741  151.3255 C   0  0  0  0  0  0  0  0  0  0  0  0
  144.3433  131.8439  150.4722 C   0  0  0  0  0  0  0  0  0  0  0  0
  144.7211  133.2233  150.7098 N   0  0  0  0  0  0  0  0  0  0  0  0
  145.6775  133.7080  151.5796 C   0  0  0  0  0  0  0  0  0  0  0  0
  145.6560  135.0661  151.4325 C   0  0  0  0  0  0  0  0  0  0  0  0
  146.4365  136.0538  152.0850 N   0  0  0  0  0  0  0  0  0  0  0  0
  146.0021  137.0238  152.9062 C   0  0  0  0  0  0  0  0  0  0  0  0
  144.8281  137.2009  153.2320 O   0  0  0  0  0  0  0  0  0  0  0  0
  147.0147  137.7938  153.3298 N   0  0  0  0  0  0  0  0  0  0  0  0
  146.8859  138.9497  154.2122 C   0  0  0  0  0  0  0  0  0  0  0  0
  148.0595  139.9329  154.0427 C   0  0  1  0  0  0  0  0  0  0  0  0
  148.0325  141.1395  154.9618 C   0  0  0  0  0  0  0  0  0  0  0  0
  149.4820  141.6123  154.9077 C   0  0  0  0  0  0  0  0  0  0  0  0
  150.2666  140.4434  154.6877 O   0  0  0  0  0  0  0  0  0  0  0  0
  149.4212  139.3351  154.3942 C   0  0  0  0  0  0  0  0  0  0  0  0
  144.6628  135.3340  150.4550 C   0  0  0  0  0  0  0  0  0  0  0  0
  144.1015  134.2151  150.0231 N   0  0  0  0  0  0  0  0  0  0  0  0
  144.8650  129.8432  151.1441 H   0  0  0  0  0  0  0  0  0  0  0  0
  145.0394  131.0776  152.3890 H   0  0  0  0  0  0  0  0  0  0  0  0
  146.2323  130.9520  151.0960 H   0  0  0  0  0  0  0  0  0  0  0  0
  144.4706  131.6213  149.4120 H   0  0  0  0  0  0  0  0  0  0  0  0
  143.2817  131.7303  150.6947 H   0  0  0  0  0  0  0  0  0  0  0  0
  146.2689  133.0547  152.2039 H   0  0  0  0  0  0  0  0  0  0  0  0
  147.4280  136.0254  151.8974 H   0  0  0  0  0  0  0  0  0  0  0  0
  147.9458  137.5703  153.0100 H   0  0  0  0  0  0  0  0  0  0  0  0
  145.9321  139.4563  154.0544 H   0  0  0  0  0  0  0  0  0  0  0  0
  146.8669  138.5818  155.2383 H   0  0  0  0  0  0  0  0  0  0  0  0
  148.0922  140.2827  153.0093 H   0  0  0  0  0  0  0  0  0  0  0  0
  147.3261  141.9074  154.6453 H   0  0  0  0  0  0  0  0  0  0  0  0
  147.7759  140.8377  155.9783 H   0  0  0  0  0  0  0  0  0  0  0  0
  149.6295  142.2904  154.0663 H   0  0  0  0  0  0  0  0  0  0  0  0
  149.7839  142.1313  155.8176 H   0  0  0  0  0  0  0  0  0  0  0  0
  149.3510  138.7121  155.2871 H   0  0  0  0  0  0  0  0  0  0  0  0
  149.8307  138.7253  153.5887 H   0  0  0  0  0  0  0  0  0  0  0  0
  144.3365  136.2819  150.0530 H   0  0  0  0  0  0  0  0  0  0  0  0
  1  2  1  0  0  0  0
  1 18  1  0  0  0  0
  1 19  1  0  0  0  0
  1 20  1  0  0  0  0
  2  3  1  0  0  0  0
  2 21  1  0  0  0  0
  2 22  1  0  0  0  0
  3 17  1  0  0  0  0
  3  4  1  0  0  0  0
  4  5  2  0  0  0  0
  4 23  1  0  0  0  0
  5  6  1  0  0  0  0
  5 16  1  0  0  0  0
  6  7  1  0  0  0  0
  6 24  1  0  0  0  0
  7  8  2  0  0  0  0
  7  9  1  0  0  0  0
  9 10  1  0  0  0  0
  9 25  1  0  0  0  0
 10 11  1  0  0  0  0
 10 26  1  0  0  0  0
 10 27  1  0  0  0  0
 11 15  1  0  0  0  0
 11 12  1  0  0  0  0
 11 28  1  0  0  0  0
 12 13  1  0  0  0  0
 12 29  1  0  0  0  0
 12 30  1  0  0  0  0
 13 14  1  0  0  0  0
 13 31  1  0  0  0  0
 13 32  1  0  0  0  0
 14 15  1  0  0  0  0
 15 33  1  0  0  0  0
 15 34  1  0  0  0  0
 16 17  2  0  0  0  0
 16 35  1  0  0  0  0
M  END
> <s_m_source_file>
AV-unprocessed.smi

> <i_m_source_file_index>
3272

> <i_lp_mmshare_version>
43012

> <i_f3d_flags>
0

> <s_epik_input>
W0NIM11bQ0gyXW4xW2NIXWMoW2NIXW4xKVtOSF1DKD1PKVtOSF1bQ0gyXVtDQEBIXTJbQ0gyXVtDSDJdT1tDSDJdMg==

> <s_epik_cmdline>
J2VwaWtfcHl0aG9uJywgJy1waCcsICc3LjAnLCAnLXRuJywgJzgnLCAnLW1hJywgJzIwMCcsICctbWV0YWxfYmluZGluZycsICctaW1hZScsICc8aW5maWxlLm1hZT4nLCAnLW9tYWUnLCAnPG91dGZpbGUubWFlPic=

> <r_lp_tautomer_probability>
1

> <r_epik_Ionization_Penalty>
0.000182896

> <r_epik_Ionization_Penalty_Charging>
0

> <r_epik_Ionization_Penalty_Neutral>
0.000182896

> <r_epik_State_Penalty>
-0

> <r_epik_Charging_Adjusted_Penalty>
0

> <i_epik_Tot_Q>
0

> <i_epik_Tot_abs_Q>
0

> <r_epik_Metal_State_Penalty>
-0

> <b_epik_Metal_Only>
0

> <s_lp_Force_Field>
OPLS_2005

> <r_lp_Energy>
22.1585

> <b_lp_Chiralities_Consistent>
1

> <s_lp_Variant>
AV-unprocessed.smi:3272-2

> <Gold.Version>
5.8.1

> <Gold.Id.Protein>
6NUR|6NUR_protein|mol2

> <Gold.PLP.Fitness>
39.6534

> <Gold.PLP.PLP>
-29.7041

> <Gold.PLP.part.hbond>
-2.9697

> <Gold.PLP.part.metal>
0.0000

> <Gold.PLP.part.buried>
-4.7935

> <Gold.PLP.part.nonpolar>
-23.4420

> <Gold.PLP.part.repulsive>
0.6026

> <Gold.PLP.ligand.clash>
0.0000

> <Gold.PLP.ligand.torsion>
0.7756

> <Gold.PLP.Chemscore.Hbond>
2.8313

> <Gold.PLP.Chemscore.CHOScore>
1.0000

> <Gold.PLP.Chemscore.Metal>
0.0000

> <Gold.Chemscore.Hbonds>
donor molecule, donor type, donor heavy atom, donor atom, acceptor molecule, acceptor atom, score
      L1  H     6    24       P1  7948  0.96
      L1  H     9    25       P1  7948  0.83
      P1  H  7989  7998       L1    14  0.99
      L1  C    16    35       P1 10171  1.00

> <Gold.PLP.Chemscore.Internal.Correction>
0.0068

> <Gold.Rescore>
     Score         DG    S(hbond)    S(metal)    S(lipo)     H(rot)  DE(clash)    DE(int)     intcor
     17.81     -18.68       2.69        0.00      66.70       1.41       0.13       0.75       ----

> <Gold.Chemscore.Fitness>
17.8066

> <Gold.Chemscore.DG>
-18.6832

> <Gold.Chemscore.ZeroCoef>
-5.4800

> <Gold.Chemscore.Hbond>
2.6946

> <Gold.Chemscore.Metal>
0.0000

> <Gold.Chemscore.Lipo>
66.6984

> <Gold.Chemscore.Internal_Hbond>
0.0000

> <Gold.Chemscore.DEClash>
0.1313

> <Gold.Chemscore.DEInternal>
0.7453

> <Gold.Chemscore.Rot>
1.4064

> <Gold.Chemscore.Internal.Correction>
   9.000000E+99

> <Gold.Chemscore.Hbonds>
donor molecule, donor type, donor heavy atom, donor atom, acceptor molecule, acceptor atom, score
      L1  H     6    24       P1  7948  0.90
      L1  H     9    25       P1  7948  0.78
      P1  H  7989  7998       L1    14  0.59

> <Gold.Chemscore.Hbond.Weighted>
-8.9999

> <Gold.Chemscore.Metal.Weighted>
-0.0000

> <Gold.Chemscore.Lipo.Weighted>
-7.8037

> <Gold.Chemscore.Internal_Hbond.Weighted>
0.0000

> <Gold.Chemscore.DEClash.Weighted>
0.1313

> <Gold.Chemscore.DEInternal.Weighted>
0.7453

> <Gold.Chemscore.Rot.Weighted>
3.6004

> <Gold.Chemscore.Internal.Correction.Weighted>
   9.000000E+99

> <Gold.Protein.RotatedTorsions>
[ 6907 6896 6895 6894 ] final  -13.34 input  -60.11 | X-H torsion
[ 7974 7965 7964 7962 ] final   82.18 input  175.53 | X-H torsion
[ 8008 7997 7996 7995 ] final  -30.54 input   59.86 | X-H torsion
[ 10167 10162 10161 10158 ] final  -68.57 input  -65.29 | X-H torsion
[ 10718 10713 10712 10709 ] final -162.35 input   66.30 | X-H torsion
[ 10763 10752 10751 10750 ] final  170.92 input  -60.55 | X-H torsion
[ 11005 11000 10999 10996 ] final   80.18 input  -57.11 | X-H torsion

> <Gold.Protein.ActiveResidues>
 VAL166  LYS551  ARG553  GLY616  TRP617  ASP618  TYR619  PRO620  LYS621  CYS622 
 ASP623  PHE694  ASN695  SER759  ASP760  ASP761  ALA762  ILE779  LEU786  VAL792 
 PHE793  MET794  SER795  GLU796  ALA797  LYS798  CYS799  TRP800  GLU811  SER814 

> <Gold.Protein.RotatedAtoms>
  151.3565  135.0895  159.9419 H   0  0  0  0  0  0  0  0  0  0  0  0  # atno 6907 bound_to 6896
  152.5173  133.9301  159.7586 H   0  0  0  0  0  0  0  0  0  0  0  0  # atno 6908 bound_to 6896
  150.9687  133.6313  159.2771 H   0  0  0  0  0  0  0  0  0  0  0  0  # atno 6909 bound_to 6896
  145.6285  139.2400  143.2098 H   0  0  0  0  0  0  0  0  0  0  0  0  # atno 7974 bound_to 7965
  154.4247  140.1788  156.1423 H   0  0  0  0  0  0  0  0  0  0  0  0  # atno 8008 bound_to 7997
  155.9982  140.3362  155.6795 H   0  0  0  0  0  0  0  0  0  0  0  0  # atno 8009 bound_to 7997
  155.6279  140.0666  157.2649 H   0  0  0  0  0  0  0  0  0  0  0  0  # atno 8010 bound_to 7997
  140.5497  143.2312  151.6934 H   0  0  0  0  0  0  0  0  0  0  0  0  # atno 10167 bound_to 10162
  156.6091  130.8843  151.2932 H   0  0  0  0  0  0  0  0  0  0  0  0  # atno 10718 bound_to 10713
  154.4046  135.2755  155.2075 H   0  0  0  0  0  0  0  0  0  0  0  0  # atno 10763 bound_to 10752
  154.4087  135.6027  153.5943 H   0  0  0  0  0  0  0  0  0  0  0  0  # atno 10764 bound_to 10752
  152.9831  135.5944  154.4318 H   0  0  0  0  0  0  0  0  0  0  0  0  # atno 10765 bound_to 10752
  139.9144  134.7900  156.1875 H   0  0  0  0  0  0  0  0  0  0  0  0  # atno 11005 bound_to 11000
  146.1376  140.7102  142.9382 LP  0  0  0  0  0  0  0  0  0  0  0  0  # atno 17320 bound_to 7965
  144.7203  140.4350  143.7013 LP  0  0  0  0  0  0  0  0  0  0  0  0  # atno 17321 bound_to 7965
  139.5022  144.3837  152.0350 LP  0  0  0  0  0  0  0  0  0  0  0  0  # atno 17342 bound_to 10162
  140.2953  144.3708  150.6076 LP  0  0  0  0  0  0  0  0  0  0  0  0  # atno 17343 bound_to 10162
  157.7259  130.9622  150.1633 LP  0  0  0  0  0  0  0  0  0  0  0  0  # atno 17370 bound_to 10713
  156.2404  130.3690  149.8343 LP  0  0  0  0  0  0  0  0  0  0  0  0  # atno 17371 bound_to 10713
  141.0604  133.6844  156.1942 LP  0  0  0  0  0  0  0  0  0  0  0  0  # atno 17394 bound_to 11000
  140.6670  134.4908  157.5586 LP  0  0  0  0  0  0  0  0  0  0  0  0  # atno 17395 bound_to 11000

$$$$
