AV-unprocessed.smi:1199|AV-procd|sdf|5016|dock6
  -GOLD-   22720 4 33D 1   1.00000     0.00000
 Structure written by MMmdl.
 41 42  0  0  0  0  0  0  0  0  3 V2000
  148.9754  133.4495  154.0468 C   0  0  0  0  0  0  0  0  0  0  0  0
  148.8960  134.7186  154.9056 C   0  0  2  0  0  0  0  0  0  0  0  0
  147.4824  135.3454  154.8747 C   0  0  0  0  0  0  0  0  0  0  0  0
  146.9813  135.6066  153.4995 N   0  3  0  0  0  0  0  0  0  0  0  0
  146.3883  134.4068  152.8639 C   0  0  0  0  0  0  0  0  0  0  0  0
  145.9666  134.7222  151.4186 C   0  0  0  0  0  0  0  0  0  0  0  0
  145.0679  135.8252  151.4057 O   0  0  0  0  0  0  0  0  0  0  0  0
  145.6592  137.0016  151.9441 C   0  0  0  0  0  0  0  0  0  0  0  0
  146.0436  136.7513  153.4114 C   0  0  0  0  0  0  0  0  0  0  0  0
  149.8912  135.6865  154.4467 N   0  0  0  0  0  0  0  0  0  0  0  0
  150.6305  136.4827  155.2349 C   0  0  0  0  0  0  0  0  0  0  0  0
  150.6544  136.3915  156.4627 O   0  0  0  0  0  0  0  0  0  0  0  0
  151.4512  137.5615  154.5212 C   0  0  0  0  0  0  0  0  0  0  0  0
  150.9960  138.9078  154.8919 N   0  0  0  0  0  0  0  0  0  0  0  0
  149.7401  139.2953  154.2511 N   0  5  0  0  0  0  0  0  0  0  0  0
  149.2178  140.5235  154.5108 C   0  0  0  0  0  0  0  0  0  0  0  0
  148.1785  140.9270  153.9947 O   0  0  0  0  0  0  0  0  0  0  0  0
  149.9217  141.3838  155.4465 C   0  0  0  0  0  0  0  0  0  0  0  0
  151.0650  140.9898  156.0410 C   0  0  0  0  0  0  0  0  0  0  0  0
  151.6696  139.6888  155.7840 C   0  0  0  0  0  0  0  0  0  0  0  0
  152.7090  139.3214  156.3310 O   0  0  0  0  0  0  0  0  0  0  0  0
  148.2524  132.7054  154.3819 H   0  0  0  0  0  0  0  0  0  0  0  0
  149.9653  132.9961  154.1074 H   0  0  0  0  0  0  0  0  0  0  0  0
  148.7706  133.6640  152.9973 H   0  0  0  0  0  0  0  0  0  0  0  0
  149.1165  134.4189  155.9310 H   0  0  0  0  0  0  0  0  0  0  0  0
  146.7963  134.6504  155.3614 H   0  0  0  0  0  0  0  0  0  0  0  0
  147.4538  136.2640  155.4627 H   0  0  0  0  0  0  0  0  0  0  0  0
  147.1120  133.5909  152.8615 H   0  0  0  0  0  0  0  0  0  0  0  0
  145.5264  134.0726  153.4435 H   0  0  0  0  0  0  0  0  0  0  0  0
  146.8384  134.9410  150.8031 H   0  0  0  0  0  0  0  0  0  0  0  0
  145.4729  133.8587  150.9729 H   0  0  0  0  0  0  0  0  0  0  0  0
  146.5310  137.2931  151.3560 H   0  0  0  0  0  0  0  0  0  0  0  0
  144.9421  137.8197  151.8780 H   0  0  0  0  0  0  0  0  0  0  0  0
  145.1510  136.5432  154.0030 H   0  0  0  0  0  0  0  0  0  0  0  0
  146.4951  137.6515  153.8254 H   0  0  0  0  0  0  0  0  0  0  0  0
  149.9603  135.8275  153.4489 H   0  0  0  0  0  0  0  0  0  0  0  0
  152.5057  137.4153  154.7603 H   0  0  0  0  0  0  0  0  0  0  0  0
  151.3784  137.4359  153.4391 H   0  0  0  0  0  0  0  0  0  0  0  0
  149.5186  142.3603  155.6719 H   0  0  0  0  0  0  0  0  0  0  0  0
  151.5535  141.6620  156.7306 H   0  0  0  0  0  0  0  0  0  0  0  0
  147.7895  135.8488  152.9421 H   0  0  0  0  0  0  0  0  0  0  0  0
  1  2  1  0  0  0  0
  1 22  1  0  0  0  0
  1 23  1  0  0  0  0
  1 24  1  0  0  0  0
  2  3  1  0  0  0  0
  2 10  1  0  0  0  0
  2 25  1  0  0  0  0
  3  4  1  0  0  0  0
  3 26  1  0  0  0  0
  3 27  1  0  0  0  0
  4  9  1  0  0  0  0
  4  5  1  0  0  0  0
  4 41  1  0  0  0  0
  5  6  1  0  0  0  0
  5 28  1  0  0  0  0
  5 29  1  0  0  0  0
  6  7  1  0  0  0  0
  6 30  1  0  0  0  0
  6 31  1  0  0  0  0
  7  8  1  0  0  0  0
  8  9  1  0  0  0  0
  8 32  1  0  0  0  0
  8 33  1  0  0  0  0
  9 34  1  0  0  0  0
  9 35  1  0  0  0  0
 10 11  1  0  0  0  0
 10 36  1  0  0  0  0
 11 12  2  0  0  0  0
 11 13  1  0  0  0  0
 13 37  1  0  0  0  0
 13 38  1  0  0  0  0
 13 14  1  0  0  0  0
 14 15  1  0  0  0  0
 14 20  1  0  0  0  0
 15 16  1  0  0  0  0
 16 17  2  0  0  0  0
 16 18  1  0  0  0  0
 18 39  1  0  0  0  0
 18 19  2  0  0  0  0
 19 40  1  0  0  0  0
 19 20  1  0  0  0  0
 20 21  2  0  0  0  0
M  CHG  1   4   1
M  CHG  1  15  -1
M  END
> <s_m_source_file>
AV-unprocessed.smi

> <i_m_source_file_index>
1199

> <i_lp_mmshare_version>
43012

> <i_f3d_flags>
0

> <s_epik_input>
W0NIMl0xW0NIMl1PW0NIMl1bQ0gyXU4xW0NIMl1bQ0BASF0oW0NIM10pW05IXUMoPU8pW0NIMl1uMltuSF1jKD1PKVtjSF1bY0hdYzI9Tw==

> <s_epik_cmdline>
J2VwaWtfcHl0aG9uJywgJy1waCcsICc3LjAnLCAnLXRuJywgJzgnLCAnLW1hJywgJzIwMCcsICctbWV0YWxfYmluZGluZycsICctaW1hZScsICc8aW5maWxlLm1hZT4nLCAnLW9tYWUnLCAnPG91dGZpbGUubWFlPic=

> <r_lp_tautomer_probability>
1

> <r_epik_Ionization_Penalty>
0.741876

> <r_epik_Ionization_Penalty_Charging>
0.741876

> <r_epik_Ionization_Penalty_Neutral>
9.12373e-08

> <r_epik_State_Penalty>
0.692284

> <r_epik_Charging_Adjusted_Penalty>
1.43416

> <i_epik_Tot_Q>
0

> <i_epik_Tot_abs_Q>
2

> <r_epik_Metal_State_Penalty>
0.692284

> <b_epik_Metal_Only>
0

> <s_lp_Force_Field>
OPLS_2005

> <r_lp_Energy>
28.0654

> <b_lp_Chiralities_Consistent>
1

> <s_lp_Variant>
AV-unprocessed.smi:1199-3

> <Gold.Version>
5.8.1

> <Gold.Id.Protein>
6NUR|6NUR_protein|mol2

> <Gold.PLP.Fitness>
44.1414

> <Gold.PLP.PLP>
-35.8683

> <Gold.PLP.part.hbond>
-3.7445

> <Gold.PLP.part.metal>
0.0000

> <Gold.PLP.part.buried>
-5.0392

> <Gold.PLP.part.nonpolar>
-29.0546

> <Gold.PLP.part.repulsive>
0.9233

> <Gold.PLP.ligand.clash>
0.0000

> <Gold.PLP.ligand.torsion>
0.8806

> <Gold.PLP.Chemscore.Hbond>
3.3192

> <Gold.PLP.Chemscore.CHOScore>
0.0000

> <Gold.PLP.Chemscore.Metal>
0.0000

> <Gold.Chemscore.Hbonds>
donor molecule, donor type, donor heavy atom, donor atom, acceptor molecule, acceptor atom, score
      L1  H     4    41       P1  7948  2.00
      L1  H    10    36       P1  7948  0.41
      P1  H  7997  8008       L1    21  1.00

> <Gold.PLP.Chemscore.Internal.Correction>
0.0768

> <Gold.Rescore>
     Score         DG    S(hbond)    S(metal)    S(lipo)     H(rot)  DE(clash)    DE(int)     intcor
     11.38     -12.25       2.00        0.00      52.84       2.37       0.05       0.82       ----

> <Gold.Chemscore.Fitness>
11.3835

> <Gold.Chemscore.DG>
-12.2528

> <Gold.Chemscore.ZeroCoef>
-5.4800

> <Gold.Chemscore.Hbond>
1.9969

> <Gold.Chemscore.Metal>
0.0000

> <Gold.Chemscore.Lipo>
52.8409

> <Gold.Chemscore.Internal_Hbond>
0.0000

> <Gold.Chemscore.DEClash>
0.0508

> <Gold.Chemscore.DEInternal>
0.8186

> <Gold.Chemscore.Rot>
2.3747

> <Gold.Chemscore.Internal.Correction>
   9.000000E+99

> <Gold.Chemscore.Hbonds>
donor molecule, donor type, donor heavy atom, donor atom, acceptor molecule, acceptor atom, score
      L1  H     4    41       P1  7948  0.99
      L1  H    10    36       P1  7948  0.01
      P1  H  7997  8008       L1    21  0.99

> <Gold.Chemscore.Hbond.Weighted>
-6.6696

> <Gold.Chemscore.Metal.Weighted>
-0.0000

> <Gold.Chemscore.Lipo.Weighted>
-6.1824

> <Gold.Chemscore.Internal_Hbond.Weighted>
0.0000

> <Gold.Chemscore.DEClash.Weighted>
0.0508

> <Gold.Chemscore.DEInternal.Weighted>
0.8186

> <Gold.Chemscore.Rot.Weighted>
6.0791

> <Gold.Chemscore.Internal.Correction.Weighted>
   9.000000E+99

> <Gold.Protein.RotatedTorsions>
[ 6907 6896 6895 6894 ] final  114.14 input  -60.11 | X-H torsion
[ 7974 7965 7964 7962 ] final  -83.86 input  175.53 | X-H torsion
[ 8008 7997 7996 7995 ] final  -31.84 input   59.86 | X-H torsion
[ 10167 10162 10161 10158 ] final   -6.74 input  -65.29 | X-H torsion
[ 10718 10713 10712 10709 ] final   45.73 input   66.30 | X-H torsion
[ 10763 10752 10751 10750 ] final  162.03 input  -60.55 | X-H torsion
[ 11005 11000 10999 10996 ] final   69.65 input  -57.11 | X-H torsion

> <Gold.Protein.ActiveResidues>
 VAL166  LYS551  ARG553  GLY616  TRP617  ASP618  TYR619  PRO620  LYS621  CYS622 
 ASP623  PHE694  ASN695  SER759  ASP760  ASP761  ALA762  ILE779  LEU786  VAL792 
 PHE793  MET794  SER795  GLU796  ALA797  LYS798  CYS799  TRP800  GLU811  SER814 

> <Gold.Protein.RotatedAtoms>
  152.4820  133.8277  159.7086 H   0  0  0  0  0  0  0  0  0  0  0  0  # atno 6907 bound_to 6896
  150.8877  133.7276  159.2920 H   0  0  0  0  0  0  0  0  0  0  0  0  # atno 6908 bound_to 6896
  151.4760  135.1053  159.9816 H   0  0  0  0  0  0  0  0  0  0  0  0  # atno 6909 bound_to 6896
  145.5144  140.9537  143.1690 H   0  0  0  0  0  0  0  0  0  0  0  0  # atno 7974 bound_to 7965
  154.4200  140.1753  156.1632 H   0  0  0  0  0  0  0  0  0  0  0  0  # atno 8008 bound_to 7997
  155.9821  140.3376  155.6648 H   0  0  0  0  0  0  0  0  0  0  0  0  # atno 8009 bound_to 7997
  155.6486  140.0688  157.2585 H   0  0  0  0  0  0  0  0  0  0  0  0  # atno 8010 bound_to 7997
  140.7006  143.6160  150.8658 H   0  0  0  0  0  0  0  0  0  0  0  0  # atno 10167 bound_to 10162
  157.4407  130.8079  149.7691 H   0  0  0  0  0  0  0  0  0  0  0  0  # atno 10718 bound_to 10713
  154.2720  135.2765  155.2734 H   0  0  0  0  0  0  0  0  0  0  0  0  # atno 10763 bound_to 10752
  154.5293  135.5734  153.6749 H   0  0  0  0  0  0  0  0  0  0  0  0  # atno 10764 bound_to 10752
  152.9943  135.6224  154.2875 H   0  0  0  0  0  0  0  0  0  0  0  0  # atno 10765 bound_to 10752
  139.9642  134.7010  156.0582 H   0  0  0  0  0  0  0  0  0  0  0  0  # atno 11005 bound_to 11000
  144.7710  139.6735  143.7195 LP  0  0  0  0  0  0  0  0  0  0  0  0  # atno 17320 bound_to 7965
  146.2146  139.5526  142.9658 LP  0  0  0  0  0  0  0  0  0  0  0  0  # atno 17321 bound_to 7965
  139.9882  143.5876  152.2919 LP  0  0  0  0  0  0  0  0  0  0  0  0  # atno 17342 bound_to 10162
  139.6522  144.7661  151.2126 LP  0  0  0  0  0  0  0  0  0  0  0  0  # atno 17343 bound_to 10162
  155.9947  130.3916  150.2846 LP  0  0  0  0  0  0  0  0  0  0  0  0  # atno 17370 bound_to 10713
  157.1011  131.0196  151.3085 LP  0  0  0  0  0  0  0  0  0  0  0  0  # atno 17371 bound_to 10713
  141.1320  133.6584  156.3492 LP  0  0  0  0  0  0  0  0  0  0  0  0  # atno 17394 bound_to 11000
  140.5434  134.6098  157.5386 LP  0  0  0  0  0  0  0  0  0  0  0  0  # atno 17395 bound_to 11000

$$$$
