AV-unprocessed.smi:2811|AV-procd|sdf|10829|dock2
  -GOLD-   2272015273D 1   1.00000     0.00000
 Structure written by MMmdl.
 38 40  0  0  0  0  0  0  0  0  1 V2000
  152.5480  144.1207  161.9636 C   0  0  0  0  0  0  0  0  0  0  0  0
  152.6576  143.1327  160.8215 C   0  0  0  0  0  0  0  0  0  0  0  0
  153.6744  142.1594  160.8080 C   0  0  0  0  0  0  0  0  0  0  0  0
  153.7269  141.2698  159.7180 C   0  0  0  0  0  0  0  0  0  0  0  0
  154.7950  140.1993  159.6377 C   0  0  0  0  0  0  0  0  0  0  0  0
  152.8525  141.3124  158.6903 N   0  0  0  0  0  0  0  0  0  0  0  0
  151.8671  142.2458  158.6887 C   0  0  0  0  0  0  0  0  0  0  0  0
  150.8871  142.3876  157.6621 N   0  0  0  0  0  0  0  0  0  0  0  0
  150.5590  141.5933  156.6200 C   0  0  0  0  0  0  0  0  0  0  0  0
  151.1473  140.5315  156.4211 O   0  0  0  0  0  0  0  0  0  0  0  0
  149.5687  142.0306  155.8265 N   0  0  0  0  0  0  0  0  0  0  0  0
  149.0615  141.3395  154.6468 C   0  0  2  0  0  0  0  0  0  0  0  0
  147.7711  141.9646  154.1025 C   0  0  0  0  0  0  0  0  0  0  0  0
  146.7930  140.7849  154.1790 C   0  0  1  0  0  0  0  0  0  0  0  0
  147.1258  139.6902  153.1547 C   0  0  0  0  0  0  0  0  0  0  0  0
  148.3823  139.0633  153.7599 C   0  0  0  0  0  0  0  0  0  0  0  0
  148.5847  139.9242  155.0136 C   0  0  2  0  0  0  0  0  0  0  0  0
  147.2348  140.1671  155.3744 O   0  0  0  0  0  0  0  0  0  0  0  0
  151.7458  143.1748  159.7472 C   0  0  0  0  0  0  0  0  0  0  0  0
  153.0147  143.7273  162.8672 H   0  0  0  0  0  0  0  0  0  0  0  0
  151.5030  144.3354  162.1890 H   0  0  0  0  0  0  0  0  0  0  0  0
  153.0424  145.0557  161.6999 H   0  0  0  0  0  0  0  0  0  0  0  0
  154.3949  142.0973  161.6107 H   0  0  0  0  0  0  0  0  0  0  0  0
  155.2341  140.0102  160.6176 H   0  0  0  0  0  0  0  0  0  0  0  0
  155.5895  140.5108  158.9594 H   0  0  0  0  0  0  0  0  0  0  0  0
  154.3759  139.2623  159.2689 H   0  0  0  0  0  0  0  0  0  0  0  0
  150.3361  143.2308  157.7295 H   0  0  0  0  0  0  0  0  0  0  0  0
  149.1387  142.9161  156.0564 H   0  0  0  0  0  0  0  0  0  0  0  0
  149.8424  141.2942  153.8853 H   0  0  0  0  0  0  0  0  0  0  0  0
  147.4238  142.7846  154.7331 H   0  0  0  0  0  0  0  0  0  0  0  0
  147.8838  142.3452  153.0868 H   0  0  0  0  0  0  0  0  0  0  0  0
  145.7437  141.0809  154.1868 H   0  0  0  0  0  0  0  0  0  0  0  0
  146.3226  138.9548  153.0955 H   0  0  0  0  0  0  0  0  0  0  0  0
  147.2926  140.0954  152.1560 H   0  0  0  0  0  0  0  0  0  0  0  0
  148.1971  138.0234  154.0312 H   0  0  0  0  0  0  0  0  0  0  0  0
  149.2399  139.0934  153.0870 H   0  0  0  0  0  0  0  0  0  0  0  0
  149.1774  139.4348  155.7875 H   0  0  0  0  0  0  0  0  0  0  0  0
  150.9597  143.9163  159.7373 H   0  0  0  0  0  0  0  0  0  0  0  0
  1  2  1  0  0  0  0
  1 20  1  0  0  0  0
  1 21  1  0  0  0  0
  1 22  1  0  0  0  0
  2 19  1  0  0  0  0
  2  3  2  0  0  0  0
  3  4  1  0  0  0  0
  3 23  1  0  0  0  0
  4  5  1  0  0  0  0
  4  6  2  0  0  0  0
  5 24  1  0  0  0  0
  5 25  1  0  0  0  0
  5 26  1  0  0  0  0
  6  7  1  0  0  0  0
  7  8  1  0  0  0  0
  7 19  2  0  0  0  0
  8  9  1  0  0  0  0
  8 27  1  0  0  0  0
  9 10  2  0  0  0  0
  9 11  1  0  0  0  0
 11 12  1  0  0  0  0
 11 28  1  0  0  0  0
 12 17  1  0  0  0  0
 12 13  1  0  0  0  0
 12 29  1  0  0  0  0
 13 14  1  0  0  0  0
 13 30  1  0  0  0  0
 13 31  1  0  0  0  0
 14 18  1  0  0  0  0
 14 15  1  0  0  0  0
 14 32  1  0  0  0  0
 15 16  1  0  0  0  0
 15 33  1  0  0  0  0
 15 34  1  0  0  0  0
 16 17  1  0  0  0  0
 16 35  1  0  0  0  0
 16 36  1  0  0  0  0
 17 18  1  0  0  0  0
 17 37  1  0  0  0  0
 19 38  1  0  0  0  0
M  END
> <s_m_source_file>
AV-unprocessed.smi

> <i_m_source_file_index>
2811

> <i_lp_mmshare_version>
43012

> <i_f3d_flags>
0

> <s_epik_input>
W0NIM11jMVtjSF1jKFtDSDNdKW5jKFtjSF0xKVtOSF1DKD1PKVtOSF1bQ0BIXShbQ0gyXVtDQEBIXTIzKVtDQEBIXShPMylbQ0gyXVtDSDJdMg==

> <s_epik_cmdline>
J2VwaWtfcHl0aG9uJywgJy1waCcsICc3LjAnLCAnLXRuJywgJzgnLCAnLW1hJywgJzIwMCcsICctbWV0YWxfYmluZGluZycsICctaW1hZScsICc8aW5maWxlLm1hZT4nLCAnLW9tYWUnLCAnPG91dGZpbGUubWFlPic=

> <r_lp_tautomer_probability>
1

> <r_epik_Ionization_Penalty>
0.000281548

> <r_epik_Ionization_Penalty_Charging>
0

> <r_epik_Ionization_Penalty_Neutral>
0.000281548

> <r_epik_State_Penalty>
-0

> <r_epik_Charging_Adjusted_Penalty>
0

> <i_epik_Tot_Q>
0

> <i_epik_Tot_abs_Q>
0

> <r_epik_Metal_State_Penalty>
-0

> <b_epik_Metal_Only>
0

> <s_lp_Force_Field>
OPLS_2005

> <r_lp_Energy>
40.4473

> <b_lp_Chiralities_Consistent>
1

> <s_lp_Variant>
AV-unprocessed.smi:2811-1

> <Gold.Version>
5.8.1

> <Gold.Id.Protein>
6NUR|6NUR_protein|mol2

> <Gold.PLP.Fitness>
40.8123

> <Gold.PLP.PLP>
-37.9502

> <Gold.PLP.part.hbond>
-1.0000

> <Gold.PLP.part.metal>
0.0000

> <Gold.PLP.part.buried>
-3.8193

> <Gold.PLP.part.nonpolar>
-32.7375

> <Gold.PLP.part.repulsive>
0.1911

> <Gold.PLP.ligand.clash>
0.0000

> <Gold.PLP.ligand.torsion>
0.0822

> <Gold.PLP.Chemscore.Hbond>
1.0000

> <Gold.PLP.Chemscore.CHOScore>
0.0000

> <Gold.PLP.Chemscore.Metal>
0.0000

> <Gold.Chemscore.Hbonds>
donor molecule, donor type, donor heavy atom, donor atom, acceptor molecule, acceptor atom, score
      L1  H    11    28       P1  8028  0.98

> <Gold.PLP.Chemscore.Internal.Correction>
0.0266

> <Gold.Rescore>
     Score         DG    S(hbond)    S(metal)    S(lipo)     H(rot)  DE(clash)    DE(int)     intcor
     16.74     -18.25       0.99        0.00     102.66       1.00       0.28       1.23       ----

> <Gold.Chemscore.Fitness>
16.7402

> <Gold.Chemscore.DG>
-18.2467

> <Gold.Chemscore.ZeroCoef>
-5.4800

> <Gold.Chemscore.Hbond>
0.9926

> <Gold.Chemscore.Metal>
0.0000

> <Gold.Chemscore.Lipo>
102.6633

> <Gold.Chemscore.Internal_Hbond>
0.0000

> <Gold.Chemscore.DEClash>
0.2761

> <Gold.Chemscore.DEInternal>
1.2304

> <Gold.Chemscore.Rot>
1.0000

> <Gold.Chemscore.Internal.Correction>
   9.000000E+99

> <Gold.Chemscore.Hbonds>
donor molecule, donor type, donor heavy atom, donor atom, acceptor molecule, acceptor atom, score
      L1  H    11    28       P1  8028  0.93

> <Gold.Chemscore.Hbond.Weighted>
-3.3151

> <Gold.Chemscore.Metal.Weighted>
-0.0000

> <Gold.Chemscore.Lipo.Weighted>
-12.0116

> <Gold.Chemscore.Internal_Hbond.Weighted>
0.0000

> <Gold.Chemscore.DEClash.Weighted>
0.2761

> <Gold.Chemscore.DEInternal.Weighted>
1.2304

> <Gold.Chemscore.Rot.Weighted>
2.5600

> <Gold.Chemscore.Internal.Correction.Weighted>
   9.000000E+99

> <Gold.Protein.RotatedTorsions>
[ 6907 6896 6895 6894 ] final   62.87 input  -60.11 | X-H torsion
[ 7974 7965 7964 7962 ] final   26.66 input  175.53 | X-H torsion
[ 8008 7997 7996 7995 ] final   62.26 input   59.86 | X-H torsion
[ 10167 10162 10161 10158 ] final -117.69 input  -65.29 | X-H torsion
[ 10718 10713 10712 10709 ] final  -26.23 input   66.30 | X-H torsion
[ 10763 10752 10751 10750 ] final  122.87 input  -60.55 | X-H torsion
[ 11005 11000 10999 10996 ] final   58.54 input  -57.11 | X-H torsion

> <Gold.Protein.ActiveResidues>
 VAL166  LYS551  ARG553  GLY616  TRP617  ASP618  TYR619  PRO620  LYS621  CYS622 
 ASP623  PHE694  ASN695  SER759  ASP760  ASP761  ALA762  ILE779  LEU786  VAL792 
 PHE793  MET794  SER795  GLU796  ALA797  LYS798  CYS799  TRP800  GLU811  SER814 

> <Gold.Protein.RotatedAtoms>
  152.4207  134.5960  159.9986 H   0  0  0  0  0  0  0  0  0  0  0  0  # atno 6907 bound_to 6896
  151.6111  133.3341  159.3075 H   0  0  0  0  0  0  0  0  0  0  0  0  # atno 6908 bound_to 6896
  150.8095  134.7279  159.6741 H   0  0  0  0  0  0  0  0  0  0  0  0  # atno 6909 bound_to 6896
  146.1826  139.7298  142.8890 H   0  0  0  0  0  0  0  0  0  0  0  0  # atno 7974 bound_to 7965
  155.6115  140.3495  155.4624 H   0  0  0  0  0  0  0  0  0  0  0  0  # atno 8008 bound_to 7997
  156.0150  140.1241  157.0439 H   0  0  0  0  0  0  0  0  0  0  0  0  # atno 8009 bound_to 7997
  154.4294  140.1074  156.5870 H   0  0  0  0  0  0  0  0  0  0  0  0  # atno 8010 bound_to 7997
  140.0656  143.4926  152.2008 H   0  0  0  0  0  0  0  0  0  0  0  0  # atno 10167 bound_to 10162
  156.4540  130.4490  149.6971 H   0  0  0  0  0  0  0  0  0  0  0  0  # atno 10718 bound_to 10713
  153.6365  135.3387  155.3058 H   0  0  0  0  0  0  0  0  0  0  0  0  # atno 10763 bound_to 10752
  154.8569  135.4308  154.2050 H   0  0  0  0  0  0  0  0  0  0  0  0  # atno 10764 bound_to 10752
  153.2958  135.7020  153.7323 H   0  0  0  0  0  0  0  0  0  0  0  0  # atno 10765 bound_to 10752
  140.0370  134.5929  155.9432 H   0  0  0  0  0  0  0  0  0  0  0  0  # atno 11005 bound_to 11000
  145.4033  141.0388  143.3058 LP  0  0  0  0  0  0  0  0  0  0  0  0  # atno 17320 bound_to 7965
  144.8341  139.5580  143.6930 LP  0  0  0  0  0  0  0  0  0  0  0  0  # atno 17321 bound_to 7965
  139.5867  144.7534  151.3502 LP  0  0  0  0  0  0  0  0  0  0  0  0  # atno 17342 bound_to 10162
  140.7151  143.7289  150.7639 LP  0  0  0  0  0  0  0  0  0  0  0  0  # atno 17343 bound_to 10162
  156.3786  130.7567  151.2558 LP  0  0  0  0  0  0  0  0  0  0  0  0  # atno 17370 bound_to 10713
  157.7501  131.0302  150.4127 LP  0  0  0  0  0  0  0  0  0  0  0  0  # atno 17371 bound_to 10713
  141.1862  133.6557  156.5231 LP  0  0  0  0  0  0  0  0  0  0  0  0  # atno 17394 bound_to 11000
  140.4132  134.7254  157.4848 LP  0  0  0  0  0  0  0  0  0  0  0  0  # atno 17395 bound_to 11000

$$$$
