AV-unprocessed.smi:157|AV-procd|sdf|1314|dock2
  -GOLD-   2262019 03D 1   1.00000     0.00000
 Structure written by MMmdl.
 36 38  0  0  0  0  0  0  0  0  2 V2000
  150.5501  136.3506  158.5228 O   0  0  0  0  0  0  0  0  0  0  0  0
  150.3331  136.8151  157.2069 C   0  0  0  0  0  0  0  0  0  0  0  0
  151.6622  137.2364  156.5481 C   0  0  2  0  0  0  0  0  0  0  0  0
  152.0407  138.4826  157.1385 O   0  0  0  0  0  0  0  0  0  0  0  0
  152.1319  139.4742  156.1625 C   0  0  2  0  0  0  0  0  0  0  0  0
  151.5666  140.7401  156.7172 N   0  0  0  0  0  0  0  0  0  0  0  0
  150.4945  141.4073  156.2412 C   0  0  0  0  0  0  0  0  0  0  0  0
  150.1972  142.5089  156.9093 N   0  3  0  0  0  0  0  0  0  0  0  0
  151.1304  142.6172  157.9186 C   0  0  0  0  0  0  0  0  0  0  0  0
  151.9668  141.5052  157.7885 C   0  0  0  0  0  0  0  0  0  0  0  0
  153.0784  141.1229  158.5551 N   0  0  0  0  0  0  0  0  0  0  0  0
  153.3311  141.6174  159.7233 C   0  0  0  0  0  0  0  0  0  0  0  0
  152.6763  142.6312  160.4027 N   0  0  0  0  0  0  0  0  0  0  0  0
  152.3066  143.8903  159.7809 C   0  0  0  0  0  0  0  0  0  0  0  0
  151.0889  143.7856  158.8532 C   0  0  2  0  0  0  0  0  0  0  0  0
  149.9176  143.8065  159.6428 O   0  0  0  0  0  0  0  0  0  0  0  0
  151.3096  138.9927  154.9758 C   0  0  0  0  0  0  0  0  0  0  0  0
  151.6079  137.5115  155.0309 C   0  0  2  0  0  0  0  0  0  0  0  0
  150.6390  136.7668  154.3212 O   0  0  0  0  0  0  0  0  0  0  0  0
  152.4329  136.4983  156.7738 H   0  0  0  0  0  0  0  0  0  0  0  0
  153.1758  139.6777  155.9215 H   0  0  0  0  0  0  0  0  0  0  0  0
  151.0580  144.6919  158.2471 H   0  0  0  0  0  0  0  0  0  0  0  0
  152.5897  137.3244  154.5933 H   0  0  0  0  0  0  0  0  0  0  0  0
  149.9765  136.8224  159.1073 H   0  0  0  0  0  0  0  0  0  0  0  0
  149.8183  136.0551  156.6185 H   0  0  0  0  0  0  0  0  0  0  0  0
  149.6646  137.6740  157.2725 H   0  0  0  0  0  0  0  0  0  0  0  0
  149.9349  141.0673  155.3882 H   0  0  0  0  0  0  0  0  0  0  0  0
  154.1723  141.2203  160.2932 H   0  0  0  0  0  0  0  0  0  0  0  0
  152.8556  142.7459  161.3904 H   0  0  0  0  0  0  0  0  0  0  0  0
  152.1438  144.6460  160.5501 H   0  0  0  0  0  0  0  0  0  0  0  0
  153.1651  144.2308  159.1999 H   0  0  0  0  0  0  0  0  0  0  0  0
  149.7733  142.9426  159.9970 H   0  0  0  0  0  0  0  0  0  0  0  0
  150.2503  139.1886  155.1515 H   0  0  0  0  0  0  0  0  0  0  0  0
  151.6216  139.4776  154.0503 H   0  0  0  0  0  0  0  0  0  0  0  0
  150.8815  136.7526  153.4073 H   0  0  0  0  0  0  0  0  0  0  0  0
  149.4381  143.1475  156.7086 H   0  0  0  0  0  0  0  0  0  0  0  0
  1  2  1  0  0  0  0
  1 24  1  0  0  0  0
  2  3  1  0  0  0  0
  2 25  1  0  0  0  0
  2 26  1  0  0  0  0
  3 20  1  0  0  0  0
  3 18  1  0  0  0  0
  3  4  1  0  0  0  0
  4  5  1  0  0  0  0
  5 21  1  0  0  0  0
  5  6  1  0  0  0  0
  5 17  1  0  0  0  0
  6 10  1  0  0  0  0
  6  7  1  0  0  0  0
  7  8  2  0  0  0  0
  7 27  1  0  0  0  0
  8  9  1  0  0  0  0
  8 36  1  0  0  0  0
  9 15  1  0  0  0  0
  9 10  2  0  0  0  0
 10 11  1  0  0  0  0
 11 12  2  0  0  0  0
 12 13  1  0  0  0  0
 12 28  1  0  0  0  0
 13 14  1  0  0  0  0
 13 29  1  0  0  0  0
 14 15  1  0  0  0  0
 14 30  1  0  0  0  0
 14 31  1  0  0  0  0
 15 22  1  0  0  0  0
 15 16  1  0  0  0  0
 16 32  1  0  0  0  0
 17 18  1  0  0  0  0
 17 33  1  0  0  0  0
 17 34  1  0  0  0  0
 18 23  1  0  0  0  0
 18 19  1  0  0  0  0
 19 35  1  0  0  0  0
M  CHG  1   8   1
M  END
> <s_m_source_file>
AV-unprocessed.smi

> <i_m_source_file_index>
157

> <i_lp_mmshare_version>
43012

> <i_f3d_flags>
0

> <s_epik_input>
W09IXVtDSDJdW0NASF0xT1tDQEhdKFtDSDJdW0NAQEhdMVtPSF0pbihbY0hdbjIpYyhjMjMpTj1bQ0hdW05IXVtDSDJdW0NASF0zW09IXQ==

> <s_epik_cmdline>
J2VwaWtfcHl0aG9uJywgJy1waCcsICc3LjAnLCAnLXRuJywgJzgnLCAnLW1hJywgJzIwMCcsICctbWV0YWxfYmluZGluZycsICctaW1hZScsICc8aW5maWxlLm1hZT4nLCAnLW9tYWUnLCAnPG91dGZpbGUubWFlPic=

> <r_epik_Ionization_Penalty>
1.68594

> <r_epik_Ionization_Penalty_Charging>
0

> <r_epik_Ionization_Penalty_Neutral>
1.68594

> <r_epik_State_Penalty>
1.79006

> <r_epik_Charging_Adjusted_Penalty>
1.79006

> <i_epik_Tot_Q>
1

> <i_epik_Tot_abs_Q>
1

> <r_epik_Metal_State_Penalty>
5.85324

> <b_epik_Metal_Only>
0

> <s_epik_Chemistry_Notes>
This compound has an imine and may undergo hydrolysis. This compound contains an acetal/aminal-like group ( X-CH(R)-Y where X, Y are N, S, or O) that may be acid/base labile, releasing an aldehyde.

> <s_lp_Force_Field>
OPLS_2005

> <r_lp_Energy>
55.0394

> <b_lp_Chiralities_Consistent>
1

> <s_lp_Variant>
AV-unprocessed.smi:157-24

> <Gold.Version>
5.8.1

> <Gold.Id.Protein>
6NUR|6NUR_protein|mol2

> <Gold.PLP.Fitness>
44.6179

> <Gold.PLP.PLP>
-32.7988

> <Gold.PLP.part.hbond>
-4.8206

> <Gold.PLP.part.metal>
0.0000

> <Gold.PLP.part.buried>
-5.1098

> <Gold.PLP.part.nonpolar>
-24.0831

> <Gold.PLP.part.repulsive>
0.1183

> <Gold.PLP.ligand.clash>
0.0000

> <Gold.PLP.ligand.torsion>
0.0857

> <Gold.PLP.Chemscore.Hbond>
3.9920

> <Gold.PLP.Chemscore.CHOScore>
0.0000

> <Gold.PLP.Chemscore.Metal>
0.0000

> <Gold.Chemscore.Hbonds>
donor molecule, donor type, donor heavy atom, donor atom, acceptor molecule, acceptor atom, score
      L1  H     8    36       P1  8028  1.82
      L1  H    19    35       P1  7949  0.75
      P1  H  6896  6908       L1     1  0.72

> <Gold.PLP.Chemscore.Internal.Correction>
0.0145

> <Gold.Rescore>
     Score         DG    S(hbond)    S(metal)    S(lipo)     H(rot)  DE(clash)    DE(int)     intcor
      9.68      -9.86       2.35        0.00      50.64       3.67       0.12       0.05       ----

> <Gold.Chemscore.Fitness>
9.6825

> <Gold.Chemscore.DG>
-9.8588

> <Gold.Chemscore.ZeroCoef>
-5.4800

> <Gold.Chemscore.Hbond>
2.3471

> <Gold.Chemscore.Metal>
0.0000

> <Gold.Chemscore.Lipo>
50.6352

> <Gold.Chemscore.Internal_Hbond>
0.0000

> <Gold.Chemscore.DEClash>
0.1214

> <Gold.Chemscore.DEInternal>
0.0549

> <Gold.Chemscore.Rot>
3.6659

> <Gold.Chemscore.Internal.Correction>
   9.000000E+99

> <Gold.Chemscore.Hbonds>
donor molecule, donor type, donor heavy atom, donor atom, acceptor molecule, acceptor atom, score
      L1  H     8    36       P1  8028  0.86
      L1  H    19    35       P1  7949  0.12
      P1  H  6896  6908       L1     1  0.10
      P1  H  7997  8010       L1    11  0.01

> <Gold.Chemscore.Hbond.Weighted>
-7.8393

> <Gold.Chemscore.Metal.Weighted>
-0.0000

> <Gold.Chemscore.Lipo.Weighted>
-5.9243

> <Gold.Chemscore.Internal_Hbond.Weighted>
0.0000

> <Gold.Chemscore.DEClash.Weighted>
0.1214

> <Gold.Chemscore.DEInternal.Weighted>
0.0549

> <Gold.Chemscore.Rot.Weighted>
9.3848

> <Gold.Chemscore.Internal.Correction.Weighted>
   9.000000E+99

> <Gold.Protein.RotatedTorsions>
[ 6907 6896 6895 6894 ] final -168.15 input  -60.11 | X-H torsion
[ 7974 7965 7964 7962 ] final  -53.94 input  175.53 | X-H torsion
[ 8008 7997 7996 7995 ] final   14.06 input   59.86 | X-H torsion
[ 10167 10162 10161 10158 ] final  -16.20 input  -65.29 | X-H torsion
[ 10718 10713 10712 10709 ] final  -33.70 input   66.30 | X-H torsion
[ 10763 10752 10751 10750 ] final -174.24 input  -60.55 | X-H torsion
[ 11005 11000 10999 10996 ] final  -98.55 input  -57.11 | X-H torsion

> <Gold.Protein.ActiveResidues>
 VAL166  LYS551  ARG553  GLY616  TRP617  ASP618  TYR619  PRO620  LYS621  CYS622 
 ASP623  PHE694  ASN695  SER759  ASP760  ASP761  ALA762  ILE779  LEU786  VAL792 
 PHE793  MET794  SER795  GLU796  ALA797  LYS798  CYS799  TRP800  GLU811  SER814 

> <Gold.Protein.RotatedAtoms>
  151.4710  133.3569  159.2823 H   0  0  0  0  0  0  0  0  0  0  0  0  # atno 6907 bound_to 6896
  150.8961  134.8371  159.7338 H   0  0  0  0  0  0  0  0  0  0  0  0  # atno 6908 bound_to 6896
  152.4852  134.4625  159.9661 H   0  0  0  0  0  0  0  0  0  0  0  0  # atno 6909 bound_to 6896
  145.8912  140.8069  142.9790 H   0  0  0  0  0  0  0  0  0  0  0  0  # atno 7974 bound_to 7965
  154.8432  140.2918  155.5646 H   0  0  0  0  0  0  0  0  0  0  0  0  # atno 8008 bound_to 7997
  156.3013  140.2510  156.3309 H   0  0  0  0  0  0  0  0  0  0  0  0  # atno 8009 bound_to 7997
  154.9103  140.0389  157.1932 H   0  0  0  0  0  0  0  0  0  0  0  0  # atno 8010 bound_to 7997
  140.7230  143.5140  150.9715 H   0  0  0  0  0  0  0  0  0  0  0  0  # atno 10167 bound_to 10162
  156.3594  130.4321  149.7636 H   0  0  0  0  0  0  0  0  0  0  0  0  # atno 10718 bound_to 10713
  154.5986  135.2852  155.0560 H   0  0  0  0  0  0  0  0  0  0  0  0  # atno 10763 bound_to 10752
  154.1833  135.6453  153.5044 H   0  0  0  0  0  0  0  0  0  0  0  0  # atno 10764 bound_to 10752
  153.0148  135.5429  154.6697 H   0  0  0  0  0  0  0  0  0  0  0  0  # atno 10765 bound_to 10752
  141.1341  133.8254  157.0854 H   0  0  0  0  0  0  0  0  0  0  0  0  # atno 11005 bound_to 11000
  144.6730  140.1532  143.7428 LP  0  0  0  0  0  0  0  0  0  0  0  0  # atno 17320 bound_to 7965
  145.8906  139.2374  143.1551 LP  0  0  0  0  0  0  0  0  0  0  0  0  # atno 17321 bound_to 7965
  139.8855  143.7018  152.3152 LP  0  0  0  0  0  0  0  0  0  0  0  0  # atno 17342 bound_to 10162
  139.7316  144.7581  151.0793 LP  0  0  0  0  0  0  0  0  0  0  0  0  # atno 17343 bound_to 10162
  156.4806  130.8039  151.3053 LP  0  0  0  0  0  0  0  0  0  0  0  0  # atno 17370 bound_to 10713
  157.7471  131.0007  150.2936 LP  0  0  0  0  0  0  0  0  0  0  0  0  # atno 17371 bound_to 10713
  140.0425  134.9847  157.0989 LP  0  0  0  0  0  0  0  0  0  0  0  0  # atno 17394 bound_to 11000
  140.4113  134.1979  155.7163 LP  0  0  0  0  0  0  0  0  0  0  0  0  # atno 17395 bound_to 11000

$$$$
