AV-unprocessed.smi:148|AV-procd|sdf|1232|dock10
  -GOLD-   2262018443D 1   1.00000     0.00000
 Structure written by MMmdl.
 63 67  0  0  0  0  0  0  0  0  1 V2000
  147.6411  134.0345  153.2860 O   0  0  0  0  0  0  0  0  0  0  0  0
  148.6536  133.2330  153.8567 C   0  0  0  0  0  0  0  0  0  0  0  0
  149.2484  133.8741  155.1368 C   0  0  2  0  0  0  0  0  0  0  0  0
  150.4156  134.8314  154.7850 C   0  0  0  0  0  0  0  0  0  0  0  0
  150.3926  136.0730  155.5387 N   0  0  0  0  0  0  0  0  0  0  0  0
  149.5511  136.3962  156.5801 C   0  0  0  0  0  0  0  0  0  0  0  0
  149.7256  137.5861  157.0882 N   0  0  0  0  0  0  0  0  0  0  0  0
  150.7578  138.1251  156.3311 C   0  0  0  0  0  0  0  0  0  0  0  0
  151.4329  139.3732  156.3308 C   0  0  0  0  0  0  0  0  0  0  0  0
  151.1186  140.3562  157.2058 N   0  0  0  0  0  0  0  0  0  0  0  0
  152.3280  140.7936  157.9037 C   0  0  0  0  0  0  0  0  0  0  0  0
  151.9981  141.7510  159.0548 C   0  0  0  0  0  0  0  0  0  0  0  0
  151.1859  142.9393  158.5335 C   0  0  0  0  0  0  0  0  0  0  0  0
  149.9163  142.4368  157.8338 C   0  0  0  0  0  0  0  0  0  0  0  0
  150.2360  141.4256  156.7006 C   0  0  2  0  0  0  0  0  0  0  0  0
  148.9556  140.8634  156.0036 C   0  0  1  0  0  0  0  0  0  0  0  0
  147.6369  141.0141  156.7900 C   0  0  0  0  0  0  0  0  0  0  0  0
  146.5234  141.1909  155.7449 C   0  0  0  0  0  0  0  0  0  0  0  0
  147.1875  140.9973  154.3793 C   0  0  0  0  0  0  0  0  0  0  0  0
  148.6373  141.4217  154.6075 C   0  0  2  0  0  0  0  0  0  0  0  0
  149.4916  140.8952  153.6131 O   0  0  0  0  0  0  0  0  0  0  0  0
  152.4275  139.5604  155.4225 N   0  0  0  0  0  0  0  0  0  0  0  0
  152.7294  138.5886  154.5559 C   0  0  0  0  0  0  0  0  0  0  0  0
  152.1778  137.3789  154.4320 N   0  0  0  0  0  0  0  0  0  0  0  0
  151.1883  137.1887  155.3514 C   0  0  0  0  0  0  0  0  0  0  0  0
  149.7129  132.8094  156.1692 C   0  0  1  0  0  0  0  0  0  0  0  0
  150.9926  132.0763  155.7990 C   0  0  0  0  0  0  0  0  0  0  0  0
  151.4302  131.4782  157.1313 C   0  0  0  0  0  0  0  0  0  0  0  0
  150.9781  132.3859  158.1285 O   0  0  0  0  0  0  0  0  0  0  0  0
  150.1100  133.3528  157.5470 C   0  0  0  0  0  0  0  0  0  0  0  0
  148.0464  134.7781  152.8664 H   0  0  0  0  0  0  0  0  0  0  0  0
  148.2575  132.2398  154.0700 H   0  0  0  0  0  0  0  0  0  0  0  0
  149.4100  133.1091  153.0834 H   0  0  0  0  0  0  0  0  0  0  0  0
  148.4670  134.4770  155.6021 H   0  0  0  0  0  0  0  0  0  0  0  0
  151.3786  134.3619  154.9836 H   0  0  0  0  0  0  0  0  0  0  0  0
  150.4003  135.0678  153.7202 H   0  0  0  0  0  0  0  0  0  0  0  0
  148.8014  135.7154  156.9564 H   0  0  0  0  0  0  0  0  0  0  0  0
  152.8642  139.9283  158.2971 H   0  0  0  0  0  0  0  0  0  0  0  0
  152.9965  141.2859  157.1956 H   0  0  0  0  0  0  0  0  0  0  0  0
  151.4322  141.2232  159.8236 H   0  0  0  0  0  0  0  0  0  0  0  0
  152.9171  142.1006  159.5258 H   0  0  0  0  0  0  0  0  0  0  0  0
  150.9234  143.6063  159.3551 H   0  0  0  0  0  0  0  0  0  0  0  0
  151.7878  143.5224  157.8354 H   0  0  0  0  0  0  0  0  0  0  0  0
  149.2641  141.9840  158.5798 H   0  0  0  0  0  0  0  0  0  0  0  0
  149.3835  143.3013  157.4413 H   0  0  0  0  0  0  0  0  0  0  0  0
  150.8033  141.9712  155.9449 H   0  0  0  0  0  0  0  0  0  0  0  0
  149.0906  139.7910  155.8538 H   0  0  0  0  0  0  0  0  0  0  0  0
  147.4590  140.1335  157.4078 H   0  0  0  0  0  0  0  0  0  0  0  0
  147.6491  141.8709  157.4619 H   0  0  0  0  0  0  0  0  0  0  0  0
  145.6989  140.4941  155.8975 H   0  0  0  0  0  0  0  0  0  0  0  0
  146.1152  142.2000  155.8158 H   0  0  0  0  0  0  0  0  0  0  0  0
  147.1433  139.9422  154.1032 H   0  0  0  0  0  0  0  0  0  0  0  0
  146.6997  141.5682  153.5887 H   0  0  0  0  0  0  0  0  0  0  0  0
  148.6846  142.5093  154.5875 H   0  0  0  0  0  0  0  0  0  0  0  0
  149.0059  140.2656  153.1024 H   0  0  0  0  0  0  0  0  0  0  0  0
  153.5262  138.8128  153.8621 H   0  0  0  0  0  0  0  0  0  0  0  0
  148.9223  132.0695  156.3050 H   0  0  0  0  0  0  0  0  0  0  0  0
  150.8500  131.3114  155.0354 H   0  0  0  0  0  0  0  0  0  0  0  0
  151.7441  132.7816  155.4405 H   0  0  0  0  0  0  0  0  0  0  0  0
  150.9439  130.5155  157.2940 H   0  0  0  0  0  0  0  0  0  0  0  0
  152.5085  131.3275  157.1864 H   0  0  0  0  0  0  0  0  0  0  0  0
  150.6619  134.2888  157.4490 H   0  0  0  0  0  0  0  0  0  0  0  0
  149.2484  133.5326  158.1903 H   0  0  0  0  0  0  0  0  0  0  0  0
  1  2  1  0  0  0  0
  1 31  1  0  0  0  0
  2  3  1  0  0  0  0
  2 32  1  0  0  0  0
  2 33  1  0  0  0  0
  3  4  1  0  0  0  0
  3 26  1  0  0  0  0
  3 34  1  0  0  0  0
  4  5  1  0  0  0  0
  4 35  1  0  0  0  0
  4 36  1  0  0  0  0
  5 25  1  0  0  0  0
  5  6  1  0  0  0  0
  6  7  2  0  0  0  0
  6 37  1  0  0  0  0
  7  8  1  0  0  0  0
  8 25  2  0  0  0  0
  8  9  1  0  0  0  0
  9 10  1  0  0  0  0
  9 22  2  0  0  0  0
 10 15  1  0  0  0  0
 10 11  1  0  0  0  0
 11 12  1  0  0  0  0
 11 38  1  0  0  0  0
 11 39  1  0  0  0  0
 12 13  1  0  0  0  0
 12 40  1  0  0  0  0
 12 41  1  0  0  0  0
 13 14  1  0  0  0  0
 13 42  1  0  0  0  0
 13 43  1  0  0  0  0
 14 15  1  0  0  0  0
 14 44  1  0  0  0  0
 14 45  1  0  0  0  0
 15 16  1  0  0  0  0
 15 46  1  0  0  0  0
 16 20  1  0  0  0  0
 16 17  1  0  0  0  0
 16 47  1  0  0  0  0
 17 18  1  0  0  0  0
 17 48  1  0  0  0  0
 17 49  1  0  0  0  0
 18 19  1  0  0  0  0
 18 50  1  0  0  0  0
 18 51  1  0  0  0  0
 19 20  1  0  0  0  0
 19 52  1  0  0  0  0
 19 53  1  0  0  0  0
 20 21  1  0  0  0  0
 20 54  1  0  0  0  0
 21 55  1  0  0  0  0
 22 23  1  0  0  0  0
 23 24  2  0  0  0  0
 23 56  1  0  0  0  0
 24 25  1  0  0  0  0
 26 30  1  0  0  0  0
 26 27  1  0  0  0  0
 26 57  1  0  0  0  0
 27 28  1  0  0  0  0
 27 58  1  0  0  0  0
 27 59  1  0  0  0  0
 28 29  1  0  0  0  0
 28 60  1  0  0  0  0
 28 61  1  0  0  0  0
 29 30  1  0  0  0  0
 30 62  1  0  0  0  0
 30 63  1  0  0  0  0
M  END
> <s_m_source_file>
AV-unprocessed.smi

> <i_m_source_file_index>
148

> <i_lp_mmshare_version>
43012

> <i_f3d_flags>
0

> <s_epik_input>
W0NIMl0xT1tDSDJdW0NIMl1bQ0BIXTFbQ0BIXShbQ0gyXVtPSF0pW0NIMl1uKFtjSF1uMiljKGMyMyluW2NIXW5jM040W0NIMl1bQ0gyXVtDSDJdW0NIMl1bQ0BIXTRbQ0BASF01W0NIMl1bQ0gyXVtDSDJdW0NASF01W09IXQ==

> <s_epik_cmdline>
J2VwaWtfcHl0aG9uJywgJy1waCcsICc3LjAnLCAnLXRuJywgJzgnLCAnLW1hJywgJzIwMCcsICctbWV0YWxfYmluZGluZycsICctaW1hZScsICc8aW5maWxlLm1hZT4nLCAnLW9tYWUnLCAnPG91dGZpbGUubWFlPic=

> <r_lp_tautomer_probability>
1

> <r_epik_Ionization_Penalty>
0.00556303

> <r_epik_Ionization_Penalty_Charging>
0

> <r_epik_Ionization_Penalty_Neutral>
0.00556303

> <r_epik_State_Penalty>
0.00401767

> <r_epik_Charging_Adjusted_Penalty>
0.00401767

> <i_epik_Tot_Q>
0

> <i_epik_Tot_abs_Q>
0

> <r_epik_Metal_State_Penalty>
-0

> <b_epik_Metal_Only>
0

> <s_lp_Force_Field>
OPLS_2005

> <r_lp_Energy>
68.3277

> <b_lp_Chiralities_Consistent>
1

> <s_lp_Variant>
AV-unprocessed.smi:148-31

> <Gold.Version>
5.8.1

> <Gold.Id.Protein>
6NUR|6NUR_protein|mol2

> <Gold.PLP.Fitness>
55.8485

> <Gold.PLP.PLP>
-44.6889

> <Gold.PLP.part.hbond>
-6.7007

> <Gold.PLP.part.metal>
0.0000

> <Gold.PLP.part.buried>
-4.3434

> <Gold.PLP.part.nonpolar>
-33.7236

> <Gold.PLP.part.repulsive>
0.1224

> <Gold.PLP.ligand.clash>
0.0000

> <Gold.PLP.ligand.torsion>
2.7119

> <Gold.PLP.Chemscore.Hbond>
5.3958

> <Gold.PLP.Chemscore.CHOScore>
0.0000

> <Gold.PLP.Chemscore.Metal>
0.0000

> <Gold.Chemscore.Hbonds>
donor molecule, donor type, donor heavy atom, donor atom, acceptor molecule, acceptor atom, score
      L1  H     1    31       P1  7948  1.00
      L1  H    21    55       P1  7957  0.31
      P1  H  6896  6909       L1    29  0.80
      P1  H  7989  7998       L1    21  0.28
      P1  H  7997  8010       L1    22  0.71
      P1  H  8011  8017       L1    21  1.00
      P1  H 10752 10765       L1    24  0.82

> <Gold.PLP.Chemscore.Internal.Correction>
0.3962

> <Gold.Rescore>
     Score         DG    S(hbond)    S(metal)    S(lipo)     H(rot)  DE(clash)    DE(int)     intcor
     17.19     -20.69       3.66        0.00      98.11       3.32       0.85       2.65       ----

> <Gold.Chemscore.Fitness>
17.1885

> <Gold.Chemscore.DG>
-20.6918

> <Gold.Chemscore.ZeroCoef>
-5.4800

> <Gold.Chemscore.Hbond>
3.6624

> <Gold.Chemscore.Metal>
0.0000

> <Gold.Chemscore.Lipo>
98.1141

> <Gold.Chemscore.Internal_Hbond>
0.0000

> <Gold.Chemscore.DEClash>
0.8490

> <Gold.Chemscore.DEInternal>
2.6543

> <Gold.Chemscore.Rot>
3.3203

> <Gold.Chemscore.Internal.Correction>
   9.000000E+99

> <Gold.Chemscore.Hbonds>
donor molecule, donor type, donor heavy atom, donor atom, acceptor molecule, acceptor atom, score
      L1  H     1    31       P1  7948  0.81
      L1  H    21    55       P1  7957  0.29
      P1  H  6896  6909       L1    29  0.11
      P1  H  7989  7998       L1    21  0.26
      P1  H  7997  8010       L1    22  0.21
      P1  H  8011  8017       L1    21  0.21
      P1  H 10752 10765       L1    24  0.45

> <Gold.Chemscore.Hbond.Weighted>
-12.2325

> <Gold.Chemscore.Metal.Weighted>
-0.0000

> <Gold.Chemscore.Lipo.Weighted>
-11.4793

> <Gold.Chemscore.Internal_Hbond.Weighted>
0.0000

> <Gold.Chemscore.DEClash.Weighted>
0.8490

> <Gold.Chemscore.DEInternal.Weighted>
2.6543

> <Gold.Chemscore.Rot.Weighted>
8.5000

> <Gold.Chemscore.Internal.Correction.Weighted>
   9.000000E+99

> <Gold.Protein.RotatedTorsions>
[ 6907 6896 6895 6894 ] final  -52.78 input  -60.11 | X-H torsion
[ 7974 7965 7964 7962 ] final -172.56 input  175.53 | X-H torsion
[ 8008 7997 7996 7995 ] final   95.00 input   59.86 | X-H torsion
[ 10167 10162 10161 10158 ] final   83.97 input  -65.29 | X-H torsion
[ 10718 10713 10712 10709 ] final  -26.24 input   66.30 | X-H torsion
[ 10763 10752 10751 10750 ] final  154.26 input  -60.55 | X-H torsion
[ 11005 11000 10999 10996 ] final -112.96 input  -57.11 | X-H torsion

> <Gold.Protein.ActiveResidues>
 VAL166  LYS551  ARG553  GLY616  TRP617  ASP618  TYR619  PRO620  LYS621  CYS622 
 ASP623  PHE694  ASN695  SER759  ASP760  ASP761  ALA762  ILE779  LEU786  VAL792 
 PHE793  MET794  SER795  GLU796  ALA797  LYS798  CYS799  TRP800  GLU811  SER814 

> <Gold.Protein.RotatedAtoms>
  150.8486  134.7803  159.6990 H   0  0  0  0  0  0  0  0  0  0  0  0  # atno 6907 bound_to 6896
  152.4557  134.5294  159.9816 H   0  0  0  0  0  0  0  0  0  0  0  0  # atno 6908 bound_to 6896
  151.5419  133.3393  159.2973 H   0  0  0  0  0  0  0  0  0  0  0  0  # atno 6909 bound_to 6896
  144.7145  140.1753  143.6363 H   0  0  0  0  0  0  0  0  0  0  0  0  # atno 7974 bound_to 7965
  156.0641  140.3292  155.7496 H   0  0  0  0  0  0  0  0  0  0  0  0  # atno 8008 bound_to 7997
  155.5409  140.0601  157.2887 H   0  0  0  0  0  0  0  0  0  0  0  0  # atno 8009 bound_to 7997
  154.4496  140.1911  156.0578 H   0  0  0  0  0  0  0  0  0  0  0  0  # atno 8010 bound_to 7997
  139.9129  144.6261  150.8519 H   0  0  0  0  0  0  0  0  0  0  0  0  # atno 10167 bound_to 10162
  156.4538  130.4489  149.6972 H   0  0  0  0  0  0  0  0  0  0  0  0  # atno 10718 bound_to 10713
  154.1495  135.2816  155.3139 H   0  0  0  0  0  0  0  0  0  0  0  0  # atno 10763 bound_to 10752
  154.6228  135.5461  153.7597 H   0  0  0  0  0  0  0  0  0  0  0  0  # atno 10764 bound_to 10752
  153.0225  135.6443  154.1639 H   0  0  0  0  0  0  0  0  0  0  0  0  # atno 10765 bound_to 10752
  141.0643  133.9484  157.2608 H   0  0  0  0  0  0  0  0  0  0  0  0  # atno 11005 bound_to 11000
  145.8906  139.2373  143.1552 LP  0  0  0  0  0  0  0  0  0  0  0  0  # atno 17320 bound_to 7965
  145.9907  140.8605  143.0068 LP  0  0  0  0  0  0  0  0  0  0  0  0  # atno 17321 bound_to 7965
  140.7681  143.3352  151.2323 LP  0  0  0  0  0  0  0  0  0  0  0  0  # atno 17342 bound_to 10162
  139.6927  143.9665  152.2867 LP  0  0  0  0  0  0  0  0  0  0  0  0  # atno 17343 bound_to 10162
  156.3788  130.7568  151.2559 LP  0  0  0  0  0  0  0  0  0  0  0  0  # atno 17370 bound_to 10713
  157.7501  131.0302  150.4125 LP  0  0  0  0  0  0  0  0  0  0  0  0  # atno 17371 bound_to 10713
  139.9462  135.0183  156.8858 LP  0  0  0  0  0  0  0  0  0  0  0  0  # atno 17394 bound_to 11000
  140.5805  134.0357  155.7462 LP  0  0  0  0  0  0  0  0  0  0  0  0  # atno 17395 bound_to 11000

$$$$
