AV-unprocessed.smi:3342|AV-procd|sdf|12889|dock9
  -GOLD-   2272019293D 1   1.00000     0.00000
 Structure written by MMmdl.
 41 42  0  0  0  0  0  0  0  0  1 V2000
  149.0549  141.1487  157.8729 C   0  0  0  0  0  0  0  0  0  0  0  0
  150.5861  141.1522  158.0127 C   0  0  2  0  0  0  0  0  0  0  0  0
  151.2563  142.3625  157.3264 C   0  0  0  0  0  0  0  0  0  0  0  0
  151.6307  143.4039  158.2642 N   0  0  0  0  0  0  0  0  0  0  0  0
  151.3577  144.7613  158.1593 C   0  0  0  0  0  0  0  0  0  0  0  0
  151.9011  145.3589  159.2740 C   0  0  0  0  0  0  0  0  0  0  0  0
  152.5051  144.3934  160.0763 N   0  0  0  0  0  0  0  0  0  0  0  0
  152.3014  143.2609  159.4157 C   0  0  0  0  0  0  0  0  0  0  0  0
  151.1167  139.9078  157.4644 N   0  0  0  0  0  0  0  0  0  0  0  0
  151.2926  139.6366  156.1595 C   0  0  0  0  0  0  0  0  0  0  0  0
  151.0259  140.4560  155.2790 O   0  0  0  0  0  0  0  0  0  0  0  0
  151.8023  138.4056  155.9003 N   0  0  0  0  0  0  0  0  0  0  0  0
  152.1466  137.3775  156.8971 C   0  0  0  0  0  0  0  0  0  0  0  0
  151.0597  136.2875  156.8756 C   0  0  0  0  0  0  0  0  0  0  0  0
  150.9075  135.6791  155.4611 C   0  0  0  0  0  0  0  0  0  0  0  0
  149.7302  134.6964  155.4090 C   0  0  0  0  0  0  0  0  0  0  0  0
  148.8942  134.8026  154.3730 N   0  0  0  0  0  0  0  0  0  0  0  0
  149.5754  133.8521  156.2894 O   0  0  0  0  0  0  0  0  0  0  0  0
  150.7518  136.7899  154.3952 C   0  0  0  0  0  0  0  0  0  0  0  0
  151.8520  137.8573  154.5395 C   0  0  0  0  0  0  0  0  0  0  0  0
  148.6074  142.0191  158.3531 H   0  0  0  0  0  0  0  0  0  0  0  0
  148.6207  140.2647  158.3407 H   0  0  0  0  0  0  0  0  0  0  0  0
  148.7529  141.1538  156.8250 H   0  0  0  0  0  0  0  0  0  0  0  0
  150.8145  141.1860  159.0796 H   0  0  0  0  0  0  0  0  0  0  0  0
  152.1563  142.0510  156.7943 H   0  0  0  0  0  0  0  0  0  0  0  0
  150.5867  142.7926  156.5799 H   0  0  0  0  0  0  0  0  0  0  0  0
  150.8170  145.1775  157.3220 H   0  0  0  0  0  0  0  0  0  0  0  0
  151.9030  146.4006  159.5588 H   0  0  0  0  0  0  0  0  0  0  0  0
  152.6533  142.3051  159.7758 H   0  0  0  0  0  0  0  0  0  0  0  0
  151.3669  139.1902  158.1288 H   0  0  0  0  0  0  0  0  0  0  0  0
  153.1140  136.9418  156.6428 H   0  0  0  0  0  0  0  0  0  0  0  0
  152.2644  137.7625  157.9099 H   0  0  0  0  0  0  0  0  0  0  0  0
  151.3110  135.5051  157.5928 H   0  0  0  0  0  0  0  0  0  0  0  0
  150.1146  136.7199  157.2090 H   0  0  0  0  0  0  0  0  0  0  0  0
  151.8250  135.1319  155.2365 H   0  0  0  0  0  0  0  0  0  0  0  0
  148.1048  134.1781  154.2950 H   0  0  0  0  0  0  0  0  0  0  0  0
  149.0559  135.5091  153.6699 H   0  0  0  0  0  0  0  0  0  0  0  0
  150.7905  136.3569  153.3949 H   0  0  0  0  0  0  0  0  0  0  0  0
  149.7759  137.2700  154.4853 H   0  0  0  0  0  0  0  0  0  0  0  0
  151.7324  138.6232  153.7718 H   0  0  0  0  0  0  0  0  0  0  0  0
  152.8328  137.4139  154.3612 H   0  0  0  0  0  0  0  0  0  0  0  0
  1  2  1  0  0  0  0
  1 21  1  0  0  0  0
  1 22  1  0  0  0  0
  1 23  1  0  0  0  0
  2  3  1  0  0  0  0
  2  9  1  0  0  0  0
  2 24  1  0  0  0  0
  3  4  1  0  0  0  0
  3 25  1  0  0  0  0
  3 26  1  0  0  0  0
  4  8  1  0  0  0  0
  4  5  1  0  0  0  0
  5  6  2  0  0  0  0
  5 27  1  0  0  0  0
  6  7  1  0  0  0  0
  6 28  1  0  0  0  0
  7  8  2  0  0  0  0
  8 29  1  0  0  0  0
  9 10  1  0  0  0  0
  9 30  1  0  0  0  0
 10 11  2  0  0  0  0
 10 12  1  0  0  0  0
 12 20  1  0  0  0  0
 12 13  1  0  0  0  0
 13 14  1  0  0  0  0
 13 31  1  0  0  0  0
 13 32  1  0  0  0  0
 14 15  1  0  0  0  0
 14 33  1  0  0  0  0
 14 34  1  0  0  0  0
 15 16  1  0  0  0  0
 15 19  1  0  0  0  0
 15 35  1  0  0  0  0
 16 17  1  0  0  0  0
 16 18  2  0  0  0  0
 17 36  1  0  0  0  0
 17 37  1  0  0  0  0
 19 20  1  0  0  0  0
 19 38  1  0  0  0  0
 19 39  1  0  0  0  0
 20 40  1  0  0  0  0
 20 41  1  0  0  0  0
M  END
> <s_m_source_file>
AV-unprocessed.smi

> <i_m_source_file_index>
3342

> <i_lp_mmshare_version>
43012

> <i_f3d_flags>
0

> <s_epik_input>
W2NIXTFuW2NIXVtjSF1uMVtDSDJdW0NAQEhdKFtDSDNdKVtOSF1DKD1PKU4yW0NIMl1bQ0gyXVtDSF0oQyg9TylbTkgyXSlbQ0gyXVtDSDJdMg==

> <s_epik_cmdline>
J2VwaWtfcHl0aG9uJywgJy1waCcsICc3LjAnLCAnLXRuJywgJzgnLCAnLW1hJywgJzIwMCcsICctbWV0YWxfYmluZGluZycsICctaW1hZScsICc8aW5maWxlLm1hZT4nLCAnLW9tYWUnLCAnPG91dGZpbGUubWFlPic=

> <r_lp_tautomer_probability>
1

> <r_epik_Ionization_Penalty>
0.624431

> <r_epik_Ionization_Penalty_Charging>
0.624374

> <r_epik_Ionization_Penalty_Neutral>
5.67186e-05

> <r_epik_State_Penalty>
0.640677

> <r_epik_Charging_Adjusted_Penalty>
1.26505

> <i_epik_Tot_Q>
0

> <i_epik_Tot_abs_Q>
0

> <r_epik_Metal_State_Penalty>
0.307574

> <b_epik_Metal_Only>
0

> <s_lp_Force_Field>
OPLS_2005

> <r_lp_Energy>
29.2273

> <b_lp_Chiralities_Consistent>
1

> <s_lp_Variant>
AV-unprocessed.smi:3342-3

> <Gold.Version>
5.8.1

> <Gold.Id.Protein>
6NUR|6NUR_protein|mol2

> <Gold.PLP.Fitness>
39.4266

> <Gold.PLP.PLP>
-33.8791

> <Gold.PLP.part.hbond>
-2.0000

> <Gold.PLP.part.metal>
0.0000

> <Gold.PLP.part.buried>
-2.2242

> <Gold.PLP.part.nonpolar>
-30.2002

> <Gold.PLP.part.repulsive>
0.1196

> <Gold.PLP.ligand.clash>
1.0735

> <Gold.PLP.ligand.torsion>
1.2142

> <Gold.PLP.Chemscore.Hbond>
1.9920

> <Gold.PLP.Chemscore.CHOScore>
0.9971

> <Gold.PLP.Chemscore.Metal>
0.0000

> <Gold.Chemscore.Hbonds>
donor molecule, donor type, donor heavy atom, donor atom, acceptor molecule, acceptor atom, score
      L1  H    17    37       P1  7948  1.00
      P1  H  7989  7998       L1    11  0.99
      L1  C     5    27       P1  8028  0.98

> <Gold.PLP.Chemscore.Internal.Correction>
0.0822

> <Gold.Rescore>
     Score         DG    S(hbond)    S(metal)    S(lipo)     H(rot)  DE(clash)    DE(int)     intcor
     10.58     -14.30       1.93        0.00      70.09       2.28       1.38       2.33       ----

> <Gold.Chemscore.Fitness>
10.5830

> <Gold.Chemscore.DG>
-14.2994

> <Gold.Chemscore.ZeroCoef>
-5.4800

> <Gold.Chemscore.Hbond>
1.9296

> <Gold.Chemscore.Metal>
0.0000

> <Gold.Chemscore.Lipo>
70.0882

> <Gold.Chemscore.Internal_Hbond>
0.0000

> <Gold.Chemscore.DEClash>
1.3829

> <Gold.Chemscore.DEInternal>
2.3334

> <Gold.Chemscore.Rot>
2.2757

> <Gold.Chemscore.Internal.Correction>
   9.000000E+99

> <Gold.Chemscore.Hbonds>
donor molecule, donor type, donor heavy atom, donor atom, acceptor molecule, acceptor atom, score
      L1  H    17    37       P1  7948  0.68
      P1  H  7989  7998       L1    11  0.93

> <Gold.Chemscore.Hbond.Weighted>
-6.4449

> <Gold.Chemscore.Metal.Weighted>
-0.0000

> <Gold.Chemscore.Lipo.Weighted>
-8.2003

> <Gold.Chemscore.Internal_Hbond.Weighted>
0.0000

> <Gold.Chemscore.DEClash.Weighted>
1.3829

> <Gold.Chemscore.DEInternal.Weighted>
2.3334

> <Gold.Chemscore.Rot.Weighted>
5.8259

> <Gold.Chemscore.Internal.Correction.Weighted>
   9.000000E+99

> <Gold.Protein.RotatedTorsions>
[ 6907 6896 6895 6894 ] final -174.96 input  -60.11 | X-H torsion
[ 7974 7965 7964 7962 ] final  -32.31 input  175.53 | X-H torsion
[ 8008 7997 7996 7995 ] final -150.34 input   59.86 | X-H torsion
[ 10167 10162 10161 10158 ] final  -82.56 input  -65.29 | X-H torsion
[ 10718 10713 10712 10709 ] final -153.66 input   66.30 | X-H torsion
[ 10763 10752 10751 10750 ] final   59.49 input  -60.55 | X-H torsion
[ 11005 11000 10999 10996 ] final   26.48 input  -57.11 | X-H torsion

> <Gold.Protein.ActiveResidues>
 VAL166  LYS551  ARG553  GLY616  TRP617  ASP618  TYR619  PRO620  LYS621  CYS622 
 ASP623  PHE694  ASN695  SER759  ASP760  ASP761  ALA762  ILE779  LEU786  VAL792 
 PHE793  MET794  SER795  GLU796  ALA797  LYS798  CYS799  TRP800  GLU811  SER814 

> <Gold.Protein.RotatedAtoms>
  151.5809  133.3378  159.3007 H   0  0  0  0  0  0  0  0  0  0  0  0  # atno 6907 bound_to 6896
  150.8314  134.7572  159.6868 H   0  0  0  0  0  0  0  0  0  0  0  0  # atno 6908 bound_to 6896
  152.4397  134.5622  159.9949 H   0  0  0  0  0  0  0  0  0  0  0  0  # atno 6909 bound_to 6896
  146.1000  140.5777  142.8825 H   0  0  0  0  0  0  0  0  0  0  0  0  # atno 7974 bound_to 7965
  155.6220  140.0682  157.2675 H   0  0  0  0  0  0  0  0  0  0  0  0  # atno 8008 bound_to 7997
  154.4227  140.1782  156.1431 H   0  0  0  0  0  0  0  0  0  0  0  0  # atno 8009 bound_to 7997
  156.0001  140.3337  155.6841 H   0  0  0  0  0  0  0  0  0  0  0  0  # atno 8010 bound_to 7997
  140.4309  143.2549  151.8761 H   0  0  0  0  0  0  0  0  0  0  0  0  # atno 10167 bound_to 10162
  156.4889  130.8338  151.2562 H   0  0  0  0  0  0  0  0  0  0  0  0  # atno 10718 bound_to 10713
  152.9896  135.5570  154.5721 H   0  0  0  0  0  0  0  0  0  0  0  0  # atno 10763 bound_to 10752
  154.5119  135.2803  155.1337 H   0  0  0  0  0  0  0  0  0  0  0  0  # atno 10764 bound_to 10752
  154.2725  135.6360  153.5368 H   0  0  0  0  0  0  0  0  0  0  0  0  # atno 10765 bound_to 10752
  140.3366  134.2379  155.7695 H   0  0  0  0  0  0  0  0  0  0  0  0  # atno 11005 bound_to 11000
  144.7425  140.4980  143.6859 LP  0  0  0  0  0  0  0  0  0  0  0  0  # atno 17320 bound_to 7965
  145.5874  139.1493  143.3201 LP  0  0  0  0  0  0  0  0  0  0  0  0  # atno 17321 bound_to 7965
  139.4785  144.5336  151.8631 LP  0  0  0  0  0  0  0  0  0  0  0  0  # atno 17342 bound_to 10162
  140.4428  144.1962  150.5892 LP  0  0  0  0  0  0  0  0  0  0  0  0  # atno 17343 bound_to 10162
  157.7476  131.0020  150.2985 LP  0  0  0  0  0  0  0  0  0  0  0  0  # atno 17370 bound_to 10713
  156.3447  130.3821  149.7379 LP  0  0  0  0  0  0  0  0  0  0  0  0  # atno 17371 bound_to 10713
  141.2049  133.7873  157.0259 LP  0  0  0  0  0  0  0  0  0  0  0  0  # atno 17394 bound_to 11000
  140.0816  134.9645  157.1633 LP  0  0  0  0  0  0  0  0  0  0  0  0  # atno 17395 bound_to 11000

$$$$
