AV-unprocessed.smi:577|AV-procd|sdf|2980|dock9
  -GOLD-   2262023493D 1   1.00000     0.00000
 Structure written by MMmdl.
 41 42  0  0  0  0  0  0  0  0  1 V2000
  146.7286  143.0235  153.5681 C   0  0  0  0  0  0  0  0  0  0  0  0
  147.1654  141.5690  153.6066 C   0  0  0  0  0  0  0  0  0  0  0  0
  146.8800  140.6478  152.6805 C   0  0  0  0  0  0  0  0  0  0  0  0
  147.5832  139.0894  153.0374 S   0  0  0  0  0  0  0  0  0  0  0  0
  148.3123  139.7537  154.5431 C   0  0  0  0  0  0  0  0  0  0  0  0
  148.9991  139.0765  155.3063 O   0  0  0  0  0  0  0  0  0  0  0  0
  147.9600  141.0979  154.6616 N   0  0  0  0  0  0  0  0  0  0  0  0
  148.3824  141.9313  155.7951 C   0  0  0  0  0  0  0  0  0  0  0  0
  149.8766  141.8034  156.1213 C   0  0  0  0  0  0  0  0  0  0  0  0
  150.6187  141.1013  155.4331 O   0  0  0  0  0  0  0  0  0  0  0  0
  150.2989  142.5068  157.1832 N   0  0  0  0  0  0  0  0  0  0  0  0
  151.6682  142.5644  157.6930 C   0  0  0  0  0  0  0  0  0  0  0  0
  151.7468  141.7551  159.0042 C   0  0  0  0  0  0  0  0  0  0  0  0
  153.0636  141.9253  159.7846 C   0  0  0  0  0  0  0  0  0  0  0  0
  152.9154  142.6256  161.1482 C   0  0  0  0  0  0  0  0  0  0  0  0
  152.0100  143.8740  161.2048 C   0  0  0  0  0  0  0  0  0  0  0  0
  152.3136  144.9857  160.1847 C   0  0  0  0  0  0  0  0  0  0  0  0
  151.5122  144.9120  158.8667 C   0  0  0  0  0  0  0  0  0  0  0  0
  152.1388  144.0364  157.7652 C   0  0  0  0  0  0  0  0  0  0  0  0
  146.4579  143.3086  152.5512 H   0  0  0  0  0  0  0  0  0  0  0  0
  147.5219  143.6964  153.8925 H   0  0  0  0  0  0  0  0  0  0  0  0
  145.8571  143.1738  154.2052 H   0  0  0  0  0  0  0  0  0  0  0  0
  146.2952  140.7994  151.7852 H   0  0  0  0  0  0  0  0  0  0  0  0
  148.1369  142.9785  155.6179 H   0  0  0  0  0  0  0  0  0  0  0  0
  147.8135  141.6499  156.6830 H   0  0  0  0  0  0  0  0  0  0  0  0
  149.6135  143.0558  157.6814 H   0  0  0  0  0  0  0  0  0  0  0  0
  152.3381  142.0730  156.9854 H   0  0  0  0  0  0  0  0  0  0  0  0
  150.8892  141.9740  159.6392 H   0  0  0  0  0  0  0  0  0  0  0  0
  151.6308  140.7000  158.7515 H   0  0  0  0  0  0  0  0  0  0  0  0
  153.4958  140.9395  159.9604 H   0  0  0  0  0  0  0  0  0  0  0  0
  153.8107  142.4421  159.1842 H   0  0  0  0  0  0  0  0  0  0  0  0
  152.5297  141.9027  161.8680 H   0  0  0  0  0  0  0  0  0  0  0  0
  153.9108  142.8903  161.5071 H   0  0  0  0  0  0  0  0  0  0  0  0
  150.9578  143.5958  161.1509 H   0  0  0  0  0  0  0  0  0  0  0  0
  152.1267  144.2984  162.2027 H   0  0  0  0  0  0  0  0  0  0  0  0
  152.0436  145.9296  160.6603 H   0  0  0  0  0  0  0  0  0  0  0  0
  153.3850  145.0599  159.9950 H   0  0  0  0  0  0  0  0  0  0  0  0
  150.4731  144.6370  159.0496 H   0  0  0  0  0  0  0  0  0  0  0  0
  151.4703  145.9277  158.4719 H   0  0  0  0  0  0  0  0  0  0  0  0
  153.2254  144.0894  157.8287 H   0  0  0  0  0  0  0  0  0  0  0  0
  151.9105  144.4957  156.8022 H   0  0  0  0  0  0  0  0  0  0  0  0
  1  2  1  0  0  0  0
  1 20  1  0  0  0  0
  1 21  1  0  0  0  0
  1 22  1  0  0  0  0
  2  7  1  0  0  0  0
  2  3  2  0  0  0  0
  3  4  1  0  0  0  0
  3 23  1  0  0  0  0
  4  5  1  0  0  0  0
  5  6  2  0  0  0  0
  5  7  1  0  0  0  0
  7  8  1  0  0  0  0
  8  9  1  0  0  0  0
  8 24  1  0  0  0  0
  8 25  1  0  0  0  0
  9 10  2  0  0  0  0
  9 11  1  0  0  0  0
 11 12  1  0  0  0  0
 11 26  1  0  0  0  0
 12 19  1  0  0  0  0
 12 13  1  0  0  0  0
 12 27  1  0  0  0  0
 13 14  1  0  0  0  0
 13 28  1  0  0  0  0
 13 29  1  0  0  0  0
 14 15  1  0  0  0  0
 14 30  1  0  0  0  0
 14 31  1  0  0  0  0
 15 16  1  0  0  0  0
 15 32  1  0  0  0  0
 15 33  1  0  0  0  0
 16 17  1  0  0  0  0
 16 34  1  0  0  0  0
 16 35  1  0  0  0  0
 17 18  1  0  0  0  0
 17 36  1  0  0  0  0
 17 37  1  0  0  0  0
 18 19  1  0  0  0  0
 18 38  1  0  0  0  0
 18 39  1  0  0  0  0
 19 40  1  0  0  0  0
 19 41  1  0  0  0  0
M  END
> <s_m_source_file>
AV-unprocessed.smi

> <i_m_source_file_index>
577

> <i_lp_mmshare_version>
43012

> <i_f3d_flags>
0

> <s_epik_input>
W0NIM11jMVtjSF1zYyg9TyluMVtDSDJdQyg9TylbTkhdW0NIXTJbQ0gyXVtDSDJdW0NIMl1bQ0gyXVtDSDJdW0NIMl1bQ0gyXTI=

> <s_epik_cmdline>
J2VwaWtfcHl0aG9uJywgJy1waCcsICc3LjAnLCAnLXRuJywgJzgnLCAnLW1hJywgJzIwMCcsICctbWV0YWxfYmluZGluZycsICctaW1hZScsICc8aW5maWxlLm1hZT4nLCAnLW9tYWUnLCAnPG91dGZpbGUubWFlPic=

> <r_lp_tautomer_probability>
1

> <r_epik_Ionization_Penalty>
1.32564e-06

> <r_epik_Ionization_Penalty_Charging>
1.22505e-06

> <r_epik_Ionization_Penalty_Neutral>
1.00582e-07

> <r_epik_State_Penalty>
-0

> <r_epik_Charging_Adjusted_Penalty>
1.22505e-06

> <i_epik_Tot_Q>
0

> <i_epik_Tot_abs_Q>
0

> <r_epik_Metal_State_Penalty>
-0

> <b_epik_Metal_Only>
0

> <s_lp_Force_Field>
OPLS_2005

> <r_lp_Energy>
25.6493

> <b_lp_Chiralities_Consistent>
1

> <s_lp_Variant>
AV-unprocessed.smi:577-1

> <Gold.Version>
5.8.1

> <Gold.Id.Protein>
6NUR|6NUR_protein|mol2

> <Gold.PLP.Fitness>
45.2520

> <Gold.PLP.PLP>
-42.4047

> <Gold.PLP.part.hbond>
-1.7661

> <Gold.PLP.part.metal>
0.0000

> <Gold.PLP.part.buried>
-0.9332

> <Gold.PLP.part.nonpolar>
-38.9553

> <Gold.PLP.part.repulsive>
0.1531

> <Gold.PLP.ligand.clash>
0.0000

> <Gold.PLP.ligand.torsion>
0.2367

> <Gold.PLP.Chemscore.Hbond>
0.3801

> <Gold.PLP.Chemscore.CHOScore>
0.7144

> <Gold.PLP.Chemscore.Metal>
0.0000

> <Gold.Chemscore.Hbonds>
donor molecule, donor type, donor heavy atom, donor atom, acceptor molecule, acceptor atom, score
      P1  H  7989  7998       L1    10  0.41
      L1  C     3    23       P1 10175  0.17

> <Gold.PLP.Chemscore.Internal.Correction>
0.0370

> <Gold.Rescore>
     Score         DG    S(hbond)    S(metal)    S(lipo)     H(rot)  DE(clash)    DE(int)     intcor
     17.23     -17.88       0.55        0.00     120.46       1.39       0.49       0.15       ----

> <Gold.Chemscore.Fitness>
17.2296

> <Gold.Chemscore.DG>
-17.8762

> <Gold.Chemscore.ZeroCoef>
-5.4800

> <Gold.Chemscore.Hbond>
0.5538

> <Gold.Chemscore.Metal>
0.0000

> <Gold.Chemscore.Lipo>
120.4632

> <Gold.Chemscore.Internal_Hbond>
0.0000

> <Gold.Chemscore.DEClash>
0.4943

> <Gold.Chemscore.DEInternal>
0.1523

> <Gold.Chemscore.Rot>
1.3858

> <Gold.Chemscore.Internal.Correction>
   9.000000E+99

> <Gold.Chemscore.Hbonds>
donor molecule, donor type, donor heavy atom, donor atom, acceptor molecule, acceptor atom, score
      P1  H  7989  7998       L1    10  0.43

> <Gold.Chemscore.Hbond.Weighted>
-1.8496

> <Gold.Chemscore.Metal.Weighted>
-0.0000

> <Gold.Chemscore.Lipo.Weighted>
-14.0942

> <Gold.Chemscore.Internal_Hbond.Weighted>
0.0000

> <Gold.Chemscore.DEClash.Weighted>
0.4943

> <Gold.Chemscore.DEInternal.Weighted>
0.1523

> <Gold.Chemscore.Rot.Weighted>
3.5476

> <Gold.Chemscore.Internal.Correction.Weighted>
   9.000000E+99

> <Gold.Protein.RotatedTorsions>
[ 6907 6896 6895 6894 ] final  -52.90 input  -60.11 | X-H torsion
[ 7974 7965 7964 7962 ] final  -84.26 input  175.53 | X-H torsion
[ 8008 7997 7996 7995 ] final  -11.09 input   59.86 | X-H torsion
[ 10167 10162 10161 10158 ] final -101.57 input  -65.29 | X-H torsion
[ 10718 10713 10712 10709 ] final -112.44 input   66.30 | X-H torsion
[ 10763 10752 10751 10750 ] final  -68.47 input  -60.55 | X-H torsion
[ 11005 11000 10999 10996 ] final  148.17 input  -57.11 | X-H torsion

> <Gold.Protein.ActiveResidues>
 VAL166  LYS551  ARG553  GLY616  TRP617  ASP618  TYR619  PRO620  LYS621  CYS622 
 ASP623  PHE694  ASN695  SER759  ASP760  ASP761  ALA762  ILE779  LEU786  VAL792 
 PHE793  MET794  SER795  GLU796  ALA797  LYS798  CYS799  TRP800  GLU811  SER814 

> <Gold.Protein.RotatedAtoms>
  150.8476  134.7790  159.6982 H   0  0  0  0  0  0  0  0  0  0  0  0  # atno 6907 bound_to 6896
  152.4549  134.5310  159.9821 H   0  0  0  0  0  0  0  0  0  0  0  0  # atno 6908 bound_to 6896
  151.5438  133.3390  159.2976 H   0  0  0  0  0  0  0  0  0  0  0  0  # atno 6909 bound_to 6896
  145.5090  140.9541  143.1717 H   0  0  0  0  0  0  0  0  0  0  0  0  # atno 7974 bound_to 7965
  154.5496  140.2312  155.8507 H   0  0  0  0  0  0  0  0  0  0  0  0  # atno 8008 bound_to 7997
  156.1934  140.3071  155.9340 H   0  0  0  0  0  0  0  0  0  0  0  0  # atno 8009 bound_to 7997
  155.3097  140.0435  157.3025 H   0  0  0  0  0  0  0  0  0  0  0  0  # atno 8010 bound_to 7997
  140.2399  143.3546  152.0811 H   0  0  0  0  0  0  0  0  0  0  0  0  # atno 10167 bound_to 10162
  156.0706  130.5920  150.8509 H   0  0  0  0  0  0  0  0  0  0  0  0  # atno 10718 bound_to 10713
  154.3895  135.6056  153.5835 H   0  0  0  0  0  0  0  0  0  0  0  0  # atno 10763 bound_to 10752
  152.9787  135.5880  154.4314 H   0  0  0  0  0  0  0  0  0  0  0  0  # atno 10764 bound_to 10752
  154.4096  135.2844  155.2023 H   0  0  0  0  0  0  0  0  0  0  0  0  # atno 10765 bound_to 10752
  140.0937  134.9025  157.1690 H   0  0  0  0  0  0  0  0  0  0  0  0  # atno 11005 bound_to 11000
  144.7738  139.6676  143.7183 LP  0  0  0  0  0  0  0  0  0  0  0  0  # atno 17320 bound_to 7965
  146.2178  139.5581  142.9638 LP  0  0  0  0  0  0  0  0  0  0  0  0  # atno 17321 bound_to 7965
  139.5081  144.6844  151.5927 LP  0  0  0  0  0  0  0  0  0  0  0  0  # atno 17342 bound_to 10162
  140.6122  143.9416  150.6461 LP  0  0  0  0  0  0  0  0  0  0  0  0  # atno 17343 bound_to 10162
  157.5775  131.0946  150.9323 LP  0  0  0  0  0  0  0  0  0  0  0  0  # atno 17370 bound_to 10713
  156.9526  130.5425  149.5283 LP  0  0  0  0  0  0  0  0  0  0  0  0  # atno 17371 bound_to 10713
  140.3316  134.2803  155.7227 LP  0  0  0  0  0  0  0  0  0  0  0  0  # atno 17394 bound_to 11000
  141.2085  133.7774  157.0052 LP  0  0  0  0  0  0  0  0  0  0  0  0  # atno 17395 bound_to 11000

$$$$
