AV-unprocessed.smi:1038|AV-procd|sdf|4521|dock1
  -GOLD-   22720 2533D 1   1.00000     0.00000
 Structure written by MMmdl.
 57 58  0  0  0  0  0  0  0  0  2 V2000
  152.1968  142.6201  159.6879 C   0  0  0  0  0  0  0  0  0  0  0  0
  151.7729  142.8228  158.3517 O   0  0  0  0  0  0  0  0  0  0  0  0
  151.2362  141.6478  157.7667 C   0  0  0  0  0  0  0  0  0  0  0  0
  150.7883  141.9387  156.3252 C   0  0  0  0  0  0  0  0  0  0  0  0
  150.5389  140.7026  155.5694 N   0  0  0  0  0  0  0  0  0  0  0  0
  149.2884  140.5922  154.9308 C   0  0  0  0  0  0  0  0  0  0  0  0
  148.9396  139.5097  154.2085 C   0  0  0  0  0  0  0  0  0  0  0  0
  147.6223  139.4576  153.5704 C   0  0  0  0  0  0  0  0  0  0  0  0
  146.8107  140.3844  153.5601 O   0  0  0  0  0  0  0  0  0  0  0  0
  147.3563  138.2820  152.9793 N   0  0  0  0  0  0  0  0  0  0  0  0
  146.1190  137.9597  152.2745 C   0  0  0  0  0  0  0  0  0  0  0  0
  145.1892  136.9980  153.0814 C   0  0  0  0  0  0  0  0  0  0  0  0
  145.7723  135.6065  153.0793 N   0  3  0  0  0  0  0  0  0  0  0  0
  146.9861  135.4108  153.9162 C   0  0  0  0  0  0  0  0  0  0  0  0
  145.9895  135.0077  151.7354 C   0  0  0  0  0  0  0  0  0  0  0  0
  145.0614  137.5771  154.5296 C   0  0  0  0  0  0  0  0  0  0  0  0
  144.3053  136.7431  155.5805 C   0  0  0  0  0  0  0  0  0  0  0  0
  142.8349  136.4590  155.2488 C   0  0  0  0  0  0  0  0  0  0  0  0
  142.6837  135.3797  154.1721 C   0  0  0  0  0  0  0  0  0  0  0  0
  142.7708  135.8877  152.7254 C   0  0  0  0  0  0  0  0  0  0  0  0
  143.7757  137.0217  152.4146 C   0  0  0  0  0  0  0  0  0  0  0  0
  149.9168  138.4361  154.1025 C   0  0  0  0  0  0  0  0  0  0  0  0
  151.1163  138.5393  154.7072 C   0  0  0  0  0  0  0  0  0  0  0  0
  151.4871  139.7211  155.4908 C   0  0  0  0  0  0  0  0  0  0  0  0
  152.5840  139.8187  156.0412 O   0  0  0  0  0  0  0  0  0  0  0  0
  152.5916  143.5519  160.0927 H   0  0  0  0  0  0  0  0  0  0  0  0
  152.9857  141.8686  159.7415 H   0  0  0  0  0  0  0  0  0  0  0  0
  151.3672  142.3027  160.3209 H   0  0  0  0  0  0  0  0  0  0  0  0
  152.0004  140.8691  157.7573 H   0  0  0  0  0  0  0  0  0  0  0  0
  150.3992  141.2730  158.3584 H   0  0  0  0  0  0  0  0  0  0  0  0
  149.9162  142.5946  156.3292 H   0  0  0  0  0  0  0  0  0  0  0  0
  151.5660  142.5137  155.8204 H   0  0  0  0  0  0  0  0  0  0  0  0
  148.6431  141.4486  155.0708 H   0  0  0  0  0  0  0  0  0  0  0  0
  148.0616  137.5607  153.0233 H   0  0  0  0  0  0  0  0  0  0  0  0
  145.6149  138.9021  152.0584 H   0  0  0  0  0  0  0  0  0  0  0  0
  146.3865  137.5215  151.3124 H   0  0  0  0  0  0  0  0  0  0  0  0
  147.8372  135.9701  153.5280 H   0  0  0  0  0  0  0  0  0  0  0  0
  147.2674  134.3572  153.9232 H   0  0  0  0  0  0  0  0  0  0  0  0
  146.8389  135.6926  154.9564 H   0  0  0  0  0  0  0  0  0  0  0  0
  146.8443  135.4578  151.2302 H   0  0  0  0  0  0  0  0  0  0  0  0
  145.1264  135.0988  151.0796 H   0  0  0  0  0  0  0  0  0  0  0  0
  146.1977  133.9418  151.8337 H   0  0  0  0  0  0  0  0  0  0  0  0
  146.0541  137.7949  154.9246 H   0  0  0  0  0  0  0  0  0  0  0  0
  144.5742  138.5520  154.4909 H   0  0  0  0  0  0  0  0  0  0  0  0
  144.8246  135.8066  155.7809 H   0  0  0  0  0  0  0  0  0  0  0  0
  144.3373  137.2928  156.5221 H   0  0  0  0  0  0  0  0  0  0  0  0
  142.3528  136.0979  156.1581 H   0  0  0  0  0  0  0  0  0  0  0  0
  142.3056  137.3717  154.9724 H   0  0  0  0  0  0  0  0  0  0  0  0
  143.4220  134.5939  154.3350 H   0  0  0  0  0  0  0  0  0  0  0  0
  141.7173  134.8896  154.2969 H   0  0  0  0  0  0  0  0  0  0  0  0
  142.9657  135.0318  152.0799 H   0  0  0  0  0  0  0  0  0  0  0  0
  141.7827  136.2399  152.4264 H   0  0  0  0  0  0  0  0  0  0  0  0
  143.2887  137.9668  152.6586 H   0  0  0  0  0  0  0  0  0  0  0  0
  143.8861  137.0577  151.3301 H   0  0  0  0  0  0  0  0  0  0  0  0
  149.7088  137.5382  153.5395 H   0  0  0  0  0  0  0  0  0  0  0  0
  151.8260  137.7303  154.6134 H   0  0  0  0  0  0  0  0  0  0  0  0
  145.0598  135.0353  153.5114 H   0  0  0  0  0  0  0  0  0  0  0  0
  1  2  1  0  0  0  0
  1 26  1  0  0  0  0
  1 27  1  0  0  0  0
  1 28  1  0  0  0  0
  2  3  1  0  0  0  0
  3  4  1  0  0  0  0
  3 29  1  0  0  0  0
  3 30  1  0  0  0  0
  4  5  1  0  0  0  0
  4 31  1  0  0  0  0
  4 32  1  0  0  0  0
  5 24  1  0  0  0  0
  5  6  1  0  0  0  0
  6  7  2  0  0  0  0
  6 33  1  0  0  0  0
  7  8  1  0  0  0  0
  7 22  1  0  0  0  0
  8  9  2  0  0  0  0
  8 10  1  0  0  0  0
 10 11  1  0  0  0  0
 10 34  1  0  0  0  0
 11 12  1  0  0  0  0
 11 35  1  0  0  0  0
 11 36  1  0  0  0  0
 12 21  1  0  0  0  0
 12 13  1  0  0  0  0
 12 16  1  0  0  0  0
 13 14  1  0  0  0  0
 13 15  1  0  0  0  0
 13 57  1  0  0  0  0
 14 37  1  0  0  0  0
 14 38  1  0  0  0  0
 14 39  1  0  0  0  0
 15 40  1  0  0  0  0
 15 41  1  0  0  0  0
 15 42  1  0  0  0  0
 16 17  1  0  0  0  0
 16 43  1  0  0  0  0
 16 44  1  0  0  0  0
 17 18  1  0  0  0  0
 17 45  1  0  0  0  0
 17 46  1  0  0  0  0
 18 19  1  0  0  0  0
 18 47  1  0  0  0  0
 18 48  1  0  0  0  0
 19 20  1  0  0  0  0
 19 49  1  0  0  0  0
 19 50  1  0  0  0  0
 20 21  1  0  0  0  0
 20 51  1  0  0  0  0
 20 52  1  0  0  0  0
 21 53  1  0  0  0  0
 21 54  1  0  0  0  0
 22 23  2  0  0  0  0
 22 55  1  0  0  0  0
 23 24  1  0  0  0  0
 23 56  1  0  0  0  0
 24 25  2  0  0  0  0
M  CHG  1  13   1
M  END
> <s_m_source_file>
AV-unprocessed.smi

> <i_m_source_file_index>
1038

> <i_lp_mmshare_version>
43012

> <i_f3d_flags>
0

> <s_epik_input>
W0NIM11PW0NIMl1bQ0gyXW4xW2NIXWMoW2NIXVtjSF1jMT1PKUMoPU8pW05IXVtDSDJdQzIoTihbQ0gzXSlbQ0gzXSlbQ0gyXVtDSDJdW0NIMl1bQ0gyXVtDSDJdW0NIMl0y

> <s_epik_cmdline>
J2VwaWtfcHl0aG9uJywgJy1waCcsICc3LjAnLCAnLXRuJywgJzgnLCAnLW1hJywgJzIwMCcsICctbWV0YWxfYmluZGluZycsICctaW1hZScsICc8aW5maWxlLm1hZT4nLCAnLW9tYWUnLCAnPG91dGZpbGUubWFlPic=

> <r_lp_tautomer_probability>
1

> <r_epik_Ionization_Penalty>
0.00379096

> <r_epik_Ionization_Penalty_Charging>
0.0037899

> <r_epik_Ionization_Penalty_Neutral>
1.06849e-06

> <r_epik_State_Penalty>
0.00270348

> <r_epik_Charging_Adjusted_Penalty>
0.00649338

> <i_epik_Tot_Q>
1

> <i_epik_Tot_abs_Q>
1

> <r_epik_Metal_State_Penalty>
-0

> <b_epik_Metal_Only>
0

> <s_lp_Force_Field>
OPLS_2005

> <r_lp_Energy>
50.9414

> <b_lp_Chiralities_Consistent>
1

> <s_lp_Variant>
AV-unprocessed.smi:1038-1

> <Gold.Version>
5.8.1

> <Gold.Id.Protein>
6NUR|6NUR_protein|mol2

> <Gold.PLP.Fitness>
43.6667

> <Gold.PLP.PLP>
-38.6121

> <Gold.PLP.part.hbond>
-2.0000

> <Gold.PLP.part.metal>
0.0000

> <Gold.PLP.part.buried>
-0.8574

> <Gold.PLP.part.nonpolar>
-34.9666

> <Gold.PLP.part.repulsive>
0.1991

> <Gold.PLP.ligand.clash>
0.0000

> <Gold.PLP.ligand.torsion>
0.4332

> <Gold.PLP.Chemscore.Hbond>
1.8480

> <Gold.PLP.Chemscore.CHOScore>
0.0000

> <Gold.PLP.Chemscore.Metal>
0.0000

> <Gold.Chemscore.Hbonds>
donor molecule, donor type, donor heavy atom, donor atom, acceptor molecule, acceptor atom, score
      L1  H    10    34       P1  7948  0.80
      P1  H  7997  8008       L1    25  1.00

> <Gold.PLP.Chemscore.Internal.Correction>
0.3771

> <Gold.Rescore>
     Score         DG    S(hbond)    S(metal)    S(lipo)     H(rot)  DE(clash)    DE(int)     intcor
     15.03     -17.02       1.95        0.00      83.86       1.86       1.34       0.66       ----

> <Gold.Chemscore.Fitness>
15.0316

> <Gold.Chemscore.DG>
-17.0245

> <Gold.Chemscore.ZeroCoef>
-5.4800

> <Gold.Chemscore.Hbond>
1.9481

> <Gold.Chemscore.Metal>
0.0000

> <Gold.Chemscore.Lipo>
83.8619

> <Gold.Chemscore.Internal_Hbond>
0.0000

> <Gold.Chemscore.DEClash>
1.3379

> <Gold.Chemscore.DEInternal>
0.6551

> <Gold.Chemscore.Rot>
1.8649

> <Gold.Chemscore.Internal.Correction>
   9.000000E+99

> <Gold.Chemscore.Hbonds>
donor molecule, donor type, donor heavy atom, donor atom, acceptor molecule, acceptor atom, score
      L1  H    10    34       P1  7948  0.78
      P1  H  7997  8008       L1    25  1.00

> <Gold.Chemscore.Hbond.Weighted>
-6.5068

> <Gold.Chemscore.Metal.Weighted>
-0.0000

> <Gold.Chemscore.Lipo.Weighted>
-9.8118

> <Gold.Chemscore.Internal_Hbond.Weighted>
0.0000

> <Gold.Chemscore.DEClash.Weighted>
1.3379

> <Gold.Chemscore.DEInternal.Weighted>
0.6551

> <Gold.Chemscore.Rot.Weighted>
4.7741

> <Gold.Chemscore.Internal.Correction.Weighted>
   9.000000E+99

> <Gold.Protein.RotatedTorsions>
[ 6907 6896 6895 6894 ] final  -54.32 input  -60.11 | X-H torsion
[ 7974 7965 7964 7962 ] final  159.76 input  175.53 | X-H torsion
[ 8008 7997 7996 7995 ] final  -34.37 input   59.86 | X-H torsion
[ 10167 10162 10161 10158 ] final -105.88 input  -65.29 | X-H torsion
[ 10718 10713 10712 10709 ] final   39.42 input   66.30 | X-H torsion
[ 10763 10752 10751 10750 ] final -150.80 input  -60.55 | X-H torsion
[ 11005 11000 10999 10996 ] final  -13.01 input  -57.11 | X-H torsion

> <Gold.Protein.ActiveResidues>
 VAL166  LYS551  ARG553  GLY616  TRP617  ASP618  TYR619  PRO620  LYS621  CYS622 
 ASP623  PHE694  ASN695  SER759  ASP760  ASP761  ALA762  ILE779  LEU786  VAL792 
 PHE793  MET794  SER795  GLU796  ALA797  LYS798  CYS799  TRP800  GLU811  SER814 

> <Gold.Protein.RotatedAtoms>
  150.8348  134.7617  159.6883 H   0  0  0  0  0  0  0  0  0  0  0  0  # atno 6907 bound_to 6896
  152.4447  134.5516  159.9878 H   0  0  0  0  0  0  0  0  0  0  0  0  # atno 6908 bound_to 6896
  151.5668  133.3357  159.3017 H   0  0  0  0  0  0  0  0  0  0  0  0  # atno 6909 bound_to 6896
  144.7773  139.7662  143.6273 H   0  0  0  0  0  0  0  0  0  0  0  0  # atno 7974 bound_to 7965
  154.4123  140.1685  156.2039 H   0  0  0  0  0  0  0  0  0  0  0  0  # atno 8008 bound_to 7997
  155.9501  140.3401  155.6377 H   0  0  0  0  0  0  0  0  0  0  0  0  # atno 8009 bound_to 7997
  155.6881  140.0730  157.2450 H   0  0  0  0  0  0  0  0  0  0  0  0  # atno 8010 bound_to 7997
  140.1938  143.3871  152.1185 H   0  0  0  0  0  0  0  0  0  0  0  0  # atno 10167 bound_to 10162
  157.3704  130.7698  149.7114 H   0  0  0  0  0  0  0  0  0  0  0  0  # atno 10718 bound_to 10713
  154.8097  135.3275  154.7339 H   0  0  0  0  0  0  0  0  0  0  0  0  # atno 10763 bound_to 10752
  153.7990  135.6905  153.4863 H   0  0  0  0  0  0  0  0  0  0  0  0  # atno 10764 bound_to 10752
  153.1866  135.4566  155.0042 H   0  0  0  0  0  0  0  0  0  0  0  0  # atno 10765 bound_to 10752
  140.7716  133.8434  155.9212 H   0  0  0  0  0  0  0  0  0  0  0  0  # atno 11005 bound_to 11000
  146.1960  139.5227  142.9774 LP  0  0  0  0  0  0  0  0  0  0  0  0  # atno 17320 bound_to 7965
  145.6149  141.0333  143.1946 LP  0  0  0  0  0  0  0  0  0  0  0  0  # atno 17321 bound_to 7965
  139.5245  144.7084  151.5282 LP  0  0  0  0  0  0  0  0  0  0  0  0  # atno 17342 bound_to 10162
  140.6437  143.8837  150.6717 LP  0  0  0  0  0  0  0  0  0  0  0  0  # atno 17343 bound_to 10162
  155.9754  130.4089  150.3850 LP  0  0  0  0  0  0  0  0  0  0  0  0  # atno 17370 bound_to 10713
  157.1940  131.0422  151.2685 LP  0  0  0  0  0  0  0  0  0  0  0  0  # atno 17371 bound_to 10713
  140.9568  134.1708  157.4685 LP  0  0  0  0  0  0  0  0  0  0  0  0  # atno 17394 bound_to 11000
  139.8755  134.9930  156.5622 LP  0  0  0  0  0  0  0  0  0  0  0  0  # atno 17395 bound_to 11000

$$$$
