AV-unprocessed.smi:2373|AV-procd|sdf|9439|dock7
  -GOLD-   2272013 73D 1   1.00000     0.00000
 Structure written by MMmdl.
 47 48  0  0  0  0  0  0  0  0  2 V2000
  145.8907  132.0357  149.8342 C   0  0  0  0  0  0  0  0  0  0  0  0
  144.6921  132.8257  150.0932 N   0  0  0  0  0  0  0  0  0  0  0  0
  143.4019  132.3980  149.5684 C   0  0  0  0  0  0  0  0  0  0  0  0
  144.7983  134.0566  150.7763 C   0  0  0  0  0  0  0  0  0  0  0  0
  145.9954  134.5046  151.3863 C   0  0  0  0  0  0  0  0  0  0  0  0
  146.0215  135.7479  152.0507 C   0  0  0  0  0  0  0  0  0  0  0  0
  144.8543  136.5372  152.1127 C   0  0  0  0  0  0  0  0  0  0  0  0
  144.9374  137.7885  152.7827 N   0  0  0  0  0  0  0  0  0  0  0  0
  145.6253  138.1046  153.8937 C   0  0  0  0  0  0  0  0  0  0  0  0
  146.3523  137.3340  154.5188 O   0  0  0  0  0  0  0  0  0  0  0  0
  145.4306  139.3913  154.2292 N   0  0  0  0  0  0  0  0  0  0  0  0
  145.9940  140.1312  155.3690 C   0  0  0  0  0  0  0  0  0  0  0  0
  147.5038  140.4457  155.1387 C   0  0  0  0  0  0  0  0  0  0  0  0
  147.8399  141.2270  153.8533 C   0  0  0  0  0  0  0  0  0  0  0  0
  149.1945  141.0216  153.5161 O   0  0  0  0  0  0  0  0  0  0  0  0
  145.1501  141.4230  155.5102 C   0  0  0  0  0  0  0  0  0  0  0  0
  145.3809  142.1519  156.8458 C   0  0  0  0  0  0  0  0  0  0  0  0
  145.1133  141.2723  157.9287 O   0  0  0  0  0  0  0  0  0  0  0  0
  145.9819  140.1481  157.9455 C   0  0  0  0  0  0  0  0  0  0  0  0
  145.7901  139.3091  156.6695 C   0  0  0  0  0  0  0  0  0  0  0  0
  143.6858  136.0511  151.4790 C   0  0  0  0  0  0  0  0  0  0  0  0
  143.7059  134.8553  150.8518 N   0  3  0  0  0  0  0  0  0  0  0  0
  146.3857  131.7716  150.7694 H   0  0  0  0  0  0  0  0  0  0  0  0
  146.5926  132.5962  149.2156 H   0  0  0  0  0  0  0  0  0  0  0  0
  145.6506  131.1092  149.3122 H   0  0  0  0  0  0  0  0  0  0  0  0
  143.0044  133.1390  148.8743 H   0  0  0  0  0  0  0  0  0  0  0  0
  142.6860  132.2593  150.3790 H   0  0  0  0  0  0  0  0  0  0  0  0
  143.4848  131.4523  149.0327 H   0  0  0  0  0  0  0  0  0  0  0  0
  146.8994  133.9152  151.3543 H   0  0  0  0  0  0  0  0  0  0  0  0
  146.9366  136.0886  152.5127 H   0  0  0  0  0  0  0  0  0  0  0  0
  144.4373  138.5476  152.3434 H   0  0  0  0  0  0  0  0  0  0  0  0
  144.8138  139.9250  153.6341 H   0  0  0  0  0  0  0  0  0  0  0  0
  147.9011  140.9974  155.9899 H   0  0  0  0  0  0  0  0  0  0  0  0
  148.0665  139.5116  155.1262 H   0  0  0  0  0  0  0  0  0  0  0  0
  147.2234  140.9012  153.0159 H   0  0  0  0  0  0  0  0  0  0  0  0
  147.6781  142.2963  153.9846 H   0  0  0  0  0  0  0  0  0  0  0  0
  149.2461  140.3143  152.8914 H   0  0  0  0  0  0  0  0  0  0  0  0
  145.3259  142.1050  154.6792 H   0  0  0  0  0  0  0  0  0  0  0  0
  144.0905  141.1670  155.4571 H   0  0  0  0  0  0  0  0  0  0  0  0
  146.3953  142.5458  156.9180 H   0  0  0  0  0  0  0  0  0  0  0  0
  144.7091  143.0071  156.9210 H   0  0  0  0  0  0  0  0  0  0  0  0
  147.0172  140.4732  158.0552 H   0  0  0  0  0  0  0  0  0  0  0  0
  145.7510  139.5441  158.8230 H   0  0  0  0  0  0  0  0  0  0  0  0
  144.7787  138.8995  156.6858 H   0  0  0  0  0  0  0  0  0  0  0  0
  146.4626  138.4515  156.7000 H   0  0  0  0  0  0  0  0  0  0  0  0
  142.7383  136.5661  151.4340 H   0  0  0  0  0  0  0  0  0  0  0  0
  142.8455  134.5360  150.4061 H   0  0  0  0  0  0  0  0  0  0  0  0
  1  2  1  0  0  0  0
  1 23  1  0  0  0  0
  1 24  1  0  0  0  0
  1 25  1  0  0  0  0
  2  3  1  0  0  0  0
  2  4  1  0  0  0  0
  3 26  1  0  0  0  0
  3 27  1  0  0  0  0
  3 28  1  0  0  0  0
  4 22  1  0  0  0  0
  4  5  2  0  0  0  0
  5  6  1  0  0  0  0
  5 29  1  0  0  0  0
  6  7  2  0  0  0  0
  6 30  1  0  0  0  0
  7  8  1  0  0  0  0
  7 21  1  0  0  0  0
  8  9  1  0  0  0  0
  8 31  1  0  0  0  0
  9 10  2  0  0  0  0
  9 11  1  0  0  0  0
 11 12  1  0  0  0  0
 11 32  1  0  0  0  0
 12 20  1  0  0  0  0
 12 13  1  0  0  0  0
 12 16  1  0  0  0  0
 13 14  1  0  0  0  0
 13 33  1  0  0  0  0
 13 34  1  0  0  0  0
 14 15  1  0  0  0  0
 14 35  1  0  0  0  0
 14 36  1  0  0  0  0
 15 37  1  0  0  0  0
 16 17  1  0  0  0  0
 16 38  1  0  0  0  0
 16 39  1  0  0  0  0
 17 18  1  0  0  0  0
 17 40  1  0  0  0  0
 17 41  1  0  0  0  0
 18 19  1  0  0  0  0
 19 20  1  0  0  0  0
 19 42  1  0  0  0  0
 19 43  1  0  0  0  0
 20 44  1  0  0  0  0
 20 45  1  0  0  0  0
 21 22  2  0  0  0  0
 21 46  1  0  0  0  0
 22 47  1  0  0  0  0
M  CHG  1  22   1
M  END
> <s_m_source_file>
AV-unprocessed.smi

> <i_m_source_file_index>
2373

> <i_lp_mmshare_version>
43012

> <i_f3d_flags>
0

> <s_epik_input>
W0NIM11OKFtDSDNdKWMxW2NIXVtjSF1jKFtjSF1uMSlbTkhdQyg9TylbTkhdQzIoW0NIMl1bQ0gyXVtPSF0pW0NIMl1bQ0gyXU9bQ0gyXVtDSDJdMg==

> <s_epik_cmdline>
J2VwaWtfcHl0aG9uJywgJy1waCcsICc3LjAnLCAnLXRuJywgJzgnLCAnLW1hJywgJzIwMCcsICctbWV0YWxfYmluZGluZycsICctaW1hZScsICc8aW5maWxlLm1hZT4nLCAnLW9tYWUnLCAnPG91dGZpbGUubWFlPic=

> <r_lp_tautomer_probability>
0.999994

> <r_epik_Ionization_Penalty>
0.250535

> <r_epik_Ionization_Penalty_Charging>
0.250515

> <r_epik_Ionization_Penalty_Neutral>
1.96065e-05

> <r_epik_State_Penalty>
0.241842

> <r_epik_Charging_Adjusted_Penalty>
0.492357

> <i_epik_Tot_Q>
1

> <i_epik_Tot_abs_Q>
1

> <r_epik_Metal_State_Penalty>
0.533268

> <b_epik_Metal_Only>
0

> <s_lp_Force_Field>
OPLS_2005

> <r_lp_Energy>
24.7544

> <b_lp_Chiralities_Consistent>
1

> <s_lp_Variant>
AV-unprocessed.smi:2373-1

> <Gold.Version>
5.8.1

> <Gold.Id.Protein>
6NUR|6NUR_protein|mol2

> <Gold.PLP.Fitness>
45.2026

> <Gold.PLP.PLP>
-28.9685

> <Gold.PLP.part.hbond>
-6.0846

> <Gold.PLP.part.metal>
0.0000

> <Gold.PLP.part.buried>
-1.0951

> <Gold.PLP.part.nonpolar>
-23.3109

> <Gold.PLP.part.repulsive>
0.1048

> <Gold.PLP.ligand.clash>
0.0000

> <Gold.PLP.ligand.torsion>
0.6327

> <Gold.PLP.Chemscore.Hbond>
5.8212

> <Gold.PLP.Chemscore.CHOScore>
0.0000

> <Gold.PLP.Chemscore.Metal>
0.0000

> <Gold.Chemscore.Hbonds>
donor molecule, donor type, donor heavy atom, donor atom, acceptor molecule, acceptor atom, score
      L1  H     8    31       P1 10175  0.95
      L1  H    11    32       P1 10175  1.00
      L1  H    15    37       P1  7957  0.78
      L1  H    22    47       P1 10186  2.00
      P1  H  8011  8017       L1    15  0.85

> <Gold.PLP.Chemscore.Internal.Correction>
0.0358

> <Gold.Rescore>
     Score         DG    S(hbond)    S(metal)    S(lipo)     H(rot)  DE(clash)    DE(int)     intcor
     14.85     -19.06       3.52        0.00      61.86       2.12       1.21       2.99       ----

> <Gold.Chemscore.Fitness>
14.8538

> <Gold.Chemscore.DG>
-19.0561

> <Gold.Chemscore.ZeroCoef>
-5.4800

> <Gold.Chemscore.Hbond>
3.5191

> <Gold.Chemscore.Metal>
0.0000

> <Gold.Chemscore.Lipo>
61.8637

> <Gold.Chemscore.Internal_Hbond>
0.0000

> <Gold.Chemscore.DEClash>
1.2086

> <Gold.Chemscore.DEInternal>
2.9937

> <Gold.Chemscore.Rot>
2.1155

> <Gold.Chemscore.Internal.Correction>
   9.000000E+99

> <Gold.Chemscore.Hbonds>
donor molecule, donor type, donor heavy atom, donor atom, acceptor molecule, acceptor atom, score
      L1  H     8    31       P1 10175  0.85
      L1  H    11    32       P1 10175  1.00
      L1  H    15    37       P1  7957  0.80
      L1  H    22    47       P1 10186  0.52
      P1  H  8011  8017       L1    15  0.11

> <Gold.Chemscore.Hbond.Weighted>
-11.7538

> <Gold.Chemscore.Metal.Weighted>
-0.0000

> <Gold.Chemscore.Lipo.Weighted>
-7.2380

> <Gold.Chemscore.Internal_Hbond.Weighted>
0.0000

> <Gold.Chemscore.DEClash.Weighted>
1.2086

> <Gold.Chemscore.DEInternal.Weighted>
2.9937

> <Gold.Chemscore.Rot.Weighted>
5.4158

> <Gold.Chemscore.Internal.Correction.Weighted>
   9.000000E+99

> <Gold.Protein.RotatedTorsions>
[ 6907 6896 6895 6894 ] final  -84.32 input  -60.11 | X-H torsion
[ 7974 7965 7964 7962 ] final  113.87 input  175.53 | X-H torsion
[ 8008 7997 7996 7995 ] final -164.62 input   59.86 | X-H torsion
[ 10167 10162 10161 10158 ] final  133.69 input  -65.29 | X-H torsion
[ 10718 10713 10712 10709 ] final  -73.27 input   66.30 | X-H torsion
[ 10763 10752 10751 10750 ] final -125.46 input  -60.55 | X-H torsion
[ 11005 11000 10999 10996 ] final -159.67 input  -57.11 | X-H torsion

> <Gold.Protein.ActiveResidues>
 VAL166  LYS551  ARG553  GLY616  TRP617  ASP618  TYR619  PRO620  LYS621  CYS622 
 ASP623  PHE694  ASN695  SER759  ASP760  ASP761  ALA762  ILE779  LEU786  VAL792 
 PHE793  MET794  SER795  GLU796  ALA797  LYS798  CYS799  TRP800  GLU811  SER814 

> <Gold.Protein.RotatedAtoms>
  150.6877  134.3376  159.4853 H   0  0  0  0  0  0  0  0  0  0  0  0  # atno 6907 bound_to 6896
  152.1233  134.9186  160.0571 H   0  0  0  0  0  0  0  0  0  0  0  0  # atno 6908 bound_to 6896
  152.0384  133.3932  159.4363 H   0  0  0  0  0  0  0  0  0  0  0  0  # atno 6909 bound_to 6896
  145.2115  139.2904  143.4266 H   0  0  0  0  0  0  0  0  0  0  0  0  # atno 7974 bound_to 7965
  155.8381  140.0944  157.1751 H   0  0  0  0  0  0  0  0  0  0  0  0  # atno 8008 bound_to 7997
  154.3981  140.1406  156.3757 H   0  0  0  0  0  0  0  0  0  0  0  0  # atno 8009 bound_to 7997
  155.8093  140.3450  155.5451 H   0  0  0  0  0  0  0  0  0  0  0  0  # atno 8010 bound_to 7997
  139.5287  144.6604  151.5032 H   0  0  0  0  0  0  0  0  0  0  0  0  # atno 10167 bound_to 10162
  156.0287  130.4390  150.2718 H   0  0  0  0  0  0  0  0  0  0  0  0  # atno 10718 bound_to 10713
  154.8736  135.4028  154.3272 H   0  0  0  0  0  0  0  0  0  0  0  0  # atno 10763 bound_to 10752
  153.4091  135.7020  153.6377 H   0  0  0  0  0  0  0  0  0  0  0  0  # atno 10764 bound_to 10752
  153.5087  135.3712  155.2546 H   0  0  0  0  0  0  0  0  0  0  0  0  # atno 10765 bound_to 10752
  140.6400  134.4561  157.5233 H   0  0  0  0  0  0  0  0  0  0  0  0  # atno 11005 bound_to 11000
  146.3396  140.2392  142.8595 LP  0  0  0  0  0  0  0  0  0  0  0  0  # atno 17320 bound_to 7965
  144.9852  140.8496  143.5373 LP  0  0  0  0  0  0  0  0  0  0  0  0  # atno 17321 bound_to 7965
  140.6449  143.8815  150.6727 LP  0  0  0  0  0  0  0  0  0  0  0  0  # atno 17342 bound_to 10162
  140.2161  143.3845  152.1680 LP  0  0  0  0  0  0  0  0  0  0  0  0  # atno 17343 bound_to 10162
  157.0821  131.0146  151.3153 LP  0  0  0  0  0  0  0  0  0  0  0  0  # atno 17370 bound_to 10713
  157.4919  130.7827  149.7517 LP  0  0  0  0  0  0  0  0  0  0  0  0  # atno 17371 bound_to 10713
  139.9084  134.8399  156.1620 LP  0  0  0  0  0  0  0  0  0  0  0  0  # atno 17394 bound_to 11000
  141.0613  133.6840  156.1959 LP  0  0  0  0  0  0  0  0  0  0  0  0  # atno 17395 bound_to 11000

$$$$
