AV-unprocessed.smi:2648|AV-procd|sdf|10287|dock6
  -GOLD-   2272014303D 1   1.00000     0.00000
 Structure written by MMmdl.
 31 32  0  0  0  0  0  0  0  0  2 V2000
  144.7584  137.1455  151.8356 O   0  0  0  0  0  0  0  0  0  0  0  0
  145.9539  136.8527  151.8274 C   0  0  0  0  0  0  0  0  0  0  0  0
  146.9314  137.7304  152.0942 N   0  0  0  0  0  0  0  0  0  0  0  0
  146.7232  139.1327  152.4323 C   0  0  0  0  0  0  0  0  0  0  0  0
  146.9619  139.3909  153.9309 C   0  0  0  0  0  0  0  0  0  0  0  0
  148.3937  139.4148  154.2408 N   0  0  0  0  0  0  0  0  0  0  0  0
  149.1060  138.3388  154.5883 C   0  0  0  0  0  0  0  0  0  0  0  0
  148.7110  137.1800  154.7203 O   0  0  0  0  0  0  0  0  0  0  0  0
  150.5352  138.7854  154.7916 C   0  0  0  0  0  0  0  0  0  0  0  0
  150.4614  140.1988  154.4981 N   0  5  0  0  0  0  0  0  0  0  0  0
  149.1821  140.5049  154.1782 C   0  0  0  0  0  0  0  0  0  0  0  0
  148.7487  141.6122  153.8611 O   0  0  0  0  0  0  0  0  0  0  0  0
  146.4545  135.6303  151.5771 N   0  0  0  0  0  0  0  0  0  0  0  0
  145.7582  134.4368  151.2436 C   0  0  0  0  0  0  0  0  0  0  0  0
  146.5241  133.2864  150.9627 C   0  0  0  0  0  0  0  0  0  0  0  0
  145.8576  132.0947  150.6137 C   0  0  0  0  0  0  0  0  0  0  0  0
  144.5147  131.9954  150.5231 N   0  0  0  0  0  0  0  0  0  0  0  0
  143.7838  133.1013  150.7777 C   0  0  0  0  0  0  0  0  0  0  0  0
  144.3498  134.3412  151.1355 C   0  0  0  0  0  0  0  0  0  0  0  0
  147.8868  137.4056  152.0707 H   0  0  0  0  0  0  0  0  0  0  0  0
  147.4150  139.7289  151.8364 H   0  0  0  0  0  0  0  0  0  0  0  0
  145.7178  139.4444  152.1434 H   0  0  0  0  0  0  0  0  0  0  0  0
  146.5022  140.3343  154.2302 H   0  0  0  0  0  0  0  0  0  0  0  0
  146.4665  138.6215  154.5258 H   0  0  0  0  0  0  0  0  0  0  0  0
  150.8482  138.5732  155.8142 H   0  0  0  0  0  0  0  0  0  0  0  0
  151.1945  138.2392  154.1163 H   0  0  0  0  0  0  0  0  0  0  0  0
  147.4524  135.5299  151.6912 H   0  0  0  0  0  0  0  0  0  0  0  0
  147.6027  133.3099  151.0177 H   0  0  0  0  0  0  0  0  0  0  0  0
  146.4191  131.1975  150.3995 H   0  0  0  0  0  0  0  0  0  0  0  0
  142.7126  132.9971  150.6870 H   0  0  0  0  0  0  0  0  0  0  0  0
  143.6992  135.1851  151.3052 H   0  0  0  0  0  0  0  0  0  0  0  0
  1  2  2  0  0  0  0
  2  3  1  0  0  0  0
  2 13  1  0  0  0  0
  3  4  1  0  0  0  0
  3 20  1  0  0  0  0
  4  5  1  0  0  0  0
  4 21  1  0  0  0  0
  4 22  1  0  0  0  0
  5  6  1  0  0  0  0
  5 23  1  0  0  0  0
  5 24  1  0  0  0  0
  6 11  1  0  0  0  0
  6  7  1  0  0  0  0
  7  8  2  0  0  0  0
  7  9  1  0  0  0  0
  9 10  1  0  0  0  0
  9 25  1  0  0  0  0
  9 26  1  0  0  0  0
 10 11  1  0  0  0  0
 11 12  2  0  0  0  0
 13 14  1  0  0  0  0
 13 27  1  0  0  0  0
 14 19  1  0  0  0  0
 14 15  2  0  0  0  0
 15 16  1  0  0  0  0
 15 28  1  0  0  0  0
 16 17  2  0  0  0  0
 16 29  1  0  0  0  0
 17 18  1  0  0  0  0
 18 19  2  0  0  0  0
 18 30  1  0  0  0  0
 19 31  1  0  0  0  0
M  CHG  1  10  -1
M  END
> <s_m_source_file>
AV-unprocessed.smi

> <i_m_source_file_index>
2648

> <i_lp_mmshare_version>
43012

> <i_f3d_flags>
0

> <s_epik_input>
W2NIXTFbY0hdbltjSF1bY0hdYzFbTkhdQyg9TylbTkhdW0NIMl1bQ0gyXU4yQyg9TylbQ0gyXVtOSF1DMj1P

> <s_epik_cmdline>
J2VwaWtfcHl0aG9uJywgJy1waCcsICc3LjAnLCAnLXRuJywgJzgnLCAnLW1hJywgJzIwMCcsICctbWV0YWxfYmluZGluZycsICctaW1hZScsICc8aW5maWxlLm1hZT4nLCAnLW9tYWUnLCAnPG91dGZpbGUubWFlPic=

> <r_lp_tautomer_probability>
1

> <r_epik_Ionization_Penalty>
5.93063

> <r_epik_Ionization_Penalty_Charging>
5.82164

> <r_epik_Ionization_Penalty_Neutral>
0.10899

> <r_epik_State_Penalty>
5.92035

> <r_epik_Charging_Adjusted_Penalty>
11.742

> <i_epik_Tot_Q>
-1

> <i_epik_Tot_abs_Q>
1

> <r_epik_Metal_State_Penalty>
1.97767

> <b_epik_Metal_Only>
1

> <s_lp_Force_Field>
OPLS_2005

> <r_lp_Energy>
14.3233

> <b_lp_Chiralities_Consistent>
1

> <s_lp_Variant>
AV-unprocessed.smi:2648-3

> <Gold.Version>
5.8.1

> <Gold.Id.Protein>
6NUR|6NUR_protein|mol2

> <Gold.PLP.Fitness>
45.4417

> <Gold.PLP.PLP>
-29.6286

> <Gold.PLP.part.hbond>
-4.0000

> <Gold.PLP.part.metal>
0.0000

> <Gold.PLP.part.buried>
-4.5072

> <Gold.PLP.part.nonpolar>
-25.9856

> <Gold.PLP.part.repulsive>
4.9268

> <Gold.PLP.ligand.clash>
0.0000

> <Gold.PLP.ligand.torsion>
0.5230

> <Gold.PLP.Chemscore.Hbond>
3.6240

> <Gold.PLP.Chemscore.CHOScore>
1.9929

> <Gold.PLP.Chemscore.Metal>
0.0000

> <Gold.Chemscore.Hbonds>
donor molecule, donor type, donor heavy atom, donor atom, acceptor molecule, acceptor atom, score
      L1  H     3    20       P1  7948  1.00
      L1  H    13    27       P1  7948  1.00
      P1  H  7989  7998       L1    10  1.00
      P1  H  8011  8017       L1    12  0.64
      L1  C    16    29       P1 10747  0.89
      L1  C    18    30       P1 10186  1.00

> <Gold.PLP.Chemscore.Internal.Correction>
0.0086

> <Gold.Rescore>
     Score         DG    S(hbond)    S(metal)    S(lipo)     H(rot)  DE(clash)    DE(int)     intcor
     14.04     -18.52       3.39        0.00      56.15       1.90       2.76       1.72       ----

> <Gold.Chemscore.Fitness>
14.0398

> <Gold.Chemscore.DG>
-18.5160

> <Gold.Chemscore.ZeroCoef>
-5.4800

> <Gold.Chemscore.Hbond>
3.3900

> <Gold.Chemscore.Metal>
0.0000

> <Gold.Chemscore.Lipo>
56.1499

> <Gold.Chemscore.Internal_Hbond>
0.0000

> <Gold.Chemscore.DEClash>
2.7560

> <Gold.Chemscore.DEInternal>
1.7203

> <Gold.Chemscore.Rot>
1.8969

> <Gold.Chemscore.Internal.Correction>
   9.000000E+99

> <Gold.Chemscore.Hbonds>
donor molecule, donor type, donor heavy atom, donor atom, acceptor molecule, acceptor atom, score
      L1  H     3    20       P1  7948  0.93
      L1  H    13    27       P1  7948  0.92
      P1  H  7989  7998       L1    10  0.87
      P1  H  8011  8017       L1    12  0.50

> <Gold.Chemscore.Hbond.Weighted>
-11.3226

> <Gold.Chemscore.Metal.Weighted>
-0.0000

> <Gold.Chemscore.Lipo.Weighted>
-6.5695

> <Gold.Chemscore.Internal_Hbond.Weighted>
0.0000

> <Gold.Chemscore.DEClash.Weighted>
2.7560

> <Gold.Chemscore.DEInternal.Weighted>
1.7203

> <Gold.Chemscore.Rot.Weighted>
4.8561

> <Gold.Chemscore.Internal.Correction.Weighted>
   9.000000E+99

> <Gold.Protein.RotatedTorsions>
[ 6907 6896 6895 6894 ] final   33.01 input  -60.11 | X-H torsion
[ 7974 7965 7964 7962 ] final -141.81 input  175.53 | X-H torsion
[ 8008 7997 7996 7995 ] final   55.11 input   59.86 | X-H torsion
[ 10167 10162 10161 10158 ] final   37.87 input  -65.29 | X-H torsion
[ 10718 10713 10712 10709 ] final  140.04 input   66.30 | X-H torsion
[ 10763 10752 10751 10750 ] final   85.18 input  -60.55 | X-H torsion
[ 11005 11000 10999 10996 ] final  -23.02 input  -57.11 | X-H torsion

> <Gold.Protein.ActiveResidues>
 VAL166  LYS551  ARG553  GLY616  TRP617  ASP618  TYR619  PRO620  LYS621  CYS622 
 ASP623  PHE694  ASN695  SER759  ASP760  ASP761  ALA762  ILE779  LEU786  VAL792 
 PHE793  MET794  SER795  GLU796  ALA797  LYS798  CYS799  TRP800  GLU811  SER814 

> <Gold.Protein.RotatedAtoms>
  152.0824  134.9462  160.0573 H   0  0  0  0  0  0  0  0  0  0  0  0  # atno 6907 bound_to 6896
  152.0745  133.4118  159.4482 H   0  0  0  0  0  0  0  0  0  0  0  0  # atno 6908 bound_to 6896
  150.6836  134.2973  159.4735 H   0  0  0  0  0  0  0  0  0  0  0  0  # atno 6909 bound_to 6896
  144.8491  140.6034  143.5402 H   0  0  0  0  0  0  0  0  0  0  0  0  # atno 7974 bound_to 7965
  155.4958  140.3473  155.4362 H   0  0  0  0  0  0  0  0  0  0  0  0  # atno 8008 bound_to 7997
  156.0947  140.1419  156.9575 H   0  0  0  0  0  0  0  0  0  0  0  0  # atno 8009 bound_to 7997
  154.4656  140.0919  156.6988 H   0  0  0  0  0  0  0  0  0  0  0  0  # atno 8010 bound_to 7997
  140.3991  144.1748  150.6133 H   0  0  0  0  0  0  0  0  0  0  0  0  # atno 10167 bound_to 10162
  157.4077  131.1024  151.0487 H   0  0  0  0  0  0  0  0  0  0  0  0  # atno 10718 bound_to 10713
  153.1451  135.4626  154.9554 H   0  0  0  0  0  0  0  0  0  0  0  0  # atno 10763 bound_to 10752
  154.7779  135.3179  154.8054 H   0  0  0  0  0  0  0  0  0  0  0  0  # atno 10764 bound_to 10752
  153.8570  135.6916  153.4841 H   0  0  0  0  0  0  0  0  0  0  0  0  # atno 10765 bound_to 10752
  140.8712  133.7719  156.0188 H   0  0  0  0  0  0  0  0  0  0  0  0  # atno 11005 bound_to 11000
  145.4537  139.1520  143.3904 LP  0  0  0  0  0  0  0  0  0  0  0  0  # atno 17320 bound_to 7965
  146.2769  140.4664  142.8792 LP  0  0  0  0  0  0  0  0  0  0  0  0  # atno 17321 bound_to 7965
  140.4758  143.2396  151.9024 LP  0  0  0  0  0  0  0  0  0  0  0  0  # atno 17342 bound_to 10162
  139.4785  144.5321  151.8651 LP  0  0  0  0  0  0  0  0  0  0  0  0  # atno 17343 bound_to 10162
  157.1463  130.6164  149.5569 LP  0  0  0  0  0  0  0  0  0  0  0  0  # atno 17370 bound_to 10713
  155.9841  130.4864  150.6967 LP  0  0  0  0  0  0  0  0  0  0  0  0  # atno 17371 bound_to 10713
  140.8571  134.2885  157.5250 LP  0  0  0  0  0  0  0  0  0  0  0  0  # atno 17394 bound_to 11000
  139.8712  134.9499  156.4038 LP  0  0  0  0  0  0  0  0  0  0  0  0  # atno 17395 bound_to 11000

$$$$
