AV-unprocessed.smi:3237|AV-procd|sdf|12372|dock1
  -GOLD-   2272018233D 1   1.00000     0.00000
 Structure written by MMmdl.
 36 38  0  0  0  0  0  0  0  0  3 V2000
  152.3353  142.7541  158.7243 C   0  0  0  0  0  0  0  0  0  0  0  0
  151.1439  142.1586  158.0560 C   0  0  0  0  0  0  0  0  0  0  0  0
  150.9972  141.3452  156.9678 C   0  0  0  0  0  0  0  0  0  0  0  0
  149.5901  141.1682  156.8865 C   0  0  0  0  0  0  0  0  0  0  0  0
  149.0193  140.3690  155.8609 N   0  0  0  0  0  0  0  0  0  0  0  0
  149.6066  139.8661  154.7597 C   0  0  0  0  0  0  0  0  0  0  0  0
  150.8009  140.0895  154.5299 O   0  0  0  0  0  0  0  0  0  0  0  0
  148.7415  139.1374  154.0010 N   0  5  0  0  0  0  0  0  0  0  0  0
  147.2808  139.2834  154.0224 C   0  0  1  0  0  0  0  0  0  0  0  0
  146.7788  139.6855  152.6308 C   0  0  0  0  0  0  0  0  0  0  0  0
  146.5033  138.3649  151.8931 C   0  0  0  0  0  0  0  0  0  0  0  0
  146.6187  137.2852  152.8986 N   0  3  2  0  0  0  0  0  0  0  0  0
  145.6400  136.1890  152.7383 C   0  0  0  0  0  0  0  0  0  0  0  0
  145.1791  135.9962  151.3136 C   0  0  0  0  0  0  0  0  0  0  0  0
  144.2680  136.6623  152.3224 C   0  0  0  0  0  0  0  0  0  0  0  0
  146.6068  137.9231  154.2285 C   0  0  0  0  0  0  0  0  0  0  0  0
  148.9379  141.8121  157.8433 N   0  0  0  0  0  0  0  0  0  0  0  0
  149.9300  142.4501  158.5972 O   0  0  0  0  0  0  0  0  0  0  0  0
  153.2394  142.5725  158.1431 H   0  0  0  0  0  0  0  0  0  0  0  0
  152.4774  142.3231  159.7153 H   0  0  0  0  0  0  0  0  0  0  0  0
  152.2171  143.8319  158.8365 H   0  0  0  0  0  0  0  0  0  0  0  0
  151.7726  140.9447  156.3315 H   0  0  0  0  0  0  0  0  0  0  0  0
  148.0449  140.1364  155.9825 H   0  0  0  0  0  0  0  0  0  0  0  0
  146.9495  140.0020  154.7729 H   0  0  0  0  0  0  0  0  0  0  0  0
  145.8441  140.2381  152.7337 H   0  0  0  0  0  0  0  0  0  0  0  0
  147.4723  140.3318  152.0906 H   0  0  0  0  0  0  0  0  0  0  0  0
  145.5109  138.3849  151.4393 H   0  0  0  0  0  0  0  0  0  0  0  0
  147.2273  138.1906  151.0957 H   0  0  0  0  0  0  0  0  0  0  0  0
  145.7538  135.3346  153.4033 H   0  0  0  0  0  0  0  0  0  0  0  0
  145.6193  136.6243  150.5410 H   0  0  0  0  0  0  0  0  0  0  0  0
  144.9228  134.9858  151.0012 H   0  0  0  0  0  0  0  0  0  0  0  0
  143.4117  136.0903  152.6741 H   0  0  0  0  0  0  0  0  0  0  0  0
  144.1020  137.7331  152.2194 H   0  0  0  0  0  0  0  0  0  0  0  0
  147.0948  137.3018  154.9808 H   0  0  0  0  0  0  0  0  0  0  0  0
  145.5740  138.0758  154.5466 H   0  0  0  0  0  0  0  0  0  0  0  0
  147.5458  136.8989  152.7907 H   0  0  0  0  0  0  0  0  0  0  0  0
  1  2  1  0  0  0  0
  1 19  1  0  0  0  0
  1 20  1  0  0  0  0
  1 21  1  0  0  0  0
  2 18  1  0  0  0  0
  2  3  2  0  0  0  0
  3  4  1  0  0  0  0
  3 22  1  0  0  0  0
  4  5  1  0  0  0  0
  4 17  2  0  0  0  0
  5  6  1  0  0  0  0
  5 23  1  0  0  0  0
  6  7  2  0  0  0  0
  6  8  1  0  0  0  0
  8  9  1  0  0  0  0
  9 16  1  0  0  0  0
  9 10  1  0  0  0  0
  9 24  1  0  0  0  0
 10 11  1  0  0  0  0
 10 25  1  0  0  0  0
 10 26  1  0  0  0  0
 11 12  1  0  0  0  0
 11 27  1  0  0  0  0
 11 28  1  0  0  0  0
 12 13  1  0  0  0  0
 12 16  1  0  0  0  0
 12 36  1  0  0  0  0
 13 15  1  0  0  0  0
 13 14  1  0  0  0  0
 13 29  1  0  0  0  0
 14 15  1  0  0  0  0
 14 30  1  0  0  0  0
 14 31  1  0  0  0  0
 15 32  1  0  0  0  0
 15 33  1  0  0  0  0
 16 34  1  0  0  0  0
 16 35  1  0  0  0  0
 17 18  1  0  0  0  0
M  CHG  1   8  -1
M  CHG  1  12   1
M  END
> <s_m_source_file>
AV-unprocessed.smi

> <i_m_source_file_index>
3237

> <i_lp_mmshare_version>
43012

> <i_f3d_flags>
0

> <s_epik_input>
W0NIM11jMVtjSF1jKG5vMSlbTkhdQyg9TylbTkhdW0NAQEhdMltDSDJdW0NIMl1OKFtDSDJdMilbQ0hdM1tDSDJdW0NIMl0z

> <s_epik_cmdline>
J2VwaWtfcHl0aG9uJywgJy1waCcsICc3LjAnLCAnLXRuJywgJzgnLCAnLW1hJywgJzIwMCcsICctbWV0YWxfYmluZGluZycsICctaW1hZScsICc8aW5maWxlLm1hZT4nLCAnLW9tYWUnLCAnPG91dGZpbGUubWFlPic=

> <r_epik_Ionization_Penalty>
6.76456

> <r_epik_Ionization_Penalty_Charging>
6.76456

> <r_epik_Ionization_Penalty_Neutral>
5.76722e-06

> <r_epik_State_Penalty>
6.78919

> <r_epik_Charging_Adjusted_Penalty>
13.5538

> <i_epik_Tot_Q>
0

> <i_epik_Tot_abs_Q>
2

> <r_epik_Metal_State_Penalty>
2.728

> <b_epik_Metal_Only>
1

> <s_lp_Force_Field>
OPLS_2005

> <r_lp_Energy>
30.7434

> <b_lp_Chiralities_Consistent>
1

> <s_lp_Variant>
AV-unprocessed.smi:3237-10

> <Gold.Version>
5.8.1

> <Gold.Id.Protein>
6NUR|6NUR_protein|mol2

> <Gold.PLP.Fitness>
35.5419

> <Gold.PLP.PLP>
-26.7766

> <Gold.PLP.part.hbond>
-1.9900

> <Gold.PLP.part.metal>
0.0000

> <Gold.PLP.part.buried>
-2.5646

> <Gold.PLP.part.nonpolar>
-23.6284

> <Gold.PLP.part.repulsive>
0.8347

> <Gold.PLP.ligand.clash>
0.0261

> <Gold.PLP.ligand.torsion>
0.8099

> <Gold.PLP.Chemscore.Hbond>
3.0000

> <Gold.PLP.Chemscore.CHOScore>
0.0000

> <Gold.PLP.Chemscore.Metal>
0.0000

> <Gold.Chemscore.Hbonds>
donor molecule, donor type, donor heavy atom, donor atom, acceptor molecule, acceptor atom, score
      L1  H    12    36       P1  7948  2.00
      P1  H  7989  7998       L1     7  1.00

> <Gold.PLP.Chemscore.Internal.Correction>
1.4112

> <Gold.Rescore>
     Score         DG    S(hbond)    S(metal)    S(lipo)     H(rot)  DE(clash)    DE(int)     intcor
     13.75     -16.14       1.99        0.00      61.63       1.25       0.14       2.24       ----

> <Gold.Chemscore.Fitness>
13.7517

> <Gold.Chemscore.DG>
-16.1401

> <Gold.Chemscore.ZeroCoef>
-5.4800

> <Gold.Chemscore.Hbond>
1.9880

> <Gold.Chemscore.Metal>
0.0000

> <Gold.Chemscore.Lipo>
61.6315

> <Gold.Chemscore.Internal_Hbond>
0.0000

> <Gold.Chemscore.DEClash>
0.1438

> <Gold.Chemscore.DEInternal>
2.2446

> <Gold.Chemscore.Rot>
1.2464

> <Gold.Chemscore.Internal.Correction>
   9.000000E+99

> <Gold.Chemscore.Hbonds>
donor molecule, donor type, donor heavy atom, donor atom, acceptor molecule, acceptor atom, score
      L1  H    12    36       P1  7948  0.98
      P1  H  7989  7998       L1     7  0.93

> <Gold.Chemscore.Hbond.Weighted>
-6.6401

> <Gold.Chemscore.Metal.Weighted>
-0.0000

> <Gold.Chemscore.Lipo.Weighted>
-7.2109

> <Gold.Chemscore.Internal_Hbond.Weighted>
0.0000

> <Gold.Chemscore.DEClash.Weighted>
0.1438

> <Gold.Chemscore.DEInternal.Weighted>
2.2446

> <Gold.Chemscore.Rot.Weighted>
3.1909

> <Gold.Chemscore.Internal.Correction.Weighted>
   9.000000E+99

> <Gold.Protein.RotatedTorsions>
[ 6907 6896 6895 6894 ] final  135.48 input  -60.11 | X-H torsion
[ 7974 7965 7964 7962 ] final   30.39 input  175.53 | X-H torsion
[ 8008 7997 7996 7995 ] final  164.06 input   59.86 | X-H torsion
[ 10167 10162 10161 10158 ] final  -64.86 input  -65.29 | X-H torsion
[ 10718 10713 10712 10709 ] final  -19.63 input   66.30 | X-H torsion
[ 10763 10752 10751 10750 ] final  143.46 input  -60.55 | X-H torsion
[ 11005 11000 10999 10996 ] final  140.85 input  -57.11 | X-H torsion

> <Gold.Protein.ActiveResidues>
 VAL166  LYS551  ARG553  GLY616  TRP617  ASP618  TYR619  PRO620  LYS621  CYS622 
 ASP623  PHE694  ASN695  SER759  ASP760  ASP761  ALA762  ILE779  LEU786  VAL792 
 PHE793  MET794  SER795  GLU796  ALA797  LYS798  CYS799  TRP800  GLU811  SER814 

> <Gold.Protein.RotatedAtoms>
  152.3000  133.5645  159.5611 H   0  0  0  0  0  0  0  0  0  0  0  0  # atno 6907 bound_to 6896
  150.7273  134.0306  159.3741 H   0  0  0  0  0  0  0  0  0  0  0  0  # atno 6908 bound_to 6896
  151.8206  135.0653  160.0475 H   0  0  0  0  0  0  0  0  0  0  0  0  # atno 6909 bound_to 6896
  146.1614  139.6794  142.9031 H   0  0  0  0  0  0  0  0  0  0  0  0  # atno 7974 bound_to 7965
  156.1909  140.1707  156.8093 H   0  0  0  0  0  0  0  0  0  0  0  0  # atno 8008 bound_to 7997
  154.5470  140.0725  156.8638 H   0  0  0  0  0  0  0  0  0  0  0  0  # atno 8009 bound_to 7997
  155.3102  140.3367  155.4246 H   0  0  0  0  0  0  0  0  0  0  0  0  # atno 8010 bound_to 7997
  140.5771  143.2323  151.6420 H   0  0  0  0  0  0  0  0  0  0  0  0  # atno 10167 bound_to 10162
  156.5431  130.4683  149.6489 H   0  0  0  0  0  0  0  0  0  0  0  0  # atno 10718 bound_to 10713
  153.9726  135.2949  155.3426 H   0  0  0  0  0  0  0  0  0  0  0  0  # atno 10763 bound_to 10752
  154.7313  135.5066  153.8972 H   0  0  0  0  0  0  0  0  0  0  0  0  # atno 10764 bound_to 10752
  153.0892  135.6703  153.9999 H   0  0  0  0  0  0  0  0  0  0  0  0  # atno 10765 bound_to 10752
  140.0358  134.9330  157.0749 H   0  0  0  0  0  0  0  0  0  0  0  0  # atno 11005 bound_to 11000
  145.4578  141.0431  143.2768 LP  0  0  0  0  0  0  0  0  0  0  0  0  # atno 17320 bound_to 7965
  144.8032  139.6100  143.7062 LP  0  0  0  0  0  0  0  0  0  0  0  0  # atno 17321 bound_to 7965
  139.5149  144.3397  152.0752 LP  0  0  0  0  0  0  0  0  0  0  0  0  # atno 17342 bound_to 10162
  140.2542  144.4137  150.6210 LP  0  0  0  0  0  0  0  0  0  0  0  0  # atno 17343 bound_to 10162
  156.2954  130.7147  151.2006 LP  0  0  0  0  0  0  0  0  0  0  0  0  # atno 17370 bound_to 10713
  157.7402  131.0520  150.5184 LP  0  0  0  0  0  0  0  0  0  0  0  0  # atno 17371 bound_to 10713
  140.4150  134.1940  155.7163 LP  0  0  0  0  0  0  0  0  0  0  0  0  # atno 17394 bound_to 11000
  141.1856  133.8319  157.1098 LP  0  0  0  0  0  0  0  0  0  0  0  0  # atno 17395 bound_to 11000

$$$$
