AV-unprocessed.smi:1762|AV-procd|sdf|7113|dock4
  -GOLD-   22720 8343D 1   1.00000     0.00000
 Structure written by MMmdl.
 53 54  0  0  0  0  0  0  0  0  2 V2000
  150.7123  134.7416  156.0115 C   0  0  0  0  0  0  0  0  0  0  0  0
  150.6707  136.2711  155.9218 C   0  0  2  0  0  0  0  0  0  0  0  0
  149.6044  136.7624  154.9278 C   0  0  0  0  0  0  0  0  0  0  0  0
  149.6271  138.2481  154.8104 N   0  3  2  0  0  0  0  0  0  0  0  0
  148.5021  138.7888  153.9717 C   0  0  1  0  0  0  0  0  0  0  0  0
  147.2525  137.8877  154.0779 C   0  0  0  0  0  0  0  0  0  0  0  0
  146.6169  137.8333  155.1317 O   0  0  0  0  0  0  0  0  0  0  0  0
  146.9155  137.1907  152.9821 N   0  0  0  0  0  0  0  0  0  0  0  0
  145.7649  136.3025  152.8815 C   0  0  0  0  0  0  0  0  0  0  0  0
  146.1958  134.8407  153.0646 C   0  0  0  0  0  0  0  0  0  0  0  0
  145.7142  133.9540  151.9317 C   0  0  0  0  0  0  0  0  0  0  0  0
  144.3356  133.7362  151.7231 C   0  0  0  0  0  0  0  0  0  0  0  0
  143.9414  132.9107  150.6522 C   0  0  0  0  0  0  0  0  0  0  0  0
  144.9355  132.3398  149.8343 C   0  0  0  0  0  0  0  0  0  0  0  0
  146.2854  132.6201  150.1256 C   0  0  0  0  0  0  0  0  0  0  0  0
  146.6740  133.4093  151.1504 N   0  0  0  0  0  0  0  0  0  0  0  0
  148.1313  140.2812  154.2727 C   0  0  0  0  0  0  0  0  0  0  0  0
  147.1222  140.8910  153.2769 C   0  0  0  0  0  0  0  0  0  0  0  0
  149.3615  141.2006  154.4069 C   0  0  0  0  0  0  0  0  0  0  0  0
  150.9942  138.6744  154.3999 C   0  0  0  0  0  0  0  0  0  0  0  0
  152.0708  138.1310  155.3604 C   0  0  1  0  0  0  0  0  0  0  0  0
  152.0915  138.8474  156.7231 C   0  0  0  0  0  0  0  0  0  0  0  0
  151.9524  136.7172  155.4946 O   0  0  0  0  0  0  0  0  0  0  0  0
  149.7538  134.3408  156.3421 H   0  0  0  0  0  0  0  0  0  0  0  0
  151.4712  134.4139  156.7224 H   0  0  0  0  0  0  0  0  0  0  0  0
  150.9469  134.2946  155.0448 H   0  0  0  0  0  0  0  0  0  0  0  0
  150.4525  136.6603  156.9163 H   0  0  0  0  0  0  0  0  0  0  0  0
  149.7723  136.3190  153.9447 H   0  0  0  0  0  0  0  0  0  0  0  0
  148.6335  136.4046  155.2692 H   0  0  0  0  0  0  0  0  0  0  0  0
  148.8496  138.7513  152.9373 H   0  0  0  0  0  0  0  0  0  0  0  0
  147.4887  137.2904  152.1565 H   0  0  0  0  0  0  0  0  0  0  0  0
  145.0370  136.5801  153.6451 H   0  0  0  0  0  0  0  0  0  0  0  0
  145.2767  136.4218  151.9125 H   0  0  0  0  0  0  0  0  0  0  0  0
  147.2835  134.7768  153.1245 H   0  0  0  0  0  0  0  0  0  0  0  0
  145.8135  134.4535  154.0100 H   0  0  0  0  0  0  0  0  0  0  0  0
  143.5960  134.1910  152.3657 H   0  0  0  0  0  0  0  0  0  0  0  0
  142.8956  132.7202  150.4612 H   0  0  0  0  0  0  0  0  0  0  0  0
  144.6700  131.7026  149.0036 H   0  0  0  0  0  0  0  0  0  0  0  0
  147.0743  132.2000  149.5194 H   0  0  0  0  0  0  0  0  0  0  0  0
  147.6774  140.3181  155.2618 H   0  0  0  0  0  0  0  0  0  0  0  0
  147.5556  141.0059  152.2832 H   0  0  0  0  0  0  0  0  0  0  0  0
  146.8045  141.8806  153.6063 H   0  0  0  0  0  0  0  0  0  0  0  0
  146.2250  140.2811  153.1759 H   0  0  0  0  0  0  0  0  0  0  0  0
  149.8666  141.3546  153.4530 H   0  0  0  0  0  0  0  0  0  0  0  0
  150.0870  140.7889  155.1090 H   0  0  0  0  0  0  0  0  0  0  0  0
  149.0716  142.1839  154.7785 H   0  0  0  0  0  0  0  0  0  0  0  0
  151.1873  138.3193  153.3863 H   0  0  0  0  0  0  0  0  0  0  0  0
  151.0973  139.7573  154.3820 H   0  0  0  0  0  0  0  0  0  0  0  0
  153.0434  138.3072  154.8998 H   0  0  0  0  0  0  0  0  0  0  0  0
  152.3232  139.9056  156.5997 H   0  0  0  0  0  0  0  0  0  0  0  0
  152.8519  138.4186  157.3761 H   0  0  0  0  0  0  0  0  0  0  0  0
  151.1335  138.7866  157.2390 H   0  0  0  0  0  0  0  0  0  0  0  0
  149.4800  138.6166  155.7395 H   0  0  0  0  0  0  0  0  0  0  0  0
  1  2  1  0  0  0  0
  1 24  1  0  0  0  0
  1 25  1  0  0  0  0
  1 26  1  0  0  0  0
  2 23  1  0  0  0  0
  2  3  1  0  0  0  0
  2 27  1  0  0  0  0
  3  4  1  0  0  0  0
  3 28  1  0  0  0  0
  3 29  1  0  0  0  0
  4  5  1  0  0  0  0
  4 20  1  0  0  0  0
  4 53  1  0  0  0  0
  5  6  1  0  0  0  0
  5 17  1  0  0  0  0
  5 30  1  0  0  0  0
  6  7  2  0  0  0  0
  6  8  1  0  0  0  0
  8  9  1  0  0  0  0
  8 31  1  0  0  0  0
  9 10  1  0  0  0  0
  9 32  1  0  0  0  0
  9 33  1  0  0  0  0
 10 11  1  0  0  0  0
 10 34  1  0  0  0  0
 10 35  1  0  0  0  0
 11 16  1  0  0  0  0
 11 12  2  0  0  0  0
 12 13  1  0  0  0  0
 12 36  1  0  0  0  0
 13 14  2  0  0  0  0
 13 37  1  0  0  0  0
 14 15  1  0  0  0  0
 14 38  1  0  0  0  0
 15 16  2  0  0  0  0
 15 39  1  0  0  0  0
 17 18  1  0  0  0  0
 17 19  1  0  0  0  0
 17 40  1  0  0  0  0
 18 41  1  0  0  0  0
 18 42  1  0  0  0  0
 18 43  1  0  0  0  0
 19 44  1  0  0  0  0
 19 45  1  0  0  0  0
 19 46  1  0  0  0  0
 20 21  1  0  0  0  0
 20 47  1  0  0  0  0
 20 48  1  0  0  0  0
 21 22  1  0  0  0  0
 21 23  1  0  0  0  0
 21 49  1  0  0  0  0
 22 50  1  0  0  0  0
 22 51  1  0  0  0  0
 22 52  1  0  0  0  0
M  CHG  1   4   1
M  END
> <s_m_source_file>
AV-unprocessed.smi

> <i_m_source_file_index>
1762

> <i_lp_mmshare_version>
43012

> <i_f3d_flags>
0

> <s_epik_input>
W0NIM11bQ0BASF0xW0NIMl1OKFtDSDJdW0NASF0oTzEpW0NIM10pW0NAQEhdKFtDSF0oW0NIM10pW0NIM10pQyg9TylbTkhdW0NIMl1bQ0gyXWMyW2NIXVtjSF1bY0hdW2NIXW4y

> <s_epik_cmdline>
J2VwaWtfcHl0aG9uJywgJy1waCcsICc3LjAnLCAnLXRuJywgJzgnLCAnLW1hJywgJzIwMCcsICctbWV0YWxfYmluZGluZycsICctaW1hZScsICc8aW5maWxlLm1hZT4nLCAnLW9tYWUnLCAnPG91dGZpbGUubWFlPic=

> <r_epik_Ionization_Penalty>
2.27005

> <r_epik_Ionization_Penalty_Charging>
2.24983

> <r_epik_Ionization_Penalty_Neutral>
0.0202209

> <r_epik_State_Penalty>
2.40228

> <r_epik_Charging_Adjusted_Penalty>
4.65211

> <i_epik_Tot_Q>
1

> <i_epik_Tot_abs_Q>
1

> <r_epik_Metal_State_Penalty>
2.40762

> <b_epik_Metal_Only>
0

> <s_lp_Force_Field>
OPLS_2005

> <r_lp_Energy>
25.3597

> <b_lp_Chiralities_Consistent>
1

> <s_lp_Variant>
AV-unprocessed.smi:1762-15

> <Gold.Version>
5.8.1

> <Gold.Id.Protein>
6NUR|6NUR_protein|mol2

> <Gold.PLP.Fitness>
41.4870

> <Gold.PLP.PLP>
-36.4824

> <Gold.PLP.part.hbond>
-2.0000

> <Gold.PLP.part.metal>
0.0000

> <Gold.PLP.part.buried>
-4.7831

> <Gold.PLP.part.nonpolar>
-30.8575

> <Gold.PLP.part.repulsive>
0.3494

> <Gold.PLP.ligand.clash>
0.2806

> <Gold.PLP.ligand.torsion>
1.2098

> <Gold.PLP.Chemscore.Hbond>
1.4960

> <Gold.PLP.Chemscore.CHOScore>
1.0000

> <Gold.PLP.Chemscore.Metal>
0.0000

> <Gold.Chemscore.Hbonds>
donor molecule, donor type, donor heavy atom, donor atom, acceptor molecule, acceptor atom, score
      L1  H     8    31       P1  7948  0.46
      P1  H 10752 10765       L1    23  1.00
      L1  C    15    39       P1 10747  0.97

> <Gold.PLP.Chemscore.Internal.Correction>
0.2169

> <Gold.Rescore>
     Score         DG    S(hbond)    S(metal)    S(lipo)     H(rot)  DE(clash)    DE(int)     intcor
     16.33     -18.77       1.51        0.00     107.02       1.66       0.20       2.25       ----

> <Gold.Chemscore.Fitness>
16.3288

> <Gold.Chemscore.DG>
-18.7741

> <Gold.Chemscore.ZeroCoef>
-5.4800

> <Gold.Chemscore.Hbond>
1.5063

> <Gold.Chemscore.Metal>
0.0000

> <Gold.Chemscore.Lipo>
107.0221

> <Gold.Chemscore.Internal_Hbond>
0.0000

> <Gold.Chemscore.DEClash>
0.1979

> <Gold.Chemscore.DEInternal>
2.2474

> <Gold.Chemscore.Rot>
1.6635

> <Gold.Chemscore.Internal.Correction>
   9.000000E+99

> <Gold.Chemscore.Hbonds>
donor molecule, donor type, donor heavy atom, donor atom, acceptor molecule, acceptor atom, score
      L1  H     8    31       P1  7948  0.46
      P1  H 10752 10765       L1    23  0.94

> <Gold.Chemscore.Hbond.Weighted>
-5.0312

> <Gold.Chemscore.Metal.Weighted>
-0.0000

> <Gold.Chemscore.Lipo.Weighted>
-12.5216

> <Gold.Chemscore.Internal_Hbond.Weighted>
0.0000

> <Gold.Chemscore.DEClash.Weighted>
0.1979

> <Gold.Chemscore.DEInternal.Weighted>
2.2474

> <Gold.Chemscore.Rot.Weighted>
4.2586

> <Gold.Chemscore.Internal.Correction.Weighted>
   9.000000E+99

> <Gold.Protein.RotatedTorsions>
[ 6907 6896 6895 6894 ] final   -0.62 input  -60.11 | X-H torsion
[ 7974 7965 7964 7962 ] final -119.96 input  175.53 | X-H torsion
[ 8008 7997 7996 7995 ] final   97.28 input   59.86 | X-H torsion
[ 10167 10162 10161 10158 ] final  -49.38 input  -65.29 | X-H torsion
[ 10718 10713 10712 10709 ] final -105.70 input   66.30 | X-H torsion
[ 10763 10752 10751 10750 ] final -160.47 input  -60.55 | X-H torsion
[ 11005 11000 10999 10996 ] final   68.94 input  -57.11 | X-H torsion

> <Gold.Protein.ActiveResidues>
 VAL166  LYS551  ARG553  GLY616  TRP617  ASP618  TYR619  PRO620  LYS621  CYS622 
 ASP623  PHE694  ASN695  SER759  ASP760  ASP761  ALA762  ILE779  LEU786  VAL792 
 PHE793  MET794  SER795  GLU796  ALA797  LYS798  CYS799  TRP800  GLU811  SER814 

> <Gold.Protein.RotatedAtoms>
  151.5593  135.1066  159.9968 H   0  0  0  0  0  0  0  0  0  0  0  0  # atno 6907 bound_to 6896
  152.4454  133.7522  159.6711 H   0  0  0  0  0  0  0  0  0  0  0  0  # atno 6908 bound_to 6896
  150.8368  133.7932  159.3100 H   0  0  0  0  0  0  0  0  0  0  0  0  # atno 6909 bound_to 6896
  145.0567  140.8259  143.4177 H   0  0  0  0  0  0  0  0  0  0  0  0  # atno 7974 bound_to 7965
  156.0885  140.3260  155.7785 H   0  0  0  0  0  0  0  0  0  0  0  0  # atno 8008 bound_to 7997
  155.5035  140.0571  157.2952 H   0  0  0  0  0  0  0  0  0  0  0  0  # atno 8009 bound_to 7997
  154.4623  140.1973  156.0226 H   0  0  0  0  0  0  0  0  0  0  0  0  # atno 8010 bound_to 7997
  140.6688  143.2700  151.4206 H   0  0  0  0  0  0  0  0  0  0  0  0  # atno 10167 bound_to 10162
  156.0357  130.5577  150.7577 H   0  0  0  0  0  0  0  0  0  0  0  0  # atno 10718 bound_to 10713
  154.7387  135.3063  154.8766 H   0  0  0  0  0  0  0  0  0  0  0  0  # atno 10763 bound_to 10752
  153.9587  135.6755  153.4749 H   0  0  0  0  0  0  0  0  0  0  0  0  # atno 10764 bound_to 10752
  153.0988  135.4922  154.8752 H   0  0  0  0  0  0  0  0  0  0  0  0  # atno 10765 bound_to 10752
  139.9682  134.6945  156.0501 H   0  0  0  0  0  0  0  0  0  0  0  0  # atno 11005 bound_to 11000
  145.1459  139.2543  143.5466 LP  0  0  0  0  0  0  0  0  0  0  0  0  # atno 17320 bound_to 7965
  146.3522  140.1149  142.8602 LP  0  0  0  0  0  0  0  0  0  0  0  0  # atno 17321 bound_to 7965
  139.5947  144.1423  152.2130 LP  0  0  0  0  0  0  0  0  0  0  0  0  # atno 17342 bound_to 10162
  140.0788  144.5718  150.7137 LP  0  0  0  0  0  0  0  0  0  0  0  0  # atno 17343 bound_to 10162
  157.5105  131.0925  151.0204 LP  0  0  0  0  0  0  0  0  0  0  0  0  # atno 17370 bound_to 10713
  157.0561  130.5807  149.5378 LP  0  0  0  0  0  0  0  0  0  0  0  0  # atno 17371 bound_to 10713
  141.1362  133.6574  156.3600 LP  0  0  0  0  0  0  0  0  0  0  0  0  # atno 17394 bound_to 11000
  140.5350  134.6176  157.5362 LP  0  0  0  0  0  0  0  0  0  0  0  0  # atno 17395 bound_to 11000

$$$$
