AV-unprocessed.smi:3095|AV-procd|sdf|11793|dock7
  -GOLD-   2272017173D 1   1.00000     0.00000
 Structure written by MMmdl.
 25 26  0  0  0  0  0  0  0  0  2 V2000
  152.2523  144.9562  159.0042 C   0  0  0  0  0  0  0  0  0  0  0  0
  152.3136  143.4628  159.0782 C   0  0  0  0  0  0  0  0  0  0  0  0
  152.7494  142.7071  160.1375 C   0  0  0  0  0  0  0  0  0  0  0  0
  152.6502  141.0006  159.8020 S   0  0  0  0  0  0  0  0  0  0  0  0
  152.0262  141.3809  158.2008 C   0  0  0  0  0  0  0  0  0  0  0  0
  151.6269  140.3281  157.2163 C   0  0  1  0  0  0  0  0  0  0  0  0
  151.0953  140.9237  155.8989 C   0  0  0  0  0  0  0  0  0  0  0  0
  150.7952  139.8402  154.9427 N   0  3  0  0  0  0  0  0  0  0  0  0
  151.9650  138.9645  154.7311 C   0  0  0  0  0  0  0  0  0  0  0  0
  152.4853  138.4377  156.0805 C   0  0  0  0  0  0  0  0  0  0  0  0
  152.7776  139.5307  156.9451 O   0  0  0  0  0  0  0  0  0  0  0  0
  151.8949  142.6945  157.9881 N   0  0  0  0  0  0  0  0  0  0  0  0
  152.5780  145.4156  159.9378 H   0  0  0  0  0  0  0  0  0  0  0  0
  151.2372  145.3003  158.8052 H   0  0  0  0  0  0  0  0  0  0  0  0
  152.8934  145.3378  158.2093 H   0  0  0  0  0  0  0  0  0  0  0  0
  153.1192  143.0499  161.0928 H   0  0  0  0  0  0  0  0  0  0  0  0
  150.8606  139.7057  157.6818 H   0  0  0  0  0  0  0  0  0  0  0  0
  150.1920  141.5081  156.0759 H   0  0  0  0  0  0  0  0  0  0  0  0
  151.8333  141.5953  155.4575 H   0  0  0  0  0  0  0  0  0  0  0  0
  150.0379  139.2835  155.3129 H   0  0  0  0  0  0  0  0  0  0  0  0
  151.6845  138.1376  154.0783 H   0  0  0  0  0  0  0  0  0  0  0  0
  152.7469  139.5280  154.2202 H   0  0  0  0  0  0  0  0  0  0  0  0
  151.7541  137.7765  156.5485 H   0  0  0  0  0  0  0  0  0  0  0  0
  153.3931  137.8530  155.9307 H   0  0  0  0  0  0  0  0  0  0  0  0
  150.5092  140.2394  154.0599 H   0  0  0  0  0  0  0  0  0  0  0  0
  1  2  1  0  0  0  0
  1 13  1  0  0  0  0
  1 14  1  0  0  0  0
  1 15  1  0  0  0  0
  2 12  1  0  0  0  0
  2  3  2  0  0  0  0
  3  4  1  0  0  0  0
  3 16  1  0  0  0  0
  4  5  1  0  0  0  0
  5  6  1  0  0  0  0
  5 12  2  0  0  0  0
  6 11  1  0  0  0  0
  6  7  1  0  0  0  0
  6 17  1  0  0  0  0
  7  8  1  0  0  0  0
  7 18  1  0  0  0  0
  7 19  1  0  0  0  0
  8  9  1  0  0  0  0
  8 20  1  0  0  0  0
  8 25  1  0  0  0  0
  9 10  1  0  0  0  0
  9 21  1  0  0  0  0
  9 22  1  0  0  0  0
 10 11  1  0  0  0  0
 10 23  1  0  0  0  0
 10 24  1  0  0  0  0
M  CHG  1   8   1
M  END
> <s_m_source_file>
AV-unprocessed.smi

> <i_m_source_file_index>
3095

> <i_lp_mmshare_version>
43012

> <i_f3d_flags>
0

> <s_epik_input>
W0NIM11jMVtjSF1zYyhuMSlbQ0BASF0yW0NIMl1bTkhdW0NIMl1bQ0gyXU8y

> <s_epik_cmdline>
J2VwaWtfcHl0aG9uJywgJy1waCcsICc3LjAnLCAnLXRuJywgJzgnLCAnLW1hJywgJzIwMCcsICctbWV0YWxfYmluZGluZycsICctaW1hZScsICc8aW5maWxlLm1hZT4nLCAnLW9tYWUnLCAnPG91dGZpbGUubWFlPic=

> <r_epik_Ionization_Penalty>
0.125709

> <r_epik_Ionization_Penalty_Charging>
0.125708

> <r_epik_Ionization_Penalty_Neutral>
7.00244e-07

> <r_epik_State_Penalty>
0.0155371

> <r_epik_Charging_Adjusted_Penalty>
0.141245

> <i_epik_Tot_Q>
1

> <i_epik_Tot_abs_Q>
1

> <r_epik_Metal_State_Penalty>
0.0155948

> <b_epik_Metal_Only>
0

> <s_lp_Force_Field>
OPLS_2005

> <r_lp_Energy>
6.74863

> <b_lp_Chiralities_Consistent>
1

> <s_lp_Variant>
AV-unprocessed.smi:3095-2

> <Gold.Version>
5.8.1

> <Gold.Id.Protein>
6NUR|6NUR_protein|mol2

> <Gold.PLP.Fitness>
32.2212

> <Gold.PLP.PLP>
-29.2257

> <Gold.PLP.part.hbond>
-1.0000

> <Gold.PLP.part.metal>
0.0000

> <Gold.PLP.part.buried>
-2.7079

> <Gold.PLP.part.nonpolar>
-25.4457

> <Gold.PLP.part.repulsive>
0.4250

> <Gold.PLP.ligand.clash>
0.0000

> <Gold.PLP.ligand.torsion>
0.0072

> <Gold.PLP.Chemscore.Hbond>
1.0000

> <Gold.PLP.Chemscore.CHOScore>
0.0000

> <Gold.PLP.Chemscore.Metal>
0.0000

> <Gold.Chemscore.Hbonds>
donor molecule, donor type, donor heavy atom, donor atom, acceptor molecule, acceptor atom, score
      P1  H  7997  8008       L1    11  1.00

> <Gold.PLP.Chemscore.Internal.Correction>
0.0100

> <Gold.Rescore>
     Score         DG    S(hbond)    S(metal)    S(lipo)     H(rot)  DE(clash)    DE(int)     intcor
     15.71     -15.74       0.99        0.00      81.30       1.00       0.01       0.01       ----

> <Gold.Chemscore.Fitness>
15.7122

> <Gold.Chemscore.DG>
-15.7404

> <Gold.Chemscore.ZeroCoef>
-5.4800

> <Gold.Chemscore.Hbond>
0.9906

> <Gold.Chemscore.Metal>
0.0000

> <Gold.Chemscore.Lipo>
81.2978

> <Gold.Chemscore.Internal_Hbond>
0.0000

> <Gold.Chemscore.DEClash>
0.0147

> <Gold.Chemscore.DEInternal>
0.0135

> <Gold.Chemscore.Rot>
1.0000

> <Gold.Chemscore.Internal.Correction>
   9.000000E+99

> <Gold.Chemscore.Hbonds>
donor molecule, donor type, donor heavy atom, donor atom, acceptor molecule, acceptor atom, score
      P1  H  7997  8008       L1    11  0.44

> <Gold.Chemscore.Hbond.Weighted>
-3.3086

> <Gold.Chemscore.Metal.Weighted>
-0.0000

> <Gold.Chemscore.Lipo.Weighted>
-9.5118

> <Gold.Chemscore.Internal_Hbond.Weighted>
0.0000

> <Gold.Chemscore.DEClash.Weighted>
0.0147

> <Gold.Chemscore.DEInternal.Weighted>
0.0135

> <Gold.Chemscore.Rot.Weighted>
2.5600

> <Gold.Chemscore.Internal.Correction.Weighted>
   9.000000E+99

> <Gold.Protein.RotatedTorsions>
[ 6907 6896 6895 6894 ] final    6.97 input  -60.11 | X-H torsion
[ 7974 7965 7964 7962 ] final  -90.15 input  175.53 | X-H torsion
[ 8008 7997 7996 7995 ] final  -42.18 input   59.86 | X-H torsion
[ 10167 10162 10161 10158 ] final   -3.83 input  -65.29 | X-H torsion
[ 10718 10713 10712 10709 ] final  119.35 input   66.30 | X-H torsion
[ 10763 10752 10751 10750 ] final  -28.74 input  -60.55 | X-H torsion
[ 11005 11000 10999 10996 ] final  -84.25 input  -57.11 | X-H torsion

> <Gold.Protein.ActiveResidues>
 VAL166  LYS551  ARG553  GLY616  TRP617  ASP618  TYR619  PRO620  LYS621  CYS622 
 ASP623  PHE694  ASN695  SER759  ASP760  ASP761  ALA762  ILE779  LEU786  VAL792 
 PHE793  MET794  SER795  GLU796  ALA797  LYS798  CYS799  TRP800  GLU811  SER814 

> <Gold.Protein.RotatedAtoms>
  151.6823  135.0960  160.0218 H   0  0  0  0  0  0  0  0  0  0  0  0  # atno 6907 bound_to 6896
  152.3828  133.6565  159.6183 H   0  0  0  0  0  0  0  0  0  0  0  0  # atno 6908 bound_to 6896
  150.7761  133.9002  159.3380 H   0  0  0  0  0  0  0  0  0  0  0  0  # atno 6909 bound_to 6896
  145.4304  140.9555  143.2131 H   0  0  0  0  0  0  0  0  0  0  0  0  # atno 7974 bound_to 7965
  154.4000  140.1480  156.3312 H   0  0  0  0  0  0  0  0  0  0  0  0  # atno 8008 bound_to 7997
  155.8441  140.3460  155.5630 H   0  0  0  0  0  0  0  0  0  0  0  0  # atno 8009 bound_to 7997
  155.8055  140.0876  157.1924 H   0  0  0  0  0  0  0  0  0  0  0  0  # atno 8010 bound_to 7997
  140.6905  143.6494  150.8364 H   0  0  0  0  0  0  0  0  0  0  0  0  # atno 10167 bound_to 10162
  157.5967  131.1057  150.7884 H   0  0  0  0  0  0  0  0  0  0  0  0  # atno 10718 bound_to 10713
  153.7532  135.6924  153.4941 H   0  0  0  0  0  0  0  0  0  0  0  0  # atno 10763 bound_to 10752
  153.1989  135.4444  155.0240 H   0  0  0  0  0  0  0  0  0  0  0  0  # atno 10764 bound_to 10752
  154.8180  135.3408  154.7052 H   0  0  0  0  0  0  0  0  0  0  0  0  # atno 10765 bound_to 10752
  141.1652  133.7336  156.8840 H   0  0  0  0  0  0  0  0  0  0  0  0  # atno 11005 bound_to 11000
  144.8187  139.5831  143.6997 LP  0  0  0  0  0  0  0  0  0  0  0  0  # atno 17320 bound_to 7965
  146.2610  139.6411  142.9362 LP  0  0  0  0  0  0  0  0  0  0  0  0  # atno 17321 bound_to 7965
  140.0206  143.5546  152.2802 LP  0  0  0  0  0  0  0  0  0  0  0  0  # atno 17342 bound_to 10162
  139.6303  144.7643  151.2550 LP  0  0  0  0  0  0  0  0  0  0  0  0  # atno 17343 bound_to 10162
  156.8293  130.5010  149.5333 LP  0  0  0  0  0  0  0  0  0  0  0  0  # atno 17370 bound_to 10713
  156.1032  130.5984  150.9927 LP  0  0  0  0  0  0  0  0  0  0  0  0  # atno 17371 bound_to 10713
  140.1695  134.9110  157.2816 LP  0  0  0  0  0  0  0  0  0  0  0  0  # atno 17394 bound_to 11000
  140.2518  134.3674  155.7439 LP  0  0  0  0  0  0  0  0  0  0  0  0  # atno 17395 bound_to 11000

$$$$
