AV-unprocessed.smi:3272|AV-procd|sdf|12519|dock3
  -GOLD-   2272018433D 1   1.00000     0.00000
 Structure written by MMmdl.
 35 36  0  0  0  0  0  0  0  0  1 V2000
  143.9538  132.7822  148.6612 C   0  0  0  0  0  0  0  0  0  0  0  0
  143.5255  132.5913  150.1209 C   0  0  0  0  0  0  0  0  0  0  0  0
  144.0837  133.6151  150.9825 N   0  0  0  0  0  0  0  0  0  0  0  0
  145.2010  134.3966  150.7652 C   0  0  0  0  0  0  0  0  0  0  0  0
  145.3054  135.2045  151.8619 C   0  0  0  0  0  0  0  0  0  0  0  0
  146.2710  136.2000  152.1571 N   0  0  0  0  0  0  0  0  0  0  0  0
  146.0626  137.3859  152.7521 C   0  0  0  0  0  0  0  0  0  0  0  0
  144.9716  137.7951  153.1498 O   0  0  0  0  0  0  0  0  0  0  0  0
  147.2013  138.0861  152.8560 N   0  0  0  0  0  0  0  0  0  0  0  0
  147.3223  139.4229  153.4300 C   0  0  0  0  0  0  0  0  0  0  0  0
  148.4518  139.4974  154.4747 C   0  0  1  0  0  0  0  0  0  0  0  0
  149.6273  138.5714  154.2258 C   0  0  0  0  0  0  0  0  0  0  0  0
  150.7182  139.2057  155.0832 C   0  0  0  0  0  0  0  0  0  0  0  0
  150.4335  140.6016  155.1086 O   0  0  0  0  0  0  0  0  0  0  0  0
  149.1588  140.8513  154.5238 C   0  0  0  0  0  0  0  0  0  0  0  0
  144.2157  134.8587  152.7027 C   0  0  0  0  0  0  0  0  0  0  0  0
  143.4819  133.8967  152.1646 N   0  0  0  0  0  0  0  0  0  0  0  0
  143.5360  131.9986  148.0292 H   0  0  0  0  0  0  0  0  0  0  0  0
  145.0392  132.7471  148.5620 H   0  0  0  0  0  0  0  0  0  0  0  0
  143.6118  133.7414  148.2708 H   0  0  0  0  0  0  0  0  0  0  0  0
  142.4383  132.6146  150.2047 H   0  0  0  0  0  0  0  0  0  0  0  0
  143.8506  131.6156  150.4836 H   0  0  0  0  0  0  0  0  0  0  0  0
  145.7995  134.3058  149.8709 H   0  0  0  0  0  0  0  0  0  0  0  0
  147.2177  135.9914  151.8752 H   0  0  0  0  0  0  0  0  0  0  0  0
  148.0491  137.6671  152.5023 H   0  0  0  0  0  0  0  0  0  0  0  0
  147.4693  140.1708  152.6487 H   0  0  0  0  0  0  0  0  0  0  0  0
  146.3720  139.6656  153.9060 H   0  0  0  0  0  0  0  0  0  0  0  0
  148.0440  139.2846  155.4645 H   0  0  0  0  0  0  0  0  0  0  0  0
  149.4256  137.5351  154.4984 H   0  0  0  0  0  0  0  0  0  0  0  0
  149.9164  138.5978  153.1741 H   0  0  0  0  0  0  0  0  0  0  0  0
  150.6691  138.8248  156.1040 H   0  0  0  0  0  0  0  0  0  0  0  0
  151.7181  139.0084  154.6961 H   0  0  0  0  0  0  0  0  0  0  0  0
  149.3144  141.2429  153.5175 H   0  0  0  0  0  0  0  0  0  0  0  0
  148.5996  141.5947  155.0923 H   0  0  0  0  0  0  0  0  0  0  0  0
  143.9383  135.2638  153.6648 H   0  0  0  0  0  0  0  0  0  0  0  0
  1  2  1  0  0  0  0
  1 18  1  0  0  0  0
  1 19  1  0  0  0  0
  1 20  1  0  0  0  0
  2  3  1  0  0  0  0
  2 21  1  0  0  0  0
  2 22  1  0  0  0  0
  3 17  1  0  0  0  0
  3  4  1  0  0  0  0
  4  5  2  0  0  0  0
  4 23  1  0  0  0  0
  5  6  1  0  0  0  0
  5 16  1  0  0  0  0
  6  7  1  0  0  0  0
  6 24  1  0  0  0  0
  7  8  2  0  0  0  0
  7  9  1  0  0  0  0
  9 10  1  0  0  0  0
  9 25  1  0  0  0  0
 10 11  1  0  0  0  0
 10 26  1  0  0  0  0
 10 27  1  0  0  0  0
 11 15  1  0  0  0  0
 11 12  1  0  0  0  0
 11 28  1  0  0  0  0
 12 13  1  0  0  0  0
 12 29  1  0  0  0  0
 12 30  1  0  0  0  0
 13 14  1  0  0  0  0
 13 31  1  0  0  0  0
 13 32  1  0  0  0  0
 14 15  1  0  0  0  0
 15 33  1  0  0  0  0
 15 34  1  0  0  0  0
 16 17  2  0  0  0  0
 16 35  1  0  0  0  0
M  END
> <s_m_source_file>
AV-unprocessed.smi

> <i_m_source_file_index>
3272

> <i_lp_mmshare_version>
43012

> <i_f3d_flags>
0

> <s_epik_input>
W0NIM11bQ0gyXW4xW2NIXWMoW2NIXW4xKVtOSF1DKD1PKVtOSF1bQ0gyXVtDQEBIXTJbQ0gyXVtDSDJdT1tDSDJdMg==

> <s_epik_cmdline>
J2VwaWtfcHl0aG9uJywgJy1waCcsICc3LjAnLCAnLXRuJywgJzgnLCAnLW1hJywgJzIwMCcsICctbWV0YWxfYmluZGluZycsICctaW1hZScsICc8aW5maWxlLm1hZT4nLCAnLW9tYWUnLCAnPG91dGZpbGUubWFlPic=

> <r_lp_tautomer_probability>
1

> <r_epik_Ionization_Penalty>
0.000182896

> <r_epik_Ionization_Penalty_Charging>
0

> <r_epik_Ionization_Penalty_Neutral>
0.000182896

> <r_epik_State_Penalty>
-0

> <r_epik_Charging_Adjusted_Penalty>
0

> <i_epik_Tot_Q>
0

> <i_epik_Tot_abs_Q>
0

> <r_epik_Metal_State_Penalty>
-0

> <b_epik_Metal_Only>
0

> <s_lp_Force_Field>
OPLS_2005

> <r_lp_Energy>
22.1585

> <b_lp_Chiralities_Consistent>
1

> <s_lp_Variant>
AV-unprocessed.smi:3272-2

> <Gold.Version>
5.8.1

> <Gold.Id.Protein>
6NUR|6NUR_protein|mol2

> <Gold.PLP.Fitness>
40.4917

> <Gold.PLP.PLP>
-31.7010

> <Gold.PLP.part.hbond>
-3.0000

> <Gold.PLP.part.metal>
0.0000

> <Gold.PLP.part.buried>
-2.9786

> <Gold.PLP.part.nonpolar>
-26.7007

> <Gold.PLP.part.repulsive>
1.1012

> <Gold.PLP.ligand.clash>
0.0000

> <Gold.PLP.ligand.torsion>
1.0479

> <Gold.PLP.Chemscore.Hbond>
2.6240

> <Gold.PLP.Chemscore.CHOScore>
1.0000

> <Gold.PLP.Chemscore.Metal>
0.0000

> <Gold.Chemscore.Hbonds>
donor molecule, donor type, donor heavy atom, donor atom, acceptor molecule, acceptor atom, score
      L1  H     6    24       P1  7948  1.00
      L1  H     9    25       P1  7948  1.00
      P1  H  7989  7998       L1    14  0.52
      L1  C     4    23       P1  7921  1.00

> <Gold.PLP.Chemscore.Internal.Correction>
0.0146

> <Gold.Rescore>
     Score         DG    S(hbond)    S(metal)    S(lipo)     H(rot)  DE(clash)    DE(int)     intcor
     15.86     -16.76       1.94        0.00      71.69       1.41       0.22       0.68       ----

> <Gold.Chemscore.Fitness>
15.8623

> <Gold.Chemscore.DG>
-16.7625

> <Gold.Chemscore.ZeroCoef>
-5.4800

> <Gold.Chemscore.Hbond>
1.9447

> <Gold.Chemscore.Metal>
0.0000

> <Gold.Chemscore.Lipo>
71.6904

> <Gold.Chemscore.Internal_Hbond>
0.0000

> <Gold.Chemscore.DEClash>
0.2206

> <Gold.Chemscore.DEInternal>
0.6796

> <Gold.Chemscore.Rot>
1.4064

> <Gold.Chemscore.Internal.Correction>
   9.000000E+99

> <Gold.Chemscore.Hbonds>
donor molecule, donor type, donor heavy atom, donor atom, acceptor molecule, acceptor atom, score
      L1  H     6    24       P1  7948  0.99
      L1  H     9    25       P1  7948  0.96
      P1  H  7989  7998       L1    14  0.01

> <Gold.Chemscore.Hbond.Weighted>
-6.4952

> <Gold.Chemscore.Metal.Weighted>
-0.0000

> <Gold.Chemscore.Lipo.Weighted>
-8.3878

> <Gold.Chemscore.Internal_Hbond.Weighted>
0.0000

> <Gold.Chemscore.DEClash.Weighted>
0.2206

> <Gold.Chemscore.DEInternal.Weighted>
0.6796

> <Gold.Chemscore.Rot.Weighted>
3.6004

> <Gold.Chemscore.Internal.Correction.Weighted>
   9.000000E+99

> <Gold.Protein.RotatedTorsions>
[ 6907 6896 6895 6894 ] final  103.54 input  -60.11 | X-H torsion
[ 7974 7965 7964 7962 ] final   73.84 input  175.53 | X-H torsion
[ 8008 7997 7996 7995 ] final  137.45 input   59.86 | X-H torsion
[ 10167 10162 10161 10158 ] final  159.13 input  -65.29 | X-H torsion
[ 10718 10713 10712 10709 ] final   30.66 input   66.30 | X-H torsion
[ 10763 10752 10751 10750 ] final  152.49 input  -60.55 | X-H torsion
[ 11005 11000 10999 10996 ] final -100.16 input  -57.11 | X-H torsion

> <Gold.Protein.ActiveResidues>
 VAL166  LYS551  ARG553  GLY616  TRP617  ASP618  TYR619  PRO620  LYS621  CYS622 
 ASP623  PHE694  ASN695  SER759  ASP760  ASP761  ALA762  ILE779  LEU786  VAL792 
 PHE793  MET794  SER795  GLU796  ALA797  LYS798  CYS799  TRP800  GLU811  SER814 

> <Gold.Protein.RotatedAtoms>
  152.5292  133.9810  159.7806 H   0  0  0  0  0  0  0  0  0  0  0  0  # atno 6907 bound_to 6896
  151.0064  133.5999  159.2695 H   0  0  0  0  0  0  0  0  0  0  0  0  # atno 6908 bound_to 6896
  151.3090  135.0795  159.9319 H   0  0  0  0  0  0  0  0  0  0  0  0  # atno 6909 bound_to 6896
  145.7357  139.2701  143.1515 H   0  0  0  0  0  0  0  0  0  0  0  0  # atno 7974 bound_to 7965
  156.3002  140.2419  156.3912 H   0  0  0  0  0  0  0  0  0  0  0  0  # atno 8008 bound_to 7997
  154.8612  140.0420  157.1686 H   0  0  0  0  0  0  0  0  0  0  0  0  # atno 8009 bound_to 7997
  154.8894  140.2961  155.5383 H   0  0  0  0  0  0  0  0  0  0  0  0  # atno 8010 bound_to 7997
  139.4830  144.4759  151.8512 H   0  0  0  0  0  0  0  0  0  0  0  0  # atno 10167 bound_to 10162
  157.2625  130.7168  149.6461 H   0  0  0  0  0  0  0  0  0  0  0  0  # atno 10718 bound_to 10713
  154.1209  135.2833  155.3209 H   0  0  0  0  0  0  0  0  0  0  0  0  # atno 10763 bound_to 10752
  154.6424  135.5398  153.7808 H   0  0  0  0  0  0  0  0  0  0  0  0  # atno 10764 bound_to 10752
  153.0313  135.6489  154.1363 H   0  0  0  0  0  0  0  0  0  0  0  0  # atno 10765 bound_to 10752
  141.1281  133.8377  157.1066 H   0  0  0  0  0  0  0  0  0  0  0  0  # atno 11005 bound_to 11000
  146.0495  140.8084  142.9788 LP  0  0  0  0  0  0  0  0  0  0  0  0  # atno 17320 bound_to 7965
  144.6882  140.3031  143.7260 LP  0  0  0  0  0  0  0  0  0  0  0  0  # atno 17321 bound_to 7965
  140.4231  144.2217  150.5887 LP  0  0  0  0  0  0  0  0  0  0  0  0  # atno 17342 bound_to 10162
  140.4854  143.2365  151.8895 LP  0  0  0  0  0  0  0  0  0  0  0  0  # atno 17343 bound_to 10162
  155.9664  130.4393  150.5253 LP  0  0  0  0  0  0  0  0  0  0  0  0  # atno 17370 bound_to 10713
  157.3160  131.0673  151.1966 LP  0  0  0  0  0  0  0  0  0  0  0  0  # atno 17371 bound_to 10713
  140.0301  134.9905  157.0763 LP  0  0  0  0  0  0  0  0  0  0  0  0  # atno 17394 bound_to 11000
  140.4300  134.1791  155.7167 LP  0  0  0  0  0  0  0  0  0  0  0  0  # atno 17395 bound_to 11000

$$$$
