AV-unprocessed.smi:462|AV-procd|sdf|2633|dock9
  -GOLD-   2262023 43D 1   1.00000     0.00000
 Structure written by MMmdl.
 47 49  0  0  0  0  0  0  0  0  2 V2000
  155.0494  141.0589  160.1044 C   0  0  0  0  0  0  0  0  0  0  0  0
  154.0820  141.2893  159.0916 O   0  0  0  0  0  0  0  0  0  0  0  0
  153.1521  142.2898  159.2890 C   0  0  0  0  0  0  0  0  0  0  0  0
  153.0008  142.9947  160.5099 C   0  0  0  0  0  0  0  0  0  0  0  0
  152.0315  144.0067  160.6338 C   0  0  0  0  0  0  0  0  0  0  0  0
  151.2034  144.3247  159.5438 C   0  0  0  0  0  0  0  0  0  0  0  0
  151.3449  143.6319  158.3277 C   0  0  0  0  0  0  0  0  0  0  0  0
  152.3201  142.6128  158.1928 C   0  0  0  0  0  0  0  0  0  0  0  0
  152.5174  141.8927  157.0355 O   0  0  0  0  0  0  0  0  0  0  0  0
  151.5950  142.0411  155.9662 C   0  0  0  0  0  0  0  0  0  0  0  0
  150.8395  140.7167  155.7648 C   0  0  0  0  0  0  0  0  0  0  0  0
  150.2907  140.5807  154.4027 N   0  0  0  0  0  0  0  0  0  0  0  0
  150.8594  140.1157  153.2454 C   0  0  0  0  0  0  0  0  0  0  0  0
  152.2800  139.6546  153.0286 C   0  0  0  0  0  0  0  0  0  0  0  0
  153.2676  140.8351  153.1115 C   0  0  0  0  0  0  0  0  0  0  0  0
  152.6406  138.5783  154.0666 C   0  0  0  0  0  0  0  0  0  0  0  0
  152.4653  139.0917  151.7457 O   0  0  0  0  0  0  0  0  0  0  0  0
  149.9050  140.2135  152.2735 N   0  3  0  0  0  0  0  0  0  0  0  0
  148.7208  140.7167  152.8077 C   0  0  0  0  0  0  0  0  0  0  0  0
  147.4892  140.9698  152.2117 C   0  0  0  0  0  0  0  0  0  0  0  0
  146.4777  141.4895  153.0454 C   0  0  0  0  0  0  0  0  0  0  0  0
  146.7127  141.7429  154.4119 C   0  0  0  0  0  0  0  0  0  0  0  0
  147.9679  141.4871  155.0014 C   0  0  0  0  0  0  0  0  0  0  0  0
  148.9617  140.9641  154.1727 C   0  0  0  0  0  0  0  0  0  0  0  0
  155.7138  140.2550  159.7878 H   0  0  0  0  0  0  0  0  0  0  0  0
  154.5819  140.7512  161.0405 H   0  0  0  0  0  0  0  0  0  0  0  0
  155.6628  141.9438  160.2785 H   0  0  0  0  0  0  0  0  0  0  0  0
  153.6176  142.7777  161.3684 H   0  0  0  0  0  0  0  0  0  0  0  0
  151.9234  144.5393  161.5673 H   0  0  0  0  0  0  0  0  0  0  0  0
  150.4584  145.1005  159.6401 H   0  0  0  0  0  0  0  0  0  0  0  0
  150.6907  143.8980  157.5115 H   0  0  0  0  0  0  0  0  0  0  0  0
  150.8866  142.8399  156.1890 H   0  0  0  0  0  0  0  0  0  0  0  0
  152.1223  142.3053  155.0488 H   0  0  0  0  0  0  0  0  0  0  0  0
  151.4871  139.8646  155.9722 H   0  0  0  0  0  0  0  0  0  0  0  0
  150.0160  140.6452  156.4739 H   0  0  0  0  0  0  0  0  0  0  0  0
  153.2468  141.3089  154.0935 H   0  0  0  0  0  0  0  0  0  0  0  0
  153.0370  141.5998  152.3684 H   0  0  0  0  0  0  0  0  0  0  0  0
  154.2932  140.5075  152.9364 H   0  0  0  0  0  0  0  0  0  0  0  0
  152.5495  138.9659  155.0818 H   0  0  0  0  0  0  0  0  0  0  0  0
  153.6665  138.2307  153.9400 H   0  0  0  0  0  0  0  0  0  0  0  0
  151.9888  137.7078  153.9904 H   0  0  0  0  0  0  0  0  0  0  0  0
  152.0296  139.6391  151.1104 H   0  0  0  0  0  0  0  0  0  0  0  0
  147.3078  140.7775  151.1645 H   0  0  0  0  0  0  0  0  0  0  0  0
  145.5030  141.6979  152.6289 H   0  0  0  0  0  0  0  0  0  0  0  0
  145.9145  142.1393  155.0223 H   0  0  0  0  0  0  0  0  0  0  0  0
  148.1319  141.6785  156.0514 H   0  0  0  0  0  0  0  0  0  0  0  0
  150.0583  139.9461  151.3101 H   0  0  0  0  0  0  0  0  0  0  0  0
  1  2  1  0  0  0  0
  1 25  1  0  0  0  0
  1 26  1  0  0  0  0
  1 27  1  0  0  0  0
  2  3  1  0  0  0  0
  3  8  1  0  0  0  0
  3  4  2  0  0  0  0
  4  5  1  0  0  0  0
  4 28  1  0  0  0  0
  5  6  2  0  0  0  0
  5 29  1  0  0  0  0
  6  7  1  0  0  0  0
  6 30  1  0  0  0  0
  7  8  2  0  0  0  0
  7 31  1  0  0  0  0
  8  9  1  0  0  0  0
  9 10  1  0  0  0  0
 10 11  1  0  0  0  0
 10 32  1  0  0  0  0
 10 33  1  0  0  0  0
 11 12  1  0  0  0  0
 11 34  1  0  0  0  0
 11 35  1  0  0  0  0
 12 24  1  0  0  0  0
 12 13  1  0  0  0  0
 13 14  1  0  0  0  0
 13 18  2  0  0  0  0
 14 15  1  0  0  0  0
 14 16  1  0  0  0  0
 14 17  1  0  0  0  0
 15 36  1  0  0  0  0
 15 37  1  0  0  0  0
 15 38  1  0  0  0  0
 16 39  1  0  0  0  0
 16 40  1  0  0  0  0
 16 41  1  0  0  0  0
 17 42  1  0  0  0  0
 18 19  1  0  0  0  0
 18 47  1  0  0  0  0
 19 24  2  0  0  0  0
 19 20  1  0  0  0  0
 20 21  2  0  0  0  0
 20 43  1  0  0  0  0
 21 22  1  0  0  0  0
 21 44  1  0  0  0  0
 22 23  2  0  0  0  0
 22 45  1  0  0  0  0
 23 24  1  0  0  0  0
 23 46  1  0  0  0  0
M  CHG  1  18   1
M  END
> <s_m_source_file>
AV-unprocessed.smi

> <i_m_source_file_index>
462

> <i_lp_mmshare_version>
43012

> <i_f3d_flags>
0

> <s_epik_input>
W0NIM11PYzFbY0hdW2NIXVtjSF1bY0hdYzFPW0NIMl1bQ0gyXW4oYyhuMilDKFtDSDNdKShbQ0gzXSlbT0hdKWMoYzIzKVtjSF1bY0hdW2NIXVtjSF0z

> <s_epik_cmdline>
J2VwaWtfcHl0aG9uJywgJy1waCcsICc3LjAnLCAnLXRuJywgJzgnLCAnLW1hJywgJzIwMCcsICctbWV0YWxfYmluZGluZycsICctaW1hZScsICc8aW5maWxlLm1hZT4nLCAnLW9tYWUnLCAnPG91dGZpbGUubWFlPic=

> <r_lp_tautomer_probability>
1

> <r_epik_Ionization_Penalty>
1.32796

> <r_epik_Ionization_Penalty_Charging>
1.32796

> <r_epik_Ionization_Penalty_Neutral>
1.51811e-06

> <r_epik_State_Penalty>
1.40413

> <r_epik_Charging_Adjusted_Penalty>
2.73209

> <i_epik_Tot_Q>
1

> <i_epik_Tot_abs_Q>
1

> <r_epik_Metal_State_Penalty>
5.43878

> <b_epik_Metal_Only>
0

> <s_lp_Force_Field>
OPLS_2005

> <r_lp_Energy>
22.2215

> <b_lp_Chiralities_Consistent>
1

> <s_lp_Variant>
AV-unprocessed.smi:462-2

> <Gold.Version>
5.8.1

> <Gold.Id.Protein>
6NUR|6NUR_protein|mol2

> <Gold.PLP.Fitness>
59.6524

> <Gold.PLP.PLP>
-51.0293

> <Gold.PLP.part.hbond>
-4.0000

> <Gold.PLP.part.metal>
0.0000

> <Gold.PLP.part.buried>
1.4509

> <Gold.PLP.part.nonpolar>
-49.2022

> <Gold.PLP.part.repulsive>
0.0792

> <Gold.PLP.ligand.clash>
0.0000

> <Gold.PLP.ligand.torsion>
1.2448

> <Gold.PLP.Chemscore.Hbond>
3.6720

> <Gold.PLP.Chemscore.CHOScore>
0.0000

> <Gold.PLP.Chemscore.Metal>
0.0000

> <Gold.Chemscore.Hbonds>
donor molecule, donor type, donor heavy atom, donor atom, acceptor molecule, acceptor atom, score
      P1  H  7997  8009       L1     2  0.05

> <Gold.PLP.Chemscore.Internal.Correction>
0.0966

> <Gold.Rescore>
     Score         DG    S(hbond)    S(metal)    S(lipo)     H(rot)  DE(clash)    DE(int)     intcor
     19.60     -23.94       1.98        0.00     152.31       2.33       3.32       1.02       ----

> <Gold.Chemscore.Fitness>
19.6023

> <Gold.Chemscore.DG>
-23.9426

> <Gold.Chemscore.ZeroCoef>
-5.4800

> <Gold.Chemscore.Hbond>
1.9781

> <Gold.Chemscore.Metal>
0.0000

> <Gold.Chemscore.Lipo>
152.3095

> <Gold.Chemscore.Internal_Hbond>
0.0000

> <Gold.Chemscore.DEClash>
3.3172

> <Gold.Chemscore.DEInternal>
1.0232

> <Gold.Chemscore.Rot>
2.3298

> <Gold.Chemscore.Internal.Correction>
   9.000000E+99

> <Gold.Chemscore.Hbonds>
donor molecule, donor type, donor heavy atom, donor atom, acceptor molecule, acceptor atom, score
      P1  H  7997  8009       L1     2  0.01

> <Gold.Chemscore.Hbond.Weighted>
-6.6068

> <Gold.Chemscore.Metal.Weighted>
-0.0000

> <Gold.Chemscore.Lipo.Weighted>
-17.8202

> <Gold.Chemscore.Internal_Hbond.Weighted>
0.0000

> <Gold.Chemscore.DEClash.Weighted>
3.3172

> <Gold.Chemscore.DEInternal.Weighted>
1.0232

> <Gold.Chemscore.Rot.Weighted>
5.9643

> <Gold.Chemscore.Internal.Correction.Weighted>
   9.000000E+99

> <Gold.Protein.RotatedTorsions>
[ 6907 6896 6895 6894 ] final  152.93 input  -60.11 | X-H torsion
[ 7974 7965 7964 7962 ] final  179.60 input  175.53 | X-H torsion
[ 8008 7997 7996 7995 ] final  119.76 input   59.86 | X-H torsion
[ 10167 10162 10161 10158 ] final  -95.71 input  -65.29 | X-H torsion
[ 10718 10713 10712 10709 ] final -117.94 input   66.30 | X-H torsion
[ 10763 10752 10751 10750 ] final  -61.31 input  -60.55 | X-H torsion
[ 11005 11000 10999 10996 ] final -111.64 input  -57.11 | X-H torsion

> <Gold.Protein.ActiveResidues>
 VAL166  LYS551  ARG553  GLY616  TRP617  ASP618  TYR619  PRO620  LYS621  CYS622 
 ASP623  PHE694  ASN695  SER759  ASP760  ASP761  ALA762  ILE779  LEU786  VAL792 
 PHE793  MET794  SER795  GLU796  ALA797  LYS798  CYS799  TRP800  GLU811  SER814 

> <Gold.Protein.RotatedAtoms>
  152.0798  133.4147  159.4496 H   0  0  0  0  0  0  0  0  0  0  0  0  # atno 6907 bound_to 6896
  150.6862  134.2995  159.4709 H   0  0  0  0  0  0  0  0  0  0  0  0  # atno 6908 bound_to 6896
  152.0835  134.9454  160.0624 H   0  0  0  0  0  0  0  0  0  0  0  0  # atno 6909 bound_to 6896
  144.7144  140.0572  143.6433 H   0  0  0  0  0  0  0  0  0  0  0  0  # atno 7974 bound_to 7965
  156.2611  140.2846  156.1042 H   0  0  0  0  0  0  0  0  0  0  0  0  # atno 8008 bound_to 7997
  155.1326  140.0394  157.2796 H   0  0  0  0  0  0  0  0  0  0  0  0  # atno 8009 bound_to 7997
  154.6588  140.2561  155.7138 H   0  0  0  0  0  0  0  0  0  0  0  0  # atno 8010 bound_to 7997
  140.3013  143.3160  152.0245 H   0  0  0  0  0  0  0  0  0  0  0  0  # atno 10167 bound_to 10162
  156.1070  130.6218  150.9227 H   0  0  0  0  0  0  0  0  0  0  0  0  # atno 10718 bound_to 10713
  154.2827  135.6269  153.5353 H   0  0  0  0  0  0  0  0  0  0  0  0  # atno 10763 bound_to 10752
  152.9863  135.5636  154.5478 H   0  0  0  0  0  0  0  0  0  0  0  0  # atno 10764 bound_to 10752
  154.5072  135.2875  155.1348 H   0  0  0  0  0  0  0  0  0  0  0  0  # atno 10765 bound_to 10752
  141.0722  133.9360  157.2461 H   0  0  0  0  0  0  0  0  0  0  0  0  # atno 11005 bound_to 11000
  145.9894  139.3003  143.0994 LP  0  0  0  0  0  0  0  0  0  0  0  0  # atno 17320 bound_to 7965
  145.8920  140.9298  143.0547 LP  0  0  0  0  0  0  0  0  0  0  0  0  # atno 17321 bound_to 7965
  139.4914  144.6453  151.6791 LP  0  0  0  0  0  0  0  0  0  0  0  0  # atno 17342 bound_to 10162
  140.5648  144.0208  150.6187 LP  0  0  0  0  0  0  0  0  0  0  0  0  # atno 17343 bound_to 10162
  157.6247  131.0926  150.8555 LP  0  0  0  0  0  0  0  0  0  0  0  0  # atno 17370 bound_to 10713
  156.8673  130.5134  149.5299 LP  0  0  0  0  0  0  0  0  0  0  0  0  # atno 17371 bound_to 10713
  139.9535  135.0170  156.9063 LP  0  0  0  0  0  0  0  0  0  0  0  0  # atno 17394 bound_to 11000
  140.5648  134.0500  155.7411 LP  0  0  0  0  0  0  0  0  0  0  0  0  # atno 17395 bound_to 11000

$$$$
