AV-unprocessed.smi:2027|AV-procd|sdf|8213|dock6
  -GOLD-   2272010473D 1   1.00000     0.00000
 Structure written by MMmdl.
 50 52  0  0  0  0  0  0  0  0  2 V2000
  153.1341  142.8446  160.4795 C   0  0  0  0  0  0  0  0  0  0  0  0
  152.4480  142.2092  159.2829 C   0  0  0  0  0  0  0  0  0  0  0  0
  152.3601  140.8009  159.2095 C   0  0  0  0  0  0  0  0  0  0  0  0
  151.7288  140.1706  158.1152 C   0  0  0  0  0  0  0  0  0  0  0  0
  151.5339  138.8276  157.8415 N   0  0  0  0  0  0  0  0  0  0  0  0
  150.8864  138.8813  156.6816 C   0  0  0  0  0  0  0  0  0  0  0  0
  150.6421  140.1018  156.1673 N   0  0  0  0  0  0  0  0  0  0  0  0
  149.9596  140.4028  154.9213 C   0  0  0  0  0  0  0  0  0  0  0  0
  149.0807  139.2351  154.4344 C   0  0  2  0  0  0  0  0  0  0  0  0
  149.8968  138.2582  153.8168 O   0  0  0  0  0  0  0  0  0  0  0  0
  148.0224  139.7035  153.4158 C   0  0  0  0  0  0  0  0  0  0  0  0
  147.3137  138.5653  152.7766 N   0  3  2  0  0  0  0  0  0  0  0  0
  146.7155  138.9440  151.4744 C   0  0  0  0  0  0  0  0  0  0  0  0
  146.3402  137.9022  153.6827 C   0  0  0  0  0  0  0  0  0  0  0  0
  145.4526  136.9486  152.9299 C   0  0  0  0  0  0  0  0  0  0  0  0
  144.0435  137.0285  152.7369 C   0  0  0  0  0  0  0  0  0  0  0  0
  143.5651  136.0246  152.0208 N   0  0  0  0  0  0  0  0  0  0  0  0
  144.6448  135.2676  151.7384 N   0  0  0  0  0  0  0  0  0  0  0  0
  144.4850  134.0595  150.9576 C   0  0  0  0  0  0  0  0  0  0  0  0
  145.7973  135.7993  152.2756 C   0  0  0  0  0  0  0  0  0  0  0  0
  151.1824  140.9942  157.0877 C   0  0  0  0  0  0  0  0  0  0  0  0
  151.2643  142.3967  157.1489 C   0  0  0  0  0  0  0  0  0  0  0  0
  151.8988  143.0101  158.2494 C   0  0  0  0  0  0  0  0  0  0  0  0
  151.9820  144.5253  158.3066 C   0  0  0  0  0  0  0  0  0  0  0  0
  153.5249  142.0892  161.1617 H   0  0  0  0  0  0  0  0  0  0  0  0
  152.4319  143.4662  161.0356 H   0  0  0  0  0  0  0  0  0  0  0  0
  153.9691  143.4670  160.1574 H   0  0  0  0  0  0  0  0  0  0  0  0
  152.7784  140.1903  159.9963 H   0  0  0  0  0  0  0  0  0  0  0  0
  150.5740  137.9807  156.1732 H   0  0  0  0  0  0  0  0  0  0  0  0
  149.3488  141.2934  155.0760 H   0  0  0  0  0  0  0  0  0  0  0  0
  150.7041  140.6646  154.1682 H   0  0  0  0  0  0  0  0  0  0  0  0
  148.6024  138.7771  155.2999 H   0  0  0  0  0  0  0  0  0  0  0  0
  149.3999  137.8420  153.1279 H   0  0  0  0  0  0  0  0  0  0  0  0
  147.2914  140.3595  153.8910 H   0  0  0  0  0  0  0  0  0  0  0  0
  148.5211  140.3086  152.6565 H   0  0  0  0  0  0  0  0  0  0  0  0
  145.9369  139.6966  151.6055 H   0  0  0  0  0  0  0  0  0  0  0  0
  146.2762  138.0816  150.9731 H   0  0  0  0  0  0  0  0  0  0  0  0
  147.4742  139.3512  150.8054 H   0  0  0  0  0  0  0  0  0  0  0  0
  146.8701  137.3597  154.4648 H   0  0  0  0  0  0  0  0  0  0  0  0
  145.7567  138.6635  154.2024 H   0  0  0  0  0  0  0  0  0  0  0  0
  143.3590  137.7851  153.0914 H   0  0  0  0  0  0  0  0  0  0  0  0
  145.4578  133.6069  150.7652 H   0  0  0  0  0  0  0  0  0  0  0  0
  144.0094  134.2943  150.0050 H   0  0  0  0  0  0  0  0  0  0  0  0
  143.8650  133.3476  151.5028 H   0  0  0  0  0  0  0  0  0  0  0  0
  146.7578  135.3216  152.1484 H   0  0  0  0  0  0  0  0  0  0  0  0
  150.8431  142.9956  156.3551 H   0  0  0  0  0  0  0  0  0  0  0  0
  151.4874  144.9842  157.4499 H   0  0  0  0  0  0  0  0  0  0  0  0
  153.0224  144.8506  158.3060 H   0  0  0  0  0  0  0  0  0  0  0  0
  151.5015  144.9013  159.2101 H   0  0  0  0  0  0  0  0  0  0  0  0
  148.0301  137.8841  152.5680 H   0  0  0  0  0  0  0  0  0  0  0  0
  1  2  1  0  0  0  0
  1 25  1  0  0  0  0
  1 26  1  0  0  0  0
  1 27  1  0  0  0  0
  2 23  1  0  0  0  0
  2  3  2  0  0  0  0
  3  4  1  0  0  0  0
  3 28  1  0  0  0  0
  4 21  2  0  0  0  0
  4  5  1  0  0  0  0
  5  6  2  0  0  0  0
  6  7  1  0  0  0  0
  6 29  1  0  0  0  0
  7  8  1  0  0  0  0
  7 21  1  0  0  0  0
  8  9  1  0  0  0  0
  8 30  1  0  0  0  0
  8 31  1  0  0  0  0
  9 10  1  0  0  0  0
  9 11  1  0  0  0  0
  9 32  1  0  0  0  0
 10 33  1  0  0  0  0
 11 12  1  0  0  0  0
 11 34  1  0  0  0  0
 11 35  1  0  0  0  0
 12 13  1  0  0  0  0
 12 14  1  0  0  0  0
 12 50  1  0  0  0  0
 13 36  1  0  0  0  0
 13 37  1  0  0  0  0
 13 38  1  0  0  0  0
 14 15  1  0  0  0  0
 14 39  1  0  0  0  0
 14 40  1  0  0  0  0
 15 20  2  0  0  0  0
 15 16  1  0  0  0  0
 16 17  2  0  0  0  0
 16 41  1  0  0  0  0
 17 18  1  0  0  0  0
 18 19  1  0  0  0  0
 18 20  1  0  0  0  0
 19 42  1  0  0  0  0
 19 43  1  0  0  0  0
 19 44  1  0  0  0  0
 20 45  1  0  0  0  0
 21 22  1  0  0  0  0
 22 23  2  0  0  0  0
 22 46  1  0  0  0  0
 23 24  1  0  0  0  0
 24 47  1  0  0  0  0
 24 48  1  0  0  0  0
 24 49  1  0  0  0  0
M  CHG  1  12   1
M  END
> <s_m_source_file>
AV-unprocessed.smi

> <i_m_source_file_index>
2027

> <i_lp_mmshare_version>
43012

> <i_f3d_flags>
0

> <s_epik_input>
W0NIM11jKFtjSF0xKWMoW0NIM10pW2NIXWMoYzEyKW4oW2NIXW4yKVtDSDJdW0NASF0oW09IXSlbQ0gyXU4oW0NIM10pW0NIMl1jM1tjSF1ubihbQ0gzXSlbY0hdMw==

> <s_epik_cmdline>
J2VwaWtfcHl0aG9uJywgJy1waCcsICc3LjAnLCAnLXRuJywgJzgnLCAnLW1hJywgJzIwMCcsICctbWV0YWxfYmluZGluZycsICctaW1hZScsICc8aW5maWxlLm1hZT4nLCAnLW9tYWUnLCAnPG91dGZpbGUubWFlPic=

> <r_lp_tautomer_probability>
1

> <r_epik_Ionization_Penalty>
0.646578

> <r_epik_Ionization_Penalty_Charging>
0.559419

> <r_epik_Ionization_Penalty_Neutral>
0.087159

> <r_epik_State_Penalty>
0.661677

> <r_epik_Charging_Adjusted_Penalty>
1.2211

> <i_epik_Tot_Q>
1

> <i_epik_Tot_abs_Q>
1

> <r_epik_Metal_State_Penalty>
0.649174

> <b_epik_Metal_Only>
0

> <s_lp_Force_Field>
OPLS_2005

> <r_lp_Energy>
10.3354

> <b_lp_Chiralities_Consistent>
1

> <s_lp_Variant>
AV-unprocessed.smi:2027-5

> <Gold.Version>
5.8.1

> <Gold.Id.Protein>
6NUR|6NUR_protein|mol2

> <Gold.PLP.Fitness>
58.1967

> <Gold.PLP.PLP>
-45.1990

> <Gold.PLP.part.hbond>
-3.3912

> <Gold.PLP.part.metal>
0.0000

> <Gold.PLP.part.buried>
2.4146

> <Gold.PLP.part.nonpolar>
-43.5013

> <Gold.PLP.part.repulsive>
0.2694

> <Gold.PLP.ligand.clash>
0.0000

> <Gold.PLP.ligand.torsion>
0.8135

> <Gold.PLP.Chemscore.Hbond>
2.8938

> <Gold.PLP.Chemscore.CHOScore>
1.9240

> <Gold.PLP.Chemscore.Metal>
0.0000

> <Gold.Chemscore.Hbonds>
donor molecule, donor type, donor heavy atom, donor atom, acceptor molecule, acceptor atom, score
      L1  H    10    33       P1  7948  0.93
      L1  H    12    50       P1  7948  2.00
      L1  C    16    41       P1 10175  0.42
      L1  C    20    45       P1  7948  1.00

> <Gold.PLP.Chemscore.Internal.Correction>
0.1716

> <Gold.Rescore>
     Score         DG    S(hbond)    S(metal)    S(lipo)     H(rot)  DE(clash)    DE(int)     intcor
     18.15     -20.27       1.92        0.00     126.31       2.50       1.39       0.73       ----

> <Gold.Chemscore.Fitness>
18.1515

> <Gold.Chemscore.DG>
-20.2730

> <Gold.Chemscore.ZeroCoef>
-5.4800

> <Gold.Chemscore.Hbond>
1.9242

> <Gold.Chemscore.Metal>
0.0000

> <Gold.Chemscore.Lipo>
126.3100

> <Gold.Chemscore.Internal_Hbond>
0.0000

> <Gold.Chemscore.DEClash>
1.3929

> <Gold.Chemscore.DEInternal>
0.7286

> <Gold.Chemscore.Rot>
2.5047

> <Gold.Chemscore.Internal.Correction>
   9.000000E+99

> <Gold.Chemscore.Hbonds>
donor molecule, donor type, donor heavy atom, donor atom, acceptor molecule, acceptor atom, score
      L1  H    10    33       P1  7948  0.80
      L1  H    12    50       P1  7948  0.96

> <Gold.Chemscore.Hbond.Weighted>
-6.4268

> <Gold.Chemscore.Metal.Weighted>
-0.0000

> <Gold.Chemscore.Lipo.Weighted>
-14.7783

> <Gold.Chemscore.Internal_Hbond.Weighted>
0.0000

> <Gold.Chemscore.DEClash.Weighted>
1.3929

> <Gold.Chemscore.DEInternal.Weighted>
0.7286

> <Gold.Chemscore.Rot.Weighted>
6.4120

> <Gold.Chemscore.Internal.Correction.Weighted>
   9.000000E+99

> <Gold.Protein.RotatedTorsions>
[ 6907 6896 6895 6894 ] final -123.32 input  -60.11 | X-H torsion
[ 7974 7965 7964 7962 ] final  169.75 input  175.53 | X-H torsion
[ 8008 7997 7996 7995 ] final   12.29 input   59.86 | X-H torsion
[ 10167 10162 10161 10158 ] final  -17.15 input  -65.29 | X-H torsion
[ 10718 10713 10712 10709 ] final -165.62 input   66.30 | X-H torsion
[ 10763 10752 10751 10750 ] final  176.78 input  -60.55 | X-H torsion
[ 11005 11000 10999 10996 ] final  -33.01 input  -57.11 | X-H torsion

> <Gold.Protein.ActiveResidues>
 VAL166  LYS551  ARG553  GLY616  TRP617  ASP618  TYR619  PRO620  LYS621  CYS622 
 ASP623  PHE694  ASN695  SER759  ASP760  ASP761  ALA762  ILE779  LEU786  VAL792 
 PHE793  MET794  SER795  GLU796  ALA797  LYS798  CYS799  TRP800  GLU811  SER814 

> <Gold.Protein.RotatedAtoms>
  150.8659  133.7575  159.2976 H   0  0  0  0  0  0  0  0  0  0  0  0  # atno 6907 bound_to 6896
  151.5202  135.1065  159.9886 H   0  0  0  0  0  0  0  0  0  0  0  0  # atno 6908 bound_to 6896
  152.4660  133.7881  159.6942 H   0  0  0  0  0  0  0  0  0  0  0  0  # atno 6909 bound_to 6896
  144.7345  139.9100  143.6414 H   0  0  0  0  0  0  0  0  0  0  0  0  # atno 7974 bound_to 7965
  154.8186  140.2880  155.5803 H   0  0  0  0  0  0  0  0  0  0  0  0  # atno 8008 bound_to 7997
  156.2995  140.2554  156.3019 H   0  0  0  0  0  0  0  0  0  0  0  0  # atno 8009 bound_to 7997
  154.9365  140.0382  157.2064 H   0  0  0  0  0  0  0  0  0  0  0  0  # atno 8010 bound_to 7997
  140.7243  143.5044  150.9828 H   0  0  0  0  0  0  0  0  0  0  0  0  # atno 10167 bound_to 10162
  156.6560  130.9026  151.3021 H   0  0  0  0  0  0  0  0  0  0  0  0  # atno 10718 bound_to 10713
  154.4857  135.2777  155.1536 H   0  0  0  0  0  0  0  0  0  0  0  0  # atno 10763 bound_to 10752
  154.3228  135.6206  153.5519 H   0  0  0  0  0  0  0  0  0  0  0  0  # atno 10764 bound_to 10752
  152.9881  135.5747  154.5267 H   0  0  0  0  0  0  0  0  0  0  0  0  # atno 10765 bound_to 10752
  140.9600  133.7170  156.1354 H   0  0  0  0  0  0  0  0  0  0  0  0  # atno 11005 bound_to 11000
  146.1008  139.4003  143.0348 LP  0  0  0  0  0  0  0  0  0  0  0  0  # atno 17320 bound_to 7965
  145.7581  140.9946  143.1214 LP  0  0  0  0  0  0  0  0  0  0  0  0  # atno 17321 bound_to 7965
  139.8755  143.7138  152.3162 LP  0  0  0  0  0  0  0  0  0  0  0  0  # atno 17342 bound_to 10162
  139.7402  144.7561  151.0665 LP  0  0  0  0  0  0  0  0  0  0  0  0  # atno 17343 bound_to 10162
  157.7125  130.9458  150.1140 LP  0  0  0  0  0  0  0  0  0  0  0  0  # atno 17370 bound_to 10713
  156.2048  130.3662  149.8743 LP  0  0  0  0  0  0  0  0  0  0  0  0  # atno 17371 bound_to 10713
  140.7481  134.4075  157.5545 LP  0  0  0  0  0  0  0  0  0  0  0  0  # atno 17394 bound_to 11000
  139.8875  134.8882  156.2527 LP  0  0  0  0  0  0  0  0  0  0  0  0  # atno 17395 bound_to 11000

$$$$
