AV-unprocessed.smi:1247|AV-procd|sdf|5249|dock5
  -GOLD-   22720 4363D 1   1.00000     0.00000
 Structure written by MMmdl.
 47 48  0  0  0  0  0  0  0  0  2 V2000
  151.5518  141.4216  157.8174 C   0  0  0  0  0  0  0  0  0  0  0  0
  151.2874  140.5963  156.5927 C   0  0  0  0  0  0  0  0  0  0  0  0
  150.0986  140.5453  155.8081 C   0  0  0  0  0  0  0  0  0  0  0  0
  150.4201  139.6401  154.8338 C   0  0  0  0  0  0  0  0  0  0  0  0
  149.6545  139.1858  153.8064 N   0  0  0  0  0  0  0  0  0  0  0  0
  148.3256  139.3022  153.6402 C   0  0  0  0  0  0  0  0  0  0  0  0
  147.5567  139.8760  154.4120 O   0  0  0  0  0  0  0  0  0  0  0  0
  147.9242  138.7225  152.4996 N   0  0  0  0  0  0  0  0  0  0  0  0
  146.5473  138.6992  152.0183 C   0  0  0  0  0  0  0  0  0  0  0  0
  146.3241  137.5497  151.0172 C   0  0  0  0  0  0  0  0  0  0  0  0
  146.4483  136.2095  151.6498 N   0  3  1  0  0  0  0  0  0  0  0  0
  145.6354  136.0604  152.8819 C   0  0  0  0  0  0  0  0  0  0  0  0
  144.1466  135.8382  152.5462 C   0  0  2  0  0  0  0  0  0  0  0  0
  143.2996  135.6021  153.8013 C   0  0  0  0  0  0  0  0  0  0  0  0
  144.0308  134.6903  151.7123 O   0  0  0  0  0  0  0  0  0  0  0  0
  144.7125  134.8360  150.4707 C   0  0  2  0  0  0  0  0  0  0  0  0
  144.4578  133.5731  149.6406 C   0  0  0  0  0  0  0  0  0  0  0  0
  146.2170  135.0601  150.7374 C   0  0  0  0  0  0  0  0  0  0  0  0
  151.7042  139.1917  155.0482 N   0  0  0  0  0  0  0  0  0  0  0  0
  152.4825  138.2308  154.2915 C   0  0  0  0  0  0  0  0  0  0  0  0
  152.2385  139.7895  156.1351 N   0  0  0  0  0  0  0  0  0  0  0  0
  150.7001  142.0591  158.0547 H   0  0  0  0  0  0  0  0  0  0  0  0
  152.4194  142.0668  157.6771 H   0  0  0  0  0  0  0  0  0  0  0  0
  151.7429  140.7876  158.6837 H   0  0  0  0  0  0  0  0  0  0  0  0
  149.1755  141.0855  155.9555 H   0  0  0  0  0  0  0  0  0  0  0  0
  150.1603  138.7262  153.0635 H   0  0  0  0  0  0  0  0  0  0  0  0
  148.6190  138.2704  151.9229 H   0  0  0  0  0  0  0  0  0  0  0  0
  145.9033  138.5873  152.8896 H   0  0  0  0  0  0  0  0  0  0  0  0
  146.2925  139.6587  151.5645 H   0  0  0  0  0  0  0  0  0  0  0  0
  145.3180  137.6467  150.6070 H   0  0  0  0  0  0  0  0  0  0  0  0
  147.0058  137.6434  150.1720 H   0  0  0  0  0  0  0  0  0  0  0  0
  146.0150  135.2023  153.4388 H   0  0  0  0  0  0  0  0  0  0  0  0
  145.7640  136.9261  153.5329 H   0  0  0  0  0  0  0  0  0  0  0  0
  143.7453  136.7071  152.0222 H   0  0  0  0  0  0  0  0  0  0  0  0
  143.3438  136.4604  154.4722 H   0  0  0  0  0  0  0  0  0  0  0  0
  143.6438  134.7267  154.3530 H   0  0  0  0  0  0  0  0  0  0  0  0
  142.2537  135.4404  153.5392 H   0  0  0  0  0  0  0  0  0  0  0  0
  144.2945  135.6864  149.9307 H   0  0  0  0  0  0  0  0  0  0  0  0
  144.9535  133.6331  148.6716 H   0  0  0  0  0  0  0  0  0  0  0  0
  143.3917  133.4350  149.4596 H   0  0  0  0  0  0  0  0  0  0  0  0
  144.8263  132.6827  150.1508 H   0  0  0  0  0  0  0  0  0  0  0  0
  146.7604  135.1840  149.8016 H   0  0  0  0  0  0  0  0  0  0  0  0
  146.6345  134.1704  151.2111 H   0  0  0  0  0  0  0  0  0  0  0  0
  152.5833  138.5722  153.2610 H   0  0  0  0  0  0  0  0  0  0  0  0
  151.9792  137.2639  154.2999 H   0  0  0  0  0  0  0  0  0  0  0  0
  153.4772  138.1152  154.7239 H   0  0  0  0  0  0  0  0  0  0  0  0
  147.4114  136.1505  151.9496 H   0  0  0  0  0  0  0  0  0  0  0  0
  1  2  1  0  0  0  0
  1 22  1  0  0  0  0
  1 23  1  0  0  0  0
  1 24  1  0  0  0  0
  2 21  2  0  0  0  0
  2  3  1  0  0  0  0
  3  4  2  0  0  0  0
  3 25  1  0  0  0  0
  4  5  1  0  0  0  0
  4 19  1  0  0  0  0
  5  6  1  0  0  0  0
  5 26  1  0  0  0  0
  6  7  2  0  0  0  0
  6  8  1  0  0  0  0
  8  9  1  0  0  0  0
  8 27  1  0  0  0  0
  9 10  1  0  0  0  0
  9 28  1  0  0  0  0
  9 29  1  0  0  0  0
 10 11  1  0  0  0  0
 10 30  1  0  0  0  0
 10 31  1  0  0  0  0
 11 18  1  0  0  0  0
 11 12  1  0  0  0  0
 11 47  1  0  0  0  0
 12 13  1  0  0  0  0
 12 32  1  0  0  0  0
 12 33  1  0  0  0  0
 13 14  1  0  0  0  0
 13 15  1  0  0  0  0
 13 34  1  0  0  0  0
 14 35  1  0  0  0  0
 14 36  1  0  0  0  0
 14 37  1  0  0  0  0
 15 16  1  0  0  0  0
 16 17  1  0  0  0  0
 16 18  1  0  0  0  0
 16 38  1  0  0  0  0
 17 39  1  0  0  0  0
 17 40  1  0  0  0  0
 17 41  1  0  0  0  0
 18 42  1  0  0  0  0
 18 43  1  0  0  0  0
 19 20  1  0  0  0  0
 19 21  1  0  0  0  0
 20 44  1  0  0  0  0
 20 45  1  0  0  0  0
 20 46  1  0  0  0  0
M  CHG  1  11   1
M  END
> <s_m_source_file>
AV-unprocessed.smi

> <i_m_source_file_index>
1247

> <i_lp_mmshare_version>
43012

> <i_f3d_flags>
0

> <s_epik_input>
W0NIM11jMVtjSF1jKG4objEpW0NIM10pW05IXUMoPU8pW05IXVtDSDJdW0NIMl1OMltDSDJdW0NAQEhdKFtDSDNdKU9bQ0BASF0oW0NIM10pW0NIMl0y

> <s_epik_cmdline>
J2VwaWtfcHl0aG9uJywgJy1waCcsICc3LjAnLCAnLXRuJywgJzgnLCAnLW1hJywgJzIwMCcsICctbWV0YWxfYmluZGluZycsICctaW1hZScsICc8aW5maWxlLm1hZT4nLCAnLW9tYWUnLCAnPG91dGZpbGUubWFlPic=

> <r_lp_tautomer_probability>
1

> <r_epik_Ionization_Penalty>
0.663902

> <r_epik_Ionization_Penalty_Charging>
0.663826

> <r_epik_Ionization_Penalty_Neutral>
7.65444e-05

> <r_epik_State_Penalty>
0.683414

> <r_epik_Charging_Adjusted_Penalty>
1.34724

> <i_epik_Tot_Q>
1

> <i_epik_Tot_abs_Q>
1

> <r_epik_Metal_State_Penalty>
0.683419

> <b_epik_Metal_Only>
0

> <s_lp_Force_Field>
OPLS_2005

> <r_lp_Energy>
18.7227

> <b_lp_Chiralities_Consistent>
1

> <s_lp_Variant>
AV-unprocessed.smi:1247-7

> <Gold.Version>
5.8.1

> <Gold.Id.Protein>
6NUR|6NUR_protein|mol2

> <Gold.PLP.Fitness>
47.1019

> <Gold.PLP.PLP>
-37.1947

> <Gold.PLP.part.hbond>
-4.7850

> <Gold.PLP.part.metal>
0.0000

> <Gold.PLP.part.buried>
1.8726

> <Gold.PLP.part.nonpolar>
-33.6238

> <Gold.PLP.part.repulsive>
0.4900

> <Gold.PLP.ligand.clash>
0.0000

> <Gold.PLP.ligand.torsion>
0.2385

> <Gold.PLP.Chemscore.Hbond>
3.4528

> <Gold.PLP.Chemscore.CHOScore>
0.0000

> <Gold.PLP.Chemscore.Metal>
0.0000

> <Gold.Chemscore.Hbonds>
donor molecule, donor type, donor heavy atom, donor atom, acceptor molecule, acceptor atom, score
      L1  H     5    26       P1  7957  0.01
      L1  H     8    27       P1  7948  0.53
      L1  H    11    47       P1  7948  1.95
      P1  H  7997  8008       L1    21  0.75

> <Gold.PLP.Chemscore.Internal.Correction>
0.0259

> <Gold.Rescore>
     Score         DG    S(hbond)    S(metal)    S(lipo)     H(rot)  DE(clash)    DE(int)     intcor
     15.30     -18.59       2.45        0.00      75.36       1.52       1.90       1.39       ----

> <Gold.Chemscore.Fitness>
15.3032

> <Gold.Chemscore.DG>
-18.5869

> <Gold.Chemscore.ZeroCoef>
-5.4800

> <Gold.Chemscore.Hbond>
2.4511

> <Gold.Chemscore.Metal>
0.0000

> <Gold.Chemscore.Lipo>
75.3571

> <Gold.Chemscore.Internal_Hbond>
0.0000

> <Gold.Chemscore.DEClash>
1.8953

> <Gold.Chemscore.DEInternal>
1.3884

> <Gold.Chemscore.Rot>
1.5221

> <Gold.Chemscore.Internal.Correction>
   9.000000E+99

> <Gold.Chemscore.Hbonds>
donor molecule, donor type, donor heavy atom, donor atom, acceptor molecule, acceptor atom, score
      L1  H     5    26       P1  7957  0.01
      L1  H     8    27       P1  7948  0.50
      L1  H    11    47       P1  7948  0.91
      P1  H  7997  8008       L1    21  0.73

> <Gold.Chemscore.Hbond.Weighted>
-8.1868

> <Gold.Chemscore.Metal.Weighted>
-0.0000

> <Gold.Chemscore.Lipo.Weighted>
-8.8168

> <Gold.Chemscore.Internal_Hbond.Weighted>
0.0000

> <Gold.Chemscore.DEClash.Weighted>
1.8953

> <Gold.Chemscore.DEInternal.Weighted>
1.3884

> <Gold.Chemscore.Rot.Weighted>
3.8967

> <Gold.Chemscore.Internal.Correction.Weighted>
   9.000000E+99

> <Gold.Protein.RotatedTorsions>
[ 6907 6896 6895 6894 ] final -118.58 input  -60.11 | X-H torsion
[ 7974 7965 7964 7962 ] final  118.56 input  175.53 | X-H torsion
[ 8008 7997 7996 7995 ] final  -37.45 input   59.86 | X-H torsion
[ 10167 10162 10161 10158 ] final  -85.52 input  -65.29 | X-H torsion
[ 10718 10713 10712 10709 ] final  148.73 input   66.30 | X-H torsion
[ 10763 10752 10751 10750 ] final  -59.61 input  -60.55 | X-H torsion
[ 11005 11000 10999 10996 ] final   97.86 input  -57.11 | X-H torsion

> <Gold.Protein.ActiveResidues>
 VAL166  LYS551  ARG553  GLY616  TRP617  ASP618  TYR619  PRO620  LYS621  CYS622 
 ASP623  PHE694  ASN695  SER759  ASP760  ASP761  ALA762  ILE779  LEU786  VAL792 
 PHE793  MET794  SER795  GLU796  ALA797  LYS798  CYS799  TRP800  GLU811  SER814 

> <Gold.Protein.RotatedAtoms>
  150.8231  133.8218  159.3129 H   0  0  0  0  0  0  0  0  0  0  0  0  # atno 6907 bound_to 6896
  151.5970  135.1048  160.0061 H   0  0  0  0  0  0  0  0  0  0  0  0  # atno 6908 bound_to 6896
  152.4319  133.7251  159.6612 H   0  0  0  0  0  0  0  0  0  0  0  0  # atno 6909 bound_to 6896
  145.1537  139.3195  143.4553 H   0  0  0  0  0  0  0  0  0  0  0  0  # atno 7974 bound_to 7965
  154.4053  140.1604  156.2539 H   0  0  0  0  0  0  0  0  0  0  0  0  # atno 8008 bound_to 7997
  155.9095  140.3428  155.6065 H   0  0  0  0  0  0  0  0  0  0  0  0  # atno 8009 bound_to 7997
  155.7353  140.0785  157.2261 H   0  0  0  0  0  0  0  0  0  0  0  0  # atno 8010 bound_to 7997
  140.4029  143.2655  151.9118 H   0  0  0  0  0  0  0  0  0  0  0  0  # atno 10167 bound_to 10162
  157.3050  131.0877  151.1361 H   0  0  0  0  0  0  0  0  0  0  0  0  # atno 10718 bound_to 10713
  154.2564  135.6316  153.5258 H   0  0  0  0  0  0  0  0  0  0  0  0  # atno 10763 bound_to 10752
  152.9903  135.5577  154.5752 H   0  0  0  0  0  0  0  0  0  0  0  0  # atno 10764 bound_to 10752
  154.5291  135.2887  155.1171 H   0  0  0  0  0  0  0  0  0  0  0  0  # atno 10765 bound_to 10752
  139.8774  134.9021  156.4370 H   0  0  0  0  0  0  0  0  0  0  0  0  # atno 11005 bound_to 11000
  146.3491  140.1621  142.8590 LP  0  0  0  0  0  0  0  0  0  0  0  0  # atno 17320 bound_to 7965
  145.0404  140.8940  143.5056 LP  0  0  0  0  0  0  0  0  0  0  0  0  # atno 17321 bound_to 7965
  139.4784  144.5615  151.8232 LP  0  0  0  0  0  0  0  0  0  0  0  0  # atno 17342 bound_to 10162
  140.4720  144.1573  150.5919 LP  0  0  0  0  0  0  0  0  0  0  0  0  # atno 17343 bound_to 10162
  157.2705  130.6702  149.6017 LP  0  0  0  0  0  0  0  0  0  0  0  0  # atno 17370 bound_to 10713
  155.9674  130.4480  150.5604 LP  0  0  0  0  0  0  0  0  0  0  0  0  # atno 17371 bound_to 10713
  140.9026  133.7768  155.9698 LP  0  0  0  0  0  0  0  0  0  0  0  0  # atno 17394 bound_to 11000
  140.8634  134.2813  157.5224 LP  0  0  0  0  0  0  0  0  0  0  0  0  # atno 17395 bound_to 11000

$$$$
