AV-unprocessed.smi:2579|AV-procd|sdf|10125|dock7
  -GOLD-   2272014143D 1   1.00000     0.00000
 Structure written by MMmdl.
 38 40  0  0  0  0  0  0  0  0  1 V2000
  149.4756  141.0957  153.3249 O   0  0  0  0  0  0  0  0  0  0  0  0
  149.1667  140.4802  154.5572 C   0  0  0  0  0  0  0  0  0  0  0  0
  150.2293  139.4294  154.9032 C   0  0  0  0  0  0  0  0  0  0  0  0
  150.6871  139.5601  156.2733 N   0  0  0  0  0  0  0  0  0  0  0  0
  151.0680  140.6631  157.0266 C   0  0  0  0  0  0  0  0  0  0  0  0
  151.0778  141.9122  156.5649 N   0  0  0  0  0  0  0  0  0  0  0  0
  151.5287  142.6250  157.6605 C   0  0  0  0  0  0  0  0  0  0  0  0
  151.7637  144.0094  157.8207 C   0  0  0  0  0  0  0  0  0  0  0  0
  152.2343  144.5164  159.0500 C   0  0  0  0  0  0  0  0  0  0  0  0
  152.4774  143.6486  160.1343 C   0  0  0  0  0  0  0  0  0  0  0  0
  152.2498  142.2658  159.9972 C   0  0  0  0  0  0  0  0  0  0  0  0
  151.7781  141.7643  158.7692 C   0  0  0  0  0  0  0  0  0  0  0  0
  151.4599  140.4895  158.3106 N   0  0  0  0  0  0  0  0  0  0  0  0
  151.5497  139.2481  159.0652 C   0  0  0  0  0  0  0  0  0  0  0  0
  153.0075  138.8754  159.3769 C   0  0  2  0  0  0  0  0  0  0  0  0
  153.1572  137.5894  160.1900 C   0  0  0  0  0  0  0  0  0  0  0  0
  154.4588  137.8336  160.9188 C   0  0  0  0  0  0  0  0  0  0  0  0
  154.3497  139.3193  161.2421 C   0  0  0  0  0  0  0  0  0  0  0  0
  153.6417  139.8949  160.1490 O   0  0  0  0  0  0  0  0  0  0  0  0
  149.3800  140.4555  152.6363 H   0  0  0  0  0  0  0  0  0  0  0  0
  149.1596  141.2582  155.3210 H   0  0  0  0  0  0  0  0  0  0  0  0
  148.1654  140.0485  154.5291 H   0  0  0  0  0  0  0  0  0  0  0  0
  149.8600  138.4191  154.7246 H   0  0  0  0  0  0  0  0  0  0  0  0
  151.0961  139.5672  154.2562 H   0  0  0  0  0  0  0  0  0  0  0  0
  150.7644  138.6767  156.7557 H   0  0  0  0  0  0  0  0  0  0  0  0
  151.5826  144.6823  156.9957 H   0  0  0  0  0  0  0  0  0  0  0  0
  152.4112  145.5761  159.1607 H   0  0  0  0  0  0  0  0  0  0  0  0
  152.8403  144.0450  161.0714 H   0  0  0  0  0  0  0  0  0  0  0  0
  152.4386  141.5983  160.8249 H   0  0  0  0  0  0  0  0  0  0  0  0
  150.9837  139.3652  159.9898 H   0  0  0  0  0  0  0  0  0  0  0  0
  151.0602  138.4498  158.5062 H   0  0  0  0  0  0  0  0  0  0  0  0
  153.5724  138.7746  158.4488 H   0  0  0  0  0  0  0  0  0  0  0  0
  152.3442  137.4900  160.9106 H   0  0  0  0  0  0  0  0  0  0  0  0
  153.1746  136.6932  159.5694 H   0  0  0  0  0  0  0  0  0  0  0  0
  154.5798  137.2112  161.8058 H   0  0  0  0  0  0  0  0  0  0  0  0
  155.3038  137.6536  160.2527 H   0  0  0  0  0  0  0  0  0  0  0  0
  153.7645  139.4681  162.1504 H   0  0  0  0  0  0  0  0  0  0  0  0
  155.3221  139.7916  161.3825 H   0  0  0  0  0  0  0  0  0  0  0  0
  1  2  1  0  0  0  0
  1 20  1  0  0  0  0
  2  3  1  0  0  0  0
  2 21  1  0  0  0  0
  2 22  1  0  0  0  0
  3  4  1  0  0  0  0
  3 23  1  0  0  0  0
  3 24  1  0  0  0  0
  4  5  1  0  0  0  0
  4 25  1  0  0  0  0
  5 13  1  0  0  0  0
  5  6  2  0  0  0  0
  6  7  1  0  0  0  0
  7 12  2  0  0  0  0
  7  8  1  0  0  0  0
  8  9  2  0  0  0  0
  8 26  1  0  0  0  0
  9 10  1  0  0  0  0
  9 27  1  0  0  0  0
 10 11  2  0  0  0  0
 10 28  1  0  0  0  0
 11 12  1  0  0  0  0
 11 29  1  0  0  0  0
 12 13  1  0  0  0  0
 13 14  1  0  0  0  0
 14 15  1  0  0  0  0
 14 30  1  0  0  0  0
 14 31  1  0  0  0  0
 15 19  1  0  0  0  0
 15 16  1  0  0  0  0
 15 32  1  0  0  0  0
 16 17  1  0  0  0  0
 16 33  1  0  0  0  0
 16 34  1  0  0  0  0
 17 18  1  0  0  0  0
 17 35  1  0  0  0  0
 17 36  1  0  0  0  0
 18 19  1  0  0  0  0
 18 37  1  0  0  0  0
 18 38  1  0  0  0  0
M  END
> <s_m_source_file>
AV-unprocessed.smi

> <i_m_source_file_index>
2579

> <i_lp_mmshare_version>
43012

> <i_f3d_flags>
0

> <s_epik_input>
W09IXVtDSDJdW0NIMl1bTkhdYyhuMSluKGMoYzEyKVtjSF1bY0hdW2NIXVtjSF0yKVtDSDJdW0NAQEhdM1tDSDJdW0NIMl1bQ0gyXU8z

> <s_epik_cmdline>
J2VwaWtfcHl0aG9uJywgJy1waCcsICc3LjAnLCAnLXRuJywgJzgnLCAnLW1hJywgJzIwMCcsICctbWV0YWxfYmluZGluZycsICctaW1hZScsICc8aW5maWxlLm1hZT4nLCAnLW9tYWUnLCAnPG91dGZpbGUubWFlPic=

> <r_epik_Ionization_Penalty>
1.27244

> <r_epik_Ionization_Penalty_Charging>
0

> <r_epik_Ionization_Penalty_Neutral>
1.27244

> <r_epik_State_Penalty>
1.34401

> <r_epik_Charging_Adjusted_Penalty>
1.34401

> <i_epik_Tot_Q>
0

> <i_epik_Tot_abs_Q>
0

> <r_epik_Metal_State_Penalty>
0.00511131

> <b_epik_Metal_Only>
0

> <s_lp_Force_Field>
OPLS_2005

> <r_lp_Energy>
20.4938

> <b_lp_Chiralities_Consistent>
1

> <s_lp_Variant>
AV-unprocessed.smi:2579-3

> <Gold.Version>
5.8.1

> <Gold.Id.Protein>
6NUR|6NUR_protein|mol2

> <Gold.PLP.Fitness>
44.9837

> <Gold.PLP.PLP>
-40.1633

> <Gold.PLP.part.hbond>
-2.5607

> <Gold.PLP.part.metal>
0.0000

> <Gold.PLP.part.buried>
-5.1599

> <Gold.PLP.part.nonpolar>
-32.7789

> <Gold.PLP.part.repulsive>
0.1262

> <Gold.PLP.ligand.clash>
0.0000

> <Gold.PLP.ligand.torsion>
0.4862

> <Gold.PLP.Chemscore.Hbond>
1.9280

> <Gold.PLP.Chemscore.CHOScore>
0.0000

> <Gold.PLP.Chemscore.Metal>
0.0000

> <Gold.Chemscore.Hbonds>
donor molecule, donor type, donor heavy atom, donor atom, acceptor molecule, acceptor atom, score
      L1  H     1    20       P1  7957  0.98
      P1  H  7989  7998       L1     1  0.08
      P1  H  8011  8017       L1     1  0.85

> <Gold.PLP.Chemscore.Internal.Correction>
0.0089

> <Gold.Rescore>
     Score         DG    S(hbond)    S(metal)    S(lipo)     H(rot)  DE(clash)    DE(int)     intcor
     15.56     -17.63       1.34        0.00     112.99       2.17       0.29       1.78       ----

> <Gold.Chemscore.Fitness>
15.5578

> <Gold.Chemscore.DG>
-17.6293

> <Gold.Chemscore.ZeroCoef>
-5.4800

> <Gold.Chemscore.Hbond>
1.3417

> <Gold.Chemscore.Metal>
0.0000

> <Gold.Chemscore.Lipo>
112.9937

> <Gold.Chemscore.Internal_Hbond>
0.0000

> <Gold.Chemscore.DEClash>
0.2921

> <Gold.Chemscore.DEInternal>
1.7794

> <Gold.Chemscore.Rot>
2.1688

> <Gold.Chemscore.Internal.Correction>
   9.000000E+99

> <Gold.Chemscore.Hbonds>
donor molecule, donor type, donor heavy atom, donor atom, acceptor molecule, acceptor atom, score
      L1  H     1    20       P1  7957  0.89
      P1  H  8011  8017       L1     1  0.14

> <Gold.Chemscore.Hbond.Weighted>
-4.4812

> <Gold.Chemscore.Metal.Weighted>
-0.0000

> <Gold.Chemscore.Lipo.Weighted>
-13.2203

> <Gold.Chemscore.Internal_Hbond.Weighted>
0.0000

> <Gold.Chemscore.DEClash.Weighted>
0.2921

> <Gold.Chemscore.DEInternal.Weighted>
1.7794

> <Gold.Chemscore.Rot.Weighted>
5.5522

> <Gold.Chemscore.Internal.Correction.Weighted>
   9.000000E+99

> <Gold.Protein.RotatedTorsions>
[ 6907 6896 6895 6894 ] final -178.15 input  -60.11 | X-H torsion
[ 7974 7965 7964 7962 ] final   30.86 input  175.53 | X-H torsion
[ 8008 7997 7996 7995 ] final   92.30 input   59.86 | X-H torsion
[ 10167 10162 10161 10158 ] final  -89.35 input  -65.29 | X-H torsion
[ 10718 10713 10712 10709 ] final   53.80 input   66.30 | X-H torsion
[ 10763 10752 10751 10750 ] final -150.00 input  -60.55 | X-H torsion
[ 11005 11000 10999 10996 ] final -174.65 input  -57.11 | X-H torsion

> <Gold.Protein.ActiveResidues>
 VAL166  LYS551  ARG553  GLY616  TRP617  ASP618  TYR619  PRO620  LYS621  CYS622 
 ASP623  PHE694  ASN695  SER759  ASP760  ASP761  ALA762  ILE779  LEU786  VAL792 
 PHE793  MET794  SER795  GLU796  ALA797  LYS798  CYS799  TRP800  GLU811  SER814 

> <Gold.Protein.RotatedAtoms>
  151.6326  133.3331  159.3111 H   0  0  0  0  0  0  0  0  0  0  0  0  # atno 6907 bound_to 6896
  150.8049  134.7171  159.6646 H   0  0  0  0  0  0  0  0  0  0  0  0  # atno 6908 bound_to 6896
  152.4143  134.6073  160.0067 H   0  0  0  0  0  0  0  0  0  0  0  0  # atno 6909 bound_to 6896
  146.1586  139.6733  142.9049 H   0  0  0  0  0  0  0  0  0  0  0  0  # atno 7974 bound_to 7965
  156.0337  140.3327  155.7168 H   0  0  0  0  0  0  0  0  0  0  0  0  # atno 8008 bound_to 7997
  155.5847  140.0640  157.2792 H   0  0  0  0  0  0  0  0  0  0  0  0  # atno 8009 bound_to 7997
  154.4364  140.1838  156.1001 H   0  0  0  0  0  0  0  0  0  0  0  0  # atno 8010 bound_to 7997
  140.3657  143.2819  151.9561 H   0  0  0  0  0  0  0  0  0  0  0  0  # atno 10167 bound_to 10162
  157.5200  130.8558  149.8545 H   0  0  0  0  0  0  0  0  0  0  0  0  # atno 10718 bound_to 10713
  154.8144  135.3295  154.7216 H   0  0  0  0  0  0  0  0  0  0  0  0  # atno 10763 bound_to 10752
  153.7859  135.6915  153.4884 H   0  0  0  0  0  0  0  0  0  0  0  0  # atno 10764 bound_to 10752
  153.1949  135.4537  155.0142 H   0  0  0  0  0  0  0  0  0  0  0  0  # atno 10765 bound_to 10752
  140.4722  134.6155  157.4886 H   0  0  0  0  0  0  0  0  0  0  0  0  # atno 11005 bound_to 11000
  145.4645  141.0434  143.2733 LP  0  0  0  0  0  0  0  0  0  0  0  0  # atno 17320 bound_to 7965
  144.7996  139.6166  143.7077 LP  0  0  0  0  0  0  0  0  0  0  0  0  # atno 17321 bound_to 7965
  139.4809  144.5953  151.7701 LP  0  0  0  0  0  0  0  0  0  0  0  0  # atno 17342 bound_to 10162
  140.5083  144.1064  150.5988 LP  0  0  0  0  0  0  0  0  0  0  0  0  # atno 17343 bound_to 10162
  156.0346  130.3755  150.1594 LP  0  0  0  0  0  0  0  0  0  0  0  0  # atno 17370 bound_to 10713
  156.9782  130.9856  151.3443 LP  0  0  0  0  0  0  0  0  0  0  0  0  # atno 17371 bound_to 10713
  139.9878  134.7033  155.9743 LP  0  0  0  0  0  0  0  0  0  0  0  0  # atno 17394 bound_to 11000
  141.1571  133.6542  156.4198 LP  0  0  0  0  0  0  0  0  0  0  0  0  # atno 17395 bound_to 11000

$$$$
