AV-unprocessed.smi:332|AV-procd|sdf|2356|dock9
  -GOLD-   2262022263D 1   1.00000     0.00000
 Structure written by MMmdl.
 42 44  0  0  0  0  0  0  0  0  1 V2000
  148.7653  142.0031  157.8560 C   0  0  0  0  0  0  0  0  0  0  0  0
  149.3301  143.0556  158.8251 C   0  0  2  0  0  0  0  0  0  0  0  0
  148.3186  144.0671  159.1102 N   0  0  0  0  0  0  0  0  0  0  0  0
  147.1965  143.8864  159.8263 C   0  0  0  0  0  0  0  0  0  0  0  0
  146.8462  142.7880  160.2554 O   0  0  0  0  0  0  0  0  0  0  0  0
  146.3373  145.1245  160.1360 C   0  0  0  0  0  0  0  0  0  0  0  0
  145.0096  144.8224  160.7030 N   0  0  0  0  0  0  0  0  0  0  0  0
  144.9754  144.0463  161.8787 C   0  0  0  0  0  0  0  0  0  0  0  0
  143.8196  143.6999  162.4670 C   0  0  0  0  0  0  0  0  0  0  0  0
  142.5858  144.1451  161.8638 C   0  0  0  0  0  0  0  0  0  0  0  0
  142.6067  144.8839  160.7367 C   0  0  0  0  0  0  0  0  0  0  0  0
  143.8673  145.2613  160.0875 C   0  0  0  0  0  0  0  0  0  0  0  0
  143.8952  145.9217  159.0488 O   0  0  0  0  0  0  0  0  0  0  0  0
  150.5932  143.7465  158.2602 C   0  0  2  0  0  0  0  0  0  0  0  0
  151.7769  142.7962  157.9732 C   0  0  0  0  0  0  0  0  0  0  0  0
  152.9562  143.4905  158.6801 C   0  0  2  0  0  0  0  0  0  0  0  0
  152.8032  143.3182  160.2029 C   0  0  0  0  0  0  0  0  0  0  0  0
  151.6402  144.2701  160.5364 C   0  0  0  0  0  0  0  0  0  0  0  0
  151.2519  144.8300  159.1530 C   0  0  1  0  0  0  0  0  0  0  0  0
  152.6201  144.9658  158.4939 C   0  0  0  0  0  0  0  0  0  0  0  0
  149.5003  141.2263  157.6448 H   0  0  0  0  0  0  0  0  0  0  0  0
  148.4746  142.4525  156.9058 H   0  0  0  0  0  0  0  0  0  0  0  0
  147.8864  141.5119  158.2744 H   0  0  0  0  0  0  0  0  0  0  0  0
  149.5928  142.5508  159.7561 H   0  0  0  0  0  0  0  0  0  0  0  0
  148.5212  145.0038  158.7916 H   0  0  0  0  0  0  0  0  0  0  0  0
  146.9026  145.7646  160.8144 H   0  0  0  0  0  0  0  0  0  0  0  0
  146.2287  145.7104  159.2215 H   0  0  0  0  0  0  0  0  0  0  0  0
  145.9407  143.7478  162.2612 H   0  0  0  0  0  0  0  0  0  0  0  0
  143.8130  143.1003  163.3654 H   0  0  0  0  0  0  0  0  0  0  0  0
  141.6413  143.8843  162.3181 H   0  0  0  0  0  0  0  0  0  0  0  0
  141.6735  145.2066  160.2983 H   0  0  0  0  0  0  0  0  0  0  0  0
  150.3139  144.2327  157.3234 H   0  0  0  0  0  0  0  0  0  0  0  0
  151.6174  141.7861  158.3525 H   0  0  0  0  0  0  0  0  0  0  0  0
  151.9538  142.7213  156.8995 H   0  0  0  0  0  0  0  0  0  0  0  0
  153.9328  143.1873  158.3021 H   0  0  0  0  0  0  0  0  0  0  0  0
  152.5890  142.2862  160.4837 H   0  0  0  0  0  0  0  0  0  0  0  0
  153.7109  143.6246  160.7242 H   0  0  0  0  0  0  0  0  0  0  0  0
  150.8179  143.7721  161.0492 H   0  0  0  0  0  0  0  0  0  0  0  0
  151.9851  145.0748  161.1870 H   0  0  0  0  0  0  0  0  0  0  0  0
  150.6848  145.7600  159.2042 H   0  0  0  0  0  0  0  0  0  0  0  0
  153.2952  145.6356  159.0295 H   0  0  0  0  0  0  0  0  0  0  0  0
  152.5706  145.2706  157.4470 H   0  0  0  0  0  0  0  0  0  0  0  0
  1  2  1  0  0  0  0
  1 21  1  0  0  0  0
  1 22  1  0  0  0  0
  1 23  1  0  0  0  0
  2  3  1  0  0  0  0
  2 14  1  0  0  0  0
  2 24  1  0  0  0  0
  3  4  1  0  0  0  0
  3 25  1  0  0  0  0
  4  5  2  0  0  0  0
  4  6  1  0  0  0  0
  6  7  1  0  0  0  0
  6 26  1  0  0  0  0
  6 27  1  0  0  0  0
  7 12  1  0  0  0  0
  7  8  1  0  0  0  0
  8  9  2  0  0  0  0
  8 28  1  0  0  0  0
  9 10  1  0  0  0  0
  9 29  1  0  0  0  0
 10 11  2  0  0  0  0
 10 30  1  0  0  0  0
 11 12  1  0  0  0  0
 11 31  1  0  0  0  0
 12 13  2  0  0  0  0
 14 19  1  0  0  0  0
 14 15  1  0  0  0  0
 14 32  1  0  0  0  0
 15 16  1  0  0  0  0
 15 33  1  0  0  0  0
 15 34  1  0  0  0  0
 16 20  1  0  0  0  0
 16 17  1  0  0  0  0
 16 35  1  0  0  0  0
 17 18  1  0  0  0  0
 17 36  1  0  0  0  0
 17 37  1  0  0  0  0
 18 19  1  0  0  0  0
 18 38  1  0  0  0  0
 18 39  1  0  0  0  0
 19 20  1  0  0  0  0
 19 40  1  0  0  0  0
 20 41  1  0  0  0  0
 20 42  1  0  0  0  0
M  END
> <s_m_source_file>
AV-unprocessed.smi

> <i_m_source_file_index>
332

> <i_lp_mmshare_version>
43012

> <i_f3d_flags>
0

> <s_epik_input>
W0NIMl0xW0NIMl1bQ0BIXShbQ0gyXTIpW0NAQEhdKFtDSDJdW0NAQEhdMTIpW0NASF0oW0NIM10pW05IXUMoPU8pW0NIMl1uM1tjSF1bY0hdW2NIXVtjSF1jMz1P

> <s_epik_cmdline>
J2VwaWtfcHl0aG9uJywgJy1waCcsICc3LjAnLCAnLXRuJywgJzgnLCAnLW1hJywgJzIwMCcsICctbWV0YWxfYmluZGluZycsICctaW1hZScsICc8aW5maWxlLm1hZT4nLCAnLW9tYWUnLCAnPG91dGZpbGUubWFlPic=

> <r_lp_tautomer_probability>
1

> <r_epik_Ionization_Penalty>
4.05802e-07

> <r_epik_Ionization_Penalty_Charging>
3.84175e-07

> <r_epik_Ionization_Penalty_Neutral>
2.16269e-08

> <r_epik_State_Penalty>
-0

> <r_epik_Charging_Adjusted_Penalty>
3.84175e-07

> <i_epik_Tot_Q>
0

> <i_epik_Tot_abs_Q>
0

> <r_epik_Metal_State_Penalty>
-0

> <b_epik_Metal_Only>
0

> <s_lp_Force_Field>
OPLS_2005

> <r_lp_Energy>
59.3935

> <b_lp_Chiralities_Consistent>
1

> <s_lp_Variant>
AV-unprocessed.smi:332-5

> <Gold.Version>
5.8.1

> <Gold.Id.Protein>
6NUR|6NUR_protein|mol2

> <Gold.PLP.Fitness>
48.9123

> <Gold.PLP.PLP>
-41.9471

> <Gold.PLP.part.hbond>
-3.0000

> <Gold.PLP.part.metal>
0.0000

> <Gold.PLP.part.buried>
-4.3009

> <Gold.PLP.part.nonpolar>
-35.6851

> <Gold.PLP.part.repulsive>
0.2273

> <Gold.PLP.ligand.clash>
0.0000

> <Gold.PLP.ligand.torsion>
0.2465

> <Gold.PLP.Chemscore.Hbond>
2.4800

> <Gold.PLP.Chemscore.CHOScore>
0.0000

> <Gold.PLP.Chemscore.Metal>
0.0000

> <Gold.Chemscore.Hbonds>
donor molecule, donor type, donor heavy atom, donor atom, acceptor molecule, acceptor atom, score
      L1  H     3    25       P1  8029  0.61
      P1  H  6933  6944       L1     5  0.77
      P1  H  6934  6946       L1     5  0.94

> <Gold.PLP.Chemscore.Internal.Correction>
0.0182

> <Gold.Rescore>
     Score         DG    S(hbond)    S(metal)    S(lipo)     H(rot)  DE(clash)    DE(int)     intcor
     22.20     -24.01       2.20        0.00     129.15       1.54       0.13       1.67       ----

> <Gold.Chemscore.Fitness>
22.2008

> <Gold.Chemscore.DG>
-24.0054

> <Gold.Chemscore.ZeroCoef>
-5.4800

> <Gold.Chemscore.Hbond>
2.2025

> <Gold.Chemscore.Metal>
0.0000

> <Gold.Chemscore.Lipo>
129.1546

> <Gold.Chemscore.Internal_Hbond>
0.0000

> <Gold.Chemscore.DEClash>
0.1313

> <Gold.Chemscore.DEInternal>
1.6732

> <Gold.Chemscore.Rot>
1.5398

> <Gold.Chemscore.Internal.Correction>
   9.000000E+99

> <Gold.Chemscore.Hbonds>
donor molecule, donor type, donor heavy atom, donor atom, acceptor molecule, acceptor atom, score
      L1  H     3    25       P1  8029  0.62
      P1  H  6933  6944       L1     5  0.19
      P1  H  6934  6946       L1     5  0.89

> <Gold.Chemscore.Hbond.Weighted>
-7.3562

> <Gold.Chemscore.Metal.Weighted>
-0.0000

> <Gold.Chemscore.Lipo.Weighted>
-15.1111

> <Gold.Chemscore.Internal_Hbond.Weighted>
0.0000

> <Gold.Chemscore.DEClash.Weighted>
0.1313

> <Gold.Chemscore.DEInternal.Weighted>
1.6732

> <Gold.Chemscore.Rot.Weighted>
3.9419

> <Gold.Chemscore.Internal.Correction.Weighted>
   9.000000E+99

> <Gold.Protein.RotatedTorsions>
[ 6907 6896 6895 6894 ] final  -90.83 input  -60.11 | X-H torsion
[ 7974 7965 7964 7962 ] final -109.10 input  175.53 | X-H torsion
[ 8008 7997 7996 7995 ] final -172.95 input   59.86 | X-H torsion
[ 10167 10162 10161 10158 ] final  113.06 input  -65.29 | X-H torsion
[ 10718 10713 10712 10709 ] final -105.55 input   66.30 | X-H torsion
[ 10763 10752 10751 10750 ] final  103.91 input  -60.55 | X-H torsion
[ 11005 11000 10999 10996 ] final   -7.13 input  -57.11 | X-H torsion

> <Gold.Protein.ActiveResidues>
 VAL166  LYS551  ARG553  GLY616  TRP617  ASP618  TYR619  PRO620  LYS621  CYS622 
 ASP623  PHE694  ASN695  SER759  ASP760  ASP761  ALA762  ILE779  LEU786  VAL792 
 PHE793  MET794  SER795  GLU796  ALA797  LYS798  CYS799  TRP800  GLU811  SER814 

> <Gold.Protein.RotatedAtoms>
  150.6886  134.2372  159.4457 H   0  0  0  0  0  0  0  0  0  0  0  0  # atno 6907 bound_to 6896
  152.0318  134.9760  160.0582 H   0  0  0  0  0  0  0  0  0  0  0  0  # atno 6908 bound_to 6896
  152.1297  133.4366  159.4752 H   0  0  0  0  0  0  0  0  0  0  0  0  # atno 6909 bound_to 6896
  145.1847  140.8987  143.3459 H   0  0  0  0  0  0  0  0  0  0  0  0  # atno 7974 bound_to 7965
  155.9512  140.1126  157.0975 H   0  0  0  0  0  0  0  0  0  0  0  0  # atno 8008 bound_to 7997
  154.4110  140.1200  156.5121 H   0  0  0  0  0  0  0  0  0  0  0  0  # atno 8009 bound_to 7997
  155.6840  140.3473  155.4869 H   0  0  0  0  0  0  0  0  0  0  0  0  # atno 8010 bound_to 7997
  139.6489  144.7127  151.2087 H   0  0  0  0  0  0  0  0  0  0  0  0  # atno 10167 bound_to 10162
  156.0351  130.5569  150.7555 H   0  0  0  0  0  0  0  0  0  0  0  0  # atno 10718 bound_to 10713
  153.3589  135.3961  155.1703 H   0  0  0  0  0  0  0  0  0  0  0  0  # atno 10763 bound_to 10752
  154.8675  135.3674  154.5126 H   0  0  0  0  0  0  0  0  0  0  0  0  # atno 10764 bound_to 10752
  153.5583  135.7081  153.5619 H   0  0  0  0  0  0  0  0  0  0  0  0  # atno 10765 bound_to 10752
  140.7094  133.8921  155.8740 H   0  0  0  0  0  0  0  0  0  0  0  0  # atno 11005 bound_to 11000
  145.0101  139.3518  143.6124 LP  0  0  0  0  0  0  0  0  0  0  0  0  # atno 17320 bound_to 7965
  146.3447  139.9359  142.8747 LP  0  0  0  0  0  0  0  0  0  0  0  0  # atno 17321 bound_to 7965
  140.7528  143.6183  150.8538 LP  0  0  0  0  0  0  0  0  0  0  0  0  # atno 17342 bound_to 10162
  139.9829  143.5931  152.2937 LP  0  0  0  0  0  0  0  0  0  0  0  0  # atno 17343 bound_to 10162
  157.5088  131.0924  151.0224 LP  0  0  0  0  0  0  0  0  0  0  0  0  # atno 17370 bound_to 10713
  157.0585  130.5816  149.5382 LP  0  0  0  0  0  0  0  0  0  0  0  0  # atno 17371 bound_to 10713
  141.0097  134.1037  157.4234 LP  0  0  0  0  0  0  0  0  0  0  0  0  # atno 17394 bound_to 11000
  139.8875  135.0090  156.6567 LP  0  0  0  0  0  0  0  0  0  0  0  0  # atno 17395 bound_to 11000

$$$$
