AV-unprocessed.smi:1333|AV-procd|sdf|5490|dock4
  -GOLD-   22720 5 63D 1   1.00000     0.00000
 Structure written by MMmdl.
 33 34  0  0  0  0  0  0  0  0  1 V2000
  144.2473  135.7961  152.0137 O   0  0  0  0  0  0  0  0  0  0  0  0
  145.4488  135.7103  151.7450 C   0  0  0  0  0  0  0  0  0  0  0  0
  145.9303  134.7368  150.6605 C   0  0  0  0  0  0  0  0  0  0  0  0
  145.2833  133.4374  150.7321 N   0  0  0  0  0  0  0  0  0  0  0  0
  143.9278  133.1662  150.5941 C   0  0  0  0  0  0  0  0  0  0  0  0
  143.7821  131.8054  150.7418 C   0  0  0  0  0  0  0  0  0  0  0  0
  145.0266  131.2224  150.9690 N   0  0  0  0  0  0  0  0  0  0  0  0
  145.8658  132.2499  150.9511 C   0  0  0  0  0  0  0  0  0  0  0  0
  146.4380  136.4197  152.3358 N   0  0  0  0  0  0  0  0  0  0  0  0
  146.4017  137.3544  153.3155 C   0  0  0  0  0  0  0  0  0  0  0  0
  145.3405  137.6397  153.8682 O   0  0  0  0  0  0  0  0  0  0  0  0
  147.5655  137.9463  153.6443 N   0  0  0  0  0  0  0  0  0  0  0  0
  147.7159  139.0717  154.5624 C   0  0  0  0  0  0  0  0  0  0  0  0
  146.8091  140.2532  154.1626 C   0  0  0  0  0  0  0  0  0  0  0  0
  147.7408  141.3260  153.5986 C   0  0  0  0  0  0  0  0  0  0  0  0
  149.0439  141.1273  154.3656 C   0  0  0  0  0  0  0  0  0  0  0  0
  149.1593  139.6106  154.5309 C   0  0  0  0  0  0  0  0  0  0  0  0
  145.7417  135.1661  149.6755 H   0  0  0  0  0  0  0  0  0  0  0  0
  147.0083  134.5965  150.7512 H   0  0  0  0  0  0  0  0  0  0  0  0
  143.1992  133.9424  150.4110 H   0  0  0  0  0  0  0  0  0  0  0  0
  142.8844  131.2063  150.7036 H   0  0  0  0  0  0  0  0  0  0  0  0
  146.9293  132.1364  151.1027 H   0  0  0  0  0  0  0  0  0  0  0  0
  147.3647  136.2194  151.9889 H   0  0  0  0  0  0  0  0  0  0  0  0
  148.4110  137.5866  153.2241 H   0  0  0  0  0  0  0  0  0  0  0  0
  147.4700  138.7490  155.5758 H   0  0  0  0  0  0  0  0  0  0  0  0
  146.0238  139.9828  153.4554 H   0  0  0  0  0  0  0  0  0  0  0  0
  146.3143  140.6405  155.0542 H   0  0  0  0  0  0  0  0  0  0  0  0
  147.9083  141.1462  152.5358 H   0  0  0  0  0  0  0  0  0  0  0  0
  147.3368  142.3329  153.7081 H   0  0  0  0  0  0  0  0  0  0  0  0
  149.9035  141.5609  153.8538 H   0  0  0  0  0  0  0  0  0  0  0  0
  148.9668  141.5995  155.3460 H   0  0  0  0  0  0  0  0  0  0  0  0
  149.7188  139.3414  155.4275 H   0  0  0  0  0  0  0  0  0  0  0  0
  149.7044  139.2023  153.6780 H   0  0  0  0  0  0  0  0  0  0  0  0
  1  2  2  0  0  0  0
  2  3  1  0  0  0  0
  2  9  1  0  0  0  0
  3  4  1  0  0  0  0
  3 18  1  0  0  0  0
  3 19  1  0  0  0  0
  4  8  1  0  0  0  0
  4  5  1  0  0  0  0
  5  6  2  0  0  0  0
  5 20  1  0  0  0  0
  6  7  1  0  0  0  0
  6 21  1  0  0  0  0
  7  8  2  0  0  0  0
  8 22  1  0  0  0  0
  9 10  1  0  0  0  0
  9 23  1  0  0  0  0
 10 11  2  0  0  0  0
 10 12  1  0  0  0  0
 12 13  1  0  0  0  0
 12 24  1  0  0  0  0
 13 17  1  0  0  0  0
 13 14  1  0  0  0  0
 13 25  1  0  0  0  0
 14 15  1  0  0  0  0
 14 26  1  0  0  0  0
 14 27  1  0  0  0  0
 15 16  1  0  0  0  0
 15 28  1  0  0  0  0
 15 29  1  0  0  0  0
 16 17  1  0  0  0  0
 16 30  1  0  0  0  0
 16 31  1  0  0  0  0
 17 32  1  0  0  0  0
 17 33  1  0  0  0  0
M  END
> <s_m_source_file>
AV-unprocessed.smi

> <i_m_source_file_index>
1333

> <i_lp_mmshare_version>
43012

> <i_f3d_flags>
0

> <s_epik_input>
W2NIXTFuW2NIXVtjSF1uMVtDSDJdQyg9TylbTkhdQyg9TylbTkhdW0NIXTJbQ0gyXVtDSDJdW0NIMl1bQ0gyXTI=

> <s_epik_cmdline>
J2VwaWtfcHl0aG9uJywgJy1waCcsICc3LjAnLCAnLXRuJywgJzgnLCAnLW1hJywgJzIwMCcsICctbWV0YWxfYmluZGluZycsICctaW1hZScsICc8aW5maWxlLm1hZT4nLCAnLW9tYWUnLCAnPG91dGZpbGUubWFlPic=

> <r_lp_tautomer_probability>
1

> <r_epik_Ionization_Penalty>
0.171964

> <r_epik_Ionization_Penalty_Charging>
0.171937

> <r_epik_Ionization_Penalty_Neutral>
2.73302e-05

> <r_epik_State_Penalty>
0.161333

> <r_epik_Charging_Adjusted_Penalty>
0.33327

> <i_epik_Tot_Q>
0

> <i_epik_Tot_abs_Q>
0

> <r_epik_Metal_State_Penalty>
0.124658

> <b_epik_Metal_Only>
0

> <s_lp_Force_Field>
OPLS_2005

> <r_lp_Energy>
24.334

> <b_lp_Chiralities_Consistent>
1

> <s_lp_Variant>
AV-unprocessed.smi:1333-1

> <Gold.Version>
5.8.1

> <Gold.Id.Protein>
6NUR|6NUR_protein|mol2

> <Gold.PLP.Fitness>
40.7740

> <Gold.PLP.PLP>
-26.9478

> <Gold.PLP.part.hbond>
-2.0000

> <Gold.PLP.part.metal>
0.0000

> <Gold.PLP.part.buried>
-4.0688

> <Gold.PLP.part.nonpolar>
-21.8288

> <Gold.PLP.part.repulsive>
0.4306

> <Gold.PLP.ligand.clash>
0.0000

> <Gold.PLP.ligand.torsion>
0.2914

> <Gold.PLP.Chemscore.Hbond>
1.8000

> <Gold.PLP.Chemscore.CHOScore>
3.0000

> <Gold.PLP.Chemscore.Metal>
0.0000

> <Gold.Chemscore.Hbonds>
donor molecule, donor type, donor heavy atom, donor atom, acceptor molecule, acceptor atom, score
      L1  H     9    23       P1  7948  1.00
      L1  H    12    24       P1  7948  0.80
      L1  C     5    20       P1 10186  1.00
      L1  C     6    21       P1 10952  1.00
      L1  C     8    22       P1 10747  0.95

> <Gold.PLP.Chemscore.Internal.Correction>
0.0091

> <Gold.Rescore>
     Score         DG    S(hbond)    S(metal)    S(lipo)     H(rot)  DE(clash)    DE(int)     intcor
     12.07     -13.67       1.88        0.00      54.08       1.73       0.00       1.60       ----

> <Gold.Chemscore.Fitness>
12.0652

> <Gold.Chemscore.DG>
-13.6673

> <Gold.Chemscore.ZeroCoef>
-5.4800

> <Gold.Chemscore.Hbond>
1.8799

> <Gold.Chemscore.Metal>
0.0000

> <Gold.Chemscore.Lipo>
54.0831

> <Gold.Chemscore.Internal_Hbond>
0.0000

> <Gold.Chemscore.DEClash>
0.0021

> <Gold.Chemscore.DEInternal>
1.5999

> <Gold.Chemscore.Rot>
1.7263

> <Gold.Chemscore.Internal.Correction>
   9.000000E+99

> <Gold.Chemscore.Hbonds>
donor molecule, donor type, donor heavy atom, donor atom, acceptor molecule, acceptor atom, score
      L1  H     9    23       P1  7948  0.97
      L1  H    12    24       P1  7948  0.77

> <Gold.Chemscore.Hbond.Weighted>
-6.2788

> <Gold.Chemscore.Metal.Weighted>
-0.0000

> <Gold.Chemscore.Lipo.Weighted>
-6.3277

> <Gold.Chemscore.Internal_Hbond.Weighted>
0.0000

> <Gold.Chemscore.DEClash.Weighted>
0.0021

> <Gold.Chemscore.DEInternal.Weighted>
1.5999

> <Gold.Chemscore.Rot.Weighted>
4.4193

> <Gold.Chemscore.Internal.Correction.Weighted>
   9.000000E+99

> <Gold.Protein.RotatedTorsions>
[ 6907 6896 6895 6894 ] final   -1.26 input  -60.11 | X-H torsion
[ 7974 7965 7964 7962 ] final   97.91 input  175.53 | X-H torsion
[ 8008 7997 7996 7995 ] final  -30.96 input   59.86 | X-H torsion
[ 10167 10162 10161 10158 ] final -153.17 input  -65.29 | X-H torsion
[ 10718 10713 10712 10709 ] final   78.19 input   66.30 | X-H torsion
[ 10763 10752 10751 10750 ] final -134.60 input  -60.55 | X-H torsion
[ 11005 11000 10999 10996 ] final  130.11 input  -57.11 | X-H torsion

> <Gold.Protein.ActiveResidues>
 VAL166  LYS551  ARG553  GLY616  TRP617  ASP618  TYR619  PRO620  LYS621  CYS622 
 ASP623  PHE694  ASN695  SER759  ASP760  ASP761  ALA762  ILE779  LEU786  VAL792 
 PHE793  MET794  SER795  GLU796  ALA797  LYS798  CYS799  TRP800  GLU811  SER814 

> <Gold.Protein.RotatedAtoms>
  151.5490  135.1067  159.9944 H   0  0  0  0  0  0  0  0  0  0  0  0  # atno 6907 bound_to 6896
  152.4500  133.7607  159.6755 H   0  0  0  0  0  0  0  0  0  0  0  0  # atno 6908 bound_to 6896
  150.8426  133.7845  159.3079 H   0  0  0  0  0  0  0  0  0  0  0  0  # atno 6909 bound_to 6896
  145.4192  139.2323  143.3205 H   0  0  0  0  0  0  0  0  0  0  0  0  # atno 7974 bound_to 7965
  154.4231  140.1777  156.1490 H   0  0  0  0  0  0  0  0  0  0  0  0  # atno 8008 bound_to 7997
  155.9930  140.3367  155.6747 H   0  0  0  0  0  0  0  0  0  0  0  0  # atno 8009 bound_to 7997
  155.6346  140.0673  157.2628 H   0  0  0  0  0  0  0  0  0  0  0  0  # atno 8010 bound_to 7997
  139.7119  143.9095  152.2471 H   0  0  0  0  0  0  0  0  0  0  0  0  # atno 10167 bound_to 10162
  157.6736  130.9857  150.1751 H   0  0  0  0  0  0  0  0  0  0  0  0  # atno 10718 bound_to 10713
  154.8716  135.3729  154.4762 H   0  0  0  0  0  0  0  0  0  0  0  0  # atno 10763 bound_to 10752
  153.5419  135.7026  153.5637 H   0  0  0  0  0  0  0  0  0  0  0  0  # atno 10764 bound_to 10752
  153.3795  135.4000  155.1811 H   0  0  0  0  0  0  0  0  0  0  0  0  # atno 10765 bound_to 10752
  139.9654  134.9592  156.9247 H   0  0  0  0  0  0  0  0  0  0  0  0  # atno 11005 bound_to 11000
  146.2665  140.4914  142.8832 LP  0  0  0  0  0  0  0  0  0  0  0  0  # atno 17320 bound_to 7965
  144.8256  140.6623  143.6324 LP  0  0  0  0  0  0  0  0  0  0  0  0  # atno 17321 bound_to 7965
  139.8966  144.6935  150.8711 LP  0  0  0  0  0  0  0  0  0  0  0  0  # atno 17342 bound_to 10162
  140.7735  143.3545  151.1948 LP  0  0  0  0  0  0  0  0  0  0  0  0  # atno 17343 bound_to 10162
  156.2496  130.3699  149.8247 LP  0  0  0  0  0  0  0  0  0  0  0  0  # atno 17370 bound_to 10713
  156.6024  130.8552  151.3435 LP  0  0  0  0  0  0  0  0  0  0  0  0  # atno 17371 bound_to 10713
  140.5409  134.0721  155.7341 LP  0  0  0  0  0  0  0  0  0  0  0  0  # atno 17394 bound_to 11000
  141.1333  133.9265  157.2489 LP  0  0  0  0  0  0  0  0  0  0  0  0  # atno 17395 bound_to 11000

$$$$
