AV-unprocessed.smi:204|AV-procd|sdf|1598|dock9
  -GOLD-   2262019503D 1   1.00000     0.00000
 Structure written by MMmdl.
 53 56  0  0  0  0  0  0  0  0  1 V2000
  148.3859  128.3927  151.6610 C   0  0  0  0  0  0  0  0  0  0  0  0
  147.9192  129.4210  152.6862 C   0  0  0  0  0  0  0  0  0  0  0  0
  147.3870  129.0535  153.7331 O   0  0  0  0  0  0  0  0  0  0  0  0
  148.1249  130.7073  152.3712 N   0  0  0  0  0  0  0  0  0  0  0  0
  147.7484  131.8348  153.2150 C   0  0  0  0  0  0  0  0  0  0  0  0
  148.9856  132.5843  153.7432 C   0  0  2  0  0  0  0  0  0  0  0  0
  149.7264  131.8008  154.8491 C   0  0  0  0  0  0  0  0  0  0  0  0
  150.9243  132.6052  155.3782 C   0  0  0  0  0  0  0  0  0  0  0  0
  150.4864  134.0026  155.8430 C   0  0  0  0  0  0  0  0  0  0  0  0
  149.7677  134.6934  154.7773 N   0  0  0  0  0  0  0  0  0  0  0  0
  149.5445  135.9966  155.0456 C   0  0  0  0  0  0  0  0  0  0  0  0
  148.2591  136.3757  155.2467 N   0  0  0  0  0  0  0  0  0  0  0  0
  147.9755  137.6542  155.5142 C   0  0  0  0  0  0  0  0  0  0  0  0
  148.8103  138.6907  155.6195 N   0  0  0  0  0  0  0  0  0  0  0  0
  150.1038  138.3120  155.4101 C   0  0  0  0  0  0  0  0  0  0  0  0
  150.5572  136.9937  155.1219 C   0  0  0  0  0  0  0  0  0  0  0  0
  151.9388  136.9881  154.9742 N   0  0  0  0  0  0  0  0  0  0  0  0
  152.2832  138.2315  155.1696 C   0  0  0  0  0  0  0  0  0  0  0  0
  151.2435  139.0974  155.4259 N   0  0  0  0  0  0  0  0  0  0  0  0
  151.3491  140.5278  155.6728 C   0  0  0  0  0  0  0  0  0  0  0  0
  150.8498  140.9701  157.0647 C   0  0  0  0  0  0  0  0  0  0  0  0
  151.4867  140.1154  158.1751 C   0  0  0  0  0  0  0  0  0  0  0  0
  152.8643  139.9040  157.9395 O   0  0  0  0  0  0  0  0  0  0  0  0
  150.8741  142.4809  157.3397 C   0  0  0  0  0  0  0  0  0  0  0  0
  149.4985  142.4795  157.7756 O   0  0  0  0  0  0  0  0  0  0  0  0
  149.3333  141.1682  157.1958 C   0  0  0  0  0  0  0  0  0  0  0  0
  148.5991  133.9829  154.2642 C   0  0  0  0  0  0  0  0  0  0  0  0
  147.8562  128.5282  150.7176 H   0  0  0  0  0  0  0  0  0  0  0  0
  148.1988  127.3784  152.0149 H   0  0  0  0  0  0  0  0  0  0  0  0
  149.4553  128.4975  151.4761 H   0  0  0  0  0  0  0  0  0  0  0  0
  148.5696  130.9200  151.4898 H   0  0  0  0  0  0  0  0  0  0  0  0
  147.1235  132.5133  152.6322 H   0  0  0  0  0  0  0  0  0  0  0  0
  147.1408  131.4807  154.0499 H   0  0  0  0  0  0  0  0  0  0  0  0
  149.6746  132.7225  152.9081 H   0  0  0  0  0  0  0  0  0  0  0  0
  149.0415  131.5849  155.6704 H   0  0  0  0  0  0  0  0  0  0  0  0
  150.0754  130.8385  154.4739 H   0  0  0  0  0  0  0  0  0  0  0  0
  151.4021  132.0705  156.1994 H   0  0  0  0  0  0  0  0  0  0  0  0
  151.6741  132.7017  154.5919 H   0  0  0  0  0  0  0  0  0  0  0  0
  149.8439  133.9172  156.7205 H   0  0  0  0  0  0  0  0  0  0  0  0
  151.3598  134.5851  156.1401 H   0  0  0  0  0  0  0  0  0  0  0  0
  146.9299  137.8793  155.6643 H   0  0  0  0  0  0  0  0  0  0  0  0
  153.3128  138.5559  155.1233 H   0  0  0  0  0  0  0  0  0  0  0  0
  152.3920  140.8138  155.5310 H   0  0  0  0  0  0  0  0  0  0  0  0
  150.7973  141.0485  154.8894 H   0  0  0  0  0  0  0  0  0  0  0  0
  151.3554  140.5674  159.1582 H   0  0  0  0  0  0  0  0  0  0  0  0
  151.0051  139.1382  158.2287 H   0  0  0  0  0  0  0  0  0  0  0  0
  153.2132  139.3826  158.6467 H   0  0  0  0  0  0  0  0  0  0  0  0
  151.5672  142.7797  158.1271 H   0  0  0  0  0  0  0  0  0  0  0  0
  151.0074  143.0975  156.4499 H   0  0  0  0  0  0  0  0  0  0  0  0
  148.8079  141.2120  156.2404 H   0  0  0  0  0  0  0  0  0  0  0  0
  148.8477  140.4663  157.8749 H   0  0  0  0  0  0  0  0  0  0  0  0
  148.1435  134.5656  153.4619 H   0  0  0  0  0  0  0  0  0  0  0  0
  147.8520  133.8873  155.0529 H   0  0  0  0  0  0  0  0  0  0  0  0
  1  2  1  0  0  0  0
  1 28  1  0  0  0  0
  1 29  1  0  0  0  0
  1 30  1  0  0  0  0
  2  3  2  0  0  0  0
  2  4  1  0  0  0  0
  4  5  1  0  0  0  0
  4 31  1  0  0  0  0
  5  6  1  0  0  0  0
  5 32  1  0  0  0  0
  5 33  1  0  0  0  0
  6 27  1  0  0  0  0
  6  7  1  0  0  0  0
  6 34  1  0  0  0  0
  7  8  1  0  0  0  0
  7 35  1  0  0  0  0
  7 36  1  0  0  0  0
  8  9  1  0  0  0  0
  8 37  1  0  0  0  0
  8 38  1  0  0  0  0
  9 10  1  0  0  0  0
  9 39  1  0  0  0  0
  9 40  1  0  0  0  0
 10 11  1  0  0  0  0
 10 27  1  0  0  0  0
 11 16  1  0  0  0  0
 11 12  2  0  0  0  0
 12 13  1  0  0  0  0
 13 14  2  0  0  0  0
 13 41  1  0  0  0  0
 14 15  1  0  0  0  0
 15 19  1  0  0  0  0
 15 16  2  0  0  0  0
 16 17  1  0  0  0  0
 17 18  2  0  0  0  0
 18 19  1  0  0  0  0
 18 42  1  0  0  0  0
 19 20  1  0  0  0  0
 20 21  1  0  0  0  0
 20 43  1  0  0  0  0
 20 44  1  0  0  0  0
 21 26  1  0  0  0  0
 21 22  1  0  0  0  0
 21 24  1  0  0  0  0
 22 23  1  0  0  0  0
 22 45  1  0  0  0  0
 22 46  1  0  0  0  0
 23 47  1  0  0  0  0
 24 25  1  0  0  0  0
 24 48  1  0  0  0  0
 24 49  1  0  0  0  0
 25 26  1  0  0  0  0
 26 50  1  0  0  0  0
 26 51  1  0  0  0  0
 27 52  1  0  0  0  0
 27 53  1  0  0  0  0
M  END
> <s_m_source_file>
AV-unprocessed.smi

> <i_m_source_file_index>
204

> <i_lp_mmshare_version>
43012

> <i_f3d_flags>
0

> <s_epik_input>
W0NIM11DKD1PKVtOSF1bQ0gyXVtDQEBIXTFbQ0gyXVtDSDJdW0NIMl1OKFtDSDJdMSljKG5bY0hdbjIpYyhjMjMpbltjSF1uM1tDSDJdQzQoW0NIMl1bT0hdKVtDSDJdT1tDSDJdNA==

> <s_epik_cmdline>
J2VwaWtfcHl0aG9uJywgJy1waCcsICc3LjAnLCAnLXRuJywgJzgnLCAnLW1hJywgJzIwMCcsICctbWV0YWxfYmluZGluZycsICctaW1hZScsICc8aW5maWxlLm1hZT4nLCAnLW9tYWUnLCAnPG91dGZpbGUubWFlPic=

> <r_lp_tautomer_probability>
1

> <r_epik_Ionization_Penalty>
0.00166599

> <r_epik_Ionization_Penalty_Charging>
0

> <r_epik_Ionization_Penalty_Neutral>
0.00166599

> <r_epik_State_Penalty>
0.000989951

> <r_epik_Charging_Adjusted_Penalty>
0.000989951

> <i_epik_Tot_Q>
0

> <i_epik_Tot_abs_Q>
0

> <r_epik_Metal_State_Penalty>
-0

> <b_epik_Metal_Only>
0

> <s_lp_Force_Field>
OPLS_2005

> <r_lp_Energy>
36.8691

> <b_lp_Chiralities_Consistent>
1

> <s_lp_Variant>
AV-unprocessed.smi:204-1

> <Gold.Version>
5.8.1

> <Gold.Id.Protein>
6NUR|6NUR_protein|mol2

> <Gold.PLP.Fitness>
46.7184

> <Gold.PLP.PLP>
-38.9667

> <Gold.PLP.part.hbond>
-3.0000

> <Gold.PLP.part.metal>
0.0000

> <Gold.PLP.part.buried>
-4.2772

> <Gold.PLP.part.nonpolar>
-32.4241

> <Gold.PLP.part.repulsive>
0.6792

> <Gold.PLP.ligand.clash>
0.0000

> <Gold.PLP.ligand.torsion>
0.9175

> <Gold.PLP.Chemscore.Hbond>
3.0000

> <Gold.PLP.Chemscore.CHOScore>
0.0000

> <Gold.PLP.Chemscore.Metal>
0.0000

> <Gold.Chemscore.Hbonds>
donor molecule, donor type, donor heavy atom, donor atom, acceptor molecule, acceptor atom, score
      L1  H     4    31       P1 10747  0.34
      P1  H  7997  8008       L1    23  1.00
      P1  H 10752 10764       L1    17  1.00

> <Gold.PLP.Chemscore.Internal.Correction>
0.5866

> <Gold.Rescore>
     Score         DG    S(hbond)    S(metal)    S(lipo)     H(rot)  DE(clash)    DE(int)     intcor
     13.00     -14.78       2.82        0.00      71.74       3.33       0.02       1.76       ----

> <Gold.Chemscore.Fitness>
13.0041

> <Gold.Chemscore.DG>
-14.7786

> <Gold.Chemscore.ZeroCoef>
-5.4800

> <Gold.Chemscore.Hbond>
2.8202

> <Gold.Chemscore.Metal>
0.0000

> <Gold.Chemscore.Lipo>
71.7421

> <Gold.Chemscore.Internal_Hbond>
0.0000

> <Gold.Chemscore.DEClash>
0.0189

> <Gold.Chemscore.DEInternal>
1.7556

> <Gold.Chemscore.Rot>
3.3261

> <Gold.Chemscore.Internal.Correction>
   9.000000E+99

> <Gold.Chemscore.Hbonds>
donor molecule, donor type, donor heavy atom, donor atom, acceptor molecule, acceptor atom, score
      L1  H     4    31       P1 10747  0.33
      P1  H  7997  8008       L1    23  0.37
      P1  H 10752 10764       L1    17  0.94

> <Gold.Chemscore.Hbond.Weighted>
-9.4196

> <Gold.Chemscore.Metal.Weighted>
-0.0000

> <Gold.Chemscore.Lipo.Weighted>
-8.3938

> <Gold.Chemscore.Internal_Hbond.Weighted>
0.0000

> <Gold.Chemscore.DEClash.Weighted>
0.0189

> <Gold.Chemscore.DEInternal.Weighted>
1.7556

> <Gold.Chemscore.Rot.Weighted>
8.5149

> <Gold.Chemscore.Internal.Correction.Weighted>
   9.000000E+99

> <Gold.Protein.RotatedTorsions>
[ 6907 6896 6895 6894 ] final -101.36 input  -60.11 | X-H torsion
[ 7974 7965 7964 7962 ] final   27.25 input  175.53 | X-H torsion
[ 8008 7997 7996 7995 ] final  -62.81 input   59.86 | X-H torsion
[ 10167 10162 10161 10158 ] final    9.04 input  -65.29 | X-H torsion
[ 10718 10713 10712 10709 ] final  -72.51 input   66.30 | X-H torsion
[ 10763 10752 10751 10750 ] final  -57.11 input  -60.55 | X-H torsion
[ 11005 11000 10999 10996 ] final  116.57 input  -57.11 | X-H torsion

> <Gold.Protein.ActiveResidues>
 VAL166  LYS551  ARG553  GLY616  TRP617  ASP618  TYR619  PRO620  LYS621  CYS622 
 ASP623  PHE694  ASN695  SER759  ASP760  ASP761  ALA762  ILE779  LEU786  VAL792 
 PHE793  MET794  SER795  GLU796  ALA797  LYS798  CYS799  TRP800  GLU811  SER814 

> <Gold.Protein.RotatedAtoms>
  150.7152  134.0746  159.3876 H   0  0  0  0  0  0  0  0  0  0  0  0  # atno 6907 bound_to 6896
  151.8729  135.0480  160.0490 H   0  0  0  0  0  0  0  0  0  0  0  0  # atno 6908 bound_to 6896
  152.2629  133.5278  159.5429 H   0  0  0  0  0  0  0  0  0  0  0  0  # atno 6909 bound_to 6896
  146.1794  139.7217  142.8911 H   0  0  0  0  0  0  0  0  0  0  0  0  # atno 7974 bound_to 7965
  154.4520  140.0988  156.6644 H   0  0  0  0  0  0  0  0  0  0  0  0  # atno 8008 bound_to 7997
  155.5257  140.3480  155.4397 H   0  0  0  0  0  0  0  0  0  0  0  0  # atno 8009 bound_to 7997
  156.0699  140.1347  156.9829 H   0  0  0  0  0  0  0  0  0  0  0  0  # atno 8010 bound_to 7997
  140.6279  143.8060  150.7257 H   0  0  0  0  0  0  0  0  0  0  0  0  # atno 10167 bound_to 10162
  156.0317  130.4374  150.2604 H   0  0  0  0  0  0  0  0  0  0  0  0  # atno 10718 bound_to 10713
  154.2173  135.6384  153.5133 H   0  0  0  0  0  0  0  0  0  0  0  0  # atno 10763 bound_to 10752
  152.9976  135.5488  154.6152 H   0  0  0  0  0  0  0  0  0  0  0  0  # atno 10764 bound_to 10752
  154.5603  135.2908  155.0899 H   0  0  0  0  0  0  0  0  0  0  0  0  # atno 10765 bound_to 10752
  139.9045  134.9599  156.7218 H   0  0  0  0  0  0  0  0  0  0  0  0  # atno 11005 bound_to 11000
  145.4119  141.0397  143.3012 LP  0  0  0  0  0  0  0  0  0  0  0  0  # atno 17320 bound_to 7965
  144.8290  139.5661  143.6952 LP  0  0  0  0  0  0  0  0  0  0  0  0  # atno 17321 bound_to 7965
  140.1665  143.4231  152.2031 LP  0  0  0  0  0  0  0  0  0  0  0  0  # atno 17342 bound_to 10162
  139.5497  144.7327  151.4474 LP  0  0  0  0  0  0  0  0  0  0  0  0  # atno 17343 bound_to 10162
  157.0705  131.0115  151.3191 LP  0  0  0  0  0  0  0  0  0  0  0  0  # atno 17370 bound_to 10713
  157.5003  130.7875  149.7597 LP  0  0  0  0  0  0  0  0  0  0  0  0  # atno 17371 bound_to 10713
  140.6994  133.9319  155.8015 LP  0  0  0  0  0  0  0  0  0  0  0  0  # atno 17394 bound_to 11000
  141.0383  134.0658  157.3933 LP  0  0  0  0  0  0  0  0  0  0  0  0  # atno 17395 bound_to 11000

$$$$
