AV-unprocessed.smi:1589|AV-procd|sdf|6394|dock9
  -GOLD-   22720 7 33D 1   1.00000     0.00000
 Structure written by MMmdl.
 43 44  0  0  0  0  0  0  0  0  1 V2000
  153.9666  141.4256  160.9869 C   0  0  0  0  0  0  0  0  0  0  0  0
  153.2668  142.6115  160.2868 C   0  0  0  0  0  0  0  0  0  0  0  0
  152.2312  143.2104  161.2636 C   0  0  0  0  0  0  0  0  0  0  0  0
  152.6475  142.2055  159.0085 N   0  0  0  0  0  0  0  0  0  0  0  0
  151.7240  143.2377  158.5060 C   0  0  0  0  0  0  0  0  0  0  0  0
  151.0794  142.8114  157.1735 C   0  0  0  0  0  0  0  0  0  0  0  0
  150.3383  141.5637  157.3907 N   0  0  0  0  0  0  0  0  0  0  0  0
  148.9912  141.4007  157.4070 C   0  0  0  0  0  0  0  0  0  0  0  0
  148.4469  140.4184  157.9127 O   0  0  0  0  0  0  0  0  0  0  0  0
  148.3077  142.3955  156.8105 N   0  0  0  0  0  0  0  0  0  0  0  0
  146.9031  142.5201  156.6685 C   0  0  0  0  0  0  0  0  0  0  0  0
  145.8622  142.0580  157.5225 C   0  0  0  0  0  0  0  0  0  0  0  0
  144.6719  142.3714  157.0327 N   0  0  0  0  0  0  0  0  0  0  0  0
  144.9268  143.0244  155.8712 N   0  0  0  0  0  0  0  0  0  0  0  0
  143.8217  143.5198  155.0652 C   0  0  0  0  0  0  0  0  0  0  0  0
  142.5025  142.7936  155.3575 C   0  0  0  0  0  0  0  0  0  0  0  0
  142.2852  141.6596  154.6870 N   0  0  0  0  0  0  0  0  0  0  0  0
  141.6887  143.2384  156.1658 O   0  0  0  0  0  0  0  0  0  0  0  0
  146.2816  143.1335  155.6231 C   0  0  0  0  0  0  0  0  0  0  0  0
  151.2701  140.5150  157.8055 C   0  0  0  0  0  0  0  0  0  0  0  0
  151.9195  140.9308  159.1395 C   0  0  0  0  0  0  0  0  0  0  0  0
  154.2884  141.6993  161.9921 H   0  0  0  0  0  0  0  0  0  0  0  0
  154.8673  141.1055  160.4644 H   0  0  0  0  0  0  0  0  0  0  0  0
  153.3003  140.5670  161.0795 H   0  0  0  0  0  0  0  0  0  0  0  0
  154.0185  143.3755  160.0821 H   0  0  0  0  0  0  0  0  0  0  0  0
  152.6693  143.3686  162.2494 H   0  0  0  0  0  0  0  0  0  0  0  0
  151.3728  142.5496  161.3898 H   0  0  0  0  0  0  0  0  0  0  0  0
  151.8692  144.1856  160.9395 H   0  0  0  0  0  0  0  0  0  0  0  0
  150.9524  143.4439  159.2494 H   0  0  0  0  0  0  0  0  0  0  0  0
  152.2535  144.1707  158.3224 H   0  0  0  0  0  0  0  0  0  0  0  0
  150.4687  143.6276  156.7882 H   0  0  0  0  0  0  0  0  0  0  0  0
  151.8503  142.6480  156.4184 H   0  0  0  0  0  0  0  0  0  0  0  0
  148.8573  143.1529  156.4316 H   0  0  0  0  0  0  0  0  0  0  0  0
  145.9166  141.5192  158.4565 H   0  0  0  0  0  0  0  0  0  0  0  0
  143.6908  144.5884  155.2439 H   0  0  0  0  0  0  0  0  0  0  0  0
  144.0857  143.3991  154.0138 H   0  0  0  0  0  0  0  0  0  0  0  0
  141.4368  141.1346  154.8422 H   0  0  0  0  0  0  0  0  0  0  0  0
  142.9758  141.3273  154.0291 H   0  0  0  0  0  0  0  0  0  0  0  0
  146.6727  143.6247  154.7441 H   0  0  0  0  0  0  0  0  0  0  0  0
  150.7863  139.5442  157.9199 H   0  0  0  0  0  0  0  0  0  0  0  0
  152.0334  140.3762  157.0382 H   0  0  0  0  0  0  0  0  0  0  0  0
  152.5962  140.1297  159.4309 H   0  0  0  0  0  0  0  0  0  0  0  0
  151.1599  141.0128  159.9188 H   0  0  0  0  0  0  0  0  0  0  0  0
  1  2  1  0  0  0  0
  1 22  1  0  0  0  0
  1 23  1  0  0  0  0
  1 24  1  0  0  0  0
  2  3  1  0  0  0  0
  2  4  1  0  0  0  0
  2 25  1  0  0  0  0
  3 26  1  0  0  0  0
  3 27  1  0  0  0  0
  3 28  1  0  0  0  0
  4 21  1  0  0  0  0
  4  5  1  0  0  0  0
  5  6  1  0  0  0  0
  5 29  1  0  0  0  0
  5 30  1  0  0  0  0
  6  7  1  0  0  0  0
  6 31  1  0  0  0  0
  6 32  1  0  0  0  0
  7  8  1  0  0  0  0
  7 20  1  0  0  0  0
  8  9  2  0  0  0  0
  8 10  1  0  0  0  0
 10 11  1  0  0  0  0
 10 33  1  0  0  0  0
 11 19  2  0  0  0  0
 11 12  1  0  0  0  0
 12 13  2  0  0  0  0
 12 34  1  0  0  0  0
 13 14  1  0  0  0  0
 14 15  1  0  0  0  0
 14 19  1  0  0  0  0
 15 16  1  0  0  0  0
 15 35  1  0  0  0  0
 15 36  1  0  0  0  0
 16 17  1  0  0  0  0
 16 18  2  0  0  0  0
 17 37  1  0  0  0  0
 17 38  1  0  0  0  0
 19 39  1  0  0  0  0
 20 21  1  0  0  0  0
 20 40  1  0  0  0  0
 20 41  1  0  0  0  0
 21 42  1  0  0  0  0
 21 43  1  0  0  0  0
M  END
> <s_m_source_file>
AV-unprocessed.smi

> <i_m_source_file_index>
1589

> <i_lp_mmshare_version>
43012

> <i_f3d_flags>
0

> <s_epik_input>
W0NIM11bQ0hdKFtDSDNdKU4xW0NIMl1bQ0gyXU4oW0NIMl1bQ0gyXTEpQyg9TylbTkhdYzJbY0hdbm4oW2NIXTIpW0NIMl1DKD1PKVtOSDJd

> <s_epik_cmdline>
J2VwaWtfcHl0aG9uJywgJy1waCcsICc3LjAnLCAnLXRuJywgJzgnLCAnLW1hJywgJzIwMCcsICctbWV0YWxfYmluZGluZycsICctaW1hZScsICc8aW5maWxlLm1hZT4nLCAnLW9tYWUnLCAnPG91dGZpbGUubWFlPic=

> <r_lp_tautomer_probability>
1

> <r_epik_Ionization_Penalty>
0.648545

> <r_epik_Ionization_Penalty_Charging>
0

> <r_epik_Ionization_Penalty_Neutral>
0.648545

> <r_epik_State_Penalty>
0.6668

> <r_epik_Charging_Adjusted_Penalty>
0.6668

> <i_epik_Tot_Q>
0

> <i_epik_Tot_abs_Q>
0

> <r_epik_Metal_State_Penalty>
0.666798

> <b_epik_Metal_Only>
0

> <s_lp_Force_Field>
OPLS_2005

> <r_lp_Energy>
50.3263

> <b_lp_Chiralities_Consistent>
1

> <s_lp_Variant>
AV-unprocessed.smi:1589-2

> <Gold.Version>
5.8.1

> <Gold.Id.Protein>
6NUR|6NUR_protein|mol2

> <Gold.PLP.Fitness>
36.8286

> <Gold.PLP.PLP>
-32.9844

> <Gold.PLP.part.hbond>
-3.5486

> <Gold.PLP.part.metal>
0.0000

> <Gold.PLP.part.buried>
-4.2661

> <Gold.PLP.part.nonpolar>
-25.3146

> <Gold.PLP.part.repulsive>
0.0451

> <Gold.PLP.ligand.clash>
0.0000

> <Gold.PLP.ligand.torsion>
1.1871

> <Gold.PLP.Chemscore.Hbond>
2.0000

> <Gold.PLP.Chemscore.CHOScore>
0.0588

> <Gold.PLP.Chemscore.Metal>
0.0000

> <Gold.Chemscore.Hbonds>
donor molecule, donor type, donor heavy atom, donor atom, acceptor molecule, acceptor atom, score
      L1  H    10    33       P1  8028  0.94
      L1  H    17    38       P1 10175  0.70
      L1  C    19    39       P1  8028  0.06

> <Gold.PLP.Chemscore.Internal.Correction>
0.0419

> <Gold.Rescore>
     Score         DG    S(hbond)    S(metal)    S(lipo)     H(rot)  DE(clash)    DE(int)     intcor
     14.61     -15.96       1.78        0.00      78.47       1.82       0.00       1.35       ----

> <Gold.Chemscore.Fitness>
14.6107

> <Gold.Chemscore.DG>
-15.9589

> <Gold.Chemscore.ZeroCoef>
-5.4800

> <Gold.Chemscore.Hbond>
1.7832

> <Gold.Chemscore.Metal>
0.0000

> <Gold.Chemscore.Lipo>
78.4662

> <Gold.Chemscore.Internal_Hbond>
0.0000

> <Gold.Chemscore.DEClash>
0.0000

> <Gold.Chemscore.DEInternal>
1.3482

> <Gold.Chemscore.Rot>
1.8193

> <Gold.Chemscore.Internal.Correction>
   9.000000E+99

> <Gold.Chemscore.Hbonds>
donor molecule, donor type, donor heavy atom, donor atom, acceptor molecule, acceptor atom, score
      L1  H    10    33       P1  8028  0.89
      L1  H    17    38       P1 10175  0.07

> <Gold.Chemscore.Hbond.Weighted>
-5.9559

> <Gold.Chemscore.Metal.Weighted>
-0.0000

> <Gold.Chemscore.Lipo.Weighted>
-9.1805

> <Gold.Chemscore.Internal_Hbond.Weighted>
0.0000

> <Gold.Chemscore.DEClash.Weighted>
0.0000

> <Gold.Chemscore.DEInternal.Weighted>
1.3482

> <Gold.Chemscore.Rot.Weighted>
4.6575

> <Gold.Chemscore.Internal.Correction.Weighted>
   9.000000E+99

> <Gold.Protein.RotatedTorsions>
[ 6907 6896 6895 6894 ] final  111.47 input  -60.11 | X-H torsion
[ 7974 7965 7964 7962 ] final  140.44 input  175.53 | X-H torsion
[ 8008 7997 7996 7995 ] final -113.72 input   59.86 | X-H torsion
[ 10167 10162 10161 10158 ] final -147.17 input  -65.29 | X-H torsion
[ 10718 10713 10712 10709 ] final   93.45 input   66.30 | X-H torsion
[ 10763 10752 10751 10750 ] final   80.45 input  -60.55 | X-H torsion
[ 11005 11000 10999 10996 ] final  156.43 input  -57.11 | X-H torsion

> <Gold.Protein.ActiveResidues>
 VAL166  LYS551  ARG553  GLY616  TRP617  ASP618  TYR619  PRO620  LYS621  CYS622 
 ASP623  PHE694  ASN695  SER759  ASP760  ASP761  ALA762  ILE779  LEU786  VAL792 
 PHE793  MET794  SER795  GLU796  ALA797  LYS798  CYS799  TRP800  GLU811  SER814 

> <Gold.Protein.RotatedAtoms>
  152.4967  133.8653  159.7270 H   0  0  0  0  0  0  0  0  0  0  0  0  # atno 6907 bound_to 6896
  150.9154  133.6937  159.2851 H   0  0  0  0  0  0  0  0  0  0  0  0  # atno 6908 bound_to 6896
  151.4332  135.1016  159.9701 H   0  0  0  0  0  0  0  0  0  0  0  0  # atno 6909 bound_to 6896
  144.9186  139.5197  143.5674 H   0  0  0  0  0  0  0  0  0  0  0  0  # atno 7974 bound_to 7965
  155.0251  140.0393  157.2452 H   0  0  0  0  0  0  0  0  0  0  0  0  # atno 8008 bound_to 7997
  154.7344  140.2737  155.6404 H   0  0  0  0  0  0  0  0  0  0  0  0  # atno 8009 bound_to 7997
  156.2849  140.2678  156.2054 H   0  0  0  0  0  0  0  0  0  0  0  0  # atno 8010 bound_to 7997
  139.7646  143.8326  152.2613 H   0  0  0  0  0  0  0  0  0  0  0  0  # atno 10167 bound_to 10162
  157.6954  131.0479  150.4036 H   0  0  0  0  0  0  0  0  0  0  0  0  # atno 10718 bound_to 10713
  153.1035  135.4802  154.8909 H   0  0  0  0  0  0  0  0  0  0  0  0  # atno 10763 bound_to 10752
  154.7404  135.3081  154.8740 H   0  0  0  0  0  0  0  0  0  0  0  0  # atno 10764 bound_to 10752
  153.9349  135.6840  153.4798 H   0  0  0  0  0  0  0  0  0  0  0  0  # atno 10765 bound_to 10752
  140.1674  134.8567  157.2649 H   0  0  0  0  0  0  0  0  0  0  0  0  # atno 11005 bound_to 11000
  146.3194  139.8049  142.8958 LP  0  0  0  0  0  0  0  0  0  0  0  0  # atno 17320 bound_to 7965
  145.3333  141.0271  143.3434 LP  0  0  0  0  0  0  0  0  0  0  0  0  # atno 17321 bound_to 7965
  139.8343  144.7239  150.9411 LP  0  0  0  0  0  0  0  0  0  0  0  0  # atno 17342 bound_to 10162
  140.7810  143.4041  151.1099 LP  0  0  0  0  0  0  0  0  0  0  0  0  # atno 17343 bound_to 10162
  156.4427  130.3995  149.6686 LP  0  0  0  0  0  0  0  0  0  0  0  0  # atno 17370 bound_to 10713
  156.3864  130.7605  151.2602 LP  0  0  0  0  0  0  0  0  0  0  0  0  # atno 17371 bound_to 10713
  140.2417  134.3787  155.7478 LP  0  0  0  0  0  0  0  0  0  0  0  0  # atno 17394 bound_to 11000
  141.2215  133.7269  156.8799 LP  0  0  0  0  0  0  0  0  0  0  0  0  # atno 17395 bound_to 11000

$$$$
