AV-unprocessed.smi:240|AV-procd|sdf|1835|dock4
  -GOLD-   2262020443D 1   1.00000     0.00000
 Structure written by MMmdl.
 55 59  0  0  0  0  0  0  0  0  1 V2000
  149.5718  143.8812  158.1797 O   0  0  0  0  0  0  0  0  0  0  0  0
  150.7904  143.1700  158.0928 C   0  0  1  0  0  0  0  0  0  0  0  0
  151.6529  143.4422  159.3388 C   0  0  0  0  0  0  0  0  0  0  0  0
  151.7546  142.1108  160.0861 C   0  0  0  0  0  0  0  0  0  0  0  0
  151.6081  141.0547  158.9944 C   0  0  0  0  0  0  0  0  0  0  0  0
  150.5404  141.6425  158.0611 C   0  0  2  0  0  0  0  0  0  0  0  0
  150.4503  140.9732  156.6528 C   0  0  2  0  0  0  0  0  0  0  0  0
  149.9769  141.9457  155.5394 C   0  0  0  0  0  0  0  0  0  0  0  0
  149.8948  141.2757  154.2878 O   0  0  0  0  0  0  0  0  0  0  0  0
  148.9473  140.2185  154.3193 C   0  0  0  0  0  0  0  0  0  0  0  0
  149.4196  139.1698  155.3324 C   0  0  0  0  0  0  0  0  0  0  0  0
  149.6004  139.7715  156.6495 N   0  0  0  0  0  0  0  0  0  0  0  0
  149.8859  138.8045  157.5536 C   0  0  0  0  0  0  0  0  0  0  0  0
  151.1728  138.5597  157.9175 N   0  0  0  0  0  0  0  0  0  0  0  0
  151.4434  137.5983  158.8055 C   0  0  0  0  0  0  0  0  0  0  0  0
  150.5960  136.7815  159.4359 N   0  0  0  0  0  0  0  0  0  0  0  0
  149.3042  137.0237  159.0688 C   0  0  0  0  0  0  0  0  0  0  0  0
  148.8692  137.9987  158.1289 C   0  0  0  0  0  0  0  0  0  0  0  0
  147.4898  137.9446  157.9854 N   0  0  0  0  0  0  0  0  0  0  0  0
  147.1276  136.9904  158.7983 C   0  0  0  0  0  0  0  0  0  0  0  0
  148.1486  136.4008  159.5118 N   0  0  0  0  0  0  0  0  0  0  0  0
  148.0238  135.3223  160.4830 C   0  0  0  0  0  0  0  0  0  0  0  0
  146.8366  135.4604  161.4728 C   0  0  2  0  0  0  0  0  0  0  0  0
  146.9281  134.3695  162.3708 O   0  0  0  0  0  0  0  0  0  0  0  0
  145.4459  135.4255  160.8330 C   0  0  0  0  0  0  0  0  0  0  0  0
  144.6274  136.3510  161.7230 C   0  0  0  0  0  0  0  0  0  0  0  0
  145.5546  137.3785  162.0213 O   0  0  0  0  0  0  0  0  0  0  0  0
  146.8057  136.7643  162.3016 C   0  0  0  0  0  0  0  0  0  0  0  0
  149.5115  144.4659  157.4395 H   0  0  0  0  0  0  0  0  0  0  0  0
  151.3195  143.5194  157.2080 H   0  0  0  0  0  0  0  0  0  0  0  0
  152.6494  143.7535  159.0227 H   0  0  0  0  0  0  0  0  0  0  0  0
  151.2568  144.2353  159.9747 H   0  0  0  0  0  0  0  0  0  0  0  0
  152.6861  142.0140  160.6446 H   0  0  0  0  0  0  0  0  0  0  0  0
  150.9298  142.0226  160.7945 H   0  0  0  0  0  0  0  0  0  0  0  0
  152.5667  140.9396  158.4909 H   0  0  0  0  0  0  0  0  0  0  0  0
  151.3227  140.0811  159.3937 H   0  0  0  0  0  0  0  0  0  0  0  0
  149.6034  141.4586  158.5887 H   0  0  0  0  0  0  0  0  0  0  0  0
  151.4567  140.6520  156.3791 H   0  0  0  0  0  0  0  0  0  0  0  0
  149.0081  142.3897  155.7662 H   0  0  0  0  0  0  0  0  0  0  0  0
  150.6790  142.7684  155.4152 H   0  0  0  0  0  0  0  0  0  0  0  0
  147.9572  140.5987  154.5775 H   0  0  0  0  0  0  0  0  0  0  0  0
  148.8727  139.7764  153.3258 H   0  0  0  0  0  0  0  0  0  0  0  0
  148.6903  138.3599  155.3859 H   0  0  0  0  0  0  0  0  0  0  0  0
  150.3621  138.7323  154.9988 H   0  0  0  0  0  0  0  0  0  0  0  0
  152.4878  137.4662  159.0472 H   0  0  0  0  0  0  0  0  0  0  0  0
  146.0944  136.6935  158.9052 H   0  0  0  0  0  0  0  0  0  0  0  0
  147.9388  134.3846  159.9322 H   0  0  0  0  0  0  0  0  0  0  0  0
  148.9613  135.2612  161.0373 H   0  0  0  0  0  0  0  0  0  0  0  0
  147.0016  133.5727  161.8681 H   0  0  0  0  0  0  0  0  0  0  0  0
  145.4563  135.8503  159.8319 H   0  0  0  0  0  0  0  0  0  0  0  0
  145.0208  134.4237  160.7552 H   0  0  0  0  0  0  0  0  0  0  0  0
  143.7389  136.7403  161.2254 H   0  0  0  0  0  0  0  0  0  0  0  0
  144.3206  135.8487  162.6417 H   0  0  0  0  0  0  0  0  0  0  0  0
  146.8631  136.5639  163.3730 H   0  0  0  0  0  0  0  0  0  0  0  0
  147.6139  137.4522  162.0665 H   0  0  0  0  0  0  0  0  0  0  0  0
  1  2  1  0  0  0  0
  1 29  1  0  0  0  0
  2  6  1  0  0  0  0
  2  3  1  0  0  0  0
  2 30  1  0  0  0  0
  3  4  1  0  0  0  0
  3 31  1  0  0  0  0
  3 32  1  0  0  0  0
  4  5  1  0  0  0  0
  4 33  1  0  0  0  0
  4 34  1  0  0  0  0
  5  6  1  0  0  0  0
  5 35  1  0  0  0  0
  5 36  1  0  0  0  0
  6  7  1  0  0  0  0
  6 37  1  0  0  0  0
  7 12  1  0  0  0  0
  7  8  1  0  0  0  0
  7 38  1  0  0  0  0
  8  9  1  0  0  0  0
  8 39  1  0  0  0  0
  8 40  1  0  0  0  0
  9 10  1  0  0  0  0
 10 11  1  0  0  0  0
 10 41  1  0  0  0  0
 10 42  1  0  0  0  0
 11 12  1  0  0  0  0
 11 43  1  0  0  0  0
 11 44  1  0  0  0  0
 12 13  1  0  0  0  0
 13 18  1  0  0  0  0
 13 14  2  0  0  0  0
 14 15  1  0  0  0  0
 15 16  2  0  0  0  0
 15 45  1  0  0  0  0
 16 17  1  0  0  0  0
 17 21  1  0  0  0  0
 17 18  2  0  0  0  0
 18 19  1  0  0  0  0
 19 20  2  0  0  0  0
 20 21  1  0  0  0  0
 20 46  1  0  0  0  0
 21 22  1  0  0  0  0
 22 23  1  0  0  0  0
 22 47  1  0  0  0  0
 22 48  1  0  0  0  0
 23 28  1  0  0  0  0
 23 24  1  0  0  0  0
 23 25  1  0  0  0  0
 24 49  1  0  0  0  0
 25 26  1  0  0  0  0
 25 50  1  0  0  0  0
 25 51  1  0  0  0  0
 26 27  1  0  0  0  0
 26 52  1  0  0  0  0
 26 53  1  0  0  0  0
 27 28  1  0  0  0  0
 28 54  1  0  0  0  0
 28 55  1  0  0  0  0
M  END
> <s_m_source_file>
AV-unprocessed.smi

> <i_m_source_file_index>
240

> <i_lp_mmshare_version>
43012

> <i_f3d_flags>
0

> <s_epik_input>
W09IXVtDQEBIXTFbQ0gyXVtDSDJdW0NIMl1bQ0BIXTFbQ0BASF0yW0NIMl1PW0NIMl1bQ0gyXU4yYyhuW2NIXW4zKWMoYzM0KW5bY0hdbjRbQ0gyXVtDQEBdNShbT0hdKVtDSDJdW0NIMl1PW0NIMl01

> <s_epik_cmdline>
J2VwaWtfcHl0aG9uJywgJy1waCcsICc3LjAnLCAnLXRuJywgJzgnLCAnLW1hJywgJzIwMCcsICctbWV0YWxfYmluZGluZycsICctaW1hZScsICc8aW5maWxlLm1hZT4nLCAnLW9tYWUnLCAnPG91dGZpbGUubWFlPic=

> <r_lp_tautomer_probability>
1

> <r_epik_Ionization_Penalty>
0.000130618

> <r_epik_Ionization_Penalty_Charging>
0

> <r_epik_Ionization_Penalty_Neutral>
0.000130618

> <r_epik_State_Penalty>
-0

> <r_epik_Charging_Adjusted_Penalty>
0

> <i_epik_Tot_Q>
0

> <i_epik_Tot_abs_Q>
0

> <r_epik_Metal_State_Penalty>
-0

> <b_epik_Metal_Only>
0

> <s_lp_Force_Field>
OPLS_2005

> <r_lp_Energy>
63.043

> <b_lp_Chiralities_Consistent>
1

> <s_lp_Variant>
AV-unprocessed.smi:240-12

> <Gold.Version>
5.8.1

> <Gold.Id.Protein>
6NUR|6NUR_protein|mol2

> <Gold.PLP.Fitness>
49.8121

> <Gold.PLP.PLP>
-44.8880

> <Gold.PLP.part.hbond>
-5.6088

> <Gold.PLP.part.metal>
0.0000

> <Gold.PLP.part.buried>
-4.3739

> <Gold.PLP.part.nonpolar>
-34.5130

> <Gold.PLP.part.repulsive>
0.1712

> <Gold.PLP.ligand.clash>
0.0000

> <Gold.PLP.ligand.torsion>
1.6353

> <Gold.PLP.Chemscore.Hbond>
2.6676

> <Gold.PLP.Chemscore.CHOScore>
0.0000

> <Gold.PLP.Chemscore.Metal>
0.0000

> <Gold.Chemscore.Hbonds>
donor molecule, donor type, donor heavy atom, donor atom, acceptor molecule, acceptor atom, score
      L1  H     1    29       P1  8028  0.58
      P1  H  6896  6909       L1    16  1.00
      P1  H  7989  7998       L1     9  0.40
      P1  H  8011  8017       L1     9  0.27

> <Gold.PLP.Chemscore.Internal.Correction>
0.1920

> <Gold.Rescore>
     Score         DG    S(hbond)    S(metal)    S(lipo)     H(rot)  DE(clash)    DE(int)     intcor
     11.97     -15.06       1.98        0.00      91.09       3.00       0.21       2.87       ----

> <Gold.Chemscore.Fitness>
11.9724

> <Gold.Chemscore.DG>
-15.0560

> <Gold.Chemscore.ZeroCoef>
-5.4800

> <Gold.Chemscore.Hbond>
1.9786

> <Gold.Chemscore.Metal>
0.0000

> <Gold.Chemscore.Lipo>
91.0890

> <Gold.Chemscore.Internal_Hbond>
0.0000

> <Gold.Chemscore.DEClash>
0.2107

> <Gold.Chemscore.DEInternal>
2.8729

> <Gold.Chemscore.Rot>
3.0039

> <Gold.Chemscore.Internal.Correction>
   9.000000E+99

> <Gold.Chemscore.Hbonds>
donor molecule, donor type, donor heavy atom, donor atom, acceptor molecule, acceptor atom, score
      L1  H     1    29       P1  8028  0.04
      P1  H  6896  6909       L1    16  0.94
      P1  H  7989  7998       L1     9  0.34
      P1  H  8011  8017       L1     9  0.23

> <Gold.Chemscore.Hbond.Weighted>
-6.6085

> <Gold.Chemscore.Metal.Weighted>
-0.0000

> <Gold.Chemscore.Lipo.Weighted>
-10.6574

> <Gold.Chemscore.Internal_Hbond.Weighted>
0.0000

> <Gold.Chemscore.DEClash.Weighted>
0.2107

> <Gold.Chemscore.DEInternal.Weighted>
2.8729

> <Gold.Chemscore.Rot.Weighted>
7.6899

> <Gold.Chemscore.Internal.Correction.Weighted>
   9.000000E+99

> <Gold.Protein.RotatedTorsions>
[ 6907 6896 6895 6894 ] final   88.03 input  -60.11 | X-H torsion
[ 7974 7965 7964 7962 ] final  -50.79 input  175.53 | X-H torsion
[ 8008 7997 7996 7995 ] final  -52.33 input   59.86 | X-H torsion
[ 10167 10162 10161 10158 ] final    6.86 input  -65.29 | X-H torsion
[ 10718 10713 10712 10709 ] final  153.23 input   66.30 | X-H torsion
[ 10763 10752 10751 10750 ] final  -10.03 input  -60.55 | X-H torsion
[ 11005 11000 10999 10996 ] final  -88.19 input  -57.11 | X-H torsion

> <Gold.Protein.ActiveResidues>
 VAL166  LYS551  ARG553  GLY616  TRP617  ASP618  TYR619  PRO620  LYS621  CYS622 
 ASP623  PHE694  ASN695  SER759  ASP760  ASP761  ALA762  ILE779  LEU786  VAL792 
 PHE793  MET794  SER795  GLU796  ALA797  LYS798  CYS799  TRP800  GLU811  SER814 

> <Gold.Protein.RotatedAtoms>
  152.5419  134.2185  159.8777 H   0  0  0  0  0  0  0  0  0  0  0  0  # atno 6907 bound_to 6896
  151.2163  133.4520  159.2607 H   0  0  0  0  0  0  0  0  0  0  0  0  # atno 6908 bound_to 6896
  151.0848  134.9893  159.8429 H   0  0  0  0  0  0  0  0  0  0  0  0  # atno 6909 bound_to 6896
  145.9260  140.7792  142.9623 H   0  0  0  0  0  0  0  0  0  0  0  0  # atno 7974 bound_to 7965
  154.4104  140.1226  156.4974 H   0  0  0  0  0  0  0  0  0  0  0  0  # atno 8008 bound_to 7997
  155.6930  140.3495  155.4882 H   0  0  0  0  0  0  0  0  0  0  0  0  # atno 8009 bound_to 7997
  155.9452  140.1094  157.1012 H   0  0  0  0  0  0  0  0  0  0  0  0  # atno 8010 bound_to 7997
  140.6404  143.7788  150.7420 H   0  0  0  0  0  0  0  0  0  0  0  0  # atno 10167 bound_to 10162
  157.2475  131.0772  151.1752 H   0  0  0  0  0  0  0  0  0  0  0  0  # atno 10718 bound_to 10713
  153.4633  135.7016  153.6037 H   0  0  0  0  0  0  0  0  0  0  0  0  # atno 10763 bound_to 10752
  153.4323  135.3800  155.2178 H   0  0  0  0  0  0  0  0  0  0  0  0  # atno 10764 bound_to 10752
  154.8727  135.3953  154.4061 H   0  0  0  0  0  0  0  0  0  0  0  0  # atno 10765 bound_to 10752
  141.1605  133.7555  156.9416 H   0  0  0  0  0  0  0  0  0  0  0  0  # atno 11005 bound_to 11000
  144.6758  140.2051  143.7383 LP  0  0  0  0  0  0  0  0  0  0  0  0  # atno 17320 bound_to 7965
  145.8489  139.2165  143.1784 LP  0  0  0  0  0  0  0  0  0  0  0  0  # atno 17321 bound_to 7965
  140.1418  143.4435  152.2189 LP  0  0  0  0  0  0  0  0  0  0  0  0  # atno 17342 bound_to 10162
  139.5613  144.7407  151.4147 LP  0  0  0  0  0  0  0  0  0  0  0  0  # atno 17343 bound_to 10162
  157.3313  130.6986  149.6326 LP  0  0  0  0  0  0  0  0  0  0  0  0  # atno 17370 bound_to 10713
  155.9667  130.4306  150.4886 LP  0  0  0  0  0  0  0  0  0  0  0  0  # atno 17371 bound_to 10713
  140.1318  134.9351  157.2347 LP  0  0  0  0  0  0  0  0  0  0  0  0  # atno 17394 bound_to 11000
  140.2944  134.3203  155.7306 LP  0  0  0  0  0  0  0  0  0  0  0  0  # atno 17395 bound_to 11000

$$$$
