AV-unprocessed.smi:246|AV-procd|sdf|1881|dock7
  -GOLD-   2262020523D 1   1.00000     0.00000
 Structure written by MMmdl.
 57 60  0  0  0  0  0  0  0  0  1 V2000
  145.0057  132.0649  149.7929 C   0  0  0  0  0  0  0  0  0  0  0  0
  145.1555  132.9610  151.0298 C   0  0  0  0  0  0  0  0  0  0  0  0
  146.3858  132.7284  151.7010 O   0  0  0  0  0  0  0  0  0  0  0  0
  146.3678  131.6185  152.5870 C   0  0  0  0  0  0  0  0  0  0  0  0
  147.5795  131.7117  153.5187 C   0  0  0  0  0  0  0  0  0  0  0  0
  147.7401  133.0599  153.9332 O   0  0  0  0  0  0  0  0  0  0  0  0
  149.0241  133.3401  154.4701 C   0  0  2  0  0  0  0  0  0  0  0  0
  149.1918  132.6888  155.8433 C   0  0  0  0  0  0  0  0  0  0  0  0
  150.2485  133.5539  156.5391 C   0  0  0  0  0  0  0  0  0  0  0  0
  150.2081  134.8419  155.8614 N   0  0  0  0  0  0  0  0  0  0  0  0
  150.6034  135.9943  156.4613 C   0  0  0  0  0  0  0  0  0  0  0  0
  150.9562  135.9544  157.7737 N   0  0  0  0  0  0  0  0  0  0  0  0
  151.3467  137.0638  158.4069 C   0  0  0  0  0  0  0  0  0  0  0  0
  151.4467  138.3045  157.9289 N   0  0  0  0  0  0  0  0  0  0  0  0
  151.0832  138.3587  156.6158 C   0  0  0  0  0  0  0  0  0  0  0  0
  150.6555  137.2631  155.8109 C   0  0  0  0  0  0  0  0  0  0  0  0
  150.3670  137.7146  154.5271 N   0  0  0  0  0  0  0  0  0  0  0  0
  150.6148  138.9946  154.5694 C   0  0  0  0  0  0  0  0  0  0  0  0
  151.0289  139.4701  155.7924 N   0  0  0  0  0  0  0  0  0  0  0  0
  151.3673  140.8447  156.1200 C   0  0  0  0  0  0  0  0  0  0  0  0
  151.2034  141.1852  157.6192 C   0  0  2  0  0  0  0  0  0  0  0  0
  149.8258  141.4360  157.8074 O   0  0  0  0  0  0  0  0  0  0  0  0
  151.9597  142.4440  158.1027 C   0  0  2  0  0  0  0  0  0  0  0  0
  151.8058  142.7991  159.5845 C   0  0  0  0  0  0  0  0  0  0  0  0
  152.0277  144.3022  159.6306 C   0  0  0  0  0  0  0  0  0  0  0  0
  151.8898  144.7384  158.1720 C   0  0  0  0  0  0  0  0  0  0  0  0
  151.3867  143.5946  157.4975 O   0  0  0  0  0  0  0  0  0  0  0  0
  149.2340  134.8248  154.7801 C   0  0  0  0  0  0  0  0  0  0  0  0
  149.8139  132.9769  153.8095 H   0  0  0  0  0  0  0  0  0  0  0  0
  144.0182  132.1858  149.3476 H   0  0  0  0  0  0  0  0  0  0  0  0
  145.1246  131.0138  150.0566 H   0  0  0  0  0  0  0  0  0  0  0  0
  145.7411  132.3044  149.0254 H   0  0  0  0  0  0  0  0  0  0  0  0
  145.0434  134.0145  150.7691 H   0  0  0  0  0  0  0  0  0  0  0  0
  144.3527  132.7289  151.7298 H   0  0  0  0  0  0  0  0  0  0  0  0
  145.4474  131.5782  153.1697 H   0  0  0  0  0  0  0  0  0  0  0  0
  146.4286  130.6974  152.0055 H   0  0  0  0  0  0  0  0  0  0  0  0
  147.4122  131.0876  154.3977 H   0  0  0  0  0  0  0  0  0  0  0  0
  148.4720  131.3368  153.0157 H   0  0  0  0  0  0  0  0  0  0  0  0
  148.2536  132.7528  156.3963 H   0  0  0  0  0  0  0  0  0  0  0  0
  149.4739  131.6373  155.7849 H   0  0  0  0  0  0  0  0  0  0  0  0
  150.0382  133.6427  157.6056 H   0  0  0  0  0  0  0  0  0  0  0  0
  151.2423  133.1218  156.4174 H   0  0  0  0  0  0  0  0  0  0  0  0
  151.6142  136.9395  159.4459 H   0  0  0  0  0  0  0  0  0  0  0  0
  150.4913  139.6325  153.7062 H   0  0  0  0  0  0  0  0  0  0  0  0
  152.3867  141.0545  155.7935 H   0  0  0  0  0  0  0  0  0  0  0  0
  150.7159  141.4820  155.5201 H   0  0  0  0  0  0  0  0  0  0  0  0
  151.4784  140.3247  158.2301 H   0  0  0  0  0  0  0  0  0  0  0  0
  149.5636  142.1161  157.2055 H   0  0  0  0  0  0  0  0  0  0  0  0
  153.0200  142.3840  157.8477 H   0  0  0  0  0  0  0  0  0  0  0  0
  150.7941  142.5746  159.9248 H   0  0  0  0  0  0  0  0  0  0  0  0
  152.5069  142.2610  160.2219 H   0  0  0  0  0  0  0  0  0  0  0  0
  151.2882  144.7854  160.2703 H   0  0  0  0  0  0  0  0  0  0  0  0
  153.0185  144.5494  160.0134 H   0  0  0  0  0  0  0  0  0  0  0  0
  151.2226  145.5921  158.0501 H   0  0  0  0  0  0  0  0  0  0  0  0
  152.8630  145.0030  157.7558 H   0  0  0  0  0  0  0  0  0  0  0  0
  149.5879  135.3748  153.9074 H   0  0  0  0  0  0  0  0  0  0  0  0
  148.3048  135.2811  155.1247 H   0  0  0  0  0  0  0  0  0  0  0  0
  1  2  1  0  0  0  0
  1 30  1  0  0  0  0
  1 31  1  0  0  0  0
  1 32  1  0  0  0  0
  2  3  1  0  0  0  0
  2 33  1  0  0  0  0
  2 34  1  0  0  0  0
  3  4  1  0  0  0  0
  4  5  1  0  0  0  0
  4 35  1  0  0  0  0
  4 36  1  0  0  0  0
  5  6  1  0  0  0  0
  5 37  1  0  0  0  0
  5 38  1  0  0  0  0
  6  7  1  0  0  0  0
  7 29  1  0  0  0  0
  7 28  1  0  0  0  0
  7  8  1  0  0  0  0
  8  9  1  0  0  0  0
  8 39  1  0  0  0  0
  8 40  1  0  0  0  0
  9 10  1  0  0  0  0
  9 41  1  0  0  0  0
  9 42  1  0  0  0  0
 10 11  1  0  0  0  0
 10 28  1  0  0  0  0
 11 16  1  0  0  0  0
 11 12  2  0  0  0  0
 12 13  1  0  0  0  0
 13 14  2  0  0  0  0
 13 43  1  0  0  0  0
 14 15  1  0  0  0  0
 15 19  1  0  0  0  0
 15 16  2  0  0  0  0
 16 17  1  0  0  0  0
 17 18  2  0  0  0  0
 18 19  1  0  0  0  0
 18 44  1  0  0  0  0
 19 20  1  0  0  0  0
 20 21  1  0  0  0  0
 20 45  1  0  0  0  0
 20 46  1  0  0  0  0
 21 22  1  0  0  0  0
 21 23  1  0  0  0  0
 21 47  1  0  0  0  0
 22 48  1  0  0  0  0
 23 27  1  0  0  0  0
 23 24  1  0  0  0  0
 23 49  1  0  0  0  0
 24 25  1  0  0  0  0
 24 50  1  0  0  0  0
 24 51  1  0  0  0  0
 25 26  1  0  0  0  0
 25 52  1  0  0  0  0
 25 53  1  0  0  0  0
 26 27  1  0  0  0  0
 26 54  1  0  0  0  0
 26 55  1  0  0  0  0
 28 56  1  0  0  0  0
 28 57  1  0  0  0  0
M  END
> <s_m_source_file>
AV-unprocessed.smi

> <i_m_source_file_index>
246

> <i_lp_mmshare_version>
43012

> <i_f3d_flags>
0

> <s_epik_input>
W0NIM11bQ0gyXU9bQ0gyXVtDSDJdT1tDQEhdMVtDSDJdW0NIMl1OKFtDSDJdMSljKG5bY0hdbjIpYyhjMjMpbltjSF1uM1tDSDJdW0NASF0oW09IXSlbQ0BASF00W0NIMl1bQ0gyXVtDSDJdTzQ=

> <s_epik_cmdline>
J2VwaWtfcHl0aG9uJywgJy1waCcsICc3LjAnLCAnLXRuJywgJzgnLCAnLW1hJywgJzIwMCcsICctbWV0YWxfYmluZGluZycsICctaW1hZScsICc8aW5maWxlLm1hZT4nLCAnLW9tYWUnLCAnPG91dGZpbGUubWFlPic=

> <r_lp_tautomer_probability>
1

> <r_epik_Ionization_Penalty>
0.0024631

> <r_epik_Ionization_Penalty_Charging>
0

> <r_epik_Ionization_Penalty_Neutral>
0.0024631

> <r_epik_State_Penalty>
0.00162428

> <r_epik_Charging_Adjusted_Penalty>
0.00162428

> <i_epik_Tot_Q>
0

> <i_epik_Tot_abs_Q>
0

> <r_epik_Metal_State_Penalty>
-0

> <b_epik_Metal_Only>
0

> <s_lp_Force_Field>
OPLS_2005

> <r_lp_Energy>
52.7106

> <b_lp_Chiralities_Consistent>
1

> <s_lp_Variant>
AV-unprocessed.smi:246-2

> <Gold.Version>
5.8.1

> <Gold.Id.Protein>
6NUR|6NUR_protein|mol2

> <Gold.PLP.Fitness>
48.7771

> <Gold.PLP.PLP>
-47.6799

> <Gold.PLP.part.hbond>
-0.5637

> <Gold.PLP.part.metal>
0.0000

> <Gold.PLP.part.buried>
-6.2615

> <Gold.PLP.part.nonpolar>
-41.1515

> <Gold.PLP.part.repulsive>
0.6195

> <Gold.PLP.ligand.clash>
0.0000

> <Gold.PLP.ligand.torsion>
1.1489

> <Gold.PLP.Chemscore.Hbond>
0.0000

> <Gold.PLP.Chemscore.CHOScore>
0.9998

> <Gold.PLP.Chemscore.Metal>
0.0000

> <Gold.Chemscore.Hbonds>
donor molecule, donor type, donor heavy atom, donor atom, acceptor molecule, acceptor atom, score
      P1  H  6896  6909       L1    12  0.18
      L1  C    18    44       P1  7957  0.54

> <Gold.PLP.Chemscore.Internal.Correction>
0.3954

> <Gold.Rescore>
     Score         DG    S(hbond)    S(metal)    S(lipo)     H(rot)  DE(clash)    DE(int)     intcor
      8.67     -11.06       0.00        0.00     115.58       3.10       0.16       2.23       ----

> <Gold.Chemscore.Fitness>
8.6713

> <Gold.Chemscore.DG>
-11.0608

> <Gold.Chemscore.ZeroCoef>
-5.4800

> <Gold.Chemscore.Hbond>
0.0000

> <Gold.Chemscore.Metal>
0.0000

> <Gold.Chemscore.Lipo>
115.5847

> <Gold.Chemscore.Internal_Hbond>
0.0000

> <Gold.Chemscore.DEClash>
0.1594

> <Gold.Chemscore.DEInternal>
2.2301

> <Gold.Chemscore.Rot>
3.1026

> <Gold.Chemscore.Internal.Correction>
   9.000000E+99

> <Gold.Chemscore.Hbonds>
donor molecule, donor type, donor heavy atom, donor atom, acceptor molecule, acceptor atom, score
      P1  H  6896  6909       L1    12  0.02

> <Gold.Chemscore.Hbond.Weighted>
-0.0000

> <Gold.Chemscore.Metal.Weighted>
-0.0000

> <Gold.Chemscore.Lipo.Weighted>
-13.5234

> <Gold.Chemscore.Internal_Hbond.Weighted>
0.0000

> <Gold.Chemscore.DEClash.Weighted>
0.1594

> <Gold.Chemscore.DEInternal.Weighted>
2.2301

> <Gold.Chemscore.Rot.Weighted>
7.9426

> <Gold.Chemscore.Internal.Correction.Weighted>
   9.000000E+99

> <Gold.Protein.RotatedTorsions>
[ 6907 6896 6895 6894 ] final   59.73 input  -60.11 | X-H torsion
[ 7974 7965 7964 7962 ] final  -79.27 input  175.53 | X-H torsion
[ 8008 7997 7996 7995 ] final -120.62 input   59.86 | X-H torsion
[ 10167 10162 10161 10158 ] final   18.85 input  -65.29 | X-H torsion
[ 10718 10713 10712 10709 ] final  -85.48 input   66.30 | X-H torsion
[ 10763 10752 10751 10750 ] final  -70.04 input  -60.55 | X-H torsion
[ 11005 11000 10999 10996 ] final  134.39 input  -57.11 | X-H torsion

> <Gold.Protein.ActiveResidues>
 VAL166  LYS551  ARG553  GLY616  TRP617  ASP618  TYR619  PRO620  LYS621  CYS622 
 ASP623  PHE694  ASN695  SER759  ASP760  ASP761  ALA762  ILE779  LEU786  VAL792 
 PHE793  MET794  SER795  GLU796  ALA797  LYS798  CYS799  TRP800  GLU811  SER814 

> <Gold.Protein.RotatedAtoms>
  152.3941  134.6394  160.0095 H   0  0  0  0  0  0  0  0  0  0  0  0  # atno 6907 bound_to 6896
  151.6619  133.3311  159.3184 H   0  0  0  0  0  0  0  0  0  0  0  0  # atno 6908 bound_to 6896
  150.7851  134.6873  159.6522 H   0  0  0  0  0  0  0  0  0  0  0  0  # atno 6909 bound_to 6896
  145.5755  140.9458  143.1372 H   0  0  0  0  0  0  0  0  0  0  0  0  # atno 7974 bound_to 7965
  155.1348  140.0401  157.2784 H   0  0  0  0  0  0  0  0  0  0  0  0  # atno 8008 bound_to 7997
  154.6516  140.2570  155.7181 H   0  0  0  0  0  0  0  0  0  0  0  0  # atno 8009 bound_to 7997
  156.2580  140.2835  156.0952 H   0  0  0  0  0  0  0  0  0  0  0  0  # atno 8010 bound_to 7997
  140.5622  143.9316  150.6651 H   0  0  0  0  0  0  0  0  0  0  0  0  # atno 10167 bound_to 10162
  155.9996  130.4732  150.4569 H   0  0  0  0  0  0  0  0  0  0  0  0  # atno 10718 bound_to 10713
  154.4119  135.6007  153.5958 H   0  0  0  0  0  0  0  0  0  0  0  0  # atno 10763 bound_to 10752
  152.9790  135.5931  154.4059 H   0  0  0  0  0  0  0  0  0  0  0  0  # atno 10764 bound_to 10752
  154.3873  135.2841  155.2154 H   0  0  0  0  0  0  0  0  0  0  0  0  # atno 10765 bound_to 10752
  139.9912  134.9514  156.9859 H   0  0  0  0  0  0  0  0  0  0  0  0  # atno 11005 bound_to 11000
  144.7418  139.7429  143.7308 LP  0  0  0  0  0  0  0  0  0  0  0  0  # atno 17320 bound_to 7965
  146.1754  139.4922  142.9901 LP  0  0  0  0  0  0  0  0  0  0  0  0  # atno 17321 bound_to 7965
  140.2769  143.3416  152.1187 LP  0  0  0  0  0  0  0  0  0  0  0  0  # atno 17342 bound_to 10162
  139.5076  144.6834  151.5949 LP  0  0  0  0  0  0  0  0  0  0  0  0  # atno 17343 bound_to 10162
  157.2597  131.0564  151.2328 LP  0  0  0  0  0  0  0  0  0  0  0  0  # atno 17370 bound_to 10713
  157.3447  130.7051  149.6403 LP  0  0  0  0  0  0  0  0  0  0  0  0  # atno 17371 bound_to 10713
  140.4905  134.1197  155.7232 LP  0  0  0  0  0  0  0  0  0  0  0  0  # atno 17394 bound_to 11000
  141.1567  133.8869  157.1958 LP  0  0  0  0  0  0  0  0  0  0  0  0  # atno 17395 bound_to 11000

$$$$
