AV-unprocessed.smi:178|AV-procd|sdf|1445|dock9
  -GOLD-   2262019233D 1   1.00000     0.00000
 Structure written by MMmdl.
 50 52  0  0  0  0  0  0  0  0  1 V2000
  145.6544  143.5008  153.6361 C   0  0  0  0  0  0  0  0  0  0  0  0
  146.6955  142.7589  154.2527 O   0  0  0  0  0  0  0  0  0  0  0  0
  147.4216  141.9336  153.3537 C   0  0  0  0  0  0  0  0  0  0  0  0
  148.6109  141.2475  154.0548 C   0  0  0  0  0  0  0  0  0  0  0  0
  148.2147  140.5400  155.2761 N   0  0  0  0  0  0  0  0  0  0  0  0
  148.8191  140.9680  156.5376 C   0  0  0  0  0  0  0  0  0  0  0  0
  150.2614  141.4759  156.3744 C   0  0  0  0  0  0  0  0  0  0  0  0
  151.1511  140.5644  155.6376 C   0  0  0  0  0  0  0  0  0  0  0  0
  151.8482  139.8469  155.0561 N   0  0  0  0  0  0  0  0  0  0  0  0
  147.3598  139.4742  155.2003 C   0  0  0  0  0  0  0  0  0  0  0  0
  146.9073  138.9422  156.3687 N   0  0  0  0  0  0  0  0  0  0  0  0
  146.0606  137.9113  156.3792 C   0  0  0  0  0  0  0  0  0  0  0  0
  145.5379  137.2556  155.3454 N   0  0  0  0  0  0  0  0  0  0  0  0
  145.9831  137.7659  154.1626 C   0  0  0  0  0  0  0  0  0  0  0  0
  146.8831  138.8615  153.9968 C   0  0  0  0  0  0  0  0  0  0  0  0
  147.0711  139.0855  152.6366 N   0  0  0  0  0  0  0  0  0  0  0  0
  146.3368  138.1872  152.0433 C   0  0  0  0  0  0  0  0  0  0  0  0
  145.6577  137.3387  152.8850 N   0  0  0  0  0  0  0  0  0  0  0  0
  144.7633  136.2481  152.5137 C   0  0  0  0  0  0  0  0  0  0  0  0
  145.4813  134.9986  151.9347 C   0  0  1  0  0  0  0  0  0  0  0  0
  146.3191  135.4215  150.8715 O   0  0  0  0  0  0  0  0  0  0  0  0
  146.3356  134.2685  152.9568 C   0  0  0  0  0  0  0  0  0  0  0  0
  146.5066  132.8803  152.3431 C   0  0  0  0  0  0  0  0  0  0  0  0
  145.4230  132.7051  151.4325 O   0  0  0  0  0  0  0  0  0  0  0  0
  144.5885  133.8619  151.3944 C   0  0  1  0  0  0  0  0  0  0  0  0
  143.3623  133.5041  152.2555 C   0  0  0  0  0  0  0  0  0  0  0  0
  145.1744  144.1377  154.3788 H   0  0  0  0  0  0  0  0  0  0  0  0
  144.8881  142.8521  153.2123 H   0  0  0  0  0  0  0  0  0  0  0  0
  146.0430  144.1446  152.8463 H   0  0  0  0  0  0  0  0  0  0  0  0
  146.7581  141.2093  152.8793 H   0  0  0  0  0  0  0  0  0  0  0  0
  147.7923  142.5740  152.5540 H   0  0  0  0  0  0  0  0  0  0  0  0
  149.0603  140.5342  153.3635 H   0  0  0  0  0  0  0  0  0  0  0  0
  149.4011  141.9621  154.2833 H   0  0  0  0  0  0  0  0  0  0  0  0
  148.2133  141.7850  156.9303 H   0  0  0  0  0  0  0  0  0  0  0  0
  148.7574  140.2015  157.3054 H   0  0  0  0  0  0  0  0  0  0  0  0
  150.2708  142.4358  155.8586 H   0  0  0  0  0  0  0  0  0  0  0  0
  150.7052  141.6456  157.3553 H   0  0  0  0  0  0  0  0  0  0  0  0
  145.7579  137.5636  157.3559 H   0  0  0  0  0  0  0  0  0  0  0  0
  146.2708  138.1367  150.9683 H   0  0  0  0  0  0  0  0  0  0  0  0
  144.2086  135.9611  153.4081 H   0  0  0  0  0  0  0  0  0  0  0  0
  144.0153  136.6304  151.8189 H   0  0  0  0  0  0  0  0  0  0  0  0
  147.1874  135.5669  151.2153 H   0  0  0  0  0  0  0  0  0  0  0  0
  147.2858  134.7626  153.1635 H   0  0  0  0  0  0  0  0  0  0  0  0
  145.7978  134.1850  153.9021 H   0  0  0  0  0  0  0  0  0  0  0  0
  147.4417  132.8167  151.7858 H   0  0  0  0  0  0  0  0  0  0  0  0
  146.5130  132.0976  153.1020 H   0  0  0  0  0  0  0  0  0  0  0  0
  144.2601  134.0583  150.3727 H   0  0  0  0  0  0  0  0  0  0  0  0
  142.6300  134.3061  152.2844 H   0  0  0  0  0  0  0  0  0  0  0  0
  143.6422  133.2750  153.2836 H   0  0  0  0  0  0  0  0  0  0  0  0
  142.8571  132.6261  151.8529 H   0  0  0  0  0  0  0  0  0  0  0  0
  1  2  1  0  0  0  0
  1 27  1  0  0  0  0
  1 28  1  0  0  0  0
  1 29  1  0  0  0  0
  2  3  1  0  0  0  0
  3  4  1  0  0  0  0
  3 30  1  0  0  0  0
  3 31  1  0  0  0  0
  4  5  1  0  0  0  0
  4 32  1  0  0  0  0
  4 33  1  0  0  0  0
  5  6  1  0  0  0  0
  5 10  1  0  0  0  0
  6  7  1  0  0  0  0
  6 34  1  0  0  0  0
  6 35  1  0  0  0  0
  7  8  1  0  0  0  0
  7 36  1  0  0  0  0
  7 37  1  0  0  0  0
  8  9  3  0  0  0  0
 10 15  1  0  0  0  0
 10 11  2  0  0  0  0
 11 12  1  0  0  0  0
 12 13  2  0  0  0  0
 12 38  1  0  0  0  0
 13 14  1  0  0  0  0
 14 18  1  0  0  0  0
 14 15  2  0  0  0  0
 15 16  1  0  0  0  0
 16 17  2  0  0  0  0
 17 18  1  0  0  0  0
 17 39  1  0  0  0  0
 18 19  1  0  0  0  0
 19 20  1  0  0  0  0
 19 40  1  0  0  0  0
 19 41  1  0  0  0  0
 20 25  1  0  0  0  0
 20 21  1  0  0  0  0
 20 22  1  0  0  0  0
 21 42  1  0  0  0  0
 22 23  1  0  0  0  0
 22 43  1  0  0  0  0
 22 44  1  0  0  0  0
 23 24  1  0  0  0  0
 23 45  1  0  0  0  0
 23 46  1  0  0  0  0
 24 25  1  0  0  0  0
 25 26  1  0  0  0  0
 25 47  1  0  0  0  0
 26 48  1  0  0  0  0
 26 49  1  0  0  0  0
 26 50  1  0  0  0  0
M  END
> <s_m_source_file>
AV-unprocessed.smi

> <i_m_source_file_index>
178

> <i_lp_mmshare_version>
43012

> <i_f3d_flags>
0

> <s_epik_input>
W0NIM11PW0NIMl1bQ0gyXU4oW0NIMl1bQ0gyXUMjTiljKG5bY0hdbjEpYyhjMTIpbltjSF1uMltDSDJdW0NAQF0zKFtPSF0pW0NIMl1bQ0gyXU9bQ0BIXTNbQ0gzXQ==

> <s_epik_cmdline>
J2VwaWtfcHl0aG9uJywgJy1waCcsICc3LjAnLCAnLXRuJywgJzgnLCAnLW1hJywgJzIwMCcsICctbWV0YWxfYmluZGluZycsICctaW1hZScsICc8aW5maWxlLm1hZT4nLCAnLW9tYWUnLCAnPG91dGZpbGUubWFlPic=

> <r_lp_tautomer_probability>
1

> <r_epik_Ionization_Penalty>
0.000885317

> <r_epik_Ionization_Penalty_Charging>
0

> <r_epik_Ionization_Penalty_Neutral>
0.000885317

> <r_epik_State_Penalty>
0.00047273

> <r_epik_Charging_Adjusted_Penalty>
0.00047273

> <i_epik_Tot_Q>
0

> <i_epik_Tot_abs_Q>
0

> <r_epik_Metal_State_Penalty>
-0

> <b_epik_Metal_Only>
0

> <s_lp_Force_Field>
OPLS_2005

> <r_lp_Energy>
33.9655

> <b_lp_Chiralities_Consistent>
1

> <s_lp_Variant>
AV-unprocessed.smi:178-1

> <Gold.Version>
5.8.1

> <Gold.Id.Protein>
6NUR|6NUR_protein|mol2

> <Gold.PLP.Fitness>
42.5499

> <Gold.PLP.PLP>
-34.8714

> <Gold.PLP.part.hbond>
-3.0000

> <Gold.PLP.part.metal>
0.0000

> <Gold.PLP.part.buried>
-3.5945

> <Gold.PLP.part.nonpolar>
-29.9333

> <Gold.PLP.part.repulsive>
0.6547

> <Gold.PLP.ligand.clash>
0.0000

> <Gold.PLP.ligand.torsion>
0.6030

> <Gold.PLP.Chemscore.Hbond>
1.9760

> <Gold.PLP.Chemscore.CHOScore>
0.8718

> <Gold.PLP.Chemscore.Metal>
0.0000

> <Gold.Chemscore.Hbonds>
donor molecule, donor type, donor heavy atom, donor atom, acceptor molecule, acceptor atom, score
      L1  H    21    42       P1  7948  1.00
      P1  H  7989  7998       L1     9  0.53
      L1  C    17    39       P1 10171  0.47

> <Gold.PLP.Chemscore.Internal.Correction>
0.3409

> <Gold.Rescore>
     Score         DG    S(hbond)    S(metal)    S(lipo)     H(rot)  DE(clash)    DE(int)     intcor
      5.93      -8.84       1.90        0.00      48.25       3.37       0.10       2.81       ----

> <Gold.Chemscore.Fitness>
5.9263

> <Gold.Chemscore.DG>
-8.8358

> <Gold.Chemscore.ZeroCoef>
-5.4800

> <Gold.Chemscore.Hbond>
1.8998

> <Gold.Chemscore.Metal>
0.0000

> <Gold.Chemscore.Lipo>
48.2543

> <Gold.Chemscore.Internal_Hbond>
0.0000

> <Gold.Chemscore.DEClash>
0.0976

> <Gold.Chemscore.DEInternal>
2.8119

> <Gold.Chemscore.Rot>
3.3732

> <Gold.Chemscore.Internal.Correction>
   9.000000E+99

> <Gold.Chemscore.Hbonds>
donor molecule, donor type, donor heavy atom, donor atom, acceptor molecule, acceptor atom, score
      L1  H    21    42       P1  7948  0.90
      P1  H  7989  7998       L1     9  0.03

> <Gold.Chemscore.Hbond.Weighted>
-6.3454

> <Gold.Chemscore.Metal.Weighted>
-0.0000

> <Gold.Chemscore.Lipo.Weighted>
-5.6457

> <Gold.Chemscore.Internal_Hbond.Weighted>
0.0000

> <Gold.Chemscore.DEClash.Weighted>
0.0976

> <Gold.Chemscore.DEInternal.Weighted>
2.8119

> <Gold.Chemscore.Rot.Weighted>
8.6354

> <Gold.Chemscore.Internal.Correction.Weighted>
   9.000000E+99

> <Gold.Protein.RotatedTorsions>
[ 6907 6896 6895 6894 ] final  163.55 input  -60.11 | X-H torsion
[ 7974 7965 7964 7962 ] final   42.43 input  175.53 | X-H torsion
[ 8008 7997 7996 7995 ] final -101.90 input   59.86 | X-H torsion
[ 10167 10162 10161 10158 ] final -171.81 input  -65.29 | X-H torsion
[ 10718 10713 10712 10709 ] final  122.10 input   66.30 | X-H torsion
[ 10763 10752 10751 10750 ] final  103.83 input  -60.55 | X-H torsion
[ 11005 11000 10999 10996 ] final   91.65 input  -57.11 | X-H torsion

> <Gold.Protein.ActiveResidues>
 VAL166  LYS551  ARG553  GLY616  TRP617  ASP618  TYR619  PRO620  LYS621  CYS622 
 ASP623  PHE694  ASN695  SER759  ASP760  ASP761  ALA762  ILE779  LEU786  VAL792 
 PHE793  MET794  SER795  GLU796  ALA797  LYS798  CYS799  TRP800  GLU811  SER814 

> <Gold.Protein.RotatedAtoms>
  151.9235  133.3592  159.3904 H   0  0  0  0  0  0  0  0  0  0  0  0  # atno 6907 bound_to 6896
  150.7032  134.4611  159.5390 H   0  0  0  0  0  0  0  0  0  0  0  0  # atno 6908 bound_to 6896
  152.2239  134.8387  160.0533 H   0  0  0  0  0  0  0  0  0  0  0  0  # atno 6909 bound_to 6896
  146.0741  139.5301  142.9579 H   0  0  0  0  0  0  0  0  0  0  0  0  # atno 7974 bound_to 7965
  154.8491  140.0431  157.1592 H   0  0  0  0  0  0  0  0  0  0  0  0  # atno 8008 bound_to 7997
  154.8963  140.2993  155.5322 H   0  0  0  0  0  0  0  0  0  0  0  0  # atno 8009 bound_to 7997
  156.2995  140.2384  156.3985 H   0  0  0  0  0  0  0  0  0  0  0  0  # atno 8010 bound_to 7997
  139.5781  144.1487  152.1477 H   0  0  0  0  0  0  0  0  0  0  0  0  # atno 10167 bound_to 10162
  157.5768  131.1078  150.8263 H   0  0  0  0  0  0  0  0  0  0  0  0  # atno 10718 bound_to 10713
  153.3579  135.3963  155.1696 H   0  0  0  0  0  0  0  0  0  0  0  0  # atno 10763 bound_to 10752
  154.8674  135.3672  154.5138 H   0  0  0  0  0  0  0  0  0  0  0  0  # atno 10764 bound_to 10752
  153.5594  135.7081  153.5614 H   0  0  0  0  0  0  0  0  0  0  0  0  # atno 10765 bound_to 10752
  139.8835  134.8687  156.3459 H   0  0  0  0  0  0  0  0  0  0  0  0  # atno 11005 bound_to 11000
  145.6338  141.0298  143.1848 LP  0  0  0  0  0  0  0  0  0  0  0  0  # atno 17320 bound_to 7965
  144.7250  139.7905  143.7368 LP  0  0  0  0  0  0  0  0  0  0  0  0  # atno 17321 bound_to 7965
  140.1034  144.5520  150.6973 LP  0  0  0  0  0  0  0  0  0  0  0  0  # atno 17342 bound_to 10162
  140.7061  143.2469  151.4720 LP  0  0  0  0  0  0  0  0  0  0  0  0  # atno 17343 bound_to 10162
  156.8720  130.5149  149.5296 LP  0  0  0  0  0  0  0  0  0  0  0  0  # atno 17370 bound_to 10713
  156.0813  130.5823  150.9568 LP  0  0  0  0  0  0  0  0  0  0  0  0  # atno 17371 bound_to 10713
  140.9627  133.7378  156.0424 LP  0  0  0  0  0  0  0  0  0  0  0  0  # atno 17394 bound_to 11000
  140.7969  134.3553  157.5450 LP  0  0  0  0  0  0  0  0  0  0  0  0  # atno 17395 bound_to 11000

$$$$
