AV-unprocessed.smi:2943|AV-procd|sdf|11270|dock6
  -GOLD-   2272016163D 1   1.00000     0.00000
 Structure written by MMmdl.
 37 39  0  0  0  0  0  0  0  0  2 V2000
  145.7259  129.3754  152.3099 C   0  0  0  0  0  0  0  0  0  0  0  0
  146.1651  130.8099  152.2958 C   0  0  0  0  0  0  0  0  0  0  0  0
  145.5612  131.8418  151.6128 C   0  0  0  0  0  0  0  0  0  0  0  0
  144.3407  131.7888  150.7455 C   0  0  0  0  0  0  0  0  0  0  0  0
  146.2656  133.0289  151.8269 N   0  0  0  0  0  0  0  0  0  0  0  0
  145.9443  134.3319  151.2613 C   0  0  0  0  0  0  0  0  0  0  0  0
  145.4208  135.3093  152.3259 C   0  0  2  0  0  0  0  0  0  0  0  0
  144.2127  134.7902  153.1021 C   0  0  0  0  0  0  0  0  0  0  0  0
  143.5912  136.0794  153.5879 C   0  0  0  0  0  0  0  0  0  0  0  0
  143.8081  137.0029  152.3920 C   0  0  0  0  0  0  0  0  0  0  0  0
  144.9820  136.5303  151.7350 O   0  0  0  0  0  0  0  0  0  0  0  0
  147.3245  132.7634  152.6800 C   0  0  0  0  0  0  0  0  0  0  0  0
  148.2590  133.6268  153.1628 N   0  3  0  0  0  0  0  0  0  0  0  0
  149.1871  133.1260  153.9850 C   0  0  0  0  0  0  0  0  0  0  0  0
  149.2227  131.8324  154.3358 N   0  0  0  0  0  0  0  0  0  0  0  0
  148.3087  130.9446  153.8722 C   0  0  0  0  0  0  0  0  0  0  0  0
  148.4310  129.6250  154.3013 N   0  0  0  0  0  0  0  0  0  0  0  0
  147.2841  131.3830  152.9932 C   0  0  0  0  0  0  0  0  0  0  0  0
  145.2728  129.0844  151.3621 H   0  0  0  0  0  0  0  0  0  0  0  0
  144.9932  129.1970  153.0969 H   0  0  0  0  0  0  0  0  0  0  0  0
  146.5645  128.7003  152.4777 H   0  0  0  0  0  0  0  0  0  0  0  0
  143.7780  130.8692  150.9042 H   0  0  0  0  0  0  0  0  0  0  0  0
  144.6131  131.8369  149.6910 H   0  0  0  0  0  0  0  0  0  0  0  0
  143.6664  132.6178  150.9600 H   0  0  0  0  0  0  0  0  0  0  0  0
  146.8397  134.7356  150.7871 H   0  0  0  0  0  0  0  0  0  0  0  0
  145.2110  134.2077  150.4644 H   0  0  0  0  0  0  0  0  0  0  0  0
  146.2151  135.5556  153.0320 H   0  0  0  0  0  0  0  0  0  0  0  0
  143.5204  134.2693  152.4391 H   0  0  0  0  0  0  0  0  0  0  0  0
  144.4858  134.1140  153.9127 H   0  0  0  0  0  0  0  0  0  0  0  0
  142.5410  135.9748  153.8622 H   0  0  0  0  0  0  0  0  0  0  0  0
  144.1360  136.4534  154.4560 H   0  0  0  0  0  0  0  0  0  0  0  0
  142.9711  136.9296  151.6968 H   0  0  0  0  0  0  0  0  0  0  0  0
  143.9111  138.0469  152.6892 H   0  0  0  0  0  0  0  0  0  0  0  0
  149.9240  133.8168  154.3677 H   0  0  0  0  0  0  0  0  0  0  0  0
  149.1680  129.3403  154.9304 H   0  0  0  0  0  0  0  0  0  0  0  0
  147.7973  128.9062  153.9818 H   0  0  0  0  0  0  0  0  0  0  0  0
  148.2385  134.6143  152.9083 H   0  0  0  0  0  0  0  0  0  0  0  0
  1  2  1  0  0  0  0
  1 19  1  0  0  0  0
  1 20  1  0  0  0  0
  1 21  1  0  0  0  0
  2 18  1  0  0  0  0
  2  3  2  0  0  0  0
  3  4  1  0  0  0  0
  3  5  1  0  0  0  0
  4 22  1  0  0  0  0
  4 23  1  0  0  0  0
  4 24  1  0  0  0  0
  5  6  1  0  0  0  0
  5 12  1  0  0  0  0
  6  7  1  0  0  0  0
  6 25  1  0  0  0  0
  6 26  1  0  0  0  0
  7 11  1  0  0  0  0
  7  8  1  0  0  0  0
  7 27  1  0  0  0  0
  8  9  1  0  0  0  0
  8 28  1  0  0  0  0
  8 29  1  0  0  0  0
  9 10  1  0  0  0  0
  9 30  1  0  0  0  0
  9 31  1  0  0  0  0
 10 11  1  0  0  0  0
 10 32  1  0  0  0  0
 10 33  1  0  0  0  0
 12 18  1  0  0  0  0
 12 13  2  0  0  0  0
 13 14  1  0  0  0  0
 13 37  1  0  0  0  0
 14 15  2  0  0  0  0
 14 34  1  0  0  0  0
 15 16  1  0  0  0  0
 16 17  1  0  0  0  0
 16 18  2  0  0  0  0
 17 35  1  0  0  0  0
 17 36  1  0  0  0  0
M  CHG  1  13   1
M  END
> <s_m_source_file>
AV-unprocessed.smi

> <i_m_source_file_index>
2943

> <i_lp_mmshare_version>
43012

> <i_f3d_flags>
0

> <s_epik_input>
bjFbY0hdbmMoW05IMl0pYyhjMTIpYyhbQ0gzXSljKFtDSDNdKW4yW0NIMl1bQ0BASF0zW0NIMl1bQ0gyXVtDSDJdTzM=

> <s_epik_cmdline>
J2VwaWtfcHl0aG9uJywgJy1waCcsICc3LjAnLCAnLXRuJywgJzgnLCAnLW1hJywgJzIwMCcsICctbWV0YWxfYmluZGluZycsICctaW1hZScsICc8aW5maWxlLm1hZT4nLCAnLW9tYWUnLCAnPG91dGZpbGUubWFlPic=

> <r_epik_Ionization_Penalty>
2.35523

> <r_epik_Ionization_Penalty_Charging>
2.35518

> <r_epik_Ionization_Penalty_Neutral>
5.21205e-05

> <r_epik_State_Penalty>
2.50981

> <r_epik_Charging_Adjusted_Penalty>
4.86499

> <i_epik_Tot_Q>
1

> <i_epik_Tot_abs_Q>
1

> <r_epik_Metal_State_Penalty>
2.52087

> <b_epik_Metal_Only>
0

> <s_lp_Force_Field>
OPLS_2005

> <r_lp_Energy>
21.0086

> <b_lp_Chiralities_Consistent>
1

> <s_lp_Variant>
AV-unprocessed.smi:2943-3

> <Gold.Version>
5.8.1

> <Gold.Id.Protein>
6NUR|6NUR_protein|mol2

> <Gold.PLP.Fitness>
36.9259

> <Gold.PLP.PLP>
-31.1884

> <Gold.PLP.part.hbond>
-1.0000

> <Gold.PLP.part.metal>
0.0000

> <Gold.PLP.part.buried>
-4.1202

> <Gold.PLP.part.nonpolar>
-26.1987

> <Gold.PLP.part.repulsive>
0.2585

> <Gold.PLP.ligand.clash>
0.0000

> <Gold.PLP.ligand.torsion>
0.1078

> <Gold.PLP.Chemscore.Hbond>
1.9840

> <Gold.PLP.Chemscore.CHOScore>
0.0000

> <Gold.PLP.Chemscore.Metal>
0.0000

> <Gold.Chemscore.Hbonds>
donor molecule, donor type, donor heavy atom, donor atom, acceptor molecule, acceptor atom, score
      L1  H    13    37       P1  7948  2.00

> <Gold.PLP.Chemscore.Internal.Correction>
0.0011

> <Gold.Rescore>
     Score         DG    S(hbond)    S(metal)    S(lipo)     H(rot)  DE(clash)    DE(int)     intcor
     10.66     -10.83       0.69        0.00      53.78       1.27       0.13       0.04       ----

> <Gold.Chemscore.Fitness>
10.6618

> <Gold.Chemscore.DG>
-10.8334

> <Gold.Chemscore.ZeroCoef>
-5.4800

> <Gold.Chemscore.Hbond>
0.6943

> <Gold.Chemscore.Metal>
0.0000

> <Gold.Chemscore.Lipo>
53.7770

> <Gold.Chemscore.Internal_Hbond>
0.0000

> <Gold.Chemscore.DEClash>
0.1334

> <Gold.Chemscore.DEInternal>
0.0382

> <Gold.Chemscore.Rot>
1.2725

> <Gold.Chemscore.Internal.Correction>
   9.000000E+99

> <Gold.Chemscore.Hbonds>
donor molecule, donor type, donor heavy atom, donor atom, acceptor molecule, acceptor atom, score
      L1  H    13    37       P1  7948  0.49

> <Gold.Chemscore.Hbond.Weighted>
-2.3191

> <Gold.Chemscore.Metal.Weighted>
-0.0000

> <Gold.Chemscore.Lipo.Weighted>
-6.2919

> <Gold.Chemscore.Internal_Hbond.Weighted>
0.0000

> <Gold.Chemscore.DEClash.Weighted>
0.1334

> <Gold.Chemscore.DEInternal.Weighted>
0.0382

> <Gold.Chemscore.Rot.Weighted>
3.2576

> <Gold.Chemscore.Internal.Correction.Weighted>
   9.000000E+99

> <Gold.Protein.RotatedTorsions>
[ 6907 6896 6895 6894 ] final   56.20 input  -60.11 | X-H torsion
[ 7974 7965 7964 7962 ] final -144.43 input  175.53 | X-H torsion
[ 8008 7997 7996 7995 ] final  164.19 input   59.86 | X-H torsion
[ 10167 10162 10161 10158 ] final  150.06 input  -65.29 | X-H torsion
[ 10718 10713 10712 10709 ] final -105.59 input   66.30 | X-H torsion
[ 10763 10752 10751 10750 ] final  -71.81 input  -60.55 | X-H torsion
[ 11005 11000 10999 10996 ] final -104.44 input  -57.11 | X-H torsion

> <Gold.Protein.ActiveResidues>
 VAL166  LYS551  ARG553  GLY616  TRP617  ASP618  TYR619  PRO620  LYS621  CYS622 
 ASP623  PHE694  ASN695  SER759  ASP760  ASP761  ALA762  ILE779  LEU786  VAL792 
 PHE793  MET794  SER795  GLU796  ALA797  LYS798  CYS799  TRP800  GLU811  SER814 

> <Gold.Protein.RotatedAtoms>
  152.3613  134.6867  160.0205 H   0  0  0  0  0  0  0  0  0  0  0  0  # atno 6907 bound_to 6896
  151.7190  133.3308  159.3318 H   0  0  0  0  0  0  0  0  0  0  0  0  # atno 6908 bound_to 6896
  150.7607  134.6399  159.6276 H   0  0  0  0  0  0  0  0  0  0  0  0  # atno 6909 bound_to 6896
  144.8298  140.5711  143.5523 H   0  0  0  0  0  0  0  0  0  0  0  0  # atno 7974 bound_to 7965
  156.1899  140.1703  156.8112 H   0  0  0  0  0  0  0  0  0  0  0  0  # atno 8008 bound_to 7997
  154.5459  140.0727  156.8619 H   0  0  0  0  0  0  0  0  0  0  0  0  # atno 8009 bound_to 7997
  155.3123  140.3368  155.4246 H   0  0  0  0  0  0  0  0  0  0  0  0  # atno 8010 bound_to 7997
  139.4854  144.5552  151.7330 H   0  0  0  0  0  0  0  0  0  0  0  0  # atno 10167 bound_to 10162
  156.0352  130.5571  150.7560 H   0  0  0  0  0  0  0  0  0  0  0  0  # atno 10718 bound_to 10713
  154.4370  135.5950  153.6104 H   0  0  0  0  0  0  0  0  0  0  0  0  # atno 10763 bound_to 10752
  152.9802  135.5989  154.3770 H   0  0  0  0  0  0  0  0  0  0  0  0  # atno 10764 bound_to 10752
  154.3615  135.2841  155.2296 H   0  0  0  0  0  0  0  0  0  0  0  0  # atno 10765 bound_to 10752
  141.1100  133.8723  157.1611 H   0  0  0  0  0  0  0  0  0  0  0  0  # atno 11005 bound_to 11000
  145.4921  139.1488  143.3704 LP  0  0  0  0  0  0  0  0  0  0  0  0  # atno 17320 bound_to 7965
  146.2601  140.5059  142.8857 LP  0  0  0  0  0  0  0  0  0  0  0  0  # atno 17321 bound_to 7965
  140.5112  144.1021  150.5996 LP  0  0  0  0  0  0  0  0  0  0  0  0  # atno 17342 bound_to 10162
  140.3948  143.2734  152.0018 LP  0  0  0  0  0  0  0  0  0  0  0  0  # atno 17343 bound_to 10162
  157.5092  131.0924  151.0219 LP  0  0  0  0  0  0  0  0  0  0  0  0  # atno 17370 bound_to 10713
  157.0579  130.5813  149.5381 LP  0  0  0  0  0  0  0  0  0  0  0  0  # atno 17371 bound_to 10713
  139.9989  135.0035  157.0146 LP  0  0  0  0  0  0  0  0  0  0  0  0  # atno 17394 bound_to 11000
  140.4800  134.1299  155.7215 LP  0  0  0  0  0  0  0  0  0  0  0  0  # atno 17395 bound_to 11000

$$$$
