AV-unprocessed.smi:189|AV-procd|sdf|1488|dock2
  -GOLD-   2262019303D 1   1.00000     0.00000
 Structure written by MMmdl.
 53 57  0  0  0  0  0  0  0  0  1 V2000
  150.1556  140.5551  156.5232 C   0  0  0  0  0  0  0  0  0  0  0  0
  151.4359  141.3469  156.8628 C   0  0  1  0  0  0  0  0  0  0  0  0
  151.1718  142.8717  156.8058 C   0  0  0  0  0  0  0  0  0  0  0  0
  151.8579  143.4036  158.0604 C   0  0  1  0  0  0  0  0  0  0  0  0
  151.3573  144.7164  158.6742 C   0  0  0  0  0  0  0  0  0  0  0  0
  152.1506  145.0009  159.9670 C   0  0  0  0  0  0  0  0  0  0  0  0
  152.1270  143.8063  160.9481 C   0  0  0  0  0  0  0  0  0  0  0  0
  152.5465  142.4808  160.2776 C   0  0  0  0  0  0  0  0  0  0  0  0
  151.6685  142.2496  159.0335 C   0  0  2  0  0  0  0  0  0  0  0  0
  151.9673  141.0885  158.2092 N   0  0  0  0  0  0  0  0  0  0  0  0
  151.9468  139.8233  158.6999 C   0  0  0  0  0  0  0  0  0  0  0  0
  150.7675  139.1572  158.8108 N   0  0  0  0  0  0  0  0  0  0  0  0
  150.7415  137.9065  159.2798 C   0  0  0  0  0  0  0  0  0  0  0  0
  151.7607  137.1448  159.6819 N   0  0  0  0  0  0  0  0  0  0  0  0
  152.9479  137.8059  159.5665 C   0  0  0  0  0  0  0  0  0  0  0  0
  153.1287  139.1354  159.0917 C   0  0  0  0  0  0  0  0  0  0  0  0
  154.4767  139.4711  159.1238 N   0  0  0  0  0  0  0  0  0  0  0  0
  155.0605  138.3985  159.5834 C   0  0  0  0  0  0  0  0  0  0  0  0
  154.2183  137.3477  159.8693 N   0  0  0  0  0  0  0  0  0  0  0  0
  154.6017  136.0430  160.3862 C   0  0  0  0  0  0  0  0  0  0  0  0
  155.1561  136.0948  161.8289 C   0  0  2  0  0  0  0  0  0  0  0  0
  156.5064  136.5239  161.7872 O   0  0  0  0  0  0  0  0  0  0  0  0
  155.0932  134.7633  162.5722 C   0  0  0  0  0  0  0  0  0  0  0  0
  154.8946  135.1922  164.0193 C   0  0  0  0  0  0  0  0  0  0  0  0
  154.0004  136.2851  163.8968 O   0  0  0  0  0  0  0  0  0  0  0  0
  154.3708  137.0476  162.7523 C   0  0  0  0  0  0  0  0  0  0  0  0
  149.7687  140.8476  155.5468 H   0  0  0  0  0  0  0  0  0  0  0  0
  149.3707  140.7350  157.2587 H   0  0  0  0  0  0  0  0  0  0  0  0
  150.3375  139.4813  156.4847 H   0  0  0  0  0  0  0  0  0  0  0  0
  152.2185  141.0987  156.1451 H   0  0  0  0  0  0  0  0  0  0  0  0
  151.5576  143.3288  155.8943 H   0  0  0  0  0  0  0  0  0  0  0  0
  150.1027  143.0832  156.8557 H   0  0  0  0  0  0  0  0  0  0  0  0
  152.9214  143.5084  157.8347 H   0  0  0  0  0  0  0  0  0  0  0  0
  151.4796  145.5374  157.9672 H   0  0  0  0  0  0  0  0  0  0  0  0
  150.2920  144.6462  158.8977 H   0  0  0  0  0  0  0  0  0  0  0  0
  153.1856  145.2275  159.7082 H   0  0  0  0  0  0  0  0  0  0  0  0
  151.7568  145.8918  160.4567 H   0  0  0  0  0  0  0  0  0  0  0  0
  152.7765  144.0127  161.7990 H   0  0  0  0  0  0  0  0  0  0  0  0
  151.1199  143.6972  161.3524 H   0  0  0  0  0  0  0  0  0  0  0  0
  153.5990  142.5218  159.9945 H   0  0  0  0  0  0  0  0  0  0  0  0
  152.4480  141.6656  160.9932 H   0  0  0  0  0  0  0  0  0  0  0  0
  150.6212  142.1889  159.3362 H   0  0  0  0  0  0  0  0  0  0  0  0
  149.7642  137.4504  159.3389 H   0  0  0  0  0  0  0  0  0  0  0  0
  156.1302  138.3408  159.7230 H   0  0  0  0  0  0  0  0  0  0  0  0
  153.7320  135.3863  160.3385 H   0  0  0  0  0  0  0  0  0  0  0  0
  155.3443  135.6136  159.7125 H   0  0  0  0  0  0  0  0  0  0  0  0
  156.8363  136.5600  162.6723 H   0  0  0  0  0  0  0  0  0  0  0  0
  154.2174  134.1955  162.2563 H   0  0  0  0  0  0  0  0  0  0  0  0
  155.9700  134.1315  162.4238 H   0  0  0  0  0  0  0  0  0  0  0  0
  154.4799  134.3997  164.6424 H   0  0  0  0  0  0  0  0  0  0  0  0
  155.8327  135.5289  164.4634 H   0  0  0  0  0  0  0  0  0  0  0  0
  154.9694  137.9058  163.0626 H   0  0  0  0  0  0  0  0  0  0  0  0
  153.4686  137.4353  162.2776 H   0  0  0  0  0  0  0  0  0  0  0  0
  1  2  1  0  0  0  0
  1 27  1  0  0  0  0
  1 28  1  0  0  0  0
  1 29  1  0  0  0  0
  2 10  1  0  0  0  0
  2  3  1  0  0  0  0
  2 30  1  0  0  0  0
  3  4  1  0  0  0  0
  3 31  1  0  0  0  0
  3 32  1  0  0  0  0
  4  9  1  0  0  0  0
  4  5  1  0  0  0  0
  4 33  1  0  0  0  0
  5  6  1  0  0  0  0
  5 34  1  0  0  0  0
  5 35  1  0  0  0  0
  6  7  1  0  0  0  0
  6 36  1  0  0  0  0
  6 37  1  0  0  0  0
  7  8  1  0  0  0  0
  7 38  1  0  0  0  0
  7 39  1  0  0  0  0
  8  9  1  0  0  0  0
  8 40  1  0  0  0  0
  8 41  1  0  0  0  0
  9 10  1  0  0  0  0
  9 42  1  0  0  0  0
 10 11  1  0  0  0  0
 11 16  1  0  0  0  0
 11 12  2  0  0  0  0
 12 13  1  0  0  0  0
 13 14  2  0  0  0  0
 13 43  1  0  0  0  0
 14 15  1  0  0  0  0
 15 19  1  0  0  0  0
 15 16  2  0  0  0  0
 16 17  1  0  0  0  0
 17 18  2  0  0  0  0
 18 19  1  0  0  0  0
 18 44  1  0  0  0  0
 19 20  1  0  0  0  0
 20 21  1  0  0  0  0
 20 45  1  0  0  0  0
 20 46  1  0  0  0  0
 21 26  1  0  0  0  0
 21 22  1  0  0  0  0
 21 23  1  0  0  0  0
 22 47  1  0  0  0  0
 23 24  1  0  0  0  0
 23 48  1  0  0  0  0
 23 49  1  0  0  0  0
 24 25  1  0  0  0  0
 24 50  1  0  0  0  0
 24 51  1  0  0  0  0
 25 26  1  0  0  0  0
 26 52  1  0  0  0  0
 26 53  1  0  0  0  0
M  END
> <s_m_source_file>
AV-unprocessed.smi

> <i_m_source_file_index>
189

> <i_lp_mmshare_version>
43012

> <i_f3d_flags>
0

> <s_epik_input>
W0NIMl0xW0NIMl1bQ0gyXVtDSDJdW0NASF0oW0NASF0xMilOKFtDQEhdKFtDSDNdKVtDSDJdMiljKG5bY0hdbjMpYyhjMzQpbltjSF1uNFtDSDJdW0NAQF01KFtPSF0pW0NIMl1bQ0gyXU9bQ0gyXTU=

> <s_epik_cmdline>
J2VwaWtfcHl0aG9uJywgJy1waCcsICc3LjAnLCAnLXRuJywgJzgnLCAnLW1hJywgJzIwMCcsICctbWV0YWxfYmluZGluZycsICctaW1hZScsICc8aW5maWxlLm1hZT4nLCAnLW9tYWUnLCAnPG91dGZpbGUubWFlPic=

> <r_lp_tautomer_probability>
1

> <r_epik_Ionization_Penalty>
0.00594261

> <r_epik_Ionization_Penalty_Charging>
0

> <r_epik_Ionization_Penalty_Neutral>
0.00594261

> <r_epik_State_Penalty>
0.00429776

> <r_epik_Charging_Adjusted_Penalty>
0.00429776

> <i_epik_Tot_Q>
0

> <i_epik_Tot_abs_Q>
0

> <r_epik_Metal_State_Penalty>
-0

> <b_epik_Metal_Only>
0

> <s_lp_Force_Field>
OPLS_2005

> <r_lp_Energy>
58.0948

> <b_lp_Chiralities_Consistent>
1

> <s_lp_Variant>
AV-unprocessed.smi:189-14

> <Gold.Version>
5.8.1

> <Gold.Id.Protein>
6NUR|6NUR_protein|mol2

> <Gold.PLP.Fitness>
50.1005

> <Gold.PLP.PLP>
-44.9710

> <Gold.PLP.part.hbond>
-2.0000

> <Gold.PLP.part.metal>
0.0000

> <Gold.PLP.part.buried>
-6.5469

> <Gold.PLP.part.nonpolar>
-36.3740

> <Gold.PLP.part.repulsive>
0.0617

> <Gold.PLP.ligand.clash>
0.0060

> <Gold.PLP.ligand.torsion>
0.6315

> <Gold.PLP.Chemscore.Hbond>
2.0000

> <Gold.PLP.Chemscore.CHOScore>
0.0000

> <Gold.PLP.Chemscore.Metal>
0.0000

> <Gold.Chemscore.Hbonds>
donor molecule, donor type, donor heavy atom, donor atom, acceptor molecule, acceptor atom, score
      P1  H  6896  6909       L1    14  0.99
      P1  H  7997  8009       L1    17  1.00

> <Gold.PLP.Chemscore.Internal.Correction>
0.3985

> <Gold.Rescore>
     Score         DG    S(hbond)    S(metal)    S(lipo)     H(rot)  DE(clash)    DE(int)     intcor
     18.73     -20.92       1.85        0.00     123.64       2.03       0.16       2.04       ----

> <Gold.Chemscore.Fitness>
18.7262

> <Gold.Chemscore.DG>
-20.9195

> <Gold.Chemscore.ZeroCoef>
-5.4800

> <Gold.Chemscore.Hbond>
1.8473

> <Gold.Chemscore.Metal>
0.0000

> <Gold.Chemscore.Lipo>
123.6353

> <Gold.Chemscore.Internal_Hbond>
0.0000

> <Gold.Chemscore.DEClash>
0.1561

> <Gold.Chemscore.DEInternal>
2.0372

> <Gold.Chemscore.Rot>
2.0297

> <Gold.Chemscore.Internal.Correction>
   9.000000E+99

> <Gold.Chemscore.Hbonds>
donor molecule, donor type, donor heavy atom, donor atom, acceptor molecule, acceptor atom, score
      P1  H  6896  6909       L1    14  0.87
      P1  H  7997  8009       L1    17  0.62

> <Gold.Chemscore.Hbond.Weighted>
-6.1701

> <Gold.Chemscore.Metal.Weighted>
-0.0000

> <Gold.Chemscore.Lipo.Weighted>
-14.4653

> <Gold.Chemscore.Internal_Hbond.Weighted>
0.0000

> <Gold.Chemscore.DEClash.Weighted>
0.1561

> <Gold.Chemscore.DEInternal.Weighted>
2.0372

> <Gold.Chemscore.Rot.Weighted>
5.1960

> <Gold.Chemscore.Internal.Correction.Weighted>
   9.000000E+99

> <Gold.Protein.RotatedTorsions>
[ 6907 6896 6895 6894 ] final  108.31 input  -60.11 | X-H torsion
[ 7974 7965 7964 7962 ] final -110.19 input  175.53 | X-H torsion
[ 8008 7997 7996 7995 ] final  125.11 input   59.86 | X-H torsion
[ 10167 10162 10161 10158 ] final  103.44 input  -65.29 | X-H torsion
[ 10718 10713 10712 10709 ] final  178.28 input   66.30 | X-H torsion
[ 10763 10752 10751 10750 ] final  127.39 input  -60.55 | X-H torsion
[ 11005 11000 10999 10996 ] final  175.38 input  -57.11 | X-H torsion

> <Gold.Protein.ActiveResidues>
 VAL166  LYS551  ARG553  GLY616  TRP617  ASP618  TYR619  PRO620  LYS621  CYS622 
 ASP623  PHE694  ASN695  SER759  ASP760  ASP761  ALA762  ILE779  LEU786  VAL792 
 PHE793  MET794  SER795  GLU796  ALA797  LYS798  CYS799  TRP800  GLU811  SER814 

> <Gold.Protein.RotatedAtoms>
  152.5117  133.9107  159.7486 H   0  0  0  0  0  0  0  0  0  0  0  0  # atno 6907 bound_to 6896
  150.9501  133.6550  159.2780 H   0  0  0  0  0  0  0  0  0  0  0  0  # atno 6908 bound_to 6896
  151.3831  135.0948  159.9555 H   0  0  0  0  0  0  0  0  0  0  0  0  # atno 6909 bound_to 6896
  145.1713  140.8927  143.3533 H   0  0  0  0  0  0  0  0  0  0  0  0  # atno 7974 bound_to 7965
  156.2823  140.2724  156.1896 H   0  0  0  0  0  0  0  0  0  0  0  0  # atno 8008 bound_to 7997
  155.0472  140.0386  157.2548 H   0  0  0  0  0  0  0  0  0  0  0  0  # atno 8009 bound_to 7997
  154.7225  140.2690  155.6533 H   0  0  0  0  0  0  0  0  0  0  0  0  # atno 8010 bound_to 7997
  139.7262  144.7047  151.0793 H   0  0  0  0  0  0  0  0  0  0  0  0  # atno 10167 bound_to 10162
  156.8929  130.9853  151.3047 H   0  0  0  0  0  0  0  0  0  0  0  0  # atno 10718 bound_to 10713
  153.7086  135.3272  155.3241 H   0  0  0  0  0  0  0  0  0  0  0  0  # atno 10763 bound_to 10752
  154.8391  135.4471  154.1337 H   0  0  0  0  0  0  0  0  0  0  0  0  # atno 10764 bound_to 10752
  153.2424  135.6972  153.7847 H   0  0  0  0  0  0  0  0  0  0  0  0  # atno 10765 bound_to 10752
  140.3616  134.7108  157.4335 H   0  0  0  0  0  0  0  0  0  0  0  0  # atno 11005 bound_to 11000
  145.0230  139.3407  143.6063 LP  0  0  0  0  0  0  0  0  0  0  0  0  # atno 17320 bound_to 7965
  146.3468  139.9538  142.8725 LP  0  0  0  0  0  0  0  0  0  0  0  0  # atno 17321 bound_to 7965
  140.7763  143.5101  150.9663 LP  0  0  0  0  0  0  0  0  0  0  0  0  # atno 17342 bound_to 10162
  139.8789  143.7097  152.3159 LP  0  0  0  0  0  0  0  0  0  0  0  0  # atno 17343 bound_to 10162
  157.6073  130.8556  149.8895 LP  0  0  0  0  0  0  0  0  0  0  0  0  # atno 17370 bound_to 10713
  156.0620  130.3698  150.0961 LP  0  0  0  0  0  0  0  0  0  0  0  0  # atno 17371 bound_to 10713
  140.0622  134.5979  155.8736 LP  0  0  0  0  0  0  0  0  0  0  0  0  # atno 17394 bound_to 11000
  141.1982  133.6600  156.5781 LP  0  0  0  0  0  0  0  0  0  0  0  0  # atno 17395 bound_to 11000

$$$$
