AV-unprocessed.smi:2923|AV-procd|sdf|11215|dock7
  -GOLD-   2272016103D 1   1.00000     0.00000
 Structure written by MMmdl.
 46 48  0  0  0  0  0  0  0  0  1 V2000
  143.2212  132.2902  150.1823 C   0  0  0  0  0  0  0  0  0  0  0  0
  144.5339  132.8964  150.3684 N   0  0  0  0  0  0  0  0  0  0  0  0
  145.7289  132.1990  149.9046 C   0  0  0  0  0  0  0  0  0  0  0  0
  144.6471  134.1903  150.9267 C   0  0  0  0  0  0  0  0  0  0  0  0
  143.5074  134.9084  151.3671 C   0  0  0  0  0  0  0  0  0  0  0  0
  143.6700  136.1959  151.9133 C   0  0  0  0  0  0  0  0  0  0  0  0
  144.9716  136.7380  152.0168 C   0  0  0  0  0  0  0  0  0  0  0  0
  145.2638  138.0327  152.5245 N   0  0  0  0  0  0  0  0  0  0  0  0
  146.2813  138.4116  153.3162 C   0  0  0  0  0  0  0  0  0  0  0  0
  147.2017  137.6860  153.6918 O   0  0  0  0  0  0  0  0  0  0  0  0
  146.1824  139.7064  153.6450 N   0  0  0  0  0  0  0  0  0  0  0  0
  147.1342  140.4155  154.4944 C   0  0  1  0  0  0  0  0  0  0  0  0
  148.5784  140.3022  153.9821 C   0  0  2  0  0  0  0  0  0  0  0  0
  149.6076  139.5687  154.7983 C   0  0  0  0  0  0  0  0  0  0  0  0
  150.2861  140.6949  155.5834 C   0  0  0  0  0  0  0  0  0  0  0  0
  149.3328  141.7551  155.5884 O   0  0  0  0  0  0  0  0  0  0  0  0
  148.7167  141.7827  154.3032 C   0  0  2  0  0  0  0  0  0  0  0  0
  147.1828  141.9494  154.2734 C   0  0  0  0  0  0  0  0  0  0  0  0
  146.6359  142.4937  152.9458 C   0  0  0  0  0  0  0  0  0  0  0  0
  146.5799  142.8104  155.3843 C   0  0  0  0  0  0  0  0  0  0  0  0
  146.0424  135.9551  151.5438 C   0  0  0  0  0  0  0  0  0  0  0  0
  145.8910  134.7211  151.0199 N   0  0  0  0  0  0  0  0  0  0  0  0
  142.6031  132.9065  149.5289 H   0  0  0  0  0  0  0  0  0  0  0  0
  142.7133  132.1760  151.1402 H   0  0  0  0  0  0  0  0  0  0  0  0
  143.3006  131.3020  149.7291 H   0  0  0  0  0  0  0  0  0  0  0  0
  146.2283  132.7738  149.1240 H   0  0  0  0  0  0  0  0  0  0  0  0
  145.4839  131.2196  149.4934 H   0  0  0  0  0  0  0  0  0  0  0  0
  146.4290  132.0496  150.7272 H   0  0  0  0  0  0  0  0  0  0  0  0
  142.5102  134.5018  151.2921 H   0  0  0  0  0  0  0  0  0  0  0  0
  142.7936  136.7423  152.2249 H   0  0  0  0  0  0  0  0  0  0  0  0
  144.6378  138.7654  152.2241 H   0  0  0  0  0  0  0  0  0  0  0  0
  145.3988  140.2351  153.2911 H   0  0  0  0  0  0  0  0  0  0  0  0
  147.0596  140.1524  155.5520 H   0  0  0  0  0  0  0  0  0  0  0  0
  148.6328  140.1197  152.9072 H   0  0  0  0  0  0  0  0  0  0  0  0
  149.1333  138.8556  155.4733 H   0  0  0  0  0  0  0  0  0  0  0  0
  150.3219  139.0228  154.1813 H   0  0  0  0  0  0  0  0  0  0  0  0
  150.5624  140.3967  156.5949 H   0  0  0  0  0  0  0  0  0  0  0  0
  151.1870  141.0316  155.0683 H   0  0  0  0  0  0  0  0  0  0  0  0
  149.2791  142.3499  153.5598 H   0  0  0  0  0  0  0  0  0  0  0  0
  146.9206  143.5355  152.7961 H   0  0  0  0  0  0  0  0  0  0  0  0
  145.5469  142.4449  152.9072 H   0  0  0  0  0  0  0  0  0  0  0  0
  147.0162  141.9339  152.0908 H   0  0  0  0  0  0  0  0  0  0  0  0
  146.8855  143.8530  155.2934 H   0  0  0  0  0  0  0  0  0  0  0  0
  146.8903  142.4680  156.3719 H   0  0  0  0  0  0  0  0  0  0  0  0
  145.4900  142.7815  155.3652 H   0  0  0  0  0  0  0  0  0  0  0  0
  147.0556  136.3275  151.5876 H   0  0  0  0  0  0  0  0  0  0  0  0
  1  2  1  0  0  0  0
  1 23  1  0  0  0  0
  1 24  1  0  0  0  0
  1 25  1  0  0  0  0
  2  3  1  0  0  0  0
  2  4  1  0  0  0  0
  3 26  1  0  0  0  0
  3 27  1  0  0  0  0
  3 28  1  0  0  0  0
  4 22  1  0  0  0  0
  4  5  2  0  0  0  0
  5  6  1  0  0  0  0
  5 29  1  0  0  0  0
  6  7  2  0  0  0  0
  6 30  1  0  0  0  0
  7  8  1  0  0  0  0
  7 21  1  0  0  0  0
  8  9  1  0  0  0  0
  8 31  1  0  0  0  0
  9 10  2  0  0  0  0
  9 11  1  0  0  0  0
 11 12  1  0  0  0  0
 11 32  1  0  0  0  0
 12 18  1  0  0  0  0
 12 13  1  0  0  0  0
 12 33  1  0  0  0  0
 13 17  1  0  0  0  0
 13 14  1  0  0  0  0
 13 34  1  0  0  0  0
 14 15  1  0  0  0  0
 14 35  1  0  0  0  0
 14 36  1  0  0  0  0
 15 16  1  0  0  0  0
 15 37  1  0  0  0  0
 15 38  1  0  0  0  0
 16 17  1  0  0  0  0
 17 18  1  0  0  0  0
 17 39  1  0  0  0  0
 18 19  1  0  0  0  0
 18 20  1  0  0  0  0
 19 40  1  0  0  0  0
 19 41  1  0  0  0  0
 19 42  1  0  0  0  0
 20 43  1  0  0  0  0
 20 44  1  0  0  0  0
 20 45  1  0  0  0  0
 21 22  2  0  0  0  0
 21 46  1  0  0  0  0
M  END
> <s_m_source_file>
AV-unprocessed.smi

> <i_m_source_file_index>
2923

> <i_lp_mmshare_version>
43012

> <i_f3d_flags>
0

> <s_epik_input>
W0NIM11OKFtDSDNdKWMxW2NIXVtjSF1jKFtjSF1uMSlbTkhdQyg9TylbTkhdW0NASF0yQyhbQ0gzXSkoW0NIM10pW0NAQEhdKFtDQEhdMjMpT1tDSDJdW0NIMl0z

> <s_epik_cmdline>
J2VwaWtfcHl0aG9uJywgJy1waCcsICc3LjAnLCAnLXRuJywgJzgnLCAnLW1hJywgJzIwMCcsICctbWV0YWxfYmluZGluZycsICctaW1hZScsICc8aW5maWxlLm1hZT4nLCAnLW9tYWUnLCAnPG91dGZpbGUubWFlPic=

> <r_lp_tautomer_probability>
1

> <r_epik_Ionization_Penalty>
0.628785

> <r_epik_Ionization_Penalty_Charging>
0

> <r_epik_Ionization_Penalty_Neutral>
0.628785

> <r_epik_State_Penalty>
0.644286

> <r_epik_Charging_Adjusted_Penalty>
0.644286

> <i_epik_Tot_Q>
0

> <i_epik_Tot_abs_Q>
0

> <r_epik_Metal_State_Penalty>
0.308404

> <b_epik_Metal_Only>
0

> <s_lp_Force_Field>
OPLS_2005

> <r_lp_Energy>
39.1675

> <b_lp_Chiralities_Consistent>
1

> <s_lp_Variant>
AV-unprocessed.smi:2923-14

> <Gold.Version>
5.8.1

> <Gold.Id.Protein>
6NUR|6NUR_protein|mol2

> <Gold.PLP.Fitness>
43.0989

> <Gold.PLP.PLP>
-35.0080

> <Gold.PLP.part.hbond>
-2.0000

> <Gold.PLP.part.metal>
0.0000

> <Gold.PLP.part.buried>
-1.4940

> <Gold.PLP.part.nonpolar>
-33.2205

> <Gold.PLP.part.repulsive>
2.2546

> <Gold.PLP.ligand.clash>
0.0000

> <Gold.PLP.ligand.torsion>
0.5068

> <Gold.PLP.Chemscore.Hbond>
1.9750

> <Gold.PLP.Chemscore.CHOScore>
1.0000

> <Gold.PLP.Chemscore.Metal>
0.0000

> <Gold.Chemscore.Hbonds>
donor molecule, donor type, donor heavy atom, donor atom, acceptor molecule, acceptor atom, score
      L1  H     8    31       P1 10175  1.00
      L1  H    11    32       P1 10175  1.00
      L1  C    21    46       P1  7948  0.64

> <Gold.PLP.Chemscore.Internal.Correction>
0.1795

> <Gold.Rescore>
     Score         DG    S(hbond)    S(metal)    S(lipo)     H(rot)  DE(clash)    DE(int)     intcor
     14.28     -19.06       1.96        0.00      81.99       1.00       2.11       2.67       ----

> <Gold.Chemscore.Fitness>
14.2813

> <Gold.Chemscore.DG>
-19.0596

> <Gold.Chemscore.ZeroCoef>
-5.4800

> <Gold.Chemscore.Hbond>
1.9601

> <Gold.Chemscore.Metal>
0.0000

> <Gold.Chemscore.Lipo>
81.9909

> <Gold.Chemscore.Internal_Hbond>
0.0000

> <Gold.Chemscore.DEClash>
2.1074

> <Gold.Chemscore.DEInternal>
2.6709

> <Gold.Chemscore.Rot>
1.0000

> <Gold.Chemscore.Internal.Correction>
   9.000000E+99

> <Gold.Chemscore.Hbonds>
donor molecule, donor type, donor heavy atom, donor atom, acceptor molecule, acceptor atom, score
      L1  H     8    31       P1 10175  0.97
      L1  H    11    32       P1 10175  0.98

> <Gold.Chemscore.Hbond.Weighted>
-6.5467

> <Gold.Chemscore.Metal.Weighted>
-0.0000

> <Gold.Chemscore.Lipo.Weighted>
-9.5929

> <Gold.Chemscore.Internal_Hbond.Weighted>
0.0000

> <Gold.Chemscore.DEClash.Weighted>
2.1074

> <Gold.Chemscore.DEInternal.Weighted>
2.6709

> <Gold.Chemscore.Rot.Weighted>
2.5600

> <Gold.Chemscore.Internal.Correction.Weighted>
   9.000000E+99

> <Gold.Protein.RotatedTorsions>
[ 6907 6896 6895 6894 ] final  -98.19 input  -60.11 | X-H torsion
[ 7974 7965 7964 7962 ] final   78.61 input  175.53 | X-H torsion
[ 8008 7997 7996 7995 ] final  146.90 input   59.86 | X-H torsion
[ 10167 10162 10161 10158 ] final  -13.18 input  -65.29 | X-H torsion
[ 10718 10713 10712 10709 ] final  154.00 input   66.30 | X-H torsion
[ 10763 10752 10751 10750 ] final -165.27 input  -60.55 | X-H torsion
[ 11005 11000 10999 10996 ] final  155.70 input  -57.11 | X-H torsion

> <Gold.Protein.ActiveResidues>
 VAL166  LYS551  ARG553  GLY616  TRP617  ASP618  TYR619  PRO620  LYS621  CYS622 
 ASP623  PHE694  ASN695  SER759  ASP760  ASP761  ALA762  ILE779  LEU786  VAL792 
 PHE793  MET794  SER795  GLU796  ALA797  LYS798  CYS799  TRP800  GLU811  SER814 

> <Gold.Protein.RotatedAtoms>
  150.7039  134.1233  159.4042 H   0  0  0  0  0  0  0  0  0  0  0  0  # atno 6907 bound_to 6896
  151.9219  135.0292  160.0532 H   0  0  0  0  0  0  0  0  0  0  0  0  # atno 6908 bound_to 6896
  152.2249  133.4977  159.5219 H   0  0  0  0  0  0  0  0  0  0  0  0  # atno 6909 bound_to 6896
  145.6750  139.2507  143.1847 H   0  0  0  0  0  0  0  0  0  0  0  0  # atno 7974 bound_to 7965
  156.2841  140.2170  156.5452 H   0  0  0  0  0  0  0  0  0  0  0  0  # atno 8008 bound_to 7997
  154.7337  140.0493  157.0771 H   0  0  0  0  0  0  0  0  0  0  0  0  # atno 8009 bound_to 7997
  155.0321  140.3136  155.4758 H   0  0  0  0  0  0  0  0  0  0  0  0  # atno 8010 bound_to 7997
  140.7177  143.5454  150.9361 H   0  0  0  0  0  0  0  0  0  0  0  0  # atno 10167 bound_to 10162
  157.2374  131.0752  151.1815 H   0  0  0  0  0  0  0  0  0  0  0  0  # atno 10718 bound_to 10713
  154.6948  135.2977  154.9427 H   0  0  0  0  0  0  0  0  0  0  0  0  # atno 10763 bound_to 10752
  154.0378  135.6661  153.4791 H   0  0  0  0  0  0  0  0  0  0  0  0  # atno 10764 bound_to 10752
  153.0638  135.5100  154.8060 H   0  0  0  0  0  0  0  0  0  0  0  0  # atno 10765 bound_to 10752
  140.1606  134.8612  157.2569 H   0  0  0  0  0  0  0  0  0  0  0  0  # atno 11005 bound_to 11000
  146.1013  140.7540  142.9547 LP  0  0  0  0  0  0  0  0  0  0  0  0  # atno 17320 bound_to 7965
  144.7044  140.3792  143.7129 LP  0  0  0  0  0  0  0  0  0  0  0  0  # atno 17321 bound_to 7965
  139.9177  143.6643  152.3103 LP  0  0  0  0  0  0  0  0  0  0  0  0  # atno 17342 bound_to 10162
  139.7049  144.7629  151.1210 LP  0  0  0  0  0  0  0  0  0  0  0  0  # atno 17343 bound_to 10162
  157.3415  130.7036  149.6384 LP  0  0  0  0  0  0  0  0  0  0  0  0  # atno 17370 bound_to 10713
  155.9672  130.4278  150.4762 LP  0  0  0  0  0  0  0  0  0  0  0  0  # atno 17371 bound_to 10713
  140.2495  134.3700  155.7448 LP  0  0  0  0  0  0  0  0  0  0  0  0  # atno 17394 bound_to 11000
  141.2209  133.7309  156.8913 LP  0  0  0  0  0  0  0  0  0  0  0  0  # atno 17395 bound_to 11000

$$$$
