AV-unprocessed.smi:160|AV-procd|sdf|1344|dock8
  -GOLD-   2262019 43D 1   1.00000     0.00000
 Structure written by MMmdl.
 29 30  0  0  0  0  0  0  0  0  1 V2000
  144.0285  146.2836  153.5897 N   0  0  0  0  0  0  0  0  0  0  0  0
  144.7079  145.2184  153.1519 C   0  0  0  0  0  0  0  0  0  0  0  0
  145.1042  145.1209  151.9917 O   0  0  0  0  0  0  0  0  0  0  0  0
  144.9673  144.1355  154.1623 C   0  0  0  0  0  0  0  0  0  0  0  0
  144.2737  144.0843  155.3383 N   0  0  0  0  0  0  0  0  0  0  0  0
  144.8319  143.0005  155.8621 C   0  0  0  0  0  0  0  0  0  0  0  0
  145.7746  142.4438  155.0947 N   0  0  0  0  0  0  0  0  0  0  0  0
  146.6147  141.2254  155.3392 C   0  0  1  0  0  0  0  0  0  0  0  0
  146.1817  140.2141  154.4778 O   0  0  0  0  0  0  0  0  0  0  0  0
  147.0939  140.0843  153.3918 C   0  0  2  0  0  0  0  0  0  0  0  0
  146.9508  138.6941  152.7544 C   0  0  0  0  0  0  0  0  0  0  0  0
  147.6779  138.6407  151.5455 O   0  0  0  0  0  0  0  0  0  0  0  0
  148.4318  140.3063  154.0981 C   0  0  1  0  0  0  0  0  0  0  0  0
  149.4891  140.5926  153.2013 O   0  0  0  0  0  0  0  0  0  0  0  0
  148.1224  141.4480  155.0661 C   0  0  1  0  0  0  0  0  0  0  0  0
  148.4374  142.7238  154.5280 O   0  0  0  0  0  0  0  0  0  0  0  0
  145.8781  143.1822  153.9610 N   0  0  0  0  0  0  0  0  0  0  0  0
  146.3985  140.9497  156.3720 H   0  0  0  0  0  0  0  0  0  0  0  0
  146.9273  140.8744  152.6570 H   0  0  0  0  0  0  0  0  0  0  0  0
  148.6894  139.4150  154.6723 H   0  0  0  0  0  0  0  0  0  0  0  0
  148.6770  141.3267  155.9971 H   0  0  0  0  0  0  0  0  0  0  0  0
  143.8228  147.0446  152.9595 H   0  0  0  0  0  0  0  0  0  0  0  0
  143.7251  146.3186  154.5525 H   0  0  0  0  0  0  0  0  0  0  0  0
  144.5491  142.6053  156.8268 H   0  0  0  0  0  0  0  0  0  0  0  0
  147.3625  137.9325  153.4171 H   0  0  0  0  0  0  0  0  0  0  0  0
  145.9043  138.4416  152.5806 H   0  0  0  0  0  0  0  0  0  0  0  0
  148.0863  137.7912  151.4772 H   0  0  0  0  0  0  0  0  0  0  0  0
  149.4892  139.9384  152.5196 H   0  0  0  0  0  0  0  0  0  0  0  0
  148.6228  143.3154  155.2410 H   0  0  0  0  0  0  0  0  0  0  0  0
  1  2  1  0  0  0  0
  1 22  1  0  0  0  0
  1 23  1  0  0  0  0
  2  3  2  0  0  0  0
  2  4  1  0  0  0  0
  4 17  2  0  0  0  0
  4  5  1  0  0  0  0
  5  6  2  0  0  0  0
  6  7  1  0  0  0  0
  6 24  1  0  0  0  0
  7  8  1  0  0  0  0
  7 17  1  0  0  0  0
  8 18  1  0  0  0  0
  8 15  1  0  0  0  0
  8  9  1  0  0  0  0
  9 10  1  0  0  0  0
 10 19  1  0  0  0  0
 10 11  1  0  0  0  0
 10 13  1  0  0  0  0
 11 12  1  0  0  0  0
 11 25  1  0  0  0  0
 11 26  1  0  0  0  0
 12 27  1  0  0  0  0
 13 20  1  0  0  0  0
 13 14  1  0  0  0  0
 13 15  1  0  0  0  0
 14 28  1  0  0  0  0
 15 21  1  0  0  0  0
 15 16  1  0  0  0  0
 16 29  1  0  0  0  0
M  END
> <s_m_source_file>
AV-unprocessed.smi

> <i_m_source_file_index>
160

> <i_lp_mmshare_version>
43012

> <i_f3d_flags>
0

> <s_epik_input>
W05IMl1DKD1PKWMxbltjSF1uKG4xKVtDQEBIXTJPW0NASF0oW0NIMl1bT0hdKVtDQEBIXShbT0hdKVtDQEhdMltPSF0=

> <s_epik_cmdline>
J2VwaWtfcHl0aG9uJywgJy1waCcsICc3LjAnLCAnLXRuJywgJzgnLCAnLW1hJywgJzIwMCcsICctbWV0YWxfYmluZGluZycsICctaW1hZScsICc8aW5maWxlLm1hZT4nLCAnLW9tYWUnLCAnPG91dGZpbGUubWFlPic=

> <r_lp_tautomer_probability>
1

> <r_epik_Ionization_Penalty>
1.06932e-05

> <r_epik_Ionization_Penalty_Charging>
0

> <r_epik_Ionization_Penalty_Neutral>
1.06932e-05

> <r_epik_State_Penalty>
-0

> <r_epik_Charging_Adjusted_Penalty>
0

> <i_epik_Tot_Q>
0

> <i_epik_Tot_abs_Q>
0

> <r_epik_Metal_State_Penalty>
0.0142097

> <b_epik_Metal_Only>
0

> <s_epik_Chemistry_Notes>
This compound contains an acetal/aminal-like group ( X-CH(R)-Y where X, Y are N, S, or O) that may be acid/base labile, releasing an aldehyde.

> <s_lp_Force_Field>
OPLS_2005

> <r_lp_Energy>
46.1789

> <b_lp_Chiralities_Consistent>
1

> <s_lp_Variant>
AV-unprocessed.smi:160-2

> <Gold.Version>
5.8.1

> <Gold.Id.Protein>
6NUR|6NUR_protein|mol2

> <Gold.PLP.Fitness>
39.6751

> <Gold.PLP.PLP>
-30.3968

> <Gold.PLP.part.hbond>
-7.0625

> <Gold.PLP.part.metal>
0.0000

> <Gold.PLP.part.buried>
-5.3257

> <Gold.PLP.part.nonpolar>
-18.5504

> <Gold.PLP.part.repulsive>
0.7745

> <Gold.PLP.ligand.clash>
0.0000

> <Gold.PLP.ligand.torsion>
0.4448

> <Gold.PLP.Chemscore.Hbond>
3.3838

> <Gold.PLP.Chemscore.CHOScore>
0.0000

> <Gold.PLP.Chemscore.Metal>
0.0000

> <Gold.Chemscore.Hbonds>
donor molecule, donor type, donor heavy atom, donor atom, acceptor molecule, acceptor atom, score
      L1  H    12    27       P1  7948  1.00
      L1  H    14    28       P1  7957  0.38
      L1  H    16    29       P1  8028  0.79
      P1  H  7989  7998       L1    14  0.22
      P1  H  8011  8017       L1    14  0.99

> <Gold.PLP.Chemscore.Internal.Correction>
0.0165

> <Gold.Rescore>
     Score         DG    S(hbond)    S(metal)    S(lipo)     H(rot)  DE(clash)    DE(int)     intcor
      4.91      -7.33       2.77        0.00      25.56       4.06       0.38       2.04       ----

> <Gold.Chemscore.Fitness>
4.9065

> <Gold.Chemscore.DG>
-7.3272

> <Gold.Chemscore.ZeroCoef>
-5.4800

> <Gold.Chemscore.Hbond>
2.7695

> <Gold.Chemscore.Metal>
0.0000

> <Gold.Chemscore.Lipo>
25.5609

> <Gold.Chemscore.Internal_Hbond>
0.0000

> <Gold.Chemscore.DEClash>
0.3787

> <Gold.Chemscore.DEInternal>
2.0419

> <Gold.Chemscore.Rot>
4.0600

> <Gold.Chemscore.Internal.Correction>
   9.000000E+99

> <Gold.Chemscore.Hbonds>
donor molecule, donor type, donor heavy atom, donor atom, acceptor molecule, acceptor atom, score
      L1  H    12    27       P1  7948  1.00
      L1  H    14    28       P1  7957  0.37
      L1  H    16    29       P1  8028  0.74
      P1  H  7989  7998       L1    14  0.06
      P1  H  8011  8017       L1    14  0.56

> <Gold.Chemscore.Hbond.Weighted>
-9.2502

> <Gold.Chemscore.Metal.Weighted>
-0.0000

> <Gold.Chemscore.Lipo.Weighted>
-2.9906

> <Gold.Chemscore.Internal_Hbond.Weighted>
0.0000

> <Gold.Chemscore.DEClash.Weighted>
0.3787

> <Gold.Chemscore.DEInternal.Weighted>
2.0419

> <Gold.Chemscore.Rot.Weighted>
10.3936

> <Gold.Chemscore.Internal.Correction.Weighted>
   9.000000E+99

> <Gold.Protein.RotatedTorsions>
[ 6907 6896 6895 6894 ] final -157.34 input  -60.11 | X-H torsion
[ 7974 7965 7964 7962 ] final    7.58 input  175.53 | X-H torsion
[ 8008 7997 7996 7995 ] final -120.85 input   59.86 | X-H torsion
[ 10167 10162 10161 10158 ] final   17.60 input  -65.29 | X-H torsion
[ 10718 10713 10712 10709 ] final  139.76 input   66.30 | X-H torsion
[ 10763 10752 10751 10750 ] final  -66.25 input  -60.55 | X-H torsion
[ 11005 11000 10999 10996 ] final  171.84 input  -57.11 | X-H torsion

> <Gold.Protein.ActiveResidues>
 VAL166  LYS551  ARG553  GLY616  TRP617  ASP618  TYR619  PRO620  LYS621  CYS622 
 ASP623  PHE694  ASN695  SER759  ASP760  ASP761  ALA762  ILE779  LEU786  VAL792 
 PHE793  MET794  SER795  GLU796  ALA797  LYS798  CYS799  TRP800  GLU811  SER814 

> <Gold.Protein.RotatedAtoms>
  151.3014  133.4120  159.2639 H   0  0  0  0  0  0  0  0  0  0  0  0  # atno 6907 bound_to 6896
  151.0192  134.9456  159.8060 H   0  0  0  0  0  0  0  0  0  0  0  0  # atno 6908 bound_to 6896
  152.5320  134.2978  159.9119 H   0  0  0  0  0  0  0  0  0  0  0  0  # atno 6909 bound_to 6896
  146.2425  140.0062  142.8411 H   0  0  0  0  0  0  0  0  0  0  0  0  # atno 7974 bound_to 7965
  155.1385  140.0401  157.2792 H   0  0  0  0  0  0  0  0  0  0  0  0  # atno 8008 bound_to 7997
  154.6490  140.2565  155.7208 H   0  0  0  0  0  0  0  0  0  0  0  0  # atno 8009 bound_to 7997
  156.2568  140.2840  156.0916 H   0  0  0  0  0  0  0  0  0  0  0  0  # atno 8010 bound_to 7997
  140.5714  143.9154  150.6716 H   0  0  0  0  0  0  0  0  0  0  0  0  # atno 10167 bound_to 10162
  157.4108  131.1028  151.0456 H   0  0  0  0  0  0  0  0  0  0  0  0  # atno 10718 bound_to 10713
  154.3570  135.6124  153.5671 H   0  0  0  0  0  0  0  0  0  0  0  0  # atno 10763 bound_to 10752
  152.9795  135.5806  154.4677 H   0  0  0  0  0  0  0  0  0  0  0  0  # atno 10764 bound_to 10752
  154.4408  135.2850  155.1826 H   0  0  0  0  0  0  0  0  0  0  0  0  # atno 10765 bound_to 10752
  140.3233  134.7419  157.4080 H   0  0  0  0  0  0  0  0  0  0  0  0  # atno 11005 bound_to 11000
  145.1370  140.9550  143.4511 LP  0  0  0  0  0  0  0  0  0  0  0  0  # atno 17320 bound_to 7965
  145.0333  139.3322  143.6014 LP  0  0  0  0  0  0  0  0  0  0  0  0  # atno 17321 bound_to 7965
  140.2630  143.3510  152.1306 LP  0  0  0  0  0  0  0  0  0  0  0  0  # atno 17342 bound_to 10162
  139.5119  144.6909  151.5763 LP  0  0  0  0  0  0  0  0  0  0  0  0  # atno 17343 bound_to 10162
  157.1421  130.6147  149.5558 LP  0  0  0  0  0  0  0  0  0  0  0  0  # atno 17370 bound_to 10713
  155.9850  130.4878  150.7010 LP  0  0  0  0  0  0  0  0  0  0  0  0  # atno 17371 bound_to 10713
  140.0923  134.5585  155.8432 LP  0  0  0  0  0  0  0  0  0  0  0  0  # atno 17394 bound_to 11000
  141.2081  133.6670  156.6350 LP  0  0  0  0  0  0  0  0  0  0  0  0  # atno 17395 bound_to 11000

$$$$
