AV-unprocessed.smi:1891|AV-procd|sdf|7668|dock9
  -GOLD-   22720 9403D 1   1.00000     0.00000
 Structure written by MMmdl.
 37 39  0  0  0  0  0  0  0  0  2 V2000
  147.1354  138.2493  151.4882 O   0  0  0  0  0  0  0  0  0  0  0  0
  147.0888  139.4350  152.2495 C   0  0  0  0  0  0  0  0  0  0  0  0
  148.2379  139.5468  153.1969 C   0  0  0  0  0  0  0  0  0  0  0  0
  149.1398  138.5614  153.4681 N   0  3  0  0  0  0  0  0  0  0  0  0
  150.0787  139.0199  154.3927 C   0  0  0  0  0  0  0  0  0  0  0  0
  151.1758  138.3869  154.9691 C   0  0  0  0  0  0  0  0  0  0  0  0
  151.9356  139.1457  155.8838 C   0  0  0  0  0  0  0  0  0  0  0  0
  151.5950  140.4785  156.1938 C   0  0  0  0  0  0  0  0  0  0  0  0
  150.4807  141.1097  155.6025 C   0  0  0  0  0  0  0  0  0  0  0  0
  149.7350  140.3520  154.6997 C   0  0  0  0  0  0  0  0  0  0  0  0
  148.5961  140.6363  153.9381 N   0  0  0  0  0  0  0  0  0  0  0  0
  147.9905  141.9738  154.0370 C   0  0  0  0  0  0  0  0  0  0  0  0
  146.9745  142.0925  155.1906 C   0  0  1  0  0  0  0  0  0  0  0  0
  147.6573  142.3409  156.4049 O   0  0  0  0  0  0  0  0  0  0  0  0
  145.9215  143.1492  154.8857 C   0  0  0  0  0  0  0  0  0  0  0  0
  145.8556  143.7468  153.6067 C   0  0  0  0  0  0  0  0  0  0  0  0
  144.8747  144.7166  153.3236 C   0  0  0  0  0  0  0  0  0  0  0  0
  143.9502  145.0939  154.3157 C   0  0  0  0  0  0  0  0  0  0  0  0
  143.0070  146.0265  154.0437 F   0  0  0  0  0  0  0  0  0  0  0  0
  144.0051  144.4978  155.5898 C   0  0  0  0  0  0  0  0  0  0  0  0
  144.9846  143.5263  155.8748 C   0  0  0  0  0  0  0  0  0  0  0  0
  145.0161  142.9541  157.1027 F   0  0  0  0  0  0  0  0  0  0  0  0
  147.4700  137.5548  152.0365 H   0  0  0  0  0  0  0  0  0  0  0  0
  147.0723  140.2949  151.5803 H   0  0  0  0  0  0  0  0  0  0  0  0
  146.1551  139.4536  152.8121 H   0  0  0  0  0  0  0  0  0  0  0  0
  151.4388  137.3661  154.7332 H   0  0  0  0  0  0  0  0  0  0  0  0
  152.7970  138.6967  156.3570 H   0  0  0  0  0  0  0  0  0  0  0  0
  152.2006  141.0287  156.8995 H   0  0  0  0  0  0  0  0  0  0  0  0
  150.2290  142.1315  155.8457 H   0  0  0  0  0  0  0  0  0  0  0  0
  148.7929  142.7008  154.1626 H   0  0  0  0  0  0  0  0  0  0  0  0
  147.5193  142.2056  153.0809 H   0  0  0  0  0  0  0  0  0  0  0  0
  146.4713  141.1345  155.3215 H   0  0  0  0  0  0  0  0  0  0  0  0
  148.2136  143.0958  156.2862 H   0  0  0  0  0  0  0  0  0  0  0  0
  146.5553  143.4618  152.8346 H   0  0  0  0  0  0  0  0  0  0  0  0
  144.8311  145.1698  152.3441 H   0  0  0  0  0  0  0  0  0  0  0  0
  143.2928  144.7842  156.3495 H   0  0  0  0  0  0  0  0  0  0  0  0
  149.1127  137.6425  153.0452 H   0  0  0  0  0  0  0  0  0  0  0  0
  1  2  1  0  0  0  0
  1 23  1  0  0  0  0
  2  3  1  0  0  0  0
  2 24  1  0  0  0  0
  2 25  1  0  0  0  0
  3 11  1  0  0  0  0
  3  4  2  0  0  0  0
  4  5  1  0  0  0  0
  4 37  1  0  0  0  0
  5 10  2  0  0  0  0
  5  6  1  0  0  0  0
  6  7  2  0  0  0  0
  6 26  1  0  0  0  0
  7  8  1  0  0  0  0
  7 27  1  0  0  0  0
  8  9  2  0  0  0  0
  8 28  1  0  0  0  0
  9 10  1  0  0  0  0
  9 29  1  0  0  0  0
 10 11  1  0  0  0  0
 11 12  1  0  0  0  0
 12 13  1  0  0  0  0
 12 30  1  0  0  0  0
 12 31  1  0  0  0  0
 13 14  1  0  0  0  0
 13 15  1  0  0  0  0
 13 32  1  0  0  0  0
 14 33  1  0  0  0  0
 15 21  1  0  0  0  0
 15 16  2  0  0  0  0
 16 17  1  0  0  0  0
 16 34  1  0  0  0  0
 17 18  2  0  0  0  0
 17 35  1  0  0  0  0
 18 19  1  0  0  0  0
 18 20  1  0  0  0  0
 20 21  2  0  0  0  0
 20 36  1  0  0  0  0
 21 22  1  0  0  0  0
M  CHG  1   4   1
M  END
> <s_m_source_file>
AV-unprocessed.smi

> <i_m_source_file_index>
1891

> <i_lp_mmshare_version>
43012

> <i_f3d_flags>
0

> <s_epik_input>
W2NIXTFbY0hdW2NIXVtjSF1jKGMxMiluKGMobjIpW0NIMl1bT0hdKVtDSDJdW0NASF0oW09IXSljM1tjSF1bY0hdYyhGKVtjSF1jM0Y=

> <s_epik_cmdline>
J2VwaWtfcHl0aG9uJywgJy1waCcsICc3LjAnLCAnLXRuJywgJzgnLCAnLW1hJywgJzIwMCcsICctbWV0YWxfYmluZGluZycsICctaW1hZScsICc8aW5maWxlLm1hZT4nLCAnLW9tYWUnLCAnPG91dGZpbGUubWFlPic=

> <r_epik_Ionization_Penalty>
1.35643

> <r_epik_Ionization_Penalty_Charging>
1.35557

> <r_epik_Ionization_Penalty_Neutral>
0.00085758

> <r_epik_State_Penalty>
1.43401

> <r_epik_Charging_Adjusted_Penalty>
2.78958

> <i_epik_Tot_Q>
1

> <i_epik_Tot_abs_Q>
1

> <r_epik_Metal_State_Penalty>
5.47166

> <b_epik_Metal_Only>
0

> <s_lp_Force_Field>
OPLS_2005

> <r_lp_Energy>
14.1785

> <b_lp_Chiralities_Consistent>
1

> <s_lp_Variant>
AV-unprocessed.smi:1891-4

> <Gold.Version>
5.8.1

> <Gold.Id.Protein>
6NUR|6NUR_protein|mol2

> <Gold.PLP.Fitness>
60.7452

> <Gold.PLP.PLP>
-48.7536

> <Gold.PLP.part.hbond>
-6.0000

> <Gold.PLP.part.metal>
0.0000

> <Gold.PLP.part.buried>
4.1199

> <Gold.PLP.part.nonpolar>
-45.8621

> <Gold.PLP.part.repulsive>
0.0703

> <Gold.PLP.ligand.clash>
0.0000

> <Gold.PLP.ligand.torsion>
0.8980

> <Gold.PLP.Chemscore.Hbond>
4.5880

> <Gold.PLP.Chemscore.CHOScore>
0.0000

> <Gold.PLP.Chemscore.Metal>
0.0000

> <Gold.Chemscore.Hbonds>
donor molecule, donor type, donor heavy atom, donor atom, acceptor molecule, acceptor atom, score
      L1  H     1    23       P1  7948  0.66
      L1  H     4    37       P1  7948  2.00
      L1  H    14    33       P1  8028  1.00
      P1  H  7954  7966       L1     1  0.90

> <Gold.PLP.Chemscore.Internal.Correction>
0.0237

> <Gold.Rescore>
     Score         DG    S(hbond)    S(metal)    S(lipo)     H(rot)  DE(clash)    DE(int)     intcor
     13.40     -18.64       2.78        0.00      97.73       2.95       2.83       2.41       ----

> <Gold.Chemscore.Fitness>
13.3974

> <Gold.Chemscore.DG>
-18.6386

> <Gold.Chemscore.ZeroCoef>
-5.4800

> <Gold.Chemscore.Hbond>
2.7756

> <Gold.Chemscore.Metal>
0.0000

> <Gold.Chemscore.Lipo>
97.7256

> <Gold.Chemscore.Internal_Hbond>
0.0000

> <Gold.Chemscore.DEClash>
2.8285

> <Gold.Chemscore.DEInternal>
2.4127

> <Gold.Chemscore.Rot>
2.9475

> <Gold.Chemscore.Internal.Correction>
   9.000000E+99

> <Gold.Chemscore.Hbonds>
donor molecule, donor type, donor heavy atom, donor atom, acceptor molecule, acceptor atom, score
      L1  H     1    23       P1  7948  0.65
      L1  H     4    37       P1  7948  0.99
      L1  H    14    33       P1  8028  0.60
      P1  H  7954  7966       L1     1  0.18

> <Gold.Chemscore.Hbond.Weighted>
-9.2704

> <Gold.Chemscore.Metal.Weighted>
-0.0000

> <Gold.Chemscore.Lipo.Weighted>
-11.4339

> <Gold.Chemscore.Internal_Hbond.Weighted>
0.0000

> <Gold.Chemscore.DEClash.Weighted>
2.8285

> <Gold.Chemscore.DEInternal.Weighted>
2.4127

> <Gold.Chemscore.Rot.Weighted>
7.5457

> <Gold.Chemscore.Internal.Correction.Weighted>
   9.000000E+99

> <Gold.Protein.RotatedTorsions>
[ 6907 6896 6895 6894 ] final -172.65 input  -60.11 | X-H torsion
[ 7974 7965 7964 7962 ] final   90.81 input  175.53 | X-H torsion
[ 8008 7997 7996 7995 ] final  -13.69 input   59.86 | X-H torsion
[ 10167 10162 10161 10158 ] final  -40.50 input  -65.29 | X-H torsion
[ 10718 10713 10712 10709 ] final  -12.43 input   66.30 | X-H torsion
[ 10763 10752 10751 10750 ] final  147.54 input  -60.55 | X-H torsion
[ 11005 11000 10999 10996 ] final  -52.11 input  -57.11 | X-H torsion

> <Gold.Protein.ActiveResidues>
 VAL166  LYS551  ARG553  GLY616  TRP617  ASP618  TYR619  PRO620  LYS621  CYS622 
 ASP623  PHE694  ASN695  SER759  ASP760  ASP761  ALA762  ILE779  LEU786  VAL792 
 PHE793  MET794  SER795  GLU796  ALA797  LYS798  CYS799  TRP800  GLU811  SER814 

> <Gold.Protein.RotatedAtoms>
  151.5434  133.3429  159.2939 H   0  0  0  0  0  0  0  0  0  0  0  0  # atno 6907 bound_to 6896
  150.8522  134.7853  159.7029 H   0  0  0  0  0  0  0  0  0  0  0  0  # atno 6908 bound_to 6896
  152.4565  134.5288  159.9856 H   0  0  0  0  0  0  0  0  0  0  0  0  # atno 6909 bound_to 6896
  145.5140  139.2277  143.2708 H   0  0  0  0  0  0  0  0  0  0  0  0  # atno 7974 bound_to 7965
  154.5271  140.2243  155.8870 H   0  0  0  0  0  0  0  0  0  0  0  0  # atno 8008 bound_to 7997
  156.1725  140.3118  155.8963 H   0  0  0  0  0  0  0  0  0  0  0  0  # atno 8009 bound_to 7997
  155.3529  140.0456  157.3037 H   0  0  0  0  0  0  0  0  0  0  0  0  # atno 8010 bound_to 7997
  140.7032  143.3150  151.2933 H   0  0  0  0  0  0  0  0  0  0  0  0  # atno 10167 bound_to 10162
  156.6447  130.4938  149.6083 H   0  0  0  0  0  0  0  0  0  0  0  0  # atno 10718 bound_to 10713
  154.0400  135.2890  155.3356 H   0  0  0  0  0  0  0  0  0  0  0  0  # atno 10763 bound_to 10752
  154.6935  135.5217  153.8429 H   0  0  0  0  0  0  0  0  0  0  0  0  # atno 10764 bound_to 10752
  153.0604  135.6611  154.0605 H   0  0  0  0  0  0  0  0  0  0  0  0  # atno 10765 bound_to 10752
  141.0907  133.6633  156.3976 H   0  0  0  0  0  0  0  0  0  0  0  0  # atno 11005 bound_to 11000
  146.2148  140.5949  142.9043 LP  0  0  0  0  0  0  0  0  0  0  0  0  # atno 17320 bound_to 7965
  144.7712  140.5641  143.6669 LP  0  0  0  0  0  0  0  0  0  0  0  0  # atno 17321 bound_to 7965
  139.6585  144.0232  152.2676 LP  0  0  0  0  0  0  0  0  0  0  0  0  # atno 17342 bound_to 10162
  139.9791  144.6440  150.7917 LP  0  0  0  0  0  0  0  0  0  0  0  0  # atno 17343 bound_to 10162
  156.2131  130.6691  151.1291 LP  0  0  0  0  0  0  0  0  0  0  0  0  # atno 17370 bound_to 10713
  157.7160  131.0709  150.6325 LP  0  0  0  0  0  0  0  0  0  0  0  0  # atno 17371 bound_to 10713
  140.5259  134.6259  157.5334 LP  0  0  0  0  0  0  0  0  0  0  0  0  # atno 17394 bound_to 11000
  139.9732  134.7258  156.0000 LP  0  0  0  0  0  0  0  0  0  0  0  0  # atno 17395 bound_to 11000

$$$$
