AV-unprocessed.smi:2717|AV-procd|sdf|10484|dock5
  -GOLD-   2272014523D 1   1.00000     0.00000
 Structure written by MMmdl.
 43 44  0  0  0  0  0  0  0  0  1 V2000
  149.5130  141.3741  154.9404 C   0  0  0  0  0  0  0  0  0  0  0  0
  148.9281  140.1370  154.2509 C   0  0  0  0  0  0  0  0  0  0  0  0
  149.6656  138.8866  154.5956 C   0  0  0  0  0  0  0  0  0  0  0  0
  149.0907  137.8298  155.1755 N   0  0  0  0  0  0  0  0  0  0  0  0
  149.9960  136.7952  155.4308 C   0  0  0  0  0  0  0  0  0  0  0  0
  149.5182  135.5255  156.0680 C   0  0  0  0  0  0  0  0  0  0  0  0
  149.5718  134.3330  155.0988 C   0  0  0  0  0  0  0  0  0  0  0  0
  148.7068  134.5413  153.9430 N   0  0  0  0  0  0  0  0  0  0  0  0
  147.5698  133.8725  153.7057 C   0  0  0  0  0  0  0  0  0  0  0  0
  147.1165  132.9980  154.4445 O   0  0  0  0  0  0  0  0  0  0  0  0
  146.9877  134.2686  152.5646 N   0  0  0  0  0  0  0  0  0  0  0  0
  145.7370  133.7386  152.0292 C   0  0  2  0  0  0  0  0  0  0  0  0
  145.8795  132.2406  151.6855 C   0  0  0  0  0  0  0  0  0  0  0  0
  144.5951  131.6853  151.0487 C   0  0  0  0  0  0  0  0  0  0  0  0
  144.1946  132.4987  149.8060 C   0  0  1  0  0  0  0  0  0  0  0  0
  142.9754  132.0061  149.2912 O   0  0  0  0  0  0  0  0  0  0  0  0
  144.0400  133.9900  150.1498 C   0  0  0  0  0  0  0  0  0  0  0  0
  145.3241  134.5480  150.7848 C   0  0  0  0  0  0  0  0  0  0  0  0
  151.2785  137.0907  155.0404 C   0  0  0  0  0  0  0  0  0  0  0  0
  151.3952  138.6829  154.3425 S   0  0  0  0  0  0  0  0  0  0  0  0
  148.9518  142.2694  154.6726 H   0  0  0  0  0  0  0  0  0  0  0  0
  150.5519  141.5320  154.6500 H   0  0  0  0  0  0  0  0  0  0  0  0
  149.4800  141.2720  156.0255 H   0  0  0  0  0  0  0  0  0  0  0  0
  147.8806  140.0164  154.5293 H   0  0  0  0  0  0  0  0  0  0  0  0
  148.9504  140.2691  153.1689 H   0  0  0  0  0  0  0  0  0  0  0  0
  150.1207  135.3034  156.9496 H   0  0  0  0  0  0  0  0  0  0  0  0
  148.4979  135.6585  156.4305 H   0  0  0  0  0  0  0  0  0  0  0  0
  150.5969  134.1496  154.7716 H   0  0  0  0  0  0  0  0  0  0  0  0
  149.2426  133.4268  155.6080 H   0  0  0  0  0  0  0  0  0  0  0  0
  148.9968  135.2421  153.2767 H   0  0  0  0  0  0  0  0  0  0  0  0
  147.4400  134.9940  152.0279 H   0  0  0  0  0  0  0  0  0  0  0  0
  144.9548  133.8539  152.7822 H   0  0  0  0  0  0  0  0  0  0  0  0
  146.7152  132.0965  150.9990 H   0  0  0  0  0  0  0  0  0  0  0  0
  146.1161  131.6677  152.5828 H   0  0  0  0  0  0  0  0  0  0  0  0
  144.7392  130.6377  150.7825 H   0  0  0  0  0  0  0  0  0  0  0  0
  143.7892  131.7107  151.7839 H   0  0  0  0  0  0  0  0  0  0  0  0
  144.9571  132.3822  149.0348 H   0  0  0  0  0  0  0  0  0  0  0  0
  142.3153  132.6753  149.3888 H   0  0  0  0  0  0  0  0  0  0  0  0
  143.7955  134.5589  149.2520 H   0  0  0  0  0  0  0  0  0  0  0  0
  143.2068  134.1272  150.8406 H   0  0  0  0  0  0  0  0  0  0  0  0
  145.1749  135.5949  151.0522 H   0  0  0  0  0  0  0  0  0  0  0  0
  146.1275  134.5286  150.0468 H   0  0  0  0  0  0  0  0  0  0  0  0
  152.1594  136.4718  155.1233 H   0  0  0  0  0  0  0  0  0  0  0  0
  1  2  1  0  0  0  0
  1 21  1  0  0  0  0
  1 22  1  0  0  0  0
  1 23  1  0  0  0  0
  2  3  1  0  0  0  0
  2 24  1  0  0  0  0
  2 25  1  0  0  0  0
  3 20  1  0  0  0  0
  3  4  2  0  0  0  0
  4  5  1  0  0  0  0
  5  6  1  0  0  0  0
  5 19  2  0  0  0  0
  6  7  1  0  0  0  0
  6 26  1  0  0  0  0
  6 27  1  0  0  0  0
  7  8  1  0  0  0  0
  7 28  1  0  0  0  0
  7 29  1  0  0  0  0
  8  9  1  0  0  0  0
  8 30  1  0  0  0  0
  9 10  2  0  0  0  0
  9 11  1  0  0  0  0
 11 12  1  0  0  0  0
 11 31  1  0  0  0  0
 12 18  1  0  0  0  0
 12 13  1  0  0  0  0
 12 32  1  0  0  0  0
 13 14  1  0  0  0  0
 13 33  1  0  0  0  0
 13 34  1  0  0  0  0
 14 15  1  0  0  0  0
 14 35  1  0  0  0  0
 14 36  1  0  0  0  0
 15 16  1  0  0  0  0
 15 17  1  0  0  0  0
 15 37  1  0  0  0  0
 16 38  1  0  0  0  0
 17 18  1  0  0  0  0
 17 39  1  0  0  0  0
 17 40  1  0  0  0  0
 18 41  1  0  0  0  0
 18 42  1  0  0  0  0
 19 20  1  0  0  0  0
 19 43  1  0  0  0  0
M  END
> <s_m_source_file>
AV-unprocessed.smi

> <i_m_source_file_index>
2717

> <i_lp_mmshare_version>
43012

> <i_f3d_flags>
0

> <s_epik_input>
W0NIM11bQ0gyXWMxbmMoW2NIXXMxKVtDSDJdW0NIMl1bTkhdQyg9TylbTkhdW0NAQEhdMltDSDJdW0NIMl1bQ0BASF0oW09IXSlbQ0gyXVtDSDJdMg==

> <s_epik_cmdline>
J2VwaWtfcHl0aG9uJywgJy1waCcsICc3LjAnLCAnLXRuJywgJzgnLCAnLW1hJywgJzIwMCcsICctbWV0YWxfYmluZGluZycsICctaW1hZScsICc8aW5maWxlLm1hZT4nLCAnLW9tYWUnLCAnPG91dGZpbGUubWFlPic=

> <r_epik_Ionization_Penalty>
0.00202099

> <r_epik_Ionization_Penalty_Charging>
0

> <r_epik_Ionization_Penalty_Neutral>
0.00202099

> <r_epik_State_Penalty>
0.00133629

> <r_epik_Charging_Adjusted_Penalty>
0.00133629

> <i_epik_Tot_Q>
0

> <i_epik_Tot_abs_Q>
0

> <r_epik_Metal_State_Penalty>
-0

> <b_epik_Metal_Only>
0

> <s_lp_Force_Field>
OPLS_2005

> <r_lp_Energy>
-3.71108

> <b_lp_Chiralities_Consistent>
1

> <s_lp_Variant>
AV-unprocessed.smi:2717-1

> <Gold.Version>
5.8.1

> <Gold.Id.Protein>
6NUR|6NUR_protein|mol2

> <Gold.PLP.Fitness>
48.9326

> <Gold.PLP.PLP>
-37.7019

> <Gold.PLP.part.hbond>
-5.0000

> <Gold.PLP.part.metal>
0.0000

> <Gold.PLP.part.buried>
-4.1448

> <Gold.PLP.part.nonpolar>
-29.2657

> <Gold.PLP.part.repulsive>
0.1494

> <Gold.PLP.ligand.clash>
0.0000

> <Gold.PLP.ligand.torsion>
0.1503

> <Gold.PLP.Chemscore.Hbond>
3.8285

> <Gold.PLP.Chemscore.CHOScore>
0.0000

> <Gold.PLP.Chemscore.Metal>
0.0000

> <Gold.Chemscore.Hbonds>
donor molecule, donor type, donor heavy atom, donor atom, acceptor molecule, acceptor atom, score
      L1  H     8    30       P1  7948  1.00
      L1  H    11    31       P1  7948  0.96
      L1  H    16    38       P1 10186  0.63
      P1  H 10785 10796       L1    16  1.00

> <Gold.PLP.Chemscore.Internal.Correction>
0.0458

> <Gold.Rescore>
     Score         DG    S(hbond)    S(metal)    S(lipo)     H(rot)  DE(clash)    DE(int)     intcor
     19.02     -19.48       2.73        0.00      90.06       2.21       0.15       0.30       ----

> <Gold.Chemscore.Fitness>
19.0218

> <Gold.Chemscore.DG>
-19.4778

> <Gold.Chemscore.ZeroCoef>
-5.4800

> <Gold.Chemscore.Hbond>
2.7287

> <Gold.Chemscore.Metal>
0.0000

> <Gold.Chemscore.Lipo>
90.0635

> <Gold.Chemscore.Internal_Hbond>
0.0000

> <Gold.Chemscore.DEClash>
0.1538

> <Gold.Chemscore.DEInternal>
0.3021

> <Gold.Chemscore.Rot>
2.2084

> <Gold.Chemscore.Internal.Correction>
   9.000000E+99

> <Gold.Chemscore.Hbonds>
donor molecule, donor type, donor heavy atom, donor atom, acceptor molecule, acceptor atom, score
      L1  H     8    30       P1  7948  0.39
      L1  H    11    31       P1  7948  0.85
      L1  H    16    38       P1 10186  0.63
      P1  H 10785 10796       L1    16  0.73

> <Gold.Chemscore.Hbond.Weighted>
-9.1139

> <Gold.Chemscore.Metal.Weighted>
-0.0000

> <Gold.Chemscore.Lipo.Weighted>
-10.5374

> <Gold.Chemscore.Internal_Hbond.Weighted>
0.0000

> <Gold.Chemscore.DEClash.Weighted>
0.1538

> <Gold.Chemscore.DEInternal.Weighted>
0.3021

> <Gold.Chemscore.Rot.Weighted>
5.6535

> <Gold.Chemscore.Internal.Correction.Weighted>
   9.000000E+99

> <Gold.Protein.RotatedTorsions>
[ 6907 6896 6895 6894 ] final -150.15 input  -60.11 | X-H torsion
[ 7974 7965 7964 7962 ] final  -92.36 input  175.53 | X-H torsion
[ 8008 7997 7996 7995 ] final  179.25 input   59.86 | X-H torsion
[ 10167 10162 10161 10158 ] final  -52.94 input  -65.29 | X-H torsion
[ 10718 10713 10712 10709 ] final  -91.92 input   66.30 | X-H torsion
[ 10763 10752 10751 10750 ] final   53.79 input  -60.55 | X-H torsion
[ 11005 11000 10999 10996 ] final  -54.96 input  -57.11 | X-H torsion

> <Gold.Protein.ActiveResidues>
 VAL166  LYS551  ARG553  GLY616  TRP617  ASP618  TYR619  PRO620  LYS621  CYS622 
 ASP623  PHE694  ASN695  SER759  ASP760  ASP761  ALA762  ILE779  LEU786  VAL792 
 PHE793  MET794  SER795  GLU796  ALA797  LYS798  CYS799  TRP800  GLU811  SER814 

> <Gold.Protein.RotatedAtoms>
  151.1944  133.4648  159.2595 H   0  0  0  0  0  0  0  0  0  0  0  0  # atno 6907 bound_to 6896
  151.1131  135.0038  159.8513 H   0  0  0  0  0  0  0  0  0  0  0  0  # atno 6908 bound_to 6896
  152.5451  134.1862  159.8708 H   0  0  0  0  0  0  0  0  0  0  0  0  # atno 6909 bound_to 6896
  145.4009  140.9537  143.2288 H   0  0  0  0  0  0  0  0  0  0  0  0  # atno 7974 bound_to 7965
  156.0456  140.1313  157.0108 H   0  0  0  0  0  0  0  0  0  0  0  0  # atno 8008 bound_to 7997
  154.4411  140.1021  156.6371 H   0  0  0  0  0  0  0  0  0  0  0  0  # atno 8009 bound_to 7997
  155.5602  140.3464  155.4491 H   0  0  0  0  0  0  0  0  0  0  0  0  # atno 8010 bound_to 7997
  140.6511  143.2566  151.4721 H   0  0  0  0  0  0  0  0  0  0  0  0  # atno 10167 bound_to 10162
  155.9997  130.4967  150.5547 H   0  0  0  0  0  0  0  0  0  0  0  0  # atno 10718 bound_to 10713
  152.9798  135.5767  154.4798 H   0  0  0  0  0  0  0  0  0  0  0  0  # atno 10763 bound_to 10752
  154.4348  135.2774  155.1889 H   0  0  0  0  0  0  0  0  0  0  0  0  # atno 10764 bound_to 10752
  154.3582  135.6194  153.5731 H   0  0  0  0  0  0  0  0  0  0  0  0  # atno 10765 bound_to 10752
  141.1051  133.6614  156.4398 H   0  0  0  0  0  0  0  0  0  0  0  0  # atno 11005 bound_to 11000
  144.8375  139.5527  143.6916 LP  0  0  0  0  0  0  0  0  0  0  0  0  # atno 17320 bound_to 7965
  146.2752  139.6735  142.9268 LP  0  0  0  0  0  0  0  0  0  0  0  0  # atno 17321 bound_to 7965
  139.5726  144.1893  152.1858 LP  0  0  0  0  0  0  0  0  0  0  0  0  # atno 17342 bound_to 10162
  140.1194  144.5387  150.6873 LP  0  0  0  0  0  0  0  0  0  0  0  0  # atno 17343 bound_to 10162
  157.3465  131.0726  151.1747 LP  0  0  0  0  0  0  0  0  0  0  0  0  # atno 17370 bound_to 10713
  157.2577  130.6644  149.5960 LP  0  0  0  0  0  0  0  0  0  0  0  0  # atno 17371 bound_to 10713
  140.4923  134.6564  157.5215 LP  0  0  0  0  0  0  0  0  0  0  0  0  # atno 17394 bound_to 11000
  139.9918  134.6974  155.9677 LP  0  0  0  0  0  0  0  0  0  0  0  0  # atno 17395 bound_to 11000

$$$$
