AV-unprocessed.smi:1766|AV-procd|sdf|7138|dock1
  -GOLD-   22720 8373D 1   1.00000     0.00000
 Structure written by MMmdl.
 40 42  0  0  0  0  0  0  0  0  2 V2000
  151.4667  137.8058  157.1454 N   0  0  0  0  0  0  0  0  0  0  0  0
  151.6482  137.1036  156.0241 C   0  0  0  0  0  0  0  0  0  0  0  0
  151.6670  135.8738  156.0201 O   0  0  0  0  0  0  0  0  0  0  0  0
  151.8406  137.9023  154.7305 C   0  0  0  0  0  0  0  0  0  0  0  0
  150.6782  138.8105  154.4671 C   0  0  0  0  0  0  0  0  0  0  0  0
  149.6700  138.5758  153.5796 N   0  3  0  0  0  0  0  0  0  0  0  0
  148.7642  139.6365  153.6005 C   0  0  0  0  0  0  0  0  0  0  0  0
  147.5919  139.8448  152.8806 C   0  0  0  0  0  0  0  0  0  0  0  0
  146.8922  141.0406  153.1428 C   0  0  0  0  0  0  0  0  0  0  0  0
  147.3644  141.9748  154.0868 C   0  0  0  0  0  0  0  0  0  0  0  0
  148.5563  141.7540  154.8071 C   0  0  0  0  0  0  0  0  0  0  0  0
  149.2417  140.5670  154.5460 C   0  0  0  0  0  0  0  0  0  0  0  0
  150.4205  140.0123  155.0616 N   0  0  0  0  0  0  0  0  0  0  0  0
  151.1757  140.7361  156.0984 C   0  0  0  0  0  0  0  0  0  0  0  0
  150.3406  140.9994  157.3682 C   0  0  1  0  0  0  0  0  0  0  0  0
  150.3906  139.8414  158.1752 O   0  0  0  0  0  0  0  0  0  0  0  0
  150.7922  142.2459  158.1167 C   0  0  0  0  0  0  0  0  0  0  0  0
  149.8647  143.2493  158.4748 C   0  0  0  0  0  0  0  0  0  0  0  0
  150.2886  144.3827  159.1956 C   0  0  0  0  0  0  0  0  0  0  0  0
  151.6413  144.5197  159.5618 C   0  0  0  0  0  0  0  0  0  0  0  0
  152.0479  145.6066  160.2593 F   0  0  0  0  0  0  0  0  0  0  0  0
  152.5707  143.5242  159.2050 C   0  0  0  0  0  0  0  0  0  0  0  0
  152.1476  142.3911  158.4839 C   0  0  0  0  0  0  0  0  0  0  0  0
  151.3417  137.3221  158.0233 H   0  0  0  0  0  0  0  0  0  0  0  0
  151.4604  138.8153  157.1173 H   0  0  0  0  0  0  0  0  0  0  0  0
  152.7518  138.4993  154.7877 H   0  0  0  0  0  0  0  0  0  0  0  0
  151.9660  137.2096  153.8986 H   0  0  0  0  0  0  0  0  0  0  0  0
  147.2283  139.1303  152.1567 H   0  0  0  0  0  0  0  0  0  0  0  0
  145.9752  141.2451  152.6093 H   0  0  0  0  0  0  0  0  0  0  0  0
  146.8014  142.8801  154.2626 H   0  0  0  0  0  0  0  0  0  0  0  0
  148.9037  142.4780  155.5287 H   0  0  0  0  0  0  0  0  0  0  0  0
  152.0407  140.1193  156.3457 H   0  0  0  0  0  0  0  0  0  0  0  0
  151.5772  141.6607  155.6838 H   0  0  0  0  0  0  0  0  0  0  0  0
  149.2953  141.1288  157.0857 H   0  0  0  0  0  0  0  0  0  0  0  0
  151.2904  139.6821  158.4169 H   0  0  0  0  0  0  0  0  0  0  0  0
  148.8227  143.1478  158.2082 H   0  0  0  0  0  0  0  0  0  0  0  0
  149.5750  145.1451  159.4708 H   0  0  0  0  0  0  0  0  0  0  0  0
  153.6083  143.6280  159.4866 H   0  0  0  0  0  0  0  0  0  0  0  0
  152.8660  141.6281  158.2224 H   0  0  0  0  0  0  0  0  0  0  0  0
  149.6102  137.7494  152.9989 H   0  0  0  0  0  0  0  0  0  0  0  0
  1  2  1  0  0  0  0
  1 24  1  0  0  0  0
  1 25  1  0  0  0  0
  2  3  2  0  0  0  0
  2  4  1  0  0  0  0
  4  5  1  0  0  0  0
  4 26  1  0  0  0  0
  4 27  1  0  0  0  0
  5 13  1  0  0  0  0
  5  6  2  0  0  0  0
  6  7  1  0  0  0  0
  6 40  1  0  0  0  0
  7 12  2  0  0  0  0
  7  8  1  0  0  0  0
  8  9  2  0  0  0  0
  8 28  1  0  0  0  0
  9 10  1  0  0  0  0
  9 29  1  0  0  0  0
 10 11  2  0  0  0  0
 10 30  1  0  0  0  0
 11 12  1  0  0  0  0
 11 31  1  0  0  0  0
 12 13  1  0  0  0  0
 13 14  1  0  0  0  0
 14 15  1  0  0  0  0
 14 32  1  0  0  0  0
 14 33  1  0  0  0  0
 15 16  1  0  0  0  0
 15 17  1  0  0  0  0
 15 34  1  0  0  0  0
 16 35  1  0  0  0  0
 17 23  1  0  0  0  0
 17 18  2  0  0  0  0
 18 19  1  0  0  0  0
 18 36  1  0  0  0  0
 19 20  2  0  0  0  0
 19 37  1  0  0  0  0
 20 21  1  0  0  0  0
 20 22  1  0  0  0  0
 22 23  2  0  0  0  0
 22 38  1  0  0  0  0
 23 39  1  0  0  0  0
M  CHG  1   6   1
M  END
> <s_m_source_file>
AV-unprocessed.smi

> <i_m_source_file_index>
1766

> <i_lp_mmshare_version>
43012

> <i_f3d_flags>
0

> <s_epik_input>
W2NIXTFbY0hdW2NIXVtjSF1jKGMxMiluKGMobjIpW0NIMl1DKD1PKVtOSDJdKVtDSDJdW0NASF0oW09IXSljM1tjSF1bY0hdYyhGKVtjSF1bY0hdMw==

> <s_epik_cmdline>
J2VwaWtfcHl0aG9uJywgJy1waCcsICc3LjAnLCAnLXRuJywgJzgnLCAnLW1hJywgJzIwMCcsICctbWV0YWxfYmluZGluZycsICctaW1hZScsICc8aW5maWxlLm1hZT4nLCAnLW9tYWUnLCAnPG91dGZpbGUubWFlPic=

> <r_epik_Ionization_Penalty>
1.66646

> <r_epik_Ionization_Penalty_Charging>
1.66645

> <r_epik_Ionization_Penalty_Neutral>
2.12833e-06

> <r_epik_State_Penalty>
1.76975

> <r_epik_Charging_Adjusted_Penalty>
3.43621

> <i_epik_Tot_Q>
1

> <i_epik_Tot_abs_Q>
1

> <r_epik_Metal_State_Penalty>
1.80493

> <b_epik_Metal_Only>
0

> <s_lp_Force_Field>
OPLS_2005

> <r_lp_Energy>
15.5136

> <b_lp_Chiralities_Consistent>
1

> <s_lp_Variant>
AV-unprocessed.smi:1766-4

> <Gold.Version>
5.8.1

> <Gold.Id.Protein>
6NUR|6NUR_protein|mol2

> <Gold.PLP.Fitness>
55.6336

> <Gold.PLP.PLP>
-47.8742

> <Gold.PLP.part.hbond>
-3.0000

> <Gold.PLP.part.metal>
0.0000

> <Gold.PLP.part.buried>
3.1317

> <Gold.PLP.part.nonpolar>
-48.2897

> <Gold.PLP.part.repulsive>
0.1735

> <Gold.PLP.ligand.clash>
0.0000

> <Gold.PLP.ligand.torsion>
0.6882

> <Gold.PLP.Chemscore.Hbond>
3.0000

> <Gold.PLP.Chemscore.CHOScore>
0.0000

> <Gold.PLP.Chemscore.Metal>
0.0000

> <Gold.Chemscore.Hbonds>
donor molecule, donor type, donor heavy atom, donor atom, acceptor molecule, acceptor atom, score
      L1  H     6    40       P1  7948  2.00
      P1  H 10752 10763       L1     3  1.00

> <Gold.PLP.Chemscore.Internal.Correction>
0.1357

> <Gold.Rescore>
     Score         DG    S(hbond)    S(metal)    S(lipo)     H(rot)  DE(clash)    DE(int)     intcor
     14.26     -17.29       1.78        0.00     116.66       3.05       0.77       2.26       ----

> <Gold.Chemscore.Fitness>
14.2608

> <Gold.Chemscore.DG>
-17.2899

> <Gold.Chemscore.ZeroCoef>
-5.4800

> <Gold.Chemscore.Hbond>
1.7846

> <Gold.Chemscore.Metal>
0.0000

> <Gold.Chemscore.Lipo>
116.6641

> <Gold.Chemscore.Internal_Hbond>
0.0000

> <Gold.Chemscore.DEClash>
0.7710

> <Gold.Chemscore.DEInternal>
2.2581

> <Gold.Chemscore.Rot>
3.0470

> <Gold.Chemscore.Internal.Correction>
   9.000000E+99

> <Gold.Chemscore.Hbonds>
donor molecule, donor type, donor heavy atom, donor atom, acceptor molecule, acceptor atom, score
      L1  H     6    40       P1  7948  0.73
      P1  H 10752 10763       L1     3  0.40

> <Gold.Chemscore.Hbond.Weighted>
-5.9606

> <Gold.Chemscore.Metal.Weighted>
-0.0000

> <Gold.Chemscore.Lipo.Weighted>
-13.6497

> <Gold.Chemscore.Internal_Hbond.Weighted>
0.0000

> <Gold.Chemscore.DEClash.Weighted>
0.7710

> <Gold.Chemscore.DEInternal.Weighted>
2.2581

> <Gold.Chemscore.Rot.Weighted>
7.8004

> <Gold.Chemscore.Internal.Correction.Weighted>
   9.000000E+99

> <Gold.Protein.RotatedTorsions>
[ 6907 6896 6895 6894 ] final    4.47 input  -60.11 | X-H torsion
[ 7974 7965 7964 7962 ] final   50.39 input  175.53 | X-H torsion
[ 8008 7997 7996 7995 ] final  -48.20 input   59.86 | X-H torsion
[ 10167 10162 10161 10158 ] final   76.75 input  -65.29 | X-H torsion
[ 10718 10713 10712 10709 ] final    5.85 input   66.30 | X-H torsion
[ 10763 10752 10751 10750 ] final   83.68 input  -60.55 | X-H torsion
[ 11005 11000 10999 10996 ] final   62.80 input  -57.11 | X-H torsion

> <Gold.Protein.ActiveResidues>
 VAL166  LYS551  ARG553  GLY616  TRP617  ASP618  TYR619  PRO620  LYS621  CYS622 
 ASP623  PHE694  ASN695  SER759  ASP760  ASP761  ALA762  ILE779  LEU786  VAL792 
 PHE793  MET794  SER795  GLU796  ALA797  LYS798  CYS799  TRP800  GLU811  SER814 

> <Gold.Protein.RotatedAtoms>
  151.6419  135.1012  160.0142 H   0  0  0  0  0  0  0  0  0  0  0  0  # atno 6907 bound_to 6896
  152.4049  133.6870  159.6356 H   0  0  0  0  0  0  0  0  0  0  0  0  # atno 6908 bound_to 6896
  150.7945  133.8643  159.3281 H   0  0  0  0  0  0  0  0  0  0  0  0  # atno 6909 bound_to 6896
  146.0017  139.4446  143.0011 H   0  0  0  0  0  0  0  0  0  0  0  0  # atno 7974 bound_to 7965
  154.4026  140.1327  156.4300 H   0  0  0  0  0  0  0  0  0  0  0  0  # atno 8008 bound_to 7997
  155.7560  140.3487  155.5154 H   0  0  0  0  0  0  0  0  0  0  0  0  # atno 8009 bound_to 7997
  155.8904  140.1002  157.1412 H   0  0  0  0  0  0  0  0  0  0  0  0  # atno 8010 bound_to 7997
  139.9889  144.5771  150.7835 H   0  0  0  0  0  0  0  0  0  0  0  0  # atno 10167 bound_to 10162
  156.9135  130.5764  149.5647 H   0  0  0  0  0  0  0  0  0  0  0  0  # atno 10718 bound_to 10713
  153.1313  135.4682  154.9353 H   0  0  0  0  0  0  0  0  0  0  0  0  # atno 10763 bound_to 10752
  154.7666  135.3146  154.8275 H   0  0  0  0  0  0  0  0  0  0  0  0  # atno 10764 bound_to 10752
  153.8817  135.6893  153.4820 H   0  0  0  0  0  0  0  0  0  0  0  0  # atno 10765 bound_to 10752
  140.0068  134.6358  155.9843 H   0  0  0  0  0  0  0  0  0  0  0  0  # atno 11005 bound_to 11000
  145.7478  140.9984  143.1267 LP  0  0  0  0  0  0  0  0  0  0  0  0  # atno 17320 bound_to 7965
  144.6921  139.9177  143.7466 LP  0  0  0  0  0  0  0  0  0  0  0  0  # atno 17321 bound_to 7965
  140.7462  143.2887  151.3391 LP  0  0  0  0  0  0  0  0  0  0  0  0  # atno 17342 bound_to 10162
  139.6354  144.0640  152.2511 LP  0  0  0  0  0  0  0  0  0  0  0  0  # atno 17343 bound_to 10162
  156.0525  130.5592  150.9020 LP  0  0  0  0  0  0  0  0  0  0  0  0  # atno 17370 bound_to 10713
  157.5953  131.0943  150.9051 LP  0  0  0  0  0  0  0  0  0  0  0  0  # atno 17371 bound_to 10713
  141.1682  133.6537  156.4556 LP  0  0  0  0  0  0  0  0  0  0  0  0  # atno 17394 bound_to 11000
  140.4627  134.6826  157.5093 LP  0  0  0  0  0  0  0  0  0  0  0  0  # atno 17395 bound_to 11000

$$$$
