AV-unprocessed.smi:1831|AV-procd|sdf|7461|dock7
  -GOLD-   22720 9153D 1   1.00000     0.00000
 Structure written by MMmdl.
 40 41  0  0  0  0  0  0  0  0  3 V2000
  149.0549  141.1720  154.8779 C   0  0  0  0  0  0  0  0  0  0  0  0
  149.8785  139.9333  154.7868 C   0  0  0  0  0  0  0  0  0  0  0  0
  151.2135  139.9469  154.8069 N   0  0  0  0  0  0  0  0  0  0  0  0
  151.7507  138.6715  154.7080 N   0  0  0  0  0  0  0  0  0  0  0  0
  150.8176  137.7130  154.6212 C   0  0  0  0  0  0  0  0  0  0  0  0
  151.1303  136.4107  154.5164 N   0  5  0  0  0  0  0  0  0  0  0  0
  150.3197  135.4754  155.0609 C   0  0  0  0  0  0  0  0  0  0  0  0
  149.3753  135.6839  155.8258 O   0  0  0  0  0  0  0  0  0  0  0  0
  150.6244  134.2236  154.6918 N   0  0  0  0  0  0  0  0  0  0  0  0
  149.9278  133.0063  155.0953 C   0  0  0  0  0  0  0  0  0  0  0  0
  149.3811  132.2609  153.8673 C   0  0  1  0  0  0  0  0  0  0  0  0
  148.6494  130.9559  154.1793 C   0  0  0  0  0  0  0  0  0  0  0  0
  147.6898  130.7563  152.9988 C   0  0  0  0  0  0  0  0  0  0  0  0
  147.6454  132.0366  152.2474 N   0  3  1  0  0  0  0  0  0  0  0  0
  146.3005  132.4276  151.7382 C   0  0  0  0  0  0  0  0  0  0  0  0
  145.6590  131.2834  150.9302 C   0  0  0  0  0  0  0  0  0  0  0  0
  146.3656  133.6976  150.8680 C   0  0  0  0  0  0  0  0  0  0  0  0
  148.3295  133.0446  153.0865 C   0  0  0  0  0  0  0  0  0  0  0  0
  149.1675  138.3356  154.6343 S   0  0  0  0  0  0  0  0  0  0  0  0
  149.6103  141.9640  155.3810 H   0  0  0  0  0  0  0  0  0  0  0  0
  148.1427  140.9754  155.4415 H   0  0  0  0  0  0  0  0  0  0  0  0
  148.7842  141.5123  153.8784 H   0  0  0  0  0  0  0  0  0  0  0  0
  151.4119  134.1108  154.0704 H   0  0  0  0  0  0  0  0  0  0  0  0
  150.6279  132.3761  155.6445 H   0  0  0  0  0  0  0  0  0  0  0  0
  149.1041  133.2245  155.7769 H   0  0  0  0  0  0  0  0  0  0  0  0
  150.2085  132.0370  153.1911 H   0  0  0  0  0  0  0  0  0  0  0  0
  149.3322  130.1157  154.3099 H   0  0  0  0  0  0  0  0  0  0  0  0
  148.0751  131.0601  155.1012 H   0  0  0  0  0  0  0  0  0  0  0  0
  148.0393  129.9664  152.3333 H   0  0  0  0  0  0  0  0  0  0  0  0
  146.7059  130.4667  153.3708 H   0  0  0  0  0  0  0  0  0  0  0  0
  145.6620  132.6408  152.5972 H   0  0  0  0  0  0  0  0  0  0  0  0
  144.6832  131.5791  150.5433 H   0  0  0  0  0  0  0  0  0  0  0  0
  145.5014  130.3898  151.5342 H   0  0  0  0  0  0  0  0  0  0  0  0
  146.2797  131.0043  150.0780 H   0  0  0  0  0  0  0  0  0  0  0  0
  145.3834  133.9443  150.4635 H   0  0  0  0  0  0  0  0  0  0  0  0
  147.0454  133.5675  150.0251 H   0  0  0  0  0  0  0  0  0  0  0  0
  146.6975  134.5666  151.4362 H   0  0  0  0  0  0  0  0  0  0  0  0
  147.6128  133.4987  153.7734 H   0  0  0  0  0  0  0  0  0  0  0  0
  148.7759  133.8373  152.4852 H   0  0  0  0  0  0  0  0  0  0  0  0
  148.2404  131.9052  151.4418 H   0  0  0  0  0  0  0  0  0  0  0  0
  1  2  1  0  0  0  0
  1 20  1  0  0  0  0
  1 21  1  0  0  0  0
  1 22  1  0  0  0  0
  2 19  1  0  0  0  0
  2  3  2  0  0  0  0
  3  4  1  0  0  0  0
  4  5  2  0  0  0  0
  5  6  1  0  0  0  0
  5 19  1  0  0  0  0
  6  7  1  0  0  0  0
  7  8  2  0  0  0  0
  7  9  1  0  0  0  0
  9 10  1  0  0  0  0
  9 23  1  0  0  0  0
 10 11  1  0  0  0  0
 10 24  1  0  0  0  0
 10 25  1  0  0  0  0
 11 18  1  0  0  0  0
 11 12  1  0  0  0  0
 11 26  1  0  0  0  0
 12 13  1  0  0  0  0
 12 27  1  0  0  0  0
 12 28  1  0  0  0  0
 13 14  1  0  0  0  0
 13 29  1  0  0  0  0
 13 30  1  0  0  0  0
 14 15  1  0  0  0  0
 14 18  1  0  0  0  0
 14 40  1  0  0  0  0
 15 16  1  0  0  0  0
 15 17  1  0  0  0  0
 15 31  1  0  0  0  0
 16 32  1  0  0  0  0
 16 33  1  0  0  0  0
 16 34  1  0  0  0  0
 17 35  1  0  0  0  0
 17 36  1  0  0  0  0
 17 37  1  0  0  0  0
 18 38  1  0  0  0  0
 18 39  1  0  0  0  0
M  CHG  1   6  -1
M  CHG  1  14   1
M  END
> <s_m_source_file>
AV-unprocessed.smi

> <i_m_source_file_index>
1831

> <i_lp_mmshare_version>
43012

> <i_f3d_flags>
0

> <s_epik_input>
W0NIM11jMW5uYyhzMSlbTkhdQyg9TylbTkhdW0NIMl1bQ0BASF0yW0NIMl1bQ0gyXU4oW0NIMl0yKVtDSF0oW0NIM10pW0NIM10=

> <s_epik_cmdline>
J2VwaWtfcHl0aG9uJywgJy1waCcsICc3LjAnLCAnLXRuJywgJzgnLCAnLW1hJywgJzIwMCcsICctbWV0YWxfYmluZGluZycsICctaW1hZScsICc8aW5maWxlLm1hZT4nLCAnLW9tYWUnLCAnPG91dGZpbGUubWFlPic=

> <r_lp_tautomer_probability>
1

> <r_epik_Ionization_Penalty>
4.24531

> <r_epik_Ionization_Penalty_Charging>
4.11954

> <r_epik_Ionization_Penalty_Neutral>
0.125766

> <r_epik_State_Penalty>
4.11879

> <r_epik_Charging_Adjusted_Penalty>
8.23833

> <i_epik_Tot_Q>
0

> <i_epik_Tot_abs_Q>
2

> <r_epik_Metal_State_Penalty>
0.659341

> <b_epik_Metal_Only>
1

> <s_lp_Force_Field>
OPLS_2005

> <r_lp_Energy>
24.973

> <b_lp_Chiralities_Consistent>
1

> <s_lp_Variant>
AV-unprocessed.smi:1831-6

> <Gold.Version>
5.8.1

> <Gold.Id.Protein>
6NUR|6NUR_protein|mol2

> <Gold.PLP.Fitness>
45.4429

> <Gold.PLP.PLP>
-33.8667

> <Gold.PLP.part.hbond>
-3.0000

> <Gold.PLP.part.metal>
0.0000

> <Gold.PLP.part.buried>
-4.1605

> <Gold.PLP.part.nonpolar>
-28.0217

> <Gold.PLP.part.repulsive>
0.4828

> <Gold.PLP.ligand.clash>
0.0000

> <Gold.PLP.ligand.torsion>
0.2702

> <Gold.PLP.Chemscore.Hbond>
4.0000

> <Gold.PLP.Chemscore.CHOScore>
0.0000

> <Gold.PLP.Chemscore.Metal>
0.0000

> <Gold.Chemscore.Hbonds>
donor molecule, donor type, donor heavy atom, donor atom, acceptor molecule, acceptor atom, score
      L1  H    14    40       P1 10747  1.00
      P1  H  7989  7998       L1     3  1.00
      P1  H 10752 10765       L1     6  2.00

> <Gold.PLP.Chemscore.Internal.Correction>
0.1165

> <Gold.Rescore>
     Score         DG    S(hbond)    S(metal)    S(lipo)     H(rot)  DE(clash)    DE(int)     intcor
     16.84     -18.52       2.54        0.00      72.14       1.51       0.08       1.60       ----

> <Gold.Chemscore.Fitness>
16.8394

> <Gold.Chemscore.DG>
-18.5246

> <Gold.Chemscore.ZeroCoef>
-5.4800

> <Gold.Chemscore.Hbond>
2.5382

> <Gold.Chemscore.Metal>
0.0000

> <Gold.Chemscore.Lipo>
72.1416

> <Gold.Chemscore.Internal_Hbond>
0.0000

> <Gold.Chemscore.DEClash>
0.0843

> <Gold.Chemscore.DEInternal>
1.6009

> <Gold.Chemscore.Rot>
1.5131

> <Gold.Chemscore.Internal.Correction>
   9.000000E+99

> <Gold.Chemscore.Hbonds>
donor molecule, donor type, donor heavy atom, donor atom, acceptor molecule, acceptor atom, score
      L1  H    14    40       P1 10747  0.95
      P1  H  7989  7998       L1     3  0.39
      P1  H 10752 10765       L1     6  0.59

> <Gold.Chemscore.Hbond.Weighted>
-8.4775

> <Gold.Chemscore.Metal.Weighted>
-0.0000

> <Gold.Chemscore.Lipo.Weighted>
-8.4406

> <Gold.Chemscore.Internal_Hbond.Weighted>
0.0000

> <Gold.Chemscore.DEClash.Weighted>
0.0843

> <Gold.Chemscore.DEInternal.Weighted>
1.6009

> <Gold.Chemscore.Rot.Weighted>
3.8735

> <Gold.Chemscore.Internal.Correction.Weighted>
   9.000000E+99

> <Gold.Protein.RotatedTorsions>
[ 6907 6896 6895 6894 ] final  115.84 input  -60.11 | X-H torsion
[ 7974 7965 7964 7962 ] final   -5.89 input  175.53 | X-H torsion
[ 8008 7997 7996 7995 ] final  134.59 input   59.86 | X-H torsion
[ 10167 10162 10161 10158 ] final  -79.57 input  -65.29 | X-H torsion
[ 10718 10713 10712 10709 ] final -166.64 input   66.30 | X-H torsion
[ 10763 10752 10751 10750 ] final  171.38 input  -60.55 | X-H torsion
[ 11005 11000 10999 10996 ] final   67.93 input  -57.11 | X-H torsion

> <Gold.Protein.ActiveResidues>
 VAL166  LYS551  ARG553  GLY616  TRP617  ASP618  TYR619  PRO620  LYS621  CYS622 
 ASP623  PHE694  ASN695  SER759  ASP760  ASP761  ALA762  ILE779  LEU786  VAL792 
 PHE793  MET794  SER795  GLU796  ALA797  LYS798  CYS799  TRP800  GLU811  SER814 

> <Gold.Protein.RotatedAtoms>
  152.4716  133.8042  159.6968 H   0  0  0  0  0  0  0  0  0  0  0  0  # atno 6907 bound_to 6896
  150.8708  133.7498  159.2968 H   0  0  0  0  0  0  0  0  0  0  0  0  # atno 6908 bound_to 6896
  151.5034  135.1066  159.9887 H   0  0  0  0  0  0  0  0  0  0  0  0  # atno 6909 bound_to 6896
  146.2343  140.2088  142.8335 H   0  0  0  0  0  0  0  0  0  0  0  0  # atno 7974 bound_to 7965
  156.3000  140.2492  156.3442 H   0  0  0  0  0  0  0  0  0  0  0  0  # atno 8008 bound_to 7997
  154.9027  140.0405  157.1921 H   0  0  0  0  0  0  0  0  0  0  0  0  # atno 8009 bound_to 7997
  154.8485  140.2902  155.5618 H   0  0  0  0  0  0  0  0  0  0  0  0  # atno 8010 bound_to 7997
  140.4581  143.2462  151.8390 H   0  0  0  0  0  0  0  0  0  0  0  0  # atno 10167 bound_to 10162
  156.6708  130.9083  151.3043 H   0  0  0  0  0  0  0  0  0  0  0  0  # atno 10718 bound_to 10713
  154.4111  135.2756  155.2036 H   0  0  0  0  0  0  0  0  0  0  0  0  # atno 10763 bound_to 10752
  154.4021  135.6042  153.5907 H   0  0  0  0  0  0  0  0  0  0  0  0  # atno 10764 bound_to 10752
  152.9831  135.5929  154.4393 H   0  0  0  0  0  0  0  0  0  0  0  0  # atno 10765 bound_to 10752
  139.9741  134.6851  156.0388 H   0  0  0  0  0  0  0  0  0  0  0  0  # atno 11005 bound_to 11000
  144.9723  140.8380  143.5448 LP  0  0  0  0  0  0  0  0  0  0  0  0  # atno 17320 bound_to 7965
  145.2071  139.2223  143.5162 LP  0  0  0  0  0  0  0  0  0  0  0  0  # atno 17321 bound_to 7965
  139.4803  144.5041  151.9022 LP  0  0  0  0  0  0  0  0  0  0  0  0  # atno 17342 bound_to 10162
  140.4127  144.2348  150.5888 LP  0  0  0  0  0  0  0  0  0  0  0  0  # atno 17343 bound_to 10162
  157.7078  130.9405  150.0987 LP  0  0  0  0  0  0  0  0  0  0  0  0  # atno 17370 bound_to 10713
  156.1940  130.3656  149.8873 LP  0  0  0  0  0  0  0  0  0  0  0  0  # atno 17371 bound_to 10713
  141.1419  133.6563  156.3755 LP  0  0  0  0  0  0  0  0  0  0  0  0  # atno 17394 bound_to 11000
  140.5231  134.6285  157.5325 LP  0  0  0  0  0  0  0  0  0  0  0  0  # atno 17395 bound_to 11000

$$$$
