AV-unprocessed.smi:2849|AV-procd|sdf|10962|dock2
  -GOLD-   2272015413D 1   1.00000     0.00000
 Structure written by MMmdl.
 56 59  0  0  0  0  0  0  0  0  3 V2000
  145.7780  133.1863  155.2322 C   0  0  0  0  0  0  0  0  0  0  0  0
  144.7769  133.8615  154.3724 N   0  3  2  0  0  0  0  0  0  0  0  0
  145.2044  134.0799  152.9688 C   0  0  1  0  0  0  0  0  0  0  0  0
  143.9551  134.3709  152.1042 C   0  0  0  0  0  0  0  0  0  0  0  0
  143.0713  135.5132  152.6465 C   0  0  0  0  0  0  0  0  0  0  0  0
  142.9091  135.4569  154.1796 C   0  0  0  0  0  0  0  0  0  0  0  0
  144.2142  135.1130  154.9352 C   0  0  2  0  0  0  0  0  0  0  0  0
  145.2719  136.2457  154.9583 C   0  0  0  0  0  0  0  0  0  0  0  0
  146.0003  136.4751  153.6135 C   0  0  1  0  0  0  0  0  0  0  0  0
  147.2446  137.2050  153.8550 N   0  0  0  0  0  0  0  0  0  0  0  0
  147.3712  138.3275  154.5787 C   0  0  0  0  0  0  0  0  0  0  0  0
  146.4303  138.8892  155.1389 O   0  0  0  0  0  0  0  0  0  0  0  0
  148.6443  138.7591  154.5865 N   0  0  0  0  0  0  0  0  0  0  0  0
  149.1948  139.8671  155.2857 C   0  0  0  0  0  0  0  0  0  0  0  0
  150.4628  139.7060  155.8848 C   0  0  0  0  0  0  0  0  0  0  0  0
  151.0353  140.7720  156.6083 C   0  0  0  0  0  0  0  0  0  0  0  0
  150.3224  141.9869  156.7351 C   0  0  0  0  0  0  0  0  0  0  0  0
  150.8020  143.1057  157.4308 N   0  0  0  0  0  0  0  0  0  0  0  0
  151.1213  142.8825  158.8314 C   0  0  0  0  0  0  0  0  0  0  0  0
  151.9941  144.0696  159.2451 C   0  0  0  0  0  0  0  0  0  0  0  0
  152.5854  144.5996  157.9336 C   0  0  0  0  0  0  0  0  0  0  0  0
  151.9815  143.7143  156.8396 C   0  0  0  0  0  0  0  0  0  0  0  0
  149.1084  142.0992  156.1536 N   0  3  0  0  0  0  0  0  0  0  0  0
  148.5256  141.1047  155.4496 C   0  0  0  0  0  0  0  0  0  0  0  0
  146.3192  135.1518  152.8802 C   0  0  0  0  0  0  0  0  0  0  0  0
  146.6737  133.7898  155.3771 H   0  0  0  0  0  0  0  0  0  0  0  0
  146.0790  132.2360  154.7908 H   0  0  0  0  0  0  0  0  0  0  0  0
  145.3527  132.9730  156.2133 H   0  0  0  0  0  0  0  0  0  0  0  0
  145.6247  133.1434  152.5987 H   0  0  0  0  0  0  0  0  0  0  0  0
  144.2445  134.5791  151.0735 H   0  0  0  0  0  0  0  0  0  0  0  0
  143.3508  133.4637  152.0649 H   0  0  0  0  0  0  0  0  0  0  0  0
  143.4675  136.4781  152.3417 H   0  0  0  0  0  0  0  0  0  0  0  0
  142.0885  135.4646  152.1765 H   0  0  0  0  0  0  0  0  0  0  0  0
  142.4907  136.3949  154.5466 H   0  0  0  0  0  0  0  0  0  0  0  0
  142.1692  134.6906  154.4142 H   0  0  0  0  0  0  0  0  0  0  0  0
  143.9285  134.9148  155.9693 H   0  0  0  0  0  0  0  0  0  0  0  0
  144.8126  137.1770  155.2919 H   0  0  0  0  0  0  0  0  0  0  0  0
  146.0100  136.0016  155.7233 H   0  0  0  0  0  0  0  0  0  0  0  0
  145.3575  137.0781  152.9778 H   0  0  0  0  0  0  0  0  0  0  0  0
  148.0782  136.8260  153.4296 H   0  0  0  0  0  0  0  0  0  0  0  0
  149.2904  138.2514  154.0001 H   0  0  0  0  0  0  0  0  0  0  0  0
  151.0002  138.7738  155.7882 H   0  0  0  0  0  0  0  0  0  0  0  0
  152.0110  140.6517  157.0561 H   0  0  0  0  0  0  0  0  0  0  0  0
  150.2150  142.8243  159.4350 H   0  0  0  0  0  0  0  0  0  0  0  0
  151.6725  141.9508  158.9625 H   0  0  0  0  0  0  0  0  0  0  0  0
  151.3841  144.8424  159.7146 H   0  0  0  0  0  0  0  0  0  0  0  0
  152.7632  143.7747  159.9597 H   0  0  0  0  0  0  0  0  0  0  0  0
  152.2934  145.6403  157.7874 H   0  0  0  0  0  0  0  0  0  0  0  0
  153.6748  144.5563  157.9238 H   0  0  0  0  0  0  0  0  0  0  0  0
  152.6964  142.9471  156.5385 H   0  0  0  0  0  0  0  0  0  0  0  0
  151.7193  144.2951  155.9547 H   0  0  0  0  0  0  0  0  0  0  0  0
  147.5454  141.3382  155.0622 H   0  0  0  0  0  0  0  0  0  0  0  0
  147.2302  134.7249  153.3020 H   0  0  0  0  0  0  0  0  0  0  0  0
  146.5570  135.3571  151.8356 H   0  0  0  0  0  0  0  0  0  0  0  0
  144.0035  133.2135  154.3229 H   0  0  0  0  0  0  0  0  0  0  0  0
  148.6022  142.9793  156.2551 H   0  0  0  0  0  0  0  0  0  0  0  0
  1  2  1  0  0  0  0
  1 26  1  0  0  0  0
  1 27  1  0  0  0  0
  1 28  1  0  0  0  0
  2  7  1  0  0  0  0
  2  3  1  0  0  0  0
  2 55  1  0  0  0  0
  3 25  1  0  0  0  0
  3  4  1  0  0  0  0
  3 29  1  0  0  0  0
  4  5  1  0  0  0  0
  4 30  1  0  0  0  0
  4 31  1  0  0  0  0
  5  6  1  0  0  0  0
  5 32  1  0  0  0  0
  5 33  1  0  0  0  0
  6  7  1  0  0  0  0
  6 34  1  0  0  0  0
  6 35  1  0  0  0  0
  7  8  1  0  0  0  0
  7 36  1  0  0  0  0
  8  9  1  0  0  0  0
  8 37  1  0  0  0  0
  8 38  1  0  0  0  0
  9 10  1  0  0  0  0
  9 25  1  0  0  0  0
  9 39  1  0  0  0  0
 10 11  1  0  0  0  0
 10 40  1  0  0  0  0
 11 12  2  0  0  0  0
 11 13  1  0  0  0  0
 13 14  1  0  0  0  0
 13 41  1  0  0  0  0
 14 24  1  0  0  0  0
 14 15  2  0  0  0  0
 15 16  1  0  0  0  0
 15 42  1  0  0  0  0
 16 17  2  0  0  0  0
 16 43  1  0  0  0  0
 17 18  1  0  0  0  0
 17 23  1  0  0  0  0
 18 22  1  0  0  0  0
 18 19  1  0  0  0  0
 19 20  1  0  0  0  0
 19 44  1  0  0  0  0
 19 45  1  0  0  0  0
 20 21  1  0  0  0  0
 20 46  1  0  0  0  0
 20 47  1  0  0  0  0
 21 22  1  0  0  0  0
 21 48  1  0  0  0  0
 21 49  1  0  0  0  0
 22 50  1  0  0  0  0
 22 51  1  0  0  0  0
 23 24  2  0  0  0  0
 23 56  1  0  0  0  0
 24 52  1  0  0  0  0
 25 53  1  0  0  0  0
 25 54  1  0  0  0  0
M  CHG  1   2   1
M  CHG  1  23   1
M  END
> <s_m_source_file>
AV-unprocessed.smi

> <i_m_source_file_index>
2849

> <i_lp_mmshare_version>
43012

> <i_f3d_flags>
0

> <s_epik_input>
W0NIMl0xW0NIMl1bQ0gyXVtDQEhdKE4oW0NIM10pW0NIXTEyKVtDSDJdW0NASF0oW0NIMl0yKVtOSF1DKD1PKVtOSF1jM1tjSF1bY0hdYyhuW2NIXTMpTjRbQ0gyXVtDSDJdW0NIMl1bQ0gyXTQ=

> <s_epik_cmdline>
J2VwaWtfcHl0aG9uJywgJy1waCcsICc3LjAnLCAnLXRuJywgJzgnLCAnLW1hJywgJzIwMCcsICctbWV0YWxfYmluZGluZycsICctaW1hZScsICc8aW5maWxlLm1hZT4nLCAnLW9tYWUnLCAnPG91dGZpbGUubWFlPic=

> <r_lp_tautomer_probability>
0.999994

> <r_epik_Ionization_Penalty>
1.2404

> <r_epik_Ionization_Penalty_Charging>
1.24038

> <r_epik_Ionization_Penalty_Neutral>
1.86921e-05

> <r_epik_State_Penalty>
1.30821

> <r_epik_Charging_Adjusted_Penalty>
2.54859

> <i_epik_Tot_Q>
2

> <i_epik_Tot_abs_Q>
2

> <r_epik_Metal_State_Penalty>
1.37823

> <b_epik_Metal_Only>
0

> <s_lp_Force_Field>
OPLS_2005

> <r_lp_Energy>
73.3774

> <b_lp_Chiralities_Consistent>
1

> <s_lp_Variant>
AV-unprocessed.smi:2849-6

> <Gold.Version>
5.8.1

> <Gold.Id.Protein>
6NUR|6NUR_protein|mol2

> <Gold.PLP.Fitness>
43.2297

> <Gold.PLP.PLP>
-30.7401

> <Gold.PLP.part.hbond>
-3.0000

> <Gold.PLP.part.metal>
0.0000

> <Gold.PLP.part.buried>
-5.0196

> <Gold.PLP.part.nonpolar>
-24.1584

> <Gold.PLP.part.repulsive>
0.7439

> <Gold.PLP.ligand.clash>
0.0000

> <Gold.PLP.ligand.torsion>
0.4141

> <Gold.PLP.Chemscore.Hbond>
4.4320

> <Gold.PLP.Chemscore.CHOScore>
0.0000

> <Gold.PLP.Chemscore.Metal>
0.0000

> <Gold.Chemscore.Hbonds>
donor molecule, donor type, donor heavy atom, donor atom, acceptor molecule, acceptor atom, score
      L1  H     2    55       P1 10957  2.00
      L1  H    10    40       P1  7948  0.98
      L1  H    23    56       P1  8028  1.41

> <Gold.PLP.Chemscore.Internal.Correction>
0.0217

> <Gold.Rescore>
     Score         DG    S(hbond)    S(metal)    S(lipo)     H(rot)  DE(clash)    DE(int)     intcor
     18.30     -23.01       2.76        0.00      97.14       1.19       2.30       2.41       ----

> <Gold.Chemscore.Fitness>
18.2970

> <Gold.Chemscore.DG>
-23.0121

> <Gold.Chemscore.ZeroCoef>
-5.4800

> <Gold.Chemscore.Hbond>
2.7570

> <Gold.Chemscore.Metal>
0.0000

> <Gold.Chemscore.Lipo>
97.1353

> <Gold.Chemscore.Internal_Hbond>
0.0000

> <Gold.Chemscore.DEClash>
2.3025

> <Gold.Chemscore.DEInternal>
2.4125

> <Gold.Chemscore.Rot>
1.1879

> <Gold.Chemscore.Internal.Correction>
   9.000000E+99

> <Gold.Chemscore.Hbonds>
donor molecule, donor type, donor heavy atom, donor atom, acceptor molecule, acceptor atom, score
      L1  H     2    55       P1 10957  0.93
      L1  H    10    40       P1  7948  0.92
      L1  H    23    56       P1  8028  0.67

> <Gold.Chemscore.Hbond.Weighted>
-9.2083

> <Gold.Chemscore.Metal.Weighted>
-0.0000

> <Gold.Chemscore.Lipo.Weighted>
-11.3648

> <Gold.Chemscore.Internal_Hbond.Weighted>
0.0000

> <Gold.Chemscore.DEClash.Weighted>
2.3025

> <Gold.Chemscore.DEInternal.Weighted>
2.4125

> <Gold.Chemscore.Rot.Weighted>
3.0410

> <Gold.Chemscore.Internal.Correction.Weighted>
   9.000000E+99

> <Gold.Protein.RotatedTorsions>
[ 6907 6896 6895 6894 ] final  -46.73 input  -60.11 | X-H torsion
[ 7974 7965 7964 7962 ] final   59.29 input  175.53 | X-H torsion
[ 8008 7997 7996 7995 ] final  -10.36 input   59.86 | X-H torsion
[ 10167 10162 10161 10158 ] final -128.28 input  -65.29 | X-H torsion
[ 10718 10713 10712 10709 ] final -141.66 input   66.30 | X-H torsion
[ 10763 10752 10751 10750 ] final   59.48 input  -60.55 | X-H torsion
[ 11005 11000 10999 10996 ] final   81.60 input  -57.11 | X-H torsion

> <Gold.Protein.ActiveResidues>
 VAL166  LYS551  ARG553  GLY616  TRP617  ASP618  TYR619  PRO620  LYS621  CYS622 
 ASP623  PHE694  ASN695  SER759  ASP760  ASP761  ALA762  ILE779  LEU786  VAL792 
 PHE793  MET794  SER795  GLU796  ALA797  LYS798  CYS799  TRP800  GLU811  SER814 

> <Gold.Protein.RotatedAtoms>
  150.9081  134.8497  159.7406 H   0  0  0  0  0  0  0  0  0  0  0  0  # atno 6907 bound_to 6896
  152.4929  134.4400  159.9550 H   0  0  0  0  0  0  0  0  0  0  0  0  # atno 6908 bound_to 6896
  151.4445  133.3595  159.2821 H   0  0  0  0  0  0  0  0  0  0  0  0  # atno 6909 bound_to 6896
  145.9088  139.3638  143.0548 H   0  0  0  0  0  0  0  0  0  0  0  0  # atno 7974 bound_to 7965
  154.5562  140.2331  155.8407 H   0  0  0  0  0  0  0  0  0  0  0  0  # atno 8008 bound_to 7997
  156.1990  140.3057  155.9447 H   0  0  0  0  0  0  0  0  0  0  0  0  # atno 8009 bound_to 7997
  155.2976  140.0429  157.3018 H   0  0  0  0  0  0  0  0  0  0  0  0  # atno 8010 bound_to 7997
  139.9520  143.6046  152.2472 H   0  0  0  0  0  0  0  0  0  0  0  0  # atno 10167 bound_to 10162
  156.3366  130.7615  151.1743 H   0  0  0  0  0  0  0  0  0  0  0  0  # atno 10718 bound_to 10713
  152.9895  135.5570  154.5720 H   0  0  0  0  0  0  0  0  0  0  0  0  # atno 10763 bound_to 10752
  154.5118  135.2803  155.1338 H   0  0  0  0  0  0  0  0  0  0  0  0  # atno 10764 bound_to 10752
  154.2727  135.6360  153.5369 H   0  0  0  0  0  0  0  0  0  0  0  0  # atno 10765 bound_to 10752
  139.9092  134.8009  156.2063 H   0  0  0  0  0  0  0  0  0  0  0  0  # atno 11005 bound_to 11000
  145.8698  140.9427  143.0657 LP  0  0  0  0  0  0  0  0  0  0  0  0  # atno 17320 bound_to 7965
  144.6741  140.0639  143.7475 LP  0  0  0  0  0  0  0  0  0  0  0  0  # atno 17321 bound_to 7965
  139.6621  144.7662  151.1942 LP  0  0  0  0  0  0  0  0  0  0  0  0  # atno 17342 bound_to 10162
  140.7580  143.5994  150.8715 LP  0  0  0  0  0  0  0  0  0  0  0  0  # atno 17343 bound_to 10162
  157.7440  131.0466  150.4902 LP  0  0  0  0  0  0  0  0  0  0  0  0  # atno 17370 bound_to 10713
  156.5076  130.4132  149.6318 LP  0  0  0  0  0  0  0  0  0  0  0  0  # atno 17371 bound_to 10713
  141.0493  133.6897  156.1742 LP  0  0  0  0  0  0  0  0  0  0  0  0  # atno 17394 bound_to 11000
  140.6835  134.4742  157.5589 LP  0  0  0  0  0  0  0  0  0  0  0  0  # atno 17395 bound_to 11000

$$$$
