AV-unprocessed.smi:1519|AV-procd|sdf|6128|dock4
  -GOLD-   22720 6273D 1   1.00000     0.00000
 Structure written by MMmdl.
 40 41  0  0  0  0  0  0  0  0  1 V2000
  154.0320  141.1574  160.6860 C   0  0  0  0  0  0  0  0  0  0  0  0
  153.2092  142.3257  160.2626 C   0  0  0  0  0  0  0  0  0  0  0  0
  152.7885  142.5183  159.0100 N   0  0  0  0  0  0  0  0  0  0  0  0
  152.0342  143.6873  158.8681 C   0  0  0  0  0  0  0  0  0  0  0  0
  151.4763  144.0573  157.5273 C   0  0  0  0  0  0  0  0  0  0  0  0
  151.6936  142.9491  156.4838 C   0  0  0  0  0  0  0  0  0  0  0  0
  150.4428  142.2855  156.1334 N   0  0  0  0  0  0  0  0  0  0  0  0
  150.3419  141.1277  155.4583 C   0  0  0  0  0  0  0  0  0  0  0  0
  151.3342  140.5068  155.0742 O   0  0  0  0  0  0  0  0  0  0  0  0
  149.0721  140.6834  155.2786 N   0  0  0  0  0  0  0  0  0  0  0  0
  147.8682  141.5201  155.1406 C   0  0  0  0  0  0  0  0  0  0  0  0
  147.4243  141.5136  153.6663 C   0  0  0  0  0  0  0  0  0  0  0  0
  147.1704  140.0768  153.1589 C   0  0  0  0  0  0  0  0  0  0  0  0
  146.8214  140.0703  151.6594 C   0  0  0  0  0  0  0  0  0  0  0  0
  147.0349  138.7914  151.1001 O   0  0  0  0  0  0  0  0  0  0  0  0
  148.3783  139.1675  153.4842 C   0  0  0  0  0  0  0  0  0  0  0  0
  148.7787  139.2793  154.9664 C   0  0  0  0  0  0  0  0  0  0  0  0
  151.8873  144.3820  160.0431 C   0  0  0  0  0  0  0  0  0  0  0  0
  152.6936  143.5917  161.3702 S   0  0  0  0  0  0  0  0  0  0  0  0
  154.2499  140.5111  159.8350 H   0  0  0  0  0  0  0  0  0  0  0  0
  153.4959  140.5773  161.4371 H   0  0  0  0  0  0  0  0  0  0  0  0
  154.9740  141.5006  161.1137 H   0  0  0  0  0  0  0  0  0  0  0  0
  150.4099  144.2692  157.6142 H   0  0  0  0  0  0  0  0  0  0  0  0
  151.9366  144.9840  157.1824 H   0  0  0  0  0  0  0  0  0  0  0  0
  152.1653  143.3538  155.5865 H   0  0  0  0  0  0  0  0  0  0  0  0
  152.3762  142.1965  156.8793 H   0  0  0  0  0  0  0  0  0  0  0  0
  149.5889  142.7328  156.4334 H   0  0  0  0  0  0  0  0  0  0  0  0
  147.0757  141.1118  155.7695 H   0  0  0  0  0  0  0  0  0  0  0  0
  148.0016  142.5477  155.4774 H   0  0  0  0  0  0  0  0  0  0  0  0
  146.5215  142.1142  153.5510 H   0  0  0  0  0  0  0  0  0  0  0  0
  148.1925  141.9910  153.0561 H   0  0  0  0  0  0  0  0  0  0  0  0
  146.3079  139.6915  153.7055 H   0  0  0  0  0  0  0  0  0  0  0  0
  145.7736  140.3339  151.5119 H   0  0  0  0  0  0  0  0  0  0  0  0
  147.4173  140.8057  151.1177 H   0  0  0  0  0  0  0  0  0  0  0  0
  147.5848  138.2943  151.6865 H   0  0  0  0  0  0  0  0  0  0  0  0
  148.1441  138.1292  153.2477 H   0  0  0  0  0  0  0  0  0  0  0  0
  149.2288  139.4421  152.8584 H   0  0  0  0  0  0  0  0  0  0  0  0
  149.6197  138.6170  155.1762 H   0  0  0  0  0  0  0  0  0  0  0  0
  147.9645  138.9297  155.6027 H   0  0  0  0  0  0  0  0  0  0  0  0
  151.3541  145.3066  160.2083 H   0  0  0  0  0  0  0  0  0  0  0  0
  1  2  1  0  0  0  0
  1 20  1  0  0  0  0
  1 21  1  0  0  0  0
  1 22  1  0  0  0  0
  2 19  1  0  0  0  0
  2  3  2  0  0  0  0
  3  4  1  0  0  0  0
  4  5  1  0  0  0  0
  4 18  2  0  0  0  0
  5  6  1  0  0  0  0
  5 23  1  0  0  0  0
  5 24  1  0  0  0  0
  6  7  1  0  0  0  0
  6 25  1  0  0  0  0
  6 26  1  0  0  0  0
  7  8  1  0  0  0  0
  7 27  1  0  0  0  0
  8  9  2  0  0  0  0
  8 10  1  0  0  0  0
 10 17  1  0  0  0  0
 10 11  1  0  0  0  0
 11 12  1  0  0  0  0
 11 28  1  0  0  0  0
 11 29  1  0  0  0  0
 12 13  1  0  0  0  0
 12 30  1  0  0  0  0
 12 31  1  0  0  0  0
 13 14  1  0  0  0  0
 13 16  1  0  0  0  0
 13 32  1  0  0  0  0
 14 15  1  0  0  0  0
 14 33  1  0  0  0  0
 14 34  1  0  0  0  0
 15 35  1  0  0  0  0
 16 17  1  0  0  0  0
 16 36  1  0  0  0  0
 16 37  1  0  0  0  0
 17 38  1  0  0  0  0
 17 39  1  0  0  0  0
 18 19  1  0  0  0  0
 18 40  1  0  0  0  0
M  END
> <s_m_source_file>
AV-unprocessed.smi

> <i_m_source_file_index>
1519

> <i_lp_mmshare_version>
43012

> <i_f3d_flags>
0

> <s_epik_input>
W0NIM11jMW5jKFtjSF1zMSlbQ0gyXVtDSDJdW05IXUMoPU8pTjJbQ0gyXVtDSDJdW0NIXShbQ0gyXVtPSF0pW0NIMl1bQ0gyXTI=

> <s_epik_cmdline>
J2VwaWtfcHl0aG9uJywgJy1waCcsICc3LjAnLCAnLXRuJywgJzgnLCAnLW1hJywgJzIwMCcsICctbWV0YWxfYmluZGluZycsICctaW1hZScsICc8aW5maWxlLm1hZT4nLCAnLW9tYWUnLCAnPG91dGZpbGUubWFlPic=

> <r_epik_Ionization_Penalty>
0.00208048

> <r_epik_Ionization_Penalty_Charging>
0

> <r_epik_Ionization_Penalty_Neutral>
0.00208048

> <r_epik_State_Penalty>
0.00137324

> <r_epik_Charging_Adjusted_Penalty>
0.00137324

> <i_epik_Tot_Q>
0

> <i_epik_Tot_abs_Q>
0

> <r_epik_Metal_State_Penalty>
-0

> <b_epik_Metal_Only>
0

> <s_lp_Force_Field>
OPLS_2005

> <r_lp_Energy>
26.0602

> <b_lp_Chiralities_Consistent>
1

> <s_lp_Variant>
AV-unprocessed.smi:1519-1

> <Gold.Version>
5.8.1

> <Gold.Id.Protein>
6NUR|6NUR_protein|mol2

> <Gold.PLP.Fitness>
50.7786

> <Gold.PLP.PLP>
-43.8135

> <Gold.PLP.part.hbond>
-5.0000

> <Gold.PLP.part.metal>
0.0000

> <Gold.PLP.part.buried>
-1.5155

> <Gold.PLP.part.nonpolar>
-37.1683

> <Gold.PLP.part.repulsive>
0.1307

> <Gold.PLP.ligand.clash>
0.0000

> <Gold.PLP.ligand.torsion>
0.9658

> <Gold.PLP.Chemscore.Hbond>
2.9466

> <Gold.PLP.Chemscore.CHOScore>
0.0000

> <Gold.PLP.Chemscore.Metal>
0.0000

> <Gold.Chemscore.Hbonds>
donor molecule, donor type, donor heavy atom, donor atom, acceptor molecule, acceptor atom, score
      L1  H     7    27       P1  8028  0.22
      P1  H  7989  7998       L1     9  0.93

> <Gold.PLP.Chemscore.Internal.Correction>
0.0569

> <Gold.Rescore>
     Score         DG    S(hbond)    S(metal)    S(lipo)     H(rot)  DE(clash)    DE(int)     intcor
     16.74     -21.03       2.02        0.00     121.32       2.10       3.27       1.02       ----

> <Gold.Chemscore.Fitness>
16.7377

> <Gold.Chemscore.DG>
-21.0270

> <Gold.Chemscore.ZeroCoef>
-5.4800

> <Gold.Chemscore.Hbond>
2.0156

> <Gold.Chemscore.Metal>
0.0000

> <Gold.Chemscore.Lipo>
121.3151

> <Gold.Chemscore.Internal_Hbond>
0.0000

> <Gold.Chemscore.DEClash>
3.2704

> <Gold.Chemscore.DEInternal>
1.0189

> <Gold.Chemscore.Rot>
2.1012

> <Gold.Chemscore.Internal.Correction>
   9.000000E+99

> <Gold.Chemscore.Hbonds>
donor molecule, donor type, donor heavy atom, donor atom, acceptor molecule, acceptor atom, score
      L1  H     7    27       P1  8028  0.22
      L1  H    15    35       P1  7948  0.05
      P1  H  7989  7998       L1     9  0.67

> <Gold.Chemscore.Hbond.Weighted>
-6.7322

> <Gold.Chemscore.Metal.Weighted>
-0.0000

> <Gold.Chemscore.Lipo.Weighted>
-14.1939

> <Gold.Chemscore.Internal_Hbond.Weighted>
0.0000

> <Gold.Chemscore.DEClash.Weighted>
3.2704

> <Gold.Chemscore.DEInternal.Weighted>
1.0189

> <Gold.Chemscore.Rot.Weighted>
5.3791

> <Gold.Chemscore.Internal.Correction.Weighted>
   9.000000E+99

> <Gold.Protein.RotatedTorsions>
[ 6907 6896 6895 6894 ] final  -48.37 input  -60.11 | X-H torsion
[ 7974 7965 7964 7962 ] final   24.85 input  175.53 | X-H torsion
[ 8008 7997 7996 7995 ] final   25.68 input   59.86 | X-H torsion
[ 10167 10162 10161 10158 ] final  -21.32 input  -65.29 | X-H torsion
[ 10718 10713 10712 10709 ] final   43.06 input   66.30 | X-H torsion
[ 10763 10752 10751 10750 ] final   -9.09 input  -60.55 | X-H torsion
[ 11005 11000 10999 10996 ] final  -24.28 input  -57.11 | X-H torsion

> <Gold.Protein.ActiveResidues>
 VAL166  LYS551  ARG553  GLY616  TRP617  ASP618  TYR619  PRO620  LYS621  CYS622 
 ASP623  PHE694  ASN695  SER759  ASP760  ASP761  ALA762  ILE779  LEU786  VAL792 
 PHE793  MET794  SER795  GLU796  ALA797  LYS798  CYS799  TRP800  GLU811  SER814 

> <Gold.Protein.RotatedAtoms>
  150.8912  134.8316  159.7294 H   0  0  0  0  0  0  0  0  0  0  0  0  # atno 6907 bound_to 6896
  152.4838  134.4645  159.9625 H   0  0  0  0  0  0  0  0  0  0  0  0  # atno 6908 bound_to 6896
  151.4707  133.3531  159.2858 H   0  0  0  0  0  0  0  0  0  0  0  0  # atno 6909 bound_to 6896
  146.1917  139.7548  142.8826 H   0  0  0  0  0  0  0  0  0  0  0  0  # atno 7974 bound_to 7965
  155.0155  140.3141  155.4813 H   0  0  0  0  0  0  0  0  0  0  0  0  # atno 8008 bound_to 7997
  156.2901  140.2207  156.5212 H   0  0  0  0  0  0  0  0  0  0  0  0  # atno 8009 bound_to 7997
  154.7497  140.0467  157.0871 H   0  0  0  0  0  0  0  0  0  0  0  0  # atno 8010 bound_to 7997
  140.7281  143.4638  151.0342 H   0  0  0  0  0  0  0  0  0  0  0  0  # atno 10167 bound_to 10162
  157.4118  130.7918  149.7437 H   0  0  0  0  0  0  0  0  0  0  0  0  # atno 10718 bound_to 10713
  153.4498  135.7015  153.6116 H   0  0  0  0  0  0  0  0  0  0  0  0  # atno 10763 bound_to 10752
  153.4456  135.3770  155.2254 H   0  0  0  0  0  0  0  0  0  0  0  0  # atno 10764 bound_to 10752
  154.8728  135.3984  154.3908 H   0  0  0  0  0  0  0  0  0  0  0  0  # atno 10765 bound_to 10752
  140.8831  133.7640  156.0326 H   0  0  0  0  0  0  0  0  0  0  0  0  # atno 11005 bound_to 11000
  145.3770  141.0352  143.3199 LP  0  0  0  0  0  0  0  0  0  0  0  0  # atno 17320 bound_to 7965
  144.8501  139.5336  143.6860 LP  0  0  0  0  0  0  0  0  0  0  0  0  # atno 17321 bound_to 7965
  139.8325  143.7672  152.3180 LP  0  0  0  0  0  0  0  0  0  0  0  0  # atno 17342 bound_to 10162
  139.7792  144.7450  151.0112 LP  0  0  0  0  0  0  0  0  0  0  0  0  # atno 17343 bound_to 10162
  155.9853  130.3984  150.3269 LP  0  0  0  0  0  0  0  0  0  0  0  0  # atno 17370 bound_to 10713
  157.1408  131.0296  151.2928 LP  0  0  0  0  0  0  0  0  0  0  0  0  # atno 17371 bound_to 10713
  140.8438  134.3036  157.5303 LP  0  0  0  0  0  0  0  0  0  0  0  0  # atno 17394 bound_to 11000
  139.8721  134.9430  156.3841 LP  0  0  0  0  0  0  0  0  0  0  0  0  # atno 17395 bound_to 11000

$$$$
