AV-unprocessed.smi:978|AV-procd|sdf|4309|dock1
  -GOLD-   22720 2213D 1   1.00000     0.00000
 Structure written by MMmdl.
 39 40  0  0  0  0  0  0  0  0  2 V2000
  150.8328  143.0139  158.8971 C   0  0  0  0  0  0  0  0  0  0  0  0
  151.2696  141.9531  157.9253 C   0  0  0  0  0  0  0  0  0  0  0  0
  152.3136  141.1953  158.2272 N   0  0  0  0  0  0  0  0  0  0  0  0
  152.5328  140.3530  157.1262 O   0  0  0  0  0  0  0  0  0  0  0  0
  151.6035  140.6245  156.1731 C   0  0  0  0  0  0  0  0  0  0  0  0
  151.6797  139.8374  154.9086 C   0  0  0  0  0  0  0  0  0  0  0  0
  150.7714  141.6005  156.6364 C   0  0  0  0  0  0  0  0  0  0  0  0
  149.6957  142.1585  155.9014 N   0  0  0  0  0  0  0  0  0  0  0  0
  148.8825  141.5122  155.0524 C   0  0  0  0  0  0  0  0  0  0  0  0
  148.9693  140.3191  154.7642 O   0  0  0  0  0  0  0  0  0  0  0  0
  147.9641  142.3372  154.5292 N   0  0  0  0  0  0  0  0  0  0  0  0
  146.9514  141.9565  153.5450 C   0  0  2  0  0  0  0  0  0  0  0  0
  145.7988  142.9766  153.5364 C   0  0  0  0  0  0  0  0  0  0  0  0
  144.9218  142.8697  154.7977 C   0  0  0  0  0  0  0  0  0  0  0  0
  144.4086  141.4888  154.9774 N   0  3  2  0  0  0  0  0  0  0  0  0
  143.4637  141.3820  156.1098 C   0  0  0  0  0  0  0  0  0  0  0  0
  145.5062  140.4939  155.0626 C   0  0  0  0  0  0  0  0  0  0  0  0
  146.3944  140.5419  153.8067 C   0  0  0  0  0  0  0  0  0  0  0  0
  150.4595  143.8957  158.3764 H   0  0  0  0  0  0  0  0  0  0  0  0
  151.6578  143.3377  159.5323 H   0  0  0  0  0  0  0  0  0  0  0  0
  150.0403  142.6457  159.5488 H   0  0  0  0  0  0  0  0  0  0  0  0
  150.9903  140.2278  154.1600 H   0  0  0  0  0  0  0  0  0  0  0  0
  151.4247  138.7932  155.0899 H   0  0  0  0  0  0  0  0  0  0  0  0
  152.6861  139.8728  154.4913 H   0  0  0  0  0  0  0  0  0  0  0  0
  149.5985  143.1620  155.9525 H   0  0  0  0  0  0  0  0  0  0  0  0
  147.9792  143.3040  154.8189 H   0  0  0  0  0  0  0  0  0  0  0  0
  147.4220  141.9717  152.5600 H   0  0  0  0  0  0  0  0  0  0  0  0
  146.1897  143.9898  153.4351 H   0  0  0  0  0  0  0  0  0  0  0  0
  145.1770  142.8040  152.6569 H   0  0  0  0  0  0  0  0  0  0  0  0
  145.4891  143.1673  155.6810 H   0  0  0  0  0  0  0  0  0  0  0  0
  144.0829  143.5621  154.7142 H   0  0  0  0  0  0  0  0  0  0  0  0
  143.9611  141.5980  157.0563 H   0  0  0  0  0  0  0  0  0  0  0  0
  143.0415  140.3781  156.1654 H   0  0  0  0  0  0  0  0  0  0  0  0
  142.6372  142.0832  155.9896 H   0  0  0  0  0  0  0  0  0  0  0  0
  146.1035  140.6808  155.9563 H   0  0  0  0  0  0  0  0  0  0  0  0
  145.0843  139.4938  155.1687 H   0  0  0  0  0  0  0  0  0  0  0  0
  145.8047  140.2280  152.9444 H   0  0  0  0  0  0  0  0  0  0  0  0
  147.2045  139.8169  153.8935 H   0  0  0  0  0  0  0  0  0  0  0  0
  143.8823  141.2663  154.1443 H   0  0  0  0  0  0  0  0  0  0  0  0
  1  2  1  0  0  0  0
  1 19  1  0  0  0  0
  1 20  1  0  0  0  0
  1 21  1  0  0  0  0
  2  7  1  0  0  0  0
  2  3  2  0  0  0  0
  3  4  1  0  0  0  0
  4  5  1  0  0  0  0
  5  6  1  0  0  0  0
  5  7  2  0  0  0  0
  6 22  1  0  0  0  0
  6 23  1  0  0  0  0
  6 24  1  0  0  0  0
  7  8  1  0  0  0  0
  8  9  1  0  0  0  0
  8 25  1  0  0  0  0
  9 10  2  0  0  0  0
  9 11  1  0  0  0  0
 11 12  1  0  0  0  0
 11 26  1  0  0  0  0
 12 18  1  0  0  0  0
 12 13  1  0  0  0  0
 12 27  1  0  0  0  0
 13 14  1  0  0  0  0
 13 28  1  0  0  0  0
 13 29  1  0  0  0  0
 14 15  1  0  0  0  0
 14 30  1  0  0  0  0
 14 31  1  0  0  0  0
 15 16  1  0  0  0  0
 15 17  1  0  0  0  0
 15 39  1  0  0  0  0
 16 32  1  0  0  0  0
 16 33  1  0  0  0  0
 16 34  1  0  0  0  0
 17 18  1  0  0  0  0
 17 35  1  0  0  0  0
 17 36  1  0  0  0  0
 18 37  1  0  0  0  0
 18 38  1  0  0  0  0
M  CHG  1  15   1
M  END
> <s_m_source_file>
AV-unprocessed.smi

> <i_m_source_file_index>
978

> <i_lp_mmshare_version>
43012

> <i_f3d_flags>
0

> <s_epik_input>
W0NIM11jMW5vYyhbQ0gzXSljMVtOSF1DKD1PKVtOSF1bQ0hdMltDSDJdW0NIMl1OKFtDSDNdKVtDSDJdW0NIMl0y

> <s_epik_cmdline>
J2VwaWtfcHl0aG9uJywgJy1waCcsICc3LjAnLCAnLXRuJywgJzgnLCAnLW1hJywgJzIwMCcsICctbWV0YWxfYmluZGluZycsICctaW1hZScsICc8aW5maWxlLm1hZT4nLCAnLW9tYWUnLCAnPG91dGZpbGUubWFlPic=

> <r_epik_Ionization_Penalty>
0.00369783

> <r_epik_Ionization_Penalty_Charging>
0.00366825

> <r_epik_Ionization_Penalty_Neutral>
2.95799e-05

> <r_epik_State_Penalty>
0.00261101

> <r_epik_Charging_Adjusted_Penalty>
0.00627926

> <i_epik_Tot_Q>
1

> <i_epik_Tot_abs_Q>
1

> <r_epik_Metal_State_Penalty>
-0

> <b_epik_Metal_Only>
0

> <s_lp_Force_Field>
OPLS_2005

> <r_lp_Energy>
17.545

> <b_lp_Chiralities_Consistent>
1

> <s_lp_Variant>
AV-unprocessed.smi:978-2

> <Gold.Version>
5.8.1

> <Gold.Id.Protein>
6NUR|6NUR_protein|mol2

> <Gold.PLP.Fitness>
43.3444

> <Gold.PLP.PLP>
-29.2210

> <Gold.PLP.part.hbond>
-4.0000

> <Gold.PLP.part.metal>
0.0000

> <Gold.PLP.part.buried>
-5.6377

> <Gold.PLP.part.nonpolar>
-20.2412

> <Gold.PLP.part.repulsive>
0.3749

> <Gold.PLP.ligand.clash>
0.0000

> <Gold.PLP.ligand.torsion>
0.5369

> <Gold.PLP.Chemscore.Hbond>
4.9760

> <Gold.PLP.Chemscore.CHOScore>
0.0000

> <Gold.PLP.Chemscore.Metal>
0.0000

> <Gold.Chemscore.Hbonds>
donor molecule, donor type, donor heavy atom, donor atom, acceptor molecule, acceptor atom, score
      L1  H     8    25       P1  8028  1.00
      L1  H    11    26       P1  8028  1.00
      L1  H    15    39       P1 10175  2.00
      P1  H  7997  8010       L1     4  0.91

> <Gold.PLP.Chemscore.Internal.Correction>
0.2691

> <Gold.Rescore>
     Score         DG    S(hbond)    S(metal)    S(lipo)     H(rot)  DE(clash)    DE(int)     intcor
     16.86     -21.61       3.40        0.00      62.57       1.00       0.42       4.33       ----

> <Gold.Chemscore.Fitness>
16.8596

> <Gold.Chemscore.DG>
-21.6115

> <Gold.Chemscore.ZeroCoef>
-5.4800

> <Gold.Chemscore.Hbond>
3.4043

> <Gold.Chemscore.Metal>
0.0000

> <Gold.Chemscore.Lipo>
62.5747

> <Gold.Chemscore.Internal_Hbond>
0.0000

> <Gold.Chemscore.DEClash>
0.4213

> <Gold.Chemscore.DEInternal>
4.3306

> <Gold.Chemscore.Rot>
1.0000

> <Gold.Chemscore.Internal.Correction>
   9.000000E+99

> <Gold.Chemscore.Hbonds>
donor molecule, donor type, donor heavy atom, donor atom, acceptor molecule, acceptor atom, score
      L1  H     8    25       P1  8028  0.99
      L1  H    11    26       P1  8028  0.78
      L1  H    15    39       P1 10175  0.44
      P1  H  7997  8010       L1     4  0.74

> <Gold.Chemscore.Hbond.Weighted>
-11.3702

> <Gold.Chemscore.Metal.Weighted>
-0.0000

> <Gold.Chemscore.Lipo.Weighted>
-7.3212

> <Gold.Chemscore.Internal_Hbond.Weighted>
0.0000

> <Gold.Chemscore.DEClash.Weighted>
0.4213

> <Gold.Chemscore.DEInternal.Weighted>
4.3306

> <Gold.Chemscore.Rot.Weighted>
2.5600

> <Gold.Chemscore.Internal.Correction.Weighted>
   9.000000E+99

> <Gold.Protein.RotatedTorsions>
[ 6907 6896 6895 6894 ] final -121.25 input  -60.11 | X-H torsion
[ 7974 7965 7964 7962 ] final  119.48 input  175.53 | X-H torsion
[ 8008 7997 7996 7995 ] final   52.58 input   59.86 | X-H torsion
[ 10167 10162 10161 10158 ] final -156.98 input  -65.29 | X-H torsion
[ 10718 10713 10712 10709 ] final   68.88 input   66.30 | X-H torsion
[ 10763 10752 10751 10750 ] final -130.45 input  -60.55 | X-H torsion
[ 11005 11000 10999 10996 ] final   65.03 input  -57.11 | X-H torsion

> <Gold.Protein.ActiveResidues>
 VAL166  LYS551  ARG553  GLY616  TRP617  ASP618  TYR619  PRO620  LYS621  CYS622 
 ASP623  PHE694  ASN695  SER759  ASP760  ASP761  ALA762  ILE779  LEU786  VAL792 
 PHE793  MET794  SER795  GLU796  ALA797  LYS798  CYS799  TRP800  GLU811  SER814 

> <Gold.Protein.RotatedAtoms>
  150.8467  133.7851  159.3040 H   0  0  0  0  0  0  0  0  0  0  0  0  # atno 6907 bound_to 6896
  151.5536  135.1065  159.9965 H   0  0  0  0  0  0  0  0  0  0  0  0  # atno 6908 bound_to 6896
  152.4519  133.7603  159.6799 H   0  0  0  0  0  0  0  0  0  0  0  0  # atno 6909 bound_to 6896
  145.1426  139.3258  143.4608 H   0  0  0  0  0  0  0  0  0  0  0  0  # atno 7974 bound_to 7965
  155.4541  140.3459  155.4304 H   0  0  0  0  0  0  0  0  0  0  0  0  # atno 8008 bound_to 7997
  156.1202  140.1485  156.9245 H   0  0  0  0  0  0  0  0  0  0  0  0  # atno 8009 bound_to 7997
  154.4817  140.0867  156.7373 H   0  0  0  0  0  0  0  0  0  0  0  0  # atno 8010 bound_to 7997
  139.6806  143.9587  152.2335 H   0  0  0  0  0  0  0  0  0  0  0  0  # atno 10167 bound_to 10162
  157.6314  130.9397  150.0437 H   0  0  0  0  0  0  0  0  0  0  0  0  # atno 10718 bound_to 10713
  154.8755  135.3862  154.4085 H   0  0  0  0  0  0  0  0  0  0  0  0  # atno 10763 bound_to 10752
  153.4802  135.7030  153.5948 H   0  0  0  0  0  0  0  0  0  0  0  0  # atno 10764 bound_to 10752
  153.4367  135.3866  155.2171 H   0  0  0  0  0  0  0  0  0  0  0  0  # atno 10765 bound_to 10752
  139.9920  134.6576  156.0074 H   0  0  0  0  0  0  0  0  0  0  0  0  # atno 11005 bound_to 11000
  146.3503  140.1469  142.8593 LP  0  0  0  0  0  0  0  0  0  0  0  0  # atno 17320 bound_to 7965
  145.0515  140.9021  143.4992 LP  0  0  0  0  0  0  0  0  0  0  0  0  # atno 17321 bound_to 7965
  139.9376  144.6702  150.8299 LP  0  0  0  0  0  0  0  0  0  0  0  0  # atno 17342 bound_to 10162
  140.7651  143.3266  151.2502 LP  0  0  0  0  0  0  0  0  0  0  0  0  # atno 17343 bound_to 10162
  156.1521  130.3642  149.9423 LP  0  0  0  0  0  0  0  0  0  0  0  0  # atno 17370 bound_to 10713
  156.7440  130.9090  151.3634 LP  0  0  0  0  0  0  0  0  0  0  0  0  # atno 17371 bound_to 10713
  141.1574  133.6541  156.4206 LP  0  0  0  0  0  0  0  0  0  0  0  0  # atno 17394 bound_to 11000
  140.4889  134.6594  157.5202 LP  0  0  0  0  0  0  0  0  0  0  0  0  # atno 17395 bound_to 11000

$$$$
