AV-unprocessed.smi:3176|AV-procd|sdf|12124|dock1
  -GOLD-   2272017563D 1   1.00000     0.00000
 Structure written by MMmdl.
 32 33  0  0  0  0  0  0  0  0  1 V2000
  151.3442  141.2065  157.3472 O   0  0  0  0  0  0  0  0  0  0  0  0
  150.6345  141.9823  156.7056 C   0  0  0  0  0  0  0  0  0  0  0  0
  150.3103  143.2108  157.1373 N   0  0  0  0  0  0  0  0  0  0  0  0
  150.7294  143.7881  158.4094 C   0  0  0  0  0  0  0  0  0  0  0  0
  152.2516  143.6846  158.6046 C   0  0  0  0  0  0  0  0  0  0  0  0
  152.6234  143.2676  160.0146 C   0  0  0  0  0  0  0  0  0  0  0  0
  153.3638  142.0881  160.2437 C   0  0  0  0  0  0  0  0  0  0  0  0
  153.6900  141.7476  161.5707 C   0  0  0  0  0  0  0  0  0  0  0  0
  153.2665  142.5959  162.6119 C   0  0  0  0  0  0  0  0  0  0  0  0
  152.5331  143.7521  162.2783 C   0  0  0  0  0  0  0  0  0  0  0  0
  152.2156  144.0882  161.0092 N   0  0  0  0  0  0  0  0  0  0  0  0
  150.0776  141.5701  155.3385 C   0  0  2  0  0  0  0  0  0  0  0  0
  148.5582  141.3189  155.3392 C   0  0  0  0  0  0  0  0  0  0  0  0
  148.4412  139.8169  155.1700 C   0  0  0  0  0  0  0  0  0  0  0  0
  149.6964  139.4958  154.3720 C   0  0  0  0  0  0  0  0  0  0  0  0
  150.6773  140.3293  154.9693 O   0  0  0  0  0  0  0  0  0  0  0  0
  149.7304  143.7852  156.5430 H   0  0  0  0  0  0  0  0  0  0  0  0
  150.4064  144.8288  158.4704 H   0  0  0  0  0  0  0  0  0  0  0  0
  150.2134  143.2555  159.2090 H   0  0  0  0  0  0  0  0  0  0  0  0
  152.6705  142.9649  157.8996 H   0  0  0  0  0  0  0  0  0  0  0  0
  152.7274  144.6408  158.3825 H   0  0  0  0  0  0  0  0  0  0  0  0
  153.6770  141.4592  159.4230 H   0  0  0  0  0  0  0  0  0  0  0  0
  154.2552  140.8527  161.7853 H   0  0  0  0  0  0  0  0  0  0  0  0
  153.4986  142.3663  163.6413 H   0  0  0  0  0  0  0  0  0  0  0  0
  152.1928  144.4253  163.0515 H   0  0  0  0  0  0  0  0  0  0  0  0
  150.3251  142.3221  154.5873 H   0  0  0  0  0  0  0  0  0  0  0  0
  148.0482  141.6700  156.2376 H   0  0  0  0  0  0  0  0  0  0  0  0
  148.1025  141.8264  154.4882 H   0  0  0  0  0  0  0  0  0  0  0  0
  148.4812  139.3253  156.1430 H   0  0  0  0  0  0  0  0  0  0  0  0
  147.5233  139.5118  154.6668 H   0  0  0  0  0  0  0  0  0  0  0  0
  149.9746  138.4431  154.4265 H   0  0  0  0  0  0  0  0  0  0  0  0
  149.5728  139.7688  153.3228 H   0  0  0  0  0  0  0  0  0  0  0  0
  1  2  2  0  0  0  0
  2  3  1  0  0  0  0
  2 12  1  0  0  0  0
  3  4  1  0  0  0  0
  3 17  1  0  0  0  0
  4  5  1  0  0  0  0
  4 18  1  0  0  0  0
  4 19  1  0  0  0  0
  5  6  1  0  0  0  0
  5 20  1  0  0  0  0
  5 21  1  0  0  0  0
  6 11  1  0  0  0  0
  6  7  2  0  0  0  0
  7  8  1  0  0  0  0
  7 22  1  0  0  0  0
  8  9  2  0  0  0  0
  8 23  1  0  0  0  0
  9 10  1  0  0  0  0
  9 24  1  0  0  0  0
 10 11  2  0  0  0  0
 10 25  1  0  0  0  0
 12 16  1  0  0  0  0
 12 13  1  0  0  0  0
 12 26  1  0  0  0  0
 13 14  1  0  0  0  0
 13 27  1  0  0  0  0
 13 28  1  0  0  0  0
 14 15  1  0  0  0  0
 14 29  1  0  0  0  0
 14 30  1  0  0  0  0
 15 16  1  0  0  0  0
 15 31  1  0  0  0  0
 15 32  1  0  0  0  0
M  END
> <s_m_source_file>
AV-unprocessed.smi

> <i_m_source_file_index>
3176

> <i_lp_mmshare_version>
43012

> <i_f3d_flags>
0

> <s_epik_input>
TzFbQ0gyXVtDSDJdW0NIMl1bQ0BIXTFDKD1PKVtOSF1bQ0gyXVtDSDJdYzJbY0hdW2NIXVtjSF1bY0hdbjI=

> <s_epik_cmdline>
J2VwaWtfcHl0aG9uJywgJy1waCcsICc3LjAnLCAnLXRuJywgJzgnLCAnLW1hJywgJzIwMCcsICctbWV0YWxfYmluZGluZycsICctaW1hZScsICc8aW5maWxlLm1hZT4nLCAnLW9tYWUnLCAnPG91dGZpbGUubWFlPic=

> <r_epik_Ionization_Penalty>
0.0282744

> <r_epik_Ionization_Penalty_Charging>
0

> <r_epik_Ionization_Penalty_Neutral>
0.0282744

> <r_epik_State_Penalty>
0.0231919

> <r_epik_Charging_Adjusted_Penalty>
0.0231919

> <i_epik_Tot_Q>
0

> <i_epik_Tot_abs_Q>
0

> <r_epik_Metal_State_Penalty>
0.02213

> <b_epik_Metal_Only>
0

> <s_lp_Force_Field>
OPLS_2005

> <r_lp_Energy>
16.3652

> <b_lp_Chiralities_Consistent>
1

> <s_lp_Variant>
AV-unprocessed.smi:3176-1

> <Gold.Version>
5.8.1

> <Gold.Id.Protein>
6NUR|6NUR_protein|mol2

> <Gold.PLP.Fitness>
45.3261

> <Gold.PLP.PLP>
-40.3165

> <Gold.PLP.part.hbond>
-2.0000

> <Gold.PLP.part.metal>
0.0000

> <Gold.PLP.part.buried>
-4.7275

> <Gold.PLP.part.nonpolar>
-33.6277

> <Gold.PLP.part.repulsive>
0.2007

> <Gold.PLP.ligand.clash>
0.0000

> <Gold.PLP.ligand.torsion>
0.5058

> <Gold.PLP.Chemscore.Hbond>
2.0000

> <Gold.PLP.Chemscore.CHOScore>
0.0000

> <Gold.PLP.Chemscore.Metal>
0.0000

> <Gold.Chemscore.Hbonds>
donor molecule, donor type, donor heavy atom, donor atom, acceptor molecule, acceptor atom, score
      L1  H     3    17       P1  8028  1.00
      P1  H  7989  7998       L1    16  0.95

> <Gold.PLP.Chemscore.Internal.Correction>
0.0211

> <Gold.Rescore>
     Score         DG    S(hbond)    S(metal)    S(lipo)     H(rot)  DE(clash)    DE(int)     intcor
     15.80     -17.52       1.09        0.00     104.95       1.52       0.05       1.67       ----

> <Gold.Chemscore.Fitness>
15.7981

> <Gold.Chemscore.DG>
-17.5228

> <Gold.Chemscore.ZeroCoef>
-5.4800

> <Gold.Chemscore.Hbond>
1.0912

> <Gold.Chemscore.Metal>
0.0000

> <Gold.Chemscore.Lipo>
104.9484

> <Gold.Chemscore.Internal_Hbond>
0.0000

> <Gold.Chemscore.DEClash>
0.0529

> <Gold.Chemscore.DEInternal>
1.6717

> <Gold.Chemscore.Rot>
1.5159

> <Gold.Chemscore.Internal.Correction>
   9.000000E+99

> <Gold.Chemscore.Hbonds>
donor molecule, donor type, donor heavy atom, donor atom, acceptor molecule, acceptor atom, score
      L1  H     3    17       P1  8028  0.93
      P1  H  7989  7998       L1    16  0.06

> <Gold.Chemscore.Hbond.Weighted>
-3.6445

> <Gold.Chemscore.Metal.Weighted>
-0.0000

> <Gold.Chemscore.Lipo.Weighted>
-12.2790

> <Gold.Chemscore.Internal_Hbond.Weighted>
0.0000

> <Gold.Chemscore.DEClash.Weighted>
0.0529

> <Gold.Chemscore.DEInternal.Weighted>
1.6717

> <Gold.Chemscore.Rot.Weighted>
3.8807

> <Gold.Chemscore.Internal.Correction.Weighted>
   9.000000E+99

> <Gold.Protein.RotatedTorsions>
[ 6907 6896 6895 6894 ] final  103.35 input  -60.11 | X-H torsion
[ 7974 7965 7964 7962 ] final  -41.58 input  175.53 | X-H torsion
[ 8008 7997 7996 7995 ] final   84.94 input   59.86 | X-H torsion
[ 10167 10162 10161 10158 ] final  114.08 input  -65.29 | X-H torsion
[ 10718 10713 10712 10709 ] final   71.13 input   66.30 | X-H torsion
[ 10763 10752 10751 10750 ] final  -27.04 input  -60.55 | X-H torsion
[ 11005 11000 10999 10996 ] final -120.51 input  -57.11 | X-H torsion

> <Gold.Protein.ActiveResidues>
 VAL166  LYS551  ARG553  GLY616  TRP617  ASP618  TYR619  PRO620  LYS621  CYS622 
 ASP623  PHE694  ASN695  SER759  ASP760  ASP761  ALA762  ILE779  LEU786  VAL792 
 PHE793  MET794  SER795  GLU796  ALA797  LYS798  CYS799  TRP800  GLU811  SER814 

> <Gold.Protein.RotatedAtoms>
  152.5298  133.9839  159.7818 H   0  0  0  0  0  0  0  0  0  0  0  0  # atno 6907 bound_to 6896
  151.0087  133.5978  159.2692 H   0  0  0  0  0  0  0  0  0  0  0  0  # atno 6908 bound_to 6896
  151.3060  135.0788  159.9309 H   0  0  0  0  0  0  0  0  0  0  0  0  # atno 6909 bound_to 6896
  146.0197  140.6864  142.9184 H   0  0  0  0  0  0  0  0  0  0  0  0  # atno 7974 bound_to 7965
  155.9436  140.3406  155.6348 H   0  0  0  0  0  0  0  0  0  0  0  0  # atno 8008 bound_to 7997
  155.7008  140.0760  157.2429 H   0  0  0  0  0  0  0  0  0  0  0  0  # atno 8009 bound_to 7997
  154.4107  140.1640  156.2177 H   0  0  0  0  0  0  0  0  0  0  0  0  # atno 8010 bound_to 7997
  139.6415  144.7124  151.2228 H   0  0  0  0  0  0  0  0  0  0  0  0  # atno 10167 bound_to 10162
  157.6436  130.9513  150.0747 H   0  0  0  0  0  0  0  0  0  0  0  0  # atno 10718 bound_to 10713
  153.7257  135.6942  153.5001 H   0  0  0  0  0  0  0  0  0  0  0  0  # atno 10763 bound_to 10752
  153.2171  135.4382  155.0446 H   0  0  0  0  0  0  0  0  0  0  0  0  # atno 10764 bound_to 10752
  154.8269  135.3451  154.6789 H   0  0  0  0  0  0  0  0  0  0  0  0  # atno 10765 bound_to 10752
  141.0138  134.0225  157.3377 H   0  0  0  0  0  0  0  0  0  0  0  0  # atno 11005 bound_to 11000
  144.6985  140.3544  143.7175 LP  0  0  0  0  0  0  0  0  0  0  0  0  # atno 17320 bound_to 7965
  145.7212  139.1710  143.2483 LP  0  0  0  0  0  0  0  0  0  0  0  0  # atno 17321 bound_to 7965
  140.7493  143.6304  150.8428 LP  0  0  0  0  0  0  0  0  0  0  0  0  # atno 17342 bound_to 10162
  139.9942  143.5814  152.2899 LP  0  0  0  0  0  0  0  0  0  0  0  0  # atno 17343 bound_to 10162
  156.1741  130.3647  149.9125 LP  0  0  0  0  0  0  0  0  0  0  0  0  # atno 17370 bound_to 10713
  156.7093  130.8964  151.3608 LP  0  0  0  0  0  0  0  0  0  0  0  0  # atno 17371 bound_to 10713
  139.9105  135.0189  156.7672 LP  0  0  0  0  0  0  0  0  0  0  0  0  # atno 17394 bound_to 11000
  140.6688  133.9578  155.7845 LP  0  0  0  0  0  0  0  0  0  0  0  0  # atno 17395 bound_to 11000

$$$$
