AV-unprocessed.smi:2482|AV-procd|sdf|9784|dock3
  -GOLD-   2272013423D 1   1.00000     0.00000
 Structure written by MMmdl.
 34 35  0  0  0  0  0  0  0  0  3 V2000
  152.8280  142.3309  160.5383 C   0  0  0  0  0  0  0  0  0  0  0  0
  152.1524  142.1544  159.1912 C   0  0  0  0  0  0  0  0  0  0  0  0
  151.8310  143.2969  158.5469 N   0  0  0  0  0  0  0  0  0  0  0  0
  151.2327  143.1923  157.3440 C   0  0  0  0  0  0  0  0  0  0  0  0
  150.9290  141.9593  156.7367 C   0  0  0  0  0  0  0  0  0  0  0  0
  151.2517  140.7558  157.4023 C   0  0  0  0  0  0  0  0  0  0  0  0
  150.9737  139.5710  156.8335 N   0  5  0  0  0  0  0  0  0  0  0  0
  151.1192  139.4132  155.4951 C   0  0  0  0  0  0  0  0  0  0  0  0
  151.9722  139.9023  154.7517 O   0  0  0  0  0  0  0  0  0  0  0  0
  150.0316  138.4929  154.9205 C   0  0  1  0  0  0  0  0  0  0  0  0
  150.3116  136.9942  155.1742 C   0  0  0  0  0  0  0  0  0  0  0  0
  149.1987  136.1706  154.6500 N   0  3  1  0  0  0  0  0  0  0  0  0
  149.4352  134.7210  154.8145 C   0  0  0  0  0  0  0  0  0  0  0  0
  147.9053  136.6082  155.2224 C   0  0  0  0  0  0  0  0  0  0  0  0
  147.6983  138.1128  154.9822 C   0  0  0  0  0  0  0  0  0  0  0  0
  148.7906  138.8387  155.5307 O   0  0  0  0  0  0  0  0  0  0  0  0
  151.8892  140.8667  158.6655 C   0  0  0  0  0  0  0  0  0  0  0  0
  152.3427  139.4516  159.5596 Cl  0  0  0  0  0  0  0  0  0  0  0  0
  152.2376  141.8578  161.3233 H   0  0  0  0  0  0  0  0  0  0  0  0
  152.9449  143.3848  160.7939 H   0  0  0  0  0  0  0  0  0  0  0  0
  153.8181  141.8746  160.5279 H   0  0  0  0  0  0  0  0  0  0  0  0
  150.9882  144.1201  156.8485 H   0  0  0  0  0  0  0  0  0  0  0  0
  150.4488  141.9403  155.7692 H   0  0  0  0  0  0  0  0  0  0  0  0
  149.9634  138.6612  153.8429 H   0  0  0  0  0  0  0  0  0  0  0  0
  151.2422  136.6998  154.6862 H   0  0  0  0  0  0  0  0  0  0  0  0
  150.4296  136.7972  156.2414 H   0  0  0  0  0  0  0  0  0  0  0  0
  149.5032  134.4524  155.8695 H   0  0  0  0  0  0  0  0  0  0  0  0
  150.3642  134.4257  154.3254 H   0  0  0  0  0  0  0  0  0  0  0  0
  148.6246  134.1460  154.3659 H   0  0  0  0  0  0  0  0  0  0  0  0
  147.0903  136.0434  154.7682 H   0  0  0  0  0  0  0  0  0  0  0  0
  147.8868  136.3958  156.2926 H   0  0  0  0  0  0  0  0  0  0  0  0
  147.6005  138.3288  153.9171 H   0  0  0  0  0  0  0  0  0  0  0  0
  146.7772  138.4464  155.4604 H   0  0  0  0  0  0  0  0  0  0  0  0
  149.1523  136.3485  153.6567 H   0  0  0  0  0  0  0  0  0  0  0  0
  1  2  1  0  0  0  0
  1 19  1  0  0  0  0
  1 20  1  0  0  0  0
  1 21  1  0  0  0  0
  2 17  1  0  0  0  0
  2  3  2  0  0  0  0
  3  4  1  0  0  0  0
  4  5  2  0  0  0  0
  4 22  1  0  0  0  0
  5  6  1  0  0  0  0
  5 23  1  0  0  0  0
  6  7  1  0  0  0  0
  6 17  2  0  0  0  0
  7  8  1  0  0  0  0
  8  9  2  0  0  0  0
  8 10  1  0  0  0  0
 10 16  1  0  0  0  0
 10 11  1  0  0  0  0
 10 24  1  0  0  0  0
 11 12  1  0  0  0  0
 11 25  1  0  0  0  0
 11 26  1  0  0  0  0
 12 13  1  0  0  0  0
 12 14  1  0  0  0  0
 12 34  1  0  0  0  0
 13 27  1  0  0  0  0
 13 28  1  0  0  0  0
 13 29  1  0  0  0  0
 14 15  1  0  0  0  0
 14 30  1  0  0  0  0
 14 31  1  0  0  0  0
 15 16  1  0  0  0  0
 15 32  1  0  0  0  0
 15 33  1  0  0  0  0
 17 18  1  0  0  0  0
M  CHG  1   7  -1
M  CHG  1  12   1
M  END
> <s_m_source_file>
AV-unprocessed.smi

> <i_m_source_file_index>
2482

> <i_lp_mmshare_version>
43012

> <i_f3d_flags>
0

> <s_epik_input>
W0NIM11jMW5bY0hdW2NIXWMoYzFDbClbTkhdQyg9TylbQ0BASF0yW0NIMl1OKFtDSDNdKVtDSDJdW0NIMl1PMg==

> <s_epik_cmdline>
J2VwaWtfcHl0aG9uJywgJy1waCcsICc3LjAnLCAnLXRuJywgJzgnLCAnLW1hJywgJzIwMCcsICctbWV0YWxfYmluZGluZycsICctaW1hZScsICc8aW5maWxlLm1hZT4nLCAnLW9tYWUnLCAnPG91dGZpbGUubWFlPic=

> <r_epik_Ionization_Penalty>
6.9249

> <r_epik_Ionization_Penalty_Charging>
6.74596

> <r_epik_Ionization_Penalty_Neutral>
0.178941

> <r_epik_State_Penalty>
6.78185

> <r_epik_Charging_Adjusted_Penalty>
13.5278

> <i_epik_Tot_Q>
0

> <i_epik_Tot_abs_Q>
2

> <r_epik_Metal_State_Penalty>
2.70608

> <b_epik_Metal_Only>
1

> <s_lp_Force_Field>
OPLS_2005

> <r_lp_Energy>
14.2833

> <b_lp_Chiralities_Consistent>
1

> <s_lp_Variant>
AV-unprocessed.smi:2482-10

> <Gold.Version>
5.8.1

> <Gold.Id.Protein>
6NUR|6NUR_protein|mol2

> <Gold.PLP.Fitness>
40.5949

> <Gold.PLP.PLP>
-30.7824

> <Gold.PLP.part.hbond>
-1.7425

> <Gold.PLP.part.metal>
0.0000

> <Gold.PLP.part.buried>
-4.7499

> <Gold.PLP.part.nonpolar>
-24.1735

> <Gold.PLP.part.repulsive>
0.1580

> <Gold.PLP.ligand.clash>
0.0000

> <Gold.PLP.ligand.torsion>
1.0437

> <Gold.PLP.Chemscore.Hbond>
2.8160

> <Gold.PLP.Chemscore.CHOScore>
1.0000

> <Gold.PLP.Chemscore.Metal>
0.0000

> <Gold.Chemscore.Hbonds>
donor molecule, donor type, donor heavy atom, donor atom, acceptor molecule, acceptor atom, score
      L1  H    12    34       P1  7948  2.00
      P1  H  7989  7998       L1     9  0.88
      L1  C     4    22       P1  8028  0.99

> <Gold.PLP.Chemscore.Internal.Correction>
0.4521

> <Gold.Rescore>
     Score         DG    S(hbond)    S(metal)    S(lipo)     H(rot)  DE(clash)    DE(int)     intcor
     16.55     -17.91       1.82        0.00      76.15       1.00       0.06       1.30       ----

> <Gold.Chemscore.Fitness>
16.5549

> <Gold.Chemscore.DG>
-17.9142

> <Gold.Chemscore.ZeroCoef>
-5.4800

> <Gold.Chemscore.Hbond>
1.8216

> <Gold.Chemscore.Metal>
0.0000

> <Gold.Chemscore.Lipo>
76.1549

> <Gold.Chemscore.Internal_Hbond>
0.0000

> <Gold.Chemscore.DEClash>
0.0562

> <Gold.Chemscore.DEInternal>
1.3031

> <Gold.Chemscore.Rot>
1.0000

> <Gold.Chemscore.Internal.Correction>
   9.000000E+99

> <Gold.Chemscore.Hbonds>
donor molecule, donor type, donor heavy atom, donor atom, acceptor molecule, acceptor atom, score
      L1  H    12    34       P1  7948  0.96
      P1  H  7989  7998       L1     9  0.85

> <Gold.Chemscore.Hbond.Weighted>
-6.0840

> <Gold.Chemscore.Metal.Weighted>
-0.0000

> <Gold.Chemscore.Lipo.Weighted>
-8.9101

> <Gold.Chemscore.Internal_Hbond.Weighted>
0.0000

> <Gold.Chemscore.DEClash.Weighted>
0.0562

> <Gold.Chemscore.DEInternal.Weighted>
1.3031

> <Gold.Chemscore.Rot.Weighted>
2.5600

> <Gold.Chemscore.Internal.Correction.Weighted>
   9.000000E+99

> <Gold.Protein.RotatedTorsions>
[ 6907 6896 6895 6894 ] final  158.48 input  -60.11 | X-H torsion
[ 7974 7965 7964 7962 ] final  178.60 input  175.53 | X-H torsion
[ 8008 7997 7996 7995 ] final   94.58 input   59.86 | X-H torsion
[ 10167 10162 10161 10158 ] final    9.96 input  -65.29 | X-H torsion
[ 10718 10713 10712 10709 ] final -105.70 input   66.30 | X-H torsion
[ 10763 10752 10751 10750 ] final   75.06 input  -60.55 | X-H torsion
[ 11005 11000 10999 10996 ] final -153.39 input  -57.11 | X-H torsion

> <Gold.Protein.ActiveResidues>
 VAL166  LYS551  ARG553  GLY616  TRP617  ASP618  TYR619  PRO620  LYS621  CYS622 
 ASP623  PHE694  ASN695  SER759  ASP760  ASP761  ALA762  ILE779  LEU786  VAL792 
 PHE793  MET794  SER795  GLU796  ALA797  LYS798  CYS799  TRP800  GLU811  SER814 

> <Gold.Protein.RotatedAtoms>
  151.9998  133.3821  159.4177 H   0  0  0  0  0  0  0  0  0  0  0  0  # atno 6907 bound_to 6896
  150.6911  134.3846  159.5058 H   0  0  0  0  0  0  0  0  0  0  0  0  # atno 6908 bound_to 6896
  152.1592  134.8926  160.0593 H   0  0  0  0  0  0  0  0  0  0  0  0  # atno 6909 bound_to 6896
  144.7154  140.0421  143.6437 H   0  0  0  0  0  0  0  0  0  0  0  0  # atno 7974 bound_to 7965
  156.0595  140.3298  155.7445 H   0  0  0  0  0  0  0  0  0  0  0  0  # atno 8008 bound_to 7997
  155.5477  140.0607  157.2874 H   0  0  0  0  0  0  0  0  0  0  0  0  # atno 8009 bound_to 7997
  154.4474  140.1899  156.0643 H   0  0  0  0  0  0  0  0  0  0  0  0  # atno 8010 bound_to 7997
  140.6223  143.8177  150.7190 H   0  0  0  0  0  0  0  0  0  0  0  0  # atno 10167 bound_to 10162
  156.0357  130.5576  150.7576 H   0  0  0  0  0  0  0  0  0  0  0  0  # atno 10718 bound_to 10713
  153.0629  135.5003  154.8134 H   0  0  0  0  0  0  0  0  0  0  0  0  # atno 10763 bound_to 10752
  154.6909  135.2984  154.9482 H   0  0  0  0  0  0  0  0  0  0  0  0  # atno 10764 bound_to 10752
  154.0237  135.6738  153.4827 H   0  0  0  0  0  0  0  0  0  0  0  0  # atno 10765 bound_to 10752
  140.7087  134.3857  157.5200 H   0  0  0  0  0  0  0  0  0  0  0  0  # atno 11005 bound_to 11000
  146.0014  139.3094  143.0925 LP  0  0  0  0  0  0  0  0  0  0  0  0  # atno 17320 bound_to 7965
  145.8788  140.9375  143.0612 LP  0  0  0  0  0  0  0  0  0  0  0  0  # atno 17321 bound_to 7965
  140.1770  143.4146  152.1960 LP  0  0  0  0  0  0  0  0  0  0  0  0  # atno 17342 bound_to 10162
  139.5449  144.7290  151.4614 LP  0  0  0  0  0  0  0  0  0  0  0  0  # atno 17343 bound_to 10162
  157.5104  131.0925  151.0205 LP  0  0  0  0  0  0  0  0  0  0  0  0  # atno 17370 bound_to 10713
  157.0562  130.5807  149.5378 LP  0  0  0  0  0  0  0  0  0  0  0  0  # atno 17371 bound_to 10713
  139.8877  134.8875  156.2512 LP  0  0  0  0  0  0  0  0  0  0  0  0  # atno 17394 bound_to 11000
  141.0103  133.7099  156.1101 LP  0  0  0  0  0  0  0  0  0  0  0  0  # atno 17395 bound_to 11000

$$$$
