AV-unprocessed.smi:1830|AV-procd|sdf|7448|dock1
  -GOLD-   22720 9133D 1   1.00000     0.00000
 Structure written by MMmdl.
 54 57  0  0  0  0  0  0  0  0  3 V2000
  151.7373  135.8702  155.6893 O   0  0  0  0  0  0  0  0  0  0  0  0
  150.9177  135.9975  154.7806 C   0  0  0  0  0  0  0  0  0  0  0  0
  150.7670  137.1279  154.0793 N   0  0  0  0  0  0  0  0  0  0  0  0
  151.5427  138.3421  154.3048 C   0  0  0  0  0  0  0  0  0  0  0  0
  151.2211  138.9880  155.6634 C   0  0  2  0  0  0  0  0  0  0  0  0
  149.7885  138.7106  156.1557 C   0  0  0  0  0  0  0  0  0  0  0  0
  149.5303  139.3658  157.4628 N   0  3  2  0  0  0  0  0  0  0  0  0
  148.0929  139.3708  157.8133 C   0  0  0  0  0  0  0  0  0  0  0  0
  147.5407  140.7439  157.3874 C   0  0  0  0  0  0  0  0  0  0  0  0
  148.7545  141.5511  156.9117 C   0  0  0  0  0  0  0  0  0  0  0  0
  149.9447  140.7859  157.4907 C   0  0  2  0  0  0  0  0  0  0  0  0
  151.3071  141.0404  156.8135 C   0  0  0  0  0  0  0  0  0  0  0  0
  151.3857  140.3958  155.5497 O   0  0  0  0  0  0  0  0  0  0  0  0
  150.0780  135.0411  154.3502 N   0  0  0  0  0  0  0  0  0  0  0  0
  149.9533  133.6982  154.8101 C   0  0  0  0  0  0  0  0  0  0  0  0
  150.8690  133.1060  155.7181 C   0  0  0  0  0  0  0  0  0  0  0  0
  150.6738  131.7758  156.1400 C   0  0  0  0  0  0  0  0  0  0  0  0
  149.5629  131.0599  155.6578 C   0  0  0  0  0  0  0  0  0  0  0  0
  148.7003  131.6567  154.8089 N   0  3  0  0  0  0  0  0  0  0  0  0
  148.8427  132.9323  154.3722 C   0  0  0  0  0  0  0  0  0  0  0  0
  147.8807  133.4621  153.4946 N   0  0  0  0  0  0  0  0  0  0  0  0
  147.8035  132.8301  152.1881 C   0  0  0  0  0  0  0  0  0  0  0  0
  146.4762  133.3003  151.5887 C   0  0  0  0  0  0  0  0  0  0  0  0
  145.6220  133.7088  152.7953 C   0  0  0  0  0  0  0  0  0  0  0  0
  146.5229  133.4837  154.0127 C   0  0  0  0  0  0  0  0  0  0  0  0
  150.0823  137.1504  153.3376 H   0  0  0  0  0  0  0  0  0  0  0  0
  152.6065  138.1039  154.2575 H   0  0  0  0  0  0  0  0  0  0  0  0
  151.3408  139.0512  153.5006 H   0  0  0  0  0  0  0  0  0  0  0  0
  151.9364  138.6007  156.3914 H   0  0  0  0  0  0  0  0  0  0  0  0
  149.0671  139.0733  155.4219 H   0  0  0  0  0  0  0  0  0  0  0  0
  149.6232  137.6373  156.2558 H   0  0  0  0  0  0  0  0  0  0  0  0
  147.5477  138.5408  157.3611 H   0  0  0  0  0  0  0  0  0  0  0  0
  148.0056  139.2622  158.8950 H   0  0  0  0  0  0  0  0  0  0  0  0
  146.8007  140.6506  156.5919 H   0  0  0  0  0  0  0  0  0  0  0  0
  147.0549  141.2337  158.2323 H   0  0  0  0  0  0  0  0  0  0  0  0
  148.7971  141.5483  155.8215 H   0  0  0  0  0  0  0  0  0  0  0  0
  148.7240  142.5904  157.2406 H   0  0  0  0  0  0  0  0  0  0  0  0
  150.0325  141.0714  158.5405 H   0  0  0  0  0  0  0  0  0  0  0  0
  151.4696  142.1103  156.6813 H   0  0  0  0  0  0  0  0  0  0  0  0
  152.1169  140.6813  157.4506 H   0  0  0  0  0  0  0  0  0  0  0  0
  149.5212  135.2734  153.5407 H   0  0  0  0  0  0  0  0  0  0  0  0
  151.7128  133.6502  156.1125 H   0  0  0  0  0  0  0  0  0  0  0  0
  151.3658  131.3132  156.8287 H   0  0  0  0  0  0  0  0  0  0  0  0
  149.3354  130.0390  155.9288 H   0  0  0  0  0  0  0  0  0  0  0  0
  148.6498  133.1159  151.5625 H   0  0  0  0  0  0  0  0  0  0  0  0
  147.8067  131.7434  152.2838 H   0  0  0  0  0  0  0  0  0  0  0  0
  146.6380  134.1626  150.9405 H   0  0  0  0  0  0  0  0  0  0  0  0
  146.0054  132.5195  150.9906 H   0  0  0  0  0  0  0  0  0  0  0  0
  145.3437  134.7603  152.7153 H   0  0  0  0  0  0  0  0  0  0  0  0
  144.7026  133.1270  152.8673 H   0  0  0  0  0  0  0  0  0  0  0  0
  146.2794  132.5324  154.4880 H   0  0  0  0  0  0  0  0  0  0  0  0
  146.3991  134.2727  154.7553 H   0  0  0  0  0  0  0  0  0  0  0  0
  150.0496  138.8581  158.1653 H   0  0  0  0  0  0  0  0  0  0  0  0
  147.8984  131.1188  154.4800 H   0  0  0  0  0  0  0  0  0  0  0  0
  1  2  2  0  0  0  0
  2  3  1  0  0  0  0
  2 14  1  0  0  0  0
  3  4  1  0  0  0  0
  3 26  1  0  0  0  0
  4  5  1  0  0  0  0
  4 27  1  0  0  0  0
  4 28  1  0  0  0  0
  5 13  1  0  0  0  0
  5  6  1  0  0  0  0
  5 29  1  0  0  0  0
  6  7  1  0  0  0  0
  6 30  1  0  0  0  0
  6 31  1  0  0  0  0
  7 11  1  0  0  0  0
  7  8  1  0  0  0  0
  7 53  1  0  0  0  0
  8  9  1  0  0  0  0
  8 32  1  0  0  0  0
  8 33  1  0  0  0  0
  9 10  1  0  0  0  0
  9 34  1  0  0  0  0
  9 35  1  0  0  0  0
 10 11  1  0  0  0  0
 10 36  1  0  0  0  0
 10 37  1  0  0  0  0
 11 12  1  0  0  0  0
 11 38  1  0  0  0  0
 12 13  1  0  0  0  0
 12 39  1  0  0  0  0
 12 40  1  0  0  0  0
 14 15  1  0  0  0  0
 14 41  1  0  0  0  0
 15 20  1  0  0  0  0
 15 16  2  0  0  0  0
 16 17  1  0  0  0  0
 16 42  1  0  0  0  0
 17 18  2  0  0  0  0
 17 43  1  0  0  0  0
 18 19  1  0  0  0  0
 18 44  1  0  0  0  0
 19 20  2  0  0  0  0
 19 54  1  0  0  0  0
 20 21  1  0  0  0  0
 21 25  1  0  0  0  0
 21 22  1  0  0  0  0
 22 23  1  0  0  0  0
 22 45  1  0  0  0  0
 22 46  1  0  0  0  0
 23 24  1  0  0  0  0
 23 47  1  0  0  0  0
 23 48  1  0  0  0  0
 24 25  1  0  0  0  0
 24 49  1  0  0  0  0
 24 50  1  0  0  0  0
 25 51  1  0  0  0  0
 25 52  1  0  0  0  0
M  CHG  1   7   1
M  CHG  1  19   1
M  END
> <s_m_source_file>
AV-unprocessed.smi

> <i_m_source_file_index>
1830

> <i_lp_mmshare_version>
43012

> <i_f3d_flags>
0

> <s_epik_input>
W0NIMl0xW0NIMl1bQ0gyXVtDQEhdKE4xMilbQ0gyXU9bQ0BASF0oW0NIMl0yKVtDSDJdW05IXUMoPU8pW05IXWMzW2NIXVtjSF1bY0hdbmMzTjRbQ0gyXVtDSDJdW0NIMl1bQ0gyXTQ=

> <s_epik_cmdline>
J2VwaWtfcHl0aG9uJywgJy1waCcsICc3LjAnLCAnLXRuJywgJzgnLCAnLW1hJywgJzIwMCcsICctbWV0YWxfYmluZGluZycsICctaW1hZScsICc8aW5maWxlLm1hZT4nLCAnLW9tYWUnLCAnPG91dGZpbGUubWFlPic=

> <r_lp_tautomer_probability>
0.999994

> <r_epik_Ionization_Penalty>
1.29113

> <r_epik_Ionization_Penalty_Charging>
1.29111

> <r_epik_Ionization_Penalty_Neutral>
1.88144e-05

> <r_epik_State_Penalty>
1.32676

> <r_epik_Charging_Adjusted_Penalty>
2.61787

> <i_epik_Tot_Q>
2

> <i_epik_Tot_abs_Q>
2

> <r_epik_Metal_State_Penalty>
1.40425

> <b_epik_Metal_Only>
0

> <s_lp_Force_Field>
OPLS_2005

> <r_lp_Energy>
77.5794

> <b_lp_Chiralities_Consistent>
1

> <s_lp_Variant>
AV-unprocessed.smi:1830-17

> <Gold.Version>
5.8.1

> <Gold.Id.Protein>
6NUR|6NUR_protein|mol2

> <Gold.PLP.Fitness>
42.9726

> <Gold.PLP.PLP>
-32.3197

> <Gold.PLP.part.hbond>
-5.2970

> <Gold.PLP.part.metal>
0.0000

> <Gold.PLP.part.buried>
-3.3511

> <Gold.PLP.part.nonpolar>
-24.1946

> <Gold.PLP.part.repulsive>
0.4128

> <Gold.PLP.ligand.clash>
0.0000

> <Gold.PLP.ligand.torsion>
0.4706

> <Gold.PLP.Chemscore.Hbond>
3.8540

> <Gold.PLP.Chemscore.CHOScore>
0.0000

> <Gold.PLP.Chemscore.Metal>
0.0000

> <Gold.Chemscore.Hbonds>
donor molecule, donor type, donor heavy atom, donor atom, acceptor molecule, acceptor atom, score
      L1  H     3    26       P1  7948  0.90
      L1  H    14    41       P1  7948  0.70
      P1  H  7989  7998       L1    13  0.71
      P1  H 10752 10763       L1     1  0.85

> <Gold.PLP.Chemscore.Internal.Correction>
0.0322

> <Gold.Rescore>
     Score         DG    S(hbond)    S(metal)    S(lipo)     H(rot)  DE(clash)    DE(int)     intcor
     17.57     -19.62       2.86        0.00      70.36       1.43       0.38       1.68       ----

> <Gold.Chemscore.Fitness>
17.5680

> <Gold.Chemscore.DG>
-19.6206

> <Gold.Chemscore.ZeroCoef>
-5.4800

> <Gold.Chemscore.Hbond>
2.8633

> <Gold.Chemscore.Metal>
0.0000

> <Gold.Chemscore.Lipo>
70.3599

> <Gold.Chemscore.Internal_Hbond>
0.0000

> <Gold.Chemscore.DEClash>
0.3771

> <Gold.Chemscore.DEInternal>
1.6754

> <Gold.Chemscore.Rot>
1.4278

> <Gold.Chemscore.Internal.Correction>
   9.000000E+99

> <Gold.Chemscore.Hbonds>
donor molecule, donor type, donor heavy atom, donor atom, acceptor molecule, acceptor atom, score
      L1  H     3    26       P1  7948  0.16
      L1  H    14    41       P1  7948  0.07
      P1  H  7989  7998       L1    13  0.48
      P1  H 10752 10763       L1     1  0.14

> <Gold.Chemscore.Hbond.Weighted>
-9.5636

> <Gold.Chemscore.Metal.Weighted>
-0.0000

> <Gold.Chemscore.Lipo.Weighted>
-8.2321

> <Gold.Chemscore.Internal_Hbond.Weighted>
0.0000

> <Gold.Chemscore.DEClash.Weighted>
0.3771

> <Gold.Chemscore.DEInternal.Weighted>
1.6754

> <Gold.Chemscore.Rot.Weighted>
3.6551

> <Gold.Chemscore.Internal.Correction.Weighted>
   9.000000E+99

> <Gold.Protein.RotatedTorsions>
[ 6907 6896 6895 6894 ] final  140.95 input  -60.11 | X-H torsion
[ 7974 7965 7964 7962 ] final  -15.65 input  175.53 | X-H torsion
[ 8008 7997 7996 7995 ] final  -80.59 input   59.86 | X-H torsion
[ 10167 10162 10161 10158 ] final  146.18 input  -65.29 | X-H torsion
[ 10718 10713 10712 10709 ] final   51.04 input   66.30 | X-H torsion
[ 10763 10752 10751 10750 ] final   71.17 input  -60.55 | X-H torsion
[ 11005 11000 10999 10996 ] final   69.95 input  -57.11 | X-H torsion

> <Gold.Protein.ActiveResidues>
 VAL166  LYS551  ARG553  GLY616  TRP617  ASP618  TYR619  PRO620  LYS621  CYS622 
 ASP623  PHE694  ASN695  SER759  ASP760  ASP761  ALA762  ILE779  LEU786  VAL792 
 PHE793  MET794  SER795  GLU796  ALA797  LYS798  CYS799  TRP800  GLU811  SER814 

> <Gold.Protein.RotatedAtoms>
  152.2369  133.5103  159.5247 H   0  0  0  0  0  0  0  0  0  0  0  0  # atno 6907 bound_to 6896
  150.7053  134.1141  159.4020 H   0  0  0  0  0  0  0  0  0  0  0  0  # atno 6908 bound_to 6896
  151.9062  135.0357  160.0561 H   0  0  0  0  0  0  0  0  0  0  0  0  # atno 6909 bound_to 6896
  146.2022  140.3524  142.8419 H   0  0  0  0  0  0  0  0  0  0  0  0  # atno 7974 bound_to 7965
  154.5898  140.0660  156.9222 H   0  0  0  0  0  0  0  0  0  0  0  0  # atno 8008 bound_to 7997
  155.2315  140.3338  155.4284 H   0  0  0  0  0  0  0  0  0  0  0  0  # atno 8009 bound_to 7997
  156.2248  140.1814  156.7374 H   0  0  0  0  0  0  0  0  0  0  0  0  # atno 8010 bound_to 7997
  139.4912  144.5848  151.6800 H   0  0  0  0  0  0  0  0  0  0  0  0  # atno 10167 bound_to 10162
  157.4942  130.8396  149.8239 H   0  0  0  0  0  0  0  0  0  0  0  0  # atno 10718 bound_to 10713
  153.0384  135.5146  154.7553 H   0  0  0  0  0  0  0  0  0  0  0  0  # atno 10763 bound_to 10752
  154.6511  135.2925  154.9988 H   0  0  0  0  0  0  0  0  0  0  0  0  # atno 10764 bound_to 10752
  154.0872  135.6655  153.4899 H   0  0  0  0  0  0  0  0  0  0  0  0  # atno 10765 bound_to 10752
  139.9624  134.7037  156.0616 H   0  0  0  0  0  0  0  0  0  0  0  0  # atno 11005 bound_to 11000
  144.8710  140.7272  143.6047 LP  0  0  0  0  0  0  0  0  0  0  0  0  # atno 17320 bound_to 7965
  145.3443  139.1723  143.4469 LP  0  0  0  0  0  0  0  0  0  0  0  0  # atno 17321 bound_to 7965
  140.5461  144.0500  150.6108 LP  0  0  0  0  0  0  0  0  0  0  0  0  # atno 17342 bound_to 10162
  140.3539  143.2947  152.0457 LP  0  0  0  0  0  0  0  0  0  0  0  0  # atno 17343 bound_to 10162
  156.0191  130.3802  150.2018 LP  0  0  0  0  0  0  0  0  0  0  0  0  # atno 17370 bound_to 10713
  157.0207  130.9978  151.3340 LP  0  0  0  0  0  0  0  0  0  0  0  0  # atno 17371 bound_to 10713
  141.1302  133.6588  156.3445 LP  0  0  0  0  0  0  0  0  0  0  0  0  # atno 17394 bound_to 11000
  140.5470  134.6065  157.5396 LP  0  0  0  0  0  0  0  0  0  0  0  0  # atno 17395 bound_to 11000

$$$$
