AV-unprocessed.smi:2928|AV-procd|sdf|11237|dock1
  -GOLD-   2272016133D 1   1.00000     0.00000
 Structure written by MMmdl.
 56 59  0  0  0  0  0  0  0  0  3 V2000
  155.3859  138.3702  165.2840 C   0  0  0  0  0  0  0  0  0  0  0  0
  155.0532  138.6419  163.8650 N   0  3  2  0  0  0  0  0  0  0  0  0
  154.3163  137.5529  163.1789 C   0  0  2  0  0  0  0  0  0  0  0  0
  155.2246  136.3184  162.9450 C   0  0  0  0  0  0  0  0  0  0  0  0
  156.5648  136.6440  162.2578 C   0  0  0  0  0  0  0  0  0  0  0  0
  157.2049  137.9378  162.7956 C   0  0  0  0  0  0  0  0  0  0  0  0
  156.1951  139.0894  163.0306 C   0  0  1  0  0  0  0  0  0  0  0  0
  155.6476  139.7434  161.7400 C   0  0  0  0  0  0  0  0  0  0  0  0
  154.6293  138.8726  160.9597 C   0  0  2  0  0  0  0  0  0  0  0  0
  153.8579  139.7022  160.0364 N   0  0  0  0  0  0  0  0  0  0  0  0
  153.3985  140.9335  160.3033 C   0  0  0  0  0  0  0  0  0  0  0  0
  153.5621  141.5031  161.3820 O   0  0  0  0  0  0  0  0  0  0  0  0
  152.7281  141.4429  159.2563 N   0  0  0  0  0  0  0  0  0  0  0  0
  152.0764  142.7058  159.1697 C   0  0  0  0  0  0  0  0  0  0  0  0
  152.4741  143.7921  159.9912 C   0  0  0  0  0  0  0  0  0  0  0  0
  151.8661  145.0518  159.8339 C   0  0  0  0  0  0  0  0  0  0  0  0
  150.8801  145.2120  158.8456 C   0  0  0  0  0  0  0  0  0  0  0  0
  150.5316  144.1631  158.0724 N   0  3  0  0  0  0  0  0  0  0  0  0
  151.0683  142.9222  158.1856 C   0  0  0  0  0  0  0  0  0  0  0  0
  150.5927  141.9149  157.3153 N   0  0  0  0  0  0  0  0  0  0  0  0
  151.1536  141.7697  155.9768 C   0  0  0  0  0  0  0  0  0  0  0  0
  150.1743  140.8662  155.2327 C   0  0  0  0  0  0  0  0  0  0  0  0
  148.8298  141.2873  155.8181 C   0  0  0  0  0  0  0  0  0  0  0  0
  149.1601  141.6375  157.2728 C   0  0  0  0  0  0  0  0  0  0  0  0
  153.6565  138.1250  161.9027 C   0  0  0  0  0  0  0  0  0  0  0  0
  156.0715  137.5310  165.3963 H   0  0  0  0  0  0  0  0  0  0  0  0
  154.4810  138.1438  165.8484 H   0  0  0  0  0  0  0  0  0  0  0  0
  155.8472  139.2462  165.7408 H   0  0  0  0  0  0  0  0  0  0  0  0
  153.5022  137.2370  163.8331 H   0  0  0  0  0  0  0  0  0  0  0  0
  155.4370  135.8520  163.9074 H   0  0  0  0  0  0  0  0  0  0  0  0
  154.6898  135.5616  162.3702 H   0  0  0  0  0  0  0  0  0  0  0  0
  157.2555  135.8119  162.3985 H   0  0  0  0  0  0  0  0  0  0  0  0
  156.4345  136.7058  161.1808 H   0  0  0  0  0  0  0  0  0  0  0  0
  157.7033  137.7094  163.7381 H   0  0  0  0  0  0  0  0  0  0  0  0
  157.9979  138.2648  162.1221 H   0  0  0  0  0  0  0  0  0  0  0  0
  156.7201  139.8744  163.5771 H   0  0  0  0  0  0  0  0  0  0  0  0
  155.1579  140.6754  162.0274 H   0  0  0  0  0  0  0  0  0  0  0  0
  156.4720  140.0334  161.0873 H   0  0  0  0  0  0  0  0  0  0  0  0
  155.1620  138.1375  160.3615 H   0  0  0  0  0  0  0  0  0  0  0  0
  153.6726  139.3138  159.1230 H   0  0  0  0  0  0  0  0  0  0  0  0
  152.5846  140.8234  158.4720 H   0  0  0  0  0  0  0  0  0  0  0  0
  153.2565  143.6843  160.7272 H   0  0  0  0  0  0  0  0  0  0  0  0
  152.1626  145.8851  160.4540 H   0  0  0  0  0  0  0  0  0  0  0  0
  150.3653  146.1411  158.6476 H   0  0  0  0  0  0  0  0  0  0  0  0
  151.2079  142.7384  155.4781 H   0  0  0  0  0  0  0  0  0  0  0  0
  152.1559  141.3413  156.0081 H   0  0  0  0  0  0  0  0  0  0  0  0
  150.2255  140.9835  154.1499 H   0  0  0  0  0  0  0  0  0  0  0  0
  150.3734  139.8205  155.4715 H   0  0  0  0  0  0  0  0  0  0  0  0
  148.4670  142.1760  155.2994 H   0  0  0  0  0  0  0  0  0  0  0  0
  148.0664  140.5135  155.7320 H   0  0  0  0  0  0  0  0  0  0  0  0
  148.9493  140.7839  157.9174 H   0  0  0  0  0  0  0  0  0  0  0  0
  148.5655  142.4831  157.6217 H   0  0  0  0  0  0  0  0  0  0  0  0
  153.1402  137.3342  161.3571 H   0  0  0  0  0  0  0  0  0  0  0  0
  152.8779  138.8201  162.2219 H   0  0  0  0  0  0  0  0  0  0  0  0
  154.4158  139.4246  163.8987 H   0  0  0  0  0  0  0  0  0  0  0  0
  149.8130  144.3115  157.3637 H   0  0  0  0  0  0  0  0  0  0  0  0
  1  2  1  0  0  0  0
  1 26  1  0  0  0  0
  1 27  1  0  0  0  0
  1 28  1  0  0  0  0
  2  7  1  0  0  0  0
  2  3  1  0  0  0  0
  2 55  1  0  0  0  0
  3 25  1  0  0  0  0
  3  4  1  0  0  0  0
  3 29  1  0  0  0  0
  4  5  1  0  0  0  0
  4 30  1  0  0  0  0
  4 31  1  0  0  0  0
  5  6  1  0  0  0  0
  5 32  1  0  0  0  0
  5 33  1  0  0  0  0
  6  7  1  0  0  0  0
  6 34  1  0  0  0  0
  6 35  1  0  0  0  0
  7  8  1  0  0  0  0
  7 36  1  0  0  0  0
  8  9  1  0  0  0  0
  8 37  1  0  0  0  0
  8 38  1  0  0  0  0
  9 10  1  0  0  0  0
  9 25  1  0  0  0  0
  9 39  1  0  0  0  0
 10 11  1  0  0  0  0
 10 40  1  0  0  0  0
 11 12  2  0  0  0  0
 11 13  1  0  0  0  0
 13 14  1  0  0  0  0
 13 41  1  0  0  0  0
 14 19  1  0  0  0  0
 14 15  2  0  0  0  0
 15 16  1  0  0  0  0
 15 42  1  0  0  0  0
 16 17  2  0  0  0  0
 16 43  1  0  0  0  0
 17 18  1  0  0  0  0
 17 44  1  0  0  0  0
 18 19  2  0  0  0  0
 18 56  1  0  0  0  0
 19 20  1  0  0  0  0
 20 24  1  0  0  0  0
 20 21  1  0  0  0  0
 21 22  1  0  0  0  0
 21 45  1  0  0  0  0
 21 46  1  0  0  0  0
 22 23  1  0  0  0  0
 22 47  1  0  0  0  0
 22 48  1  0  0  0  0
 23 24  1  0  0  0  0
 23 49  1  0  0  0  0
 23 50  1  0  0  0  0
 24 51  1  0  0  0  0
 24 52  1  0  0  0  0
 25 53  1  0  0  0  0
 25 54  1  0  0  0  0
M  CHG  1   2   1
M  CHG  1  18   1
M  END
> <s_m_source_file>
AV-unprocessed.smi

> <i_m_source_file_index>
2928

> <i_lp_mmshare_version>
43012

> <i_f3d_flags>
0

> <s_epik_input>
W0NIMl0xW0NIMl1bQ0gyXVtDQEhdKE4oW0NIM10pW0NIXTEyKVtDSDJdW0NASF0oW0NIMl0yKVtOSF1DKD1PKVtOSF1jM1tjSF1bY0hdW2NIXW5jM040W0NIMl1bQ0gyXVtDSDJdW0NIMl00

> <s_epik_cmdline>
J2VwaWtfcHl0aG9uJywgJy1waCcsICc3LjAnLCAnLXRuJywgJzgnLCAnLW1hJywgJzIwMCcsICctbWV0YWxfYmluZGluZycsICctaW1hZScsICc8aW5maWxlLm1hZT4nLCAnLW9tYWUnLCAnPG91dGZpbGUubWFlPic=

> <r_lp_tautomer_probability>
0.999994

> <r_epik_Ionization_Penalty>
1.2404

> <r_epik_Ionization_Penalty_Charging>
1.24038

> <r_epik_Ionization_Penalty_Neutral>
1.86539e-05

> <r_epik_State_Penalty>
1.30821

> <r_epik_Charging_Adjusted_Penalty>
2.54859

> <i_epik_Tot_Q>
2

> <i_epik_Tot_abs_Q>
2

> <r_epik_Metal_State_Penalty>
1.3782

> <b_epik_Metal_Only>
0

> <s_lp_Force_Field>
OPLS_2005

> <r_lp_Energy>
72.5254

> <b_lp_Chiralities_Consistent>
1

> <s_lp_Variant>
AV-unprocessed.smi:2928-7

> <Gold.Version>
5.8.1

> <Gold.Id.Protein>
6NUR|6NUR_protein|mol2

> <Gold.PLP.Fitness>
44.2167

> <Gold.PLP.PLP>
-39.4195

> <Gold.PLP.part.hbond>
-1.2845

> <Gold.PLP.part.metal>
0.0000

> <Gold.PLP.part.buried>
-7.7628

> <Gold.PLP.part.nonpolar>
-30.8062

> <Gold.PLP.part.repulsive>
0.2999

> <Gold.PLP.ligand.clash>
0.0000

> <Gold.PLP.ligand.torsion>
0.7929

> <Gold.PLP.Chemscore.Hbond>
2.0000

> <Gold.PLP.Chemscore.CHOScore>
0.0000

> <Gold.PLP.Chemscore.Metal>
0.0000

> <Gold.Chemscore.Hbonds>
donor molecule, donor type, donor heavy atom, donor atom, acceptor molecule, acceptor atom, score
      L1  H    18    56       P1  8028  2.00

> <Gold.PLP.Chemscore.Internal.Correction>
0.3829

> <Gold.Rescore>
     Score         DG    S(hbond)    S(metal)    S(lipo)     H(rot)  DE(clash)    DE(int)     intcor
     15.11     -18.56       0.94        0.00     110.87       1.19       0.60       2.85       ----

> <Gold.Chemscore.Fitness>
15.1116

> <Gold.Chemscore.DG>
-18.5633

> <Gold.Chemscore.ZeroCoef>
-5.4800

> <Gold.Chemscore.Hbond>
0.9440

> <Gold.Chemscore.Metal>
0.0000

> <Gold.Chemscore.Lipo>
110.8665

> <Gold.Chemscore.Internal_Hbond>
0.0000

> <Gold.Chemscore.DEClash>
0.5987

> <Gold.Chemscore.DEInternal>
2.8530

> <Gold.Chemscore.Rot>
1.1879

> <Gold.Chemscore.Internal.Correction>
   9.000000E+99

> <Gold.Chemscore.Hbonds>
donor molecule, donor type, donor heavy atom, donor atom, acceptor molecule, acceptor atom, score
      L1  H    18    56       P1  8028  0.34

> <Gold.Chemscore.Hbond.Weighted>
-3.1530

> <Gold.Chemscore.Metal.Weighted>
-0.0000

> <Gold.Chemscore.Lipo.Weighted>
-12.9714

> <Gold.Chemscore.Internal_Hbond.Weighted>
0.0000

> <Gold.Chemscore.DEClash.Weighted>
0.5987

> <Gold.Chemscore.DEInternal.Weighted>
2.8530

> <Gold.Chemscore.Rot.Weighted>
3.0410

> <Gold.Chemscore.Internal.Correction.Weighted>
   9.000000E+99

> <Gold.Protein.RotatedTorsions>
[ 6907 6896 6895 6894 ] final  -67.49 input  -60.11 | X-H torsion
[ 7974 7965 7964 7962 ] final -116.90 input  175.53 | X-H torsion
[ 8008 7997 7996 7995 ] final   89.27 input   59.86 | X-H torsion
[ 10167 10162 10161 10158 ] final  165.81 input  -65.29 | X-H torsion
[ 10718 10713 10712 10709 ] final   99.86 input   66.30 | X-H torsion
[ 10763 10752 10751 10750 ] final -101.94 input  -60.55 | X-H torsion
[ 11005 11000 10999 10996 ] final  -75.13 input  -57.11 | X-H torsion

> <Gold.Protein.ActiveResidues>
 VAL166  LYS551  ARG553  GLY616  TRP617  ASP618  TYR619  PRO620  LYS621  CYS622 
 ASP623  PHE694  ASN695  SER759  ASP760  ASP761  ALA762  ILE779  LEU786  VAL792 
 PHE793  MET794  SER795  GLU796  ALA797  LYS798  CYS799  TRP800  GLU811  SER814 

> <Gold.Protein.RotatedAtoms>
  150.7407  134.5873  159.5969 H   0  0  0  0  0  0  0  0  0  0  0  0  # atno 6907 bound_to 6896
  152.3271  134.7304  160.0308 H   0  0  0  0  0  0  0  0  0  0  0  0  # atno 6908 bound_to 6896
  151.7800  133.3313  159.3505 H   0  0  0  0  0  0  0  0  0  0  0  0  # atno 6909 bound_to 6896
  145.0914  140.8492  143.3980 H   0  0  0  0  0  0  0  0  0  0  0  0  # atno 7974 bound_to 7965
  155.9979  140.3362  155.6817 H   0  0  0  0  0  0  0  0  0  0  0  0  # atno 8008 bound_to 7997
  155.6330  140.0687  157.2661 H   0  0  0  0  0  0  0  0  0  0  0  0  # atno 8009 bound_to 7997
  154.4240  140.1756  156.1480 H   0  0  0  0  0  0  0  0  0  0  0  0  # atno 8010 bound_to 7997
  139.4913  144.4093  151.9318 H   0  0  0  0  0  0  0  0  0  0  0  0  # atno 10167 bound_to 10162
  157.6867  131.0682  150.5012 H   0  0  0  0  0  0  0  0  0  0  0  0  # atno 10718 bound_to 10713
  154.7696  135.4879  153.9623 H   0  0  0  0  0  0  0  0  0  0  0  0  # atno 10763 bound_to 10752
  153.1351  135.6761  153.9123 H   0  0  0  0  0  0  0  0  0  0  0  0  # atno 10764 bound_to 10752
  153.8814  135.3131  155.3424 H   0  0  0  0  0  0  0  0  0  0  0  0  # atno 10765 bound_to 10752
  141.1642  133.6936  156.7470 H   0  0  0  0  0  0  0  0  0  0  0  0  # atno 11005 bound_to 11000
  145.1062  139.2788  143.5661 LP  0  0  0  0  0  0  0  0  0  0  0  0  # atno 17320 bound_to 7965
  146.3531  140.0644  142.8627 LP  0  0  0  0  0  0  0  0  0  0  0  0  # atno 17321 bound_to 7965
  140.3534  144.3061  150.5945 LP  0  0  0  0  0  0  0  0  0  0  0  0  # atno 17342 bound_to 10162
  140.5466  143.2214  151.7997 LP  0  0  0  0  0  0  0  0  0  0  0  0  # atno 17343 bound_to 10162
  156.5333  130.4190  149.6190 LP  0  0  0  0  0  0  0  0  0  0  0  0  # atno 17370 bound_to 10713
  156.3049  130.7197  151.2077 LP  0  0  0  0  0  0  0  0  0  0  0  0  # atno 17371 bound_to 10713
  140.2632  134.8450  157.3778 LP  0  0  0  0  0  0  0  0  0  0  0  0  # atno 17394 bound_to 11000
  140.1591  134.4751  155.7907 LP  0  0  0  0  0  0  0  0  0  0  0  0  # atno 17395 bound_to 11000

$$$$
