AV-unprocessed.smi:2091|AV-procd|sdf|8541|dock8
  -GOLD-   2272011263D 1   1.00000     0.00000
 Structure written by MMmdl.
 35 36  0  0  0  0  0  0  0  0  2 V2000
  150.8091  141.0518  157.9721 O   0  0  0  0  0  0  0  0  0  0  0  0
  150.7508  142.0959  157.3210 C   0  0  0  0  0  0  0  0  0  0  0  0
  151.5089  143.3487  157.7795 C   0  0  0  0  0  0  0  0  0  0  0  0
  151.9429  143.2751  159.1840 N   0  0  0  0  0  0  0  0  0  0  0  0
  152.7585  142.1937  159.5613 C   0  0  0  0  0  0  0  0  0  0  0  0
  153.2034  142.0459  160.8238 C   0  0  0  0  0  0  0  0  0  0  0  0
  152.8187  143.0453  161.8127 C   0  0  0  0  0  0  0  0  0  0  0  0
  153.2208  142.9297  162.9689 O   0  0  0  0  0  0  0  0  0  0  0  0
  152.0208  144.0730  161.3991 N   0  5  0  0  0  0  0  0  0  0  0  0
  151.5733  144.2088  160.1119 C   0  0  0  0  0  0  0  0  0  0  0  0
  150.8515  145.1429  159.7603 O   0  0  0  0  0  0  0  0  0  0  0  0
  150.0626  142.2104  156.1740 N   0  0  0  0  0  0  0  0  0  0  0  0
  149.2845  141.1450  155.5382 C   0  0  1  0  0  0  0  0  0  0  0  0
  148.5205  141.7724  154.3496 C   0  0  0  0  0  0  0  0  0  0  0  0
  147.2812  140.9709  153.9145 C   0  0  0  0  0  0  0  0  0  0  0  0
  147.5777  139.5755  153.3446 C   0  0  0  0  0  0  0  0  0  0  0  0
  148.2463  138.6251  154.3523 C   0  0  0  0  0  0  0  0  0  0  0  0
  149.6667  138.9074  154.5131 N   0  0  0  0  0  0  0  0  0  0  0  0
  150.2143  140.0269  155.0105 C   0  0  0  0  0  0  0  0  0  0  0  0
  151.4379  140.1595  155.0396 O   0  0  0  0  0  0  0  0  0  0  0  0
  152.3680  143.4827  157.1210 H   0  0  0  0  0  0  0  0  0  0  0  0
  150.8898  144.2348  157.6253 H   0  0  0  0  0  0  0  0  0  0  0  0
  152.9919  141.4956  158.7711 H   0  0  0  0  0  0  0  0  0  0  0  0
  153.8269  141.2079  161.0979 H   0  0  0  0  0  0  0  0  0  0  0  0
  150.0809  143.1025  155.7021 H   0  0  0  0  0  0  0  0  0  0  0  0
  148.5798  140.7367  156.2648 H   0  0  0  0  0  0  0  0  0  0  0  0
  148.1712  142.7653  154.6367 H   0  0  0  0  0  0  0  0  0  0  0  0
  149.1847  141.9330  153.4984 H   0  0  0  0  0  0  0  0  0  0  0  0
  146.5954  140.8799  154.7578 H   0  0  0  0  0  0  0  0  0  0  0  0
  146.7451  141.5453  153.1585 H   0  0  0  0  0  0  0  0  0  0  0  0
  146.6329  139.1328  153.0276 H   0  0  0  0  0  0  0  0  0  0  0  0
  148.1861  139.6572  152.4428 H   0  0  0  0  0  0  0  0  0  0  0  0
  147.7388  138.6502  155.3177 H   0  0  0  0  0  0  0  0  0  0  0  0
  148.1624  137.6009  153.9884 H   0  0  0  0  0  0  0  0  0  0  0  0
  150.3020  138.1930  154.1879 H   0  0  0  0  0  0  0  0  0  0  0  0
  1  2  2  0  0  0  0
  2  3  1  0  0  0  0
  2 12  1  0  0  0  0
  3  4  1  0  0  0  0
  3 21  1  0  0  0  0
  3 22  1  0  0  0  0
  4 10  1  0  0  0  0
  4  5  1  0  0  0  0
  5  6  2  0  0  0  0
  5 23  1  0  0  0  0
  6  7  1  0  0  0  0
  6 24  1  0  0  0  0
  7  8  2  0  0  0  0
  7  9  1  0  0  0  0
  9 10  1  0  0  0  0
 10 11  2  0  0  0  0
 12 13  1  0  0  0  0
 12 25  1  0  0  0  0
 13 19  1  0  0  0  0
 13 14  1  0  0  0  0
 13 26  1  0  0  0  0
 14 15  1  0  0  0  0
 14 27  1  0  0  0  0
 14 28  1  0  0  0  0
 15 16  1  0  0  0  0
 15 29  1  0  0  0  0
 15 30  1  0  0  0  0
 16 17  1  0  0  0  0
 16 31  1  0  0  0  0
 16 32  1  0  0  0  0
 17 18  1  0  0  0  0
 17 33  1  0  0  0  0
 17 34  1  0  0  0  0
 18 19  1  0  0  0  0
 18 35  1  0  0  0  0
 19 20  2  0  0  0  0
M  CHG  1   9  -1
M  END
> <s_m_source_file>
AV-unprocessed.smi

> <i_m_source_file_index>
2091

> <i_lp_mmshare_version>
43012

> <i_f3d_flags>
0

> <s_epik_input>
Tz1jMVtuSF1jKD1PKVtjSF1bY0hdbjFbQ0gyXUMoPU8pW05IXVtDQEBIXTJbQ0gyXVtDSDJdW0NIMl1bQ0gyXVtOSF1DMj1P

> <s_epik_cmdline>
J2VwaWtfcHl0aG9uJywgJy1waCcsICc3LjAnLCAnLXRuJywgJzgnLCAnLW1hJywgJzIwMCcsICctbWV0YWxfYmluZGluZycsICctaW1hZScsICc8aW5maWxlLm1hZT4nLCAnLW9tYWUnLCAnPG91dGZpbGUubWFlPic=

> <r_lp_tautomer_probability>
0.999537

> <r_epik_Ionization_Penalty>
3.03155

> <r_epik_Ionization_Penalty_Charging>
2.38195e-08

> <r_epik_Ionization_Penalty_Neutral>
3.03155

> <r_epik_State_Penalty>
3.03052

> <r_epik_Charging_Adjusted_Penalty>
3.03052

> <i_epik_Tot_Q>
-1

> <i_epik_Tot_abs_Q>
1

> <r_epik_Metal_State_Penalty>
0.455936

> <b_epik_Metal_Only>
1

> <s_lp_Force_Field>
OPLS_2005

> <r_lp_Energy>
21.0556

> <b_lp_Chiralities_Consistent>
1

> <s_lp_Variant>
AV-unprocessed.smi:2091-4

> <Gold.Version>
5.8.1

> <Gold.Id.Protein>
6NUR|6NUR_protein|mol2

> <Gold.PLP.Fitness>
45.9863

> <Gold.PLP.PLP>
-41.2615

> <Gold.PLP.part.hbond>
-2.0000

> <Gold.PLP.part.metal>
0.0000

> <Gold.PLP.part.buried>
-5.2869

> <Gold.PLP.part.nonpolar>
-34.2914

> <Gold.PLP.part.repulsive>
0.6464

> <Gold.PLP.ligand.clash>
0.0000

> <Gold.PLP.ligand.torsion>
0.2666

> <Gold.PLP.Chemscore.Hbond>
1.7520

> <Gold.PLP.Chemscore.CHOScore>
0.0000

> <Gold.PLP.Chemscore.Metal>
0.0000

> <Gold.Chemscore.Hbonds>
donor molecule, donor type, donor heavy atom, donor atom, acceptor molecule, acceptor atom, score
      L1  H    12    25       P1  8028  0.72
      P1  H  7989  7998       L1    20  0.95

> <Gold.PLP.Chemscore.Internal.Correction>
0.0021

> <Gold.Rescore>
     Score         DG    S(hbond)    S(metal)    S(lipo)     H(rot)  DE(clash)    DE(int)     intcor
     12.90     -14.17       1.91        0.00      60.35       1.85       0.05       1.22       ----

> <Gold.Chemscore.Fitness>
12.9036

> <Gold.Chemscore.DG>
-14.1725

> <Gold.Chemscore.ZeroCoef>
-5.4800

> <Gold.Chemscore.Hbond>
1.9080

> <Gold.Chemscore.Metal>
0.0000

> <Gold.Chemscore.Lipo>
60.3458

> <Gold.Chemscore.Internal_Hbond>
0.0000

> <Gold.Chemscore.DEClash>
0.0515

> <Gold.Chemscore.DEInternal>
1.2174

> <Gold.Chemscore.Rot>
1.8519

> <Gold.Chemscore.Internal.Correction>
   9.000000E+99

> <Gold.Chemscore.Hbonds>
donor molecule, donor type, donor heavy atom, donor atom, acceptor molecule, acceptor atom, score
      L1  H    12    25       P1  8028  0.69
      P1  H  7989  7998       L1    20  0.21

> <Gold.Chemscore.Hbond.Weighted>
-6.3728

> <Gold.Chemscore.Metal.Weighted>
-0.0000

> <Gold.Chemscore.Lipo.Weighted>
-7.0605

> <Gold.Chemscore.Internal_Hbond.Weighted>
0.0000

> <Gold.Chemscore.DEClash.Weighted>
0.0515

> <Gold.Chemscore.DEInternal.Weighted>
1.2174

> <Gold.Chemscore.Rot.Weighted>
4.7408

> <Gold.Chemscore.Internal.Correction.Weighted>
   9.000000E+99

> <Gold.Protein.RotatedTorsions>
[ 6907 6896 6895 6894 ] final   62.85 input  -60.11 | X-H torsion
[ 7974 7965 7964 7962 ] final  161.32 input  175.53 | X-H torsion
[ 8008 7997 7996 7995 ] final  179.81 input   59.86 | X-H torsion
[ 10167 10162 10161 10158 ] final   27.35 input  -65.29 | X-H torsion
[ 10718 10713 10712 10709 ] final -118.17 input   66.30 | X-H torsion
[ 10763 10752 10751 10750 ] final   33.41 input  -60.55 | X-H torsion
[ 11005 11000 10999 10996 ] final  -67.38 input  -57.11 | X-H torsion

> <Gold.Protein.ActiveResidues>
 VAL166  LYS551  ARG553  GLY616  TRP617  ASP618  TYR619  PRO620  LYS621  CYS622 
 ASP623  PHE694  ASN695  SER759  ASP760  ASP761  ALA762  ILE779  LEU786  VAL792 
 PHE793  MET794  SER795  GLU796  ALA797  LYS798  CYS799  TRP800  GLU811  SER814 

> <Gold.Protein.RotatedAtoms>
  152.4206  134.5962  159.9987 H   0  0  0  0  0  0  0  0  0  0  0  0  # atno 6907 bound_to 6896
  151.6113  133.3341  159.3076 H   0  0  0  0  0  0  0  0  0  0  0  0  # atno 6908 bound_to 6896
  150.8094  134.7277  159.6739 H   0  0  0  0  0  0  0  0  0  0  0  0  # atno 6909 bound_to 6896
  144.7692  139.7881  143.6303 H   0  0  0  0  0  0  0  0  0  0  0  0  # atno 7974 bound_to 7965
  156.0391  140.1299  157.0175 H   0  0  0  0  0  0  0  0  0  0  0  0  # atno 8008 bound_to 7997
  154.4383  140.1034  156.6282 H   0  0  0  0  0  0  0  0  0  0  0  0  # atno 8009 bound_to 7997
  155.5693  140.3466  155.4513 H   0  0  0  0  0  0  0  0  0  0  0  0  # atno 8010 bound_to 7997
  140.4946  144.0413  150.6309 H   0  0  0  0  0  0  0  0  0  0  0  0  # atno 10167 bound_to 10162
  156.1086  130.6231  150.9257 H   0  0  0  0  0  0  0  0  0  0  0  0  # atno 10718 bound_to 10713
  153.0213  135.6388  154.1507 H   0  0  0  0  0  0  0  0  0  0  0  0  # atno 10763 bound_to 10752
  154.1241  135.2845  155.3203 H   0  0  0  0  0  0  0  0  0  0  0  0  # atno 10764 bound_to 10752
  154.6242  135.5514  153.7671 H   0  0  0  0  0  0  0  0  0  0  0  0  # atno 10765 bound_to 10752
  141.1506  133.6718  156.6284 H   0  0  0  0  0  0  0  0  0  0  0  0  # atno 11005 bound_to 11000
  146.1824  139.5023  142.9858 LP  0  0  0  0  0  0  0  0  0  0  0  0  # atno 17320 bound_to 7965
  145.6377  141.0291  143.1829 LP  0  0  0  0  0  0  0  0  0  0  0  0  # atno 17321 bound_to 7965
  140.3691  143.2864  152.0298 LP  0  0  0  0  0  0  0  0  0  0  0  0  # atno 17342 bound_to 10162
  139.4858  144.6243  151.7194 LP  0  0  0  0  0  0  0  0  0  0  0  0  # atno 17343 bound_to 10162
  157.6266  131.0925  150.8522 LP  0  0  0  0  0  0  0  0  0  0  0  0  # atno 17370 bound_to 10713
  156.8637  130.5122  149.5302 LP  0  0  0  0  0  0  0  0  0  0  0  0  # atno 17371 bound_to 10713
  140.3486  134.7788  157.4450 LP  0  0  0  0  0  0  0  0  0  0  0  0  # atno 17394 bound_to 11000
  140.0879  134.5641  155.8474 LP  0  0  0  0  0  0  0  0  0  0  0  0  # atno 17395 bound_to 11000

$$$$
