AV-unprocessed.smi:55|AV-procd|sdf|567|dock9
  -GOLD-   2262016473D 1   1.00000     0.00000
 Structure written by MMmdl.
 31 32  0  0  0  0  0  0  0  0  1 V2000
  150.0402  142.8842  158.7712 C   0  0  0  0  0  0  0  0  0  0  0  0
  150.4340  141.9111  157.6723 C   0  0  0  0  0  0  0  0  0  0  0  0
  149.7664  141.8363  156.4927 C   0  0  0  0  0  0  0  0  0  0  0  0
  150.1051  140.9626  155.4687 N   0  0  0  0  0  0  0  0  0  0  0  0
  149.3240  140.9352  154.1746 C   0  0  2  0  0  0  0  0  0  0  0  0
  148.1584  141.9247  154.2238 C   0  0  0  0  0  0  0  0  0  0  0  0
  147.0765  141.1563  153.4941 C   0  0  2  0  0  0  0  0  0  0  0  0
  145.7954  141.5932  153.8992 O   0  0  0  0  0  0  0  0  0  0  0  0
  147.3692  139.7145  153.9210 C   0  0  1  0  0  0  0  0  0  0  0  0
  146.8620  138.6390  152.9478 C   0  0  0  0  0  0  0  0  0  0  0  0
  147.5872  138.6834  151.7374 O   0  0  0  0  0  0  0  0  0  0  0  0
  148.7926  139.6551  153.9907 O   0  0  0  0  0  0  0  0  0  0  0  0
  151.2164  140.1089  155.6285 C   0  0  0  0  0  0  0  0  0  0  0  0
  151.5973  139.3305  154.7553 O   0  0  0  0  0  0  0  0  0  0  0  0
  151.8994  140.1814  156.8413 N   0  0  0  0  0  0  0  0  0  0  0  0
  151.5841  141.0327  157.9031 C   0  0  0  0  0  0  0  0  0  0  0  0
  152.2624  141.0014  158.9285 O   0  0  0  0  0  0  0  0  0  0  0  0
  150.0177  141.1224  153.3535 H   0  0  0  0  0  0  0  0  0  0  0  0
  147.1947  141.2741  152.4161 H   0  0  0  0  0  0  0  0  0  0  0  0
  146.9816  139.5317  154.9248 H   0  0  0  0  0  0  0  0  0  0  0  0
  152.6938  139.5697  156.9611 H   0  0  0  0  0  0  0  0  0  0  0  0
  149.1647  143.4727  158.4957 H   0  0  0  0  0  0  0  0  0  0  0  0
  150.8574  143.5766  158.9767 H   0  0  0  0  0  0  0  0  0  0  0  0
  149.8060  142.3476  159.6912 H   0  0  0  0  0  0  0  0  0  0  0  0
  148.9292  142.5010  156.3436 H   0  0  0  0  0  0  0  0  0  0  0  0
  147.8731  142.1062  155.2618 H   0  0  0  0  0  0  0  0  0  0  0  0
  148.4225  142.8734  153.7556 H   0  0  0  0  0  0  0  0  0  0  0  0
  145.1463  141.0844  153.4371 H   0  0  0  0  0  0  0  0  0  0  0  0
  146.9401  137.6439  153.3867 H   0  0  0  0  0  0  0  0  0  0  0  0
  145.8096  138.8084  152.7196 H   0  0  0  0  0  0  0  0  0  0  0  0
  148.2236  139.3799  151.7940 H   0  0  0  0  0  0  0  0  0  0  0  0
  1  2  1  0  0  0  0
  1 22  1  0  0  0  0
  1 23  1  0  0  0  0
  1 24  1  0  0  0  0
  2 16  1  0  0  0  0
  2  3  2  0  0  0  0
  3  4  1  0  0  0  0
  3 25  1  0  0  0  0
  4  5  1  0  0  0  0
  4 13  1  0  0  0  0
  5 18  1  0  0  0  0
  5 12  1  0  0  0  0
  5  6  1  0  0  0  0
  6  7  1  0  0  0  0
  6 26  1  0  0  0  0
  6 27  1  0  0  0  0
  7 19  1  0  0  0  0
  7  8  1  0  0  0  0
  7  9  1  0  0  0  0
  8 28  1  0  0  0  0
  9 20  1  0  0  0  0
  9 10  1  0  0  0  0
  9 12  1  0  0  0  0
 10 11  1  0  0  0  0
 10 29  1  0  0  0  0
 10 30  1  0  0  0  0
 11 31  1  0  0  0  0
 13 14  2  0  0  0  0
 13 15  1  0  0  0  0
 15 21  1  0  0  0  0
 15 16  1  0  0  0  0
 16 17  2  0  0  0  0
M  END
> <s_m_source_file>
AV-unprocessed.smi

> <i_m_source_file_index>
55

> <i_lp_mmshare_version>
43012

> <i_f3d_flags>
0

> <s_epik_input>
Tz1jMVtuSF1jKD1PKW4oW2NIXWMxW0NIM10pW0NAQEhdMltDSDJdW0NAQEhdKFtPSF0pW0NAQEhdKE8yKVtDSDJdW09IXQ==

> <s_epik_cmdline>
J2VwaWtfcHl0aG9uJywgJy1waCcsICc3LjAnLCAnLXRuJywgJzgnLCAnLW1hJywgJzIwMCcsICctbWV0YWxfYmluZGluZycsICctaW1hZScsICc8aW5maWxlLm1hZT4nLCAnLW9tYWUnLCAnPG91dGZpbGUubWFlPic=

> <r_lp_tautomer_probability>
0.999537

> <r_epik_Ionization_Penalty>
0.00121888

> <r_epik_Ionization_Penalty_Charging>
0.00121876

> <r_epik_Ionization_Penalty_Neutral>
1.19946e-07

> <r_epik_State_Penalty>
0.000805124

> <r_epik_Charging_Adjusted_Penalty>
0.00202389

> <i_epik_Tot_Q>
0

> <i_epik_Tot_abs_Q>
0

> <r_epik_Metal_State_Penalty>
0.662472

> <b_epik_Metal_Only>
0

> <s_epik_Chemistry_Notes>
This compound contains an acetal/aminal-like group ( X-CH(R)-Y where X, Y are N, S, or O) that may be acid/base labile, releasing an aldehyde.

> <s_lp_Force_Field>
OPLS_2005

> <r_lp_Energy>
24.0727

> <b_lp_Chiralities_Consistent>
1

> <s_lp_Variant>
AV-unprocessed.smi:55-7

> <Gold.Version>
5.8.1

> <Gold.Id.Protein>
6NUR|6NUR_protein|mol2

> <Gold.PLP.Fitness>
40.1976

> <Gold.PLP.PLP>
-27.9823

> <Gold.PLP.part.hbond>
-4.8015

> <Gold.PLP.part.metal>
0.0000

> <Gold.PLP.part.buried>
0.6466

> <Gold.PLP.part.nonpolar>
-23.6258

> <Gold.PLP.part.repulsive>
1.3878

> <Gold.PLP.ligand.clash>
0.0000

> <Gold.PLP.ligand.torsion>
0.0524

> <Gold.PLP.Chemscore.Hbond>
3.1042

> <Gold.PLP.Chemscore.CHOScore>
1.0000

> <Gold.PLP.Chemscore.Metal>
0.0000

> <Gold.Chemscore.Hbonds>
donor molecule, donor type, donor heavy atom, donor atom, acceptor molecule, acceptor atom, score
      L1  H     8    28       P1 10175  1.00
      L1  H    11    31       P1  7957  0.90
      P1  H  7954  7966       L1    11  0.73
      P1  H  7989  7998       L1    14  0.45
      L1  C     3    25       P1  8028  1.00

> <Gold.PLP.Chemscore.Internal.Correction>
0.0077

> <Gold.Rescore>
     Score         DG    S(hbond)    S(metal)    S(lipo)     H(rot)  DE(clash)    DE(int)     intcor
      8.26      -9.60       1.85        0.00      42.07       2.73       0.09       1.24       ----

> <Gold.Chemscore.Fitness>
8.2645

> <Gold.Chemscore.DG>
-9.5951

> <Gold.Chemscore.ZeroCoef>
-5.4800

> <Gold.Chemscore.Hbond>
1.8471

> <Gold.Chemscore.Metal>
0.0000

> <Gold.Chemscore.Lipo>
42.0737

> <Gold.Chemscore.Internal_Hbond>
0.0000

> <Gold.Chemscore.DEClash>
0.0891

> <Gold.Chemscore.DEInternal>
1.2415

> <Gold.Chemscore.Rot>
2.7253

> <Gold.Chemscore.Internal.Correction>
   9.000000E+99

> <Gold.Chemscore.Hbonds>
donor molecule, donor type, donor heavy atom, donor atom, acceptor molecule, acceptor atom, score
      L1  H     8    28       P1 10175  0.50
      L1  H    11    31       P1  7957  0.87
      P1  H  7954  7966       L1    11  0.14
      P1  H  7989  7998       L1    14  0.02

> <Gold.Chemscore.Hbond.Weighted>
-6.1693

> <Gold.Chemscore.Metal.Weighted>
-0.0000

> <Gold.Chemscore.Lipo.Weighted>
-4.9226

> <Gold.Chemscore.Internal_Hbond.Weighted>
0.0000

> <Gold.Chemscore.DEClash.Weighted>
0.0891

> <Gold.Chemscore.DEInternal.Weighted>
1.2415

> <Gold.Chemscore.Rot.Weighted>
6.9769

> <Gold.Chemscore.Internal.Correction.Weighted>
   9.000000E+99

> <Gold.Protein.RotatedTorsions>
[ 6907 6896 6895 6894 ] final   30.72 input  -60.11 | X-H torsion
[ 7974 7965 7964 7962 ] final  -70.25 input  175.53 | X-H torsion
[ 8008 7997 7996 7995 ] final  171.44 input   59.86 | X-H torsion
[ 10167 10162 10161 10158 ] final   78.27 input  -65.29 | X-H torsion
[ 10718 10713 10712 10709 ] final   54.55 input   66.30 | X-H torsion
[ 10763 10752 10751 10750 ] final   58.05 input  -60.55 | X-H torsion
[ 11005 11000 10999 10996 ] final  108.29 input  -57.11 | X-H torsion

> <Gold.Protein.ActiveResidues>
 VAL166  LYS551  ARG553  GLY616  TRP617  ASP618  TYR619  PRO620  LYS621  CYS622 
 ASP623  PHE694  ASN695  SER759  ASP760  ASP761  ALA762  ILE779  LEU786  VAL792 
 PHE793  MET794  SER795  GLU796  ALA797  LYS798  CYS799  TRP800  GLU811  SER814 

> <Gold.Protein.RotatedAtoms>
  152.0500  134.9659  160.0574 H   0  0  0  0  0  0  0  0  0  0  0  0  # atno 6907 bound_to 6896
  152.1064  133.4272  159.4619 H   0  0  0  0  0  0  0  0  0  0  0  0  # atno 6908 bound_to 6896
  150.6841  134.2618  159.4596 H   0  0  0  0  0  0  0  0  0  0  0  0  # atno 6909 bound_to 6896
  145.6933  140.9144  143.0770 H   0  0  0  0  0  0  0  0  0  0  0  0  # atno 7974 bound_to 7965
  156.1270  140.1511  156.9121 H   0  0  0  0  0  0  0  0  0  0  0  0  # atno 8008 bound_to 7997
  154.4879  140.0860  156.7569 H   0  0  0  0  0  0  0  0  0  0  0  0  # atno 8009 bound_to 7997
  155.4325  140.3427  155.4284 H   0  0  0  0  0  0  0  0  0  0  0  0  # atno 8010 bound_to 7997
  139.9728  144.5882  150.7970 H   0  0  0  0  0  0  0  0  0  0  0  0  # atno 10167 bound_to 10162
  157.5267  130.8602  149.8631 H   0  0  0  0  0  0  0  0  0  0  0  0  # atno 10718 bound_to 10713
  152.9862  135.5620  154.5489 H   0  0  0  0  0  0  0  0  0  0  0  0  # atno 10763 bound_to 10752
  154.4930  135.2793  155.1484 H   0  0  0  0  0  0  0  0  0  0  0  0  # atno 10764 bound_to 10752
  154.2945  135.6319  153.5452 H   0  0  0  0  0  0  0  0  0  0  0  0  # atno 10765 bound_to 10752
  139.8842  134.9426  156.5950 H   0  0  0  0  0  0  0  0  0  0  0  0  # atno 11005 bound_to 11000
  144.6990  139.8851  143.7449 LP  0  0  0  0  0  0  0  0  0  0  0  0  # atno 17320 bound_to 7965
  146.0862  139.3851  143.0434 LP  0  0  0  0  0  0  0  0  0  0  0  0  # atno 17321 bound_to 7965
  140.7516  143.2976  151.3165 LP  0  0  0  0  0  0  0  0  0  0  0  0  # atno 17342 bound_to 10162
  139.6468  144.0435  152.2597 LP  0  0  0  0  0  0  0  0  0  0  0  0  # atno 17343 bound_to 10162
  156.0392  130.3743  150.1480 LP  0  0  0  0  0  0  0  0  0  0  0  0  # atno 17370 bound_to 10713
  156.9666  130.9821  151.3468 LP  0  0  0  0  0  0  0  0  0  0  0  0  # atno 17371 bound_to 10713
  140.7927  133.8569  155.8659 LP  0  0  0  0  0  0  0  0  0  0  0  0  # atno 17394 bound_to 11000
  140.9663  134.1590  157.4613 LP  0  0  0  0  0  0  0  0  0  0  0  0  # atno 17395 bound_to 11000

$$$$
