AV-unprocessed.smi:546|AV-procd|sdf|2885|dock4
  -GOLD-   2262023383D 1   1.00000     0.00000
 Structure written by MMmdl.
 52 54  0  0  0  0  0  0  0  0  1 V2000
  144.4544  132.1102  158.2837 C   0  0  0  0  0  0  0  0  0  0  0  0
  145.4755  131.1769  157.6299 C   0  0  0  0  0  0  0  0  0  0  0  0
  146.7481  131.7947  157.6851 O   0  0  0  0  0  0  0  0  0  0  0  0
  146.8422  132.9526  156.8726 C   0  0  0  0  0  0  0  0  0  0  0  0
  146.6068  134.2036  157.7314 C   0  0  0  0  0  0  0  0  0  0  0  0
  147.8284  134.9876  157.8815 N   0  0  0  0  0  0  0  0  0  0  0  0
  148.4196  135.4232  159.0275 C   0  0  0  0  0  0  0  0  0  0  0  0
  147.8613  135.2125  160.2911 N   0  0  0  0  0  0  0  0  0  0  0  0
  148.0978  136.0796  161.4503 C   0  0  0  0  0  0  0  0  0  0  0  0
  146.8929  136.1833  162.4146 C   0  0  1  0  0  0  0  0  0  0  0  0
  145.7507  137.0598  161.8758 C   0  0  0  0  0  0  0  0  0  0  0  0
  146.4123  134.7833  162.8312 C   0  0  0  0  0  0  0  0  0  0  0  0
  146.2026  133.8832  161.6038 C   0  0  2  0  0  0  0  0  0  0  0  0
  145.7971  132.4613  162.0147 C   0  0  0  0  0  0  0  0  0  0  0  0
  147.4800  133.8752  160.7456 C   0  0  0  0  0  0  0  0  0  0  0  0
  149.5902  136.0417  158.8448 N   0  0  0  0  0  0  0  0  0  0  0  0
  149.7485  136.0221  157.4684 C   0  0  0  0  0  0  0  0  0  0  0  0
  148.7030  135.3959  156.8712 C   0  0  0  0  0  0  0  0  0  0  0  0
  148.6290  135.2063  155.4147 C   0  0  0  0  0  0  0  0  0  0  0  0
  147.6981  134.6388  154.8476 O   0  0  0  0  0  0  0  0  0  0  0  0
  149.6966  135.7189  154.7564 N   0  0  0  0  0  0  0  0  0  0  0  0
  150.7779  136.3589  155.2965 C   0  0  0  0  0  0  0  0  0  0  0  0
  151.6797  136.7671  154.5648 O   0  0  0  0  0  0  0  0  0  0  0  0
  150.8093  136.5181  156.6580 N   0  0  0  0  0  0  0  0  0  0  0  0
  151.9462  137.1902  157.2899 C   0  0  0  0  0  0  0  0  0  0  0  0
  149.6952  135.6140  153.7523 H   0  0  0  0  0  0  0  0  0  0  0  0
  143.4567  131.6721  158.2647 H   0  0  0  0  0  0  0  0  0  0  0  0
  144.4105  133.0673  157.7634 H   0  0  0  0  0  0  0  0  0  0  0  0
  144.7151  132.3068  159.3238 H   0  0  0  0  0  0  0  0  0  0  0  0
  145.4974  130.2197  158.1525 H   0  0  0  0  0  0  0  0  0  0  0  0
  145.1945  130.9842  156.5936 H   0  0  0  0  0  0  0  0  0  0  0  0
  147.8251  133.0020  156.4022 H   0  0  0  0  0  0  0  0  0  0  0  0
  146.0982  132.9049  156.0760 H   0  0  0  0  0  0  0  0  0  0  0  0
  145.8258  134.8238  157.2959 H   0  0  0  0  0  0  0  0  0  0  0  0
  146.2272  133.9219  158.7076 H   0  0  0  0  0  0  0  0  0  0  0  0
  148.9504  135.6704  161.9941 H   0  0  0  0  0  0  0  0  0  0  0  0
  148.4141  137.0711  161.1284 H   0  0  0  0  0  0  0  0  0  0  0  0
  147.2493  136.6814  163.3171 H   0  0  0  0  0  0  0  0  0  0  0  0
  145.3259  136.6546  160.9589 H   0  0  0  0  0  0  0  0  0  0  0  0
  146.0977  138.0718  161.6677 H   0  0  0  0  0  0  0  0  0  0  0  0
  144.9433  137.1390  162.6042 H   0  0  0  0  0  0  0  0  0  0  0  0
  147.1608  134.3312  163.4835 H   0  0  0  0  0  0  0  0  0  0  0  0
  145.4964  134.8521  163.4194 H   0  0  0  0  0  0  0  0  0  0  0  0
  145.3903  134.2926  161.0024 H   0  0  0  0  0  0  0  0  0  0  0  0
  146.5708  131.9871  162.6194 H   0  0  0  0  0  0  0  0  0  0  0  0
  145.6276  131.8336  161.1395 H   0  0  0  0  0  0  0  0  0  0  0  0
  144.8759  132.4692  162.5978 H   0  0  0  0  0  0  0  0  0  0  0  0
  147.3227  133.2370  159.8750 H   0  0  0  0  0  0  0  0  0  0  0  0
  148.3103  133.4383  161.3025 H   0  0  0  0  0  0  0  0  0  0  0  0
  152.0881  138.1861  156.8682 H   0  0  0  0  0  0  0  0  0  0  0  0
  152.8616  136.6192  157.1305 H   0  0  0  0  0  0  0  0  0  0  0  0
  151.8178  137.3105  158.3655 H   0  0  0  0  0  0  0  0  0  0  0  0
  1  2  1  0  0  0  0
  1 27  1  0  0  0  0
  1 28  1  0  0  0  0
  1 29  1  0  0  0  0
  2  3  1  0  0  0  0
  2 30  1  0  0  0  0
  2 31  1  0  0  0  0
  3  4  1  0  0  0  0
  4  5  1  0  0  0  0
  4 32  1  0  0  0  0
  4 33  1  0  0  0  0
  5  6  1  0  0  0  0
  5 34  1  0  0  0  0
  5 35  1  0  0  0  0
  6 18  1  0  0  0  0
  6  7  1  0  0  0  0
  7  8  1  0  0  0  0
  7 16  2  0  0  0  0
  8 15  1  0  0  0  0
  8  9  1  0  0  0  0
  9 10  1  0  0  0  0
  9 36  1  0  0  0  0
  9 37  1  0  0  0  0
 10 11  1  0  0  0  0
 10 12  1  0  0  0  0
 10 38  1  0  0  0  0
 11 39  1  0  0  0  0
 11 40  1  0  0  0  0
 11 41  1  0  0  0  0
 12 13  1  0  0  0  0
 12 42  1  0  0  0  0
 12 43  1  0  0  0  0
 13 14  1  0  0  0  0
 13 15  1  0  0  0  0
 13 44  1  0  0  0  0
 14 45  1  0  0  0  0
 14 46  1  0  0  0  0
 14 47  1  0  0  0  0
 15 48  1  0  0  0  0
 15 49  1  0  0  0  0
 16 17  1  0  0  0  0
 17 24  1  0  0  0  0
 17 18  2  0  0  0  0
 18 19  1  0  0  0  0
 19 20  2  0  0  0  0
 19 21  1  0  0  0  0
 21 26  1  0  0  0  0
 21 22  1  0  0  0  0
 22 23  2  0  0  0  0
 22 24  1  0  0  0  0
 24 25  1  0  0  0  0
 25 50  1  0  0  0  0
 25 51  1  0  0  0  0
 25 52  1  0  0  0  0
M  END
> <s_m_source_file>
AV-unprocessed.smi

> <i_m_source_file_index>
546

> <i_lp_mmshare_version>
43012

> <i_f3d_flags>
0

> <s_epik_input>
W0NIM11uMWMoPU8pW25IXWMoPU8pYyhjMTIpbihbQ0gyXVtDSDJdT1tDSDJdW0NIM10pYyhuMilOM1tDSDJdW0NAQEhdKFtDSDNdKVtDSDJdW0NAQEhdKFtDSDNdKVtDSDJdMw==

> <s_epik_cmdline>
J2VwaWtfcHl0aG9uJywgJy1waCcsICc3LjAnLCAnLXRuJywgJzgnLCAnLW1hJywgJzIwMCcsICctbWV0YWxfYmluZGluZycsICctaW1hZScsICc8aW5maWxlLm1hZT4nLCAnLW9tYWUnLCAnPG91dGZpbGUubWFlPic=

> <r_lp_tautomer_probability>
1

> <r_epik_Ionization_Penalty>
0.000576472

> <r_epik_Ionization_Penalty_Charging>
0.000118943

> <r_epik_Ionization_Penalty_Neutral>
0.000457529

> <r_epik_State_Penalty>
-0

> <r_epik_Charging_Adjusted_Penalty>
0.000118943

> <i_epik_Tot_Q>
0

> <i_epik_Tot_abs_Q>
0

> <r_epik_Metal_State_Penalty>
0.0916165

> <b_epik_Metal_Only>
0

> <s_lp_Force_Field>
OPLS_2005

> <r_lp_Energy>
39.3864

> <b_lp_Chiralities_Consistent>
1

> <s_lp_Variant>
AV-unprocessed.smi:546-3

> <Gold.Version>
5.8.1

> <Gold.Id.Protein>
6NUR|6NUR_protein|mol2

> <Gold.PLP.Fitness>
35.9826

> <Gold.PLP.PLP>
-29.1803

> <Gold.PLP.part.hbond>
-3.0000

> <Gold.PLP.part.metal>
0.0000

> <Gold.PLP.part.buried>
-5.4904

> <Gold.PLP.part.nonpolar>
-21.1007

> <Gold.PLP.part.repulsive>
0.3455

> <Gold.PLP.ligand.clash>
0.0000

> <Gold.PLP.ligand.torsion>
1.3557

> <Gold.PLP.Chemscore.Hbond>
3.0000

> <Gold.PLP.Chemscore.CHOScore>
0.0000

> <Gold.PLP.Chemscore.Metal>
0.0000

> <Gold.Chemscore.Hbonds>
donor molecule, donor type, donor heavy atom, donor atom, acceptor molecule, acceptor atom, score
      L1  H    21    26       P1  7948  0.75
      P1  H  6896  6907       L1    16  0.75
      P1  H 10752 10764       L1    23  1.00

> <Gold.PLP.Chemscore.Internal.Correction>
0.5136

> <Gold.Rescore>
     Score         DG    S(hbond)    S(metal)    S(lipo)     H(rot)  DE(clash)    DE(int)     intcor
     16.48     -17.99       2.85        0.00      59.47       1.55       0.18       1.32       ----

> <Gold.Chemscore.Fitness>
16.4836

> <Gold.Chemscore.DG>
-17.9862

> <Gold.Chemscore.ZeroCoef>
-5.4800

> <Gold.Chemscore.Hbond>
2.8464

> <Gold.Chemscore.Metal>
0.0000

> <Gold.Chemscore.Lipo>
59.4723

> <Gold.Chemscore.Internal_Hbond>
0.0000

> <Gold.Chemscore.DEClash>
0.1845

> <Gold.Chemscore.DEInternal>
1.3182

> <Gold.Chemscore.Rot>
1.5465

> <Gold.Chemscore.Internal.Correction>
   9.000000E+99

> <Gold.Chemscore.Hbonds>
donor molecule, donor type, donor heavy atom, donor atom, acceptor molecule, acceptor atom, score
      L1  H    21    26       P1  7948  0.12
      P1  H  6896  6907       L1    16  0.05
      P1  H 10752 10764       L1    23  0.65

> <Gold.Chemscore.Hbond.Weighted>
-9.5071

> <Gold.Chemscore.Metal.Weighted>
-0.0000

> <Gold.Chemscore.Lipo.Weighted>
-6.9583

> <Gold.Chemscore.Internal_Hbond.Weighted>
0.0000

> <Gold.Chemscore.DEClash.Weighted>
0.1845

> <Gold.Chemscore.DEInternal.Weighted>
1.3182

> <Gold.Chemscore.Rot.Weighted>
3.9591

> <Gold.Chemscore.Internal.Correction.Weighted>
   9.000000E+99

> <Gold.Protein.RotatedTorsions>
[ 6907 6896 6895 6894 ] final  -71.61 input  -60.11 | X-H torsion
[ 7974 7965 7964 7962 ] final   28.79 input  175.53 | X-H torsion
[ 8008 7997 7996 7995 ] final  -81.40 input   59.86 | X-H torsion
[ 10167 10162 10161 10158 ] final  148.84 input  -65.29 | X-H torsion
[ 10718 10713 10712 10709 ] final   92.93 input   66.30 | X-H torsion
[ 10763 10752 10751 10750 ] final  -60.29 input  -60.55 | X-H torsion
[ 11005 11000 10999 10996 ] final  -91.03 input  -57.11 | X-H torsion

> <Gold.Protein.ActiveResidues>
 VAL166  LYS551  ARG553  GLY616  TRP617  ASP618  TYR619  PRO620  LYS621  CYS622 
 ASP623  PHE694  ASN695  SER759  ASP760  ASP761  ALA762  ILE779  LEU786  VAL792 
 PHE793  MET794  SER795  GLU796  ALA797  LYS798  CYS799  TRP800  GLU811  SER814 

> <Gold.Protein.RotatedAtoms>
  150.7205  134.5283  159.5687 H   0  0  0  0  0  0  0  0  0  0  0  0  # atno 6907 bound_to 6896
  152.2822  134.7813  160.0403 H   0  0  0  0  0  0  0  0  0  0  0  0  # atno 6908 bound_to 6896
  151.8455  133.3395  159.3693 H   0  0  0  0  0  0  0  0  0  0  0  0  # atno 6909 bound_to 6896
  146.1709  139.7008  142.8968 H   0  0  0  0  0  0  0  0  0  0  0  0  # atno 7974 bound_to 7965
  154.5979  140.0648  156.9329 H   0  0  0  0  0  0  0  0  0  0  0  0  # atno 8008 bound_to 7997
  155.2182  140.3328  155.4301 H   0  0  0  0  0  0  0  0  0  0  0  0  # atno 8009 bound_to 7997
  156.2299  140.1836  156.7252 H   0  0  0  0  0  0  0  0  0  0  0  0  # atno 8010 bound_to 7997
  139.4869  144.5648  151.7165 H   0  0  0  0  0  0  0  0  0  0  0  0  # atno 10167 bound_to 10162
  157.6957  131.0460  150.3957 H   0  0  0  0  0  0  0  0  0  0  0  0  # atno 10718 bound_to 10713
  154.2668  135.6298  153.5295 H   0  0  0  0  0  0  0  0  0  0  0  0  # atno 10763 bound_to 10752
  152.9886  135.5601  154.5643 H   0  0  0  0  0  0  0  0  0  0  0  0  # atno 10764 bound_to 10752
  154.5205  135.2882  155.1242 H   0  0  0  0  0  0  0  0  0  0  0  0  # atno 10765 bound_to 10752
  141.1553  133.7730  156.9822 H   0  0  0  0  0  0  0  0  0  0  0  0  # atno 11005 bound_to 11000
  145.4344  141.0417  143.2893 LP  0  0  0  0  0  0  0  0  0  0  0  0  # atno 17320 bound_to 7965
  144.8161  139.5874  143.7008 LP  0  0  0  0  0  0  0  0  0  0  0  0  # atno 17321 bound_to 7965
  140.5224  144.0858  150.6027 LP  0  0  0  0  0  0  0  0  0  0  0  0  # atno 17342 bound_to 10162
  140.3820  143.2797  152.0159 LP  0  0  0  0  0  0  0  0  0  0  0  0  # atno 17343 bound_to 10162
  156.4355  130.3981  149.6731 LP  0  0  0  0  0  0  0  0  0  0  0  0  # atno 17370 bound_to 10713
  156.3934  130.7638  151.2641 LP  0  0  0  0  0  0  0  0  0  0  0  0  # atno 17371 bound_to 10713
  140.1058  134.9507  157.1992 LP  0  0  0  0  0  0  0  0  0  0  0  0  # atno 17394 bound_to 11000
  140.3258  134.2865  155.7237 LP  0  0  0  0  0  0  0  0  0  0  0  0  # atno 17395 bound_to 11000

$$$$
