AV-unprocessed.smi:869|AV-procd|sdf|4003|dock5
  -GOLD-   22720 1483D 1   1.00000     0.00000
 Structure written by MMmdl.
 46 48  0  0  0  0  0  0  0  0  1 V2000
  140.4208  136.6425  153.9690 C   0  0  0  0  0  0  0  0  0  0  0  0
  141.4481  135.6751  153.8473 O   0  0  0  0  0  0  0  0  0  0  0  0
  142.7121  136.2607  153.5721 C   0  0  0  0  0  0  0  0  0  0  0  0
  143.4919  135.3230  152.6944 C   0  0  0  0  0  0  0  0  0  0  0  0
  142.9364  134.2917  152.0529 N   0  0  0  0  0  0  0  0  0  0  0  0
  144.0074  133.7321  151.3850 C   0  0  0  0  0  0  0  0  0  0  0  0
  144.0723  132.6074  150.5315 C   0  0  0  0  0  0  0  0  0  0  0  0
  145.2992  132.2200  149.9535 C   0  0  0  0  0  0  0  0  0  0  0  0
  146.4756  132.9503  150.2194 C   0  0  0  0  0  0  0  0  0  0  0  0
  146.4325  134.0744  151.0664 C   0  0  0  0  0  0  0  0  0  0  0  0
  145.2055  134.4558  151.6417 C   0  0  0  0  0  0  0  0  0  0  0  0
  144.8258  135.4827  152.4998 N   0  0  0  0  0  0  0  0  0  0  0  0
  145.7069  136.5042  153.0519 C   0  0  0  0  0  0  0  0  0  0  0  0
  145.9137  137.6915  152.0899 C   0  0  2  0  0  0  0  0  0  0  0  0
  146.7616  137.2895  151.0320 O   0  0  0  0  0  0  0  0  0  0  0  0
  146.5547  138.8966  152.7959 C   0  0  0  0  0  0  0  0  0  0  0  0
  147.8267  138.5097  153.2994 O   0  0  0  0  0  0  0  0  0  0  0  0
  148.5389  139.4226  154.0473 C   0  0  0  0  0  0  0  0  0  0  0  0
  149.8176  139.0272  154.4911 C   0  0  0  0  0  0  0  0  0  0  0  0
  150.6146  139.8950  155.2620 C   0  0  0  0  0  0  0  0  0  0  0  0
  150.1384  141.1764  155.6022 C   0  0  0  0  0  0  0  0  0  0  0  0
  150.9918  142.1139  156.4312 C   0  0  0  0  0  0  0  0  0  0  0  0
  148.8636  141.5834  155.1620 C   0  0  0  0  0  0  0  0  0  0  0  0
  148.0675  140.7153  154.3896 C   0  0  0  0  0  0  0  0  0  0  0  0
  139.4733  136.1460  154.1787 H   0  0  0  0  0  0  0  0  0  0  0  0
  140.3055  137.2135  153.0465 H   0  0  0  0  0  0  0  0  0  0  0  0
  140.6265  137.3350  154.7865 H   0  0  0  0  0  0  0  0  0  0  0  0
  142.5876  137.2153  153.0587 H   0  0  0  0  0  0  0  0  0  0  0  0
  143.2577  136.4335  154.5006 H   0  0  0  0  0  0  0  0  0  0  0  0
  143.1763  132.0421  150.3219 H   0  0  0  0  0  0  0  0  0  0  0  0
  145.3377  131.3586  149.3031 H   0  0  0  0  0  0  0  0  0  0  0  0
  147.4113  132.6470  149.7731 H   0  0  0  0  0  0  0  0  0  0  0  0
  147.3315  134.6357  151.2726 H   0  0  0  0  0  0  0  0  0  0  0  0
  145.2645  136.8561  153.9844 H   0  0  0  0  0  0  0  0  0  0  0  0
  146.6643  136.0595  153.3234 H   0  0  0  0  0  0  0  0  0  0  0  0
  144.9483  137.9841  151.6749 H   0  0  0  0  0  0  0  0  0  0  0  0
  147.5723  136.9753  151.4025 H   0  0  0  0  0  0  0  0  0  0  0  0
  146.7036  139.7013  152.0738 H   0  0  0  0  0  0  0  0  0  0  0  0
  145.9028  139.2732  153.5862 H   0  0  0  0  0  0  0  0  0  0  0  0
  150.1926  138.0466  154.2374 H   0  0  0  0  0  0  0  0  0  0  0  0
  151.5916  139.5724  155.5911 H   0  0  0  0  0  0  0  0  0  0  0  0
  151.5463  142.7910  155.7815 H   0  0  0  0  0  0  0  0  0  0  0  0
  151.7064  141.5582  157.0391 H   0  0  0  0  0  0  0  0  0  0  0  0
  150.3713  142.7103  157.1007 H   0  0  0  0  0  0  0  0  0  0  0  0
  148.4911  142.5651  155.4154 H   0  0  0  0  0  0  0  0  0  0  0  0
  147.0975  141.0663  154.0727 H   0  0  0  0  0  0  0  0  0  0  0  0
  1  2  1  0  0  0  0
  1 25  1  0  0  0  0
  1 26  1  0  0  0  0
  1 27  1  0  0  0  0
  2  3  1  0  0  0  0
  3  4  1  0  0  0  0
  3 28  1  0  0  0  0
  3 29  1  0  0  0  0
  4 12  1  0  0  0  0
  4  5  2  0  0  0  0
  5  6  1  0  0  0  0
  6 11  2  0  0  0  0
  6  7  1  0  0  0  0
  7  8  2  0  0  0  0
  7 30  1  0  0  0  0
  8  9  1  0  0  0  0
  8 31  1  0  0  0  0
  9 10  2  0  0  0  0
  9 32  1  0  0  0  0
 10 11  1  0  0  0  0
 10 33  1  0  0  0  0
 11 12  1  0  0  0  0
 12 13  1  0  0  0  0
 13 14  1  0  0  0  0
 13 34  1  0  0  0  0
 13 35  1  0  0  0  0
 14 15  1  0  0  0  0
 14 16  1  0  0  0  0
 14 36  1  0  0  0  0
 15 37  1  0  0  0  0
 16 17  1  0  0  0  0
 16 38  1  0  0  0  0
 16 39  1  0  0  0  0
 17 18  1  0  0  0  0
 18 24  1  0  0  0  0
 18 19  2  0  0  0  0
 19 20  1  0  0  0  0
 19 40  1  0  0  0  0
 20 21  2  0  0  0  0
 20 41  1  0  0  0  0
 21 22  1  0  0  0  0
 21 23  1  0  0  0  0
 22 42  1  0  0  0  0
 22 43  1  0  0  0  0
 22 44  1  0  0  0  0
 23 24  2  0  0  0  0
 23 45  1  0  0  0  0
 24 46  1  0  0  0  0
M  END
> <s_m_source_file>
AV-unprocessed.smi

> <i_m_source_file_index>
869

> <i_lp_mmshare_version>
43012

> <i_f3d_flags>
0

> <s_epik_input>
W2NIXTFbY0hdW2NIXVtjSF1jKGMxMiluKGMobjIpW0NIMl1PW0NIM10pW0NIMl1bQ0BIXShbT0hdKVtDSDJdT2MzW2NIXVtjSF1jKFtDSDNdKVtjSF1bY0hdMw==

> <s_epik_cmdline>
J2VwaWtfcHl0aG9uJywgJy1waCcsICc3LjAnLCAnLXRuJywgJzgnLCAnLW1hJywgJzIwMCcsICctbWV0YWxfYmluZGluZycsICctaW1hZScsICc8aW5maWxlLm1hZT4nLCAnLW9tYWUnLCAnPG91dGZpbGUubWFlPic=

> <r_lp_tautomer_probability>
1

> <r_epik_Ionization_Penalty>
0.0446698

> <r_epik_Ionization_Penalty_Charging>
0

> <r_epik_Ionization_Penalty_Neutral>
0.0446698

> <r_epik_State_Penalty>
0.0378721

> <r_epik_Charging_Adjusted_Penalty>
0.0378721

> <i_epik_Tot_Q>
0

> <i_epik_Tot_abs_Q>
0

> <r_epik_Metal_State_Penalty>
3.91074e-05

> <b_epik_Metal_Only>
0

> <s_lp_Force_Field>
OPLS_2005

> <r_lp_Energy>
18.3229

> <b_lp_Chiralities_Consistent>
1

> <s_lp_Variant>
AV-unprocessed.smi:869-1

> <Gold.Version>
5.8.1

> <Gold.Id.Protein>
6NUR|6NUR_protein|mol2

> <Gold.PLP.Fitness>
46.6207

> <Gold.PLP.PLP>
-45.1787

> <Gold.PLP.part.hbond>
-2.1310

> <Gold.PLP.part.metal>
0.0000

> <Gold.PLP.part.buried>
-6.2835

> <Gold.PLP.part.nonpolar>
-37.9481

> <Gold.PLP.part.repulsive>
1.7970

> <Gold.PLP.ligand.clash>
0.0000

> <Gold.PLP.ligand.torsion>
0.8355

> <Gold.PLP.Chemscore.Hbond>
1.0000

> <Gold.PLP.Chemscore.CHOScore>
0.0000

> <Gold.PLP.Chemscore.Metal>
0.0000

> <Gold.Chemscore.Hbonds>
donor molecule, donor type, donor heavy atom, donor atom, acceptor molecule, acceptor atom, score
      L1  H    15    37       P1  7948  1.00

> <Gold.PLP.Chemscore.Internal.Correction>
0.1130

> <Gold.Rescore>
     Score         DG    S(hbond)    S(metal)    S(lipo)     H(rot)  DE(clash)    DE(int)     intcor
     15.51     -16.98       0.99        0.00     121.68       2.36       0.70       0.77       ----

> <Gold.Chemscore.Fitness>
15.5094

> <Gold.Chemscore.DG>
-16.9825

> <Gold.Chemscore.ZeroCoef>
-5.4800

> <Gold.Chemscore.Hbond>
0.9892

> <Gold.Chemscore.Metal>
0.0000

> <Gold.Chemscore.Lipo>
121.6791

> <Gold.Chemscore.Internal_Hbond>
0.0000

> <Gold.Chemscore.DEClash>
0.7018

> <Gold.Chemscore.DEInternal>
0.7714

> <Gold.Chemscore.Rot>
2.3585

> <Gold.Chemscore.Internal.Correction>
   9.000000E+99

> <Gold.Chemscore.Hbonds>
donor molecule, donor type, donor heavy atom, donor atom, acceptor molecule, acceptor atom, score
      L1  H    15    37       P1  7948  0.98

> <Gold.Chemscore.Hbond.Weighted>
-3.3039

> <Gold.Chemscore.Metal.Weighted>
-0.0000

> <Gold.Chemscore.Lipo.Weighted>
-14.2365

> <Gold.Chemscore.Internal_Hbond.Weighted>
0.0000

> <Gold.Chemscore.DEClash.Weighted>
0.7018

> <Gold.Chemscore.DEInternal.Weighted>
0.7714

> <Gold.Chemscore.Rot.Weighted>
6.0378

> <Gold.Chemscore.Internal.Correction.Weighted>
   9.000000E+99

> <Gold.Protein.RotatedTorsions>
[ 6907 6896 6895 6894 ] final  125.71 input  -60.11 | X-H torsion
[ 7974 7965 7964 7962 ] final  -90.47 input  175.53 | X-H torsion
[ 8008 7997 7996 7995 ] final -114.73 input   59.86 | X-H torsion
[ 10167 10162 10161 10158 ] final -151.53 input  -65.29 | X-H torsion
[ 10718 10713 10712 10709 ] final  114.15 input   66.30 | X-H torsion
[ 10763 10752 10751 10750 ] final   -1.60 input  -60.55 | X-H torsion
[ 11005 11000 10999 10996 ] final   66.87 input  -57.11 | X-H torsion

> <Gold.Protein.ActiveResidues>
 VAL166  LYS551  ARG553  GLY616  TRP617  ASP618  TYR619  PRO620  LYS621  CYS622 
 ASP623  PHE694  ASN695  SER759  ASP760  ASP761  ALA762  ILE779  LEU786  VAL792 
 PHE793  MET794  SER795  GLU796  ALA797  LYS798  CYS799  TRP800  GLU811  SER814 

> <Gold.Protein.RotatedAtoms>
  152.3968  133.6759  159.6282 H   0  0  0  0  0  0  0  0  0  0  0  0  # atno 6907 bound_to 6896
  150.7866  133.8860  159.3308 H   0  0  0  0  0  0  0  0  0  0  0  0  # atno 6908 bound_to 6896
  151.6634  135.0987  160.0235 H   0  0  0  0  0  0  0  0  0  0  0  0  # atno 6909 bound_to 6896
  145.4260  140.9553  143.2155 H   0  0  0  0  0  0  0  0  0  0  0  0  # atno 7974 bound_to 7965
  155.0409  140.0392  157.2509 H   0  0  0  0  0  0  0  0  0  0  0  0  # atno 8008 bound_to 7997
  154.7218  140.2713  155.6511 H   0  0  0  0  0  0  0  0  0  0  0  0  # atno 8009 bound_to 7997
  156.2818  140.2701  156.1891 H   0  0  0  0  0  0  0  0  0  0  0  0  # atno 8010 bound_to 7997
  139.7259  143.8884  152.2519 H   0  0  0  0  0  0  0  0  0  0  0  0  # atno 10167 bound_to 10162
  157.6297  131.0994  150.7144 H   0  0  0  0  0  0  0  0  0  0  0  0  # atno 10718 bound_to 10713
  153.3470  135.6983  153.6820 H   0  0  0  0  0  0  0  0  0  0  0  0  # atno 10763 bound_to 10752
  153.5562  135.3544  155.2781 H   0  0  0  0  0  0  0  0  0  0  0  0  # atno 10764 bound_to 10752
  154.8647  135.4238  154.2696 H   0  0  0  0  0  0  0  0  0  0  0  0  # atno 10765 bound_to 10752
  139.9805  134.6752  156.0272 H   0  0  0  0  0  0  0  0  0  0  0  0  # atno 11005 bound_to 11000
  144.8214  139.5785  143.6985 LP  0  0  0  0  0  0  0  0  0  0  0  0  # atno 17320 bound_to 7965
  146.2632  139.6459  142.9347 LP  0  0  0  0  0  0  0  0  0  0  0  0  # atno 17321 bound_to 7965
  139.8793  144.7026  150.8896 LP  0  0  0  0  0  0  0  0  0  0  0  0  # atno 17342 bound_to 10162
  140.7762  143.3674  151.1713 LP  0  0  0  0  0  0  0  0  0  0  0  0  # atno 17343 bound_to 10162
  156.7486  130.4761  149.5461 LP  0  0  0  0  0  0  0  0  0  0  0  0  # atno 17370 bound_to 10713
  156.1493  130.6299  151.0574 LP  0  0  0  0  0  0  0  0  0  0  0  0  # atno 17371 bound_to 10713
  141.1477  133.6553  156.3919 LP  0  0  0  0  0  0  0  0  0  0  0  0  # atno 17394 bound_to 11000
  140.5106  134.6398  157.5283 LP  0  0  0  0  0  0  0  0  0  0  0  0  # atno 17395 bound_to 11000

$$$$
