AV-unprocessed.smi:686|AV-procd|sdf|3352|dock9
  -GOLD-   22720 0323D 1   1.00000     0.00000
 Structure written by MMmdl.
 40 41  0  0  0  0  0  0  0  0  3 V2000
  147.0696  140.5818  156.2968 C   0  0  0  0  0  0  0  0  0  0  0  0
  148.0325  141.1719  157.3456 C   0  0  1  0  0  0  0  0  0  0  0  0
  149.3635  141.6581  156.7456 C   0  0  0  0  0  0  0  0  0  0  0  0
  149.7441  142.9016  157.4637 N   0  3  2  0  0  0  0  0  0  0  0  0
  151.1881  143.0227  157.8131 C   0  0  0  0  0  0  0  0  0  0  0  0
  151.6206  141.9460  158.8269 C   0  0  0  0  0  0  0  0  0  0  0  0
  151.5070  144.4193  158.3794 C   0  0  0  0  0  0  0  0  0  0  0  0
  148.7996  143.0522  158.5912 C   0  0  0  0  0  0  0  0  0  0  0  0
  147.5052  142.3919  158.1152 C   0  0  2  0  0  0  0  0  0  0  0  0
  146.6534  141.9909  159.2249 N   0  5  0  0  0  0  0  0  0  0  0  0
  145.1526  142.5951  159.3551 S   0  0  0  0  0  0  0  0  0  0  0  0
  144.8872  143.6630  158.3767 O   0  0  0  0  0  0  0  0  0  0  0  0
  144.1401  141.5347  159.4819 O   0  0  0  0  0  0  0  0  0  0  0  0
  145.2462  143.4072  161.0109 C   0  0  0  0  0  0  0  0  0  0  0  0
  146.5002  144.2310  161.1252 C   0  0  0  0  0  0  0  0  0  0  0  0
  146.7044  145.5870  160.7456 C   0  0  0  0  0  0  0  0  0  0  0  0
  148.0106  145.8163  161.0677 C   0  0  0  0  0  0  0  0  0  0  0  0
  148.5729  144.6996  161.5943 O   0  0  0  0  0  0  0  0  0  0  0  0
  147.6024  143.6915  161.6232 N   0  0  0  0  0  0  0  0  0  0  0  0
  146.8090  141.3049  155.5217 H   0  0  0  0  0  0  0  0  0  0  0  0
  146.1415  140.2291  156.7503 H   0  0  0  0  0  0  0  0  0  0  0  0
  147.5266  139.7260  155.7994 H   0  0  0  0  0  0  0  0  0  0  0  0
  148.2729  140.3866  158.0656 H   0  0  0  0  0  0  0  0  0  0  0  0
  150.1183  140.8773  156.8515 H   0  0  0  0  0  0  0  0  0  0  0  0
  149.2761  141.8841  155.6814 H   0  0  0  0  0  0  0  0  0  0  0  0
  151.7699  142.8803  156.9010 H   0  0  0  0  0  0  0  0  0  0  0  0
  152.6647  142.0760  159.1132 H   0  0  0  0  0  0  0  0  0  0  0  0
  151.5304  140.9392  158.4186 H   0  0  0  0  0  0  0  0  0  0  0  0
  151.0208  141.9938  159.7367 H   0  0  0  0  0  0  0  0  0  0  0  0
  152.5585  144.4963  158.6578 H   0  0  0  0  0  0  0  0  0  0  0  0
  150.9139  144.6294  159.2702 H   0  0  0  0  0  0  0  0  0  0  0  0
  151.3132  145.2114  157.6565 H   0  0  0  0  0  0  0  0  0  0  0  0
  149.1937  142.5352  159.4688 H   0  0  0  0  0  0  0  0  0  0  0  0
  148.6532  144.1015  158.8489 H   0  0  0  0  0  0  0  0  0  0  0  0
  146.9995  143.0623  157.4187 H   0  0  0  0  0  0  0  0  0  0  0  0
  144.3612  144.0343  161.1202 H   0  0  0  0  0  0  0  0  0  0  0  0
  145.1975  142.6387  161.7818 H   0  0  0  0  0  0  0  0  0  0  0  0
  145.9998  146.2811  160.3119 H   0  0  0  0  0  0  0  0  0  0  0  0
  148.6549  146.6793  160.9857 H   0  0  0  0  0  0  0  0  0  0  0  0
  149.5278  143.6594  156.8321 H   0  0  0  0  0  0  0  0  0  0  0  0
  1  2  1  0  0  0  0
  1 20  1  0  0  0  0
  1 21  1  0  0  0  0
  1 22  1  0  0  0  0
  2  9  1  0  0  0  0
  2  3  1  0  0  0  0
  2 23  1  0  0  0  0
  3  4  1  0  0  0  0
  3 24  1  0  0  0  0
  3 25  1  0  0  0  0
  4  5  1  0  0  0  0
  4  8  1  0  0  0  0
  4 40  1  0  0  0  0
  5  6  1  0  0  0  0
  5  7  1  0  0  0  0
  5 26  1  0  0  0  0
  6 27  1  0  0  0  0
  6 28  1  0  0  0  0
  6 29  1  0  0  0  0
  7 30  1  0  0  0  0
  7 31  1  0  0  0  0
  7 32  1  0  0  0  0
  8  9  1  0  0  0  0
  8 33  1  0  0  0  0
  8 34  1  0  0  0  0
  9 10  1  0  0  0  0
  9 35  1  0  0  0  0
 10 11  1  0  0  0  0
 11 12  2  0  0  0  0
 11 13  2  0  0  0  0
 11 14  1  0  0  0  0
 14 15  1  0  0  0  0
 14 36  1  0  0  0  0
 14 37  1  0  0  0  0
 15 19  2  0  0  0  0
 15 16  1  0  0  0  0
 16 17  2  0  0  0  0
 16 38  1  0  0  0  0
 17 18  1  0  0  0  0
 17 39  1  0  0  0  0
 18 19  1  0  0  0  0
M  CHG  1   4   1
M  CHG  1  10  -1
M  END
> <s_m_source_file>
AV-unprocessed.smi

> <i_m_source_file_index>
686

> <i_lp_mmshare_version>
43012

> <i_f3d_flags>
0

> <s_epik_input>
W0NIM11bQ0BASF0xW0NIMl1OKFtDSF0oW0NIM10pW0NIM10pW0NIMl1bQ0BIXTFbTkhdUyg9TykoPU8pW0NIMl1jMltjSF1bY0hdb24y

> <s_epik_cmdline>
J2VwaWtfcHl0aG9uJywgJy1waCcsICc3LjAnLCAnLXRuJywgJzgnLCAnLW1hJywgJzIwMCcsICctbWV0YWxfYmluZGluZycsICctaW1hZScsICc8aW5maWxlLm1hZT4nLCAnLW9tYWUnLCAnPG91dGZpbGUubWFlPic=

> <r_epik_Ionization_Penalty>
3.62478

> <r_epik_Ionization_Penalty_Charging>
3.62478

> <r_epik_Ionization_Penalty_Neutral>
2.03645e-10

> <r_epik_State_Penalty>
3.6247

> <r_epik_Charging_Adjusted_Penalty>
7.24949

> <i_epik_Tot_Q>
0

> <i_epik_Tot_abs_Q>
2

> <r_epik_Metal_State_Penalty>
0.530836

> <b_epik_Metal_Only>
1

> <s_lp_Force_Field>
OPLS_2005

> <r_lp_Energy>
17.1192

> <b_lp_Chiralities_Consistent>
1

> <s_lp_Variant>
AV-unprocessed.smi:686-16

> <Gold.Version>
5.8.1

> <Gold.Id.Protein>
6NUR|6NUR_protein|mol2

> <Gold.PLP.Fitness>
43.5363

> <Gold.PLP.PLP>
-30.6467

> <Gold.PLP.part.hbond>
-3.6354

> <Gold.PLP.part.metal>
0.0000

> <Gold.PLP.part.buried>
-5.6709

> <Gold.PLP.part.nonpolar>
-21.7950

> <Gold.PLP.part.repulsive>
0.4383

> <Gold.PLP.ligand.clash>
0.0000

> <Gold.PLP.ligand.torsion>
1.1673

> <Gold.PLP.Chemscore.Hbond>
4.7280

> <Gold.PLP.Chemscore.CHOScore>
0.0000

> <Gold.PLP.Chemscore.Metal>
0.0000

> <Gold.Chemscore.Hbonds>
donor molecule, donor type, donor heavy atom, donor atom, acceptor molecule, acceptor atom, score
      L1  H     4    40       P1  8028  2.00
      P1  H  6933  6944       L1    19  1.00
      P1  H  6934  6946       L1    10  1.73

> <Gold.PLP.Chemscore.Internal.Correction>
1.0402

> <Gold.Rescore>
     Score         DG    S(hbond)    S(metal)    S(lipo)     H(rot)  DE(clash)    DE(int)     intcor
     14.65     -15.99       2.25        0.00      60.90       1.61       0.28       1.06       ----

> <Gold.Chemscore.Fitness>
14.6481

> <Gold.Chemscore.DG>
-15.9861

> <Gold.Chemscore.ZeroCoef>
-5.4800

> <Gold.Chemscore.Hbond>
2.2501

> <Gold.Chemscore.Metal>
0.0000

> <Gold.Chemscore.Lipo>
60.8968

> <Gold.Chemscore.Internal_Hbond>
0.0000

> <Gold.Chemscore.DEClash>
0.2753

> <Gold.Chemscore.DEInternal>
1.0627

> <Gold.Chemscore.Rot>
1.6149

> <Gold.Chemscore.Internal.Correction>
   9.000000E+99

> <Gold.Chemscore.Hbonds>
donor molecule, donor type, donor heavy atom, donor atom, acceptor molecule, acceptor atom, score
      L1  H     4    40       P1  8028  0.97
      P1  H  6933  6944       L1    19  0.34
      P1  H  6934  6946       L1    10  0.51

> <Gold.Chemscore.Hbond.Weighted>
-7.5152

> <Gold.Chemscore.Metal.Weighted>
-0.0000

> <Gold.Chemscore.Lipo.Weighted>
-7.1249

> <Gold.Chemscore.Internal_Hbond.Weighted>
0.0000

> <Gold.Chemscore.DEClash.Weighted>
0.2753

> <Gold.Chemscore.DEInternal.Weighted>
1.0627

> <Gold.Chemscore.Rot.Weighted>
4.1341

> <Gold.Chemscore.Internal.Correction.Weighted>
   9.000000E+99

> <Gold.Protein.RotatedTorsions>
[ 6907 6896 6895 6894 ] final  155.79 input  -60.11 | X-H torsion
[ 7974 7965 7964 7962 ] final -122.85 input  175.53 | X-H torsion
[ 8008 7997 7996 7995 ] final  157.90 input   59.86 | X-H torsion
[ 10167 10162 10161 10158 ] final    3.93 input  -65.29 | X-H torsion
[ 10718 10713 10712 10709 ] final   36.65 input   66.30 | X-H torsion
[ 10763 10752 10751 10750 ] final   15.52 input  -60.55 | X-H torsion
[ 11005 11000 10999 10996 ] final  -20.33 input  -57.11 | X-H torsion

> <Gold.Protein.ActiveResidues>
 VAL166  LYS551  ARG553  GLY616  TRP617  ASP618  TYR619  PRO620  LYS621  CYS622 
 ASP623  PHE694  ASN695  SER759  ASP760  ASP761  ALA762  ILE779  LEU786  VAL792 
 PHE793  MET794  SER795  GLU796  ALA797  LYS798  CYS799  TRP800  GLU811  SER814 

> <Gold.Protein.RotatedAtoms>
  152.0390  133.3969  159.4328 H   0  0  0  0  0  0  0  0  0  0  0  0  # atno 6907 bound_to 6896
  150.6877  134.3436  159.4888 H   0  0  0  0  0  0  0  0  0  0  0  0  # atno 6908 bound_to 6896
  152.1232  134.9190  160.0613 H   0  0  0  0  0  0  0  0  0  0  0  0  # atno 6909 bound_to 6896
  145.0249  140.8020  143.4358 H   0  0  0  0  0  0  0  0  0  0  0  0  # atno 7974 bound_to 7965
  156.2336  140.1873  156.7179 H   0  0  0  0  0  0  0  0  0  0  0  0  # atno 8008 bound_to 7997
  154.6066  140.0628  156.9466 H   0  0  0  0  0  0  0  0  0  0  0  0  # atno 8009 bound_to 7997
  155.2086  140.3298  155.4335 H   0  0  0  0  0  0  0  0  0  0  0  0  # atno 8010 bound_to 7997
  140.6561  143.7425  150.7655 H   0  0  0  0  0  0  0  0  0  0  0  0  # atno 10167 bound_to 10162
  157.3374  130.7530  149.6889 H   0  0  0  0  0  0  0  0  0  0  0  0  # atno 10718 bound_to 10713
  153.1517  135.6780  153.8872 H   0  0  0  0  0  0  0  0  0  0  0  0  # atno 10763 bound_to 10752
  153.8296  135.3119  155.3418 H   0  0  0  0  0  0  0  0  0  0  0  0  # atno 10764 bound_to 10752
  154.7867  135.4858  154.0049 H   0  0  0  0  0  0  0  0  0  0  0  0  # atno 10765 bound_to 10752
  140.8454  133.7896  155.9906 H   0  0  0  0  0  0  0  0  0  0  0  0  # atno 11005 bound_to 11000
  145.1846  139.2333  143.5274 LP  0  0  0  0  0  0  0  0  0  0  0  0  # atno 17320 bound_to 7965
  146.3491  140.1628  142.8590 LP  0  0  0  0  0  0  0  0  0  0  0  0  # atno 17321 bound_to 7965
  140.1084  143.4722  152.2384 LP  0  0  0  0  0  0  0  0  0  0  0  0  # atno 17342 bound_to 10162
  139.5783  144.7498  151.3705 LP  0  0  0  0  0  0  0  0  0  0  0  0  # atno 17343 bound_to 10162
  155.9703  130.4177  150.4294 LP  0  0  0  0  0  0  0  0  0  0  0  0  # atno 17370 bound_to 10713
  157.2336  131.0509  151.2478 LP  0  0  0  0  0  0  0  0  0  0  0  0  # atno 17371 bound_to 10713
  140.8849  134.2566  157.5125 LP  0  0  0  0  0  0  0  0  0  0  0  0  # atno 17394 bound_to 11000
  139.8703  134.9633  156.4458 LP  0  0  0  0  0  0  0  0  0  0  0  0  # atno 17395 bound_to 11000

$$$$
