AV-unprocessed.smi:760|AV-procd|sdf|3629|dock6
  -GOLD-   22720 1 23D 1   1.00000     0.00000
 Structure written by MMmdl.
 43 44  0  0  0  0  0  0  0  0  1 V2000
  152.2431  143.6247  161.6726 C   0  0  0  0  0  0  0  0  0  0  0  0
  152.2357  143.2461  160.3840 C   0  0  0  0  0  0  0  0  0  0  0  0
  151.3621  143.9330  159.3495 C   0  0  0  0  0  0  0  0  0  0  0  0
  153.0846  142.0842  159.8890 C   0  0  0  0  0  0  0  0  0  0  0  0
  152.3250  141.0261  159.2182 N   0  0  0  0  0  0  0  0  0  0  0  0
  153.0078  139.7285  159.2415 C   0  0  0  0  0  0  0  0  0  0  0  0
  152.1444  138.6462  158.5694 C   0  0  0  0  0  0  0  0  0  0  0  0
  151.7937  139.0255  157.1239 C   0  0  0  0  0  0  0  0  0  0  0  0
  150.8703  138.0426  156.5653 N   0  0  0  0  0  0  0  0  0  0  0  0
  151.1466  136.7462  156.3657 C   0  0  0  0  0  0  0  0  0  0  0  0
  152.2301  136.2297  156.6401 O   0  0  0  0  0  0  0  0  0  0  0  0
  150.0963  136.1012  155.8322 N   0  0  0  0  0  0  0  0  0  0  0  0
  150.0160  134.7306  155.4784 C   0  0  0  0  0  0  0  0  0  0  0  0
  150.8062  133.6998  156.0505 C   0  0  0  0  0  0  0  0  0  0  0  0
  150.5112  132.5212  155.5233 N   0  0  0  0  0  0  0  0  0  0  0  0
  149.5367  132.7769  154.6166 N   0  0  0  0  0  0  0  0  0  0  0  0
  148.9798  131.6841  153.8485 C   0  0  0  0  0  0  0  0  0  0  0  0
  149.2092  134.1171  154.5621 C   0  0  0  0  0  0  0  0  0  0  0  0
  151.1719  140.4316  157.1144 C   0  0  0  0  0  0  0  0  0  0  0  0
  152.0815  141.4412  157.8345 C   0  0  0  0  0  0  0  0  0  0  0  0
  151.6312  144.4434  162.0221 H   0  0  0  0  0  0  0  0  0  0  0  0
  152.8642  143.1194  162.3978 H   0  0  0  0  0  0  0  0  0  0  0  0
  150.6332  143.2273  158.9504 H   0  0  0  0  0  0  0  0  0  0  0  0
  151.9533  144.3139  158.5178 H   0  0  0  0  0  0  0  0  0  0  0  0
  150.8162  144.7703  159.7857 H   0  0  0  0  0  0  0  0  0  0  0  0
  153.8165  142.4837  159.1854 H   0  0  0  0  0  0  0  0  0  0  0  0
  153.6507  141.6725  160.7262 H   0  0  0  0  0  0  0  0  0  0  0  0
  153.9773  139.8063  158.7472 H   0  0  0  0  0  0  0  0  0  0  0  0
  153.1902  139.4193  160.2698 H   0  0  0  0  0  0  0  0  0  0  0  0
  152.6724  137.6921  158.5873 H   0  0  0  0  0  0  0  0  0  0  0  0
  151.2312  138.5045  159.1501 H   0  0  0  0  0  0  0  0  0  0  0  0
  152.7138  139.0351  156.5360 H   0  0  0  0  0  0  0  0  0  0  0  0
  149.9528  138.3771  156.3103 H   0  0  0  0  0  0  0  0  0  0  0  0
  149.2663  136.6489  155.6585 H   0  0  0  0  0  0  0  0  0  0  0  0
  151.5676  133.7653  156.8136 H   0  0  0  0  0  0  0  0  0  0  0  0
  148.1576  132.0432  153.2287 H   0  0  0  0  0  0  0  0  0  0  0  0
  148.6047  130.9119  154.5212 H   0  0  0  0  0  0  0  0  0  0  0  0
  149.7491  131.2567  153.2047 H   0  0  0  0  0  0  0  0  0  0  0  0
  148.4514  134.4966  153.8928 H   0  0  0  0  0  0  0  0  0  0  0  0
  151.0006  140.7612  156.0892 H   0  0  0  0  0  0  0  0  0  0  0  0
  150.1953  140.4126  157.6007 H   0  0  0  0  0  0  0  0  0  0  0  0
  151.6023  142.4211  157.8245 H   0  0  0  0  0  0  0  0  0  0  0  0
  153.0281  141.5432  157.3012 H   0  0  0  0  0  0  0  0  0  0  0  0
  1  2  2  0  0  0  0
  1 21  1  0  0  0  0
  1 22  1  0  0  0  0
  2  3  1  0  0  0  0
  2  4  1  0  0  0  0
  3 23  1  0  0  0  0
  3 24  1  0  0  0  0
  3 25  1  0  0  0  0
  4  5  1  0  0  0  0
  4 26  1  0  0  0  0
  4 27  1  0  0  0  0
  5 20  1  0  0  0  0
  5  6  1  0  0  0  0
  6  7  1  0  0  0  0
  6 28  1  0  0  0  0
  6 29  1  0  0  0  0
  7  8  1  0  0  0  0
  7 30  1  0  0  0  0
  7 31  1  0  0  0  0
  8  9  1  0  0  0  0
  8 19  1  0  0  0  0
  8 32  1  0  0  0  0
  9 10  1  0  0  0  0
  9 33  1  0  0  0  0
 10 11  2  0  0  0  0
 10 12  1  0  0  0  0
 12 13  1  0  0  0  0
 12 34  1  0  0  0  0
 13 18  2  0  0  0  0
 13 14  1  0  0  0  0
 14 15  2  0  0  0  0
 14 35  1  0  0  0  0
 15 16  1  0  0  0  0
 16 17  1  0  0  0  0
 16 18  1  0  0  0  0
 17 36  1  0  0  0  0
 17 37  1  0  0  0  0
 17 38  1  0  0  0  0
 18 39  1  0  0  0  0
 19 20  1  0  0  0  0
 19 40  1  0  0  0  0
 19 41  1  0  0  0  0
 20 42  1  0  0  0  0
 20 43  1  0  0  0  0
M  END
> <s_m_source_file>
AV-unprocessed.smi

> <i_m_source_file_index>
760

> <i_lp_mmshare_version>
43012

> <i_f3d_flags>
0

> <s_epik_input>
W0NIMl09QyhbQ0gzXSlbQ0gyXU4xW0NIMl1bQ0gyXVtDSF0oW0NIMl1bQ0gyXTEpW05IXUMoPU8pW05IXWMyW2NIXW5uKFtDSDNdKVtjSF0y

> <s_epik_cmdline>
J2VwaWtfcHl0aG9uJywgJy1waCcsICc3LjAnLCAnLXRuJywgJzgnLCAnLW1hJywgJzIwMCcsICctbWV0YWxfYmluZGluZycsICctaW1hZScsICc8aW5maWxlLm1hZT4nLCAnLW9tYWUnLCAnPG91dGZpbGUubWFlPic=

> <r_lp_tautomer_probability>
1

> <r_epik_Ionization_Penalty>
2.03709

> <r_epik_Ionization_Penalty_Charging>
0

> <r_epik_Ionization_Penalty_Neutral>
2.03709

> <r_epik_State_Penalty>
2.16834

> <r_epik_Charging_Adjusted_Penalty>
2.16834

> <i_epik_Tot_Q>
0

> <i_epik_Tot_abs_Q>
0

> <r_epik_Metal_State_Penalty>
2.16831

> <b_epik_Metal_Only>
0

> <s_lp_Force_Field>
OPLS_2005

> <r_lp_Energy>
20.5491

> <b_lp_Chiralities_Consistent>
1

> <s_lp_Variant>
AV-unprocessed.smi:760-3

> <Gold.Version>
5.8.1

> <Gold.Id.Protein>
6NUR|6NUR_protein|mol2

> <Gold.PLP.Fitness>
40.8857

> <Gold.PLP.PLP>
-35.7281

> <Gold.PLP.part.hbond>
-1.0000

> <Gold.PLP.part.metal>
0.0000

> <Gold.PLP.part.buried>
-5.1591

> <Gold.PLP.part.nonpolar>
-29.0556

> <Gold.PLP.part.repulsive>
0.0728

> <Gold.PLP.ligand.clash>
0.0000

> <Gold.PLP.ligand.torsion>
0.3948

> <Gold.PLP.Chemscore.Hbond>
1.0000

> <Gold.PLP.Chemscore.CHOScore>
0.9753

> <Gold.PLP.Chemscore.Metal>
0.0000

> <Gold.Chemscore.Hbonds>
donor molecule, donor type, donor heavy atom, donor atom, acceptor molecule, acceptor atom, score
      P1  H 10752 10764       L1    11  1.00
      L1  C    18    39       P1  7948  0.53

> <Gold.PLP.Chemscore.Internal.Correction>
0.0213

> <Gold.Rescore>
     Score         DG    S(hbond)    S(metal)    S(lipo)     H(rot)  DE(clash)    DE(int)     intcor
     14.87     -16.37       1.00        0.00      94.05       1.35       0.02       1.48       ----

> <Gold.Chemscore.Fitness>
14.8662

> <Gold.Chemscore.DG>
-16.3688

> <Gold.Chemscore.ZeroCoef>
-5.4800

> <Gold.Chemscore.Hbond>
0.9997

> <Gold.Chemscore.Metal>
0.0000

> <Gold.Chemscore.Lipo>
94.0487

> <Gold.Chemscore.Internal_Hbond>
0.0000

> <Gold.Chemscore.DEClash>
0.0234

> <Gold.Chemscore.DEInternal>
1.4793

> <Gold.Chemscore.Rot>
1.3491

> <Gold.Chemscore.Internal.Correction>
   9.000000E+99

> <Gold.Chemscore.Hbonds>
donor molecule, donor type, donor heavy atom, donor atom, acceptor molecule, acceptor atom, score
      P1  H 10752 10764       L1    11  0.91

> <Gold.Chemscore.Hbond.Weighted>
-3.3390

> <Gold.Chemscore.Metal.Weighted>
-0.0000

> <Gold.Chemscore.Lipo.Weighted>
-11.0037

> <Gold.Chemscore.Internal_Hbond.Weighted>
0.0000

> <Gold.Chemscore.DEClash.Weighted>
0.0234

> <Gold.Chemscore.DEInternal.Weighted>
1.4793

> <Gold.Chemscore.Rot.Weighted>
3.4538

> <Gold.Chemscore.Internal.Correction.Weighted>
   9.000000E+99

> <Gold.Protein.RotatedTorsions>
[ 6907 6896 6895 6894 ] final  -86.65 input  -60.11 | X-H torsion
[ 7974 7965 7964 7962 ] final  -70.98 input  175.53 | X-H torsion
[ 8008 7997 7996 7995 ] final  102.67 input   59.86 | X-H torsion
[ 10167 10162 10161 10158 ] final -173.92 input  -65.29 | X-H torsion
[ 10718 10713 10712 10709 ] final -122.80 input   66.30 | X-H torsion
[ 10763 10752 10751 10750 ] final  -23.97 input  -60.55 | X-H torsion
[ 11005 11000 10999 10996 ] final  -64.04 input  -57.11 | X-H torsion

> <Gold.Protein.ActiveResidues>
 VAL166  LYS551  ARG553  GLY616  TRP617  ASP618  TYR619  PRO620  LYS621  CYS622 
 ASP623  PHE694  ASN695  SER759  ASP760  ASP761  ALA762  ILE779  LEU786  VAL792 
 PHE793  MET794  SER795  GLU796  ALA797  LYS798  CYS799  TRP800  GLU811  SER814 

> <Gold.Protein.RotatedAtoms>
  150.6866  134.3018  159.4709 H   0  0  0  0  0  0  0  0  0  0  0  0  # atno 6907 bound_to 6896
  152.0913  134.9403  160.0581 H   0  0  0  0  0  0  0  0  0  0  0  0  # atno 6908 bound_to 6896
  152.0718  133.4075  159.4499 H   0  0  0  0  0  0  0  0  0  0  0  0  # atno 6909 bound_to 6896
  145.6839  140.9178  143.0817 H   0  0  0  0  0  0  0  0  0  0  0  0  # atno 7974 bound_to 7965
  156.1414  140.3177  155.8501 H   0  0  0  0  0  0  0  0  0  0  0  0  # atno 8008 bound_to 7997
  155.4147  140.0508  157.3046 H   0  0  0  0  0  0  0  0  0  0  0  0  # atno 8009 bound_to 7997
  154.4979  140.2118  155.9420 H   0  0  0  0  0  0  0  0  0  0  0  0  # atno 8010 bound_to 7997
  139.5662  144.1750  152.1315 H   0  0  0  0  0  0  0  0  0  0  0  0  # atno 10167 bound_to 10162
  156.1449  130.6492  150.9827 H   0  0  0  0  0  0  0  0  0  0  0  0  # atno 10718 bound_to 10713
  153.6763  135.6969  153.5131 H   0  0  0  0  0  0  0  0  0  0  0  0  # atno 10763 bound_to 10752
  153.2519  135.4272  155.0805 H   0  0  0  0  0  0  0  0  0  0  0  0  # atno 10764 bound_to 10752
  154.8412  135.3533  154.6307 H   0  0  0  0  0  0  0  0  0  0  0  0  # atno 10765 bound_to 10752
  141.1412  133.6660  156.5772 H   0  0  0  0  0  0  0  0  0  0  0  0  # atno 11005 bound_to 11000
  144.7017  139.8733  143.7442 LP  0  0  0  0  0  0  0  0  0  0  0  0  # atno 17320 bound_to 7965
  146.0940  139.3931  143.0388 LP  0  0  0  0  0  0  0  0  0  0  0  0  # atno 17321 bound_to 7965
  140.1274  144.5319  150.6824 LP  0  0  0  0  0  0  0  0  0  0  0  0  # atno 17342 bound_to 10162
  140.6945  143.2395  151.5038 LP  0  0  0  0  0  0  0  0  0  0  0  0  # atno 17343 bound_to 10162
  157.6608  131.0881  150.7843 LP  0  0  0  0  0  0  0  0  0  0  0  0  # atno 17370 bound_to 10713
  156.7916  130.4892  149.5384 LP  0  0  0  0  0  0  0  0  0  0  0  0  # atno 17371 bound_to 10713
  140.3866  134.7477  157.4695 LP  0  0  0  0  0  0  0  0  0  0  0  0  # atno 17394 bound_to 11000
  140.0597  134.6013  155.8763 LP  0  0  0  0  0  0  0  0  0  0  0  0  # atno 17395 bound_to 11000

$$$$
