AV-unprocessed.smi:443|AV-procd|sdf|2585|dock8
  -GOLD-   2262022573D 1   1.00000     0.00000
 Structure written by MMmdl.
 48 49  0  0  0  0  0  0  0  0  1 V2000
  151.9426  143.6193  159.5763 C   0  0  0  0  0  0  0  0  0  0  0  0
  151.3320  142.3600  159.0230 C   0  0  0  0  0  0  0  0  0  0  0  0
  150.2973  142.5030  158.2626 N   0  0  0  0  0  0  0  0  0  0  0  0
  149.6459  141.4141  157.7181 N   0  0  0  0  0  0  0  0  0  0  0  0
  148.4594  141.7593  156.9237 C   0  0  0  0  0  0  0  0  0  0  0  0
  148.5997  141.3370  155.4440 C   0  0  2  0  0  0  0  0  0  0  0  0
  149.9289  141.5259  155.0053 O   0  0  0  0  0  0  0  0  0  0  0  0
  147.6383  142.0484  154.4741 C   0  0  0  0  0  0  0  0  0  0  0  0
  146.4816  142.4882  155.1763 O   0  0  0  0  0  0  0  0  0  0  0  0
  145.8817  143.6726  154.8012 C   0  0  0  0  0  0  0  0  0  0  0  0
  146.2414  144.3777  153.6234 C   0  0  0  0  0  0  0  0  0  0  0  0
  145.5929  145.5757  153.2734 C   0  0  0  0  0  0  0  0  0  0  0  0
  144.5759  146.0894  154.0941 C   0  0  0  0  0  0  0  0  0  0  0  0
  144.2124  145.4046  155.2667 C   0  0  0  0  0  0  0  0  0  0  0  0
  144.8565  144.2008  155.6316 C   0  0  0  0  0  0  0  0  0  0  0  0
  144.4209  143.5128  156.9275 C   0  0  0  0  0  0  0  0  0  0  0  0
  143.3118  144.2806  157.6686 C   0  0  0  0  0  0  0  0  0  0  0  0
  145.6091  143.1766  157.8419 C   0  0  0  0  0  0  0  0  0  0  0  0
  150.0195  140.1159  157.9013 C   0  0  0  0  0  0  0  0  0  0  0  0
  149.4066  139.1729  157.3987 O   0  0  0  0  0  0  0  0  0  0  0  0
  151.2012  139.9601  158.7528 C   0  0  0  0  0  0  0  0  0  0  0  0
  151.6263  138.6151  158.9711 C   0  0  0  0  0  0  0  0  0  0  0  0
  151.9584  137.5231  159.1644 N   0  0  0  0  0  0  0  0  0  0  0  0
  151.8436  141.0221  159.3009 C   0  0  0  0  0  0  0  0  0  0  0  0
  153.0691  140.9139  160.1980 C   0  0  0  0  0  0  0  0  0  0  0  0
  152.9611  143.7491  159.2105 H   0  0  0  0  0  0  0  0  0  0  0  0
  151.9743  143.5886  160.6655 H   0  0  0  0  0  0  0  0  0  0  0  0
  151.3741  144.5057  159.2918 H   0  0  0  0  0  0  0  0  0  0  0  0
  147.5715  141.2966  157.3576 H   0  0  0  0  0  0  0  0  0  0  0  0
  148.2739  142.8333  156.9866 H   0  0  0  0  0  0  0  0  0  0  0  0
  148.4148  140.2651  155.3665 H   0  0  0  0  0  0  0  0  0  0  0  0
  150.2579  142.3283  155.3807 H   0  0  0  0  0  0  0  0  0  0  0  0
  148.1376  142.8852  153.9830 H   0  0  0  0  0  0  0  0  0  0  0  0
  147.3449  141.3384  153.6997 H   0  0  0  0  0  0  0  0  0  0  0  0
  147.0156  144.0204  152.9622 H   0  0  0  0  0  0  0  0  0  0  0  0
  145.8762  146.1004  152.3729 H   0  0  0  0  0  0  0  0  0  0  0  0
  144.0759  147.0087  153.8266 H   0  0  0  0  0  0  0  0  0  0  0  0
  143.4309  145.8150  155.8890 H   0  0  0  0  0  0  0  0  0  0  0  0
  143.9798  142.5554  156.6473 H   0  0  0  0  0  0  0  0  0  0  0  0
  142.4573  144.4572  157.0149 H   0  0  0  0  0  0  0  0  0  0  0  0
  143.6495  145.2459  158.0432 H   0  0  0  0  0  0  0  0  0  0  0  0
  142.9543  143.7111  158.5267 H   0  0  0  0  0  0  0  0  0  0  0  0
  146.3408  142.5595  157.3205 H   0  0  0  0  0  0  0  0  0  0  0  0
  145.2794  142.6213  158.7204 H   0  0  0  0  0  0  0  0  0  0  0  0
  146.1180  144.0705  158.1957 H   0  0  0  0  0  0  0  0  0  0  0  0
  153.4094  139.8849  160.3099 H   0  0  0  0  0  0  0  0  0  0  0  0
  152.8476  141.2972  161.1945 H   0  0  0  0  0  0  0  0  0  0  0  0
  153.8992  141.4878  159.7852 H   0  0  0  0  0  0  0  0  0  0  0  0
  1  2  1  0  0  0  0
  1 26  1  0  0  0  0
  1 27  1  0  0  0  0
  1 28  1  0  0  0  0
  2 24  1  0  0  0  0
  2  3  2  0  0  0  0
  3  4  1  0  0  0  0
  4  5  1  0  0  0  0
  4 19  1  0  0  0  0
  5  6  1  0  0  0  0
  5 29  1  0  0  0  0
  5 30  1  0  0  0  0
  6  7  1  0  0  0  0
  6  8  1  0  0  0  0
  6 31  1  0  0  0  0
  7 32  1  0  0  0  0
  8  9  1  0  0  0  0
  8 33  1  0  0  0  0
  8 34  1  0  0  0  0
  9 10  1  0  0  0  0
 10 15  1  0  0  0  0
 10 11  2  0  0  0  0
 11 12  1  0  0  0  0
 11 35  1  0  0  0  0
 12 13  2  0  0  0  0
 12 36  1  0  0  0  0
 13 14  1  0  0  0  0
 13 37  1  0  0  0  0
 14 15  2  0  0  0  0
 14 38  1  0  0  0  0
 15 16  1  0  0  0  0
 16 17  1  0  0  0  0
 16 18  1  0  0  0  0
 16 39  1  0  0  0  0
 17 40  1  0  0  0  0
 17 41  1  0  0  0  0
 17 42  1  0  0  0  0
 18 43  1  0  0  0  0
 18 44  1  0  0  0  0
 18 45  1  0  0  0  0
 19 20  2  0  0  0  0
 19 21  1  0  0  0  0
 21 22  1  0  0  0  0
 21 24  2  0  0  0  0
 22 23  3  0  0  0  0
 24 25  1  0  0  0  0
 25 46  1  0  0  0  0
 25 47  1  0  0  0  0
 25 48  1  0  0  0  0
M  END
> <s_m_source_file>
AV-unprocessed.smi

> <i_m_source_file_index>
443

> <i_lp_mmshare_version>
43012

> <i_f3d_flags>
0

> <s_epik_input>
TiNDYyhjMVtDSDNdKWMoPU8pbihuYzFbQ0gzXSlbQ0gyXVtDQEhdKFtPSF0pW0NIMl1PYzJbY0hdW2NIXVtjSF1bY0hdYzJbQ0hdKFtDSDNdKVtDSDNd

> <s_epik_cmdline>
J2VwaWtfcHl0aG9uJywgJy1waCcsICc3LjAnLCAnLXRuJywgJzgnLCAnLW1hJywgJzIwMCcsICctbWV0YWxfYmluZGluZycsICctaW1hZScsICc8aW5maWxlLm1hZT4nLCAnLW9tYWUnLCAnPG91dGZpbGUubWFlPic=

> <r_lp_tautomer_probability>
1

> <r_epik_Ionization_Penalty>
1.17331e-07

> <r_epik_Ionization_Penalty_Charging>
1.57223e-10

> <r_epik_Ionization_Penalty_Neutral>
1.17174e-07

> <r_epik_State_Penalty>
-0

> <r_epik_Charging_Adjusted_Penalty>
1.57223e-10

> <i_epik_Tot_Q>
0

> <i_epik_Tot_abs_Q>
0

> <r_epik_Metal_State_Penalty>
-0

> <b_epik_Metal_Only>
0

> <s_lp_Force_Field>
OPLS_2005

> <r_lp_Energy>
30.066

> <b_lp_Chiralities_Consistent>
1

> <s_lp_Variant>
AV-unprocessed.smi:443-1

> <Gold.Version>
5.8.1

> <Gold.Id.Protein>
6NUR|6NUR_protein|mol2

> <Gold.PLP.Fitness>
42.9672

> <Gold.PLP.PLP>
-44.5609

> <Gold.PLP.part.hbond>
-1.1757

> <Gold.PLP.part.metal>
0.0000

> <Gold.PLP.part.buried>
-4.6300

> <Gold.PLP.part.nonpolar>
-39.0158

> <Gold.PLP.part.repulsive>
0.7733

> <Gold.PLP.ligand.clash>
0.0000

> <Gold.PLP.ligand.torsion>
1.0401

> <Gold.PLP.Chemscore.Hbond>
0.1179

> <Gold.PLP.Chemscore.CHOScore>
0.0000

> <Gold.PLP.Chemscore.Metal>
0.0000

> <Gold.Chemscore.Hbonds>
donor molecule, donor type, donor heavy atom, donor atom, acceptor molecule, acceptor atom, score
      P1  H  7989  7998       L1     7  0.09

> <Gold.PLP.Chemscore.Internal.Correction>
0.1327

> <Gold.Rescore>
     Score         DG    S(hbond)    S(metal)    S(lipo)     H(rot)  DE(clash)    DE(int)     intcor
      8.45     -12.18       0.01        0.00     109.76       2.41       0.52       3.21       ----

> <Gold.Chemscore.Fitness>
8.4541

> <Gold.Chemscore.DG>
-12.1839

> <Gold.Chemscore.ZeroCoef>
-5.4800

> <Gold.Chemscore.Hbond>
0.0082

> <Gold.Chemscore.Metal>
0.0000

> <Gold.Chemscore.Lipo>
109.7608

> <Gold.Chemscore.Internal_Hbond>
0.0000

> <Gold.Chemscore.DEClash>
0.5201

> <Gold.Chemscore.DEInternal>
3.2097

> <Gold.Chemscore.Rot>
2.4084

> <Gold.Chemscore.Internal.Correction>
   9.000000E+99

> <Gold.Chemscore.Hbonds>
donor molecule, donor type, donor heavy atom, donor atom, acceptor molecule, acceptor atom, score
      P1  H  6896  6909       L1    23  0.01
      P1  H  7989  7998       L1     7  0.04

> <Gold.Chemscore.Hbond.Weighted>
-0.0273

> <Gold.Chemscore.Metal.Weighted>
-0.0000

> <Gold.Chemscore.Lipo.Weighted>
-12.8420

> <Gold.Chemscore.Internal_Hbond.Weighted>
0.0000

> <Gold.Chemscore.DEClash.Weighted>
0.5201

> <Gold.Chemscore.DEInternal.Weighted>
3.2097

> <Gold.Chemscore.Rot.Weighted>
6.1655

> <Gold.Chemscore.Internal.Correction.Weighted>
   9.000000E+99

> <Gold.Protein.RotatedTorsions>
[ 6907 6896 6895 6894 ] final  120.33 input  -60.11 | X-H torsion
[ 7974 7965 7964 7962 ] final   34.66 input  175.53 | X-H torsion
[ 8008 7997 7996 7995 ] final  -49.92 input   59.86 | X-H torsion
[ 10167 10162 10161 10158 ] final -179.13 input  -65.29 | X-H torsion
[ 10718 10713 10712 10709 ] final   89.43 input   66.30 | X-H torsion
[ 10763 10752 10751 10750 ] final -136.16 input  -60.55 | X-H torsion
[ 11005 11000 10999 10996 ] final -112.89 input  -57.11 | X-H torsion

> <Gold.Protein.ActiveResidues>
 VAL166  LYS551  ARG553  GLY616  TRP617  ASP618  TYR619  PRO620  LYS621  CYS622 
 ASP623  PHE694  ASN695  SER759  ASP760  ASP761  ALA762  ILE779  LEU786  VAL792 
 PHE793  MET794  SER795  GLU796  ALA797  LYS798  CYS799  TRP800  GLU811  SER814 

> <Gold.Protein.RotatedAtoms>
  152.4406  133.7441  159.6656 H   0  0  0  0  0  0  0  0  0  0  0  0  # atno 6907 bound_to 6896
  150.8296  133.8103  159.3110 H   0  0  0  0  0  0  0  0  0  0  0  0  # atno 6908 bound_to 6896
  151.5761  135.1063  160.0058 H   0  0  0  0  0  0  0  0  0  0  0  0  # atno 6909 bound_to 6896
  146.1337  139.6240  142.9209 H   0  0  0  0  0  0  0  0  0  0  0  0  # atno 7974 bound_to 7965
  154.4052  140.1285  156.4582 H   0  0  0  0  0  0  0  0  0  0  0  0  # atno 8008 bound_to 7997
  155.7299  140.3491  155.5035 H   0  0  0  0  0  0  0  0  0  0  0  0  # atno 8009 bound_to 7997
  155.9137  140.1040  157.1250 H   0  0  0  0  0  0  0  0  0  0  0  0  # atno 8010 bound_to 7997
  139.5400  144.2389  152.0875 H   0  0  0  0  0  0  0  0  0  0  0  0  # atno 10167 bound_to 10162
  157.6955  131.0333  150.3425 H   0  0  0  0  0  0  0  0  0  0  0  0  # atno 10718 bound_to 10713
  154.8689  135.3681  154.5016 H   0  0  0  0  0  0  0  0  0  0  0  0  # atno 10763 bound_to 10752
  153.5656  135.7022  153.5532 H   0  0  0  0  0  0  0  0  0  0  0  0  # atno 10764 bound_to 10752
  153.3588  135.4052  155.1666 H   0  0  0  0  0  0  0  0  0  0  0  0  # atno 10765 bound_to 10752
  141.0648  133.9477  157.2600 H   0  0  0  0  0  0  0  0  0  0  0  0  # atno 11005 bound_to 11000
  145.5203  141.0432  143.2439 LP  0  0  0  0  0  0  0  0  0  0  0  0  # atno 17320 bound_to 7965
  144.7717  139.6720  143.7192 LP  0  0  0  0  0  0  0  0  0  0  0  0  # atno 17321 bound_to 7965
  140.1866  144.4792  150.6500 LP  0  0  0  0  0  0  0  0  0  0  0  0  # atno 17342 bound_to 10162
  140.6625  143.2257  151.5821 LP  0  0  0  0  0  0  0  0  0  0  0  0  # atno 17343 bound_to 10162
  156.3884  130.3893  149.7048 LP  0  0  0  0  0  0  0  0  0  0  0  0  # atno 17370 bound_to 10713
  156.4406  130.7859  151.2880 LP  0  0  0  0  0  0  0  0  0  0  0  0  # atno 17371 bound_to 10713
  139.9466  135.0183  156.8869 LP  0  0  0  0  0  0  0  0  0  0  0  0  # atno 17394 bound_to 11000
  140.5796  134.0365  155.7459 LP  0  0  0  0  0  0  0  0  0  0  0  0  # atno 17395 bound_to 11000

$$$$
