AV-unprocessed.smi:2531|AV-procd|sdf|9967|dock4
  -GOLD-   2272014 13D 1   1.00000     0.00000
 Structure written by MMmdl.
 46 48  0  0  0  0  0  0  0  0  3 V2000
  152.5147  142.0566  160.5460 O   0  0  0  0  0  0  0  0  0  0  0  0
  152.3460  141.9689  159.3289 C   0  0  0  0  0  0  0  0  0  0  0  0
  151.7766  143.1571  158.5267 C   0  0  0  0  0  0  0  0  0  0  0  0
  152.8081  144.2935  158.3350 C   0  0  0  0  0  0  0  0  0  0  0  0
  152.2938  145.5084  159.1219 C   0  0  0  0  0  0  0  0  0  0  0  0
  151.1949  144.9759  160.0398 C   0  0  0  0  0  0  0  0  0  0  0  0
  150.5909  143.8107  159.2583 C   0  0  0  0  0  0  0  0  0  0  0  0
  152.5733  140.7702  158.6460 N   0  0  0  0  0  0  0  0  0  0  0  0
  152.5348  139.4931  159.3438 C   0  0  0  0  0  0  0  0  0  0  0  0
  152.0821  138.8984  158.0054 C   0  0  0  0  0  0  0  0  0  0  0  0
  150.6576  137.7330  158.1798 S   0  0  0  0  0  0  0  0  0  0  0  0
  150.9132  136.9725  159.4140 O   0  0  0  0  0  0  0  0  0  0  0  0
  149.4315  138.5470  158.1458 O   0  0  0  0  0  0  0  0  0  0  0  0
  150.8465  136.8332  156.8425 N   0  5  0  0  0  0  0  0  0  0  0  0
  149.9317  135.7381  156.5633 C   0  0  0  0  0  0  0  0  0  0  0  0
  149.6048  135.6571  155.0549 C   0  0  0  0  0  0  0  0  0  0  0  0
  149.2826  134.2505  154.5689 C   0  0  0  0  0  0  0  0  0  0  0  0
  149.7120  133.0984  155.2665 C   0  0  0  0  0  0  0  0  0  0  0  0
  149.3896  131.8224  154.7594 C   0  0  0  0  0  0  0  0  0  0  0  0
  148.6488  131.7212  153.5636 C   0  0  0  0  0  0  0  0  0  0  0  0
  148.2490  132.9006  152.9033 C   0  0  0  0  0  0  0  0  0  0  0  0
  148.5769  134.1048  153.4206 N   0  3  0  0  0  0  0  0  0  0  0  0
  151.6979  140.3200  157.5729 C   0  0  0  0  0  0  0  0  0  0  0  0
  151.4544  142.8038  157.5466 H   0  0  0  0  0  0  0  0  0  0  0  0
  153.8030  144.0121  158.6835 H   0  0  0  0  0  0  0  0  0  0  0  0
  152.9142  144.5453  157.2792 H   0  0  0  0  0  0  0  0  0  0  0  0
  153.0866  146.0115  159.6767 H   0  0  0  0  0  0  0  0  0  0  0  0
  151.8671  146.2353  158.4294 H   0  0  0  0  0  0  0  0  0  0  0  0
  151.6333  144.6103  160.9694 H   0  0  0  0  0  0  0  0  0  0  0  0
  150.4572  145.7367  160.2964 H   0  0  0  0  0  0  0  0  0  0  0  0
  149.8757  144.1886  158.5267 H   0  0  0  0  0  0  0  0  0  0  0  0
  150.0493  143.1240  159.9110 H   0  0  0  0  0  0  0  0  0  0  0  0
  153.5092  139.1455  159.6879 H   0  0  0  0  0  0  0  0  0  0  0  0
  151.7720  139.4454  160.1240 H   0  0  0  0  0  0  0  0  0  0  0  0
  152.8996  138.4584  157.4323 H   0  0  0  0  0  0  0  0  0  0  0  0
  150.3671  134.7868  156.8707 H   0  0  0  0  0  0  0  0  0  0  0  0
  149.0038  135.8287  157.1290 H   0  0  0  0  0  0  0  0  0  0  0  0
  148.7518  136.2921  154.8162 H   0  0  0  0  0  0  0  0  0  0  0  0
  150.4424  136.0439  154.4726 H   0  0  0  0  0  0  0  0  0  0  0  0
  150.2794  133.1922  156.1812 H   0  0  0  0  0  0  0  0  0  0  0  0
  149.7078  130.9320  155.2814 H   0  0  0  0  0  0  0  0  0  0  0  0
  148.3918  130.7531  153.1590 H   0  0  0  0  0  0  0  0  0  0  0  0
  147.6816  132.9183  151.9843 H   0  0  0  0  0  0  0  0  0  0  0  0
  150.6491  140.5739  157.7314 H   0  0  0  0  0  0  0  0  0  0  0  0
  152.0447  140.5923  156.5757 H   0  0  0  0  0  0  0  0  0  0  0  0
  148.2772  134.9460  152.9265 H   0  0  0  0  0  0  0  0  0  0  0  0
  1  2  2  0  0  0  0
  2  3  1  0  0  0  0
  2  8  1  0  0  0  0
  3  7  1  0  0  0  0
  3  4  1  0  0  0  0
  3 24  1  0  0  0  0
  4  5  1  0  0  0  0
  4 25  1  0  0  0  0
  4 26  1  0  0  0  0
  5  6  1  0  0  0  0
  5 27  1  0  0  0  0
  5 28  1  0  0  0  0
  6  7  1  0  0  0  0
  6 29  1  0  0  0  0
  6 30  1  0  0  0  0
  7 31  1  0  0  0  0
  7 32  1  0  0  0  0
  8 23  1  0  0  0  0
  8  9  1  0  0  0  0
  9 10  1  0  0  0  0
  9 33  1  0  0  0  0
  9 34  1  0  0  0  0
 10 11  1  0  0  0  0
 10 23  1  0  0  0  0
 10 35  1  0  0  0  0
 11 12  2  0  0  0  0
 11 13  2  0  0  0  0
 11 14  1  0  0  0  0
 14 15  1  0  0  0  0
 15 16  1  0  0  0  0
 15 36  1  0  0  0  0
 15 37  1  0  0  0  0
 16 17  1  0  0  0  0
 16 38  1  0  0  0  0
 16 39  1  0  0  0  0
 17 22  1  0  0  0  0
 17 18  2  0  0  0  0
 18 19  1  0  0  0  0
 18 40  1  0  0  0  0
 19 20  2  0  0  0  0
 19 41  1  0  0  0  0
 20 21  1  0  0  0  0
 20 42  1  0  0  0  0
 21 22  2  0  0  0  0
 21 43  1  0  0  0  0
 22 46  1  0  0  0  0
 23 44  1  0  0  0  0
 23 45  1  0  0  0  0
M  CHG  1  14  -1
M  CHG  1  22   1
M  END
> <s_m_source_file>
AV-unprocessed.smi

> <i_m_source_file_index>
2531

> <i_lp_mmshare_version>
43012

> <i_f3d_flags>
0

> <s_epik_input>
W0NIMl0xW0NIMl1bQ0gyXVtDSDJdW0NIXTFDKD1PKU4yW0NIMl1bQ0hdKFtDSDJdMilTKD1PKSg9TylbTkhdW0NIMl1bQ0gyXWMzW2NIXVtjSF1bY0hdW2NIXW4z

> <s_epik_cmdline>
J2VwaWtfcHl0aG9uJywgJy1waCcsICc3LjAnLCAnLXRuJywgJzgnLCAnLW1hJywgJzIwMCcsICctbWV0YWxfYmluZGluZycsICctaW1hZScsICc8aW5maWxlLm1hZT4nLCAnLW9tYWUnLCAnPG91dGZpbGUubWFlPic=

> <r_epik_Ionization_Penalty>
6.66855

> <r_epik_Ionization_Penalty_Charging>
6.66855

> <r_epik_Ionization_Penalty_Neutral>
2.37876e-07

> <r_epik_State_Penalty>
7.51815

> <r_epik_Charging_Adjusted_Penalty>
14.1867

> <i_epik_Tot_Q>
0

> <i_epik_Tot_abs_Q>
2

> <r_epik_Metal_State_Penalty>
3.5378

> <b_epik_Metal_Only>
1

> <s_lp_Force_Field>
OPLS_2005

> <r_lp_Energy>
33.2094

> <b_lp_Chiralities_Consistent>
1

> <s_lp_Variant>
AV-unprocessed.smi:2531-4

> <Gold.Version>
5.8.1

> <Gold.Id.Protein>
6NUR|6NUR_protein|mol2

> <Gold.PLP.Fitness>
51.7081

> <Gold.PLP.PLP>
-45.6725

> <Gold.PLP.part.hbond>
-2.0000

> <Gold.PLP.part.metal>
0.0000

> <Gold.PLP.part.buried>
-5.7872

> <Gold.PLP.part.nonpolar>
-36.8628

> <Gold.PLP.part.repulsive>
0.0135

> <Gold.PLP.ligand.clash>
0.0000

> <Gold.PLP.ligand.torsion>
2.7666

> <Gold.PLP.Chemscore.Hbond>
3.0000

> <Gold.PLP.Chemscore.CHOScore>
0.0000

> <Gold.PLP.Chemscore.Metal>
0.0000

> <Gold.Chemscore.Hbonds>
donor molecule, donor type, donor heavy atom, donor atom, acceptor molecule, acceptor atom, score
      L1  H    22    46       P1  7948  1.54
      P1  H  6896  6909       L1    12  1.00

> <Gold.PLP.Chemscore.Internal.Correction>
2.5687

> <Gold.Rescore>
     Score         DG    S(hbond)    S(metal)    S(lipo)     H(rot)  DE(clash)    DE(int)     intcor
     16.73     -19.53       1.72        0.00     108.64       1.72       0.07       2.73       ----

> <Gold.Chemscore.Fitness>
16.7300

> <Gold.Chemscore.DG>
-19.5329

> <Gold.Chemscore.ZeroCoef>
-5.4800

> <Gold.Chemscore.Hbond>
1.7168

> <Gold.Chemscore.Metal>
0.0000

> <Gold.Chemscore.Lipo>
108.6410

> <Gold.Chemscore.Internal_Hbond>
0.0000

> <Gold.Chemscore.DEClash>
0.0746

> <Gold.Chemscore.DEInternal>
2.7283

> <Gold.Chemscore.Rot>
1.7158

> <Gold.Chemscore.Internal.Correction>
   9.000000E+99

> <Gold.Chemscore.Hbonds>
donor molecule, donor type, donor heavy atom, donor atom, acceptor molecule, acceptor atom, score
      L1  H    22    46       P1  7948  0.61
      P1  H  6896  6909       L1    12  0.99

> <Gold.Chemscore.Hbond.Weighted>
-5.7343

> <Gold.Chemscore.Metal.Weighted>
-0.0000

> <Gold.Chemscore.Lipo.Weighted>
-12.7110

> <Gold.Chemscore.Internal_Hbond.Weighted>
0.0000

> <Gold.Chemscore.DEClash.Weighted>
0.0746

> <Gold.Chemscore.DEInternal.Weighted>
2.7283

> <Gold.Chemscore.Rot.Weighted>
4.3924

> <Gold.Chemscore.Internal.Correction.Weighted>
   9.000000E+99

> <Gold.Protein.RotatedTorsions>
[ 6907 6896 6895 6894 ] final   93.30 input  -60.11 | X-H torsion
[ 7974 7965 7964 7962 ] final -142.87 input  175.53 | X-H torsion
[ 8008 7997 7996 7995 ] final  101.14 input   59.86 | X-H torsion
[ 10167 10162 10161 10158 ] final   58.36 input  -65.29 | X-H torsion
[ 10718 10713 10712 10709 ] final  131.06 input   66.30 | X-H torsion
[ 10763 10752 10751 10750 ] final  172.58 input  -60.55 | X-H torsion
[ 11005 11000 10999 10996 ] final  -94.19 input  -57.11 | X-H torsion

> <Gold.Protein.ActiveResidues>
 VAL166  LYS551  ARG553  GLY616  TRP617  ASP618  TYR619  PRO620  LYS621  CYS622 
 ASP623  PHE694  ASN695  SER759  ASP760  ASP761  ALA762  ILE779  LEU786  VAL792 
 PHE793  MET794  SER795  GLU796  ALA797  LYS798  CYS799  TRP800  GLU811  SER814 

> <Gold.Protein.RotatedAtoms>
  152.5452  134.1370  159.8462 H   0  0  0  0  0  0  0  0  0  0  0  0  # atno 6907 bound_to 6896
  151.1410  133.4964  159.2604 H   0  0  0  0  0  0  0  0  0  0  0  0  # atno 6908 bound_to 6896
  151.1573  135.0267  159.8750 H   0  0  0  0  0  0  0  0  0  0  0  0  # atno 6909 bound_to 6896
  144.8411  140.5904  143.5452 H   0  0  0  0  0  0  0  0  0  0  0  0  # atno 7974 bound_to 7965
  156.1271  140.3202  155.8293 H   0  0  0  0  0  0  0  0  0  0  0  0  # atno 8008 bound_to 7997
  155.4400  140.0525  157.3028 H   0  0  0  0  0  0  0  0  0  0  0  0  # atno 8009 bound_to 7997
  154.4871  140.2077  155.9645 H   0  0  0  0  0  0  0  0  0  0  0  0  # atno 8010 bound_to 7997
  140.1880  144.4114  150.6584 H   0  0  0  0  0  0  0  0  0  0  0  0  # atno 10167 bound_to 10162
  157.5003  131.1094  150.9436 H   0  0  0  0  0  0  0  0  0  0  0  0  # atno 10718 bound_to 10713
  154.4280  135.2759  155.1931 H   0  0  0  0  0  0  0  0  0  0  0  0  # atno 10763 bound_to 10752
  154.3849  135.6079  153.5814 H   0  0  0  0  0  0  0  0  0  0  0  0  # atno 10764 bound_to 10752
  152.9835  135.5889  154.4587 H   0  0  0  0  0  0  0  0  0  0  0  0  # atno 10765 bound_to 10752
  141.1477  133.7939  157.0263 H   0  0  0  0  0  0  0  0  0  0  0  0  # atno 11005 bound_to 11000
  145.4692  139.1505  143.3823 LP  0  0  0  0  0  0  0  0  0  0  0  0  # atno 17320 bound_to 7965
  146.2703  140.4825  142.8817 LP  0  0  0  0  0  0  0  0  0  0  0  0  # atno 17321 bound_to 7965
  140.6475  143.2217  151.6153 LP  0  0  0  0  0  0  0  0  0  0  0  0  # atno 17342 bound_to 10162
  139.5268  144.3036  152.1053 LP  0  0  0  0  0  0  0  0  0  0  0  0  # atno 17343 bound_to 10162
  157.0109  130.5636  149.5321 LP  0  0  0  0  0  0  0  0  0  0  0  0  # atno 17370 bound_to 10713
  156.0225  130.5320  150.8316 LP  0  0  0  0  0  0  0  0  0  0  0  0  # atno 17371 bound_to 10713
  140.0783  134.9663  157.1582 LP  0  0  0  0  0  0  0  0  0  0  0  0  # atno 17394 bound_to 11000
  140.3613  134.2491  155.7187 LP  0  0  0  0  0  0  0  0  0  0  0  0  # atno 17395 bound_to 11000

$$$$
