AV-unprocessed.smi:2284|AV-procd|sdf|9201|dock1
  -GOLD-   2272012413D 1   1.00000     0.00000
 Structure written by MMmdl.
 44 45  0  0  0  0  0  0  0  0  1 V2000
  151.3708  145.1519  159.2910 C   0  0  0  0  0  0  0  0  0  0  0  0
  151.9840  143.7803  159.4845 C   0  0  0  0  0  0  0  0  0  0  0  0
  152.7828  143.5104  160.6124 C   0  0  0  0  0  0  0  0  0  0  0  0
  153.3502  142.2347  160.7820 C   0  0  0  0  0  0  0  0  0  0  0  0
  153.1232  141.2221  159.8270 C   0  0  0  0  0  0  0  0  0  0  0  0
  153.7429  139.8514  160.0251 C   0  0  0  0  0  0  0  0  0  0  0  0
  152.3240  141.4800  158.6892 C   0  0  0  0  0  0  0  0  0  0  0  0
  152.1446  140.4463  157.7935 O   0  0  0  0  0  0  0  0  0  0  0  0
  151.1771  140.5981  156.7621 C   0  0  0  0  0  0  0  0  0  0  0  0
  151.5518  139.7137  155.5610 C   0  0  2  0  0  0  0  0  0  0  0  0
  150.7199  140.0799  154.4784 O   0  0  0  0  0  0  0  0  0  0  0  0
  151.4203  138.2029  155.8587 C   0  0  0  0  0  0  0  0  0  0  0  0
  152.2983  137.7739  156.9601 N   0  0  0  0  0  0  0  0  0  0  0  0
  151.6584  137.3449  158.1343 C   0  0  0  0  0  0  0  0  0  0  0  0
  152.3281  136.9422  159.1643 N   0  0  0  0  0  0  0  0  0  0  0  0
  153.7252  136.9231  159.1238 C   0  0  0  0  0  0  0  0  0  0  0  0
  154.4116  136.4268  160.3840 C   0  0  0  0  0  0  0  0  0  0  0  0
  154.4059  137.3227  158.0149 C   0  0  0  0  0  0  0  0  0  0  0  0
  155.9260  137.3144  157.9098 C   0  0  0  0  0  0  0  0  0  0  0  0
  153.6570  137.7844  156.8349 C   0  0  0  0  0  0  0  0  0  0  0  0
  154.2076  138.1537  155.7960 O   0  0  0  0  0  0  0  0  0  0  0  0
  151.7568  142.7699  158.5284 C   0  0  0  0  0  0  0  0  0  0  0  0
  151.4925  145.7712  160.1803 H   0  0  0  0  0  0  0  0  0  0  0  0
  150.3043  145.0655  159.0817 H   0  0  0  0  0  0  0  0  0  0  0  0
  151.8458  145.6615  158.4523 H   0  0  0  0  0  0  0  0  0  0  0  0
  152.9643  144.2782  161.3502 H   0  0  0  0  0  0  0  0  0  0  0  0
  153.9622  142.0374  161.6498 H   0  0  0  0  0  0  0  0  0  0  0  0
  152.9658  139.0878  160.0731 H   0  0  0  0  0  0  0  0  0  0  0  0
  154.3227  139.8035  160.9473 H   0  0  0  0  0  0  0  0  0  0  0  0
  154.4075  139.6137  159.1939 H   0  0  0  0  0  0  0  0  0  0  0  0
  150.1760  140.3519  157.1205 H   0  0  0  0  0  0  0  0  0  0  0  0
  151.1663  141.6397  156.4367 H   0  0  0  0  0  0  0  0  0  0  0  0
  152.5767  139.9572  155.2784 H   0  0  0  0  0  0  0  0  0  0  0  0
  150.1378  139.3603  154.2888 H   0  0  0  0  0  0  0  0  0  0  0  0
  150.3880  137.9799  156.1357 H   0  0  0  0  0  0  0  0  0  0  0  0
  151.5843  137.6193  154.9501 H   0  0  0  0  0  0  0  0  0  0  0  0
  150.5676  137.3715  158.1120 H   0  0  0  0  0  0  0  0  0  0  0  0
  155.0481  137.2060  160.8040 H   0  0  0  0  0  0  0  0  0  0  0  0
  155.0269  135.5536  160.1657 H   0  0  0  0  0  0  0  0  0  0  0  0
  153.6855  136.1415  161.1462 H   0  0  0  0  0  0  0  0  0  0  0  0
  156.2433  136.6349  157.1183 H   0  0  0  0  0  0  0  0  0  0  0  0
  156.4181  137.0008  158.8288 H   0  0  0  0  0  0  0  0  0  0  0  0
  156.2933  138.3121  157.6672 H   0  0  0  0  0  0  0  0  0  0  0  0
  151.1408  143.0098  157.6752 H   0  0  0  0  0  0  0  0  0  0  0  0
  1  2  1  0  0  0  0
  1 23  1  0  0  0  0
  1 24  1  0  0  0  0
  1 25  1  0  0  0  0
  2 22  1  0  0  0  0
  2  3  2  0  0  0  0
  3  4  1  0  0  0  0
  3 26  1  0  0  0  0
  4  5  2  0  0  0  0
  4 27  1  0  0  0  0
  5  6  1  0  0  0  0
  5  7  1  0  0  0  0
  6 28  1  0  0  0  0
  6 29  1  0  0  0  0
  6 30  1  0  0  0  0
  7  8  1  0  0  0  0
  7 22  2  0  0  0  0
  8  9  1  0  0  0  0
  9 10  1  0  0  0  0
  9 31  1  0  0  0  0
  9 32  1  0  0  0  0
 10 11  1  0  0  0  0
 10 12  1  0  0  0  0
 10 33  1  0  0  0  0
 11 34  1  0  0  0  0
 12 13  1  0  0  0  0
 12 35  1  0  0  0  0
 12 36  1  0  0  0  0
 13 20  1  0  0  0  0
 13 14  1  0  0  0  0
 14 15  2  0  0  0  0
 14 37  1  0  0  0  0
 15 16  1  0  0  0  0
 16 17  1  0  0  0  0
 16 18  2  0  0  0  0
 17 38  1  0  0  0  0
 17 39  1  0  0  0  0
 17 40  1  0  0  0  0
 18 19  1  0  0  0  0
 18 20  1  0  0  0  0
 19 41  1  0  0  0  0
 19 42  1  0  0  0  0
 19 43  1  0  0  0  0
 20 21  2  0  0  0  0
 22 44  1  0  0  0  0
M  END
> <s_m_source_file>
AV-unprocessed.smi

> <i_m_source_file_index>
2284

> <i_lp_mmshare_version>
43012

> <i_f3d_flags>
0

> <s_epik_input>
W0NIM11jMVtjSF1bY0hdYyhbQ0gzXSljKFtjSF0xKU9bQ0gyXVtDQEhdKFtPSF0pW0NIMl1uMltjSF1uYyhbQ0gzXSljKFtDSDNdKWMyPU8=

> <s_epik_cmdline>
J2VwaWtfcHl0aG9uJywgJy1waCcsICc3LjAnLCAnLXRuJywgJzgnLCAnLW1hJywgJzIwMCcsICctbWV0YWxfYmluZGluZycsICctaW1hZScsICc8aW5maWxlLm1hZT4nLCAnLW9tYWUnLCAnPG91dGZpbGUubWFlPic=

> <r_lp_tautomer_probability>
1

> <r_epik_Ionization_Penalty>
3.7476e-05

> <r_epik_Ionization_Penalty_Charging>
8.44705e-08

> <r_epik_Ionization_Penalty_Neutral>
3.73915e-05

> <r_epik_State_Penalty>
-0

> <r_epik_Charging_Adjusted_Penalty>
8.44705e-08

> <i_epik_Tot_Q>
0

> <i_epik_Tot_abs_Q>
0

> <r_epik_Metal_State_Penalty>
-0

> <b_epik_Metal_Only>
0

> <s_lp_Force_Field>
OPLS_2005

> <r_lp_Energy>
24.4024

> <b_lp_Chiralities_Consistent>
1

> <s_lp_Variant>
AV-unprocessed.smi:2284-1

> <Gold.Version>
5.8.1

> <Gold.Id.Protein>
6NUR|6NUR_protein|mol2

> <Gold.PLP.Fitness>
47.3918

> <Gold.PLP.PLP>
-40.8099

> <Gold.PLP.part.hbond>
-3.2851

> <Gold.PLP.part.metal>
0.0000

> <Gold.PLP.part.buried>
-6.4227

> <Gold.PLP.part.nonpolar>
-31.2989

> <Gold.PLP.part.repulsive>
0.0000

> <Gold.PLP.ligand.clash>
0.0000

> <Gold.PLP.ligand.torsion>
0.3370

> <Gold.PLP.Chemscore.Hbond>
2.3719

> <Gold.PLP.Chemscore.CHOScore>
0.0000

> <Gold.PLP.Chemscore.Metal>
0.0000

> <Gold.Chemscore.Hbonds>
donor molecule, donor type, donor heavy atom, donor atom, acceptor molecule, acceptor atom, score
      P1  H  6896  6908       L1    15  0.93
      P1  H  7989  7998       L1    11  1.00
      P1  H  7997  8008       L1    21  0.35

> <Gold.PLP.Chemscore.Internal.Correction>
0.1403

> <Gold.Rescore>
     Score         DG    S(hbond)    S(metal)    S(lipo)     H(rot)  DE(clash)    DE(int)     intcor
     16.55     -19.33       1.86        0.00     116.01       2.32       0.04       2.74       ----

> <Gold.Chemscore.Fitness>
16.5477

> <Gold.Chemscore.DG>
-19.3271

> <Gold.Chemscore.ZeroCoef>
-5.4800

> <Gold.Chemscore.Hbond>
1.8630

> <Gold.Chemscore.Metal>
0.0000

> <Gold.Chemscore.Lipo>
116.0087

> <Gold.Chemscore.Internal_Hbond>
0.0000

> <Gold.Chemscore.DEClash>
0.0354

> <Gold.Chemscore.DEInternal>
2.7441

> <Gold.Chemscore.Rot>
2.3236

> <Gold.Chemscore.Internal.Correction>
   9.000000E+99

> <Gold.Chemscore.Hbonds>
donor molecule, donor type, donor heavy atom, donor atom, acceptor molecule, acceptor atom, score
      P1  H  6896  6908       L1    15  0.44
      P1  H  7989  7998       L1    11  0.53
      P1  H  7997  8008       L1    21  0.07

> <Gold.Chemscore.Hbond.Weighted>
-6.2225

> <Gold.Chemscore.Metal.Weighted>
-0.0000

> <Gold.Chemscore.Lipo.Weighted>
-13.5730

> <Gold.Chemscore.Internal_Hbond.Weighted>
0.0000

> <Gold.Chemscore.DEClash.Weighted>
0.0354

> <Gold.Chemscore.DEInternal.Weighted>
2.7441

> <Gold.Chemscore.Rot.Weighted>
5.9484

> <Gold.Chemscore.Internal.Correction.Weighted>
   9.000000E+99

> <Gold.Protein.RotatedTorsions>
[ 6907 6896 6895 6894 ] final -109.46 input  -60.11 | X-H torsion
[ 7974 7965 7964 7962 ] final  122.06 input  175.53 | X-H torsion
[ 8008 7997 7996 7995 ] final  -37.11 input   59.86 | X-H torsion
[ 10167 10162 10161 10158 ] final  -98.50 input  -65.29 | X-H torsion
[ 10718 10713 10712 10709 ] final   -8.30 input   66.30 | X-H torsion
[ 10763 10752 10751 10750 ] final -153.59 input  -60.55 | X-H torsion
[ 11005 11000 10999 10996 ] final    7.34 input  -57.11 | X-H torsion

> <Gold.Protein.ActiveResidues>
 VAL166  LYS551  ARG553  GLY616  TRP617  ASP618  TYR619  PRO620  LYS621  CYS622 
 ASP623  PHE694  ASN695  SER759  ASP760  ASP761  ALA762  ILE779  LEU786  VAL792 
 PHE793  MET794  SER795  GLU796  ALA797  LYS798  CYS799  TRP800  GLU811  SER814 

> <Gold.Protein.RotatedAtoms>
  150.7563  133.9526  159.3490 H   0  0  0  0  0  0  0  0  0  0  0  0  # atno 6907 bound_to 6896
  151.7445  135.0845  160.0330 H   0  0  0  0  0  0  0  0  0  0  0  0  # atno 6908 bound_to 6896
  152.3507  133.6139  159.5978 H   0  0  0  0  0  0  0  0  0  0  0  0  # atno 6909 bound_to 6896
  145.1120  139.3446  143.4758 H   0  0  0  0  0  0  0  0  0  0  0  0  # atno 7974 bound_to 7965
  154.4060  140.1613  156.2483 H   0  0  0  0  0  0  0  0  0  0  0  0  # atno 8008 bound_to 7997
  155.9141  140.3425  155.6099 H   0  0  0  0  0  0  0  0  0  0  0  0  # atno 8009 bound_to 7997
  155.7300  140.0779  157.2283 H   0  0  0  0  0  0  0  0  0  0  0  0  # atno 8010 bound_to 7997
  140.2723  143.3336  152.0523 H   0  0  0  0  0  0  0  0  0  0  0  0  # atno 10167 bound_to 10162
  156.7046  130.5103  149.5908 H   0  0  0  0  0  0  0  0  0  0  0  0  # atno 10718 bound_to 10713
  154.7917  135.3209  154.7761 H   0  0  0  0  0  0  0  0  0  0  0  0  # atno 10763 bound_to 10752
  153.8448  135.6867  153.4803 H   0  0  0  0  0  0  0  0  0  0  0  0  # atno 10764 bound_to 10752
  153.1590  135.4668  154.9686 H   0  0  0  0  0  0  0  0  0  0  0  0  # atno 10765 bound_to 10752
  140.5494  134.0298  155.7931 H   0  0  0  0  0  0  0  0  0  0  0  0  # atno 11005 bound_to 11000
  146.3526  140.1042  142.8606 LP  0  0  0  0  0  0  0  0  0  0  0  0  # atno 17320 bound_to 7965
  145.0837  140.9238  143.4810 LP  0  0  0  0  0  0  0  0  0  0  0  0  # atno 17321 bound_to 7965
  139.4985  144.6648  151.6381 LP  0  0  0  0  0  0  0  0  0  0  0  0  # atno 17342 bound_to 10162
  140.5880  143.9830  150.6307 LP  0  0  0  0  0  0  0  0  0  0  0  0  # atno 17343 bound_to 10162
  156.1704  130.6433  151.0831 LP  0  0  0  0  0  0  0  0  0  0  0  0  # atno 17370 bound_to 10713
  157.6960  131.0794  150.6968 LP  0  0  0  0  0  0  0  0  0  0  0  0  # atno 17371 bound_to 10713
  141.1181  133.9507  157.2784 LP  0  0  0  0  0  0  0  0  0  0  0  0  # atno 17394 bound_to 11000
  139.9463  135.0183  156.8862 LP  0  0  0  0  0  0  0  0  0  0  0  0  # atno 17395 bound_to 11000

$$$$
