AV-unprocessed.smi:947|AV-procd|sdf|4238|dock3
  -GOLD-   22720 2153D 1   1.00000     0.00000
 Structure written by MMmdl.
 25 26  0  0  0  0  0  0  0  0  2 V2000
  154.6859  140.1550  159.7043 C   0  0  0  0  0  0  0  0  0  0  0  0
  153.9228  141.3585  160.1736 C   0  0  0  0  0  0  0  0  0  0  0  0
  153.6645  141.7722  161.5104 C   0  0  0  0  0  0  0  0  0  0  0  0
  152.9315  142.9173  161.3745 C   0  0  0  0  0  0  0  0  0  0  0  0
  152.3507  143.8191  162.4138 C   0  0  0  0  0  0  0  0  0  0  0  0
  152.7927  143.1431  160.0172 N   0  0  0  0  0  0  0  0  0  0  0  0
  152.0967  144.2184  159.3665 C   0  0  0  0  0  0  0  0  0  0  0  0
  150.5681  144.3042  159.3411 C   0  0  0  0  0  0  0  0  0  0  0  0
  150.6861  144.8997  158.0166 N   0  3  0  0  0  0  0  0  0  0  0  0
  151.9834  144.2575  157.8440 C   0  0  0  0  0  0  0  0  0  0  0  0
  153.3940  142.1825  159.2836 N   0  0  0  0  0  0  0  0  0  0  0  0
  155.1219  139.6132  160.5438 H   0  0  0  0  0  0  0  0  0  0  0  0
  155.4990  140.4405  159.0365 H   0  0  0  0  0  0  0  0  0  0  0  0
  154.0367  139.4643  159.1657 H   0  0  0  0  0  0  0  0  0  0  0  0
  153.9693  141.2971  162.4313 H   0  0  0  0  0  0  0  0  0  0  0  0
  152.5656  143.4463  163.4155 H   0  0  0  0  0  0  0  0  0  0  0  0
  151.2680  143.8891  162.3080 H   0  0  0  0  0  0  0  0  0  0  0  0
  152.7670  144.8234  162.3350 H   0  0  0  0  0  0  0  0  0  0  0  0
  152.5259  145.1460  159.7520 H   0  0  0  0  0  0  0  0  0  0  0  0
  150.0634  143.3366  159.3028 H   0  0  0  0  0  0  0  0  0  0  0  0
  150.1310  144.9665  160.0889 H   0  0  0  0  0  0  0  0  0  0  0  0
  149.9824  144.5891  157.3617 H   0  0  0  0  0  0  0  0  0  0  0  0
  152.7240  144.8800  157.3415 H   0  0  0  0  0  0  0  0  0  0  0  0
  151.8972  143.2692  157.3882 H   0  0  0  0  0  0  0  0  0  0  0  0
  150.7743  145.9044  158.0702 H   0  0  0  0  0  0  0  0  0  0  0  0
  1  2  1  0  0  0  0
  1 12  1  0  0  0  0
  1 13  1  0  0  0  0
  1 14  1  0  0  0  0
  2 11  2  0  0  0  0
  2  3  1  0  0  0  0
  3  4  2  0  0  0  0
  3 15  1  0  0  0  0
  4  5  1  0  0  0  0
  4  6  1  0  0  0  0
  5 16  1  0  0  0  0
  5 17  1  0  0  0  0
  5 18  1  0  0  0  0
  6  7  1  0  0  0  0
  6 11  1  0  0  0  0
  7 10  1  0  0  0  0
  7  8  1  0  0  0  0
  7 19  1  0  0  0  0
  8  9  1  0  0  0  0
  8 20  1  0  0  0  0
  8 21  1  0  0  0  0
  9 10  1  0  0  0  0
  9 22  1  0  0  0  0
  9 25  1  0  0  0  0
 10 23  1  0  0  0  0
 10 24  1  0  0  0  0
M  CHG  1   9   1
M  END
> <s_m_source_file>
AV-unprocessed.smi

> <i_m_source_file_index>
947

> <i_lp_mmshare_version>
43012

> <i_f3d_flags>
0

> <s_epik_input>
W0NIM11jMVtjSF1jKFtDSDNdKW4objEpW0NIXTJbQ0gyXVtOSF1bQ0gyXTI=

> <s_epik_cmdline>
J2VwaWtfcHl0aG9uJywgJy1waCcsICc3LjAnLCAnLXRuJywgJzgnLCAnLW1hJywgJzIwMCcsICctbWV0YWxfYmluZGluZycsICctaW1hZScsICc8aW5maWxlLm1hZT4nLCAnLW9tYWUnLCAnPG91dGZpbGUubWFlPic=

> <r_lp_tautomer_probability>
1

> <r_epik_Ionization_Penalty>
0.0172231

> <r_epik_Ionization_Penalty_Charging>
0.0170392

> <r_epik_Ionization_Penalty_Neutral>
0.000183908

> <r_epik_State_Penalty>
0.00361255

> <r_epik_Charging_Adjusted_Penalty>
0.0206517

> <i_epik_Tot_Q>
1

> <i_epik_Tot_abs_Q>
1

> <r_epik_Metal_State_Penalty>
-0

> <b_epik_Metal_Only>
0

> <s_lp_Force_Field>
OPLS_2005

> <r_lp_Energy>
12.8102

> <b_lp_Chiralities_Consistent>
1

> <s_lp_Variant>
AV-unprocessed.smi:947-1

> <Gold.Version>
5.8.1

> <Gold.Id.Protein>
6NUR|6NUR_protein|mol2

> <Gold.PLP.Fitness>
38.9218

> <Gold.PLP.PLP>
-32.9887

> <Gold.PLP.part.hbond>
-1.9003

> <Gold.PLP.part.metal>
0.0000

> <Gold.PLP.part.buried>
-0.5768

> <Gold.PLP.part.nonpolar>
-30.8971

> <Gold.PLP.part.repulsive>
0.1508

> <Gold.PLP.ligand.clash>
0.0000

> <Gold.PLP.ligand.torsion>
0.1563

> <Gold.PLP.Chemscore.Hbond>
2.0000

> <Gold.PLP.Chemscore.CHOScore>
0.0000

> <Gold.PLP.Chemscore.Metal>
0.0000

> <Gold.Chemscore.Hbonds>
donor molecule, donor type, donor heavy atom, donor atom, acceptor molecule, acceptor atom, score
      L1  H     9    22       P1  8028  1.90

> <Gold.PLP.Chemscore.Internal.Correction>
0.2457

> <Gold.Rescore>
     Score         DG    S(hbond)    S(metal)    S(lipo)     H(rot)  DE(clash)    DE(int)     intcor
     15.38     -15.66       0.71        0.00      88.63       1.00       0.14       0.15       ----

> <Gold.Chemscore.Fitness>
15.3764

> <Gold.Chemscore.DG>
-15.6605

> <Gold.Chemscore.ZeroCoef>
-5.4800

> <Gold.Chemscore.Hbond>
0.7097

> <Gold.Chemscore.Metal>
0.0000

> <Gold.Chemscore.Lipo>
88.6341

> <Gold.Chemscore.Internal_Hbond>
0.0000

> <Gold.Chemscore.DEClash>
0.1353

> <Gold.Chemscore.DEInternal>
0.1489

> <Gold.Chemscore.Rot>
1.0000

> <Gold.Chemscore.Internal.Correction>
   9.000000E+99

> <Gold.Chemscore.Hbonds>
donor molecule, donor type, donor heavy atom, donor atom, acceptor molecule, acceptor atom, score
      L1  H     9    22       P1  8028  0.20

> <Gold.Chemscore.Hbond.Weighted>
-2.3703

> <Gold.Chemscore.Metal.Weighted>
-0.0000

> <Gold.Chemscore.Lipo.Weighted>
-10.3702

> <Gold.Chemscore.Internal_Hbond.Weighted>
0.0000

> <Gold.Chemscore.DEClash.Weighted>
0.1353

> <Gold.Chemscore.DEInternal.Weighted>
0.1489

> <Gold.Chemscore.Rot.Weighted>
2.5600

> <Gold.Chemscore.Internal.Correction.Weighted>
   9.000000E+99

> <Gold.Protein.RotatedTorsions>
[ 6907 6896 6895 6894 ] final  -96.16 input  -60.11 | X-H torsion
[ 7974 7965 7964 7962 ] final -156.98 input  175.53 | X-H torsion
[ 8008 7997 7996 7995 ] final -129.23 input   59.86 | X-H torsion
[ 10167 10162 10161 10158 ] final   45.31 input  -65.29 | X-H torsion
[ 10718 10713 10712 10709 ] final -162.09 input   66.30 | X-H torsion
[ 10763 10752 10751 10750 ] final -123.17 input  -60.55 | X-H torsion
[ 11005 11000 10999 10996 ] final   40.53 input  -57.11 | X-H torsion

> <Gold.Protein.ActiveResidues>
 VAL166  LYS551  ARG553  GLY616  TRP617  ASP618  TYR619  PRO620  LYS621  CYS622 
 ASP623  PHE694  ASN695  SER759  ASP760  ASP761  ALA762  ILE779  LEU786  VAL792 
 PHE793  MET794  SER795  GLU796  ALA797  LYS798  CYS799  TRP800  GLU811  SER814 

> <Gold.Protein.RotatedAtoms>
  150.6981  134.1546  159.4152 H   0  0  0  0  0  0  0  0  0  0  0  0  # atno 6907 bound_to 6896
  151.9528  135.0159  160.0552 H   0  0  0  0  0  0  0  0  0  0  0  0  # atno 6908 bound_to 6896
  152.1996  133.4796  159.5088 H   0  0  0  0  0  0  0  0  0  0  0  0  # atno 6909 bound_to 6896
  144.7569  140.4034  143.6006 H   0  0  0  0  0  0  0  0  0  0  0  0  # atno 7974 bound_to 7965
  155.2757  140.0442  157.3011 H   0  0  0  0  0  0  0  0  0  0  0  0  # atno 8008 bound_to 7997
  154.5627  140.2350  155.8280 H   0  0  0  0  0  0  0  0  0  0  0  0  # atno 8009 bound_to 7997
  156.2060  140.3012  155.9635 H   0  0  0  0  0  0  0  0  0  0  0  0  # atno 8010 bound_to 7997
  140.3254  144.2654  150.6176 H   0  0  0  0  0  0  0  0  0  0  0  0  # atno 10167 bound_to 10162
  156.6055  130.8828  151.2924 H   0  0  0  0  0  0  0  0  0  0  0  0  # atno 10718 bound_to 10713
  154.8703  135.4107  154.2900 H   0  0  0  0  0  0  0  0  0  0  0  0  # atno 10763 bound_to 10752
  153.3777  135.7010  153.6594 H   0  0  0  0  0  0  0  0  0  0  0  0  # atno 10764 bound_to 10752
  153.5429  135.3644  155.2698 H   0  0  0  0  0  0  0  0  0  0  0  0  # atno 10765 bound_to 10752
  140.1922  134.3973  155.8140 H   0  0  0  0  0  0  0  0  0  0  0  0  # atno 11005 bound_to 11000
  145.6750  139.1607  143.2733 LP  0  0  0  0  0  0  0  0  0  0  0  0  # atno 17320 bound_to 7965
  146.1588  140.6818  142.9287 LP  0  0  0  0  0  0  0  0  0  0  0  0  # atno 17321 bound_to 7965
  140.5445  143.2217  151.8029 LP  0  0  0  0  0  0  0  0  0  0  0  0  # atno 17342 bound_to 10162
  139.4866  144.4557  151.9601 LP  0  0  0  0  0  0  0  0  0  0  0  0  # atno 17343 bound_to 10162
  157.7268  130.9634  150.1672 LP  0  0  0  0  0  0  0  0  0  0  0  0  # atno 17370 bound_to 10713
  156.2433  130.3693  149.8313 LP  0  0  0  0  0  0  0  0  0  0  0  0  # atno 17371 bound_to 10713
  141.2226  133.7052  156.8114 LP  0  0  0  0  0  0  0  0  0  0  0  0  # atno 17394 bound_to 11000
  140.2147  134.8801  157.3313 LP  0  0  0  0  0  0  0  0  0  0  0  0  # atno 17395 bound_to 11000

$$$$
