AV-unprocessed.smi:3209|AV-procd|sdf|12271|dock9
  -GOLD-   2272018103D 1   1.00000     0.00000
 Structure written by MMmdl.
 37 39  0  0  0  0  0  0  0  0  2 V2000
  146.6847  138.7698  152.6264 C   0  0  0  0  0  0  0  0  0  0  0  0
  147.3086  139.8158  153.4854 C   0  0  0  0  0  0  0  0  0  0  0  0
  148.3370  139.5836  154.3055 N   0  0  0  0  0  0  0  0  0  0  0  0
  148.7390  140.7273  155.0026 C   0  0  0  0  0  0  0  0  0  0  0  0
  149.8798  140.6487  155.9711 C   0  0  0  0  0  0  0  0  0  0  0  0
  149.5134  141.2175  157.3485 C   0  0  0  0  0  0  0  0  0  0  0  0
  149.8741  142.6462  157.4446 N   0  3  0  0  0  0  0  0  0  0  0  0
  151.3195  142.9051  157.6227 C   0  0  1  0  0  0  0  0  0  0  0  0
  151.7760  144.2983  157.1372 C   0  0  0  0  0  0  0  0  0  0  0  0
  152.5264  144.8540  158.3637 C   0  0  1  0  0  0  0  0  0  0  0  0
  151.4996  145.2759  159.4292 C   0  0  0  0  0  0  0  0  0  0  0  0
  150.9710  143.9232  159.9399 C   0  0  0  0  0  0  0  0  0  0  0  0
  151.7672  142.8998  159.1005 C   0  0  2  0  0  0  0  0  0  0  0  0
  153.1207  143.5944  158.9875 C   0  0  0  0  0  0  0  0  0  0  0  0
  147.9953  141.8389  154.6933 C   0  0  0  0  0  0  0  0  0  0  0  0
  146.7606  141.4873  153.5154 S   0  0  0  0  0  0  0  0  0  0  0  0
  147.0551  137.7799  152.8947 H   0  0  0  0  0  0  0  0  0  0  0  0
  146.9193  138.9598  151.5791 H   0  0  0  0  0  0  0  0  0  0  0  0
  145.6018  138.7822  152.7509 H   0  0  0  0  0  0  0  0  0  0  0  0
  150.2008  139.6118  156.0788 H   0  0  0  0  0  0  0  0  0  0  0  0
  150.7402  141.1883  155.5732 H   0  0  0  0  0  0  0  0  0  0  0  0
  148.4427  141.1053  157.5246 H   0  0  0  0  0  0  0  0  0  0  0  0
  150.0291  140.6594  158.1308 H   0  0  0  0  0  0  0  0  0  0  0  0
  149.5609  143.1237  156.6114 H   0  0  0  0  0  0  0  0  0  0  0  0
  151.8769  142.1316  157.0908 H   0  0  0  0  0  0  0  0  0  0  0  0
  152.4446  144.2020  156.2808 H   0  0  0  0  0  0  0  0  0  0  0  0
  150.9497  144.9462  156.8416 H   0  0  0  0  0  0  0  0  0  0  0  0
  153.2476  145.6348  158.1200 H   0  0  0  0  0  0  0  0  0  0  0  0
  151.9830  145.8273  160.2369 H   0  0  0  0  0  0  0  0  0  0  0  0
  150.7091  145.9070  159.0212 H   0  0  0  0  0  0  0  0  0  0  0  0
  151.1980  143.8062  161.0004 H   0  0  0  0  0  0  0  0  0  0  0  0
  149.8913  143.8261  159.8256 H   0  0  0  0  0  0  0  0  0  0  0  0
  151.8020  141.9039  159.5431 H   0  0  0  0  0  0  0  0  0  0  0  0
  153.8236  143.0770  158.3321 H   0  0  0  0  0  0  0  0  0  0  0  0
  153.5987  143.7735  159.9526 H   0  0  0  0  0  0  0  0  0  0  0  0
  148.0974  142.8409  155.0836 H   0  0  0  0  0  0  0  0  0  0  0  0
  149.3868  143.0339  158.2399 H   0  0  0  0  0  0  0  0  0  0  0  0
  1  2  1  0  0  0  0
  1 17  1  0  0  0  0
  1 18  1  0  0  0  0
  1 19  1  0  0  0  0
  2 16  1  0  0  0  0
  2  3  2  0  0  0  0
  3  4  1  0  0  0  0
  4  5  1  0  0  0  0
  4 15  2  0  0  0  0
  5  6  1  0  0  0  0
  5 20  1  0  0  0  0
  5 21  1  0  0  0  0
  6  7  1  0  0  0  0
  6 22  1  0  0  0  0
  6 23  1  0  0  0  0
  7  8  1  0  0  0  0
  7 24  1  0  0  0  0
  7 37  1  0  0  0  0
  8 13  1  0  0  0  0
  8  9  1  0  0  0  0
  8 25  1  0  0  0  0
  9 10  1  0  0  0  0
  9 26  1  0  0  0  0
  9 27  1  0  0  0  0
 10 14  1  0  0  0  0
 10 11  1  0  0  0  0
 10 28  1  0  0  0  0
 11 12  1  0  0  0  0
 11 29  1  0  0  0  0
 11 30  1  0  0  0  0
 12 13  1  0  0  0  0
 12 31  1  0  0  0  0
 12 32  1  0  0  0  0
 13 14  1  0  0  0  0
 13 33  1  0  0  0  0
 14 34  1  0  0  0  0
 14 35  1  0  0  0  0
 15 16  1  0  0  0  0
 15 36  1  0  0  0  0
M  CHG  1   7   1
M  END
> <s_m_source_file>
AV-unprocessed.smi

> <i_m_source_file_index>
3209

> <i_lp_mmshare_version>
43012

> <i_f3d_flags>
0

> <s_epik_input>
W0NIM11jMW5jKFtjSF1zMSlbQ0gyXVtDSDJdW05IXVtDQEhdKFtDSDJdW0NASF0yMylbQ0BIXShbQ0gyXTMpW0NIMl1bQ0gyXTI=

> <s_epik_cmdline>
J2VwaWtfcHl0aG9uJywgJy1waCcsICc3LjAnLCAnLXRuJywgJzgnLCAnLW1hJywgJzIwMCcsICctbWV0YWxfYmluZGluZycsICctaW1hZScsICc8aW5maWxlLm1hZT4nLCAnLW9tYWUnLCAnPG91dGZpbGUubWFlPic=

> <r_lp_tautomer_probability>
1

> <r_epik_Ionization_Penalty>
0.000342479

> <r_epik_Ionization_Penalty_Charging>
0.000317129

> <r_epik_Ionization_Penalty_Neutral>
2.535e-05

> <r_epik_State_Penalty>
-0

> <r_epik_Charging_Adjusted_Penalty>
0.000317129

> <i_epik_Tot_Q>
1

> <i_epik_Tot_abs_Q>
1

> <r_epik_Metal_State_Penalty>
-0

> <b_epik_Metal_Only>
0

> <s_lp_Force_Field>
OPLS_2005

> <r_lp_Energy>
49.0881

> <b_lp_Chiralities_Consistent>
1

> <s_lp_Variant>
AV-unprocessed.smi:3209-4

> <Gold.Version>
5.8.1

> <Gold.Id.Protein>
6NUR|6NUR_protein|mol2

> <Gold.PLP.Fitness>
46.3887

> <Gold.PLP.PLP>
-38.6469

> <Gold.PLP.part.hbond>
-1.0000

> <Gold.PLP.part.metal>
0.0000

> <Gold.PLP.part.buried>
-4.2262

> <Gold.PLP.part.nonpolar>
-34.4248

> <Gold.PLP.part.repulsive>
0.1557

> <Gold.PLP.ligand.clash>
0.0000

> <Gold.PLP.ligand.torsion>
0.6325

> <Gold.PLP.Chemscore.Hbond>
2.0000

> <Gold.PLP.Chemscore.CHOScore>
1.0000

> <Gold.PLP.Chemscore.Metal>
0.0000

> <Gold.Chemscore.Hbonds>
donor molecule, donor type, donor heavy atom, donor atom, acceptor molecule, acceptor atom, score
      L1  H     7    24       P1  8028  2.00
      L1  C    15    36       P1  8028  1.00

> <Gold.PLP.Chemscore.Internal.Correction>
0.0068

> <Gold.Rescore>
     Score         DG    S(hbond)    S(metal)    S(lipo)     H(rot)  DE(clash)    DE(int)     intcor
     19.55     -20.35       0.92        0.00     129.57       1.31       0.22       0.58       ----

> <Gold.Chemscore.Fitness>
19.5515

> <Gold.Chemscore.DG>
-20.3485

> <Gold.Chemscore.ZeroCoef>
-5.4800

> <Gold.Chemscore.Hbond>
0.9176

> <Gold.Chemscore.Metal>
0.0000

> <Gold.Chemscore.Lipo>
129.5684

> <Gold.Chemscore.Internal_Hbond>
0.0000

> <Gold.Chemscore.DEClash>
0.2197

> <Gold.Chemscore.DEInternal>
0.5773

> <Gold.Chemscore.Rot>
1.3108

> <Gold.Chemscore.Internal.Correction>
   9.000000E+99

> <Gold.Chemscore.Hbonds>
donor molecule, donor type, donor heavy atom, donor atom, acceptor molecule, acceptor atom, score
      L1  H     7    24       P1  8028  0.94

> <Gold.Chemscore.Hbond.Weighted>
-3.0648

> <Gold.Chemscore.Metal.Weighted>
-0.0000

> <Gold.Chemscore.Lipo.Weighted>
-15.1595

> <Gold.Chemscore.Internal_Hbond.Weighted>
0.0000

> <Gold.Chemscore.DEClash.Weighted>
0.2197

> <Gold.Chemscore.DEInternal.Weighted>
0.5773

> <Gold.Chemscore.Rot.Weighted>
3.3558

> <Gold.Chemscore.Internal.Correction.Weighted>
   9.000000E+99

> <Gold.Protein.RotatedTorsions>
[ 6907 6896 6895 6894 ] final   68.78 input  -60.11 | X-H torsion
[ 7974 7965 7964 7962 ] final  114.49 input  175.53 | X-H torsion
[ 8008 7997 7996 7995 ] final -150.40 input   59.86 | X-H torsion
[ 10167 10162 10161 10158 ] final  141.04 input  -65.29 | X-H torsion
[ 10718 10713 10712 10709 ] final  113.61 input   66.30 | X-H torsion
[ 10763 10752 10751 10750 ] final  -24.74 input  -60.55 | X-H torsion
[ 11005 11000 10999 10996 ] final -156.60 input  -57.11 | X-H torsion

> <Gold.Protein.ActiveResidues>
 VAL166  LYS551  ARG553  GLY616  TRP617  ASP618  TYR619  PRO620  LYS621  CYS622 
 ASP623  PHE694  ASN695  SER759  ASP760  ASP761  ALA762  ILE779  LEU786  VAL792 
 PHE793  MET794  SER795  GLU796  ALA797  LYS798  CYS799  TRP800  GLU811  SER814 

> <Gold.Protein.RotatedAtoms>
  152.4643  134.5112  159.9754 H   0  0  0  0  0  0  0  0  0  0  0  0  # atno 6907 bound_to 6896
  151.5153  133.3471  159.2900 H   0  0  0  0  0  0  0  0  0  0  0  0  # atno 6908 bound_to 6896
  150.8620  134.8003  159.7152 H   0  0  0  0  0  0  0  0  0  0  0  0  # atno 6909 bound_to 6896
  145.2038  139.2939  143.4304 H   0  0  0  0  0  0  0  0  0  0  0  0  # atno 7974 bound_to 7965
  155.6229  140.0683  157.2672 H   0  0  0  0  0  0  0  0  0  0  0  0  # atno 8008 bound_to 7997
  154.4224  140.1781  156.1439 H   0  0  0  0  0  0  0  0  0  0  0  0  # atno 8009 bound_to 7997
  155.9995  140.3337  155.6834 H   0  0  0  0  0  0  0  0  0  0  0  0  # atno 8010 bound_to 7997
  139.5032  144.6197  151.6081 H   0  0  0  0  0  0  0  0  0  0  0  0  # atno 10167 bound_to 10162
  157.6328  131.0986  150.7065 H   0  0  0  0  0  0  0  0  0  0  0  0  # atno 10718 bound_to 10713
  153.6886  135.6963  153.5096 H   0  0  0  0  0  0  0  0  0  0  0  0  # atno 10763 bound_to 10752
  153.2430  135.4300  155.0717 H   0  0  0  0  0  0  0  0  0  0  0  0  # atno 10764 bound_to 10752
  154.8379  135.3512  154.6428 H   0  0  0  0  0  0  0  0  0  0  0  0  # atno 10765 bound_to 10752
  140.6738  134.4218  157.5230 H   0  0  0  0  0  0  0  0  0  0  0  0  # atno 11005 bound_to 11000
  146.3412  140.2291  142.8593 LP  0  0  0  0  0  0  0  0  0  0  0  0  # atno 17320 bound_to 7965
  144.9922  140.8557  143.5332 LP  0  0  0  0  0  0  0  0  0  0  0  0  # atno 17321 bound_to 7965
  140.5895  143.9805  150.6316 LP  0  0  0  0  0  0  0  0  0  0  0  0  # atno 17342 bound_to 10162
  140.2980  143.3279  152.0999 LP  0  0  0  0  0  0  0  0  0  0  0  0  # atno 17343 bound_to 10162
  156.7402  130.4736  149.5479 LP  0  0  0  0  0  0  0  0  0  0  0  0  # atno 17370 bound_to 10713
  156.1545  130.6332  151.0639 LP  0  0  0  0  0  0  0  0  0  0  0  0  # atno 17371 bound_to 10713
  139.8973  134.8640  156.2050 LP  0  0  0  0  0  0  0  0  0  0  0  0  # atno 17394 bound_to 11000
  141.0371  133.6957  156.1532 LP  0  0  0  0  0  0  0  0  0  0  0  0  # atno 17395 bound_to 11000

$$$$
