AV-unprocessed.smi:114|AV-procd|sdf|1120|dock6
  -GOLD-   2262018243D 1   1.00000     0.00000
 Structure written by MMmdl.
 32 34  0  0  0  0  0  0  0  0  1 V2000
  148.3784  129.4172  155.2356 N   0  0  0  0  0  0  0  0  0  0  0  0
  148.2580  130.5747  154.5702 C   0  0  0  0  0  0  0  0  0  0  0  0
  149.0146  131.6264  154.9629 N   0  0  0  0  0  0  0  0  0  0  0  0
  148.9237  132.8010  154.3260 C   0  0  0  0  0  0  0  0  0  0  0  0
  149.7168  133.7969  154.7861 F   0  0  0  0  0  0  0  0  0  0  0  0
  148.1368  133.1021  153.2867 N   0  0  0  0  0  0  0  0  0  0  0  0
  147.3751  132.0424  152.8895 C   0  0  0  0  0  0  0  0  0  0  0  0
  147.3757  130.7499  153.4764 C   0  0  0  0  0  0  0  0  0  0  0  0
  146.4735  129.9297  152.8124 N   0  0  0  0  0  0  0  0  0  0  0  0
  145.9688  130.7015  151.8861 C   0  0  0  0  0  0  0  0  0  0  0  0
  146.4536  131.9935  151.8671 N   0  0  0  0  0  0  0  0  0  0  0  0
  146.1062  133.1317  150.9542 C   0  0  1  0  0  0  0  0  0  0  0  0
  145.6770  132.6051  149.7347 O   0  0  0  0  0  0  0  0  0  0  0  0
  144.2570  132.6618  149.6600 C   0  0  2  0  0  0  0  0  0  0  0  0
  143.7689  132.5474  148.2059 C   0  0  0  0  0  0  0  0  0  0  0  0
  142.4198  132.1335  148.1828 O   0  0  0  0  0  0  0  0  0  0  0  0
  143.9442  133.9877  150.3645 C   0  0  2  0  0  0  0  0  0  0  0  0
  144.1509  135.0884  149.4974 O   0  0  0  0  0  0  0  0  0  0  0  0
  144.9546  134.0093  151.5056 C   0  0  1  0  0  0  0  0  0  0  0  0
  144.3533  133.5024  152.6852 O   0  0  0  0  0  0  0  0  0  0  0  0
  147.0440  133.6721  150.8198 H   0  0  0  0  0  0  0  0  0  0  0  0
  143.8342  131.8534  150.2594 H   0  0  0  0  0  0  0  0  0  0  0  0
  142.9120  134.0272  150.7155 H   0  0  0  0  0  0  0  0  0  0  0  0
  145.3254  135.0143  151.7120 H   0  0  0  0  0  0  0  0  0  0  0  0
  147.8228  128.6200  154.9601 H   0  0  0  0  0  0  0  0  0  0  0  0
  149.0218  129.3445  156.0105 H   0  0  0  0  0  0  0  0  0  0  0  0
  145.2262  130.3404  151.1897 H   0  0  0  0  0  0  0  0  0  0  0  0
  143.8202  133.5196  147.7147 H   0  0  0  0  0  0  0  0  0  0  0  0
  144.3858  131.8564  147.6305 H   0  0  0  0  0  0  0  0  0  0  0  0
  142.0994  132.2008  147.2963 H   0  0  0  0  0  0  0  0  0  0  0  0
  144.7753  134.8363  148.8344 H   0  0  0  0  0  0  0  0  0  0  0  0
  145.0312  133.1253  153.2253 H   0  0  0  0  0  0  0  0  0  0  0  0
  1  2  1  0  0  0  0
  1 25  1  0  0  0  0
  1 26  1  0  0  0  0
  2  8  1  0  0  0  0
  2  3  2  0  0  0  0
  3  4  1  0  0  0  0
  4  5  1  0  0  0  0
  4  6  2  0  0  0  0
  6  7  1  0  0  0  0
  7 11  1  0  0  0  0
  7  8  2  0  0  0  0
  8  9  1  0  0  0  0
  9 10  2  0  0  0  0
 10 11  1  0  0  0  0
 10 27  1  0  0  0  0
 11 12  1  0  0  0  0
 12 21  1  0  0  0  0
 12 19  1  0  0  0  0
 12 13  1  0  0  0  0
 13 14  1  0  0  0  0
 14 22  1  0  0  0  0
 14 15  1  0  0  0  0
 14 17  1  0  0  0  0
 15 16  1  0  0  0  0
 15 28  1  0  0  0  0
 15 29  1  0  0  0  0
 16 30  1  0  0  0  0
 17 23  1  0  0  0  0
 17 18  1  0  0  0  0
 17 19  1  0  0  0  0
 18 31  1  0  0  0  0
 19 24  1  0  0  0  0
 19 20  1  0  0  0  0
 20 32  1  0  0  0  0
M  END
> <s_m_source_file>
AV-unprocessed.smi

> <i_m_source_file_index>
114

> <i_lp_mmshare_version>
43012

> <i_f3d_flags>
0

> <s_epik_input>
RmMobjEpbmMoW05IMl0pYyhjMTIpbltjSF1uMltDQEBIXTNPW0NASF0oW0NIMl1bT0hdKVtDQEBIXShbT0hdKVtDQEBIXTNbT0hd

> <s_epik_cmdline>
J2VwaWtfcHl0aG9uJywgJy1waCcsICc3LjAnLCAnLXRuJywgJzgnLCAnLW1hJywgJzIwMCcsICctbWV0YWxfYmluZGluZycsICctaW1hZScsICc8aW5maWxlLm1hZT4nLCAnLW9tYWUnLCAnPG91dGZpbGUubWFlPic=

> <r_lp_tautomer_probability>
1

> <r_epik_Ionization_Penalty>
1.13199e-05

> <r_epik_Ionization_Penalty_Charging>
0

> <r_epik_Ionization_Penalty_Neutral>
1.13199e-05

> <r_epik_State_Penalty>
-0

> <r_epik_Charging_Adjusted_Penalty>
0

> <i_epik_Tot_Q>
0

> <i_epik_Tot_abs_Q>
0

> <r_epik_Metal_State_Penalty>
-0

> <b_epik_Metal_Only>
0

> <s_epik_Chemistry_Notes>
This compound contains an acetal/aminal-like group ( X-CH(R)-Y where X, Y are N, S, or O) that may be acid/base labile, releasing an aldehyde.

> <s_lp_Force_Field>
OPLS_2005

> <r_lp_Energy>
38.7556

> <b_lp_Chiralities_Consistent>
1

> <s_lp_Variant>
AV-unprocessed.smi:114-14

> <Gold.Version>
5.8.1

> <Gold.Id.Protein>
6NUR|6NUR_protein|mol2

> <Gold.PLP.Fitness>
40.6644

> <Gold.PLP.PLP>
-35.9483

> <Gold.PLP.part.hbond>
-6.0670

> <Gold.PLP.part.metal>
0.0000

> <Gold.PLP.part.buried>
-4.0695

> <Gold.PLP.part.nonpolar>
-26.2944

> <Gold.PLP.part.repulsive>
1.1853

> <Gold.PLP.ligand.clash>
0.0000

> <Gold.PLP.ligand.torsion>
0.9768

> <Gold.PLP.Chemscore.Hbond>
2.2028

> <Gold.PLP.Chemscore.CHOScore>
0.0000

> <Gold.PLP.Chemscore.Metal>
0.0000

> <Gold.Chemscore.Hbonds>
donor molecule, donor type, donor heavy atom, donor atom, acceptor molecule, acceptor atom, score
      L1  H    16    30       P1 10195  1.00
      L1  H    18    31       P1  7921  1.00
      P1  H 10785 10796       L1    16  0.14

> <Gold.PLP.Chemscore.Internal.Correction>
0.0612

> <Gold.Rescore>
     Score         DG    S(hbond)    S(metal)    S(lipo)     H(rot)  DE(clash)    DE(int)     intcor
      5.98      -6.83       1.99        0.00      42.84       4.03       0.15       0.70       ----

> <Gold.Chemscore.Fitness>
5.9808

> <Gold.Chemscore.DG>
-6.8293

> <Gold.Chemscore.ZeroCoef>
-5.4800

> <Gold.Chemscore.Hbond>
1.9905

> <Gold.Chemscore.Metal>
0.0000

> <Gold.Chemscore.Lipo>
42.8373

> <Gold.Chemscore.Internal_Hbond>
0.0000

> <Gold.Chemscore.DEClash>
0.1508

> <Gold.Chemscore.DEInternal>
0.6976

> <Gold.Chemscore.Rot>
4.0277

> <Gold.Chemscore.Internal.Correction>
   9.000000E+99

> <Gold.Chemscore.Hbonds>
donor molecule, donor type, donor heavy atom, donor atom, acceptor molecule, acceptor atom, score
      L1  H    16    30       P1 10195  0.91
      L1  H    18    31       P1  7921  1.00

> <Gold.Chemscore.Hbond.Weighted>
-6.6483

> <Gold.Chemscore.Metal.Weighted>
-0.0000

> <Gold.Chemscore.Lipo.Weighted>
-5.0120

> <Gold.Chemscore.Internal_Hbond.Weighted>
0.0000

> <Gold.Chemscore.DEClash.Weighted>
0.1508

> <Gold.Chemscore.DEInternal.Weighted>
0.6976

> <Gold.Chemscore.Rot.Weighted>
10.3110

> <Gold.Chemscore.Internal.Correction.Weighted>
   9.000000E+99

> <Gold.Protein.RotatedTorsions>
[ 6907 6896 6895 6894 ] final -126.75 input  -60.11 | X-H torsion
[ 7974 7965 7964 7962 ] final   41.86 input  175.53 | X-H torsion
[ 8008 7997 7996 7995 ] final  -52.98 input   59.86 | X-H torsion
[ 10167 10162 10161 10158 ] final -104.02 input  -65.29 | X-H torsion
[ 10718 10713 10712 10709 ] final -178.93 input   66.30 | X-H torsion
[ 10763 10752 10751 10750 ] final    3.94 input  -60.55 | X-H torsion
[ 11005 11000 10999 10996 ] final   15.42 input  -57.11 | X-H torsion

> <Gold.Protein.ActiveResidues>
 VAL166  LYS551  ARG553  GLY616  TRP617  ASP618  TYR619  PRO620  LYS621  CYS622 
 ASP623  PHE694  ASN695  SER759  ASP760  ASP761  ALA762  ILE779  LEU786  VAL792 
 PHE793  MET794  SER795  GLU796  ALA797  LYS798  CYS799  TRP800  GLU811  SER814 

> <Gold.Protein.RotatedAtoms>
  150.9001  133.7129  159.2880 H   0  0  0  0  0  0  0  0  0  0  0  0  # atno 6907 bound_to 6896
  151.4650  135.1040  159.9745 H   0  0  0  0  0  0  0  0  0  0  0  0  # atno 6908 bound_to 6896
  152.4872  133.8355  159.7181 H   0  0  0  0  0  0  0  0  0  0  0  0  # atno 6909 bound_to 6896
  146.0789  139.5367  142.9550 H   0  0  0  0  0  0  0  0  0  0  0  0  # atno 7974 bound_to 7965
  154.4121  140.1211  156.5080 H   0  0  0  0  0  0  0  0  0  0  0  0  # atno 8008 bound_to 7997
  155.6828  140.3496  155.4843 H   0  0  0  0  0  0  0  0  0  0  0  0  # atno 8009 bound_to 7997
  155.9537  140.1109  157.0945 H   0  0  0  0  0  0  0  0  0  0  0  0  # atno 8010 bound_to 7997
  140.2138  143.3727  152.1028 H   0  0  0  0  0  0  0  0  0  0  0  0  # atno 10167 bound_to 10162
  156.8515  130.9721  151.3092 H   0  0  0  0  0  0  0  0  0  0  0  0  # atno 10718 bound_to 10713
  153.2772  135.6937  153.7421 H   0  0  0  0  0  0  0  0  0  0  0  0  # atno 10763 bound_to 10752
  153.6422  135.3391  155.3075 H   0  0  0  0  0  0  0  0  0  0  0  0  # atno 10764 bound_to 10752
  154.8483  135.4434  154.1814 H   0  0  0  0  0  0  0  0  0  0  0  0  # atno 10765 bound_to 10752
  140.4585  134.1152  155.7713 H   0  0  0  0  0  0  0  0  0  0  0  0  # atno 11005 bound_to 11000
  145.6255  141.0314  143.1891 LP  0  0  0  0  0  0  0  0  0  0  0  0  # atno 17320 bound_to 7965
  144.7280  139.7815  143.7358 LP  0  0  0  0  0  0  0  0  0  0  0  0  # atno 17321 bound_to 7965
  139.5170  144.6985  151.5561 LP  0  0  0  0  0  0  0  0  0  0  0  0  # atno 17342 bound_to 10162
  140.6304  143.9086  150.6601 LP  0  0  0  0  0  0  0  0  0  0  0  0  # atno 17343 bound_to 10162
  157.6300  130.8722  149.9257 LP  0  0  0  0  0  0  0  0  0  0  0  0  # atno 17370 bound_to 10713
  156.0825  130.3671  150.0552 LP  0  0  0  0  0  0  0  0  0  0  0  0  # atno 17371 bound_to 10713
  141.1632  133.8753  157.1789 LP  0  0  0  0  0  0  0  0  0  0  0  0  # atno 17394 bound_to 11000
  139.9961  135.0046  157.0085 LP  0  0  0  0  0  0  0  0  0  0  0  0  # atno 17395 bound_to 11000

$$$$
