AV-unprocessed.smi:2084|AV-procd|sdf|8514|dock6
  -GOLD-   2272011233D 1   1.00000     0.00000
 Structure written by MMmdl.
 39 40  0  0  0  0  0  0  0  0  2 V2000
  147.3446  139.6077  152.1704 C   0  0  0  0  0  0  0  0  0  0  0  0
  146.8455  141.0047  152.3047 N   0  3  0  0  0  0  0  0  0  0  0  0
  147.0626  141.7483  151.0367 C   0  0  0  0  0  0  0  0  0  0  0  0
  147.2553  141.7416  153.5563 C   0  0  0  0  0  0  0  0  0  0  0  0
  148.8105  141.8842  153.5997 C   0  0  0  0  0  0  0  0  0  0  0  0
  149.3170  142.4554  154.8488 N   0  0  0  0  0  0  0  0  0  0  0  0
  150.2937  141.9378  155.6077 C   0  0  0  0  0  0  0  0  0  0  0  0
  150.8916  140.8986  155.3301 O   0  0  0  0  0  0  0  0  0  0  0  0
  150.5266  142.7037  156.6854 N   0  0  0  0  0  0  0  0  0  0  0  0
  151.4744  142.4859  157.7159 C   0  0  0  0  0  0  0  0  0  0  0  0
  151.6201  143.4135  158.6637 N   0  0  0  0  0  0  0  0  0  0  0  0
  152.5884  143.0533  159.6056 C   0  0  0  0  0  0  0  0  0  0  0  0
  153.1732  141.8362  159.3582 C   0  0  0  0  0  0  0  0  0  0  0  0
  152.5307  141.0864  157.9220 S   0  0  0  0  0  0  0  0  0  0  0  0
  146.6025  143.1575  153.5979 C   0  0  0  0  0  0  0  0  0  0  0  0
  145.5689  143.1342  154.7264 C   0  0  0  0  0  0  0  0  0  0  0  0
  146.1273  142.1265  155.7239 C   0  0  0  0  0  0  0  0  0  0  0  0
  146.7430  141.0356  154.8458 C   0  0  0  0  0  0  0  0  0  0  0  0
  148.4106  139.5714  151.9493 H   0  0  0  0  0  0  0  0  0  0  0  0
  146.8317  139.1130  151.3449 H   0  0  0  0  0  0  0  0  0  0  0  0
  147.1618  138.9936  153.0495 H   0  0  0  0  0  0  0  0  0  0  0  0
  148.0987  142.0727  150.9364 H   0  0  0  0  0  0  0  0  0  0  0  0
  146.4133  142.6192  150.9602 H   0  0  0  0  0  0  0  0  0  0  0  0
  146.8270  141.1227  150.1750 H   0  0  0  0  0  0  0  0  0  0  0  0
  149.2929  140.9103  153.5305 H   0  0  0  0  0  0  0  0  0  0  0  0
  149.1524  142.4548  152.7345 H   0  0  0  0  0  0  0  0  0  0  0  0
  148.8870  143.3149  155.1590 H   0  0  0  0  0  0  0  0  0  0  0  0
  149.9645  143.5364  156.7819 H   0  0  0  0  0  0  0  0  0  0  0  0
  152.7991  143.7256  160.4241 H   0  0  0  0  0  0  0  0  0  0  0  0
  153.9406  141.3375  159.9316 H   0  0  0  0  0  0  0  0  0  0  0  0
  147.3334  143.9294  153.8342 H   0  0  0  0  0  0  0  0  0  0  0  0
  146.1736  143.4773  152.6486 H   0  0  0  0  0  0  0  0  0  0  0  0
  145.4101  144.1180  155.1690 H   0  0  0  0  0  0  0  0  0  0  0  0
  144.6084  142.7828  154.3481 H   0  0  0  0  0  0  0  0  0  0  0  0
  146.9002  142.5990  156.3313 H   0  0  0  0  0  0  0  0  0  0  0  0
  145.3648  141.7391  156.4003 H   0  0  0  0  0  0  0  0  0  0  0  0
  145.9725  140.2976  154.6315 H   0  0  0  0  0  0  0  0  0  0  0  0
  147.5295  140.4944  155.3730 H   0  0  0  0  0  0  0  0  0  0  0  0
  145.8428  140.9084  152.3835 H   0  0  0  0  0  0  0  0  0  0  0  0
  1  2  1  0  0  0  0
  1 19  1  0  0  0  0
  1 20  1  0  0  0  0
  1 21  1  0  0  0  0
  2  3  1  0  0  0  0
  2  4  1  0  0  0  0
  2 39  1  0  0  0  0
  3 22  1  0  0  0  0
  3 23  1  0  0  0  0
  3 24  1  0  0  0  0
  4 18  1  0  0  0  0
  4  5  1  0  0  0  0
  4 15  1  0  0  0  0
  5  6  1  0  0  0  0
  5 25  1  0  0  0  0
  5 26  1  0  0  0  0
  6  7  1  0  0  0  0
  6 27  1  0  0  0  0
  7  8  2  0  0  0  0
  7  9  1  0  0  0  0
  9 10  1  0  0  0  0
  9 28  1  0  0  0  0
 10 14  1  0  0  0  0
 10 11  2  0  0  0  0
 11 12  1  0  0  0  0
 12 13  2  0  0  0  0
 12 29  1  0  0  0  0
 13 14  1  0  0  0  0
 13 30  1  0  0  0  0
 15 16  1  0  0  0  0
 15 31  1  0  0  0  0
 15 32  1  0  0  0  0
 16 17  1  0  0  0  0
 16 33  1  0  0  0  0
 16 34  1  0  0  0  0
 17 18  1  0  0  0  0
 17 35  1  0  0  0  0
 17 36  1  0  0  0  0
 18 37  1  0  0  0  0
 18 38  1  0  0  0  0
M  CHG  1   2   1
M  END
> <s_m_source_file>
AV-unprocessed.smi

> <i_m_source_file_index>
2084

> <i_lp_mmshare_version>
43012

> <i_f3d_flags>
0

> <s_epik_input>
W0NIMl0xW0NIMl1bQ0gyXVtDSDJdQzEoTihbQ0gzXSlbQ0gzXSlbQ0gyXVtOSF1DKD1PKVtOSF1jMm5bY0hdW2NIXXMy

> <s_epik_cmdline>
J2VwaWtfcHl0aG9uJywgJy1waCcsICc3LjAnLCAnLXRuJywgJzgnLCAnLW1hJywgJzIwMCcsICctbWV0YWxfYmluZGluZycsICctaW1hZScsICc8aW5maWxlLm1hZT4nLCAnLW9tYWUnLCAnPG91dGZpbGUubWFlPic=

> <r_lp_tautomer_probability>
1

> <r_epik_Ionization_Penalty>
0.0027968

> <r_epik_Ionization_Penalty_Charging>
0.00256589

> <r_epik_Ionization_Penalty_Neutral>
0.000230907

> <r_epik_State_Penalty>
-0

> <r_epik_Charging_Adjusted_Penalty>
0.00256589

> <i_epik_Tot_Q>
1

> <i_epik_Tot_abs_Q>
1

> <r_epik_Metal_State_Penalty>
0.0129581

> <b_epik_Metal_Only>
0

> <s_lp_Force_Field>
OPLS_2005

> <r_lp_Energy>
35.9551

> <b_lp_Chiralities_Consistent>
1

> <s_lp_Variant>
AV-unprocessed.smi:2084-1

> <Gold.Version>
5.8.1

> <Gold.Id.Protein>
6NUR|6NUR_protein|mol2

> <Gold.PLP.Fitness>
47.4098

> <Gold.PLP.PLP>
-35.9674

> <Gold.PLP.part.hbond>
-3.0000

> <Gold.PLP.part.metal>
0.0000

> <Gold.PLP.part.buried>
-4.0856

> <Gold.PLP.part.nonpolar>
-29.4376

> <Gold.PLP.part.repulsive>
0.4048

> <Gold.PLP.ligand.clash>
0.0000

> <Gold.PLP.ligand.torsion>
0.1583

> <Gold.PLP.Chemscore.Hbond>
3.8800

> <Gold.PLP.Chemscore.CHOScore>
0.0000

> <Gold.PLP.Chemscore.Metal>
0.0000

> <Gold.Chemscore.Hbonds>
donor molecule, donor type, donor heavy atom, donor atom, acceptor molecule, acceptor atom, score
      L1  H     2    39       P1 10175  0.93
      L1  H     6    27       P1  8028  0.86
      L1  H     9    28       P1  8028  0.78
      P1  H  7989  7998       L1     8  0.75

> <Gold.PLP.Chemscore.Internal.Correction>
0.1191

> <Gold.Rescore>
     Score         DG    S(hbond)    S(metal)    S(lipo)     H(rot)  DE(clash)    DE(int)     intcor
     18.72     -20.07       2.92        0.00      76.15       1.59       0.19       1.16       ----

> <Gold.Chemscore.Fitness>
18.7184

> <Gold.Chemscore.DG>
-20.0737

> <Gold.Chemscore.ZeroCoef>
-5.4800

> <Gold.Chemscore.Hbond>
2.9168

> <Gold.Chemscore.Metal>
0.0000

> <Gold.Chemscore.Lipo>
76.1468

> <Gold.Chemscore.Internal_Hbond>
0.0000

> <Gold.Chemscore.DEClash>
0.1914

> <Gold.Chemscore.DEInternal>
1.1639

> <Gold.Chemscore.Rot>
1.5850

> <Gold.Chemscore.Internal.Correction>
   9.000000E+99

> <Gold.Chemscore.Hbonds>
donor molecule, donor type, donor heavy atom, donor atom, acceptor molecule, acceptor atom, score
      L1  H     2    39       P1 10175  0.06
      L1  H     6    27       P1  8028  0.83
      L1  H     9    28       P1  8028  0.79
      P1  H  7989  7998       L1     8  0.64

> <Gold.Chemscore.Hbond.Weighted>
-9.7422

> <Gold.Chemscore.Metal.Weighted>
-0.0000

> <Gold.Chemscore.Lipo.Weighted>
-8.9092

> <Gold.Chemscore.Internal_Hbond.Weighted>
0.0000

> <Gold.Chemscore.DEClash.Weighted>
0.1914

> <Gold.Chemscore.DEInternal.Weighted>
1.1639

> <Gold.Chemscore.Rot.Weighted>
4.0577

> <Gold.Chemscore.Internal.Correction.Weighted>
   9.000000E+99

> <Gold.Protein.RotatedTorsions>
[ 6907 6896 6895 6894 ] final   42.91 input  -60.11 | X-H torsion
[ 7974 7965 7964 7962 ] final  166.75 input  175.53 | X-H torsion
[ 8008 7997 7996 7995 ] final -127.37 input   59.86 | X-H torsion
[ 10167 10162 10161 10158 ] final -159.06 input  -65.29 | X-H torsion
[ 10718 10713 10712 10709 ] final  139.34 input   66.30 | X-H torsion
[ 10763 10752 10751 10750 ] final  130.71 input  -60.55 | X-H torsion
[ 11005 11000 10999 10996 ] final -157.64 input  -57.11 | X-H torsion

> <Gold.Protein.ActiveResidues>
 VAL166  LYS551  ARG553  GLY616  TRP617  ASP618  TYR619  PRO620  LYS621  CYS622 
 ASP623  PHE694  ASN695  SER759  ASP760  ASP761  ALA762  ILE779  LEU786  VAL792 
 PHE793  MET794  SER795  GLU796  ALA797  LYS798  CYS799  TRP800  GLU811  SER814 

> <Gold.Protein.RotatedAtoms>
  152.2137  134.8478  160.0494 H   0  0  0  0  0  0  0  0  0  0  0  0  # atno 6907 bound_to 6896
  151.9287  133.3600  159.3931 H   0  0  0  0  0  0  0  0  0  0  0  0  # atno 6908 bound_to 6896
  150.6982  134.4485  159.5369 H   0  0  0  0  0  0  0  0  0  0  0  0  # atno 6909 bound_to 6896
  144.7450  139.8661  143.6385 H   0  0  0  0  0  0  0  0  0  0  0  0  # atno 7974 bound_to 7965
  155.2450  140.0430  157.2979 H   0  0  0  0  0  0  0  0  0  0  0  0  # atno 8008 bound_to 7997
  154.5804  140.2399  155.8031 H   0  0  0  0  0  0  0  0  0  0  0  0  # atno 8009 bound_to 7997
  156.2189  140.2976  155.9913 H   0  0  0  0  0  0  0  0  0  0  0  0  # atno 8010 bound_to 7997
  139.6644  143.9856  152.2245 H   0  0  0  0  0  0  0  0  0  0  0  0  # atno 10167 bound_to 10162
  157.4154  131.1033  151.0410 H   0  0  0  0  0  0  0  0  0  0  0  0  # atno 10718 bound_to 10713
  153.7625  135.3194  155.3339 H   0  0  0  0  0  0  0  0  0  0  0  0  # atno 10763 bound_to 10752
  154.8225  135.4593  154.0823 H   0  0  0  0  0  0  0  0  0  0  0  0  # atno 10764 bound_to 10752
  153.2059  135.6929  153.8257 H   0  0  0  0  0  0  0  0  0  0  0  0  # atno 10765 bound_to 10752
  140.6624  134.4335  157.5234 H   0  0  0  0  0  0  0  0  0  0  0  0  # atno 11005 bound_to 11000
  146.1314  139.4350  143.0166 LP  0  0  0  0  0  0  0  0  0  0  0  0  # atno 17320 bound_to 7965
  145.7158  141.0091  143.1429 LP  0  0  0  0  0  0  0  0  0  0  0  0  # atno 17321 bound_to 7965
  139.9603  144.6562  150.8085 LP  0  0  0  0  0  0  0  0  0  0  0  0  # atno 17342 bound_to 10162
  140.7593  143.3126  151.2809 LP  0  0  0  0  0  0  0  0  0  0  0  0  # atno 17343 bound_to 10162
  157.1359  130.6122  149.5542 LP  0  0  0  0  0  0  0  0  0  0  0  0  # atno 17370 bound_to 10713
  155.9863  130.4898  150.7075 LP  0  0  0  0  0  0  0  0  0  0  0  0  # atno 17371 bound_to 10713
  139.9008  134.8559  156.1902 LP  0  0  0  0  0  0  0  0  0  0  0  0  # atno 17394 bound_to 11000
  141.0455  133.6915  156.1676 LP  0  0  0  0  0  0  0  0  0  0  0  0  # atno 17395 bound_to 11000

$$$$
