AV-unprocessed.smi:2123|AV-procd|sdf|8649|dock7
  -GOLD-   2272011393D 1   1.00000     0.00000
 Structure written by MMmdl.
 47 48  0  0  0  0  0  0  0  0  1 V2000
  148.8542  133.0759  153.0346 C   0  0  0  0  0  0  0  0  0  0  0  0
  150.0526  132.8545  154.3749 S   0  0  0  0  0  0  0  0  0  0  0  0
  149.7215  134.3645  155.3213 C   0  0  0  0  0  0  0  0  0  0  0  0
  150.4901  135.5675  154.7488 C   0  0  0  0  0  0  0  0  0  0  0  0
  149.8455  136.9184  155.0762 C   0  0  0  0  0  0  0  0  0  0  0  0
  149.7249  137.2960  156.2422 O   0  0  0  0  0  0  0  0  0  0  0  0
  149.4324  137.6405  154.0232 N   0  0  0  0  0  0  0  0  0  0  0  0
  148.7916  138.9489  154.0967 C   0  0  0  0  0  0  0  0  0  0  0  0
  149.4283  139.8562  155.1339 C   0  0  0  0  0  0  0  0  0  0  0  0
  148.6361  140.6126  156.0191 C   0  0  0  0  0  0  0  0  0  0  0  0
  149.2708  141.4421  156.9634 C   0  0  0  0  0  0  0  0  0  0  0  0
  150.6852  141.4898  157.0021 C   0  0  0  0  0  0  0  0  0  0  0  0
  151.3444  142.3196  157.9352 N   0  0  0  0  0  0  0  0  0  0  0  0
  151.7311  143.6635  157.5107 C   0  0  0  0  0  0  0  0  0  0  0  0
  152.1171  144.5369  158.7203 C   0  0  1  0  0  0  0  0  0  0  0  0
  150.9062  145.0202  159.5388 C   0  0  0  0  0  0  0  0  0  0  0  0
  153.0815  143.8607  159.5299 O   0  0  0  0  0  0  0  0  0  0  0  0
  152.6775  142.5712  159.9887 C   0  0  2  0  0  0  0  0  0  0  0  0
  153.8163  141.9913  160.8341 C   0  0  0  0  0  0  0  0  0  0  0  0
  152.3419  141.6748  158.7830 C   0  0  0  0  0  0  0  0  0  0  0  0
  151.4420  140.7598  156.1453 N   0  0  0  0  0  0  0  0  0  0  0  0
  150.8290  139.9677  155.2409 C   0  0  0  0  0  0  0  0  0  0  0  0
  148.9088  132.2386  152.3388 H   0  0  0  0  0  0  0  0  0  0  0  0
  149.0606  133.9955  152.4871 H   0  0  0  0  0  0  0  0  0  0  0  0
  147.8415  133.1288  153.4346 H   0  0  0  0  0  0  0  0  0  0  0  0
  148.6473  134.5537  155.3043 H   0  0  0  0  0  0  0  0  0  0  0  0
  150.0035  134.1910  156.3605 H   0  0  0  0  0  0  0  0  0  0  0  0
  151.5095  135.5657  155.1372 H   0  0  0  0  0  0  0  0  0  0  0  0
  150.5661  135.4750  153.6647 H   0  0  0  0  0  0  0  0  0  0  0  0
  149.5730  137.2538  153.1011 H   0  0  0  0  0  0  0  0  0  0  0  0
  148.8055  139.4424  153.1232 H   0  0  0  0  0  0  0  0  0  0  0  0
  147.7402  138.8000  154.3443 H   0  0  0  0  0  0  0  0  0  0  0  0
  147.5581  140.5651  155.9746 H   0  0  0  0  0  0  0  0  0  0  0  0
  148.6687  142.0408  157.6302 H   0  0  0  0  0  0  0  0  0  0  0  0
  152.5800  143.5830  156.8303 H   0  0  0  0  0  0  0  0  0  0  0  0
  150.9211  144.1429  156.9593 H   0  0  0  0  0  0  0  0  0  0  0  0
  152.6137  145.4292  158.3383 H   0  0  0  0  0  0  0  0  0  0  0  0
  150.2547  145.6468  158.9294 H   0  0  0  0  0  0  0  0  0  0  0  0
  151.2278  145.6138  160.3946 H   0  0  0  0  0  0  0  0  0  0  0  0
  150.3012  144.1941  159.9115 H   0  0  0  0  0  0  0  0  0  0  0  0
  151.7999  142.6668  160.6286 H   0  0  0  0  0  0  0  0  0  0  0  0
  153.5546  141.0073  161.2239 H   0  0  0  0  0  0  0  0  0  0  0  0
  154.0373  142.6368  161.6845 H   0  0  0  0  0  0  0  0  0  0  0  0
  154.7295  141.8878  160.2475 H   0  0  0  0  0  0  0  0  0  0  0  0
  152.0029  140.7051  159.1442 H   0  0  0  0  0  0  0  0  0  0  0  0
  153.2384  141.4935  158.1886 H   0  0  0  0  0  0  0  0  0  0  0  0
  151.4782  139.4097  154.5826 H   0  0  0  0  0  0  0  0  0  0  0  0
  1  2  1  0  0  0  0
  1 23  1  0  0  0  0
  1 24  1  0  0  0  0
  1 25  1  0  0  0  0
  2  3  1  0  0  0  0
  3  4  1  0  0  0  0
  3 26  1  0  0  0  0
  3 27  1  0  0  0  0
  4  5  1  0  0  0  0
  4 28  1  0  0  0  0
  4 29  1  0  0  0  0
  5  6  2  0  0  0  0
  5  7  1  0  0  0  0
  7  8  1  0  0  0  0
  7 30  1  0  0  0  0
  8  9  1  0  0  0  0
  8 31  1  0  0  0  0
  8 32  1  0  0  0  0
  9 22  1  0  0  0  0
  9 10  2  0  0  0  0
 10 11  1  0  0  0  0
 10 33  1  0  0  0  0
 11 12  2  0  0  0  0
 11 34  1  0  0  0  0
 12 13  1  0  0  0  0
 12 21  1  0  0  0  0
 13 20  1  0  0  0  0
 13 14  1  0  0  0  0
 14 15  1  0  0  0  0
 14 35  1  0  0  0  0
 14 36  1  0  0  0  0
 15 16  1  0  0  0  0
 15 17  1  0  0  0  0
 15 37  1  0  0  0  0
 16 38  1  0  0  0  0
 16 39  1  0  0  0  0
 16 40  1  0  0  0  0
 17 18  1  0  0  0  0
 18 19  1  0  0  0  0
 18 20  1  0  0  0  0
 18 41  1  0  0  0  0
 19 42  1  0  0  0  0
 19 43  1  0  0  0  0
 19 44  1  0  0  0  0
 20 45  1  0  0  0  0
 20 46  1  0  0  0  0
 21 22  2  0  0  0  0
 22 47  1  0  0  0  0
M  END
> <s_m_source_file>
AV-unprocessed.smi

> <i_m_source_file_index>
2123

> <i_lp_mmshare_version>
43012

> <i_f3d_flags>
0

> <s_epik_input>
W0NIM11TW0NIMl1bQ0gyXUMoPU8pW05IXVtDSDJdYzFbY0hdW2NIXWMobltjSF0xKU4yW0NIMl1bQ0BASF0oW0NIM10pT1tDQEBIXShbQ0gzXSlbQ0gyXTI=

> <s_epik_cmdline>
J2VwaWtfcHl0aG9uJywgJy1waCcsICc3LjAnLCAnLXRuJywgJzgnLCAnLW1hJywgJzIwMCcsICctbWV0YWxfYmluZGluZycsICctaW1hZScsICc8aW5maWxlLm1hZT4nLCAnLW9tYWUnLCAnPG91dGZpbGUubWFlPic=

> <r_lp_tautomer_probability>
1

> <r_epik_Ionization_Penalty>
0.00642497

> <r_epik_Ionization_Penalty_Charging>
0

> <r_epik_Ionization_Penalty_Neutral>
0.00642497

> <r_epik_State_Penalty>
0.0047515

> <r_epik_Charging_Adjusted_Penalty>
0.0047515

> <i_epik_Tot_Q>
0

> <i_epik_Tot_abs_Q>
0

> <r_epik_Metal_State_Penalty>
-0

> <b_epik_Metal_Only>
0

> <s_lp_Force_Field>
OPLS_2005

> <r_lp_Energy>
17.9077

> <b_lp_Chiralities_Consistent>
1

> <s_lp_Variant>
AV-unprocessed.smi:2123-3

> <Gold.Version>
5.8.1

> <Gold.Id.Protein>
6NUR|6NUR_protein|mol2

> <Gold.PLP.Fitness>
45.8327

> <Gold.PLP.PLP>
-44.3374

> <Gold.PLP.part.hbond>
-1.0000

> <Gold.PLP.part.metal>
0.0000

> <Gold.PLP.part.buried>
-5.4328

> <Gold.PLP.part.nonpolar>
-38.3092

> <Gold.PLP.part.repulsive>
0.0740

> <Gold.PLP.ligand.clash>
0.0000

> <Gold.PLP.ligand.torsion>
0.9821

> <Gold.PLP.Chemscore.Hbond>
1.0000

> <Gold.PLP.Chemscore.CHOScore>
0.0000

> <Gold.PLP.Chemscore.Metal>
0.0000

> <Gold.Chemscore.Hbonds>
donor molecule, donor type, donor heavy atom, donor atom, acceptor molecule, acceptor atom, score
      L1  H     7    30       P1  7948  0.98

> <Gold.PLP.Chemscore.Internal.Correction>
0.4594

> <Gold.Rescore>
     Score         DG    S(hbond)    S(metal)    S(lipo)     H(rot)  DE(clash)    DE(int)     intcor
     15.35     -17.68       0.95        0.00     114.36       1.70       0.09       2.24       ----

> <Gold.Chemscore.Fitness>
15.3510

> <Gold.Chemscore.DG>
-17.6797

> <Gold.Chemscore.ZeroCoef>
-5.4800

> <Gold.Chemscore.Hbond>
0.9532

> <Gold.Chemscore.Metal>
0.0000

> <Gold.Chemscore.Lipo>
114.3647

> <Gold.Chemscore.Internal_Hbond>
0.0000

> <Gold.Chemscore.DEClash>
0.0880

> <Gold.Chemscore.DEInternal>
2.2406

> <Gold.Chemscore.Rot>
1.7049

> <Gold.Chemscore.Internal.Correction>
   9.000000E+99

> <Gold.Chemscore.Hbonds>
donor molecule, donor type, donor heavy atom, donor atom, acceptor molecule, acceptor atom, score
      L1  H     7    30       P1  7948  0.69

> <Gold.Chemscore.Hbond.Weighted>
-3.1837

> <Gold.Chemscore.Metal.Weighted>
-0.0000

> <Gold.Chemscore.Lipo.Weighted>
-13.3807

> <Gold.Chemscore.Internal_Hbond.Weighted>
0.0000

> <Gold.Chemscore.DEClash.Weighted>
0.0880

> <Gold.Chemscore.DEInternal.Weighted>
2.2406

> <Gold.Chemscore.Rot.Weighted>
4.3647

> <Gold.Chemscore.Internal.Correction.Weighted>
   9.000000E+99

> <Gold.Protein.RotatedTorsions>
[ 6907 6896 6895 6894 ] final  169.35 input  -60.11 | X-H torsion
[ 7974 7965 7964 7962 ] final   62.78 input  175.53 | X-H torsion
[ 8008 7997 7996 7995 ] final  127.21 input   59.86 | X-H torsion
[ 10167 10162 10161 10158 ] final  168.60 input  -65.29 | X-H torsion
[ 10718 10713 10712 10709 ] final   73.42 input   66.30 | X-H torsion
[ 10763 10752 10751 10750 ] final -130.97 input  -60.55 | X-H torsion
[ 11005 11000 10999 10996 ] final  -84.93 input  -57.11 | X-H torsion

> <Gold.Protein.ActiveResidues>
 VAL166  LYS551  ARG553  GLY616  TRP617  ASP618  TYR619  PRO620  LYS621  CYS622 
 ASP623  PHE694  ASN695  SER759  ASP760  ASP761  ALA762  ILE779  LEU786  VAL792 
 PHE793  MET794  SER795  GLU796  ALA797  LYS798  CYS799  TRP800  GLU811  SER814 

> <Gold.Protein.RotatedAtoms>
  151.8333  133.3412  159.3619 H   0  0  0  0  0  0  0  0  0  0  0  0  # atno 6907 bound_to 6896
  150.7257  134.5462  159.5781 H   0  0  0  0  0  0  0  0  0  0  0  0  # atno 6908 bound_to 6896
  152.2920  134.7712  160.0427 H   0  0  0  0  0  0  0  0  0  0  0  0  # atno 6909 bound_to 6896
  145.8694  139.3367  143.0772 H   0  0  0  0  0  0  0  0  0  0  0  0  # atno 7974 bound_to 7965
  156.2885  140.2674  156.2235 H   0  0  0  0  0  0  0  0  0  0  0  0  # atno 8008 bound_to 7997
  155.0144  140.0387  157.2430 H   0  0  0  0  0  0  0  0  0  0  0  0  # atno 8009 bound_to 7997
  154.7490  140.2739  155.6313 H   0  0  0  0  0  0  0  0  0  0  0  0  # atno 8010 bound_to 7997
  139.4972  144.3797  151.9635 H   0  0  0  0  0  0  0  0  0  0  0  0  # atno 10167 bound_to 10162
  157.6547  130.9628  150.1067 H   0  0  0  0  0  0  0  0  0  0  0  0  # atno 10718 bound_to 10713
  154.8753  135.3845  154.4170 H   0  0  0  0  0  0  0  0  0  0  0  0  # atno 10763 bound_to 10752
  153.4877  135.7030  153.5907 H   0  0  0  0  0  0  0  0  0  0  0  0  # atno 10764 bound_to 10752
  153.4294  135.3882  155.2128 H   0  0  0  0  0  0  0  0  0  0  0  0  # atno 10765 bound_to 10752
  141.1646  133.7372  156.8940 H   0  0  0  0  0  0  0  0  0  0  0  0  # atno 11005 bound_to 11000
  145.9155  140.9151  143.0432 LP  0  0  0  0  0  0  0  0  0  0  0  0  # atno 17320 bound_to 7965
  144.6726  140.1218  143.7449 LP  0  0  0  0  0  0  0  0  0  0  0  0  # atno 17321 bound_to 7965
  140.3234  144.3401  150.6004 LP  0  0  0  0  0  0  0  0  0  0  0  0  # atno 17342 bound_to 10162
  140.5704  143.2181  151.7609 LP  0  0  0  0  0  0  0  0  0  0  0  0  # atno 17343 bound_to 10162
  156.1975  130.3658  149.8831 LP  0  0  0  0  0  0  0  0  0  0  0  0  # atno 17370 bound_to 10713
  156.6743  130.8833  151.3567 LP  0  0  0  0  0  0  0  0  0  0  0  0  # atno 17371 bound_to 10713
  140.1629  134.9153  157.2737 LP  0  0  0  0  0  0  0  0  0  0  0  0  # atno 17394 bound_to 11000
  140.2590  134.3593  155.7413 LP  0  0  0  0  0  0  0  0  0  0  0  0  # atno 17395 bound_to 11000

$$$$
