AV-unprocessed.smi:1734|AV-procd|sdf|6983|dock4
  -GOLD-   22720 8193D 1   1.00000     0.00000
 Structure written by MMmdl.
 50 52  0  0  0  0  0  0  0  0  1 V2000
  147.7932  132.4128  152.5877 C   0  0  0  0  0  0  0  0  0  0  0  0
  146.4512  132.4691  151.8760 C   0  0  0  0  0  0  0  0  0  0  0  0
  145.8591  131.2706  151.4239 C   0  0  0  0  0  0  0  0  0  0  0  0
  144.6184  131.3242  150.7665 C   0  0  0  0  0  0  0  0  0  0  0  0
  144.0183  132.5822  150.5875 C   0  0  0  0  0  0  0  0  0  0  0  0
  144.5774  133.7323  151.0154 N   0  0  0  0  0  0  0  0  0  0  0  0
  145.7752  133.6987  151.6520 C   0  0  0  0  0  0  0  0  0  0  0  0
  146.4260  134.8724  152.1273 N   0  0  0  0  0  0  0  0  0  0  0  0
  145.8802  135.9540  152.7109 C   0  0  0  0  0  0  0  0  0  0  0  0
  144.6844  136.0980  152.9674 O   0  0  0  0  0  0  0  0  0  0  0  0
  146.8130  136.8802  152.9763 N   0  0  0  0  0  0  0  0  0  0  0  0
  146.5669  138.1955  153.5623 C   0  0  0  0  0  0  0  0  0  0  0  0
  147.8668  139.0401  153.6602 C   0  0  1  0  0  0  0  0  0  0  0  0
  147.6264  140.4544  154.2731 C   0  0  1  0  0  0  0  0  0  0  0  0
  146.6876  141.4144  153.5362 C   0  0  0  0  0  0  0  0  0  0  0  0
  145.8139  142.0047  154.6442 C   0  0  0  0  0  0  0  0  0  0  0  0
  146.5551  141.7825  155.8339 O   0  0  0  0  0  0  0  0  0  0  0  0
  147.1232  140.4883  155.7221 C   0  0  0  0  0  0  0  0  0  0  0  0
  149.0361  138.3201  154.2028 N   0  0  0  0  0  0  0  0  0  0  0  0
  150.2547  139.1139  154.3489 C   0  0  0  0  0  0  0  0  0  0  0  0
  151.4403  138.2552  154.8235 C   0  0  0  0  0  0  0  0  0  0  0  0
  151.1020  137.5836  156.0326 O   0  0  0  0  0  0  0  0  0  0  0  0
  149.9529  136.7545  155.8960 C   0  0  0  0  0  0  0  0  0  0  0  0
  148.7569  137.6112  155.4497 C   0  0  0  0  0  0  0  0  0  0  0  0
  148.1615  131.3890  152.6605 H   0  0  0  0  0  0  0  0  0  0  0  0
  147.7052  132.8100  153.5993 H   0  0  0  0  0  0  0  0  0  0  0  0
  148.5370  132.9988  152.0472 H   0  0  0  0  0  0  0  0  0  0  0  0
  146.3474  130.3194  151.5773 H   0  0  0  0  0  0  0  0  0  0  0  0
  144.1391  130.4247  150.4090 H   0  0  0  0  0  0  0  0  0  0  0  0
  143.0648  132.6685  150.0877 H   0  0  0  0  0  0  0  0  0  0  0  0
  147.4248  134.8978  151.9861 H   0  0  0  0  0  0  0  0  0  0  0  0
  147.7698  136.6693  152.7325 H   0  0  0  0  0  0  0  0  0  0  0  0
  145.7963  138.7358  153.0115 H   0  0  0  0  0  0  0  0  0  0  0  0
  146.1512  138.0123  154.5519 H   0  0  0  0  0  0  0  0  0  0  0  0
  148.1305  139.2622  152.6248 H   0  0  0  0  0  0  0  0  0  0  0  0
  148.5951  140.9566  154.2935 H   0  0  0  0  0  0  0  0  0  0  0  0
  147.2686  142.2033  153.0571 H   0  0  0  0  0  0  0  0  0  0  0  0
  146.0867  140.9475  152.7576 H   0  0  0  0  0  0  0  0  0  0  0  0
  145.6042  143.0640  154.4944 H   0  0  0  0  0  0  0  0  0  0  0  0
  144.8622  141.4748  154.7085 H   0  0  0  0  0  0  0  0  0  0  0  0
  146.3437  139.7503  155.9148 H   0  0  0  0  0  0  0  0  0  0  0  0
  147.9227  140.3369  156.4476 H   0  0  0  0  0  0  0  0  0  0  0  0
  150.5308  139.5650  153.3989 H   0  0  0  0  0  0  0  0  0  0  0  0
  150.0931  139.9265  155.0574 H   0  0  0  0  0  0  0  0  0  0  0  0
  151.7142  137.5250  154.0605 H   0  0  0  0  0  0  0  0  0  0  0  0
  152.3160  138.8811  154.9955 H   0  0  0  0  0  0  0  0  0  0  0  0
  150.1500  135.9590  155.1757 H   0  0  0  0  0  0  0  0  0  0  0  0
  149.7417  136.2767  156.8527 H   0  0  0  0  0  0  0  0  0  0  0  0
  148.5249  138.3191  156.2450 H   0  0  0  0  0  0  0  0  0  0  0  0
  147.8813  136.9728  155.3285 H   0  0  0  0  0  0  0  0  0  0  0  0
  1  2  1  0  0  0  0
  1 25  1  0  0  0  0
  1 26  1  0  0  0  0
  1 27  1  0  0  0  0
  2  7  1  0  0  0  0
  2  3  2  0  0  0  0
  3  4  1  0  0  0  0
  3 28  1  0  0  0  0
  4  5  2  0  0  0  0
  4 29  1  0  0  0  0
  5  6  1  0  0  0  0
  5 30  1  0  0  0  0
  6  7  2  0  0  0  0
  7  8  1  0  0  0  0
  8  9  1  0  0  0  0
  8 31  1  0  0  0  0
  9 10  2  0  0  0  0
  9 11  1  0  0  0  0
 11 12  1  0  0  0  0
 11 32  1  0  0  0  0
 12 13  1  0  0  0  0
 12 33  1  0  0  0  0
 12 34  1  0  0  0  0
 13 14  1  0  0  0  0
 13 19  1  0  0  0  0
 13 35  1  0  0  0  0
 14 18  1  0  0  0  0
 14 15  1  0  0  0  0
 14 36  1  0  0  0  0
 15 16  1  0  0  0  0
 15 37  1  0  0  0  0
 15 38  1  0  0  0  0
 16 17  1  0  0  0  0
 16 39  1  0  0  0  0
 16 40  1  0  0  0  0
 17 18  1  0  0  0  0
 18 41  1  0  0  0  0
 18 42  1  0  0  0  0
 19 24  1  0  0  0  0
 19 20  1  0  0  0  0
 20 21  1  0  0  0  0
 20 43  1  0  0  0  0
 20 44  1  0  0  0  0
 21 22  1  0  0  0  0
 21 45  1  0  0  0  0
 21 46  1  0  0  0  0
 22 23  1  0  0  0  0
 23 24  1  0  0  0  0
 23 47  1  0  0  0  0
 23 48  1  0  0  0  0
 24 49  1  0  0  0  0
 24 50  1  0  0  0  0
M  END
> <s_m_source_file>
AV-unprocessed.smi

> <i_m_source_file_index>
1734

> <i_lp_mmshare_version>
43012

> <i_f3d_flags>
0

> <s_epik_input>
W0NIM11jMVtjSF1bY0hdW2NIXW5jMVtOSF1DKD1PKVtOSF1bQ0gyXVtDQEhdKFtDQEBIXTJbQ0gyXVtDSDJdT1tDSDJdMilOM1tDSDJdW0NIMl1PW0NIMl1bQ0gyXTM=

> <s_epik_cmdline>
J2VwaWtfcHl0aG9uJywgJy1waCcsICc3LjAnLCAnLXRuJywgJzgnLCAnLW1hJywgJzIwMCcsICctbWV0YWxfYmluZGluZycsICctaW1hZScsICc8aW5maWxlLm1hZT4nLCAnLW9tYWUnLCAnPG91dGZpbGUubWFlPic=

> <r_epik_Ionization_Penalty>
0.125073

> <r_epik_Ionization_Penalty_Charging>
0

> <r_epik_Ionization_Penalty_Neutral>
0.125073

> <r_epik_State_Penalty>
0.114484

> <r_epik_Charging_Adjusted_Penalty>
0.114484

> <i_epik_Tot_Q>
0

> <i_epik_Tot_abs_Q>
0

> <r_epik_Metal_State_Penalty>
0.114483

> <b_epik_Metal_Only>
0

> <s_lp_Force_Field>
OPLS_2005

> <r_lp_Energy>
55.6911

> <b_lp_Chiralities_Consistent>
1

> <s_lp_Variant>
AV-unprocessed.smi:1734-4

> <Gold.Version>
5.8.1

> <Gold.Id.Protein>
6NUR|6NUR_protein|mol2

> <Gold.PLP.Fitness>
43.9720

> <Gold.PLP.PLP>
-35.8534

> <Gold.PLP.part.hbond>
-2.0000

> <Gold.PLP.part.metal>
0.0000

> <Gold.PLP.part.buried>
-5.4688

> <Gold.PLP.part.nonpolar>
-28.8145

> <Gold.PLP.part.repulsive>
0.6496

> <Gold.PLP.ligand.clash>
0.0000

> <Gold.PLP.ligand.torsion>
0.6610

> <Gold.PLP.Chemscore.Hbond>
1.9760

> <Gold.PLP.Chemscore.CHOScore>
1.0000

> <Gold.PLP.Chemscore.Metal>
0.0000

> <Gold.Chemscore.Hbonds>
donor molecule, donor type, donor heavy atom, donor atom, acceptor molecule, acceptor atom, score
      L1  H     8    31       P1  7948  0.83
      L1  H    11    32       P1  7948  1.00
      L1  C     5    30       P1 10186  0.44

> <Gold.PLP.Chemscore.Internal.Correction>
0.5125

> <Gold.Rescore>
     Score         DG    S(hbond)    S(metal)    S(lipo)     H(rot)  DE(clash)    DE(int)     intcor
     17.49     -18.26       1.86        0.00      92.12       1.65       0.15       0.62       ----

> <Gold.Chemscore.Fitness>
17.4852

> <Gold.Chemscore.DG>
-18.2563

> <Gold.Chemscore.ZeroCoef>
-5.4800

> <Gold.Chemscore.Hbond>
1.8612

> <Gold.Chemscore.Metal>
0.0000

> <Gold.Chemscore.Lipo>
92.1248

> <Gold.Chemscore.Internal_Hbond>
0.0000

> <Gold.Chemscore.DEClash>
0.1486

> <Gold.Chemscore.DEInternal>
0.6224

> <Gold.Chemscore.Rot>
1.6480

> <Gold.Chemscore.Internal.Correction>
   9.000000E+99

> <Gold.Chemscore.Hbonds>
donor molecule, donor type, donor heavy atom, donor atom, acceptor molecule, acceptor atom, score
      L1  H     8    31       P1  7948  0.71
      L1  H    11    32       P1  7948  0.93

> <Gold.Chemscore.Hbond.Weighted>
-6.2165

> <Gold.Chemscore.Metal.Weighted>
-0.0000

> <Gold.Chemscore.Lipo.Weighted>
-10.7786

> <Gold.Chemscore.Internal_Hbond.Weighted>
0.0000

> <Gold.Chemscore.DEClash.Weighted>
0.1486

> <Gold.Chemscore.DEInternal.Weighted>
0.6224

> <Gold.Chemscore.Rot.Weighted>
4.2188

> <Gold.Chemscore.Internal.Correction.Weighted>
   9.000000E+99

> <Gold.Protein.RotatedTorsions>
[ 6907 6896 6895 6894 ] final -141.28 input  -60.11 | X-H torsion
[ 7974 7965 7964 7962 ] final  -45.49 input  175.53 | X-H torsion
[ 8008 7997 7996 7995 ] final  101.45 input   59.86 | X-H torsion
[ 10167 10162 10161 10158 ] final  114.35 input  -65.29 | X-H torsion
[ 10718 10713 10712 10709 ] final  131.40 input   66.30 | X-H torsion
[ 10763 10752 10751 10750 ] final  159.46 input  -60.55 | X-H torsion
[ 11005 11000 10999 10996 ] final  -27.85 input  -57.11 | X-H torsion

> <Gold.Protein.ActiveResidues>
 VAL166  LYS551  ARG553  GLY616  TRP617  ASP618  TYR619  PRO620  LYS621  CYS622 
 ASP623  PHE694  ASN695  SER759  ASP760  ASP761  ALA762  ILE779  LEU786  VAL792 
 PHE793  MET794  SER795  GLU796  ALA797  LYS798  CYS799  TRP800  GLU811  SER814 

> <Gold.Protein.RotatedAtoms>
  151.0717  133.5461  159.2626 H   0  0  0  0  0  0  0  0  0  0  0  0  # atno 6907 bound_to 6896
  151.2398  135.0584  159.9030 H   0  0  0  0  0  0  0  0  0  0  0  0  # atno 6908 bound_to 6896
  152.5412  134.0493  159.8156 H   0  0  0  0  0  0  0  0  0  0  0  0  # atno 6909 bound_to 6896
  145.9815  140.7278  142.9361 H   0  0  0  0  0  0  0  0  0  0  0  0  # atno 7974 bound_to 7965
  156.1300  140.3197  155.8335 H   0  0  0  0  0  0  0  0  0  0  0  0  # atno 8008 bound_to 7997
  155.4349  140.0521  157.3032 H   0  0  0  0  0  0  0  0  0  0  0  0  # atno 8009 bound_to 7997
  154.4892  140.2085  155.9599 H   0  0  0  0  0  0  0  0  0  0  0  0  # atno 8010 bound_to 7997
  139.6395  144.7122  151.2266 H   0  0  0  0  0  0  0  0  0  0  0  0  # atno 10167 bound_to 10162
  157.4971  131.1093  150.9478 H   0  0  0  0  0  0  0  0  0  0  0  0  # atno 10718 bound_to 10713
  154.2321  135.2778  155.2886 H   0  0  0  0  0  0  0  0  0  0  0  0  # atno 10763 bound_to 10752
  154.5615  135.5645  153.7015 H   0  0  0  0  0  0  0  0  0  0  0  0  # atno 10764 bound_to 10752
  153.0018  135.6299  154.2463 H   0  0  0  0  0  0  0  0  0  0  0  0  # atno 10765 bound_to 10752
  140.9156  133.7432  156.0730 H   0  0  0  0  0  0  0  0  0  0  0  0  # atno 11005 bound_to 11000
  144.6863  140.2917  143.7277 LP  0  0  0  0  0  0  0  0  0  0  0  0  # atno 17320 bound_to 7965
  145.7762  139.1875  143.2184 LP  0  0  0  0  0  0  0  0  0  0  0  0  # atno 17321 bound_to 7965
  140.7483  143.6337  150.8399 LP  0  0  0  0  0  0  0  0  0  0  0  0  # atno 17342 bound_to 10162
  139.9972  143.5783  152.2889 LP  0  0  0  0  0  0  0  0  0  0  0  0  # atno 17343 bound_to 10162
  157.0161  130.5655  149.5326 LP  0  0  0  0  0  0  0  0  0  0  0  0  # atno 17370 bound_to 10713
  156.0207  130.5302  150.8266 LP  0  0  0  0  0  0  0  0  0  0  0  0  # atno 17371 bound_to 10713
  140.8054  134.3461  157.5427 LP  0  0  0  0  0  0  0  0  0  0  0  0  # atno 17394 bound_to 11000
  139.8765  134.9222  156.3295 LP  0  0  0  0  0  0  0  0  0  0  0  0  # atno 17395 bound_to 11000

$$$$
