AV-unprocessed.smi:3289|AV-procd|sdf|12608|dock6
  -GOLD-   2272018533D 1   1.00000     0.00000
 Structure written by MMmdl.
 40 41  0  0  0  0  0  0  0  0  2 V2000
  146.2999  138.3339  152.3094 C   0  0  0  0  0  0  0  0  0  0  0  0
  147.4441  138.8759  153.1812 C   0  0  0  0  0  0  0  0  0  0  0  0
  147.6851  137.9856  154.4083 C   0  0  0  0  0  0  0  0  0  0  0  0
  147.2229  140.3083  153.5848 C   0  0  0  0  0  0  0  0  0  0  0  0
  146.0578  140.9638  153.5021 N   0  3  0  0  0  0  0  0  0  0  0  0
  146.1864  142.2380  153.9811 C   0  0  0  0  0  0  0  0  0  0  0  0
  147.4856  142.3648  154.3946 C   0  0  0  0  0  0  0  0  0  0  0  0
  148.0984  141.1614  154.1510 N   0  0  0  0  0  0  0  0  0  0  0  0
  149.5025  140.8380  154.4453 C   0  0  0  0  0  0  0  0  0  0  0  0
  149.7653  140.8197  155.9525 C   0  0  0  0  0  0  0  0  0  0  0  0
  150.0369  139.7605  156.5177 O   0  0  0  0  0  0  0  0  0  0  0  0
  149.6464  141.9929  156.5922 N   0  0  0  0  0  0  0  0  0  0  0  0
  149.7257  142.1818  158.0364 C   0  0  0  0  0  0  0  0  0  0  0  0
  151.1664  142.4864  158.4821 C   0  0  1  0  0  0  0  0  0  0  0  0
  151.7587  143.7802  157.9284 C   0  0  0  0  0  0  0  0  0  0  0  0
  152.9003  144.0340  158.8893 C   0  0  0  0  0  0  0  0  0  0  0  0
  152.3825  143.4532  160.2083 C   0  0  0  0  0  0  0  0  0  0  0  0
  151.2213  142.6906  159.8861 O   0  0  0  0  0  0  0  0  0  0  0  0
  146.1543  138.9499  151.4218 H   0  0  0  0  0  0  0  0  0  0  0  0
  145.3566  138.3069  152.8556 H   0  0  0  0  0  0  0  0  0  0  0  0
  146.5136  137.3195  151.9715 H   0  0  0  0  0  0  0  0  0  0  0  0
  148.3440  138.8648  152.5685 H   0  0  0  0  0  0  0  0  0  0  0  0
  148.5411  138.3328  154.9875 H   0  0  0  0  0  0  0  0  0  0  0  0
  147.8856  136.9553  154.1125 H   0  0  0  0  0  0  0  0  0  0  0  0
  146.8177  137.9790  155.0691 H   0  0  0  0  0  0  0  0  0  0  0  0
  145.3646  142.9392  153.9949 H   0  0  0  0  0  0  0  0  0  0  0  0
  148.0075  143.2018  154.8357 H   0  0  0  0  0  0  0  0  0  0  0  0
  149.7212  139.8541  154.0287 H   0  0  0  0  0  0  0  0  0  0  0  0
  150.1457  141.5539  153.9318 H   0  0  0  0  0  0  0  0  0  0  0  0
  149.4355  142.8132  156.0424 H   0  0  0  0  0  0  0  0  0  0  0  0
  149.0436  142.9653  158.3703 H   0  0  0  0  0  0  0  0  0  0  0  0
  149.3867  141.2601  158.5095 H   0  0  0  0  0  0  0  0  0  0  0  0
  151.8203  141.6476  158.2364 H   0  0  0  0  0  0  0  0  0  0  0  0
  152.0849  143.6953  156.8920 H   0  0  0  0  0  0  0  0  0  0  0  0
  151.0301  144.5899  157.9927 H   0  0  0  0  0  0  0  0  0  0  0  0
  153.7869  143.4878  158.5646 H   0  0  0  0  0  0  0  0  0  0  0  0
  153.1621  145.0899  158.9639 H   0  0  0  0  0  0  0  0  0  0  0  0
  153.1342  142.8207  160.6814 H   0  0  0  0  0  0  0  0  0  0  0  0
  152.1101  144.2394  160.9127 H   0  0  0  0  0  0  0  0  0  0  0  0
  145.2030  140.5682  153.1314 H   0  0  0  0  0  0  0  0  0  0  0  0
  1  2  1  0  0  0  0
  1 19  1  0  0  0  0
  1 20  1  0  0  0  0
  1 21  1  0  0  0  0
  2  3  1  0  0  0  0
  2  4  1  0  0  0  0
  2 22  1  0  0  0  0
  3 23  1  0  0  0  0
  3 24  1  0  0  0  0
  3 25  1  0  0  0  0
  4  8  1  0  0  0  0
  4  5  2  0  0  0  0
  5  6  1  0  0  0  0
  5 40  1  0  0  0  0
  6  7  2  0  0  0  0
  6 26  1  0  0  0  0
  7  8  1  0  0  0  0
  7 27  1  0  0  0  0
  8  9  1  0  0  0  0
  9 10  1  0  0  0  0
  9 28  1  0  0  0  0
  9 29  1  0  0  0  0
 10 11  2  0  0  0  0
 10 12  1  0  0  0  0
 12 13  1  0  0  0  0
 12 30  1  0  0  0  0
 13 14  1  0  0  0  0
 13 31  1  0  0  0  0
 13 32  1  0  0  0  0
 14 18  1  0  0  0  0
 14 15  1  0  0  0  0
 14 33  1  0  0  0  0
 15 16  1  0  0  0  0
 15 34  1  0  0  0  0
 15 35  1  0  0  0  0
 16 17  1  0  0  0  0
 16 36  1  0  0  0  0
 16 37  1  0  0  0  0
 17 18  1  0  0  0  0
 17 38  1  0  0  0  0
 17 39  1  0  0  0  0
M  CHG  1   5   1
M  END
> <s_m_source_file>
AV-unprocessed.smi

> <i_m_source_file_index>
3289

> <i_lp_mmshare_version>
43012

> <i_f3d_flags>
0

> <s_epik_input>
W0NIM11bQ0hdKFtDSDNdKWMxbltjSF1bY0hdbjFbQ0gyXUMoPU8pW05IXVtDSDJdW0NAQEhdMltDSDJdW0NIMl1bQ0gyXU8y

> <s_epik_cmdline>
J2VwaWtfcHl0aG9uJywgJy1waCcsICc3LjAnLCAnLXRuJywgJzgnLCAnLW1hJywgJzIwMCcsICctbWV0YWxfYmluZGluZycsICctaW1hZScsICc8aW5maWxlLm1hZT4nLCAnLW9tYWUnLCAnPG91dGZpbGUubWFlPic=

> <r_lp_tautomer_probability>
1

> <r_epik_Ionization_Penalty>
0.274547

> <r_epik_Ionization_Penalty_Charging>
0

> <r_epik_Ionization_Penalty_Neutral>
0.274547

> <r_epik_State_Penalty>
0.266843

> <r_epik_Charging_Adjusted_Penalty>
0.266843

> <i_epik_Tot_Q>
1

> <i_epik_Tot_abs_Q>
1

> <r_epik_Metal_State_Penalty>
0.55046

> <b_epik_Metal_Only>
0

> <s_lp_Force_Field>
OPLS_2005

> <r_lp_Energy>
22.2551

> <b_lp_Chiralities_Consistent>
1

> <s_lp_Variant>
AV-unprocessed.smi:3289-2

> <Gold.Version>
5.8.1

> <Gold.Id.Protein>
6NUR|6NUR_protein|mol2

> <Gold.PLP.Fitness>
47.9240

> <Gold.PLP.PLP>
-37.9813

> <Gold.PLP.part.hbond>
-2.7085

> <Gold.PLP.part.metal>
0.0000

> <Gold.PLP.part.buried>
-0.0564

> <Gold.PLP.part.nonpolar>
-36.9835

> <Gold.PLP.part.repulsive>
0.0676

> <Gold.PLP.ligand.clash>
0.0000

> <Gold.PLP.ligand.torsion>
0.5015

> <Gold.PLP.Chemscore.Hbond>
3.0000

> <Gold.PLP.Chemscore.CHOScore>
0.6263

> <Gold.PLP.Chemscore.Metal>
0.0000

> <Gold.Chemscore.Hbonds>
donor molecule, donor type, donor heavy atom, donor atom, acceptor molecule, acceptor atom, score
      L1  H     5    40       P1 10175  2.00
      L1  H    12    30       P1  8028  1.00
      L1  C     7    27       P1  8028  0.68

> <Gold.PLP.Chemscore.Internal.Correction>
0.0668

> <Gold.Rescore>
     Score         DG    S(hbond)    S(metal)    S(lipo)     H(rot)  DE(clash)    DE(int)     intcor
     17.28     -17.99       1.90        0.00      91.59       1.78       0.39       0.32       ----

> <Gold.Chemscore.Fitness>
17.2792

> <Gold.Chemscore.DG>
-17.9903

> <Gold.Chemscore.ZeroCoef>
-5.4800

> <Gold.Chemscore.Hbond>
1.9043

> <Gold.Chemscore.Metal>
0.0000

> <Gold.Chemscore.Lipo>
91.5895

> <Gold.Chemscore.Internal_Hbond>
0.0000

> <Gold.Chemscore.DEClash>
0.3867

> <Gold.Chemscore.DEInternal>
0.3245

> <Gold.Chemscore.Rot>
1.7835

> <Gold.Chemscore.Internal.Correction>
   9.000000E+99

> <Gold.Chemscore.Hbonds>
donor molecule, donor type, donor heavy atom, donor atom, acceptor molecule, acceptor atom, score
      L1  H     5    40       P1 10175  0.90
      L1  H    12    30       P1  8028  0.94

> <Gold.Chemscore.Hbond.Weighted>
-6.3602

> <Gold.Chemscore.Metal.Weighted>
-0.0000

> <Gold.Chemscore.Lipo.Weighted>
-10.7160

> <Gold.Chemscore.Internal_Hbond.Weighted>
0.0000

> <Gold.Chemscore.DEClash.Weighted>
0.3867

> <Gold.Chemscore.DEInternal.Weighted>
0.3245

> <Gold.Chemscore.Rot.Weighted>
4.5659

> <Gold.Chemscore.Internal.Correction.Weighted>
   9.000000E+99

> <Gold.Protein.RotatedTorsions>
[ 6907 6896 6895 6894 ] final   46.27 input  -60.11 | X-H torsion
[ 7974 7965 7964 7962 ] final  -99.11 input  175.53 | X-H torsion
[ 8008 7997 7996 7995 ] final  177.07 input   59.86 | X-H torsion
[ 10167 10162 10161 10158 ] final  -23.77 input  -65.29 | X-H torsion
[ 10718 10713 10712 10709 ] final  170.72 input   66.30 | X-H torsion
[ 10763 10752 10751 10750 ] final   -7.51 input  -60.55 | X-H torsion
[ 11005 11000 10999 10996 ] final   72.86 input  -57.11 | X-H torsion

> <Gold.Protein.ActiveResidues>
 VAL166  LYS551  ARG553  GLY616  TRP617  ASP618  TYR619  PRO620  LYS621  CYS622 
 ASP623  PHE694  ASN695  SER759  ASP760  ASP761  ALA762  ILE779  LEU786  VAL792 
 PHE793  MET794  SER795  GLU796  ALA797  LYS798  CYS799  TRP800  GLU811  SER814 

> <Gold.Protein.RotatedAtoms>
  152.2544  134.8099  160.0440 H   0  0  0  0  0  0  0  0  0  0  0  0  # atno 6907 bound_to 6896
  151.8767  133.3481  159.3761 H   0  0  0  0  0  0  0  0  0  0  0  0  # atno 6908 bound_to 6896
  150.7095  134.4986  159.5594 H   0  0  0  0  0  0  0  0  0  0  0  0  # atno 6909 bound_to 6896
  145.3118  140.9402  143.2765 H   0  0  0  0  0  0  0  0  0  0  0  0  # atno 7974 bound_to 7965
  156.0696  140.1367  156.9844 H   0  0  0  0  0  0  0  0  0  0  0  0  # atno 8008 bound_to 7997
  154.4524  140.0974  156.6711 H   0  0  0  0  0  0  0  0  0  0  0  0  # atno 8009 bound_to 7997
  155.5249  140.3457  155.4416 H   0  0  0  0  0  0  0  0  0  0  0  0  # atno 8010 bound_to 7997
  140.7288  143.4413  151.0653 H   0  0  0  0  0  0  0  0  0  0  0  0  # atno 10167 bound_to 10162
  157.0040  131.0184  151.2822 H   0  0  0  0  0  0  0  0  0  0  0  0  # atno 10718 bound_to 10713
  153.4273  135.7011  153.6254 H   0  0  0  0  0  0  0  0  0  0  0  0  # atno 10763 bound_to 10752
  153.4683  135.3720  155.2377 H   0  0  0  0  0  0  0  0  0  0  0  0  # atno 10764 bound_to 10752
  154.8724  135.4037  154.3651 H   0  0  0  0  0  0  0  0  0  0  0  0  # atno 10765 bound_to 10752
  139.9469  134.7297  156.0957 H   0  0  0  0  0  0  0  0  0  0  0  0  # atno 11005 bound_to 11000
  144.9009  139.4650  143.6633 LP  0  0  0  0  0  0  0  0  0  0  0  0  # atno 17320 bound_to 7965
  146.3115  139.7763  142.9016 LP  0  0  0  0  0  0  0  0  0  0  0  0  # atno 17321 bound_to 7965
  139.8080  143.7990  152.3169 LP  0  0  0  0  0  0  0  0  0  0  0  0  # atno 17342 bound_to 10162
  139.8030  144.7366  150.9799 LP  0  0  0  0  0  0  0  0  0  0  0  0  # atno 17343 bound_to 10162
  157.5369  130.8095  149.7983 LP  0  0  0  0  0  0  0  0  0  0  0  0  # atno 17370 bound_to 10713
  156.0160  130.3813  150.2108 LP  0  0  0  0  0  0  0  0  0  0  0  0  # atno 17371 bound_to 10713
  141.1122  133.6639  156.3006 LP  0  0  0  0  0  0  0  0  0  0  0  0  # atno 17394 bound_to 11000
  140.5813  134.5743  157.5480 LP  0  0  0  0  0  0  0  0  0  0  0  0  # atno 17395 bound_to 11000

$$$$
