AV-unprocessed.smi:21|AV-procd|sdf|156|dock2
  -GOLD-   2262015383D 1   1.00000     0.00000
 Structure written by MMmdl.
 61 64  0  0  0  0  0  0  0  0  1 V2000
  153.1610  142.9834  162.0574 C   0  0  0  0  0  0  0  0  0  0  0  0
  152.1398  142.9561  161.0732 O   0  0  0  0  0  0  0  0  0  0  0  0
  152.6271  142.6763  159.7681 C   0  0  2  0  0  0  0  0  0  0  0  0
  151.5044  142.7456  158.7195 C   0  0  0  0  0  0  0  0  0  0  0  0
  151.6038  141.4131  157.9628 C   0  0  2  0  0  0  0  0  0  0  0  0
  150.2829  140.9809  157.2849 C   0  0  0  0  0  0  0  0  0  0  0  0
  150.4171  140.7283  155.8493 N   0  0  0  0  0  0  0  0  0  0  0  0
  149.6306  141.5628  154.9451 C   0  0  0  0  0  0  0  0  0  0  0  0
  150.7446  139.4716  155.4411 C   0  0  0  0  0  0  0  0  0  0  0  0
  151.5636  139.3210  154.3646 N   0  0  0  0  0  0  0  0  0  0  0  0
  151.8693  138.1048  153.9055 C   0  0  0  0  0  0  0  0  0  0  0  0
  151.4741  136.9173  154.3645 N   0  0  0  0  0  0  0  0  0  0  0  0
  150.6690  137.0555  155.4558 C   0  0  0  0  0  0  0  0  0  0  0  0
  150.2645  138.2799  156.0614 C   0  0  0  0  0  0  0  0  0  0  0  0
  149.4658  138.0085  157.1678 N   0  0  0  0  0  0  0  0  0  0  0  0
  149.3828  136.7071  157.1984 C   0  0  0  0  0  0  0  0  0  0  0  0
  150.0658  136.0564  156.1975 N   0  0  0  0  0  0  0  0  0  0  0  0
  150.1382  134.6237  155.9776 C   0  0  0  0  0  0  0  0  0  0  0  0
  148.7500  133.9413  155.8475 C   0  0  2  0  0  0  0  0  0  0  0  0
  148.8259  132.4065  156.0550 C   0  0  0  0  0  0  0  0  0  0  0  0
  149.5417  132.0637  157.2237 O   0  0  0  0  0  0  0  0  0  0  0  0
  148.1015  134.2880  154.4819 C   0  0  2  0  0  0  0  0  0  0  0  0
  146.6861  133.7661  154.2945 C   0  0  0  0  0  0  0  0  0  0  0  0
  146.5171  133.8280  152.7822 C   0  0  0  0  0  0  0  0  0  0  0  0
  147.7978  133.5146  152.2518 O   0  0  0  0  0  0  0  0  0  0  0  0
  148.7916  133.6604  153.2622 C   0  0  0  0  0  0  0  0  0  0  0  0
  152.0927  140.4795  158.9649 N   0  0  0  0  0  0  0  0  0  0  0  0
  152.6124  139.2352  158.4129 C   0  0  0  0  0  0  0  0  0  0  0  0
  153.1085  141.2225  159.6885 C   0  0  0  0  0  0  0  0  0  0  0  0
  153.4547  143.3418  159.5155 H   0  0  0  0  0  0  0  0  0  0  0  0
  152.3723  141.5232  157.1954 H   0  0  0  0  0  0  0  0  0  0  0  0
  152.7288  143.2380  163.0249 H   0  0  0  0  0  0  0  0  0  0  0  0
  153.9255  143.7258  161.8260 H   0  0  0  0  0  0  0  0  0  0  0  0
  153.6416  142.0087  162.1504 H   0  0  0  0  0  0  0  0  0  0  0  0
  150.5344  142.8220  159.2138 H   0  0  0  0  0  0  0  0  0  0  0  0
  151.6112  143.6078  158.0608 H   0  0  0  0  0  0  0  0  0  0  0  0
  149.9312  140.0523  157.7333 H   0  0  0  0  0  0  0  0  0  0  0  0
  149.5035  141.7077  157.4999 H   0  0  0  0  0  0  0  0  0  0  0  0
  150.0787  141.5860  153.9508 H   0  0  0  0  0  0  0  0  0  0  0  0
  149.5843  142.5886  155.3114 H   0  0  0  0  0  0  0  0  0  0  0  0
  148.6099  141.1883  154.8585 H   0  0  0  0  0  0  0  0  0  0  0  0
  152.5193  138.0803  153.0432 H   0  0  0  0  0  0  0  0  0  0  0  0
  148.8085  136.1845  157.9493 H   0  0  0  0  0  0  0  0  0  0  0  0
  150.7311  134.4712  155.0760 H   0  0  0  0  0  0  0  0  0  0  0  0
  150.7020  134.1751  156.7964 H   0  0  0  0  0  0  0  0  0  0  0  0
  148.0981  134.3500  156.6215 H   0  0  0  0  0  0  0  0  0  0  0  0
  147.8341  131.9721  156.1699 H   0  0  0  0  0  0  0  0  0  0  0  0
  149.2816  131.9210  155.1917 H   0  0  0  0  0  0  0  0  0  0  0  0
  149.5583  131.1220  157.3026 H   0  0  0  0  0  0  0  0  0  0  0  0
  148.0865  135.3716  154.3524 H   0  0  0  0  0  0  0  0  0  0  0  0
  146.6107  132.7331  154.6377 H   0  0  0  0  0  0  0  0  0  0  0  0
  145.9324  134.3566  154.8159 H   0  0  0  0  0  0  0  0  0  0  0  0
  145.7527  133.1425  152.4161 H   0  0  0  0  0  0  0  0  0  0  0  0
  146.2471  134.8379  152.4712 H   0  0  0  0  0  0  0  0  0  0  0  0
  149.6214  134.2666  152.8978 H   0  0  0  0  0  0  0  0  0  0  0  0
  149.1787  132.6688  153.5007 H   0  0  0  0  0  0  0  0  0  0  0  0
  153.0172  138.6052  159.2054 H   0  0  0  0  0  0  0  0  0  0  0  0
  153.4079  139.4238  157.6907 H   0  0  0  0  0  0  0  0  0  0  0  0
  151.8270  138.6680  157.9141 H   0  0  0  0  0  0  0  0  0  0  0  0
  154.0490  141.1967  159.1354 H   0  0  0  0  0  0  0  0  0  0  0  0
  153.2969  140.7876  160.6707 H   0  0  0  0  0  0  0  0  0  0  0  0
  1  2  1  0  0  0  0
  1 32  1  0  0  0  0
  1 33  1  0  0  0  0
  1 34  1  0  0  0  0
  2  3  1  0  0  0  0
  3 30  1  0  0  0  0
  3 29  1  0  0  0  0
  3  4  1  0  0  0  0
  4  5  1  0  0  0  0
  4 35  1  0  0  0  0
  4 36  1  0  0  0  0
  5 31  1  0  0  0  0
  5  6  1  0  0  0  0
  5 27  1  0  0  0  0
  6  7  1  0  0  0  0
  6 37  1  0  0  0  0
  6 38  1  0  0  0  0
  7  8  1  0  0  0  0
  7  9  1  0  0  0  0
  8 39  1  0  0  0  0
  8 40  1  0  0  0  0
  8 41  1  0  0  0  0
  9 14  1  0  0  0  0
  9 10  2  0  0  0  0
 10 11  1  0  0  0  0
 11 12  2  0  0  0  0
 11 42  1  0  0  0  0
 12 13  1  0  0  0  0
 13 17  1  0  0  0  0
 13 14  2  0  0  0  0
 14 15  1  0  0  0  0
 15 16  2  0  0  0  0
 16 17  1  0  0  0  0
 16 43  1  0  0  0  0
 17 18  1  0  0  0  0
 18 19  1  0  0  0  0
 18 44  1  0  0  0  0
 18 45  1  0  0  0  0
 19 20  1  0  0  0  0
 19 22  1  0  0  0  0
 19 46  1  0  0  0  0
 20 21  1  0  0  0  0
 20 47  1  0  0  0  0
 20 48  1  0  0  0  0
 21 49  1  0  0  0  0
 22 26  1  0  0  0  0
 22 23  1  0  0  0  0
 22 50  1  0  0  0  0
 23 24  1  0  0  0  0
 23 51  1  0  0  0  0
 23 52  1  0  0  0  0
 24 25  1  0  0  0  0
 24 53  1  0  0  0  0
 24 54  1  0  0  0  0
 25 26  1  0  0  0  0
 26 55  1  0  0  0  0
 26 56  1  0  0  0  0
 27 28  1  0  0  0  0
 27 29  1  0  0  0  0
 28 57  1  0  0  0  0
 28 58  1  0  0  0  0
 28 59  1  0  0  0  0
 29 60  1  0  0  0  0
 29 61  1  0  0  0  0
M  END
> <s_m_source_file>
AV-unprocessed.smi

> <i_m_source_file_index>
21

> <i_lp_mmshare_version>
43012

> <i_f3d_flags>
0

> <s_epik_input>
W0NIM11PW0NASF0xW0NIMl1bQ0BIXShOKFtDSDNdKVtDSDJdMSlbQ0gyXU4oW0NIM10pYyhuW2NIXW4yKWMoYzIzKW5bY0hdbjNbQ0gyXVtDQEhdKFtDSDJdW09IXSlbQ0BASF00W0NIMl1bQ0gyXU9bQ0gyXTQ=

> <s_epik_cmdline>
J2VwaWtfcHl0aG9uJywgJy1waCcsICc3LjAnLCAnLXRuJywgJzgnLCAnLW1hJywgJzIwMCcsICctbWV0YWxfYmluZGluZycsICctaW1hZScsICc8aW5maWxlLm1hZT4nLCAnLW9tYWUnLCAnPG91dGZpbGUubWFlPic=

> <r_lp_tautomer_probability>
1

> <r_epik_Ionization_Penalty>
2.17574

> <r_epik_Ionization_Penalty_Charging>
0

> <r_epik_Ionization_Penalty_Neutral>
2.17574

> <r_epik_State_Penalty>
2.31336

> <r_epik_Charging_Adjusted_Penalty>
2.31336

> <i_epik_Tot_Q>
0

> <i_epik_Tot_abs_Q>
0

> <r_epik_Metal_State_Penalty>
2.31025

> <b_epik_Metal_Only>
0

> <s_lp_Force_Field>
OPLS_2005

> <r_lp_Energy>
68.7045

> <b_lp_Chiralities_Consistent>
1

> <s_lp_Variant>
AV-unprocessed.smi:21-36

> <Gold.Version>
5.8.1

> <Gold.Id.Protein>
6NUR|6NUR_protein|mol2

> <Gold.PLP.Fitness>
51.0166

> <Gold.PLP.PLP>
-45.1608

> <Gold.PLP.part.hbond>
-3.3758

> <Gold.PLP.part.metal>
0.0000

> <Gold.PLP.part.buried>
-7.8205

> <Gold.PLP.part.nonpolar>
-34.2935

> <Gold.PLP.part.repulsive>
0.5746

> <Gold.PLP.ligand.clash>
0.0000

> <Gold.PLP.ligand.torsion>
2.0566

> <Gold.PLP.Chemscore.Hbond>
3.0000

> <Gold.PLP.Chemscore.CHOScore>
0.0000

> <Gold.PLP.Chemscore.Metal>
0.0000

> <Gold.Chemscore.Hbonds>
donor molecule, donor type, donor heavy atom, donor atom, acceptor molecule, acceptor atom, score
      P1  H  7989  7998       L1    10  1.00
      P1  H 10752 10764       L1    12  0.99
      L1  C    11    42       P1  7949  0.01

> <Gold.PLP.Chemscore.Internal.Correction>
0.9690

> <Gold.Rescore>
     Score         DG    S(hbond)    S(metal)    S(lipo)     H(rot)  DE(clash)    DE(int)     intcor
     16.51     -18.65       2.87        0.00      96.42       3.00       0.07       2.07       ----

> <Gold.Chemscore.Fitness>
16.5077

> <Gold.Chemscore.DG>
-18.6494

> <Gold.Chemscore.ZeroCoef>
-5.4800

> <Gold.Chemscore.Hbond>
2.8672

> <Gold.Chemscore.Metal>
0.0000

> <Gold.Chemscore.Lipo>
96.4176

> <Gold.Chemscore.Internal_Hbond>
0.0000

> <Gold.Chemscore.DEClash>
0.0691

> <Gold.Chemscore.DEInternal>
2.0726

> <Gold.Chemscore.Rot>
3.0031

> <Gold.Chemscore.Internal.Correction>
   9.000000E+99

> <Gold.Chemscore.Hbonds>
donor molecule, donor type, donor heavy atom, donor atom, acceptor molecule, acceptor atom, score
      P1  H  7989  7998       L1    10  0.69
      P1  H 10752 10764       L1    12  0.69

> <Gold.Chemscore.Hbond.Weighted>
-9.5765

> <Gold.Chemscore.Metal.Weighted>
-0.0000

> <Gold.Chemscore.Lipo.Weighted>
-11.2809

> <Gold.Chemscore.Internal_Hbond.Weighted>
0.0000

> <Gold.Chemscore.DEClash.Weighted>
0.0691

> <Gold.Chemscore.DEInternal.Weighted>
2.0726

> <Gold.Chemscore.Rot.Weighted>
7.6880

> <Gold.Chemscore.Internal.Correction.Weighted>
   9.000000E+99

> <Gold.Protein.RotatedTorsions>
[ 6907 6896 6895 6894 ] final  -21.33 input  -60.11 | X-H torsion
[ 7974 7965 7964 7962 ] final -179.15 input  175.53 | X-H torsion
[ 8008 7997 7996 7995 ] final   -4.25 input   59.86 | X-H torsion
[ 10167 10162 10161 10158 ] final -144.96 input  -65.29 | X-H torsion
[ 10718 10713 10712 10709 ] final  -84.24 input   66.30 | X-H torsion
[ 10763 10752 10751 10750 ] final  -55.77 input  -60.55 | X-H torsion
[ 11005 11000 10999 10996 ] final   77.61 input  -57.11 | X-H torsion

> <Gold.Protein.ActiveResidues>
 VAL166  LYS551  ARG553  GLY616  TRP617  ASP618  TYR619  PRO620  LYS621  CYS622 
 ASP623  PHE694  ASN695  SER759  ASP760  ASP761  ALA762  ILE779  LEU786  VAL792 
 PHE793  MET794  SER795  GLU796  ALA797  LYS798  CYS799  TRP800  GLU811  SER814 

> <Gold.Protein.RotatedAtoms>
  151.2350  135.0568  159.9002 H   0  0  0  0  0  0  0  0  0  0  0  0  # atno 6907 bound_to 6896
  152.5400  134.0496  159.8114 H   0  0  0  0  0  0  0  0  0  0  0  0  # atno 6908 bound_to 6896
  151.0681  133.5440  159.2660 H   0  0  0  0  0  0  0  0  0  0  0  0  # atno 6909 bound_to 6896
  144.7135  140.0760  143.6427 H   0  0  0  0  0  0  0  0  0  0  0  0  # atno 7974 bound_to 7965
  154.6163  140.2489  155.7605 H   0  0  0  0  0  0  0  0  0  0  0  0  # atno 8008 bound_to 7997
  156.2401  140.2936  156.0369 H   0  0  0  0  0  0  0  0  0  0  0  0  # atno 8009 bound_to 7997
  155.1969  140.0393  157.2901 H   0  0  0  0  0  0  0  0  0  0  0  0  # atno 8010 bound_to 7997
  139.7850  143.8047  152.2643 H   0  0  0  0  0  0  0  0  0  0  0  0  # atno 10167 bound_to 10162
  156.0008  130.4691  150.4380 H   0  0  0  0  0  0  0  0  0  0  0  0  # atno 10718 bound_to 10713
  154.1961  135.6419  153.5073 H   0  0  0  0  0  0  0  0  0  0  0  0  # atno 10763 bound_to 10752
  153.0023  135.5440  154.6364 H   0  0  0  0  0  0  0  0  0  0  0  0  # atno 10764 bound_to 10752
  154.5766  135.2921  155.0748 H   0  0  0  0  0  0  0  0  0  0  0  0  # atno 10765 bound_to 10752
  139.9247  134.7697  156.1544 H   0  0  0  0  0  0  0  0  0  0  0  0  # atno 11005 bound_to 11000
  145.9742  139.2892  143.1080 LP  0  0  0  0  0  0  0  0  0  0  0  0  # atno 17320 bound_to 7965
  145.9082  140.9197  143.0467 LP  0  0  0  0  0  0  0  0  0  0  0  0  # atno 17321 bound_to 7965
  139.8121  144.7331  150.9683 LP  0  0  0  0  0  0  0  0  0  0  0  0  # atno 17342 bound_to 10162
  140.7819  143.4240  151.0796 LP  0  0  0  0  0  0  0  0  0  0  0  0  # atno 17343 bound_to 10162
  157.2424  131.0528  151.2429 LP  0  0  0  0  0  0  0  0  0  0  0  0  # atno 17370 bound_to 10713
  157.3608  130.7130  149.6500 LP  0  0  0  0  0  0  0  0  0  0  0  0  # atno 17371 bound_to 10713
  141.0796  133.6760  156.2308 LP  0  0  0  0  0  0  0  0  0  0  0  0  # atno 17394 bound_to 11000
  140.6370  134.5205  157.5566 LP  0  0  0  0  0  0  0  0  0  0  0  0  # atno 17395 bound_to 11000

$$$$
