AV-unprocessed.smi:2242|AV-procd|sdf|9061|dock2
  -GOLD-   2272012263D 1   1.00000     0.00000
 Structure written by MMmdl.
 43 44  0  0  0  0  0  0  0  0  1 V2000
  144.1230  132.9238  149.6783 C   0  0  0  0  0  0  0  0  0  0  0  0
  145.1083  132.4446  150.7237 C   0  0  0  0  0  0  0  0  0  0  0  0
  145.1691  131.0873  151.0938 C   0  0  0  0  0  0  0  0  0  0  0  0
  146.1084  130.7067  152.0723 C   0  0  0  0  0  0  0  0  0  0  0  0
  146.2257  129.2655  152.5213 C   0  0  0  0  0  0  0  0  0  0  0  0
  146.9479  131.5807  152.6676 N   0  0  0  0  0  0  0  0  0  0  0  0
  146.8984  132.8902  152.3189 C   0  0  0  0  0  0  0  0  0  0  0  0
  147.7324  133.8889  152.8874 N   0  0  0  0  0  0  0  0  0  0  0  0
  148.3473  133.8774  154.0831 C   0  0  0  0  0  0  0  0  0  0  0  0
  148.3084  132.9522  154.8948 O   0  0  0  0  0  0  0  0  0  0  0  0
  149.0235  135.0183  154.2874 N   0  0  0  0  0  0  0  0  0  0  0  0
  149.8375  135.3415  155.4599 C   0  0  1  0  0  0  0  0  0  0  0  0
  150.9783  134.3119  155.5355 C   0  0  0  0  0  0  0  0  0  0  0  0
  150.3365  136.8109  155.3966 C   0  0  0  0  0  0  0  0  0  0  0  0
  149.2169  137.8020  155.0179 C   0  0  0  0  0  0  0  0  0  0  0  0
  149.7576  139.2353  154.8891 C   0  0  0  0  0  0  0  0  0  0  0  0
  150.8027  139.2773  153.9264 O   0  0  0  0  0  0  0  0  0  0  0  0
  151.9184  138.4768  154.2959 C   0  0  0  0  0  0  0  0  0  0  0  0
  151.4990  137.0015  154.3983 C   0  0  0  0  0  0  0  0  0  0  0  0
  145.9843  133.3559  151.3471 C   0  0  0  0  0  0  0  0  0  0  0  0
  143.5516  132.0943  149.2606 H   0  0  0  0  0  0  0  0  0  0  0  0
  144.6493  133.4199  148.8624 H   0  0  0  0  0  0  0  0  0  0  0  0
  143.4224  133.6340  150.1180 H   0  0  0  0  0  0  0  0  0  0  0  0
  144.5134  130.3579  150.6413 H   0  0  0  0  0  0  0  0  0  0  0  0
  145.5986  128.6104  151.9160 H   0  0  0  0  0  0  0  0  0  0  0  0
  145.9161  129.1684  153.5622 H   0  0  0  0  0  0  0  0  0  0  0  0
  147.2571  128.9223  152.4355 H   0  0  0  0  0  0  0  0  0  0  0  0
  147.8757  134.7093  152.3177 H   0  0  0  0  0  0  0  0  0  0  0  0
  148.9881  135.7193  153.5620 H   0  0  0  0  0  0  0  0  0  0  0  0
  149.2385  135.2239  156.3648 H   0  0  0  0  0  0  0  0  0  0  0  0
  151.5439  134.4008  156.4625 H   0  0  0  0  0  0  0  0  0  0  0  0
  151.6741  134.4263  154.7037 H   0  0  0  0  0  0  0  0  0  0  0  0
  150.5876  133.2940  155.5029 H   0  0  0  0  0  0  0  0  0  0  0  0
  150.7025  137.0854  156.3873 H   0  0  0  0  0  0  0  0  0  0  0  0
  148.7596  137.5016  154.0742 H   0  0  0  0  0  0  0  0  0  0  0  0
  148.4250  137.7958  155.7658 H   0  0  0  0  0  0  0  0  0  0  0  0
  148.9607  139.9076  154.5714 H   0  0  0  0  0  0  0  0  0  0  0  0
  150.1185  139.6027  155.8511 H   0  0  0  0  0  0  0  0  0  0  0  0
  152.6971  138.5915  153.5415 H   0  0  0  0  0  0  0  0  0  0  0  0
  152.3371  138.8289  155.2399 H   0  0  0  0  0  0  0  0  0  0  0  0
  152.3658  136.4107  154.6944 H   0  0  0  0  0  0  0  0  0  0  0  0
  151.2001  136.6422  153.4126 H   0  0  0  0  0  0  0  0  0  0  0  0
  145.9542  134.4023  151.0789 H   0  0  0  0  0  0  0  0  0  0  0  0
  1  2  1  0  0  0  0
  1 21  1  0  0  0  0
  1 22  1  0  0  0  0
  1 23  1  0  0  0  0
  2 20  1  0  0  0  0
  2  3  2  0  0  0  0
  3  4  1  0  0  0  0
  3 24  1  0  0  0  0
  4  5  1  0  0  0  0
  4  6  2  0  0  0  0
  5 25  1  0  0  0  0
  5 26  1  0  0  0  0
  5 27  1  0  0  0  0
  6  7  1  0  0  0  0
  7  8  1  0  0  0  0
  7 20  2  0  0  0  0
  8  9  1  0  0  0  0
  8 28  1  0  0  0  0
  9 10  2  0  0  0  0
  9 11  1  0  0  0  0
 11 12  1  0  0  0  0
 11 29  1  0  0  0  0
 12 13  1  0  0  0  0
 12 14  1  0  0  0  0
 12 30  1  0  0  0  0
 13 31  1  0  0  0  0
 13 32  1  0  0  0  0
 13 33  1  0  0  0  0
 14 19  1  0  0  0  0
 14 15  1  0  0  0  0
 14 34  1  0  0  0  0
 15 16  1  0  0  0  0
 15 35  1  0  0  0  0
 15 36  1  0  0  0  0
 16 17  1  0  0  0  0
 16 37  1  0  0  0  0
 16 38  1  0  0  0  0
 17 18  1  0  0  0  0
 18 19  1  0  0  0  0
 18 39  1  0  0  0  0
 18 40  1  0  0  0  0
 19 41  1  0  0  0  0
 19 42  1  0  0  0  0
 20 43  1  0  0  0  0
M  END
> <s_m_source_file>
AV-unprocessed.smi

> <i_m_source_file_index>
2242

> <i_lp_mmshare_version>
43012

> <i_f3d_flags>
0

> <s_epik_input>
W0NIM11jMVtjSF1jKFtDSDNdKW5jKFtjSF0xKVtOSF1DKD1PKVtOSF1bQ0BIXShbQ0gzXSlbQ0hdMltDSDJdW0NIMl1PW0NIMl1bQ0gyXTI=

> <s_epik_cmdline>
J2VwaWtfcHl0aG9uJywgJy1waCcsICc3LjAnLCAnLXRuJywgJzgnLCAnLW1hJywgJzIwMCcsICctbWV0YWxfYmluZGluZycsICctaW1hZScsICc8aW5maWxlLm1hZT4nLCAnLW9tYWUnLCAnPG91dGZpbGUubWFlPic=

> <r_lp_tautomer_probability>
1

> <r_epik_Ionization_Penalty>
0.000270135

> <r_epik_Ionization_Penalty_Charging>
0

> <r_epik_Ionization_Penalty_Neutral>
0.000270135

> <r_epik_State_Penalty>
-0

> <r_epik_Charging_Adjusted_Penalty>
0

> <i_epik_Tot_Q>
0

> <i_epik_Tot_abs_Q>
0

> <r_epik_Metal_State_Penalty>
-0

> <b_epik_Metal_Only>
0

> <s_lp_Force_Field>
OPLS_2005

> <r_lp_Energy>
14.0438

> <b_lp_Chiralities_Consistent>
1

> <s_lp_Variant>
AV-unprocessed.smi:2242-2

> <Gold.Version>
5.8.1

> <Gold.Id.Protein>
6NUR|6NUR_protein|mol2

> <Gold.PLP.Fitness>
42.8022

> <Gold.PLP.PLP>
-34.4786

> <Gold.PLP.part.hbond>
-3.0000

> <Gold.PLP.part.metal>
0.0000

> <Gold.PLP.part.buried>
-4.5526

> <Gold.PLP.part.nonpolar>
-27.5033

> <Gold.PLP.part.repulsive>
0.3349

> <Gold.PLP.ligand.clash>
0.0000

> <Gold.PLP.ligand.torsion>
0.3455

> <Gold.PLP.Chemscore.Hbond>
3.0000

> <Gold.PLP.Chemscore.CHOScore>
0.0000

> <Gold.PLP.Chemscore.Metal>
0.0000

> <Gold.Chemscore.Hbonds>
donor molecule, donor type, donor heavy atom, donor atom, acceptor molecule, acceptor atom, score
      L1  H     8    28       P1  7948  0.99
      L1  H    11    29       P1  7948  1.00
      P1  H  7989  7998       L1    17  1.00

> <Gold.PLP.Chemscore.Internal.Correction>
0.0147

> <Gold.Rescore>
     Score         DG    S(hbond)    S(metal)    S(lipo)     H(rot)  DE(clash)    DE(int)     intcor
     18.43     -21.13       2.56        0.00      86.80       1.19       0.09       2.61       ----

> <Gold.Chemscore.Fitness>
18.4316

> <Gold.Chemscore.DG>
-21.1323

> <Gold.Chemscore.ZeroCoef>
-5.4800

> <Gold.Chemscore.Hbond>
2.5586

> <Gold.Chemscore.Metal>
0.0000

> <Gold.Chemscore.Lipo>
86.7980

> <Gold.Chemscore.Internal_Hbond>
0.0000

> <Gold.Chemscore.DEClash>
0.0900

> <Gold.Chemscore.DEInternal>
2.6107

> <Gold.Chemscore.Rot>
1.1909

> <Gold.Chemscore.Internal.Correction>
   9.000000E+99

> <Gold.Chemscore.Hbonds>
donor molecule, donor type, donor heavy atom, donor atom, acceptor molecule, acceptor atom, score
      L1  H     8    28       P1  7948  0.56
      L1  H    11    29       P1  7948  0.85
      P1  H  7989  7998       L1    17  0.29

> <Gold.Chemscore.Hbond.Weighted>
-8.5456

> <Gold.Chemscore.Metal.Weighted>
-0.0000

> <Gold.Chemscore.Lipo.Weighted>
-10.1554

> <Gold.Chemscore.Internal_Hbond.Weighted>
0.0000

> <Gold.Chemscore.DEClash.Weighted>
0.0900

> <Gold.Chemscore.DEInternal.Weighted>
2.6107

> <Gold.Chemscore.Rot.Weighted>
3.0487

> <Gold.Chemscore.Internal.Correction.Weighted>
   9.000000E+99

> <Gold.Protein.RotatedTorsions>
[ 6907 6896 6895 6894 ] final   96.84 input  -60.11 | X-H torsion
[ 7974 7965 7964 7962 ] final  163.60 input  175.53 | X-H torsion
[ 8008 7997 7996 7995 ] final   50.84 input   59.86 | X-H torsion
[ 10167 10162 10161 10158 ] final  150.76 input  -65.29 | X-H torsion
[ 10718 10713 10712 10709 ] final  175.76 input   66.30 | X-H torsion
[ 10763 10752 10751 10750 ] final  131.92 input  -60.55 | X-H torsion
[ 11005 11000 10999 10996 ] final  -89.82 input  -57.11 | X-H torsion

> <Gold.Protein.ActiveResidues>
 VAL166  LYS551  ARG553  GLY616  TRP617  ASP618  TYR619  PRO620  LYS621  CYS622 
 ASP623  PHE694  ASN695  SER759  ASP760  ASP761  ALA762  ILE779  LEU786  VAL792 
 PHE793  MET794  SER795  GLU796  ALA797  LYS798  CYS799  TRP800  GLU811  SER814 

> <Gold.Protein.RotatedAtoms>
  152.5430  134.0825  159.8241 H   0  0  0  0  0  0  0  0  0  0  0  0  # atno 6907 bound_to 6896
  151.0925  133.5298  159.2621 H   0  0  0  0  0  0  0  0  0  0  0  0  # atno 6908 bound_to 6896
  151.2084  135.0480  159.8955 H   0  0  0  0  0  0  0  0  0  0  0  0  # atno 6909 bound_to 6896
  144.7582  139.8206  143.6342 H   0  0  0  0  0  0  0  0  0  0  0  0  # atno 7974 bound_to 7965
  155.4255  140.3448  155.4275 H   0  0  0  0  0  0  0  0  0  0  0  0  # atno 8008 bound_to 7997
  156.1368  140.1530  156.9013 H   0  0  0  0  0  0  0  0  0  0  0  0  # atno 8009 bound_to 7997
  154.4938  140.0833  156.7633 H   0  0  0  0  0  0  0  0  0  0  0  0  # atno 8010 bound_to 7997
  139.4847  144.5496  151.7423 H   0  0  0  0  0  0  0  0  0  0  0  0  # atno 10167 bound_to 10162
  156.9301  130.9968  151.2989 H   0  0  0  0  0  0  0  0  0  0  0  0  # atno 10718 bound_to 10713
  153.7822  135.3167  155.3367 H   0  0  0  0  0  0  0  0  0  0  0  0  # atno 10763 bound_to 10752
  154.8157  135.4637  154.0640 H   0  0  0  0  0  0  0  0  0  0  0  0  # atno 10764 bound_to 10752
  153.1932  135.6911  153.8411 H   0  0  0  0  0  0  0  0  0  0  0  0  # atno 10765 bound_to 10752
  141.1577  133.7653  156.9649 H   0  0  0  0  0  0  0  0  0  0  0  0  # atno 11005 bound_to 11000
  146.1617  139.4733  142.9984 LP  0  0  0  0  0  0  0  0  0  0  0  0  # atno 17320 bound_to 7965
  145.6706  141.0217  143.1659 LP  0  0  0  0  0  0  0  0  0  0  0  0  # atno 17321 bound_to 7965
  140.5048  144.1114  150.5980 LP  0  0  0  0  0  0  0  0  0  0  0  0  # atno 17342 bound_to 10162
  140.4020  143.2699  151.9937 LP  0  0  0  0  0  0  0  0  0  0  0  0  # atno 17343 bound_to 10162
  157.5853  130.8405  149.8580 LP  0  0  0  0  0  0  0  0  0  0  0  0  # atno 17370 bound_to 10713
  156.0451  130.3730  150.1337 LP  0  0  0  0  0  0  0  0  0  0  0  0  # atno 17371 bound_to 10713
  140.1168  134.9442  157.2146 LP  0  0  0  0  0  0  0  0  0  0  0  0  # atno 17394 bound_to 11000
  140.3123  134.3010  155.7264 LP  0  0  0  0  0  0  0  0  0  0  0  0  # atno 17395 bound_to 11000

$$$$
