AV-unprocessed.smi:72|AV-procd|sdf|745|dock3
  -GOLD-   2262017 73D 1   1.00000     0.00000
 Structure written by MMmdl.
 29 30  0  0  0  0  0  0  0  0  1 V2000
  153.2974  139.7338  159.8536 N   0  0  0  0  0  0  0  0  0  0  0  0
  152.7302  139.5752  158.6067 C   0  0  0  0  0  0  0  0  0  0  0  0
  152.0869  140.6972  158.0678 N   0  0  0  0  0  0  0  0  0  0  0  0
  151.5435  140.5506  156.9012 C   0  0  0  0  0  0  0  0  0  0  0  0
  151.5854  139.2759  156.2005 N   0  0  0  0  0  0  0  0  0  0  0  0
  150.9710  139.0687  154.8244 C   0  0  2  0  0  0  0  0  0  0  0  0
  150.4355  140.2727  154.3551 O   0  0  0  0  0  0  0  0  0  0  0  0
  149.0325  140.3065  154.6013 C   0  0  1  0  0  0  0  0  0  0  0  0
  148.3410  141.3848  153.7494 C   0  0  0  0  0  0  0  0  0  0  0  0
  148.8668  142.6572  154.0624 O   0  0  0  0  0  0  0  0  0  0  0  0
  148.6267  138.8598  154.3060 C   0  0  1  0  0  0  0  0  0  0  0  0
  148.4728  138.6621  152.9095 O   0  0  0  0  0  0  0  0  0  0  0  0
  149.7967  138.0661  154.8886 C   0  0  1  0  0  0  0  0  0  0  0  0
  150.0414  136.8650  154.1803 O   0  0  0  0  0  0  0  0  0  0  0  0
  152.2890  138.1910  156.7945 C   0  0  0  0  0  0  0  0  0  0  0  0
  152.3832  137.1167  156.2006 O   0  0  0  0  0  0  0  0  0  0  0  0
  152.8529  138.4012  158.0581 N   0  0  0  0  0  0  0  0  0  0  0  0
  151.7986  138.7618  154.1823 H   0  0  0  0  0  0  0  0  0  0  0  0
  148.8515  140.4979  155.6607 H   0  0  0  0  0  0  0  0  0  0  0  0
  147.6856  138.5980  154.7906 H   0  0  0  0  0  0  0  0  0  0  0  0
  149.5810  137.8281  155.9315 H   0  0  0  0  0  0  0  0  0  0  0  0
  153.7875  138.9964  160.3388 H   0  0  0  0  0  0  0  0  0  0  0  0
  153.2639  140.5983  160.3742 H   0  0  0  0  0  0  0  0  0  0  0  0
  151.0331  141.3650  156.3871 H   0  0  0  0  0  0  0  0  0  0  0  0
  148.4509  141.1826  152.6836 H   0  0  0  0  0  0  0  0  0  0  0  0
  147.2734  141.4095  153.9695 H   0  0  0  0  0  0  0  0  0  0  0  0
  148.7436  142.8132  154.9863 H   0  0  0  0  0  0  0  0  0  0  0  0
  149.1793  139.1098  152.4690 H   0  0  0  0  0  0  0  0  0  0  0  0
  149.5182  136.8709  153.3930 H   0  0  0  0  0  0  0  0  0  0  0  0
  1  2  1  0  0  0  0
  1 22  1  0  0  0  0
  1 23  1  0  0  0  0
  2 17  2  0  0  0  0
  2  3  1  0  0  0  0
  3  4  2  0  0  0  0
  4  5  1  0  0  0  0
  4 24  1  0  0  0  0
  5  6  1  0  0  0  0
  5 15  1  0  0  0  0
  6 18  1  0  0  0  0
  6 13  1  0  0  0  0
  6  7  1  0  0  0  0
  7  8  1  0  0  0  0
  8 19  1  0  0  0  0
  8  9  1  0  0  0  0
  8 11  1  0  0  0  0
  9 10  1  0  0  0  0
  9 25  1  0  0  0  0
  9 26  1  0  0  0  0
 10 27  1  0  0  0  0
 11 20  1  0  0  0  0
 11 12  1  0  0  0  0
 11 13  1  0  0  0  0
 12 28  1  0  0  0  0
 13 21  1  0  0  0  0
 13 14  1  0  0  0  0
 14 29  1  0  0  0  0
 15 16  2  0  0  0  0
 15 17  1  0  0  0  0
M  END
> <s_m_source_file>
AV-unprocessed.smi

> <i_m_source_file_index>
72

> <i_lp_mmshare_version>
43012

> <i_f3d_flags>
0

> <s_epik_input>
W05IMl1jMW5bY0hdbihjKD1PKW4xKVtDQEBIXTJPW0NASF0oW0NIMl1bT0hdKVtDQEBIXShbT0hdKVtDQEhdMltPSF0=

> <s_epik_cmdline>
J2VwaWtfcHl0aG9uJywgJy1waCcsICc3LjAnLCAnLXRuJywgJzgnLCAnLW1hJywgJzIwMCcsICctbWV0YWxfYmluZGluZycsICctaW1hZScsICc8aW5maWxlLm1hZT4nLCAnLW9tYWUnLCAnPG91dGZpbGUubWFlPic=

> <r_lp_tautomer_probability>
4.77166e-05

> <r_epik_Ionization_Penalty>
1.3546

> <r_epik_Ionization_Penalty_Charging>
1.46833e-10

> <r_epik_Ionization_Penalty_Neutral>
1.3546

> <r_epik_State_Penalty>
3.51908

> <r_epik_Charging_Adjusted_Penalty>
3.51908

> <i_epik_Tot_Q>
0

> <i_epik_Tot_abs_Q>
0

> <r_epik_Metal_State_Penalty>
3.44088

> <b_epik_Metal_Only>
1

> <s_epik_Chemistry_Notes>
This compound contains an acetal/aminal-like group ( X-CH(R)-Y where X, Y are N, S, or O) that may be acid/base labile, releasing an aldehyde.

> <s_lp_Force_Field>
OPLS_2005

> <r_lp_Energy>
31.2985

> <b_lp_Chiralities_Consistent>
1

> <s_lp_Variant>
AV-unprocessed.smi:72-83

> <Gold.Version>
5.8.1

> <Gold.Id.Protein>
6NUR|6NUR_protein|mol2

> <Gold.PLP.Fitness>
40.7405

> <Gold.PLP.PLP>
-27.1802

> <Gold.PLP.part.hbond>
-8.2225

> <Gold.PLP.part.metal>
0.0000

> <Gold.PLP.part.buried>
-1.4230

> <Gold.PLP.part.nonpolar>
-16.8408

> <Gold.PLP.part.repulsive>
0.1986

> <Gold.PLP.ligand.clash>
0.0000

> <Gold.PLP.ligand.torsion>
0.0680

> <Gold.PLP.Chemscore.Hbond>
4.5578

> <Gold.PLP.Chemscore.CHOScore>
0.0000

> <Gold.PLP.Chemscore.Metal>
0.0000

> <Gold.Chemscore.Hbonds>
donor molecule, donor type, donor heavy atom, donor atom, acceptor molecule, acceptor atom, score
      L1  H    10    27       P1  8028  0.35
      L1  H    12    28       P1  7957  0.91
      L1  H    14    29       P1  7948  1.00
      P1  H  7989  7998       L1     7  1.00
      P1  H  8011  8017       L1    10  0.01
      P1  H  8022  8030       L1    10  0.40
      P1  H 10752 10764       L1    16  0.66

> <Gold.PLP.Chemscore.Internal.Correction>
0.0227

> <Gold.Rescore>
     Score         DG    S(hbond)    S(metal)    S(lipo)     H(rot)  DE(clash)    DE(int)     intcor
     10.15     -10.89       3.93        0.00      22.79       4.06       0.56       0.17       ----

> <Gold.Chemscore.Fitness>
10.1548

> <Gold.Chemscore.DG>
-10.8891

> <Gold.Chemscore.ZeroCoef>
-5.4800

> <Gold.Chemscore.Hbond>
3.9331

> <Gold.Chemscore.Metal>
0.0000

> <Gold.Chemscore.Lipo>
22.7869

> <Gold.Chemscore.Internal_Hbond>
0.0000

> <Gold.Chemscore.DEClash>
0.5595

> <Gold.Chemscore.DEInternal>
0.1748

> <Gold.Chemscore.Rot>
4.0600

> <Gold.Chemscore.Internal.Correction>
   9.000000E+99

> <Gold.Chemscore.Hbonds>
donor molecule, donor type, donor heavy atom, donor atom, acceptor molecule, acceptor atom, score
      L1  H    10    27       P1  8028  0.32
      L1  H    12    28       P1  7957  0.87
      L1  H    14    29       P1  7948  0.77
      P1  H  7989  7998       L1     7  0.38
      P1  H  8022  8030       L1    10  0.03
      P1  H 10752 10764       L1    16  0.64

> <Gold.Chemscore.Hbond.Weighted>
-13.1367

> <Gold.Chemscore.Metal.Weighted>
-0.0000

> <Gold.Chemscore.Lipo.Weighted>
-2.6661

> <Gold.Chemscore.Internal_Hbond.Weighted>
0.0000

> <Gold.Chemscore.DEClash.Weighted>
0.5595

> <Gold.Chemscore.DEInternal.Weighted>
0.1748

> <Gold.Chemscore.Rot.Weighted>
10.3936

> <Gold.Chemscore.Internal.Correction.Weighted>
   9.000000E+99

> <Gold.Protein.RotatedTorsions>
[ 6907 6896 6895 6894 ] final  113.04 input  -60.11 | X-H torsion
[ 7974 7965 7964 7962 ] final  171.35 input  175.53 | X-H torsion
[ 8008 7997 7996 7995 ] final  -45.40 input   59.86 | X-H torsion
[ 10167 10162 10161 10158 ] final  176.00 input  -65.29 | X-H torsion
[ 10718 10713 10712 10709 ] final   86.03 input   66.30 | X-H torsion
[ 10763 10752 10751 10750 ] final  -22.14 input  -60.55 | X-H torsion
[ 11005 11000 10999 10996 ] final -135.40 input  -57.11 | X-H torsion

> <Gold.Protein.ActiveResidues>
 VAL166  LYS551  ARG553  GLY616  TRP617  ASP618  TYR619  PRO620  LYS621  CYS622 
 ASP623  PHE694  ASN695  SER759  ASP760  ASP761  ALA762  ILE779  LEU786  VAL792 
 PHE793  MET794  SER795  GLU796  ALA797  LYS798  CYS799  TRP800  GLU811  SER814 

> <Gold.Protein.RotatedAtoms>
  152.4883  133.8431  159.7162 H   0  0  0  0  0  0  0  0  0  0  0  0  # atno 6907 bound_to 6896
  150.8989  133.7135  159.2891 H   0  0  0  0  0  0  0  0  0  0  0  0  # atno 6908 bound_to 6896
  151.4583  135.1040  159.9770 H   0  0  0  0  0  0  0  0  0  0  0  0  # atno 6909 bound_to 6896
  144.7297  139.9337  143.6426 H   0  0  0  0  0  0  0  0  0  0  0  0  # atno 7974 bound_to 7965
  154.4001  140.1398  156.3841 H   0  0  0  0  0  0  0  0  0  0  0  0  # atno 8008 bound_to 7997
  155.7976  140.3477  155.5364 H   0  0  0  0  0  0  0  0  0  0  0  0  # atno 8009 bound_to 7997
  155.8516  140.0942  157.1661 H   0  0  0  0  0  0  0  0  0  0  0  0  # atno 8010 bound_to 7997
  139.5198  144.2966  152.0416 H   0  0  0  0  0  0  0  0  0  0  0  0  # atno 10167 bound_to 10162
  157.6923  131.0199  150.2912 H   0  0  0  0  0  0  0  0  0  0  0  0  # atno 10718 bound_to 10713
  153.6473  135.6982  153.5221 H   0  0  0  0  0  0  0  0  0  0  0  0  # atno 10763 bound_to 10752
  153.2735  135.4207  155.1010 H   0  0  0  0  0  0  0  0  0  0  0  0  # atno 10764 bound_to 10752
  154.8485  135.3584  154.6017 H   0  0  0  0  0  0  0  0  0  0  0  0  # atno 10765 bound_to 10752
  140.8902  134.1821  157.4533 H   0  0  0  0  0  0  0  0  0  0  0  0  # atno 11005 bound_to 11000
  146.0838  139.3826  143.0448 LP  0  0  0  0  0  0  0  0  0  0  0  0  # atno 17320 bound_to 7965
  145.7805  140.9858  143.1102 LP  0  0  0  0  0  0  0  0  0  0  0  0  # atno 17321 bound_to 7965
  140.2415  144.4264  150.6258 LP  0  0  0  0  0  0  0  0  0  0  0  0  # atno 17342 bound_to 10162
  140.6287  143.2184  151.6541 LP  0  0  0  0  0  0  0  0  0  0  0  0  # atno 17343 bound_to 10162
  156.3443  130.3820  149.7383 LP  0  0  0  0  0  0  0  0  0  0  0  0  # atno 17370 bound_to 10713
  156.4881  130.8072  151.3083 LP  0  0  0  0  0  0  0  0  0  0  0  0  # atno 17371 bound_to 10713
  139.8729  134.9855  156.5284 LP  0  0  0  0  0  0  0  0  0  0  0  0  # atno 17394 bound_to 11000
  140.8356  133.8245  155.9026 LP  0  0  0  0  0  0  0  0  0  0  0  0  # atno 17395 bound_to 11000

$$$$
