AV-unprocessed.smi:1933|AV-procd|sdf|7819|dock5
  -GOLD-   22720 9563D 1   1.00000     0.00000
 Structure written by MMmdl.
 48 50  0  0  0  0  0  0  0  0  2 V2000
  144.7576  137.3774  151.9901 O   0  0  0  0  0  0  0  0  0  0  0  0
  145.9522  137.0819  151.9518 C   0  0  0  0  0  0  0  0  0  0  0  0
  146.9270  137.8703  152.4286 N   0  0  0  0  0  0  0  0  0  0  0  0
  146.7408  139.1789  153.0489 C   0  0  0  0  0  0  0  0  0  0  0  0
  147.7348  140.2516  152.5226 C   0  0  2  0  0  0  0  0  0  0  0  0
  148.9613  140.4961  153.4491 C   0  0  2  0  0  0  0  0  0  0  0  0
  149.6762  139.2229  153.8815 C   0  0  0  0  0  0  0  0  0  0  0  0
  150.4432  139.6853  155.1102 C   0  0  0  0  0  0  0  0  0  0  0  0
  149.5219  140.5336  155.7736 O   0  0  0  0  0  0  0  0  0  0  0  0
  148.6599  141.1401  154.8148 C   0  0  0  0  0  0  0  0  0  0  0  0
  147.0478  141.5493  152.2436 N   0  3  0  0  0  0  0  0  0  0  0  0
  146.0732  141.9593  153.2839 C   0  0  0  0  0  0  0  0  0  0  0  0
  145.2784  143.1868  152.8061 C   0  0  0  0  0  0  0  0  0  0  0  0
  146.1741  144.2424  152.4770 O   0  0  0  0  0  0  0  0  0  0  0  0
  147.0643  143.8842  151.4262 C   0  0  0  0  0  0  0  0  0  0  0  0
  147.9239  142.6884  151.8679 C   0  0  0  0  0  0  0  0  0  0  0  0
  146.4567  135.9419  151.4483 N   0  0  0  0  0  0  0  0  0  0  0  0
  145.7530  134.8298  150.9151 C   0  0  0  0  0  0  0  0  0  0  0  0
  146.4991  133.6321  150.8386 C   0  0  0  0  0  0  0  0  0  0  0  0
  145.8906  132.4683  150.3300 C   0  0  0  0  0  0  0  0  0  0  0  0
  144.5496  132.5324  149.9114 C   0  0  0  0  0  0  0  0  0  0  0  0
  143.8783  133.7639  150.0229 C   0  0  0  0  0  0  0  0  0  0  0  0
  144.4595  134.8807  150.5098 N   0  0  0  0  0  0  0  0  0  0  0  0
  147.8777  137.5392  152.3512 H   0  0  0  0  0  0  0  0  0  0  0  0
  145.7148  139.4764  152.8349 H   0  0  0  0  0  0  0  0  0  0  0  0
  146.8106  139.1007  154.1346 H   0  0  0  0  0  0  0  0  0  0  0  0
  148.1309  139.8994  151.5687 H   0  0  0  0  0  0  0  0  0  0  0  0
  149.6861  141.1289  152.9347 H   0  0  0  0  0  0  0  0  0  0  0  0
  148.9557  138.4532  154.1629 H   0  0  0  0  0  0  0  0  0  0  0  0
  150.3319  138.8148  153.1118 H   0  0  0  0  0  0  0  0  0  0  0  0
  150.7620  138.8602  155.7473 H   0  0  0  0  0  0  0  0  0  0  0  0
  151.3238  140.2619  154.8230 H   0  0  0  0  0  0  0  0  0  0  0  0
  148.8314  142.2161  154.7957 H   0  0  0  0  0  0  0  0  0  0  0  0
  147.6303  140.9663  155.1283 H   0  0  0  0  0  0  0  0  0  0  0  0
  145.3846  141.1409  153.4969 H   0  0  0  0  0  0  0  0  0  0  0  0
  146.5907  142.1951  154.2142 H   0  0  0  0  0  0  0  0  0  0  0  0
  144.6600  142.9377  151.9422 H   0  0  0  0  0  0  0  0  0  0  0  0
  144.6042  143.5269  153.5923 H   0  0  0  0  0  0  0  0  0  0  0  0
  146.5033  143.6491  150.5201 H   0  0  0  0  0  0  0  0  0  0  0  0
  147.6999  144.7392  151.1946 H   0  0  0  0  0  0  0  0  0  0  0  0
  148.5419  142.9881  152.7152 H   0  0  0  0  0  0  0  0  0  0  0  0
  148.5971  142.4042  151.0597 H   0  0  0  0  0  0  0  0  0  0  0  0
  147.4614  135.8480  151.4671 H   0  0  0  0  0  0  0  0  0  0  0  0
  147.5284  133.6001  151.1655 H   0  0  0  0  0  0  0  0  0  0  0  0
  146.4442  131.5432  150.2630 H   0  0  0  0  0  0  0  0  0  0  0  0
  144.0486  131.6612  149.5162 H   0  0  0  0  0  0  0  0  0  0  0  0
  142.8473  133.8556  149.7144 H   0  0  0  0  0  0  0  0  0  0  0  0
  146.4845  141.3636  151.4259 H   0  0  0  0  0  0  0  0  0  0  0  0
  1  2  2  0  0  0  0
  2  3  1  0  0  0  0
  2 17  1  0  0  0  0
  3  4  1  0  0  0  0
  3 24  1  0  0  0  0
  4  5  1  0  0  0  0
  4 25  1  0  0  0  0
  4 26  1  0  0  0  0
  5  6  1  0  0  0  0
  5 11  1  0  0  0  0
  5 27  1  0  0  0  0
  6 10  1  0  0  0  0
  6  7  1  0  0  0  0
  6 28  1  0  0  0  0
  7  8  1  0  0  0  0
  7 29  1  0  0  0  0
  7 30  1  0  0  0  0
  8  9  1  0  0  0  0
  8 31  1  0  0  0  0
  8 32  1  0  0  0  0
  9 10  1  0  0  0  0
 10 33  1  0  0  0  0
 10 34  1  0  0  0  0
 11 16  1  0  0  0  0
 11 12  1  0  0  0  0
 11 48  1  0  0  0  0
 12 13  1  0  0  0  0
 12 35  1  0  0  0  0
 12 36  1  0  0  0  0
 13 14  1  0  0  0  0
 13 37  1  0  0  0  0
 13 38  1  0  0  0  0
 14 15  1  0  0  0  0
 15 16  1  0  0  0  0
 15 39  1  0  0  0  0
 15 40  1  0  0  0  0
 16 41  1  0  0  0  0
 16 42  1  0  0  0  0
 17 18  1  0  0  0  0
 17 43  1  0  0  0  0
 18 23  1  0  0  0  0
 18 19  2  0  0  0  0
 19 20  1  0  0  0  0
 19 44  1  0  0  0  0
 20 21  2  0  0  0  0
 20 45  1  0  0  0  0
 21 22  1  0  0  0  0
 21 46  1  0  0  0  0
 22 23  2  0  0  0  0
 22 47  1  0  0  0  0
M  CHG  1  11   1
M  END
> <s_m_source_file>
AV-unprocessed.smi

> <i_m_source_file_index>
1933

> <i_lp_mmshare_version>
43012

> <i_f3d_flags>
0

> <s_epik_input>
bjFbY0hdW2NIXVtjSF1bY0hdYzFbTkhdQyg9TylbTkhdW0NIMl1bQ0BIXShbQ0BASF0yW0NIMl1bQ0gyXU9bQ0gyXTIpTjNbQ0gyXVtDSDJdT1tDSDJdW0NIMl0z

> <s_epik_cmdline>
J2VwaWtfcHl0aG9uJywgJy1waCcsICc3LjAnLCAnLXRuJywgJzgnLCAnLW1hJywgJzIwMCcsICctbWV0YWxfYmluZGluZycsICctaW1hZScsICc8aW5maWxlLm1hZT4nLCAnLW9tYWUnLCAnPG91dGZpbGUubWFlPic=

> <r_epik_Ionization_Penalty>
0.983294

> <r_epik_Ionization_Penalty_Charging>
0.98326

> <r_epik_Ionization_Penalty_Neutral>
3.39688e-05

> <r_epik_State_Penalty>
1.0303

> <r_epik_Charging_Adjusted_Penalty>
2.01356

> <i_epik_Tot_Q>
1

> <i_epik_Tot_abs_Q>
1

> <r_epik_Metal_State_Penalty>
1.0303

> <b_epik_Metal_Only>
0

> <s_lp_Force_Field>
OPLS_2005

> <r_lp_Energy>
40.1747

> <b_lp_Chiralities_Consistent>
1

> <s_lp_Variant>
AV-unprocessed.smi:1933-5

> <Gold.Version>
5.8.1

> <Gold.Id.Protein>
6NUR|6NUR_protein|mol2

> <Gold.PLP.Fitness>
48.9902

> <Gold.PLP.PLP>
-35.8995

> <Gold.PLP.part.hbond>
-3.0000

> <Gold.PLP.part.metal>
0.0000

> <Gold.PLP.part.buried>
-6.5834

> <Gold.PLP.part.nonpolar>
-27.9448

> <Gold.PLP.part.repulsive>
0.5164

> <Gold.PLP.ligand.clash>
0.0000

> <Gold.PLP.ligand.torsion>
1.0517

> <Gold.PLP.Chemscore.Hbond>
3.9920

> <Gold.PLP.Chemscore.CHOScore>
1.0000

> <Gold.PLP.Chemscore.Metal>
0.0000

> <Gold.Chemscore.Hbonds>
donor molecule, donor type, donor heavy atom, donor atom, acceptor molecule, acceptor atom, score
      L1  H     3    24       P1  7948  0.94
      L1  H    17    43       P1  7948  1.00
      L1  C    22    47       P1 10186  0.75

> <Gold.PLP.Chemscore.Internal.Correction>
0.2180

> <Gold.Rescore>
     Score         DG    S(hbond)    S(metal)    S(lipo)     H(rot)  DE(clash)    DE(int)     intcor
     16.83     -19.80       2.78        0.00      81.66       1.77       0.14       2.83       ----

> <Gold.Chemscore.Fitness>
16.8323

> <Gold.Chemscore.DG>
-19.7952

> <Gold.Chemscore.ZeroCoef>
-5.4800

> <Gold.Chemscore.Hbond>
2.7799

> <Gold.Chemscore.Metal>
0.0000

> <Gold.Chemscore.Lipo>
81.6576

> <Gold.Chemscore.Internal_Hbond>
0.0000

> <Gold.Chemscore.DEClash>
0.1377

> <Gold.Chemscore.DEInternal>
2.8253

> <Gold.Chemscore.Rot>
1.7671

> <Gold.Chemscore.Internal.Correction>
   9.000000E+99

> <Gold.Chemscore.Hbonds>
donor molecule, donor type, donor heavy atom, donor atom, acceptor molecule, acceptor atom, score
      L1  H     3    24       P1  7948  0.91
      L1  H    17    43       P1  7948  0.93

> <Gold.Chemscore.Hbond.Weighted>
-9.2850

> <Gold.Chemscore.Metal.Weighted>
-0.0000

> <Gold.Chemscore.Lipo.Weighted>
-9.5539

> <Gold.Chemscore.Internal_Hbond.Weighted>
0.0000

> <Gold.Chemscore.DEClash.Weighted>
0.1377

> <Gold.Chemscore.DEInternal.Weighted>
2.8253

> <Gold.Chemscore.Rot.Weighted>
4.5238

> <Gold.Chemscore.Internal.Correction.Weighted>
   9.000000E+99

> <Gold.Protein.RotatedTorsions>
[ 6907 6896 6895 6894 ] final  110.81 input  -60.11 | X-H torsion
[ 7974 7965 7964 7962 ] final   35.70 input  175.53 | X-H torsion
[ 8008 7997 7996 7995 ] final -107.02 input   59.86 | X-H torsion
[ 10167 10162 10161 10158 ] final    7.20 input  -65.29 | X-H torsion
[ 10718 10713 10712 10709 ] final  176.64 input   66.30 | X-H torsion
[ 10763 10752 10751 10750 ] final -178.47 input  -60.55 | X-H torsion
[ 11005 11000 10999 10996 ] final  136.43 input  -57.11 | X-H torsion

> <Gold.Protein.ActiveResidues>
 VAL166  LYS551  ARG553  GLY616  TRP617  ASP618  TYR619  PRO620  LYS621  CYS622 
 ASP623  PHE694  ASN695  SER759  ASP760  ASP761  ALA762  ILE779  LEU786  VAL792 
 PHE793  MET794  SER795  GLU796  ALA797  LYS798  CYS799  TRP800  GLU811  SER814 

> <Gold.Protein.RotatedAtoms>
  152.5001  133.8748  159.7316 H   0  0  0  0  0  0  0  0  0  0  0  0  # atno 6907 bound_to 6896
  150.9225  133.6854  159.2835 H   0  0  0  0  0  0  0  0  0  0  0  0  # atno 6908 bound_to 6896
  151.4226  135.1004  159.9671 H   0  0  0  0  0  0  0  0  0  0  0  0  # atno 6909 bound_to 6896
  146.1264  139.6109  142.9256 H   0  0  0  0  0  0  0  0  0  0  0  0  # atno 7974 bound_to 7965
  154.9232  140.0407  157.2009 H   0  0  0  0  0  0  0  0  0  0  0  0  # atno 8008 bound_to 7997
  154.8233  140.2887  155.5750 H   0  0  0  0  0  0  0  0  0  0  0  0  # atno 8009 bound_to 7997
  156.2981  140.2514  156.3145 H   0  0  0  0  0  0  0  0  0  0  0  0  # atno 8010 bound_to 7997
  140.6385  143.7830  150.7394 H   0  0  0  0  0  0  0  0  0  0  0  0  # atno 10167 bound_to 10162
  156.9172  130.9929  151.3011 H   0  0  0  0  0  0  0  0  0  0  0  0  # atno 10718 bound_to 10713
  154.5473  135.2810  155.1041 H   0  0  0  0  0  0  0  0  0  0  0  0  # atno 10763 bound_to 10752
  154.2500  135.6341  153.5241 H   0  0  0  0  0  0  0  0  0  0  0  0  # atno 10764 bound_to 10752
  152.9994  135.5580  154.6029 H   0  0  0  0  0  0  0  0  0  0  0  0  # atno 10765 bound_to 10752
  140.0045  134.9465  157.0145 H   0  0  0  0  0  0  0  0  0  0  0  0  # atno 11005 bound_to 11000
  145.5356  141.0424  143.2359 LP  0  0  0  0  0  0  0  0  0  0  0  0  # atno 17320 bound_to 7965
  144.7647  139.6874  143.7220 LP  0  0  0  0  0  0  0  0  0  0  0  0  # atno 17321 bound_to 7965
  140.1456  143.4402  152.2165 LP  0  0  0  0  0  0  0  0  0  0  0  0  # atno 17342 bound_to 10162
  139.5595  144.7396  151.4197 LP  0  0  0  0  0  0  0  0  0  0  0  0  # atno 17343 bound_to 10162
  157.5931  130.8458  149.8688 LP  0  0  0  0  0  0  0  0  0  0  0  0  # atno 17370 bound_to 10713
  156.0508  130.3718  150.1206 LP  0  0  0  0  0  0  0  0  0  0  0  0  # atno 17371 bound_to 10713
  140.4666  134.1429  155.7198 LP  0  0  0  0  0  0  0  0  0  0  0  0  # atno 17394 bound_to 11000
  141.1667  133.8689  157.1694 LP  0  0  0  0  0  0  0  0  0  0  0  0  # atno 17395 bound_to 11000

$$$$
