AV-unprocessed.smi:2424|AV-procd|sdf|9568|dock3
  -GOLD-   2272013203D 1   1.00000     0.00000
 Structure written by MMmdl.
 49 50  0  0  0  0  0  0  0  0  2 V2000
  144.2896  134.2550  149.8642 C   0  0  0  0  0  0  0  0  0  0  0  0
  144.5374  135.4119  150.8449 C   0  0  0  0  0  0  0  0  0  0  0  0
  145.1157  135.0037  152.2194 C   0  0  0  0  0  0  0  0  0  0  0  0
  146.2511  133.9684  152.0020 C   0  0  0  0  0  0  0  0  0  0  0  0
  145.7880  132.5130  151.8240 C   0  0  0  0  0  0  0  0  0  0  0  0
  145.4314  136.1913  153.1691 C   0  0  2  0  0  0  0  0  0  0  0  0
  146.8533  136.4980  153.3037 N   0  0  0  0  0  0  0  0  0  0  0  0
  147.4092  137.1557  154.3296 C   0  0  0  0  0  0  0  0  0  0  0  0
  146.7705  137.5582  155.3013 O   0  0  0  0  0  0  0  0  0  0  0  0
  148.7320  137.3038  154.1388 N   0  0  0  0  0  0  0  0  0  0  0  0
  149.6640  137.9650  154.9484 C   0  0  0  0  0  0  0  0  0  0  0  0
  150.5826  138.8298  154.3890 C   0  0  0  0  0  0  0  0  0  0  0  0
  151.5476  139.5520  154.9983 N   0  5  0  0  0  0  0  0  0  0  0  0
  151.6691  139.4479  156.3529 C   0  0  0  0  0  0  0  0  0  0  0  0
  152.5270  140.0724  156.9758 O   0  0  0  0  0  0  0  0  0  0  0  0
  150.7421  138.5614  157.0851 C   0  0  0  0  0  0  0  0  0  0  0  0
  150.8743  138.4551  158.5948 C   0  0  0  0  0  0  0  0  0  0  0  0
  149.7979  137.8671  156.4017 C   0  0  0  0  0  0  0  0  0  0  0  0
  144.9010  135.3730  154.3497 C   0  0  1  0  0  0  0  0  0  0  0  0
  144.2051  136.0747  155.5091 C   0  0  0  0  0  0  0  0  0  0  0  0
  144.0805  134.5937  153.3097 C   0  0  1  0  0  0  0  0  0  0  0  0
  142.7954  135.1827  153.1454 O   0  0  0  0  0  0  0  0  0  0  0  0
  141.7793  134.2299  152.8817 C   0  0  0  0  0  0  0  0  0  0  0  0
  143.9750  134.6408  148.8943 H   0  0  0  0  0  0  0  0  0  0  0  0
  143.5050  133.5835  150.2110 H   0  0  0  0  0  0  0  0  0  0  0  0
  145.1923  133.6681  149.7018 H   0  0  0  0  0  0  0  0  0  0  0  0
  145.2257  136.0973  150.3499 H   0  0  0  0  0  0  0  0  0  0  0  0
  143.6175  135.9830  150.9623 H   0  0  0  0  0  0  0  0  0  0  0  0
  146.8748  134.2482  151.1535 H   0  0  0  0  0  0  0  0  0  0  0  0
  146.9325  133.9819  152.8526 H   0  0  0  0  0  0  0  0  0  0  0  0
  146.6461  131.8413  151.7998 H   0  0  0  0  0  0  0  0  0  0  0  0
  145.2462  132.3701  150.8895 H   0  0  0  0  0  0  0  0  0  0  0  0
  145.1434  132.1910  152.6416 H   0  0  0  0  0  0  0  0  0  0  0  0
  144.7962  137.0588  152.9737 H   0  0  0  0  0  0  0  0  0  0  0  0
  147.4558  136.1998  152.5510 H   0  0  0  0  0  0  0  0  0  0  0  0
  149.1157  136.8921  153.3008 H   0  0  0  0  0  0  0  0  0  0  0  0
  150.5384  138.9572  153.2856 H   0  0  0  0  0  0  0  0  0  0  0  0
  150.1294  137.7779  159.0136 H   0  0  0  0  0  0  0  0  0  0  0  0
  150.7397  139.4323  159.0593 H   0  0  0  0  0  0  0  0  0  0  0  0
  151.8613  138.0783  158.8645 H   0  0  0  0  0  0  0  0  0  0  0  0
  149.1339  137.2368  156.9704 H   0  0  0  0  0  0  0  0  0  0  0  0
  145.6852  134.7171  154.7328 H   0  0  0  0  0  0  0  0  0  0  0  0
  143.4507  136.7793  155.1587 H   0  0  0  0  0  0  0  0  0  0  0  0
  144.9193  136.6355  156.1123 H   0  0  0  0  0  0  0  0  0  0  0  0
  143.7102  135.3573  156.1639 H   0  0  0  0  0  0  0  0  0  0  0  0
  144.0413  133.5275  153.5394 H   0  0  0  0  0  0  0  0  0  0  0  0
  140.8311  134.7419  152.7190 H   0  0  0  0  0  0  0  0  0  0  0  0
  141.6538  133.5512  153.7262 H   0  0  0  0  0  0  0  0  0  0  0  0
  142.0005  133.6394  151.9927 H   0  0  0  0  0  0  0  0  0  0  0  0
  1  2  1  0  0  0  0
  1 24  1  0  0  0  0
  1 25  1  0  0  0  0
  1 26  1  0  0  0  0
  2  3  1  0  0  0  0
  2 27  1  0  0  0  0
  2 28  1  0  0  0  0
  3 21  1  0  0  0  0
  3  4  1  0  0  0  0
  3  6  1  0  0  0  0
  4  5  1  0  0  0  0
  4 29  1  0  0  0  0
  4 30  1  0  0  0  0
  5 31  1  0  0  0  0
  5 32  1  0  0  0  0
  5 33  1  0  0  0  0
  6  7  1  0  0  0  0
  6 19  1  0  0  0  0
  6 34  1  0  0  0  0
  7  8  1  0  0  0  0
  7 35  1  0  0  0  0
  8  9  2  0  0  0  0
  8 10  1  0  0  0  0
 10 11  1  0  0  0  0
 10 36  1  0  0  0  0
 11 18  1  0  0  0  0
 11 12  2  0  0  0  0
 12 13  1  0  0  0  0
 12 37  1  0  0  0  0
 13 14  1  0  0  0  0
 14 15  2  0  0  0  0
 14 16  1  0  0  0  0
 16 17  1  0  0  0  0
 16 18  2  0  0  0  0
 17 38  1  0  0  0  0
 17 39  1  0  0  0  0
 17 40  1  0  0  0  0
 18 41  1  0  0  0  0
 19 20  1  0  0  0  0
 19 21  1  0  0  0  0
 19 42  1  0  0  0  0
 20 43  1  0  0  0  0
 20 44  1  0  0  0  0
 20 45  1  0  0  0  0
 21 22  1  0  0  0  0
 21 46  1  0  0  0  0
 22 23  1  0  0  0  0
 23 47  1  0  0  0  0
 23 48  1  0  0  0  0
 23 49  1  0  0  0  0
M  CHG  1  13  -1
M  END
> <s_m_source_file>
AV-unprocessed.smi

> <i_m_source_file_index>
2424

> <i_lp_mmshare_version>
43012

> <i_f3d_flags>
0

> <s_epik_input>
W0NIM11PW0NAQEhdMVtDQEhdKFtDSDNdKVtDQEBIXShDMShbQ0gyXVtDSDNdKVtDSDJdW0NIM10pW05IXUMoPU8pW05IXWMyW2NIXVtuSF1jKD1PKWMoW0NIM10pW2NIXTI=

> <s_epik_cmdline>
J2VwaWtfcHl0aG9uJywgJy1waCcsICc3LjAnLCAnLXRuJywgJzgnLCAnLW1hJywgJzIwMCcsICctbWV0YWxfYmluZGluZycsICctaW1hZScsICc8aW5maWxlLm1hZT4nLCAnLW9tYWUnLCAnPG91dGZpbGUubWFlPic=

> <r_lp_tautomer_probability>
1

> <r_epik_Ionization_Penalty>
7.6122

> <r_epik_Ionization_Penalty_Charging>
1.53843

> <r_epik_Ionization_Penalty_Neutral>
6.07377

> <r_epik_State_Penalty>
6.07371

> <r_epik_Charging_Adjusted_Penalty>
7.61214

> <i_epik_Tot_Q>
-1

> <i_epik_Tot_abs_Q>
1

> <r_epik_Metal_State_Penalty>
2.02136

> <b_epik_Metal_Only>
1

> <s_lp_Force_Field>
OPLS_2005

> <r_lp_Energy>
41.6495

> <b_lp_Chiralities_Consistent>
1

> <s_lp_Variant>
AV-unprocessed.smi:2424-10

> <Gold.Version>
5.8.1

> <Gold.Id.Protein>
6NUR|6NUR_protein|mol2

> <Gold.PLP.Fitness>
34.2506

> <Gold.PLP.PLP>
-25.8522

> <Gold.PLP.part.hbond>
-3.9451

> <Gold.PLP.part.metal>
0.0000

> <Gold.PLP.part.buried>
-1.3196

> <Gold.PLP.part.nonpolar>
-20.3043

> <Gold.PLP.part.repulsive>
0.2361

> <Gold.PLP.ligand.clash>
0.0000

> <Gold.PLP.ligand.torsion>
1.7449

> <Gold.PLP.Chemscore.Hbond>
3.7260

> <Gold.PLP.Chemscore.CHOScore>
0.0000

> <Gold.PLP.Chemscore.Metal>
0.0000

> <Gold.Chemscore.Hbonds>
donor molecule, donor type, donor heavy atom, donor atom, acceptor molecule, acceptor atom, score
      L1  H     7    35       P1  7948  0.98
      L1  H    10    36       P1  7948  1.00
      P1  H  7989  7998       L1    13  0.65
      P1  H  7997  8009       L1    15  1.00

> <Gold.PLP.Chemscore.Internal.Correction>
0.7103

> <Gold.Rescore>
     Score         DG    S(hbond)    S(metal)    S(lipo)     H(rot)  DE(clash)    DE(int)     intcor
     15.23     -19.33       3.02        0.00      65.26       1.52       0.10       4.00       ----

> <Gold.Chemscore.Fitness>
15.2271

> <Gold.Chemscore.DG>
-19.3252

> <Gold.Chemscore.ZeroCoef>
-5.4800

> <Gold.Chemscore.Hbond>
3.0247

> <Gold.Chemscore.Metal>
0.0000

> <Gold.Chemscore.Lipo>
65.2553

> <Gold.Chemscore.Internal_Hbond>
0.0000

> <Gold.Chemscore.DEClash>
0.0998

> <Gold.Chemscore.DEInternal>
3.9982

> <Gold.Chemscore.Rot>
1.5204

> <Gold.Chemscore.Internal.Correction>
   9.000000E+99

> <Gold.Chemscore.Hbonds>
donor molecule, donor type, donor heavy atom, donor atom, acceptor molecule, acceptor atom, score
      L1  H     7    35       P1  7948  0.93
      L1  H    10    36       P1  7948  0.94
      P1  H  7989  7998       L1    13  0.05
      P1  H  7997  8009       L1    15  0.98

> <Gold.Chemscore.Hbond.Weighted>
-10.1026

> <Gold.Chemscore.Metal.Weighted>
-0.0000

> <Gold.Chemscore.Lipo.Weighted>
-7.6349

> <Gold.Chemscore.Internal_Hbond.Weighted>
0.0000

> <Gold.Chemscore.DEClash.Weighted>
0.0998

> <Gold.Chemscore.DEInternal.Weighted>
3.9982

> <Gold.Chemscore.Rot.Weighted>
3.8922

> <Gold.Chemscore.Internal.Correction.Weighted>
   9.000000E+99

> <Gold.Protein.RotatedTorsions>
[ 6907 6896 6895 6894 ] final   69.16 input  -60.11 | X-H torsion
[ 7974 7965 7964 7962 ] final  153.32 input  175.53 | X-H torsion
[ 8008 7997 7996 7995 ] final -171.27 input   59.86 | X-H torsion
[ 10167 10162 10161 10158 ] final  147.44 input  -65.29 | X-H torsion
[ 10718 10713 10712 10709 ] final   10.06 input   66.30 | X-H torsion
[ 10763 10752 10751 10750 ] final   -1.87 input  -60.55 | X-H torsion
[ 11005 11000 10999 10996 ] final   48.93 input  -57.11 | X-H torsion

> <Gold.Protein.ActiveResidues>
 VAL166  LYS551  ARG553  GLY616  TRP617  ASP618  TYR619  PRO620  LYS621  CYS622 
 ASP623  PHE694  ASN695  SER759  ASP760  ASP761  ALA762  ILE779  LEU786  VAL792 
 PHE793  MET794  SER795  GLU796  ALA797  LYS798  CYS799  TRP800  GLU811  SER814 

> <Gold.Protein.RotatedAtoms>
  152.4668  134.5057  159.9738 H   0  0  0  0  0  0  0  0  0  0  0  0  # atno 6907 bound_to 6896
  151.5093  133.3482  159.2890 H   0  0  0  0  0  0  0  0  0  0  0  0  # atno 6908 bound_to 6896
  150.8656  134.8047  159.7178 H   0  0  0  0  0  0  0  0  0  0  0  0  # atno 6909 bound_to 6896
  144.8163  139.6784  143.6120 H   0  0  0  0  0  0  0  0  0  0  0  0  # atno 7974 bound_to 7965
  155.9293  140.1088  157.1145 H   0  0  0  0  0  0  0  0  0  0  0  0  # atno 8008 bound_to 7997
  154.4068  140.1240  156.4847 H   0  0  0  0  0  0  0  0  0  0  0  0  # atno 8009 bound_to 7997
  155.7099  140.3471  155.4972 H   0  0  0  0  0  0  0  0  0  0  0  0  # atno 8010 bound_to 7997
  139.4890  144.5755  151.6973 H   0  0  0  0  0  0  0  0  0  0  0  0  # atno 10167 bound_to 10162
  156.9755  130.5985  149.5672 H   0  0  0  0  0  0  0  0  0  0  0  0  # atno 10718 bound_to 10713
  153.3506  135.6985  153.6792 H   0  0  0  0  0  0  0  0  0  0  0  0  # atno 10763 bound_to 10752
  153.5520  135.3552  155.2764 H   0  0  0  0  0  0  0  0  0  0  0  0  # atno 10764 bound_to 10752
  154.8652  135.4229  154.2740 H   0  0  0  0  0  0  0  0  0  0  0  0  # atno 10765 bound_to 10752
  140.1147  134.4908  155.8647 H   0  0  0  0  0  0  0  0  0  0  0  0  # atno 11005 bound_to 11000
  146.2466  139.6111  142.9455 LP  0  0  0  0  0  0  0  0  0  0  0  0  # atno 17320 bound_to 7965
  145.5207  141.0432  143.2437 LP  0  0  0  0  0  0  0  0  0  0  0  0  # atno 17321 bound_to 7965
  140.5350  144.0669  150.6067 LP  0  0  0  0  0  0  0  0  0  0  0  0  # atno 17342 bound_to 10162
  140.3673  143.2874  152.0318 LP  0  0  0  0  0  0  0  0  0  0  0  0  # atno 17343 bound_to 10162
  156.0265  130.5359  150.8421 LP  0  0  0  0  0  0  0  0  0  0  0  0  # atno 17370 bound_to 10713
  157.5563  131.0945  150.9624 LP  0  0  0  0  0  0  0  0  0  0  0  0  # atno 17371 bound_to 10713
  141.2138  133.6739  156.6774 LP  0  0  0  0  0  0  0  0  0  0  0  0  # atno 17394 bound_to 11000
  140.3044  134.8138  157.4124 LP  0  0  0  0  0  0  0  0  0  0  0  0  # atno 17395 bound_to 11000

$$$$
