AV-unprocessed.smi:870|AV-procd|sdf|4007|dock5
  -GOLD-   22720 1493D 1   1.00000     0.00000
 Structure written by MMmdl.
 46 48  0  0  0  0  0  0  0  0  1 V2000
  153.7241  138.3143  154.2919 C   0  0  0  0  0  0  0  0  0  0  0  0
  152.4741  137.8267  154.7453 O   0  0  0  0  0  0  0  0  0  0  0  0
  151.4455  138.8000  154.6471 C   0  0  0  0  0  0  0  0  0  0  0  0
  151.6158  139.7887  155.7657 C   0  0  0  0  0  0  0  0  0  0  0  0
  152.4863  139.6175  156.7639 N   0  0  0  0  0  0  0  0  0  0  0  0
  152.3020  140.7509  157.5303 C   0  0  0  0  0  0  0  0  0  0  0  0
  152.9300  141.1628  158.7275 C   0  0  0  0  0  0  0  0  0  0  0  0
  152.5727  142.3833  159.3374 C   0  0  0  0  0  0  0  0  0  0  0  0
  151.5851  143.2076  158.7600 C   0  0  0  0  0  0  0  0  0  0  0  0
  150.9474  142.8156  157.5672 C   0  0  0  0  0  0  0  0  0  0  0  0
  151.3075  141.5960  156.9632 C   0  0  0  0  0  0  0  0  0  0  0  0
  150.8851  140.9316  155.8163 N   0  0  0  0  0  0  0  0  0  0  0  0
  149.8698  141.4023  154.8827 C   0  0  0  0  0  0  0  0  0  0  0  0
  148.4443  141.3192  155.4647 C   0  0  2  0  0  0  0  0  0  0  0  0
  148.0792  139.9602  155.6064 O   0  0  0  0  0  0  0  0  0  0  0  0
  147.4147  142.0124  154.5582 C   0  0  0  0  0  0  0  0  0  0  0  0
  146.2913  142.3884  155.3435 O   0  0  0  0  0  0  0  0  0  0  0  0
  145.5166  143.4494  154.9214 C   0  0  0  0  0  0  0  0  0  0  0  0
  145.4721  143.9075  153.5795 C   0  0  0  0  0  0  0  0  0  0  0  0
  144.6582  144.9993  153.2222 C   0  0  0  0  0  0  0  0  0  0  0  0
  143.8790  145.6474  154.1969 C   0  0  0  0  0  0  0  0  0  0  0  0
  143.9146  145.2023  155.5306 C   0  0  0  0  0  0  0  0  0  0  0  0
  144.7282  144.1085  155.8940 C   0  0  0  0  0  0  0  0  0  0  0  0
  144.7554  143.6423  157.3377 C   0  0  0  0  0  0  0  0  0  0  0  0
  154.4793  137.5349  154.3908 H   0  0  0  0  0  0  0  0  0  0  0  0
  154.0484  139.1741  154.8793 H   0  0  0  0  0  0  0  0  0  0  0  0
  153.6756  138.6055  153.2419 H   0  0  0  0  0  0  0  0  0  0  0  0
  151.5040  139.3228  153.6914 H   0  0  0  0  0  0  0  0  0  0  0  0
  150.4673  138.3241  154.7242 H   0  0  0  0  0  0  0  0  0  0  0  0
  153.6878  140.5382  159.1769 H   0  0  0  0  0  0  0  0  0  0  0  0
  153.0588  142.6883  160.2524 H   0  0  0  0  0  0  0  0  0  0  0  0
  151.3170  144.1407  159.2335 H   0  0  0  0  0  0  0  0  0  0  0  0
  150.1899  143.4439  157.1228 H   0  0  0  0  0  0  0  0  0  0  0  0
  150.1065  142.4369  154.6310 H   0  0  0  0  0  0  0  0  0  0  0  0
  149.9370  140.8442  153.9489 H   0  0  0  0  0  0  0  0  0  0  0  0
  148.4352  141.7889  156.4493 H   0  0  0  0  0  0  0  0  0  0  0  0
  148.0086  139.5765  154.7457 H   0  0  0  0  0  0  0  0  0  0  0  0
  147.8569  142.9176  154.1386 H   0  0  0  0  0  0  0  0  0  0  0  0
  147.1298  141.3636  153.7278 H   0  0  0  0  0  0  0  0  0  0  0  0
  146.0551  143.4386  152.8017 H   0  0  0  0  0  0  0  0  0  0  0  0
  144.6324  145.3399  152.1976 H   0  0  0  0  0  0  0  0  0  0  0  0
  143.2551  146.4852  153.9223 H   0  0  0  0  0  0  0  0  0  0  0  0
  143.3139  145.7057  156.2741 H   0  0  0  0  0  0  0  0  0  0  0  0
  144.0675  144.2186  157.9571 H   0  0  0  0  0  0  0  0  0  0  0  0
  145.7582  143.7527  157.7514 H   0  0  0  0  0  0  0  0  0  0  0  0
  144.4697  142.5922  157.4028 H   0  0  0  0  0  0  0  0  0  0  0  0
  1  2  1  0  0  0  0
  1 25  1  0  0  0  0
  1 26  1  0  0  0  0
  1 27  1  0  0  0  0
  2  3  1  0  0  0  0
  3  4  1  0  0  0  0
  3 28  1  0  0  0  0
  3 29  1  0  0  0  0
  4 12  1  0  0  0  0
  4  5  2  0  0  0  0
  5  6  1  0  0  0  0
  6 11  2  0  0  0  0
  6  7  1  0  0  0  0
  7  8  2  0  0  0  0
  7 30  1  0  0  0  0
  8  9  1  0  0  0  0
  8 31  1  0  0  0  0
  9 10  2  0  0  0  0
  9 32  1  0  0  0  0
 10 11  1  0  0  0  0
 10 33  1  0  0  0  0
 11 12  1  0  0  0  0
 12 13  1  0  0  0  0
 13 14  1  0  0  0  0
 13 34  1  0  0  0  0
 13 35  1  0  0  0  0
 14 15  1  0  0  0  0
 14 16  1  0  0  0  0
 14 36  1  0  0  0  0
 15 37  1  0  0  0  0
 16 17  1  0  0  0  0
 16 38  1  0  0  0  0
 16 39  1  0  0  0  0
 17 18  1  0  0  0  0
 18 23  1  0  0  0  0
 18 19  2  0  0  0  0
 19 20  1  0  0  0  0
 19 40  1  0  0  0  0
 20 21  2  0  0  0  0
 20 41  1  0  0  0  0
 21 22  1  0  0  0  0
 21 42  1  0  0  0  0
 22 23  2  0  0  0  0
 22 43  1  0  0  0  0
 23 24  1  0  0  0  0
 24 44  1  0  0  0  0
 24 45  1  0  0  0  0
 24 46  1  0  0  0  0
M  END
> <s_m_source_file>
AV-unprocessed.smi

> <i_m_source_file_index>
870

> <i_lp_mmshare_version>
43012

> <i_f3d_flags>
0

> <s_epik_input>
W2NIXTFbY0hdW2NIXVtjSF1jKGMxMiluKGMobjIpW0NIMl1PW0NIM10pW0NIMl1bQ0BIXShbT0hdKVtDSDJdT2MzW2NIXVtjSF1bY0hdW2NIXWMzW0NIM10=

> <s_epik_cmdline>
J2VwaWtfcHl0aG9uJywgJy1waCcsICc3LjAnLCAnLXRuJywgJzgnLCAnLW1hJywgJzIwMCcsICctbWV0YWxfYmluZGluZycsICctaW1hZScsICc8aW5maWxlLm1hZT4nLCAnLW9tYWUnLCAnPG91dGZpbGUubWFlPic=

> <r_lp_tautomer_probability>
1

> <r_epik_Ionization_Penalty>
0.0447032

> <r_epik_Ionization_Penalty_Charging>
0

> <r_epik_Ionization_Penalty_Neutral>
0.0447032

> <r_epik_State_Penalty>
0.0379025

> <r_epik_Charging_Adjusted_Penalty>
0.0379025

> <i_epik_Tot_Q>
0

> <i_epik_Tot_abs_Q>
0

> <r_epik_Metal_State_Penalty>
3.91398e-05

> <b_epik_Metal_Only>
0

> <s_lp_Force_Field>
OPLS_2005

> <r_lp_Energy>
17.6925

> <b_lp_Chiralities_Consistent>
1

> <s_lp_Variant>
AV-unprocessed.smi:870-1

> <Gold.Version>
5.8.1

> <Gold.Id.Protein>
6NUR|6NUR_protein|mol2

> <Gold.PLP.Fitness>
51.1195

> <Gold.PLP.PLP>
-49.8341

> <Gold.PLP.part.hbond>
-2.0000

> <Gold.PLP.part.metal>
0.0000

> <Gold.PLP.part.buried>
-3.1169

> <Gold.PLP.part.nonpolar>
-44.4418

> <Gold.PLP.part.repulsive>
0.2069

> <Gold.PLP.ligand.clash>
0.0000

> <Gold.PLP.ligand.torsion>
1.0020

> <Gold.PLP.Chemscore.Hbond>
1.0429

> <Gold.PLP.Chemscore.CHOScore>
0.0000

> <Gold.PLP.Chemscore.Metal>
0.0000

> <Gold.Chemscore.Hbonds>
donor molecule, donor type, donor heavy atom, donor atom, acceptor molecule, acceptor atom, score
      P1  H  7997  8010       L1     5  0.60
      P1  H 10752 10764       L1     2  0.18

> <Gold.PLP.Chemscore.Internal.Correction>
0.1606

> <Gold.Rescore>
     Score         DG    S(hbond)    S(metal)    S(lipo)     H(rot)  DE(clash)    DE(int)     intcor
     13.32     -14.72       0.09        0.00     128.12       2.36       0.29       1.11       ----

> <Gold.Chemscore.Fitness>
13.3156

> <Gold.Chemscore.DG>
-14.7158

> <Gold.Chemscore.ZeroCoef>
-5.4800

> <Gold.Chemscore.Hbond>
0.0850

> <Gold.Chemscore.Metal>
0.0000

> <Gold.Chemscore.Lipo>
128.1157

> <Gold.Chemscore.Internal_Hbond>
0.0000

> <Gold.Chemscore.DEClash>
0.2916

> <Gold.Chemscore.DEInternal>
1.1086

> <Gold.Chemscore.Rot>
2.3585

> <Gold.Chemscore.Internal.Correction>
   9.000000E+99

> <Gold.Chemscore.Hbonds>
donor molecule, donor type, donor heavy atom, donor atom, acceptor molecule, acceptor atom, score
      P1  H  7997  8010       L1     5  0.03
      P1  H 10752 10764       L1     2  0.03

> <Gold.Chemscore.Hbond.Weighted>
-0.2840

> <Gold.Chemscore.Metal.Weighted>
-0.0000

> <Gold.Chemscore.Lipo.Weighted>
-14.9895

> <Gold.Chemscore.Internal_Hbond.Weighted>
0.0000

> <Gold.Chemscore.DEClash.Weighted>
0.2916

> <Gold.Chemscore.DEInternal.Weighted>
1.1086

> <Gold.Chemscore.Rot.Weighted>
6.0378

> <Gold.Chemscore.Internal.Correction.Weighted>
   9.000000E+99

> <Gold.Protein.RotatedTorsions>
[ 6907 6896 6895 6894 ] final  -19.18 input  -60.11 | X-H torsion
[ 7974 7965 7964 7962 ] final   -3.07 input  175.53 | X-H torsion
[ 8008 7997 7996 7995 ] final   81.86 input   59.86 | X-H torsion
[ 10167 10162 10161 10158 ] final  114.65 input  -65.29 | X-H torsion
[ 10718 10713 10712 10709 ] final  151.54 input   66.30 | X-H torsion
[ 10763 10752 10751 10750 ] final  -59.20 input  -60.55 | X-H torsion
[ 11005 11000 10999 10996 ] final  -65.51 input  -57.11 | X-H torsion

> <Gold.Protein.ActiveResidues>
 VAL166  LYS551  ARG553  GLY616  TRP617  ASP618  TYR619  PRO620  LYS621  CYS622 
 ASP623  PHE694  ASN695  SER759  ASP760  ASP761  ALA762  ILE779  LEU786  VAL792 
 PHE793  MET794  SER795  GLU796  ALA797  LYS798  CYS799  TRP800  GLU811  SER814 

> <Gold.Protein.RotatedAtoms>
  151.2670  135.0672  159.9119 H   0  0  0  0  0  0  0  0  0  0  0  0  # atno 6907 bound_to 6896
  152.5357  134.0170  159.7975 H   0  0  0  0  0  0  0  0  0  0  0  0  # atno 6908 bound_to 6896
  151.0402  133.5663  159.2683 H   0  0  0  0  0  0  0  0  0  0  0  0  # atno 6909 bound_to 6896
  146.2395  140.1665  142.8332 H   0  0  0  0  0  0  0  0  0  0  0  0  # atno 7974 bound_to 7965
  155.9028  140.3432  155.6039 H   0  0  0  0  0  0  0  0  0  0  0  0  # atno 8008 bound_to 7997
  155.7480  140.0816  157.2233 H   0  0  0  0  0  0  0  0  0  0  0  0  # atno 8009 bound_to 7997
  154.4046  140.1558  156.2678 H   0  0  0  0  0  0  0  0  0  0  0  0  # atno 8010 bound_to 7997
  139.6373  144.7121  151.2308 H   0  0  0  0  0  0  0  0  0  0  0  0  # atno 10167 bound_to 10162
  157.2693  131.0814  151.1611 H   0  0  0  0  0  0  0  0  0  0  0  0  # atno 10718 bound_to 10713
  154.2500  135.6327  153.5237 H   0  0  0  0  0  0  0  0  0  0  0  0  # atno 10763 bound_to 10752
  152.9914  135.5562  154.5817 H   0  0  0  0  0  0  0  0  0  0  0  0  # atno 10764 bound_to 10752
  154.5343  135.2890  155.1127 H   0  0  0  0  0  0  0  0  0  0  0  0  # atno 10765 bound_to 10752
  141.1456  133.6683  156.5998 H   0  0  0  0  0  0  0  0  0  0  0  0  # atno 11005 bound_to 11000
  145.0046  140.8662  143.5261 LP  0  0  0  0  0  0  0  0  0  0  0  0  # atno 17320 bound_to 7965
  145.1690  139.2415  143.5352 LP  0  0  0  0  0  0  0  0  0  0  0  0  # atno 17321 bound_to 7965
  140.7472  143.6373  150.8367 LP  0  0  0  0  0  0  0  0  0  0  0  0  # atno 17342 bound_to 10162
  140.0006  143.5749  152.2877 LP  0  0  0  0  0  0  0  0  0  0  0  0  # atno 17343 bound_to 10162
  157.3089  130.6880  149.6204 LP  0  0  0  0  0  0  0  0  0  0  0  0  # atno 17370 bound_to 10713
  155.9663  130.4369  150.5155 LP  0  0  0  0  0  0  0  0  0  0  0  0  # atno 17371 bound_to 10713
  140.3698  134.7616  157.4590 LP  0  0  0  0  0  0  0  0  0  0  0  0  # atno 17394 bound_to 11000
  140.0720  134.5850  155.8632 LP  0  0  0  0  0  0  0  0  0  0  0  0  # atno 17395 bound_to 11000

$$$$
