AV-unprocessed.smi:1897|AV-procd|sdf|7684|dock2
  -GOLD-   22720 9423D 1   1.00000     0.00000
 Structure written by MMmdl.
 39 41  0  0  0  0  0  0  0  0  2 V2000
  152.6297  137.5816  158.6572 C   0  0  0  0  0  0  0  0  0  0  0  0
  152.0583  137.1506  157.3497 C   0  0  0  0  0  0  0  0  0  0  0  0
  152.6336  137.4446  156.1778 N   0  0  0  0  0  0  0  0  0  0  0  0
  151.9212  136.9372  155.1009 N   0  0  0  0  0  0  0  0  0  0  0  0
  150.8294  136.2635  155.4910 C   0  0  0  0  0  0  0  0  0  0  0  0
  149.9009  135.6420  154.6049 N   0  0  0  0  0  0  0  0  0  0  0  0
  149.2108  134.4849  154.6953 C   0  0  0  0  0  0  0  0  0  0  0  0
  149.3292  133.7514  155.6752 O   0  0  0  0  0  0  0  0  0  0  0  0
  148.4043  134.1890  153.6628 N   0  0  0  0  0  0  0  0  0  0  0  0
  147.5629  133.0021  153.5523 C   0  0  2  0  0  0  0  0  0  0  0  0
  148.3301  131.7047  153.7777 C   0  0  0  0  0  0  0  0  0  0  0  0
  147.4086  130.6691  153.1314 C   0  0  0  0  0  0  0  0  0  0  0  0
  146.7693  131.3531  151.9839 N   0  3  1  0  0  0  0  0  0  0  0  0
  145.3709  130.9358  151.7178 C   0  0  0  0  0  0  0  0  0  0  0  0
  144.8006  131.6882  150.5010 C   0  0  0  0  0  0  0  0  0  0  0  0
  145.0054  133.2156  150.5831 C   0  0  0  0  0  0  0  0  0  0  0  0
  145.7004  133.6453  151.8844 C   0  0  0  0  0  0  0  0  0  0  0  0
  146.9824  132.8203  152.1397 C   0  0  1  0  0  0  0  0  0  0  0  0
  150.5758  136.2111  157.2277 S   0  0  0  0  0  0  0  0  0  0  0  0
  153.0857  138.5679  158.5654 H   0  0  0  0  0  0  0  0  0  0  0  0
  153.3898  136.8717  158.9835 H   0  0  0  0  0  0  0  0  0  0  0  0
  151.8472  137.6298  159.4147 H   0  0  0  0  0  0  0  0  0  0  0  0
  149.7521  136.1470  153.7430 H   0  0  0  0  0  0  0  0  0  0  0  0
  148.3689  134.8453  152.8953 H   0  0  0  0  0  0  0  0  0  0  0  0
  146.7531  133.0412  154.2841 H   0  0  0  0  0  0  0  0  0  0  0  0
  149.2880  131.7303  153.2553 H   0  0  0  0  0  0  0  0  0  0  0  0
  148.5227  131.5009  154.8315 H   0  0  0  0  0  0  0  0  0  0  0  0
  147.9436  129.7735  152.8143 H   0  0  0  0  0  0  0  0  0  0  0  0
  146.6491  130.3649  153.8536 H   0  0  0  0  0  0  0  0  0  0  0  0
  145.3401  129.8603  151.5400 H   0  0  0  0  0  0  0  0  0  0  0  0
  144.7554  131.1255  152.5988 H   0  0  0  0  0  0  0  0  0  0  0  0
  145.2755  131.3152  149.5926 H   0  0  0  0  0  0  0  0  0  0  0  0
  143.7389  131.4604  150.3985 H   0  0  0  0  0  0  0  0  0  0  0  0
  145.6069  133.5413  149.7335 H   0  0  0  0  0  0  0  0  0  0  0  0
  144.0478  133.7290  150.4884 H   0  0  0  0  0  0  0  0  0  0  0  0
  145.9396  134.7081  151.8415 H   0  0  0  0  0  0  0  0  0  0  0  0
  145.0064  133.5270  152.7178 H   0  0  0  0  0  0  0  0  0  0  0  0
  147.7356  133.0948  151.3992 H   0  0  0  0  0  0  0  0  0  0  0  0
  147.3005  131.0934  151.1649 H   0  0  0  0  0  0  0  0  0  0  0  0
  1  2  1  0  0  0  0
  1 20  1  0  0  0  0
  1 21  1  0  0  0  0
  1 22  1  0  0  0  0
  2 19  1  0  0  0  0
  2  3  2  0  0  0  0
  3  4  1  0  0  0  0
  4  5  2  0  0  0  0
  5  6  1  0  0  0  0
  5 19  1  0  0  0  0
  6  7  1  0  0  0  0
  6 23  1  0  0  0  0
  7  8  2  0  0  0  0
  7  9  1  0  0  0  0
  9 10  1  0  0  0  0
  9 24  1  0  0  0  0
 10 18  1  0  0  0  0
 10 11  1  0  0  0  0
 10 25  1  0  0  0  0
 11 12  1  0  0  0  0
 11 26  1  0  0  0  0
 11 27  1  0  0  0  0
 12 13  1  0  0  0  0
 12 28  1  0  0  0  0
 12 29  1  0  0  0  0
 13 18  1  0  0  0  0
 13 14  1  0  0  0  0
 13 39  1  0  0  0  0
 14 15  1  0  0  0  0
 14 30  1  0  0  0  0
 14 31  1  0  0  0  0
 15 16  1  0  0  0  0
 15 32  1  0  0  0  0
 15 33  1  0  0  0  0
 16 17  1  0  0  0  0
 16 34  1  0  0  0  0
 16 35  1  0  0  0  0
 17 18  1  0  0  0  0
 17 36  1  0  0  0  0
 17 37  1  0  0  0  0
 18 38  1  0  0  0  0
M  CHG  1  13   1
M  END
> <s_m_source_file>
AV-unprocessed.smi

> <i_m_source_file_index>
1897

> <i_lp_mmshare_version>
43012

> <i_f3d_flags>
0

> <s_epik_input>
W0NIM11jMW5uYyhzMSlbTkhdQyg9TylbTkhdW0NASF0oW0NIMl1bQ0gyXTIpW0NAQEhdKE4yMylbQ0gyXVtDSDJdW0NIMl1bQ0gyXTM=

> <s_epik_cmdline>
J2VwaWtfcHl0aG9uJywgJy1waCcsICc3LjAnLCAnLXRuJywgJzgnLCAnLW1hJywgJzIwMCcsICctbWV0YWxfYmluZGluZycsICctaW1hZScsICc8aW5maWxlLm1hZT4nLCAnLW9tYWUnLCAnPG91dGZpbGUubWFlPic=

> <r_lp_tautomer_probability>
1

> <r_epik_Ionization_Penalty>
0.00228891

> <r_epik_Ionization_Penalty_Charging>
0.00107044

> <r_epik_Ionization_Penalty_Neutral>
0.00121847

> <r_epik_State_Penalty>
-0

> <r_epik_Charging_Adjusted_Penalty>
0.00107044

> <i_epik_Tot_Q>
1

> <i_epik_Tot_abs_Q>
1

> <r_epik_Metal_State_Penalty>
0.304057

> <b_epik_Metal_Only>
0

> <s_lp_Force_Field>
OPLS_2005

> <r_lp_Energy>
41.04

> <b_lp_Chiralities_Consistent>
1

> <s_lp_Variant>
AV-unprocessed.smi:1897-1

> <Gold.Version>
5.8.1

> <Gold.Id.Protein>
6NUR|6NUR_protein|mol2

> <Gold.PLP.Fitness>
40.2683

> <Gold.PLP.PLP>
-29.0069

> <Gold.PLP.part.hbond>
-4.9493

> <Gold.PLP.part.metal>
0.0000

> <Gold.PLP.part.buried>
-5.2703

> <Gold.PLP.part.nonpolar>
-20.1304

> <Gold.PLP.part.repulsive>
0.1730

> <Gold.PLP.ligand.clash>
0.0000

> <Gold.PLP.ligand.torsion>
0.3732

> <Gold.PLP.Chemscore.Hbond>
4.0000

> <Gold.PLP.Chemscore.CHOScore>
0.0000

> <Gold.PLP.Chemscore.Metal>
0.0000

> <Gold.Chemscore.Hbonds>
donor molecule, donor type, donor heavy atom, donor atom, acceptor molecule, acceptor atom, score
      L1  H     6    23       P1  7948  0.99
      L1  H     9    24       P1  7948  1.00
      L1  H    13    39       P1 10747  1.00
      P1  H 10752 10763       L1     4  1.00

> <Gold.PLP.Chemscore.Internal.Correction>
0.0080

> <Gold.Rescore>
     Score         DG    S(hbond)    S(metal)    S(lipo)     H(rot)  DE(clash)    DE(int)     intcor
     19.59     -21.22       3.17        0.00      65.98       1.00       0.05       1.59       ----

> <Gold.Chemscore.Fitness>
19.5867

> <Gold.Chemscore.DG>
-21.2191

> <Gold.Chemscore.ZeroCoef>
-5.4800

> <Gold.Chemscore.Hbond>
3.1675

> <Gold.Chemscore.Metal>
0.0000

> <Gold.Chemscore.Lipo>
65.9815

> <Gold.Chemscore.Internal_Hbond>
0.0000

> <Gold.Chemscore.DEClash>
0.0460

> <Gold.Chemscore.DEInternal>
1.5864

> <Gold.Chemscore.Rot>
1.0000

> <Gold.Chemscore.Internal.Correction>
   9.000000E+99

> <Gold.Chemscore.Hbonds>
donor molecule, donor type, donor heavy atom, donor atom, acceptor molecule, acceptor atom, score
      L1  H     6    23       P1  7948  0.27
      L1  H     9    24       P1  7948  0.59
      L1  H    13    39       P1 10747  0.95
      P1  H 10752 10763       L1     4  0.10

> <Gold.Chemscore.Hbond.Weighted>
-10.5793

> <Gold.Chemscore.Metal.Weighted>
-0.0000

> <Gold.Chemscore.Lipo.Weighted>
-7.7198

> <Gold.Chemscore.Internal_Hbond.Weighted>
0.0000

> <Gold.Chemscore.DEClash.Weighted>
0.0460

> <Gold.Chemscore.DEInternal.Weighted>
1.5864

> <Gold.Chemscore.Rot.Weighted>
2.5600

> <Gold.Chemscore.Internal.Correction.Weighted>
   9.000000E+99

> <Gold.Protein.RotatedTorsions>
[ 6907 6896 6895 6894 ] final  -11.09 input  -60.11 | X-H torsion
[ 7974 7965 7964 7962 ] final  -86.96 input  175.53 | X-H torsion
[ 8008 7997 7996 7995 ] final   40.37 input   59.86 | X-H torsion
[ 10167 10162 10161 10158 ] final -113.87 input  -65.29 | X-H torsion
[ 10718 10713 10712 10709 ] final  117.57 input   66.30 | X-H torsion
[ 10763 10752 10751 10750 ] final   58.58 input  -60.55 | X-H torsion
[ 11005 11000 10999 10996 ] final  -79.13 input  -57.11 | X-H torsion

> <Gold.Protein.ActiveResidues>
 VAL166  LYS551  ARG553  GLY616  TRP617  ASP618  TYR619  PRO620  LYS621  CYS622 
 ASP623  PHE694  ASN695  SER759  ASP760  ASP761  ALA762  ILE779  LEU786  VAL792 
 PHE793  MET794  SER795  GLU796  ALA797  LYS798  CYS799  TRP800  GLU811  SER814 

> <Gold.Protein.RotatedAtoms>
  151.3917  135.0957  159.9527 H   0  0  0  0  0  0  0  0  0  0  0  0  # atno 6907 bound_to 6896
  152.5078  133.8973  159.7434 H   0  0  0  0  0  0  0  0  0  0  0  0  # atno 6908 bound_to 6896
  150.9428  133.6581  159.2816 H   0  0  0  0  0  0  0  0  0  0  0  0  # atno 6909 bound_to 6896
  145.4729  140.9559  143.1907 H   0  0  0  0  0  0  0  0  0  0  0  0  # atno 7974 bound_to 7965
  155.2520  140.3353  155.4281 H   0  0  0  0  0  0  0  0  0  0  0  0  # atno 8008 bound_to 7997
  156.2211  140.1809  156.7517 H   0  0  0  0  0  0  0  0  0  0  0  0  # atno 8009 bound_to 7997
  154.5827  140.0651  156.9112 H   0  0  0  0  0  0  0  0  0  0  0  0  # atno 8010 bound_to 7997
  140.1071  143.4561  152.1776 H   0  0  0  0  0  0  0  0  0  0  0  0  # atno 10167 bound_to 10162
  157.6088  131.1038  150.7633 H   0  0  0  0  0  0  0  0  0  0  0  0  # atno 10718 bound_to 10713
  152.9874  135.5602  154.5575 H   0  0  0  0  0  0  0  0  0  0  0  0  # atno 10763 bound_to 10752
  154.5000  135.2797  155.1430 H   0  0  0  0  0  0  0  0  0  0  0  0  # atno 10764 bound_to 10752
  154.2865  135.6334  153.5421 H   0  0  0  0  0  0  0  0  0  0  0  0  # atno 10765 bound_to 10752
  141.1666  133.7093  156.8076 H   0  0  0  0  0  0  0  0  0  0  0  0  # atno 11005 bound_to 11000
  144.7934  139.6282  143.7103 LP  0  0  0  0  0  0  0  0  0  0  0  0  # atno 17320 bound_to 7965
  146.2386  139.5956  142.9507 LP  0  0  0  0  0  0  0  0  0  0  0  0  # atno 17321 bound_to 7965
  139.5639  144.7423  151.4076 LP  0  0  0  0  0  0  0  0  0  0  0  0  # atno 17342 bound_to 10162
  140.6946  143.7780  150.7307 LP  0  0  0  0  0  0  0  0  0  0  0  0  # atno 17343 bound_to 10162
  156.8015  130.4923  149.5369 LP  0  0  0  0  0  0  0  0  0  0  0  0  # atno 17370 bound_to 10713
  156.1183  130.6091  151.0155 LP  0  0  0  0  0  0  0  0  0  0  0  0  # atno 17371 bound_to 10713
  140.2211  134.8756  157.3377 LP  0  0  0  0  0  0  0  0  0  0  0  0  # atno 17394 bound_to 11000
  140.1987  134.4281  155.7674 LP  0  0  0  0  0  0  0  0  0  0  0  0  # atno 17395 bound_to 11000

$$$$
