AV-unprocessed.smi:1593|AV-procd|sdf|6409|dock9
  -GOLD-   22720 7 43D 1   1.00000     0.00000
 Structure written by MMmdl.
 36 37  0  0  0  0  0  0  0  0  1 V2000
  150.6232  141.7445  156.2427 C   0  0  0  0  0  0  0  0  0  0  0  0
  150.1755  140.6231  155.3691 C   0  0  0  0  0  0  0  0  0  0  0  0
  148.9423  140.1272  155.0529 C   0  0  0  0  0  0  0  0  0  0  0  0
  149.2477  139.0514  154.1689 C   0  0  0  0  0  0  0  0  0  0  0  0
  148.3135  138.1869  153.5420 N   0  0  0  0  0  0  0  0  0  0  0  0
  146.9715  138.2459  153.5705 C   0  0  0  0  0  0  0  0  0  0  0  0
  146.3088  139.1060  154.1502 O   0  0  0  0  0  0  0  0  0  0  0  0
  146.4284  137.2339  152.8780 N   0  0  0  0  0  0  0  0  0  0  0  0
  144.9984  136.9778  152.7374 C   0  0  0  0  0  0  0  0  0  0  0  0
  144.7143  135.9534  151.6216 C   0  0  0  0  0  0  0  0  0  0  0  0
  145.1235  134.5780  151.9066 N   0  0  0  0  0  0  0  0  0  0  0  0
  146.5186  134.3561  151.5441 C   0  0  0  0  0  0  0  0  0  0  0  0
  146.9683  132.9171  151.8512 C   0  0  0  0  0  0  0  0  0  0  0  0
  146.1177  131.9962  151.1754 O   0  0  0  0  0  0  0  0  0  0  0  0
  144.7476  132.1519  151.5312 C   0  0  0  0  0  0  0  0  0  0  0  0
  144.2938  133.5888  151.2220 C   0  0  0  0  0  0  0  0  0  0  0  0
  150.5453  138.9099  153.9696 N   0  0  0  0  0  0  0  0  0  0  0  0
  151.1483  139.9142  154.7360 O   0  0  0  0  0  0  0  0  0  0  0  0
  149.8053  142.4399  156.4325 H   0  0  0  0  0  0  0  0  0  0  0  0
  151.4366  142.3001  155.7756 H   0  0  0  0  0  0  0  0  0  0  0  0
  150.9763  141.3674  157.2025 H   0  0  0  0  0  0  0  0  0  0  0  0
  147.9886  140.4875  155.4073 H   0  0  0  0  0  0  0  0  0  0  0  0
  148.7178  137.4265  153.0156 H   0  0  0  0  0  0  0  0  0  0  0  0
  147.0513  136.5763  152.4323 H   0  0  0  0  0  0  0  0  0  0  0  0
  144.5487  136.6823  153.6859 H   0  0  0  0  0  0  0  0  0  0  0  0
  144.5268  137.9243  152.4732 H   0  0  0  0  0  0  0  0  0  0  0  0
  143.6496  135.9718  151.3836 H   0  0  0  0  0  0  0  0  0  0  0  0
  145.2236  136.2969  150.7199 H   0  0  0  0  0  0  0  0  0  0  0  0
  146.6624  134.5601  150.4818 H   0  0  0  0  0  0  0  0  0  0  0  0
  147.1574  135.0546  152.0856 H   0  0  0  0  0  0  0  0  0  0  0  0
  147.9955  132.7620  151.5214 H   0  0  0  0  0  0  0  0  0  0  0  0
  146.9429  132.7254  152.9250 H   0  0  0  0  0  0  0  0  0  0  0  0
  144.1488  131.4353  150.9688 H   0  0  0  0  0  0  0  0  0  0  0  0
  144.6105  131.9241  152.5895 H   0  0  0  0  0  0  0  0  0  0  0  0
  143.2513  133.6943  151.5178 H   0  0  0  0  0  0  0  0  0  0  0  0
  144.3313  133.7556  150.1445 H   0  0  0  0  0  0  0  0  0  0  0  0
  1  2  1  0  0  0  0
  1 19  1  0  0  0  0
  1 20  1  0  0  0  0
  1 21  1  0  0  0  0
  2 18  1  0  0  0  0
  2  3  2  0  0  0  0
  3  4  1  0  0  0  0
  3 22  1  0  0  0  0
  4  5  1  0  0  0  0
  4 17  2  0  0  0  0
  5  6  1  0  0  0  0
  5 23  1  0  0  0  0
  6  7  2  0  0  0  0
  6  8  1  0  0  0  0
  8  9  1  0  0  0  0
  8 24  1  0  0  0  0
  9 10  1  0  0  0  0
  9 25  1  0  0  0  0
  9 26  1  0  0  0  0
 10 11  1  0  0  0  0
 10 27  1  0  0  0  0
 10 28  1  0  0  0  0
 11 16  1  0  0  0  0
 11 12  1  0  0  0  0
 12 13  1  0  0  0  0
 12 29  1  0  0  0  0
 12 30  1  0  0  0  0
 13 14  1  0  0  0  0
 13 31  1  0  0  0  0
 13 32  1  0  0  0  0
 14 15  1  0  0  0  0
 15 16  1  0  0  0  0
 15 33  1  0  0  0  0
 15 34  1  0  0  0  0
 16 35  1  0  0  0  0
 16 36  1  0  0  0  0
 17 18  1  0  0  0  0
M  END
> <s_m_source_file>
AV-unprocessed.smi

> <i_m_source_file_index>
1593

> <i_lp_mmshare_version>
43012

> <i_f3d_flags>
0

> <s_epik_input>
W0NIM11jMVtjSF1jKG5vMSlbTkhdQyg9TylbTkhdW0NIMl1bQ0gyXU4yW0NIMl1bQ0gyXU9bQ0gyXVtDSDJdMg==

> <s_epik_cmdline>
J2VwaWtfcHl0aG9uJywgJy1waCcsICc3LjAnLCAnLXRuJywgJzgnLCAnLW1hJywgJzIwMCcsICctbWV0YWxfYmluZGluZycsICctaW1hZScsICc8aW5maWxlLm1hZT4nLCAnLW9tYWUnLCAnPG91dGZpbGUubWFlPic=

> <r_epik_Ionization_Penalty>
0.214073

> <r_epik_Ionization_Penalty_Charging>
0

> <r_epik_Ionization_Penalty_Neutral>
0.214073

> <r_epik_State_Penalty>
0.204211

> <r_epik_Charging_Adjusted_Penalty>
0.204211

> <i_epik_Tot_Q>
0

> <i_epik_Tot_abs_Q>
0

> <r_epik_Metal_State_Penalty>
0.217151

> <b_epik_Metal_Only>
0

> <s_lp_Force_Field>
OPLS_2005

> <r_lp_Energy>
24.5673

> <b_lp_Chiralities_Consistent>
1

> <s_lp_Variant>
AV-unprocessed.smi:1593-1

> <Gold.Version>
5.8.1

> <Gold.Id.Protein>
6NUR|6NUR_protein|mol2

> <Gold.PLP.Fitness>
34.5179

> <Gold.PLP.PLP>
-26.8024

> <Gold.PLP.part.hbond>
-3.3524

> <Gold.PLP.part.metal>
0.0000

> <Gold.PLP.part.buried>
-2.9990

> <Gold.PLP.part.nonpolar>
-21.0003

> <Gold.PLP.part.repulsive>
0.7300

> <Gold.PLP.ligand.clash>
0.0000

> <Gold.PLP.ligand.torsion>
0.4415

> <Gold.PLP.Chemscore.Hbond>
2.8640

> <Gold.PLP.Chemscore.CHOScore>
0.0000

> <Gold.PLP.Chemscore.Metal>
0.0000

> <Gold.Chemscore.Hbonds>
donor molecule, donor type, donor heavy atom, donor atom, acceptor molecule, acceptor atom, score
      L1  H     5    23       P1  7948  1.00
      L1  H     8    24       P1  7948  0.91
      P1  H  7989  7998       L1    18  0.90

> <Gold.PLP.Chemscore.Internal.Correction>
0.0065

> <Gold.Rescore>
     Score         DG    S(hbond)    S(metal)    S(lipo)     H(rot)  DE(clash)    DE(int)     intcor
     12.44     -14.16       1.91        0.00      54.78       1.60       0.14       1.58       ----

> <Gold.Chemscore.Fitness>
12.4442

> <Gold.Chemscore.DG>
-14.1575

> <Gold.Chemscore.ZeroCoef>
-5.4800

> <Gold.Chemscore.Hbond>
1.9070

> <Gold.Chemscore.Metal>
0.0000

> <Gold.Chemscore.Lipo>
54.7796

> <Gold.Chemscore.Internal_Hbond>
0.0000

> <Gold.Chemscore.DEClash>
0.1367

> <Gold.Chemscore.DEInternal>
1.5766

> <Gold.Chemscore.Rot>
1.6019

> <Gold.Chemscore.Internal.Correction>
   9.000000E+99

> <Gold.Chemscore.Hbonds>
donor molecule, donor type, donor heavy atom, donor atom, acceptor molecule, acceptor atom, score
      L1  H     5    23       P1  7948  1.00
      L1  H     8    24       P1  7948  0.86
      P1  H  7989  7998       L1    18  0.09

> <Gold.Chemscore.Hbond.Weighted>
-6.3692

> <Gold.Chemscore.Metal.Weighted>
-0.0000

> <Gold.Chemscore.Lipo.Weighted>
-6.4092

> <Gold.Chemscore.Internal_Hbond.Weighted>
0.0000

> <Gold.Chemscore.DEClash.Weighted>
0.1367

> <Gold.Chemscore.DEInternal.Weighted>
1.5766

> <Gold.Chemscore.Rot.Weighted>
4.1009

> <Gold.Chemscore.Internal.Correction.Weighted>
   9.000000E+99

> <Gold.Protein.RotatedTorsions>
[ 6907 6896 6895 6894 ] final  178.40 input  -60.11 | X-H torsion
[ 7974 7965 7964 7962 ] final -127.19 input  175.53 | X-H torsion
[ 8008 7997 7996 7995 ] final -174.56 input   59.86 | X-H torsion
[ 10167 10162 10161 10158 ] final  -26.94 input  -65.29 | X-H torsion
[ 10718 10713 10712 10709 ] final -129.77 input   66.30 | X-H torsion
[ 10763 10752 10751 10750 ] final  111.34 input  -60.55 | X-H torsion
[ 11005 11000 10999 10996 ] final -144.84 input  -57.11 | X-H torsion

> <Gold.Protein.ActiveResidues>
 VAL166  LYS551  ARG553  GLY616  TRP617  ASP618  TYR619  PRO620  LYS621  CYS622 
 ASP623  PHE694  ASN695  SER759  ASP760  ASP761  ALA762  ILE779  LEU786  VAL792 
 PHE793  MET794  SER795  GLU796  ALA797  LYS798  CYS799  TRP800  GLU811  SER814 

> <Gold.Protein.RotatedAtoms>
  151.6884  133.3311  159.3236 H   0  0  0  0  0  0  0  0  0  0  0  0  # atno 6907 bound_to 6896
  150.7790  134.6720  159.6406 H   0  0  0  0  0  0  0  0  0  0  0  0  # atno 6908 bound_to 6896
  152.3842  134.6547  160.0184 H   0  0  0  0  0  0  0  0  0  0  0  0  # atno 6909 bound_to 6896
  144.9796  140.7627  143.4620 H   0  0  0  0  0  0  0  0  0  0  0  0  # atno 7974 bound_to 7965
  155.9716  140.1164  157.0807 H   0  0  0  0  0  0  0  0  0  0  0  0  # atno 8008 bound_to 7997
  154.4158  140.1162  156.5381 H   0  0  0  0  0  0  0  0  0  0  0  0  # atno 8009 bound_to 7997
  155.6589  140.3473  155.4777 H   0  0  0  0  0  0  0  0  0  0  0  0  # atno 8010 bound_to 7997
  140.7280  143.4135  151.1067 H   0  0  0  0  0  0  0  0  0  0  0  0  # atno 10167 bound_to 10162
  156.2079  130.6899  151.0615 H   0  0  0  0  0  0  0  0  0  0  0  0  # atno 10718 bound_to 10713
  153.4619  135.3720  155.2343 H   0  0  0  0  0  0  0  0  0  0  0  0  # atno 10763 bound_to 10752
  154.8757  135.3910  154.3915 H   0  0  0  0  0  0  0  0  0  0  0  0  # atno 10764 bound_to 10752
  153.4489  135.7085  153.6185 H   0  0  0  0  0  0  0  0  0  0  0  0  # atno 10765 bound_to 10752
  140.7983  134.2887  157.4988 H   0  0  0  0  0  0  0  0  0  0  0  0  # atno 11005 bound_to 11000
  145.2440  139.2060  143.4977 LP  0  0  0  0  0  0  0  0  0  0  0  0  # atno 17320 bound_to 7965
  146.3404  140.2341  142.8594 LP  0  0  0  0  0  0  0  0  0  0  0  0  # atno 17321 bound_to 7965
  139.7771  143.8409  152.3131 LP  0  0  0  0  0  0  0  0  0  0  0  0  # atno 17342 bound_to 10162
  139.8347  144.7237  150.9406 LP  0  0  0  0  0  0  0  0  0  0  0  0  # atno 17343 bound_to 10162
  157.7022  131.0771  150.6783 LP  0  0  0  0  0  0  0  0  0  0  0  0  # atno 17370 bound_to 10713
  156.6842  130.4576  149.5619 LP  0  0  0  0  0  0  0  0  0  0  0  0  # atno 17371 bound_to 10713
  139.8724  134.9415  156.3798 LP  0  0  0  0  0  0  0  0  0  0  0  0  # atno 17394 bound_to 11000
  140.9320  133.7573  156.0037 LP  0  0  0  0  0  0  0  0  0  0  0  0  # atno 17395 bound_to 11000

$$$$
