AV-unprocessed.smi:2877|AV-procd|sdf|11043|dock2
  -GOLD-   2272015513D 1   1.00000     0.00000
 Structure written by MMmdl.
 41 42  0  0  0  0  0  0  0  0  1 V2000
  152.7923  140.7345  159.5834 O   0  0  0  0  0  0  0  0  0  0  0  0
  151.9643  141.3986  158.9574 C   0  0  0  0  0  0  0  0  0  0  0  0
  150.8848  140.6655  158.1417 C   0  0  0  0  0  0  0  0  0  0  0  0
  150.9019  139.1322  158.3126 C   0  0  0  0  0  0  0  0  0  0  0  0
  149.5521  138.5789  158.3131 N   0  0  0  0  0  0  0  0  0  0  0  0
  149.2319  137.3138  158.6312 C   0  0  0  0  0  0  0  0  0  0  0  0
  150.0739  136.4749  158.9572 O   0  0  0  0  0  0  0  0  0  0  0  0
  147.7343  136.9634  158.5949 C   0  0  0  0  0  0  0  0  0  0  0  0
  147.0706  138.0445  158.1805 F   0  0  0  0  0  0  0  0  0  0  0  0
  147.5377  135.9969  157.6947 F   0  0  0  0  0  0  0  0  0  0  0  0
  147.2110  136.5127  159.9586 C   0  0  0  0  0  0  0  0  0  0  0  0
  147.6930  135.3324  160.5699 C   0  0  0  0  0  0  0  0  0  0  0  0
  147.1692  134.9577  161.8221 C   0  0  0  0  0  0  0  0  0  0  0  0
  146.1863  135.7707  162.4173 C   0  0  0  0  0  0  0  0  0  0  0  0
  145.7669  136.9261  161.7292 C   0  0  0  0  0  0  0  0  0  0  0  0
  146.2622  137.2941  160.5284 N   0  0  0  0  0  0  0  0  0  0  0  0
  151.9757  142.7545  158.9609 N   0  0  0  0  0  0  0  0  0  0  0  0
  150.9544  143.5575  158.2746 C   0  0  0  0  0  0  0  0  0  0  0  0
  150.0697  144.2466  159.3301 C   0  0  0  0  0  0  0  0  0  0  0  0
  150.9205  145.0925  160.2961 C   0  0  0  0  0  0  0  0  0  0  0  0
  152.1026  144.2868  160.8668 C   0  0  0  0  0  0  0  0  0  0  0  0
  152.8935  143.5995  159.7389 C   0  0  0  0  0  0  0  0  0  0  0  0
  149.9075  141.0473  158.4386 H   0  0  0  0  0  0  0  0  0  0  0  0
  151.0227  140.9091  157.0874 H   0  0  0  0  0  0  0  0  0  0  0  0
  151.4481  138.6665  157.4913 H   0  0  0  0  0  0  0  0  0  0  0  0
  151.4182  138.8501  159.2322 H   0  0  0  0  0  0  0  0  0  0  0  0
  148.8026  139.2055  158.0569 H   0  0  0  0  0  0  0  0  0  0  0  0
  148.4429  134.7206  160.0909 H   0  0  0  0  0  0  0  0  0  0  0  0
  147.5147  134.0616  162.3162 H   0  0  0  0  0  0  0  0  0  0  0  0
  145.7628  135.5138  163.3769 H   0  0  0  0  0  0  0  0  0  0  0  0
  145.0133  137.5721  162.1549 H   0  0  0  0  0  0  0  0  0  0  0  0
  151.4433  144.3052  157.6484 H   0  0  0  0  0  0  0  0  0  0  0  0
  150.3331  142.9679  157.5991 H   0  0  0  0  0  0  0  0  0  0  0  0
  149.3228  144.8741  158.8431 H   0  0  0  0  0  0  0  0  0  0  0  0
  149.5205  143.4903  159.8925 H   0  0  0  0  0  0  0  0  0  0  0  0
  151.3077  145.9610  159.7617 H   0  0  0  0  0  0  0  0  0  0  0  0
  150.3012  145.4801  161.1054 H   0  0  0  0  0  0  0  0  0  0  0  0
  152.7584  144.9426  161.4401 H   0  0  0  0  0  0  0  0  0  0  0  0
  151.7313  143.5334  161.5628 H   0  0  0  0  0  0  0  0  0  0  0  0
  153.7406  143.0610  160.1603 H   0  0  0  0  0  0  0  0  0  0  0  0
  153.3298  144.3517  159.0801 H   0  0  0  0  0  0  0  0  0  0  0  0
  1  2  2  0  0  0  0
  2  3  1  0  0  0  0
  2 17  1  0  0  0  0
  3  4  1  0  0  0  0
  3 23  1  0  0  0  0
  3 24  1  0  0  0  0
  4  5  1  0  0  0  0
  4 25  1  0  0  0  0
  4 26  1  0  0  0  0
  5  6  1  0  0  0  0
  5 27  1  0  0  0  0
  6  7  2  0  0  0  0
  6  8  1  0  0  0  0
  8  9  1  0  0  0  0
  8 10  1  0  0  0  0
  8 11  1  0  0  0  0
 11 16  1  0  0  0  0
 11 12  2  0  0  0  0
 12 13  1  0  0  0  0
 12 28  1  0  0  0  0
 13 14  2  0  0  0  0
 13 29  1  0  0  0  0
 14 15  1  0  0  0  0
 14 30  1  0  0  0  0
 15 16  2  0  0  0  0
 15 31  1  0  0  0  0
 17 22  1  0  0  0  0
 17 18  1  0  0  0  0
 18 19  1  0  0  0  0
 18 32  1  0  0  0  0
 18 33  1  0  0  0  0
 19 20  1  0  0  0  0
 19 34  1  0  0  0  0
 19 35  1  0  0  0  0
 20 21  1  0  0  0  0
 20 36  1  0  0  0  0
 20 37  1  0  0  0  0
 21 22  1  0  0  0  0
 21 38  1  0  0  0  0
 21 39  1  0  0  0  0
 22 40  1  0  0  0  0
 22 41  1  0  0  0  0
M  END
> <s_m_source_file>
AV-unprocessed.smi

> <i_m_source_file_index>
2877

> <i_lp_mmshare_version>
43012

> <i_f3d_flags>
0

> <s_epik_input>
W0NIMl0xW0NIMl1bQ0gyXVtDSDJdW0NIMl1OMUMoPU8pW0NIMl1bQ0gyXVtOSF1DKD1PKUMoRikoRiljMltjSF1bY0hdW2NIXVtjSF1uMg==

> <s_epik_cmdline>
J2VwaWtfcHl0aG9uJywgJy1waCcsICc3LjAnLCAnLXRuJywgJzgnLCAnLW1hJywgJzIwMCcsICctbWV0YWxfYmluZGluZycsICctaW1hZScsICc8aW5maWxlLm1hZT4nLCAnLW9tYWUnLCAnPG91dGZpbGUubWFlPic=

> <r_lp_tautomer_probability>
1

> <r_epik_Ionization_Penalty>
7.88991e-05

> <r_epik_Ionization_Penalty_Charging>
0

> <r_epik_Ionization_Penalty_Neutral>
7.88991e-05

> <r_epik_State_Penalty>
-0

> <r_epik_Charging_Adjusted_Penalty>
0

> <i_epik_Tot_Q>
0

> <i_epik_Tot_abs_Q>
0

> <r_epik_Metal_State_Penalty>
0.0639978

> <b_epik_Metal_Only>
0

> <s_lp_Force_Field>
OPLS_2005

> <r_lp_Energy>
32.8241

> <b_lp_Chiralities_Consistent>
1

> <s_lp_Variant>
AV-unprocessed.smi:2877-1

> <Gold.Version>
5.8.1

> <Gold.Id.Protein>
6NUR|6NUR_protein|mol2

> <Gold.PLP.Fitness>
46.3740

> <Gold.PLP.PLP>
-41.0659

> <Gold.PLP.part.hbond>
-2.0000

> <Gold.PLP.part.metal>
0.0000

> <Gold.PLP.part.buried>
-6.9882

> <Gold.PLP.part.nonpolar>
-32.6931

> <Gold.PLP.part.repulsive>
0.1633

> <Gold.PLP.ligand.clash>
0.0000

> <Gold.PLP.ligand.torsion>
0.3751

> <Gold.PLP.Chemscore.Hbond>
2.0000

> <Gold.PLP.Chemscore.CHOScore>
0.0000

> <Gold.PLP.Chemscore.Metal>
0.0000

> <Gold.Chemscore.Hbonds>
donor molecule, donor type, donor heavy atom, donor atom, acceptor molecule, acceptor atom, score
      P1  H  6896  6907       L1     7  1.00
      P1  H  6934  6947       L1    16  1.00

> <Gold.PLP.Chemscore.Internal.Correction>
0.0583

> <Gold.Rescore>
     Score         DG    S(hbond)    S(metal)    S(lipo)     H(rot)  DE(clash)    DE(int)     intcor
     18.17     -18.74       1.75        0.00     105.92       1.95       0.06       0.51       ----

> <Gold.Chemscore.Fitness>
18.1728

> <Gold.Chemscore.DG>
-18.7443

> <Gold.Chemscore.ZeroCoef>
-5.4800

> <Gold.Chemscore.Hbond>
1.7545

> <Gold.Chemscore.Metal>
0.0000

> <Gold.Chemscore.Lipo>
105.9216

> <Gold.Chemscore.Internal_Hbond>
0.0000

> <Gold.Chemscore.DEClash>
0.0597

> <Gold.Chemscore.DEInternal>
0.5118

> <Gold.Chemscore.Rot>
1.9487

> <Gold.Chemscore.Internal.Correction>
   9.000000E+99

> <Gold.Chemscore.Hbonds>
donor molecule, donor type, donor heavy atom, donor atom, acceptor molecule, acceptor atom, score
      P1  H  6896  6907       L1     7  0.98
      P1  H  6934  6947       L1    16  0.21

> <Gold.Chemscore.Hbond.Weighted>
-5.8601

> <Gold.Chemscore.Metal.Weighted>
-0.0000

> <Gold.Chemscore.Lipo.Weighted>
-12.3928

> <Gold.Chemscore.Internal_Hbond.Weighted>
0.0000

> <Gold.Chemscore.DEClash.Weighted>
0.0597

> <Gold.Chemscore.DEInternal.Weighted>
0.5118

> <Gold.Chemscore.Rot.Weighted>
4.9886

> <Gold.Chemscore.Internal.Correction.Weighted>
   9.000000E+99

> <Gold.Protein.RotatedTorsions>
[ 6907 6896 6895 6894 ] final  -29.25 input  -60.11 | X-H torsion
[ 7974 7965 7964 7962 ] final  179.90 input  175.53 | X-H torsion
[ 8008 7997 7996 7995 ] final  151.12 input   59.86 | X-H torsion
[ 10167 10162 10161 10158 ] final  154.63 input  -65.29 | X-H torsion
[ 10718 10713 10712 10709 ] final -148.38 input   66.30 | X-H torsion
[ 10763 10752 10751 10750 ] final  -28.55 input  -60.55 | X-H torsion
[ 11005 11000 10999 10996 ] final -105.59 input  -57.11 | X-H torsion

> <Gold.Protein.ActiveResidues>
 VAL166  LYS551  ARG553  GLY616  TRP617  ASP618  TYR619  PRO620  LYS621  CYS622 
 ASP623  PHE694  ASN695  SER759  ASP760  ASP761  ALA762  ILE779  LEU786  VAL792 
 PHE793  MET794  SER795  GLU796  ALA797  LYS798  CYS799  TRP800  GLU811  SER814 

> <Gold.Protein.RotatedAtoms>
  151.1217  135.0083  159.8541 H   0  0  0  0  0  0  0  0  0  0  0  0  # atno 6907 bound_to 6896
  152.5448  134.1714  159.8608 H   0  0  0  0  0  0  0  0  0  0  0  0  # atno 6908 bound_to 6896
  151.1773  133.4702  159.2627 H   0  0  0  0  0  0  0  0  0  0  0  0  # atno 6909 bound_to 6896
  144.7141  140.0618  143.6432 H   0  0  0  0  0  0  0  0  0  0  0  0  # atno 7974 bound_to 7965
  156.2687  140.2056  156.6126 H   0  0  0  0  0  0  0  0  0  0  0  0  # atno 8008 bound_to 7997
  154.6819  140.0539  157.0299 H   0  0  0  0  0  0  0  0  0  0  0  0  # atno 8009 bound_to 7997
  155.0988  140.3204  155.4556 H   0  0  0  0  0  0  0  0  0  0  0  0  # atno 8010 bound_to 7997
  139.4823  144.5170  151.7936 H   0  0  0  0  0  0  0  0  0  0  0  0  # atno 10167 bound_to 10162
  156.4195  130.8022  151.2244 H   0  0  0  0  0  0  0  0  0  0  0  0  # atno 10718 bound_to 10713
  153.7502  135.6926  153.4947 H   0  0  0  0  0  0  0  0  0  0  0  0  # atno 10763 bound_to 10752
  153.2008  135.4437  155.0263 H   0  0  0  0  0  0  0  0  0  0  0  0  # atno 10764 bound_to 10752
  154.8190  135.3412  154.7023 H   0  0  0  0  0  0  0  0  0  0  0  0  # atno 10765 bound_to 10752
  141.1046  133.8821  157.1753 H   0  0  0  0  0  0  0  0  0  0  0  0  # atno 11005 bound_to 11000
  145.9858  139.2976  143.1015 LP  0  0  0  0  0  0  0  0  0  0  0  0  # atno 17320 bound_to 7965
  145.8959  140.9274  143.0528 LP  0  0  0  0  0  0  0  0  0  0  0  0  # atno 17321 bound_to 7965
  140.4679  144.1628  150.5914 LP  0  0  0  0  0  0  0  0  0  0  0  0  # atno 17342 bound_to 10162
  140.4414  143.2525  151.9468 LP  0  0  0  0  0  0  0  0  0  0  0  0  # atno 17343 bound_to 10162
  157.7508  131.0232  150.3825 LP  0  0  0  0  0  0  0  0  0  0  0  0  # atno 17370 bound_to 10713
  156.4140  130.3939  149.6871 LP  0  0  0  0  0  0  0  0  0  0  0  0  # atno 17371 bound_to 10713
  139.9911  135.0064  156.9976 LP  0  0  0  0  0  0  0  0  0  0  0  0  # atno 17394 bound_to 11000
  140.4935  134.1169  155.7237 LP  0  0  0  0  0  0  0  0  0  0  0  0  # atno 17395 bound_to 11000

$$$$
