AV-unprocessed.smi:2785|AV-procd|sdf|10747|dock10
  -GOLD-   2272015183D 1   1.00000     0.00000
 Structure written by MMmdl.
 37 38  0  0  0  0  0  0  0  0  1 V2000
  146.2100  132.4392  149.9213 C   0  0  0  0  0  0  0  0  0  0  0  0
  145.2308  132.5876  151.1001 C   0  0  0  0  0  0  0  0  0  0  0  0
  143.8155  132.1163  150.7304 C   0  0  0  0  0  0  0  0  0  0  0  0
  145.1875  133.9563  151.6335 N   0  0  0  0  0  0  0  0  0  0  0  0
  144.7466  135.0904  150.8375 C   0  0  0  0  0  0  0  0  0  0  0  0
  144.6139  136.2450  151.8353 C   0  0  0  0  0  0  0  0  0  0  0  0
  145.3626  135.8181  153.1083 C   0  0  2  0  0  0  0  0  0  0  0  0
  146.6602  136.4872  153.1700 N   0  0  0  0  0  0  0  0  0  0  0  0
  146.9313  137.5848  153.8916 C   0  0  0  0  0  0  0  0  0  0  0  0
  146.0913  138.1749  154.5714 O   0  0  0  0  0  0  0  0  0  0  0  0
  148.2235  137.9374  153.7719 N   0  0  0  0  0  0  0  0  0  0  0  0
  148.8973  139.0261  154.3864 C   0  0  0  0  0  0  0  0  0  0  0  0
  150.2102  138.7442  154.8278 C   0  0  0  0  0  0  0  0  0  0  0  0
  150.9641  139.7569  155.4525 C   0  0  0  0  0  0  0  0  0  0  0  0
  150.3833  141.0267  155.6182 C   0  0  0  0  0  0  0  0  0  0  0  0
  151.0690  142.0316  156.2130 F   0  0  0  0  0  0  0  0  0  0  0  0
  149.0714  141.2258  155.1500 C   0  0  0  0  0  0  0  0  0  0  0  0
  148.3478  140.2558  154.5513 N   0  0  0  0  0  0  0  0  0  0  0  0
  145.5581  134.3220  152.8686 C   0  0  0  0  0  0  0  0  0  0  0  0
  145.9896  133.5673  153.7398 O   0  0  0  0  0  0  0  0  0  0  0  0
  146.2861  131.3966  149.6115 H   0  0  0  0  0  0  0  0  0  0  0  0
  147.2119  132.7701  150.1966 H   0  0  0  0  0  0  0  0  0  0  0  0
  145.8908  133.0135  149.0511 H   0  0  0  0  0  0  0  0  0  0  0  0
  145.5997  131.9324  151.8916 H   0  0  0  0  0  0  0  0  0  0  0  0
  143.8269  131.0867  150.3721 H   0  0  0  0  0  0  0  0  0  0  0  0
  143.3842  132.7372  149.9446 H   0  0  0  0  0  0  0  0  0  0  0  0
  143.1472  132.1560  151.5910 H   0  0  0  0  0  0  0  0  0  0  0  0
  145.4992  135.3226  150.0828 H   0  0  0  0  0  0  0  0  0  0  0  0
  143.8018  134.8854  150.3324 H   0  0  0  0  0  0  0  0  0  0  0  0
  144.9735  137.1873  151.4194 H   0  0  0  0  0  0  0  0  0  0  0  0
  143.5596  136.3905  152.0756 H   0  0  0  0  0  0  0  0  0  0  0  0
  144.7646  136.0031  154.0024 H   0  0  0  0  0  0  0  0  0  0  0  0
  147.4112  136.0676  152.6420 H   0  0  0  0  0  0  0  0  0  0  0  0
  148.7942  137.3533  153.1790 H   0  0  0  0  0  0  0  0  0  0  0  0
  150.6393  137.7619  154.6923 H   0  0  0  0  0  0  0  0  0  0  0  0
  151.9687  139.5618  155.7977 H   0  0  0  0  0  0  0  0  0  0  0  0
  148.5901  142.1866  155.2581 H   0  0  0  0  0  0  0  0  0  0  0  0
  1  2  1  0  0  0  0
  1 21  1  0  0  0  0
  1 22  1  0  0  0  0
  1 23  1  0  0  0  0
  2  3  1  0  0  0  0
  2  4  1  0  0  0  0
  2 24  1  0  0  0  0
  3 25  1  0  0  0  0
  3 26  1  0  0  0  0
  3 27  1  0  0  0  0
  4 19  1  0  0  0  0
  4  5  1  0  0  0  0
  5  6  1  0  0  0  0
  5 28  1  0  0  0  0
  5 29  1  0  0  0  0
  6  7  1  0  0  0  0
  6 30  1  0  0  0  0
  6 31  1  0  0  0  0
  7  8  1  0  0  0  0
  7 19  1  0  0  0  0
  7 32  1  0  0  0  0
  8  9  1  0  0  0  0
  8 33  1  0  0  0  0
  9 10  2  0  0  0  0
  9 11  1  0  0  0  0
 11 12  1  0  0  0  0
 11 34  1  0  0  0  0
 12 18  1  0  0  0  0
 12 13  2  0  0  0  0
 13 14  1  0  0  0  0
 13 35  1  0  0  0  0
 14 15  2  0  0  0  0
 14 36  1  0  0  0  0
 15 16  1  0  0  0  0
 15 17  1  0  0  0  0
 17 18  2  0  0  0  0
 17 37  1  0  0  0  0
 19 20  2  0  0  0  0
M  END
> <s_m_source_file>
AV-unprocessed.smi

> <i_m_source_file_index>
2785

> <i_lp_mmshare_version>
43012

> <i_f3d_flags>
0

> <s_epik_input>
W0NIM11bQ0hdKFtDSDNdKU4xW0NIMl1bQ0gyXVtDQEhdKEMxPU8pW05IXUMoPU8pW05IXWMyW2NIXVtjSF1jKEYpW2NIXW4y

> <s_epik_cmdline>
J2VwaWtfcHl0aG9uJywgJy1waCcsICc3LjAnLCAnLXRuJywgJzgnLCAnLW1hJywgJzIwMCcsICctbWV0YWxfYmluZGluZycsICctaW1hZScsICc8aW5maWxlLm1hZT4nLCAnLW9tYWUnLCAnPG91dGZpbGUubWFlPic=

> <r_lp_tautomer_probability>
1

> <r_epik_Ionization_Penalty>
3.20266e-05

> <r_epik_Ionization_Penalty_Charging>
0

> <r_epik_Ionization_Penalty_Neutral>
3.20266e-05

> <r_epik_State_Penalty>
-0

> <r_epik_Charging_Adjusted_Penalty>
0

> <i_epik_Tot_Q>
0

> <i_epik_Tot_abs_Q>
0

> <r_epik_Metal_State_Penalty>
-0

> <b_epik_Metal_Only>
0

> <s_lp_Force_Field>
OPLS_2005

> <r_lp_Energy>
23.5858

> <b_lp_Chiralities_Consistent>
1

> <s_lp_Variant>
AV-unprocessed.smi:2785-2

> <Gold.Version>
5.8.1

> <Gold.Id.Protein>
6NUR|6NUR_protein|mol2

> <Gold.PLP.Fitness>
40.4135

> <Gold.PLP.PLP>
-32.6512

> <Gold.PLP.part.hbond>
-2.0000

> <Gold.PLP.part.metal>
0.0000

> <Gold.PLP.part.buried>
-3.5203

> <Gold.PLP.part.nonpolar>
-26.6086

> <Gold.PLP.part.repulsive>
0.2932

> <Gold.PLP.ligand.clash>
0.0000

> <Gold.PLP.ligand.torsion>
0.6559

> <Gold.PLP.Chemscore.Hbond>
2.0000

> <Gold.PLP.Chemscore.CHOScore>
1.0000

> <Gold.PLP.Chemscore.Metal>
0.0000

> <Gold.Chemscore.Hbonds>
donor molecule, donor type, donor heavy atom, donor atom, acceptor molecule, acceptor atom, score
      L1  H     8    33       P1  7948  0.99
      L1  H    11    34       P1  7948  1.00
      L1  C    17    37       P1  8028  0.90

> <Gold.PLP.Chemscore.Internal.Correction>
0.0741

> <Gold.Rescore>
     Score         DG    S(hbond)    S(metal)    S(lipo)     H(rot)  DE(clash)    DE(int)     intcor
     14.81     -16.56       1.93        0.00      67.76       1.29       0.34       1.42       ----

> <Gold.Chemscore.Fitness>
14.8075

> <Gold.Chemscore.DG>
-16.5626

> <Gold.Chemscore.ZeroCoef>
-5.4800

> <Gold.Chemscore.Hbond>
1.9311

> <Gold.Chemscore.Metal>
0.0000

> <Gold.Chemscore.Lipo>
67.7646

> <Gold.Chemscore.Internal_Hbond>
0.0000

> <Gold.Chemscore.DEClash>
0.3371

> <Gold.Chemscore.DEInternal>
1.4180

> <Gold.Chemscore.Rot>
1.2875

> <Gold.Chemscore.Internal.Correction>
   9.000000E+99

> <Gold.Chemscore.Hbonds>
donor molecule, donor type, donor heavy atom, donor atom, acceptor molecule, acceptor atom, score
      L1  H     8    33       P1  7948  0.94
      L1  H    11    34       P1  7948  0.96

> <Gold.Chemscore.Hbond.Weighted>
-6.4500

> <Gold.Chemscore.Metal.Weighted>
-0.0000

> <Gold.Chemscore.Lipo.Weighted>
-7.9285

> <Gold.Chemscore.Internal_Hbond.Weighted>
0.0000

> <Gold.Chemscore.DEClash.Weighted>
0.3371

> <Gold.Chemscore.DEInternal.Weighted>
1.4180

> <Gold.Chemscore.Rot.Weighted>
3.2959

> <Gold.Chemscore.Internal.Correction.Weighted>
   9.000000E+99

> <Gold.Protein.RotatedTorsions>
[ 6907 6896 6895 6894 ] final  -56.51 input  -60.11 | X-H torsion
[ 7974 7965 7964 7962 ] final   11.90 input  175.53 | X-H torsion
[ 8008 7997 7996 7995 ] final  108.17 input   59.86 | X-H torsion
[ 10167 10162 10161 10158 ] final  -83.26 input  -65.29 | X-H torsion
[ 10718 10713 10712 10709 ] final  148.97 input   66.30 | X-H torsion
[ 10763 10752 10751 10750 ] final -146.30 input  -60.55 | X-H torsion
[ 11005 11000 10999 10996 ] final  -36.33 input  -57.11 | X-H torsion

> <Gold.Protein.ActiveResidues>
 VAL166  LYS551  ARG553  GLY616  TRP617  ASP618  TYR619  PRO620  LYS621  CYS622 
 ASP623  PHE694  ASN695  SER759  ASP760  ASP761  ALA762  ILE779  LEU786  VAL792 
 PHE793  MET794  SER795  GLU796  ALA797  LYS798  CYS799  TRP800  GLU811  SER814 

> <Gold.Protein.RotatedAtoms>
  150.8161  134.7344  159.6731 H   0  0  0  0  0  0  0  0  0  0  0  0  # atno 6907 bound_to 6896
  152.4280  134.5828  159.9962 H   0  0  0  0  0  0  0  0  0  0  0  0  # atno 6908 bound_to 6896
  151.6025  133.3317  159.3086 H   0  0  0  0  0  0  0  0  0  0  0  0  # atno 6909 bound_to 6896
  146.2362  139.9417  142.8482 H   0  0  0  0  0  0  0  0  0  0  0  0  # atno 7974 bound_to 7965
  156.1882  140.3081  155.9280 H   0  0  0  0  0  0  0  0  0  0  0  0  # atno 8008 bound_to 7997
  155.3233  140.0457  157.3057 H   0  0  0  0  0  0  0  0  0  0  0  0  # atno 8009 bound_to 7997
  154.5421  140.2265  155.8634 H   0  0  0  0  0  0  0  0  0  0  0  0  # atno 8010 bound_to 7997
  140.4243  143.2572  151.8846 H   0  0  0  0  0  0  0  0  0  0  0  0  # atno 10167 bound_to 10162
  157.3019  131.0872  151.1383 H   0  0  0  0  0  0  0  0  0  0  0  0  # atno 10718 bound_to 10713
  154.8342  135.3390  154.6640 H   0  0  0  0  0  0  0  0  0  0  0  0  # atno 10763 bound_to 10752
  153.7256  135.6955  153.5006 H   0  0  0  0  0  0  0  0  0  0  0  0  # atno 10764 bound_to 10752
  153.2349  135.4404  155.0588 H   0  0  0  0  0  0  0  0  0  0  0  0  # atno 10765 bound_to 10752
  140.9866  133.7027  156.1776 H   0  0  0  0  0  0  0  0  0  0  0  0  # atno 11005 bound_to 11000
  145.1946  140.9827  143.4191 LP  0  0  0  0  0  0  0  0  0  0  0  0  # atno 17320 bound_to 7965
  144.9826  139.3768  143.6254 LP  0  0  0  0  0  0  0  0  0  0  0  0  # atno 17321 bound_to 7965
  139.4783  144.5403  151.8538 LP  0  0  0  0  0  0  0  0  0  0  0  0  # atno 17342 bound_to 10162
  140.4498  144.1871  150.5896 LP  0  0  0  0  0  0  0  0  0  0  0  0  # atno 17343 bound_to 10162
  157.2739  130.6717  149.6032 LP  0  0  0  0  0  0  0  0  0  0  0  0  # atno 17370 bound_to 10713
  155.9672  130.4471  150.5565 LP  0  0  0  0  0  0  0  0  0  0  0  0  # atno 17371 bound_to 10713
  140.7105  134.4467  157.5582 LP  0  0  0  0  0  0  0  0  0  0  0  0  # atno 17394 bound_to 11000
  139.8973  134.8639  156.2049 LP  0  0  0  0  0  0  0  0  0  0  0  0  # atno 17395 bound_to 11000

$$$$
