AV-unprocessed.smi:2220|AV-procd|sdf|8979|dock4
  -GOLD-   2272012193D 1   1.00000     0.00000
 Structure written by MMmdl.
 38 39  0  0  0  0  0  0  0  0  1 V2000
  149.3535  135.6227  155.8746 C   0  0  0  0  0  0  0  0  0  0  0  0
  150.0619  136.8762  155.7059 N   0  0  0  0  0  0  0  0  0  0  0  0
  149.8993  137.7610  154.7127 C   0  0  0  0  0  0  0  0  0  0  0  0
  150.6777  138.8316  154.7957 N   0  0  0  0  0  0  0  0  0  0  0  0
  151.4144  138.6155  155.9569 C   0  0  0  0  0  0  0  0  0  0  0  0
  151.0474  137.4170  156.5286 C   0  0  0  0  0  0  0  0  0  0  0  0
  151.5478  136.7635  157.7772 C   0  0  0  0  0  0  0  0  0  0  0  0
  152.6480  137.5742  158.4812 C   0  0  0  0  0  0  0  0  0  0  0  0
  152.1822  138.9076  158.8431 N   0  0  0  0  0  0  0  0  0  0  0  0
  152.9625  139.9940  158.9533 C   0  0  0  0  0  0  0  0  0  0  0  0
  154.1772  139.9748  158.7517 O   0  0  0  0  0  0  0  0  0  0  0  0
  152.2649  141.3005  159.3552 C   0  0  0  0  0  0  0  0  0  0  0  0
  151.2962  141.7716  158.2504 C   0  0  0  0  0  0  0  0  0  0  0  0
  150.5917  143.0781  158.6502 C   0  0  0  0  0  0  0  0  0  0  0  0
  151.6068  144.1794  159.0001 C   0  0  0  0  0  0  0  0  0  0  0  0
  152.2773  144.5284  157.9009 F   0  0  0  0  0  0  0  0  0  0  0  0
  150.9519  145.2517  159.4451 F   0  0  0  0  0  0  0  0  0  0  0  0
  152.6012  143.7138  160.0777 C   0  0  0  0  0  0  0  0  0  0  0  0
  153.2960  142.4039  159.6720 C   0  0  0  0  0  0  0  0  0  0  0  0
  148.7128  135.4323  155.0129 H   0  0  0  0  0  0  0  0  0  0  0  0
  148.7351  135.6662  156.7710 H   0  0  0  0  0  0  0  0  0  0  0  0
  150.0667  134.8037  155.9690 H   0  0  0  0  0  0  0  0  0  0  0  0
  149.1927  137.6182  153.9083 H   0  0  0  0  0  0  0  0  0  0  0  0
  152.1469  139.3350  156.2922 H   0  0  0  0  0  0  0  0  0  0  0  0
  150.7165  136.5981  158.4631 H   0  0  0  0  0  0  0  0  0  0  0  0
  151.9275  135.7721  157.5279 H   0  0  0  0  0  0  0  0  0  0  0  0
  153.0034  137.0461  159.3678 H   0  0  0  0  0  0  0  0  0  0  0  0
  153.5094  137.6875  157.8233 H   0  0  0  0  0  0  0  0  0  0  0  0
  151.1945  139.0121  159.0248 H   0  0  0  0  0  0  0  0  0  0  0  0
  151.6823  141.1124  160.2590 H   0  0  0  0  0  0  0  0  0  0  0  0
  151.8367  141.9266  157.3154 H   0  0  0  0  0  0  0  0  0  0  0  0
  150.5495  141.0019  158.0503 H   0  0  0  0  0  0  0  0  0  0  0  0
  149.9387  143.4119  157.8431 H   0  0  0  0  0  0  0  0  0  0  0  0
  149.9474  142.8899  159.5101 H   0  0  0  0  0  0  0  0  0  0  0  0
  153.3453  144.4893  160.2621 H   0  0  0  0  0  0  0  0  0  0  0  0
  152.0731  143.5632  161.0203 H   0  0  0  0  0  0  0  0  0  0  0  0
  153.9602  142.0804  160.4747 H   0  0  0  0  0  0  0  0  0  0  0  0
  153.9301  142.5887  158.8036 H   0  0  0  0  0  0  0  0  0  0  0  0
  1  2  1  0  0  0  0
  1 20  1  0  0  0  0
  1 21  1  0  0  0  0
  1 22  1  0  0  0  0
  2  6  1  0  0  0  0
  2  3  1  0  0  0  0
  3  4  2  0  0  0  0
  3 23  1  0  0  0  0
  4  5  1  0  0  0  0
  5  6  2  0  0  0  0
  5 24  1  0  0  0  0
  6  7  1  0  0  0  0
  7  8  1  0  0  0  0
  7 25  1  0  0  0  0
  7 26  1  0  0  0  0
  8  9  1  0  0  0  0
  8 27  1  0  0  0  0
  8 28  1  0  0  0  0
  9 10  1  0  0  0  0
  9 29  1  0  0  0  0
 10 11  2  0  0  0  0
 10 12  1  0  0  0  0
 12 19  1  0  0  0  0
 12 13  1  0  0  0  0
 12 30  1  0  0  0  0
 13 14  1  0  0  0  0
 13 31  1  0  0  0  0
 13 32  1  0  0  0  0
 14 15  1  0  0  0  0
 14 33  1  0  0  0  0
 14 34  1  0  0  0  0
 15 16  1  0  0  0  0
 15 17  1  0  0  0  0
 15 18  1  0  0  0  0
 18 19  1  0  0  0  0
 18 35  1  0  0  0  0
 18 36  1  0  0  0  0
 19 37  1  0  0  0  0
 19 38  1  0  0  0  0
M  END
> <s_m_source_file>
AV-unprocessed.smi

> <i_m_source_file_index>
2220

> <i_lp_mmshare_version>
43012

> <i_f3d_flags>
0

> <s_epik_input>
W0NIM11uMVtjSF1uW2NIXWMxW0NIMl1bQ0gyXVtOSF1DKD1PKVtDSF0oW0NIMl1bQ0gyXTIpW0NIMl1bQ0gyXUMyKEYpRg==

> <s_epik_cmdline>
J2VwaWtfcHl0aG9uJywgJy1waCcsICc3LjAnLCAnLXRuJywgJzgnLCAnLW1hJywgJzIwMCcsICctbWV0YWxfYmluZGluZycsICctaW1hZScsICc8aW5maWxlLm1hZT4nLCAnLW9tYWUnLCAnPG91dGZpbGUubWFlPic=

> <r_lp_tautomer_probability>
1

> <r_epik_Ionization_Penalty>
0.872556

> <r_epik_Ionization_Penalty_Charging>
0.872556

> <r_epik_Ionization_Penalty_Neutral>
1.72153e-08

> <r_epik_State_Penalty>
0.910028

> <r_epik_Charging_Adjusted_Penalty>
1.78258

> <i_epik_Tot_Q>
0

> <i_epik_Tot_abs_Q>
0

> <r_epik_Metal_State_Penalty>
0.360885

> <b_epik_Metal_Only>
0

> <s_lp_Force_Field>
OPLS_2005

> <r_lp_Energy>
9.62652

> <b_lp_Chiralities_Consistent>
1

> <s_lp_Variant>
AV-unprocessed.smi:2220-2

> <Gold.Version>
5.8.1

> <Gold.Id.Protein>
6NUR|6NUR_protein|mol2

> <Gold.PLP.Fitness>
50.8708

> <Gold.PLP.PLP>
-41.1242

> <Gold.PLP.part.hbond>
-2.0000

> <Gold.PLP.part.metal>
0.0000

> <Gold.PLP.part.buried>
-3.9565

> <Gold.PLP.part.nonpolar>
-34.6510

> <Gold.PLP.part.repulsive>
0.2115

> <Gold.PLP.ligand.clash>
0.0000

> <Gold.PLP.ligand.torsion>
0.3090

> <Gold.PLP.Chemscore.Hbond>
2.0000

> <Gold.PLP.Chemscore.CHOScore>
1.4442

> <Gold.PLP.Chemscore.Metal>
0.0000

> <Gold.Chemscore.Hbonds>
donor molecule, donor type, donor heavy atom, donor atom, acceptor molecule, acceptor atom, score
      P1  H  7997  8010       L1    11  1.00
      L1  C     3    23       P1  7948  1.00

> <Gold.PLP.Chemscore.Internal.Correction>
0.0321

> <Gold.Rescore>
     Score         DG    S(hbond)    S(metal)    S(lipo)     H(rot)  DE(clash)    DE(int)     intcor
     16.79     -17.03       1.96        0.00      82.15       1.80       0.00       0.24       ----

> <Gold.Chemscore.Fitness>
16.7878

> <Gold.Chemscore.DG>
-17.0256

> <Gold.Chemscore.ZeroCoef>
-5.4800

> <Gold.Chemscore.Hbond>
1.9610

> <Gold.Chemscore.Metal>
0.0000

> <Gold.Chemscore.Lipo>
82.1497

> <Gold.Chemscore.Internal_Hbond>
0.0000

> <Gold.Chemscore.DEClash>
0.0021

> <Gold.Chemscore.DEInternal>
0.2356

> <Gold.Chemscore.Rot>
1.8029

> <Gold.Chemscore.Internal.Correction>
   9.000000E+99

> <Gold.Chemscore.Hbonds>
donor molecule, donor type, donor heavy atom, donor atom, acceptor molecule, acceptor atom, score
      P1  H  7997  8010       L1    11  0.95

> <Gold.Chemscore.Hbond.Weighted>
-6.5496

> <Gold.Chemscore.Metal.Weighted>
-0.0000

> <Gold.Chemscore.Lipo.Weighted>
-9.6115

> <Gold.Chemscore.Internal_Hbond.Weighted>
0.0000

> <Gold.Chemscore.DEClash.Weighted>
0.0021

> <Gold.Chemscore.DEInternal.Weighted>
0.2356

> <Gold.Chemscore.Rot.Weighted>
4.6155

> <Gold.Chemscore.Internal.Correction.Weighted>
   9.000000E+99

> <Gold.Protein.RotatedTorsions>
[ 6907 6896 6895 6894 ] final  112.49 input  -60.11 | X-H torsion
[ 7974 7965 7964 7962 ] final  -56.67 input  175.53 | X-H torsion
[ 8008 7997 7996 7995 ] final   18.04 input   59.86 | X-H torsion
[ 10167 10162 10161 10158 ] final -161.22 input  -65.29 | X-H torsion
[ 10718 10713 10712 10709 ] final  153.70 input   66.30 | X-H torsion
[ 10763 10752 10751 10750 ] final  -81.23 input  -60.55 | X-H torsion
[ 11005 11000 10999 10996 ] final  -53.58 input  -57.11 | X-H torsion

> <Gold.Protein.ActiveResidues>
 VAL166  LYS551  ARG553  GLY616  TRP617  ASP618  TYR619  PRO620  LYS621  CYS622 
 ASP623  PHE694  ASN695  SER759  ASP760  ASP761  ALA762  ILE779  LEU786  VAL792 
 PHE793  MET794  SER795  GLU796  ALA797  LYS798  CYS799  TRP800  GLU811  SER814 

> <Gold.Protein.RotatedAtoms>
  152.4913  133.8509  159.7200 H   0  0  0  0  0  0  0  0  0  0  0  0  # atno 6907 bound_to 6896
  150.9046  133.7065  159.2876 H   0  0  0  0  0  0  0  0  0  0  0  0  # atno 6908 bound_to 6896
  151.4494  135.1032  159.9746 H   0  0  0  0  0  0  0  0  0  0  0  0  # atno 6909 bound_to 6896
  145.8600  140.8292  142.9942 H   0  0  0  0  0  0  0  0  0  0  0  0  # atno 7974 bound_to 7965
  154.9002  140.2999  155.5322 H   0  0  0  0  0  0  0  0  0  0  0  0  # atno 8008 bound_to 7997
  156.3019  140.2408  156.3964 H   0  0  0  0  0  0  0  0  0  0  0  0  # atno 8009 bound_to 7997
  154.8529  140.0408  157.1604 H   0  0  0  0  0  0  0  0  0  0  0  0  # atno 8010 bound_to 7997
  139.6481  144.0134  152.2142 H   0  0  0  0  0  0  0  0  0  0  0  0  # atno 10167 bound_to 10162
  157.2413  131.0759  151.1791 H   0  0  0  0  0  0  0  0  0  0  0  0  # atno 10718 bound_to 10713
  154.5611  135.5633  153.7008 H   0  0  0  0  0  0  0  0  0  0  0  0  # atno 10763 bound_to 10752
  153.0018  135.6274  154.2244 H   0  0  0  0  0  0  0  0  0  0  0  0  # atno 10764 bound_to 10752
  154.2181  135.2871  155.2914 H   0  0  0  0  0  0  0  0  0  0  0  0  # atno 10765 bound_to 10752
  141.0983  133.6621  156.4194 H   0  0  0  0  0  0  0  0  0  0  0  0  # atno 11005 bound_to 11000
  144.6727  140.1081  143.7457 LP  0  0  0  0  0  0  0  0  0  0  0  0  # atno 17320 bound_to 7965
  145.9259  139.2575  143.1353 LP  0  0  0  0  0  0  0  0  0  0  0  0  # atno 17321 bound_to 7965
  139.9841  144.6407  150.7873 LP  0  0  0  0  0  0  0  0  0  0  0  0  # atno 17342 bound_to 10162
  140.7524  143.2990  151.3129 LP  0  0  0  0  0  0  0  0  0  0  0  0  # atno 17343 bound_to 10162
  157.3376  130.7017  149.6362 LP  0  0  0  0  0  0  0  0  0  0  0  0  # atno 17370 bound_to 10713
  155.9670  130.4289  150.4809 LP  0  0  0  0  0  0  0  0  0  0  0  0  # atno 17371 bound_to 10713
  140.5085  134.6418  157.5275 LP  0  0  0  0  0  0  0  0  0  0  0  0  # atno 17394 bound_to 11000
  139.9826  134.7112  155.9831 LP  0  0  0  0  0  0  0  0  0  0  0  0  # atno 17395 bound_to 11000

$$$$
