AV-unprocessed.smi:1831|AV-procd|sdf|7457|dock3
  -GOLD-   22720 9143D 1   1.00000     0.00000
 Structure written by MMmdl.
 41 42  0  0  0  0  0  0  0  0  2 V2000
  150.7287  141.6393  156.6744 C   0  0  0  0  0  0  0  0  0  0  0  0
  150.4802  140.4128  155.8647 C   0  0  0  0  0  0  0  0  0  0  0  0
  150.4993  140.4107  154.5259 N   0  0  0  0  0  0  0  0  0  0  0  0
  150.2416  139.1536  153.9952 N   0  0  0  0  0  0  0  0  0  0  0  0
  150.0396  138.2410  154.9496 C   0  0  0  0  0  0  0  0  0  0  0  0
  149.7663  136.9084  154.5516 N   0  0  0  0  0  0  0  0  0  0  0  0
  149.7471  135.8061  155.3180 C   0  0  0  0  0  0  0  0  0  0  0  0
  149.9679  135.7764  156.5286 O   0  0  0  0  0  0  0  0  0  0  0  0
  149.4487  134.7163  154.5957 N   0  0  0  0  0  0  0  0  0  0  0  0
  149.3785  133.3521  155.1110 C   0  0  0  0  0  0  0  0  0  0  0  0
  149.1597  132.3124  153.9942 C   0  0  1  0  0  0  0  0  0  0  0  0
  149.3409  130.8692  154.4586 C   0  0  0  0  0  0  0  0  0  0  0  0
  148.5258  130.0318  153.4644 C   0  0  0  0  0  0  0  0  0  0  0  0
  147.6404  130.9673  152.7253 N   0  3  1  0  0  0  0  0  0  0  0  0
  146.2510  130.4798  152.4950 C   0  0  0  0  0  0  0  0  0  0  0  0
  146.2526  129.0892  151.8321 C   0  0  0  0  0  0  0  0  0  0  0  0
  145.4378  131.4610  151.6287 C   0  0  0  0  0  0  0  0  0  0  0  0
  147.7504  132.2785  153.4008 C   0  0  0  0  0  0  0  0  0  0  0  0
  150.1439  138.8512  156.6011 S   0  0  0  0  0  0  0  0  0  0  0  0
  150.6862  142.5300  156.0467 H   0  0  0  0  0  0  0  0  0  0  0  0
  151.7133  141.5845  157.1389 H   0  0  0  0  0  0  0  0  0  0  0  0
  149.9758  141.7292  157.4576 H   0  0  0  0  0  0  0  0  0  0  0  0
  149.5712  136.7814  153.5693 H   0  0  0  0  0  0  0  0  0  0  0  0
  149.2834  134.8353  153.6066 H   0  0  0  0  0  0  0  0  0  0  0  0
  150.3216  133.1453  155.6174 H   0  0  0  0  0  0  0  0  0  0  0  0
  148.6017  133.2698  155.8732 H   0  0  0  0  0  0  0  0  0  0  0  0
  149.8694  132.5007  153.1863 H   0  0  0  0  0  0  0  0  0  0  0  0
  150.3890  130.5708  154.4971 H   0  0  0  0  0  0  0  0  0  0  0  0
  148.9263  130.7446  155.4601 H   0  0  0  0  0  0  0  0  0  0  0  0
  149.1757  129.5245  152.7509 H   0  0  0  0  0  0  0  0  0  0  0  0
  147.9621  129.2680  154.0017 H   0  0  0  0  0  0  0  0  0  0  0  0
  145.7559  130.3973  153.4639 H   0  0  0  0  0  0  0  0  0  0  0  0
  145.2345  128.7428  151.6512 H   0  0  0  0  0  0  0  0  0  0  0  0
  146.7358  128.3362  152.4541 H   0  0  0  0  0  0  0  0  0  0  0  0
  146.7689  129.1091  150.8718 H   0  0  0  0  0  0  0  0  0  0  0  0
  144.4398  131.0697  151.4292 H   0  0  0  0  0  0  0  0  0  0  0  0
  145.9208  131.6366  150.6668 H   0  0  0  0  0  0  0  0  0  0  0  0
  145.3036  132.4258  152.1179 H   0  0  0  0  0  0  0  0  0  0  0  0
  147.0086  132.3409  154.1991 H   0  0  0  0  0  0  0  0  0  0  0  0
  147.5765  133.1019  152.7073 H   0  0  0  0  0  0  0  0  0  0  0  0
  148.0641  131.0906  151.8168 H   0  0  0  0  0  0  0  0  0  0  0  0
  1  2  1  0  0  0  0
  1 20  1  0  0  0  0
  1 21  1  0  0  0  0
  1 22  1  0  0  0  0
  2 19  1  0  0  0  0
  2  3  2  0  0  0  0
  3  4  1  0  0  0  0
  4  5  2  0  0  0  0
  5  6  1  0  0  0  0
  5 19  1  0  0  0  0
  6  7  1  0  0  0  0
  6 23  1  0  0  0  0
  7  8  2  0  0  0  0
  7  9  1  0  0  0  0
  9 10  1  0  0  0  0
  9 24  1  0  0  0  0
 10 11  1  0  0  0  0
 10 25  1  0  0  0  0
 10 26  1  0  0  0  0
 11 18  1  0  0  0  0
 11 12  1  0  0  0  0
 11 27  1  0  0  0  0
 12 13  1  0  0  0  0
 12 28  1  0  0  0  0
 12 29  1  0  0  0  0
 13 14  1  0  0  0  0
 13 30  1  0  0  0  0
 13 31  1  0  0  0  0
 14 15  1  0  0  0  0
 14 18  1  0  0  0  0
 14 41  1  0  0  0  0
 15 16  1  0  0  0  0
 15 17  1  0  0  0  0
 15 32  1  0  0  0  0
 16 33  1  0  0  0  0
 16 34  1  0  0  0  0
 16 35  1  0  0  0  0
 17 36  1  0  0  0  0
 17 37  1  0  0  0  0
 17 38  1  0  0  0  0
 18 39  1  0  0  0  0
 18 40  1  0  0  0  0
M  CHG  1  14   1
M  END
> <s_m_source_file>
AV-unprocessed.smi

> <i_m_source_file_index>
1831

> <i_lp_mmshare_version>
43012

> <i_f3d_flags>
0

> <s_epik_input>
W0NIM11jMW5uYyhzMSlbTkhdQyg9TylbTkhdW0NIMl1bQ0BASF0yW0NIMl1bQ0gyXU4oW0NIMl0yKVtDSF0oW0NIM10pW0NIM10=

> <s_epik_cmdline>
J2VwaWtfcHl0aG9uJywgJy1waCcsICc3LjAnLCAnLXRuJywgJzgnLCAnLW1hJywgJzIwMCcsICctbWV0YWxfYmluZGluZycsICctaW1hZScsICc8aW5maWxlLm1hZT4nLCAnLW9tYWUnLCAnPG91dGZpbGUubWFlPic=

> <r_lp_tautomer_probability>
1

> <r_epik_Ionization_Penalty>
0.00080807

> <r_epik_Ionization_Penalty_Charging>
0.000218981

> <r_epik_Ionization_Penalty_Neutral>
0.00058909

> <r_epik_State_Penalty>
-0

> <r_epik_Charging_Adjusted_Penalty>
0.000218981

> <i_epik_Tot_Q>
1

> <i_epik_Tot_abs_Q>
1

> <r_epik_Metal_State_Penalty>
0.236062

> <b_epik_Metal_Only>
0

> <s_lp_Force_Field>
OPLS_2005

> <r_lp_Energy>
27.4223

> <b_lp_Chiralities_Consistent>
1

> <s_lp_Variant>
AV-unprocessed.smi:1831-2

> <Gold.Version>
5.8.1

> <Gold.Id.Protein>
6NUR|6NUR_protein|mol2

> <Gold.PLP.Fitness>
41.9243

> <Gold.PLP.PLP>
-32.4446

> <Gold.PLP.part.hbond>
-3.9848

> <Gold.PLP.part.metal>
0.0000

> <Gold.PLP.part.buried>
-5.2916

> <Gold.PLP.part.nonpolar>
-24.4046

> <Gold.PLP.part.repulsive>
1.2286

> <Gold.PLP.ligand.clash>
0.0000

> <Gold.PLP.ligand.torsion>
0.1434

> <Gold.PLP.Chemscore.Hbond>
3.2482

> <Gold.PLP.Chemscore.CHOScore>
0.0000

> <Gold.PLP.Chemscore.Metal>
0.0000

> <Gold.Chemscore.Hbonds>
donor molecule, donor type, donor heavy atom, donor atom, acceptor molecule, acceptor atom, score
      L1  H     6    23       P1  7948  1.00
      L1  H     9    24       P1  7948  0.40
      L1  H    14    41       P1 10747  1.00
      P1  H  7989  7998       L1     3  0.95

> <Gold.PLP.Chemscore.Internal.Correction>
0.0219

> <Gold.Rescore>
     Score         DG    S(hbond)    S(metal)    S(lipo)     H(rot)  DE(clash)    DE(int)     intcor
     18.61     -18.89       2.75        0.00      69.85       1.54       0.08       0.21       ----

> <Gold.Chemscore.Fitness>
18.6054

> <Gold.Chemscore.DG>
-18.8886

> <Gold.Chemscore.ZeroCoef>
-5.4800

> <Gold.Chemscore.Hbond>
2.7476

> <Gold.Chemscore.Metal>
0.0000

> <Gold.Chemscore.Lipo>
69.8525

> <Gold.Chemscore.Internal_Hbond>
0.0000

> <Gold.Chemscore.DEClash>
0.0779

> <Gold.Chemscore.DEInternal>
0.2054

> <Gold.Chemscore.Rot>
1.5396

> <Gold.Chemscore.Internal.Correction>
   9.000000E+99

> <Gold.Chemscore.Hbonds>
donor molecule, donor type, donor heavy atom, donor atom, acceptor molecule, acceptor atom, score
      L1  H     6    23       P1  7948  0.74
      L1  H     9    24       P1  7948  0.05
      L1  H    14    41       P1 10747  1.00
      P1  H  7989  7998       L1     3  0.21

> <Gold.Chemscore.Hbond.Weighted>
-9.1771

> <Gold.Chemscore.Metal.Weighted>
-0.0000

> <Gold.Chemscore.Lipo.Weighted>
-8.1727

> <Gold.Chemscore.Internal_Hbond.Weighted>
0.0000

> <Gold.Chemscore.DEClash.Weighted>
0.0779

> <Gold.Chemscore.DEInternal.Weighted>
0.2054

> <Gold.Chemscore.Rot.Weighted>
3.9413

> <Gold.Chemscore.Internal.Correction.Weighted>
   9.000000E+99

> <Gold.Protein.RotatedTorsions>
[ 6907 6896 6895 6894 ] final  -29.31 input  -60.11 | X-H torsion
[ 7974 7965 7964 7962 ] final  -33.27 input  175.53 | X-H torsion
[ 8008 7997 7996 7995 ] final   13.25 input   59.86 | X-H torsion
[ 10167 10162 10161 10158 ] final   89.67 input  -65.29 | X-H torsion
[ 10718 10713 10712 10709 ] final  -24.44 input   66.30 | X-H torsion
[ 10763 10752 10751 10750 ] final  132.02 input  -60.55 | X-H torsion
[ 11005 11000 10999 10996 ] final   65.02 input  -57.11 | X-H torsion

> <Gold.Protein.ActiveResidues>
 VAL166  LYS551  ARG553  GLY616  TRP617  ASP618  TYR619  PRO620  LYS621  CYS622 
 ASP623  PHE694  ASN695  SER759  ASP760  ASP761  ALA762  ILE779  LEU786  VAL792 
 PHE793  MET794  SER795  GLU796  ALA797  LYS798  CYS799  TRP800  GLU811  SER814 

> <Gold.Protein.RotatedAtoms>
  151.1209  135.0079  159.8537 H   0  0  0  0  0  0  0  0  0  0  0  0  # atno 6907 bound_to 6896
  152.5448  134.1723  159.8612 H   0  0  0  0  0  0  0  0  0  0  0  0  # atno 6908 bound_to 6896
  151.1782  133.4697  159.2627 H   0  0  0  0  0  0  0  0  0  0  0  0  # atno 6909 bound_to 6896
  146.0924  140.5895  142.8858 H   0  0  0  0  0  0  0  0  0  0  0  0  # atno 7974 bound_to 7965
  154.8319  140.2901  155.5717 H   0  0  0  0  0  0  0  0  0  0  0  0  # atno 8008 bound_to 7997
  156.3006  140.2530  156.3176 H   0  0  0  0  0  0  0  0  0  0  0  0  # atno 8009 bound_to 7997
  154.9222  140.0385  157.1993 H   0  0  0  0  0  0  0  0  0  0  0  0  # atno 8010 bound_to 7997
  139.8550  144.6574  150.9125 H   0  0  0  0  0  0  0  0  0  0  0  0  # atno 10167 bound_to 10162
  156.4776  130.4538  149.6831 H   0  0  0  0  0  0  0  0  0  0  0  0  # atno 10718 bound_to 10713
  153.7839  135.3164  155.3369 H   0  0  0  0  0  0  0  0  0  0  0  0  # atno 10763 bound_to 10752
  154.8151  135.4641  154.0625 H   0  0  0  0  0  0  0  0  0  0  0  0  # atno 10764 bound_to 10752
  153.1922  135.6910  153.8424 H   0  0  0  0  0  0  0  0  0  0  0  0  # atno 10765 bound_to 10752
  139.9921  134.6575  156.0073 H   0  0  0  0  0  0  0  0  0  0  0  0  # atno 11005 bound_to 11000
  144.7370  140.4836  143.6896 LP  0  0  0  0  0  0  0  0  0  0  0  0  # atno 17320 bound_to 7965
  145.6013  139.1504  143.3127 LP  0  0  0  0  0  0  0  0  0  0  0  0  # atno 17321 bound_to 7965
  140.7783  143.3794  151.1504 LP  0  0  0  0  0  0  0  0  0  0  0  0  # atno 17342 bound_to 10162
  139.7429  143.8897  152.3055 LP  0  0  0  0  0  0  0  0  0  0  0  0  # atno 17343 bound_to 10162
  156.3554  130.7454  151.2419 LP  0  0  0  0  0  0  0  0  0  0  0  0  # atno 17370 bound_to 10713
  157.7486  131.0365  150.4413 LP  0  0  0  0  0  0  0  0  0  0  0  0  # atno 17371 bound_to 10713
  141.1574  133.6541  156.4207 LP  0  0  0  0  0  0  0  0  0  0  0  0  # atno 17394 bound_to 11000
  140.4888  134.6595  157.5202 LP  0  0  0  0  0  0  0  0  0  0  0  0  # atno 17395 bound_to 11000

$$$$
