AV-unprocessed.smi:892|AV-procd|sdf|4065|dock4
  -GOLD-   22720 1553D 1   1.00000     0.00000
 Structure written by MMmdl.
 36 37  0  0  0  0  0  0  0  0  1 V2000
  150.3172  134.8371  154.7159 C   0  0  0  0  0  0  0  0  0  0  0  0
  150.5603  136.2123  154.3084 N   0  0  0  0  0  0  0  0  0  0  0  0
  151.4770  137.0145  154.8696 C   0  0  0  0  0  0  0  0  0  0  0  0
  152.2160  136.6584  155.7875 O   0  0  0  0  0  0  0  0  0  0  0  0
  151.5797  138.4351  154.3112 C   0  0  0  0  0  0  0  0  0  0  0  0
  151.3132  139.4428  155.3835 C   0  0  0  0  0  0  0  0  0  0  0  0
  150.0744  139.7416  155.7577 N   0  0  0  0  0  0  0  0  0  0  0  0
  150.2619  140.7019  156.7618 O   0  0  0  0  0  0  0  0  0  0  0  0
  151.6029  140.8624  156.8760 C   0  0  0  0  0  0  0  0  0  0  0  0
  152.1368  141.8389  157.8771 C   0  0  0  0  0  0  0  0  0  0  0  0
  152.0520  141.2681  159.3092 C   0  0  0  0  0  0  0  0  0  0  0  0
  152.9646  141.9965  160.3105 C   0  0  0  0  0  0  0  0  0  0  0  0
  152.3548  143.2424  160.9771 C   0  0  0  0  0  0  0  0  0  0  0  0
  151.4969  144.1533  160.0813 C   0  0  0  0  0  0  0  0  0  0  0  0
  151.9986  144.3220  158.6382 C   0  0  0  0  0  0  0  0  0  0  0  0
  151.4815  143.2219  157.6946 C   0  0  0  0  0  0  0  0  0  0  0  0
  152.3076  140.0995  156.0436 N   0  0  0  0  0  0  0  0  0  0  0  0
  149.5438  134.3951  154.0879 H   0  0  0  0  0  0  0  0  0  0  0  0
  149.9807  134.7944  155.7525 H   0  0  0  0  0  0  0  0  0  0  0  0
  151.2217  134.2355  154.6176 H   0  0  0  0  0  0  0  0  0  0  0  0
  149.9916  136.5807  153.5596 H   0  0  0  0  0  0  0  0  0  0  0  0
  152.5747  138.5937  153.8928 H   0  0  0  0  0  0  0  0  0  0  0  0
  150.8686  138.5703  153.4951 H   0  0  0  0  0  0  0  0  0  0  0  0
  153.1952  141.9560  157.6391 H   0  0  0  0  0  0  0  0  0  0  0  0
  151.0212  141.2326  159.6637 H   0  0  0  0  0  0  0  0  0  0  0  0
  152.3876  140.2306  159.2728 H   0  0  0  0  0  0  0  0  0  0  0  0
  153.2467  141.3007  161.1017 H   0  0  0  0  0  0  0  0  0  0  0  0
  153.9016  142.2651  159.8214 H   0  0  0  0  0  0  0  0  0  0  0  0
  151.7452  142.9314  161.8264 H   0  0  0  0  0  0  0  0  0  0  0  0
  153.1697  143.8285  161.4033 H   0  0  0  0  0  0  0  0  0  0  0  0
  150.4692  143.7887  160.0667 H   0  0  0  0  0  0  0  0  0  0  0  0
  151.4445  145.1341  160.5553 H   0  0  0  0  0  0  0  0  0  0  0  0
  151.6255  145.2761  158.2641 H   0  0  0  0  0  0  0  0  0  0  0  0
  153.0861  144.3943  158.6045 H   0  0  0  0  0  0  0  0  0  0  0  0
  151.6550  143.5476  156.6679 H   0  0  0  0  0  0  0  0  0  0  0  0
  150.3987  143.1375  157.7959 H   0  0  0  0  0  0  0  0  0  0  0  0
  1  2  1  0  0  0  0
  1 18  1  0  0  0  0
  1 19  1  0  0  0  0
  1 20  1  0  0  0  0
  2  3  1  0  0  0  0
  2 21  1  0  0  0  0
  3  4  2  0  0  0  0
  3  5  1  0  0  0  0
  5  6  1  0  0  0  0
  5 22  1  0  0  0  0
  5 23  1  0  0  0  0
  6 17  1  0  0  0  0
  6  7  2  0  0  0  0
  7  8  1  0  0  0  0
  8  9  1  0  0  0  0
  9 10  1  0  0  0  0
  9 17  2  0  0  0  0
 10 16  1  0  0  0  0
 10 11  1  0  0  0  0
 10 24  1  0  0  0  0
 11 12  1  0  0  0  0
 11 25  1  0  0  0  0
 11 26  1  0  0  0  0
 12 13  1  0  0  0  0
 12 27  1  0  0  0  0
 12 28  1  0  0  0  0
 13 14  1  0  0  0  0
 13 29  1  0  0  0  0
 13 30  1  0  0  0  0
 14 15  1  0  0  0  0
 14 31  1  0  0  0  0
 14 32  1  0  0  0  0
 15 16  1  0  0  0  0
 15 33  1  0  0  0  0
 15 34  1  0  0  0  0
 16 35  1  0  0  0  0
 16 36  1  0  0  0  0
M  END
> <s_m_source_file>
AV-unprocessed.smi

> <i_m_source_file_index>
892

> <i_lp_mmshare_version>
43012

> <i_f3d_flags>
0

> <s_epik_input>
W0NIM11bTkhdQyg9TylbQ0gyXWMxbm9jKG4xKVtDSF0yW0NIMl1bQ0gyXVtDSDJdW0NIMl1bQ0gyXVtDSDJdMg==

> <s_epik_cmdline>
J2VwaWtfcHl0aG9uJywgJy1waCcsICc3LjAnLCAnLXRuJywgJzgnLCAnLW1hJywgJzIwMCcsICctbWV0YWxfYmluZGluZycsICctaW1hZScsICc8aW5maWxlLm1hZT4nLCAnLW9tYWUnLCAnPG91dGZpbGUubWFlPic=

> <r_lp_tautomer_probability>
1

> <r_epik_Ionization_Penalty>
1.02916e-07

> <r_epik_Ionization_Penalty_Charging>
0

> <r_epik_Ionization_Penalty_Neutral>
1.02916e-07

> <r_epik_State_Penalty>
-0

> <r_epik_Charging_Adjusted_Penalty>
0

> <i_epik_Tot_Q>
0

> <i_epik_Tot_abs_Q>
0

> <r_epik_Metal_State_Penalty>
-0

> <b_epik_Metal_Only>
0

> <s_lp_Force_Field>
OPLS_2005

> <r_lp_Energy>
13.6586

> <b_lp_Chiralities_Consistent>
1

> <s_lp_Variant>
AV-unprocessed.smi:892-1

> <Gold.Version>
5.8.1

> <Gold.Id.Protein>
6NUR|6NUR_protein|mol2

> <Gold.PLP.Fitness>
44.0188

> <Gold.PLP.PLP>
-36.2240

> <Gold.PLP.part.hbond>
-4.0000

> <Gold.PLP.part.metal>
0.0000

> <Gold.PLP.part.buried>
-3.7137

> <Gold.PLP.part.nonpolar>
-27.7554

> <Gold.PLP.part.repulsive>
0.1497

> <Gold.PLP.ligand.clash>
0.0000

> <Gold.PLP.ligand.torsion>
0.5446

> <Gold.PLP.Chemscore.Hbond>
2.9350

> <Gold.PLP.Chemscore.CHOScore>
0.0000

> <Gold.PLP.Chemscore.Metal>
0.0000

> <Gold.Chemscore.Hbonds>
donor molecule, donor type, donor heavy atom, donor atom, acceptor molecule, acceptor atom, score
      L1  H     2    21       P1  7948  0.85
      P1  H  7997  8009       L1    17  0.96
      P1  H 10752 10763       L1     4  0.90

> <Gold.PLP.Chemscore.Internal.Correction>
0.0791

> <Gold.Rescore>
     Score         DG    S(hbond)    S(metal)    S(lipo)     H(rot)  DE(clash)    DE(int)     intcor
     17.12     -17.90       1.92        0.00      86.32       1.60       0.02       0.76       ----

> <Gold.Chemscore.Fitness>
17.1248

> <Gold.Chemscore.DG>
-17.8968

> <Gold.Chemscore.ZeroCoef>
-5.4800

> <Gold.Chemscore.Hbond>
1.9213

> <Gold.Chemscore.Metal>
0.0000

> <Gold.Chemscore.Lipo>
86.3220

> <Gold.Chemscore.Internal_Hbond>
0.0000

> <Gold.Chemscore.DEClash>
0.0164

> <Gold.Chemscore.DEInternal>
0.7557

> <Gold.Chemscore.Rot>
1.6016

> <Gold.Chemscore.Internal.Correction>
   9.000000E+99

> <Gold.Chemscore.Hbonds>
donor molecule, donor type, donor heavy atom, donor atom, acceptor molecule, acceptor atom, score
      L1  H     2    21       P1  7948  0.16
      P1  H  7997  8009       L1    17  0.80
      P1  H 10752 10763       L1     4  0.52

> <Gold.Chemscore.Hbond.Weighted>
-6.4172

> <Gold.Chemscore.Metal.Weighted>
-0.0000

> <Gold.Chemscore.Lipo.Weighted>
-10.0997

> <Gold.Chemscore.Internal_Hbond.Weighted>
0.0000

> <Gold.Chemscore.DEClash.Weighted>
0.0164

> <Gold.Chemscore.DEInternal.Weighted>
0.7557

> <Gold.Chemscore.Rot.Weighted>
4.1000

> <Gold.Chemscore.Internal.Correction.Weighted>
   9.000000E+99

> <Gold.Protein.RotatedTorsions>
[ 6907 6896 6895 6894 ] final  -55.60 input  -60.11 | X-H torsion
[ 7974 7965 7964 7962 ] final   -5.51 input  175.53 | X-H torsion
[ 8008 7997 7996 7995 ] final -164.67 input   59.86 | X-H torsion
[ 10167 10162 10161 10158 ] final  -40.09 input  -65.29 | X-H torsion
[ 10718 10713 10712 10709 ] final -150.26 input   66.30 | X-H torsion
[ 10763 10752 10751 10750 ] final   99.67 input  -60.55 | X-H torsion
[ 11005 11000 10999 10996 ] final  -45.72 input  -57.11 | X-H torsion

> <Gold.Protein.ActiveResidues>
 VAL166  LYS551  ARG553  GLY616  TRP617  ASP618  TYR619  PRO620  LYS621  CYS622 
 ASP623  PHE694  ASN695  SER759  ASP760  ASP761  ALA762  ILE779  LEU786  VAL792 
 PHE793  MET794  SER795  GLU796  ALA797  LYS798  CYS799  TRP800  GLU811  SER814 

> <Gold.Protein.RotatedAtoms>
  150.8238  134.7458  159.6794 H   0  0  0  0  0  0  0  0  0  0  0  0  # atno 6907 bound_to 6896
  152.4351  134.5700  159.9928 H   0  0  0  0  0  0  0  0  0  0  0  0  # atno 6908 bound_to 6896
  151.5877  133.3332  159.3057 H   0  0  0  0  0  0  0  0  0  0  0  0  # atno 6909 bound_to 6896
  146.2351  140.2032  142.8334 H   0  0  0  0  0  0  0  0  0  0  0  0  # atno 7974 bound_to 7965
  155.8389  140.0945  157.1746 H   0  0  0  0  0  0  0  0  0  0  0  0  # atno 8008 bound_to 7997
  154.3981  140.1405  156.3766 H   0  0  0  0  0  0  0  0  0  0  0  0  # atno 8009 bound_to 7997
  155.8085  140.3450  155.5446 H   0  0  0  0  0  0  0  0  0  0  0  0  # atno 8010 bound_to 7997
  140.7045  143.3174  151.2875 H   0  0  0  0  0  0  0  0  0  0  0  0  # atno 10167 bound_to 10162
  156.4438  130.8135  151.2365 H   0  0  0  0  0  0  0  0  0  0  0  0  # atno 10718 bound_to 10713
  153.3043  135.4105  155.1280 H   0  0  0  0  0  0  0  0  0  0  0  0  # atno 10763 bound_to 10752
  154.8558  135.3549  154.5810 H   0  0  0  0  0  0  0  0  0  0  0  0  # atno 10764 bound_to 10752
  153.6236  135.7063  153.5360 H   0  0  0  0  0  0  0  0  0  0  0  0  # atno 10765 bound_to 10752
  141.0533  133.6735  156.3052 H   0  0  0  0  0  0  0  0  0  0  0  0  # atno 11005 bound_to 11000
  144.9766  140.8419  143.5423 LP  0  0  0  0  0  0  0  0  0  0  0  0  # atno 17320 bound_to 7965
  145.2020  139.2247  143.5188 LP  0  0  0  0  0  0  0  0  0  0  0  0  # atno 17321 bound_to 7965
  139.6617  144.0177  152.2697 LP  0  0  0  0  0  0  0  0  0  0  0  0  # atno 17342 bound_to 10162
  139.9746  144.6470  150.7957 LP  0  0  0  0  0  0  0  0  0  0  0  0  # atno 17343 bound_to 10162
  157.7505  131.0159  150.3525 LP  0  0  0  0  0  0  0  0  0  0  0  0  # atno 17370 bound_to 10713
  156.3889  130.3894  149.7045 LP  0  0  0  0  0  0  0  0  0  0  0  0  # atno 17371 bound_to 10713
  140.6013  134.5552  157.5518 LP  0  0  0  0  0  0  0  0  0  0  0  0  # atno 17394 bound_to 11000
  139.9369  134.7859  156.0780 LP  0  0  0  0  0  0  0  0  0  0  0  0  # atno 17395 bound_to 11000

$$$$
