AV-unprocessed.smi:3058|AV-procd|sdf|11670|dock8
  -GOLD-   2272017 73D 1   1.00000     0.00000
 Structure written by MMmdl.
 38 40  0  0  0  0  0  0  0  0  1 V2000
  150.0925  140.4096  156.7791 O   0  0  0  0  0  0  0  0  0  0  0  0
  149.7284  141.4547  156.2381 C   0  0  0  0  0  0  0  0  0  0  0  0
  149.8263  142.6549  156.8300 N   0  0  0  0  0  0  0  0  0  0  0  0
  150.3501  142.8860  158.1708 C   0  0  0  0  0  0  0  0  0  0  0  0
  151.8785  142.7277  158.2160 C   0  0  0  0  0  0  0  0  0  0  0  0
  152.4057  142.7050  159.6370 C   0  0  0  0  0  0  0  0  0  0  0  0
  152.0760  143.7311  160.5460 C   0  0  0  0  0  0  0  0  0  0  0  0
  152.5839  143.6641  161.8577 C   0  0  0  0  0  0  0  0  0  0  0  0
  153.4015  142.5699  162.2049 C   0  0  0  0  0  0  0  0  0  0  0  0
  153.7231  141.5812  161.3428 N   0  0  0  0  0  0  0  0  0  0  0  0
  153.2323  141.6535  160.0868 C   0  0  0  0  0  0  0  0  0  0  0  0
  149.1476  141.4495  154.8130 C   0  0  1  0  0  0  0  0  0  0  0  0
  148.9413  140.0411  154.2021 C   0  0  0  0  0  0  0  0  0  0  0  0
  147.4649  140.0670  153.7635 C   0  0  1  0  0  0  0  0  0  0  0  0
  146.5572  139.9939  155.0059 C   0  0  0  0  0  0  0  0  0  0  0  0
  146.6944  141.4037  155.6094 C   0  0  0  0  0  0  0  0  0  0  0  0
  147.7320  142.0719  154.6802 C   0  0  2  0  0  0  0  0  0  0  0  0
  147.2934  141.5178  153.3276 C   0  0  0  0  0  0  0  0  0  0  0  0
  149.5129  143.4653  156.3156 H   0  0  0  0  0  0  0  0  0  0  0  0
  150.0567  143.8776  158.5202 H   0  0  0  0  0  0  0  0  0  0  0  0
  149.8817  142.1685  158.8451 H   0  0  0  0  0  0  0  0  0  0  0  0
  152.1752  141.8070  157.7118 H   0  0  0  0  0  0  0  0  0  0  0  0
  152.3610  143.5432  157.6756 H   0  0  0  0  0  0  0  0  0  0  0  0
  151.4437  144.5540  160.2461 H   0  0  0  0  0  0  0  0  0  0  0  0
  152.3516  144.4322  162.5804 H   0  0  0  0  0  0  0  0  0  0  0  0
  153.8075  142.4867  163.2023 H   0  0  0  0  0  0  0  0  0  0  0  0
  153.5047  140.8459  159.4231 H   0  0  0  0  0  0  0  0  0  0  0  0
  149.8313  142.0030  154.1661 H   0  0  0  0  0  0  0  0  0  0  0  0
  149.5923  139.9092  153.3370 H   0  0  0  0  0  0  0  0  0  0  0  0
  149.1467  139.2166  154.8861 H   0  0  0  0  0  0  0  0  0  0  0  0
  147.2234  139.3246  153.0025 H   0  0  0  0  0  0  0  0  0  0  0  0
  145.5220  139.7960  154.7251 H   0  0  0  0  0  0  0  0  0  0  0  0
  146.8720  139.2132  155.6995 H   0  0  0  0  0  0  0  0  0  0  0  0
  145.7413  141.9305  155.5478 H   0  0  0  0  0  0  0  0  0  0  0  0
  146.9813  141.3917  156.6601 H   0  0  0  0  0  0  0  0  0  0  0  0
  147.7300  143.1607  154.7379 H   0  0  0  0  0  0  0  0  0  0  0  0
  147.9517  141.8041  152.5053 H   0  0  0  0  0  0  0  0  0  0  0  0
  146.2648  141.7719  153.0652 H   0  0  0  0  0  0  0  0  0  0  0  0
  1  2  2  0  0  0  0
  2  3  1  0  0  0  0
  2 12  1  0  0  0  0
  3  4  1  0  0  0  0
  3 19  1  0  0  0  0
  4  5  1  0  0  0  0
  4 20  1  0  0  0  0
  4 21  1  0  0  0  0
  5  6  1  0  0  0  0
  5 22  1  0  0  0  0
  5 23  1  0  0  0  0
  6 11  1  0  0  0  0
  6  7  2  0  0  0  0
  7  8  1  0  0  0  0
  7 24  1  0  0  0  0
  8  9  2  0  0  0  0
  8 25  1  0  0  0  0
  9 10  1  0  0  0  0
  9 26  1  0  0  0  0
 10 11  2  0  0  0  0
 11 27  1  0  0  0  0
 12 17  1  0  0  0  0
 12 13  1  0  0  0  0
 12 28  1  0  0  0  0
 13 14  1  0  0  0  0
 13 29  1  0  0  0  0
 13 30  1  0  0  0  0
 14 18  1  0  0  0  0
 14 15  1  0  0  0  0
 14 31  1  0  0  0  0
 15 16  1  0  0  0  0
 15 32  1  0  0  0  0
 15 33  1  0  0  0  0
 16 17  1  0  0  0  0
 16 34  1  0  0  0  0
 16 35  1  0  0  0  0
 17 18  1  0  0  0  0
 17 36  1  0  0  0  0
 18 37  1  0  0  0  0
 18 38  1  0  0  0  0
M  END
> <s_m_source_file>
AV-unprocessed.smi

> <i_m_source_file_index>
3058

> <i_lp_mmshare_version>
43012

> <i_f3d_flags>
0

> <s_epik_input>
W0NIMl0xW0NIMl1bQ0BIXShbQ0gyXTIpW0NAQEhdKFtDSDJdW0NAQEhdMTIpQyg9TylbTkhdW0NIMl1bQ0gyXWMzW2NIXVtjSF1bY0hdbltjSF0z

> <s_epik_cmdline>
J2VwaWtfcHl0aG9uJywgJy1waCcsICc3LjAnLCAnLXRuJywgJzgnLCAnLW1hJywgJzIwMCcsICctbWV0YWxfYmluZGluZycsICctaW1hZScsICc8aW5maWxlLm1hZT4nLCAnLW9tYWUnLCAnPG91dGZpbGUubWFlPic=

> <r_epik_Ionization_Penalty>
0.0135821

> <r_epik_Ionization_Penalty_Charging>
0

> <r_epik_Ionization_Penalty_Neutral>
0.0135821

> <r_epik_State_Penalty>
0.0105782

> <r_epik_Charging_Adjusted_Penalty>
0.0105782

> <i_epik_Tot_Q>
0

> <i_epik_Tot_abs_Q>
0

> <r_epik_Metal_State_Penalty>
0.0103407

> <b_epik_Metal_Only>
0

> <s_lp_Force_Field>
OPLS_2005

> <r_lp_Energy>
46.4092

> <b_lp_Chiralities_Consistent>
1

> <s_lp_Variant>
AV-unprocessed.smi:3058-2

> <Gold.Version>
5.8.1

> <Gold.Id.Protein>
6NUR|6NUR_protein|mol2

> <Gold.PLP.Fitness>
42.5303

> <Gold.PLP.PLP>
-39.8959

> <Gold.PLP.part.hbond>
-1.0000

> <Gold.PLP.part.metal>
0.0000

> <Gold.PLP.part.buried>
-3.9045

> <Gold.PLP.part.nonpolar>
-34.2517

> <Gold.PLP.part.repulsive>
0.0372

> <Gold.PLP.ligand.clash>
0.0000

> <Gold.PLP.ligand.torsion>
0.1899

> <Gold.PLP.Chemscore.Hbond>
1.0000

> <Gold.PLP.Chemscore.CHOScore>
0.0000

> <Gold.PLP.Chemscore.Metal>
0.0000

> <Gold.Chemscore.Hbonds>
donor molecule, donor type, donor heavy atom, donor atom, acceptor molecule, acceptor atom, score
      L1  H     3    19       P1  8028  1.00

> <Gold.PLP.Chemscore.Internal.Correction>
0.0141

> <Gold.Rescore>
     Score         DG    S(hbond)    S(metal)    S(lipo)     H(rot)  DE(clash)    DE(int)     intcor
     18.13     -18.41       0.99        0.00     112.05       1.37       0.05       0.22       ----

> <Gold.Chemscore.Fitness>
18.1298

> <Gold.Chemscore.DG>
-18.4080

> <Gold.Chemscore.ZeroCoef>
-5.4800

> <Gold.Chemscore.Hbond>
0.9922

> <Gold.Chemscore.Metal>
0.0000

> <Gold.Chemscore.Lipo>
112.0452

> <Gold.Chemscore.Internal_Hbond>
0.0000

> <Gold.Chemscore.DEClash>
0.0549

> <Gold.Chemscore.DEInternal>
0.2232

> <Gold.Chemscore.Rot>
1.3653

> <Gold.Chemscore.Internal.Correction>
   9.000000E+99

> <Gold.Chemscore.Hbonds>
donor molecule, donor type, donor heavy atom, donor atom, acceptor molecule, acceptor atom, score
      L1  H     3    19       P1  8028  0.95

> <Gold.Chemscore.Hbond.Weighted>
-3.3138

> <Gold.Chemscore.Metal.Weighted>
-0.0000

> <Gold.Chemscore.Lipo.Weighted>
-13.1093

> <Gold.Chemscore.Internal_Hbond.Weighted>
0.0000

> <Gold.Chemscore.DEClash.Weighted>
0.0549

> <Gold.Chemscore.DEInternal.Weighted>
0.2232

> <Gold.Chemscore.Rot.Weighted>
3.4951

> <Gold.Chemscore.Internal.Correction.Weighted>
   9.000000E+99

> <Gold.Protein.RotatedTorsions>
[ 6907 6896 6895 6894 ] final  -86.88 input  -60.11 | X-H torsion
[ 7974 7965 7964 7962 ] final  -71.00 input  175.53 | X-H torsion
[ 8008 7997 7996 7995 ] final -122.92 input   59.86 | X-H torsion
[ 10167 10162 10161 10158 ] final  139.69 input  -65.29 | X-H torsion
[ 10718 10713 10712 10709 ] final   26.16 input   66.30 | X-H torsion
[ 10763 10752 10751 10750 ] final  144.35 input  -60.55 | X-H torsion
[ 11005 11000 10999 10996 ] final  -37.65 input  -57.11 | X-H torsion

> <Gold.Protein.ActiveResidues>
 VAL166  LYS551  ARG553  GLY616  TRP617  ASP618  TYR619  PRO620  LYS621  CYS622 
 ASP623  PHE694  ASN695  SER759  ASP760  ASP761  ALA762  ILE779  LEU786  VAL792 
 PHE793  MET794  SER795  GLU796  ALA797  LYS798  CYS799  TRP800  GLU811  SER814 

> <Gold.Protein.RotatedAtoms>
  150.6866  134.2982  159.4694 H   0  0  0  0  0  0  0  0  0  0  0  0  # atno 6907 bound_to 6896
  152.0880  134.9424  160.0581 H   0  0  0  0  0  0  0  0  0  0  0  0  # atno 6908 bound_to 6896
  152.0750  133.4090  159.4513 H   0  0  0  0  0  0  0  0  0  0  0  0  # atno 6909 bound_to 6896
  145.6837  140.9179  143.0819 H   0  0  0  0  0  0  0  0  0  0  0  0  # atno 7974 bound_to 7965
  155.1721  140.0408  157.2865 H   0  0  0  0  0  0  0  0  0  0  0  0  # atno 8008 bound_to 7997
  154.6262  140.2513  155.7461 H   0  0  0  0  0  0  0  0  0  0  0  0  # atno 8009 bound_to 7997
  156.2460  140.2884  156.0593 H   0  0  0  0  0  0  0  0  0  0  0  0  # atno 8010 bound_to 7997
  139.5071  144.6279  151.5891 H   0  0  0  0  0  0  0  0  0  0  0  0  # atno 10167 bound_to 10162
  157.2031  130.6899  149.6197 H   0  0  0  0  0  0  0  0  0  0  0  0  # atno 10718 bound_to 10713
  153.9875  135.2935  155.3415 H   0  0  0  0  0  0  0  0  0  0  0  0  # atno 10763 bound_to 10752
  154.7234  135.5099  153.8851 H   0  0  0  0  0  0  0  0  0  0  0  0  # atno 10764 bound_to 10752
  153.0825  135.6683  154.0131 H   0  0  0  0  0  0  0  0  0  0  0  0  # atno 10765 bound_to 10752
  140.9968  133.6976  156.1948 H   0  0  0  0  0  0  0  0  0  0  0  0  # atno 11005 bound_to 11000
  144.7018  139.8730  143.7442 LP  0  0  0  0  0  0  0  0  0  0  0  0  # atno 17320 bound_to 7965
  146.0942  139.3934  143.0387 LP  0  0  0  0  0  0  0  0  0  0  0  0  # atno 17321 bound_to 7965
  140.6002  143.9623  150.6381 LP  0  0  0  0  0  0  0  0  0  0  0  0  # atno 17342 bound_to 10162
  140.2832  143.3375  152.1131 LP  0  0  0  0  0  0  0  0  0  0  0  0  # atno 17343 bound_to 10162
  155.9698  130.4576  150.5968 LP  0  0  0  0  0  0  0  0  0  0  0  0  # atno 17370 bound_to 10713
  157.3747  131.0771  151.1528 LP  0  0  0  0  0  0  0  0  0  0  0  0  # atno 17371 bound_to 10713
  140.6954  134.4622  157.5588 LP  0  0  0  0  0  0  0  0  0  0  0  0  # atno 17394 bound_to 11000
  139.9018  134.8538  156.1863 LP  0  0  0  0  0  0  0  0  0  0  0  0  # atno 17395 bound_to 11000

$$$$
