AV-unprocessed.smi:101|AV-procd|sdf|913|dock2
  -GOLD-   2262017413D 1   1.00000     0.00000
 Structure written by MMmdl.
 44 46  0  0  0  0  0  0  0  0  1 V2000
  145.6314  144.0404  153.0500 C   0  0  0  0  0  0  0  0  0  0  0  0
  145.7301  143.0734  154.2189 C   0  0  0  0  0  0  0  0  0  0  0  0
  146.4397  141.9181  154.1494 C   0  0  0  0  0  0  0  0  0  0  0  0
  146.5475  141.0098  155.1991 N   0  0  0  0  0  0  0  0  0  0  0  0
  147.3776  139.7380  155.1053 C   0  0  2  0  0  0  0  0  0  0  0  0
  148.5730  139.9175  155.8029 O   0  0  0  0  0  0  0  0  0  0  0  0
  149.5782  140.3522  154.8957 C   0  0  1  0  0  0  0  0  0  0  0  0
  150.9695  140.2745  155.5357 C   0  0  0  0  0  0  0  0  0  0  0  0
  150.9839  141.1803  156.6257 O   0  0  0  0  0  0  0  0  0  0  0  0
  151.9526  141.1191  157.5553 C   0  0  0  0  0  0  0  0  0  0  0  0
  152.6866  140.1420  157.7144 O   0  0  0  0  0  0  0  0  0  0  0  0
  152.0404  142.3634  158.3732 C   0  0  0  0  0  0  0  0  0  0  0  0
  151.5889  143.5872  157.8270 C   0  0  0  0  0  0  0  0  0  0  0  0
  151.6621  144.7774  158.5769 C   0  0  0  0  0  0  0  0  0  0  0  0
  152.1881  144.7580  159.8820 C   0  0  0  0  0  0  0  0  0  0  0  0
  152.6410  143.5470  160.4368 C   0  0  0  0  0  0  0  0  0  0  0  0
  152.5682  142.3560  159.6888 C   0  0  0  0  0  0  0  0  0  0  0  0
  149.3172  139.4502  153.6899 C   0  0  1  0  0  0  0  0  0  0  0  0
  149.8860  138.1678  153.9026 O   0  0  0  0  0  0  0  0  0  0  0  0
  147.7865  139.4326  153.6420 C   0  0  1  0  0  0  0  0  0  0  0  0
  147.2653  138.2104  153.1542 O   0  0  0  0  0  0  0  0  0  0  0  0
  145.9413  141.3214  156.4346 C   0  0  0  0  0  0  0  0  0  0  0  0
  146.0420  140.5998  157.4261 O   0  0  0  0  0  0  0  0  0  0  0  0
  145.2055  142.5024  156.5037 N   0  0  0  0  0  0  0  0  0  0  0  0
  145.0392  143.4190  155.4634 C   0  0  0  0  0  0  0  0  0  0  0  0
  144.3568  144.4261  155.6439 O   0  0  0  0  0  0  0  0  0  0  0  0
  144.7594  142.7180  157.3833 H   0  0  0  0  0  0  0  0  0  0  0  0
  146.1915  143.6897  152.1828 H   0  0  0  0  0  0  0  0  0  0  0  0
  146.0276  145.0172  153.3295 H   0  0  0  0  0  0  0  0  0  0  0  0
  144.5916  144.1667  152.7464 H   0  0  0  0  0  0  0  0  0  0  0  0
  146.9443  141.7175  153.2165 H   0  0  0  0  0  0  0  0  0  0  0  0
  146.7747  138.9652  155.5861 H   0  0  0  0  0  0  0  0  0  0  0  0
  149.3779  141.3839  154.5992 H   0  0  0  0  0  0  0  0  0  0  0  0
  151.1907  139.2592  155.8679 H   0  0  0  0  0  0  0  0  0  0  0  0
  151.7344  140.5685  154.8157 H   0  0  0  0  0  0  0  0  0  0  0  0
  151.1819  143.6268  156.8267 H   0  0  0  0  0  0  0  0  0  0  0  0
  151.3145  145.7063  158.1495 H   0  0  0  0  0  0  0  0  0  0  0  0
  152.2440  145.6709  160.4564 H   0  0  0  0  0  0  0  0  0  0  0  0
  153.0453  143.5304  161.4383 H   0  0  0  0  0  0  0  0  0  0  0  0
  152.9250  141.4444  160.1455 H   0  0  0  0  0  0  0  0  0  0  0  0
  149.7430  139.8641  152.7752 H   0  0  0  0  0  0  0  0  0  0  0  0
  149.8151  137.6690  153.1033 H   0  0  0  0  0  0  0  0  0  0  0  0
  147.4481  140.2421  152.9933 H   0  0  0  0  0  0  0  0  0  0  0  0
  147.9044  137.8243  152.5746 H   0  0  0  0  0  0  0  0  0  0  0  0
  1  2  1  0  0  0  0
  1 28  1  0  0  0  0
  1 29  1  0  0  0  0
  1 30  1  0  0  0  0
  2 25  1  0  0  0  0
  2  3  2  0  0  0  0
  3  4  1  0  0  0  0
  3 31  1  0  0  0  0
  4  5  1  0  0  0  0
  4 22  1  0  0  0  0
  5 20  1  0  0  0  0
  5  6  1  0  0  0  0
  5 32  1  0  0  0  0
  6  7  1  0  0  0  0
  7  8  1  0  0  0  0
  7 18  1  0  0  0  0
  7 33  1  0  0  0  0
  8  9  1  0  0  0  0
  8 34  1  0  0  0  0
  8 35  1  0  0  0  0
  9 10  1  0  0  0  0
 10 11  2  0  0  0  0
 10 12  1  0  0  0  0
 12 17  1  0  0  0  0
 12 13  2  0  0  0  0
 13 14  1  0  0  0  0
 13 36  1  0  0  0  0
 14 15  2  0  0  0  0
 14 37  1  0  0  0  0
 15 16  1  0  0  0  0
 15 38  1  0  0  0  0
 16 17  2  0  0  0  0
 16 39  1  0  0  0  0
 17 40  1  0  0  0  0
 18 19  1  0  0  0  0
 18 20  1  0  0  0  0
 18 41  1  0  0  0  0
 19 42  1  0  0  0  0
 20 21  1  0  0  0  0
 20 43  1  0  0  0  0
 21 44  1  0  0  0  0
 22 23  2  0  0  0  0
 22 24  1  0  0  0  0
 24 27  1  0  0  0  0
 24 25  1  0  0  0  0
 25 26  2  0  0  0  0
M  END
> <s_m_source_file>
AV-unprocessed.smi

> <i_m_source_file_index>
101

> <i_lp_mmshare_version>
43012

> <i_f3d_flags>
0

> <s_epik_input>
Tz1jMVtuSF1jKD1PKW4oW2NIXWMxW0NIM10pW0NAQEhdMk9bQ0BIXShbQ0BASF0oW09IXSlbQ0BIXTJbT0hdKVtDSDJdT0MoPU8pYzNbY0hdW2NIXVtjSF1bY0hdW2NIXTM=

> <s_epik_cmdline>
J2VwaWtfcHl0aG9uJywgJy1waCcsICc3LjAnLCAnLXRuJywgJzgnLCAnLW1hJywgJzIwMCcsICctbWV0YWxfYmluZGluZycsICctaW1hZScsICc8aW5maWxlLm1hZT4nLCAnLW9tYWUnLCAnPG91dGZpbGUubWFlPic=

> <r_lp_tautomer_probability>
0.999537

> <r_epik_Ionization_Penalty>
0.00263537

> <r_epik_Ionization_Penalty_Charging>
0.00263428

> <r_epik_Ionization_Penalty_Neutral>
1.09111e-06

> <r_epik_State_Penalty>
0.00183335

> <r_epik_Charging_Adjusted_Penalty>
0.00446763

> <i_epik_Tot_Q>
0

> <i_epik_Tot_abs_Q>
0

> <r_epik_Metal_State_Penalty>
1.00528

> <b_epik_Metal_Only>
0

> <s_epik_Chemistry_Notes>
This compound has an ester and may undergo hydrolysis at high or low pH. This compound contains an acetal/aminal-like group ( X-CH(R)-Y where X, Y are N, S, or O) that may be acid/base labile, releasing an aldehyde.

> <s_lp_Force_Field>
OPLS_2005

> <r_lp_Energy>
35.8118

> <b_lp_Chiralities_Consistent>
1

> <s_lp_Variant>
AV-unprocessed.smi:101-1

> <Gold.Version>
5.8.1

> <Gold.Id.Protein>
6NUR|6NUR_protein|mol2

> <Gold.PLP.Fitness>
53.2370

> <Gold.PLP.PLP>
-45.9420

> <Gold.PLP.part.hbond>
-3.0000

> <Gold.PLP.part.metal>
0.0000

> <Gold.PLP.part.buried>
-2.0263

> <Gold.PLP.part.nonpolar>
-40.0152

> <Gold.PLP.part.repulsive>
0.1520

> <Gold.PLP.ligand.clash>
0.0000

> <Gold.PLP.ligand.torsion>
0.8567

> <Gold.PLP.Chemscore.Hbond>
2.9588

> <Gold.PLP.Chemscore.CHOScore>
0.0000

> <Gold.PLP.Chemscore.Metal>
0.0000

> <Gold.Chemscore.Hbonds>
donor molecule, donor type, donor heavy atom, donor atom, acceptor molecule, acceptor atom, score
      L1  H    19    42       P1  7948  0.98
      L1  H    21    44       P1  7948  1.00
      P1  H  7997  8010       L1    11  1.00

> <Gold.PLP.Chemscore.Internal.Correction>
0.1321

> <Gold.Rescore>
     Score         DG    S(hbond)    S(metal)    S(lipo)     H(rot)  DE(clash)    DE(int)     intcor
     17.34     -18.62       2.50        0.00     113.55       3.32       0.40       0.88       ----

> <Gold.Chemscore.Fitness>
17.3443

> <Gold.Chemscore.DG>
-18.6237

> <Gold.Chemscore.ZeroCoef>
-5.4800

> <Gold.Chemscore.Hbond>
2.5000

> <Gold.Chemscore.Metal>
0.0000

> <Gold.Chemscore.Lipo>
113.5523

> <Gold.Chemscore.Internal_Hbond>
0.0000

> <Gold.Chemscore.DEClash>
0.4024

> <Gold.Chemscore.DEInternal>
0.8771

> <Gold.Chemscore.Rot>
3.3172

> <Gold.Chemscore.Internal.Correction>
   9.000000E+99

> <Gold.Chemscore.Hbonds>
donor molecule, donor type, donor heavy atom, donor atom, acceptor molecule, acceptor atom, score
      L1  H    19    42       P1  7948  0.50
      L1  H    21    44       P1  7948  0.92
      P1  H  7997  8010       L1    11  0.89

> <Gold.Chemscore.Hbond.Weighted>
-8.3501

> <Gold.Chemscore.Metal.Weighted>
-0.0000

> <Gold.Chemscore.Lipo.Weighted>
-13.2856

> <Gold.Chemscore.Internal_Hbond.Weighted>
0.0000

> <Gold.Chemscore.DEClash.Weighted>
0.4024

> <Gold.Chemscore.DEInternal.Weighted>
0.8771

> <Gold.Chemscore.Rot.Weighted>
8.4920

> <Gold.Chemscore.Internal.Correction.Weighted>
   9.000000E+99

> <Gold.Protein.RotatedTorsions>
[ 6907 6896 6895 6894 ] final  156.41 input  -60.11 | X-H torsion
[ 7974 7965 7964 7962 ] final   72.97 input  175.53 | X-H torsion
[ 8008 7997 7996 7995 ] final   55.20 input   59.86 | X-H torsion
[ 10167 10162 10161 10158 ] final  166.07 input  -65.29 | X-H torsion
[ 10718 10713 10712 10709 ] final  164.84 input   66.30 | X-H torsion
[ 10763 10752 10751 10750 ] final  -32.43 input  -60.55 | X-H torsion
[ 11005 11000 10999 10996 ] final   33.29 input  -57.11 | X-H torsion

> <Gold.Protein.ActiveResidues>
 VAL166  LYS551  ARG553  GLY616  TRP617  ASP618  TYR619  PRO620  LYS621  CYS622 
 ASP623  PHE694  ASN695  SER759  ASP760  ASP761  ALA762  ILE779  LEU786  VAL792 
 PHE793  MET794  SER795  GLU796  ALA797  LYS798  CYS799  TRP800  GLU811  SER814 

> <Gold.Protein.RotatedAtoms>
  152.0301  133.3934  159.4293 H   0  0  0  0  0  0  0  0  0  0  0  0  # atno 6907 bound_to 6896
  150.6883  134.3530  159.4926 H   0  0  0  0  0  0  0  0  0  0  0  0  # atno 6908 bound_to 6896
  152.1315  134.9130  160.0609 H   0  0  0  0  0  0  0  0  0  0  0  0  # atno 6909 bound_to 6896
  145.7467  139.2743  143.1455 H   0  0  0  0  0  0  0  0  0  0  0  0  # atno 7974 bound_to 7965
  155.4972  140.3473  155.4365 H   0  0  0  0  0  0  0  0  0  0  0  0  # atno 8008 bound_to 7997
  156.0938  140.1417  156.9585 H   0  0  0  0  0  0  0  0  0  0  0  0  # atno 8009 bound_to 7997
  154.4651  140.0920  156.6975 H   0  0  0  0  0  0  0  0  0  0  0  0  # atno 8010 bound_to 7997
  139.4917  144.4066  151.9348 H   0  0  0  0  0  0  0  0  0  0  0  0  # atno 10167 bound_to 10162
  157.0886  131.0411  151.2546 H   0  0  0  0  0  0  0  0  0  0  0  0  # atno 10718 bound_to 10713
  153.8137  135.6880  153.4837 H   0  0  0  0  0  0  0  0  0  0  0  0  # atno 10763 bound_to 10752
  153.1612  135.4579  154.9773 H   0  0  0  0  0  0  0  0  0  0  0  0  # atno 10764 bound_to 10752
  154.7957  135.3318  154.7615 H   0  0  0  0  0  0  0  0  0  0  0  0  # atno 10765 bound_to 10752
  140.2646  134.3152  155.7846 H   0  0  0  0  0  0  0  0  0  0  0  0  # atno 11005 bound_to 11000
  146.0396  140.8178  142.9835 LP  0  0  0  0  0  0  0  0  0  0  0  0  # atno 17320 bound_to 7965
  144.6858  140.2890  143.7281 LP  0  0  0  0  0  0  0  0  0  0  0  0  # atno 17321 bound_to 7965
  140.3506  144.3093  150.5950 LP  0  0  0  0  0  0  0  0  0  0  0  0  # atno 17342 bound_to 10162
  140.5488  143.2210  151.7962 LP  0  0  0  0  0  0  0  0  0  0  0  0  # atno 17343 bound_to 10162
  157.4740  130.7725  149.7350 LP  0  0  0  0  0  0  0  0  0  0  0  0  # atno 17370 bound_to 10713
  155.9904  130.3945  150.3030 LP  0  0  0  0  0  0  0  0  0  0  0  0  # atno 17371 bound_to 10713
  141.2186  133.7430  156.9241 LP  0  0  0  0  0  0  0  0  0  0  0  0  # atno 17394 bound_to 11000
  140.1431  134.9280  157.2493 LP  0  0  0  0  0  0  0  0  0  0  0  0  # atno 17395 bound_to 11000

$$$$
