AV-unprocessed.smi:244|AV-procd|sdf|1873|dock1
  -GOLD-   2262020513D 1   1.00000     0.00000
 Structure written by MMmdl.
 56 60  0  0  0  0  0  0  0  0  1 V2000
  148.7676  132.1019  154.0448 C   0  0  0  0  0  0  0  0  0  0  0  0
  147.5224  132.2209  153.3002 N   0  0  0  0  0  0  0  0  0  0  0  0
  147.1370  130.9088  152.7822 C   0  0  0  0  0  0  0  0  0  0  0  0
  145.7738  131.0081  152.0811 C   0  0  0  0  0  0  0  0  0  0  0  0
  145.8386  132.0204  150.9227 C   0  0  1  0  0  0  0  0  0  0  0  0
  144.5894  132.1730  150.2443 O   0  0  0  0  0  0  0  0  0  0  0  0
  143.5913  132.8695  150.9861 C   0  0  0  0  0  0  0  0  0  0  0  0
  144.1136  134.2543  151.3918 C   0  0  0  0  0  0  0  0  0  0  0  0
  145.3568  134.1215  152.1400 N   0  0  0  0  0  0  0  0  0  0  0  0
  145.7490  135.2914  152.6889 C   0  0  0  0  0  0  0  0  0  0  0  0
  145.3263  136.4279  152.0833 N   0  0  0  0  0  0  0  0  0  0  0  0
  145.6662  137.6180  152.5871 C   0  0  0  0  0  0  0  0  0  0  0  0
  146.4103  137.8884  153.6618 N   0  0  0  0  0  0  0  0  0  0  0  0
  146.8422  136.7449  154.2675 C   0  0  0  0  0  0  0  0  0  0  0  0
  146.5596  135.4136  153.8522 C   0  0  0  0  0  0  0  0  0  0  0  0
  147.1657  134.5083  154.7150 N   0  0  0  0  0  0  0  0  0  0  0  0
  147.7781  135.2625  155.5868 C   0  0  0  0  0  0  0  0  0  0  0  0
  147.6409  136.6181  155.3901 N   0  0  0  0  0  0  0  0  0  0  0  0
  148.2159  137.6786  156.2029 C   0  0  0  0  0  0  0  0  0  0  0  0
  149.7523  137.8128  156.0609 C   0  0  0  0  0  0  0  0  0  0  0  0
  150.3433  136.6946  156.7012 O   0  0  0  0  0  0  0  0  0  0  0  0
  150.2138  137.8345  154.5867 C   0  0  0  0  0  0  0  0  0  0  0  0
  151.7069  138.1811  154.4496 C   0  0  0  0  0  0  0  0  0  0  0  0
  151.9874  139.4120  155.1049 O   0  0  0  0  0  0  0  0  0  0  0  0
  151.7397  139.3587  156.5044 C   0  0  0  0  0  0  0  0  0  0  0  0
  150.2465  139.0923  156.7648 C   0  0  0  0  0  0  0  0  0  0  0  0
  146.3877  133.3819  151.4050 C   0  0  1  0  0  0  0  0  0  0  0  0
  147.7008  133.1786  152.2062 C   0  0  0  0  0  0  0  0  0  0  0  0
  148.6481  131.4126  154.8812 H   0  0  0  0  0  0  0  0  0  0  0  0
  149.0627  133.0693  154.4533 H   0  0  0  0  0  0  0  0  0  0  0  0
  149.5769  131.7357  153.4116 H   0  0  0  0  0  0  0  0  0  0  0  0
  147.8962  130.5343  152.0936 H   0  0  0  0  0  0  0  0  0  0  0  0
  147.0694  130.1962  153.6052 H   0  0  0  0  0  0  0  0  0  0  0  0
  145.4778  130.0296  151.7025 H   0  0  0  0  0  0  0  0  0  0  0  0
  145.0234  131.2969  152.8169 H   0  0  0  0  0  0  0  0  0  0  0  0
  146.5356  131.6216  150.1846 H   0  0  0  0  0  0  0  0  0  0  0  0
  142.7043  132.9752  150.3615 H   0  0  0  0  0  0  0  0  0  0  0  0
  143.2854  132.2967  151.8610 H   0  0  0  0  0  0  0  0  0  0  0  0
  144.2808  134.8601  150.5002 H   0  0  0  0  0  0  0  0  0  0  0  0
  143.3661  134.7703  151.9962 H   0  0  0  0  0  0  0  0  0  0  0  0
  145.2872  138.4765  152.0524 H   0  0  0  0  0  0  0  0  0  0  0  0
  148.3562  134.8488  156.4006 H   0  0  0  0  0  0  0  0  0  0  0  0
  147.7318  138.6160  155.9258 H   0  0  0  0  0  0  0  0  0  0  0  0
  147.9449  137.4954  157.2438 H   0  0  0  0  0  0  0  0  0  0  0  0
  149.6593  136.0842  156.9309 H   0  0  0  0  0  0  0  0  0  0  0  0
  150.0144  136.8783  154.1013 H   0  0  0  0  0  0  0  0  0  0  0  0
  149.6354  138.5815  154.0414 H   0  0  0  0  0  0  0  0  0  0  0  0
  152.3341  137.3872  154.8577 H   0  0  0  0  0  0  0  0  0  0  0  0
  151.9696  138.2786  153.3960 H   0  0  0  0  0  0  0  0  0  0  0  0
  152.3643  138.5931  156.9674 H   0  0  0  0  0  0  0  0  0  0  0  0
  152.0294  140.3118  156.9474 H   0  0  0  0  0  0  0  0  0  0  0  0
  149.6765  139.9477  156.3993 H   0  0  0  0  0  0  0  0  0  0  0  0
  150.0575  139.0368  157.8378 H   0  0  0  0  0  0  0  0  0  0  0  0
  146.6279  133.9698  150.5183 H   0  0  0  0  0  0  0  0  0  0  0  0
  148.0707  134.1273  152.5964 H   0  0  0  0  0  0  0  0  0  0  0  0
  148.4756  132.8069  151.5340 H   0  0  0  0  0  0  0  0  0  0  0  0
  1  2  1  0  0  0  0
  1 29  1  0  0  0  0
  1 30  1  0  0  0  0
  1 31  1  0  0  0  0
  2 28  1  0  0  0  0
  2  3  1  0  0  0  0
  3  4  1  0  0  0  0
  3 32  1  0  0  0  0
  3 33  1  0  0  0  0
  4  5  1  0  0  0  0
  4 34  1  0  0  0  0
  4 35  1  0  0  0  0
  5 27  1  0  0  0  0
  5  6  1  0  0  0  0
  5 36  1  0  0  0  0
  6  7  1  0  0  0  0
  7  8  1  0  0  0  0
  7 37  1  0  0  0  0
  7 38  1  0  0  0  0
  8  9  1  0  0  0  0
  8 39  1  0  0  0  0
  8 40  1  0  0  0  0
  9 10  1  0  0  0  0
  9 27  1  0  0  0  0
 10 15  1  0  0  0  0
 10 11  2  0  0  0  0
 11 12  1  0  0  0  0
 12 13  2  0  0  0  0
 12 41  1  0  0  0  0
 13 14  1  0  0  0  0
 14 18  1  0  0  0  0
 14 15  2  0  0  0  0
 15 16  1  0  0  0  0
 16 17  2  0  0  0  0
 17 18  1  0  0  0  0
 17 42  1  0  0  0  0
 18 19  1  0  0  0  0
 19 20  1  0  0  0  0
 19 43  1  0  0  0  0
 19 44  1  0  0  0  0
 20 26  1  0  0  0  0
 20 21  1  0  0  0  0
 20 22  1  0  0  0  0
 21 45  1  0  0  0  0
 22 23  1  0  0  0  0
 22 46  1  0  0  0  0
 22 47  1  0  0  0  0
 23 24  1  0  0  0  0
 23 48  1  0  0  0  0
 23 49  1  0  0  0  0
 24 25  1  0  0  0  0
 25 26  1  0  0  0  0
 25 50  1  0  0  0  0
 25 51  1  0  0  0  0
 26 52  1  0  0  0  0
 26 53  1  0  0  0  0
 27 28  1  0  0  0  0
 27 54  1  0  0  0  0
 28 55  1  0  0  0  0
 28 56  1  0  0  0  0
M  END
> <s_m_source_file>
AV-unprocessed.smi

> <i_m_source_file_index>
244

> <i_lp_mmshare_version>
43012

> <i_f3d_flags>
0

> <s_epik_input>
W0NIMl0xW0NIMl1OKFtDSDNdKVtDSDJdW0NAQEhdKFtDQEhdMTIpTihbQ0gyXVtDSDJdTzIpYyhuW2NIXW4zKWMoYzM0KW5bY0hdbjRbQ0gyXUM1KFtPSF0pW0NIMl1bQ0gyXU9bQ0gyXVtDSDJdNQ==

> <s_epik_cmdline>
J2VwaWtfcHl0aG9uJywgJy1waCcsICc3LjAnLCAnLXRuJywgJzgnLCAnLW1hJywgJzIwMCcsICctbWV0YWxfYmluZGluZycsICctaW1hZScsICc8aW5maWxlLm1hZT4nLCAnLW9tYWUnLCAnPG91dGZpbGUubWFlPic=

> <r_lp_tautomer_probability>
1

> <r_epik_Ionization_Penalty>
2.27765

> <r_epik_Ionization_Penalty_Charging>
0

> <r_epik_Ionization_Penalty_Neutral>
2.27765

> <r_epik_State_Penalty>
2.4114

> <r_epik_Charging_Adjusted_Penalty>
2.4114

> <i_epik_Tot_Q>
0

> <i_epik_Tot_abs_Q>
0

> <r_epik_Metal_State_Penalty>
2.39769

> <b_epik_Metal_Only>
0

> <s_lp_Force_Field>
OPLS_2005

> <r_lp_Energy>
50.0311

> <b_lp_Chiralities_Consistent>
1

> <s_lp_Variant>
AV-unprocessed.smi:244-10

> <Gold.Version>
5.8.1

> <Gold.Id.Protein>
6NUR|6NUR_protein|mol2

> <Gold.PLP.Fitness>
40.7411

> <Gold.PLP.PLP>
-33.0005

> <Gold.PLP.part.hbond>
-1.0000

> <Gold.PLP.part.metal>
0.0000

> <Gold.PLP.part.buried>
-5.3446

> <Gold.PLP.part.nonpolar>
-27.1599

> <Gold.PLP.part.repulsive>
0.8153

> <Gold.PLP.ligand.clash>
0.0000

> <Gold.PLP.ligand.torsion>
0.7192

> <Gold.PLP.Chemscore.Hbond>
0.9920

> <Gold.PLP.Chemscore.CHOScore>
2.0000

> <Gold.PLP.Chemscore.Metal>
0.0000

> <Gold.Chemscore.Hbonds>
donor molecule, donor type, donor heavy atom, donor atom, acceptor molecule, acceptor atom, score
      P1  H  7989  7998       L1    24  0.58
      L1  C    12    41       P1 10171  0.71
      L1  C    12    41       P1 10175  0.88

> <Gold.PLP.Chemscore.Internal.Correction>
0.2029

> <Gold.Rescore>
     Score         DG    S(hbond)    S(metal)    S(lipo)     H(rot)  DE(clash)    DE(int)     intcor
      9.56     -13.69       0.95        0.00      88.23       2.06       1.69       2.44       ----

> <Gold.Chemscore.Fitness>
9.5645

> <Gold.Chemscore.DG>
-13.6936

> <Gold.Chemscore.ZeroCoef>
-5.4800

> <Gold.Chemscore.Hbond>
0.9483

> <Gold.Chemscore.Metal>
0.0000

> <Gold.Chemscore.Lipo>
88.2297

> <Gold.Chemscore.Internal_Hbond>
0.0000

> <Gold.Chemscore.DEClash>
1.6880

> <Gold.Chemscore.DEInternal>
2.4410

> <Gold.Chemscore.Rot>
2.0611

> <Gold.Chemscore.Internal.Correction>
   9.000000E+99

> <Gold.Chemscore.Hbonds>
donor molecule, donor type, donor heavy atom, donor atom, acceptor molecule, acceptor atom, score
      P1  H  7989  7998       L1    24  0.19

> <Gold.Chemscore.Hbond.Weighted>
-3.1672

> <Gold.Chemscore.Metal.Weighted>
-0.0000

> <Gold.Chemscore.Lipo.Weighted>
-10.3229

> <Gold.Chemscore.Internal_Hbond.Weighted>
0.0000

> <Gold.Chemscore.DEClash.Weighted>
1.6880

> <Gold.Chemscore.DEInternal.Weighted>
2.4410

> <Gold.Chemscore.Rot.Weighted>
5.2765

> <Gold.Chemscore.Internal.Correction.Weighted>
   9.000000E+99

> <Gold.Protein.RotatedTorsions>
[ 6907 6896 6895 6894 ] final  139.70 input  -60.11 | X-H torsion
[ 7974 7965 7964 7962 ] final   83.29 input  175.53 | X-H torsion
[ 8008 7997 7996 7995 ] final -175.36 input   59.86 | X-H torsion
[ 10167 10162 10161 10158 ] final   -1.34 input  -65.29 | X-H torsion
[ 10718 10713 10712 10709 ] final -174.82 input   66.30 | X-H torsion
[ 10763 10752 10751 10750 ] final  175.79 input  -60.55 | X-H torsion
[ 11005 11000 10999 10996 ] final  -37.02 input  -57.11 | X-H torsion

> <Gold.Protein.ActiveResidues>
 VAL166  LYS551  ARG553  GLY616  TRP617  ASP618  TYR619  PRO620  LYS621  CYS622 
 ASP623  PHE694  ASN695  SER759  ASP760  ASP761  ALA762  ILE779  LEU786  VAL792 
 PHE793  MET794  SER795  GLU796  ALA797  LYS798  CYS799  TRP800  GLU811  SER814 

> <Gold.Protein.RotatedAtoms>
  152.2518  133.5222  159.5329 H   0  0  0  0  0  0  0  0  0  0  0  0  # atno 6907 bound_to 6896
  150.7096  134.0949  159.3954 H   0  0  0  0  0  0  0  0  0  0  0  0  # atno 6908 bound_to 6896
  151.8869  135.0432  160.0545 H   0  0  0  0  0  0  0  0  0  0  0  0  # atno 6909 bound_to 6896
  145.6139  139.2373  143.2176 H   0  0  0  0  0  0  0  0  0  0  0  0  # atno 7974 bound_to 7965
  155.9816  140.1183  157.0721 H   0  0  0  0  0  0  0  0  0  0  0  0  # atno 8008 bound_to 7997
  154.4184  140.1143  156.5511 H   0  0  0  0  0  0  0  0  0  0  0  0  # atno 8009 bound_to 7997
  155.6463  140.3473  155.4734 H   0  0  0  0  0  0  0  0  0  0  0  0  # atno 8010 bound_to 7997
  140.6806  143.6787  150.8124 H   0  0  0  0  0  0  0  0  0  0  0  0  # atno 10167 bound_to 10162
  156.7907  130.9517  151.3120 H   0  0  0  0  0  0  0  0  0  0  0  0  # atno 10718 bound_to 10713
  154.4724  135.2771  155.1633 H   0  0  0  0  0  0  0  0  0  0  0  0  # atno 10763 bound_to 10752
  154.3376  135.6177  153.5585 H   0  0  0  0  0  0  0  0  0  0  0  0  # atno 10764 bound_to 10752
  152.9865  135.5781  154.5107 H   0  0  0  0  0  0  0  0  0  0  0  0  # atno 10765 bound_to 10752
  140.9920  133.7000  156.1867 H   0  0  0  0  0  0  0  0  0  0  0  0  # atno 11005 bound_to 11000
  146.1483  140.6961  142.9334 LP  0  0  0  0  0  0  0  0  0  0  0  0  # atno 17320 bound_to 7965
  144.7258  140.4521  143.6974 LP  0  0  0  0  0  0  0  0  0  0  0  0  # atno 17321 bound_to 7965
  140.0486  143.5272  152.2684 LP  0  0  0  0  0  0  0  0  0  0  0  0  # atno 17342 bound_to 10162
  139.6126  144.7612  151.2918 LP  0  0  0  0  0  0  0  0  0  0  0  0  # atno 17343 bound_to 10162
  157.6602  130.8959  149.9813 LP  0  0  0  0  0  0  0  0  0  0  0  0  # atno 17370 bound_to 10713
  156.1161  130.3648  149.9966 LP  0  0  0  0  0  0  0  0  0  0  0  0  # atno 17371 bound_to 10713
  140.7025  134.4548  157.5585 LP  0  0  0  0  0  0  0  0  0  0  0  0  # atno 17394 bound_to 11000
  139.8997  134.8586  156.1951 LP  0  0  0  0  0  0  0  0  0  0  0  0  # atno 17395 bound_to 11000

$$$$
