AV-unprocessed.smi:1605|AV-procd|sdf|6460|dock4
  -GOLD-   22720 7113D 1   1.00000     0.00000
 Structure written by MMmdl.
 50 52  0  0  0  0  0  0  0  0  1 V2000
  142.9310  144.7589  155.4600 C   0  0  0  0  0  0  0  0  0  0  0  0
  143.9102  144.1270  156.2693 O   0  0  0  0  0  0  0  0  0  0  0  0
  144.6002  143.0617  155.6279 C   0  0  0  0  0  0  0  0  0  0  0  0
  145.7379  142.5102  156.5100 C   0  0  0  0  0  0  0  0  0  0  0  0
  146.6053  141.5131  155.7214 C   0  0  0  0  0  0  0  0  0  0  0  0
  147.1722  142.0978  154.5041 N   0  0  0  0  0  0  0  0  0  0  0  0
  148.0634  141.1522  153.8262 C   0  0  0  0  0  0  0  0  0  0  0  0
  149.2356  140.6105  154.6746 C   0  0  1  0  0  0  0  0  0  0  0  0
  150.2438  140.2049  153.7687 O   0  0  0  0  0  0  0  0  0  0  0  0
  149.8425  141.6062  155.6859 C   0  0  0  0  0  0  0  0  0  0  0  0
  150.6890  140.9584  156.6726 N   0  0  0  0  0  0  0  0  0  0  0  0
  151.0823  139.6703  156.6939 C   0  0  0  0  0  0  0  0  0  0  0  0
  151.8692  139.2907  157.6969 N   0  0  0  0  0  0  0  0  0  0  0  0
  152.0034  140.4713  158.4080 C   0  0  0  0  0  0  0  0  0  0  0  0
  152.7213  140.7534  159.5909 C   0  0  0  0  0  0  0  0  0  0  0  0
  152.7197  142.0524  160.1476 C   0  0  0  0  0  0  0  0  0  0  0  0
  153.5081  142.3118  161.4193 C   0  0  0  0  0  0  0  0  0  0  0  0
  151.9918  143.0943  159.5183 C   0  0  0  0  0  0  0  0  0  0  0  0
  151.9761  144.4982  160.0966 C   0  0  0  0  0  0  0  0  0  0  0  0
  151.2688  142.8294  158.3366 C   0  0  0  0  0  0  0  0  0  0  0  0
  151.2783  141.5330  157.7928 C   0  0  0  0  0  0  0  0  0  0  0  0
  146.0724  142.5419  153.6407 C   0  0  0  0  0  0  0  0  0  0  0  0
  145.1909  143.6043  154.3169 C   0  0  0  0  0  0  0  0  0  0  0  0
  142.4777  145.5794  156.0161 H   0  0  0  0  0  0  0  0  0  0  0  0
  142.1338  144.0722  155.1760 H   0  0  0  0  0  0  0  0  0  0  0  0
  143.3754  145.1751  154.5550 H   0  0  0  0  0  0  0  0  0  0  0  0
  143.9014  142.2597  155.3826 H   0  0  0  0  0  0  0  0  0  0  0  0
  146.3613  143.3326  156.8638 H   0  0  0  0  0  0  0  0  0  0  0  0
  145.3368  142.0192  157.3963 H   0  0  0  0  0  0  0  0  0  0  0  0
  147.4097  141.1687  156.3725 H   0  0  0  0  0  0  0  0  0  0  0  0
  146.0139  140.6313  155.4695 H   0  0  0  0  0  0  0  0  0  0  0  0
  147.4790  140.2793  153.5298 H   0  0  0  0  0  0  0  0  0  0  0  0
  148.4292  141.5785  152.8907 H   0  0  0  0  0  0  0  0  0  0  0  0
  148.9036  139.7173  155.2054 H   0  0  0  0  0  0  0  0  0  0  0  0
  149.8350  139.9670  152.9508 H   0  0  0  0  0  0  0  0  0  0  0  0
  150.4245  142.3725  155.1717 H   0  0  0  0  0  0  0  0  0  0  0  0
  149.0525  142.1150  156.2361 H   0  0  0  0  0  0  0  0  0  0  0  0
  150.7725  138.9714  155.9307 H   0  0  0  0  0  0  0  0  0  0  0  0
  153.2772  139.9601  160.0684 H   0  0  0  0  0  0  0  0  0  0  0  0
  154.3184  143.0155  161.2268 H   0  0  0  0  0  0  0  0  0  0  0  0
  153.9475  141.3932  161.8093 H   0  0  0  0  0  0  0  0  0  0  0  0
  152.8632  142.7276  162.1937 H   0  0  0  0  0  0  0  0  0  0  0  0
  151.4151  145.1837  159.4604 H   0  0  0  0  0  0  0  0  0  0  0  0
  152.9911  144.8851  160.1913 H   0  0  0  0  0  0  0  0  0  0  0  0
  151.5105  144.4990  161.0826 H   0  0  0  0  0  0  0  0  0  0  0  0
  150.7088  143.6125  157.8466 H   0  0  0  0  0  0  0  0  0  0  0  0
  146.4485  142.9523  152.7083 H   0  0  0  0  0  0  0  0  0  0  0  0
  145.4550  141.6867  153.3609 H   0  0  0  0  0  0  0  0  0  0  0  0
  144.3895  143.9096  153.6436 H   0  0  0  0  0  0  0  0  0  0  0  0
  145.7867  144.4960  154.5175 H   0  0  0  0  0  0  0  0  0  0  0  0
  1  2  1  0  0  0  0
  1 24  1  0  0  0  0
  1 25  1  0  0  0  0
  1 26  1  0  0  0  0
  2  3  1  0  0  0  0
  3 23  1  0  0  0  0
  3  4  1  0  0  0  0
  3 27  1  0  0  0  0
  4  5  1  0  0  0  0
  4 28  1  0  0  0  0
  4 29  1  0  0  0  0
  5  6  1  0  0  0  0
  5 30  1  0  0  0  0
  5 31  1  0  0  0  0
  6  7  1  0  0  0  0
  6 22  1  0  0  0  0
  7  8  1  0  0  0  0
  7 32  1  0  0  0  0
  7 33  1  0  0  0  0
  8  9  1  0  0  0  0
  8 10  1  0  0  0  0
  8 34  1  0  0  0  0
  9 35  1  0  0  0  0
 10 11  1  0  0  0  0
 10 36  1  0  0  0  0
 10 37  1  0  0  0  0
 11 21  1  0  0  0  0
 11 12  1  0  0  0  0
 12 13  2  0  0  0  0
 12 38  1  0  0  0  0
 13 14  1  0  0  0  0
 14 21  2  0  0  0  0
 14 15  1  0  0  0  0
 15 16  2  0  0  0  0
 15 39  1  0  0  0  0
 16 17  1  0  0  0  0
 16 18  1  0  0  0  0
 17 40  1  0  0  0  0
 17 41  1  0  0  0  0
 17 42  1  0  0  0  0
 18 19  1  0  0  0  0
 18 20  2  0  0  0  0
 19 43  1  0  0  0  0
 19 44  1  0  0  0  0
 19 45  1  0  0  0  0
 20 21  1  0  0  0  0
 20 46  1  0  0  0  0
 22 23  1  0  0  0  0
 22 47  1  0  0  0  0
 22 48  1  0  0  0  0
 23 49  1  0  0  0  0
 23 50  1  0  0  0  0
M  END
> <s_m_source_file>
AV-unprocessed.smi

> <i_m_source_file_index>
1605

> <i_lp_mmshare_version>
43012

> <i_f3d_flags>
0

> <s_epik_input>
W0NIM11PW0NIXTFbQ0gyXVtDSDJdTihbQ0gyXVtDSDJdMSlbQ0gyXVtDQEhdKFtPSF0pW0NIMl1uKFtjSF1uMiljKGMyMylbY0hdYyhbQ0gzXSljKFtjSF0zKVtDSDNd

> <s_epik_cmdline>
J2VwaWtfcHl0aG9uJywgJy1waCcsICc3LjAnLCAnLXRuJywgJzgnLCAnLW1hJywgJzIwMCcsICctbWV0YWxfYmluZGluZycsICctaW1hZScsICc8aW5maWxlLm1hZT4nLCAnLW9tYWUnLCAnPG91dGZpbGUubWFlPic=

> <r_epik_Ionization_Penalty>
2.02119

> <r_epik_Ionization_Penalty_Charging>
0

> <r_epik_Ionization_Penalty_Neutral>
2.02119

> <r_epik_State_Penalty>
2.11303

> <r_epik_Charging_Adjusted_Penalty>
2.11303

> <i_epik_Tot_Q>
0

> <i_epik_Tot_abs_Q>
0

> <r_epik_Metal_State_Penalty>
2.04251

> <b_epik_Metal_Only>
0

> <s_lp_Force_Field>
OPLS_2005

> <r_lp_Energy>
33.5926

> <b_lp_Chiralities_Consistent>
1

> <s_lp_Variant>
AV-unprocessed.smi:1605-10

> <Gold.Version>
5.8.1

> <Gold.Id.Protein>
6NUR|6NUR_protein|mol2

> <Gold.PLP.Fitness>
53.3381

> <Gold.PLP.PLP>
-48.5957

> <Gold.PLP.part.hbond>
-1.9375

> <Gold.PLP.part.metal>
0.0000

> <Gold.PLP.part.buried>
-7.3255

> <Gold.PLP.part.nonpolar>
-39.7333

> <Gold.PLP.part.repulsive>
0.2344

> <Gold.PLP.ligand.clash>
0.0000

> <Gold.PLP.ligand.torsion>
0.4420

> <Gold.PLP.Chemscore.Hbond>
1.8640

> <Gold.PLP.Chemscore.CHOScore>
0.0000

> <Gold.PLP.Chemscore.Metal>
0.0000

> <Gold.Chemscore.Hbonds>
donor molecule, donor type, donor heavy atom, donor atom, acceptor molecule, acceptor atom, score
      L1  H     9    35       P1  7957  1.00
      P1  H  7989  7998       L1     9  0.80

> <Gold.PLP.Chemscore.Internal.Correction>
0.0343

> <Gold.Rescore>
     Score         DG    S(hbond)    S(metal)    S(lipo)     H(rot)  DE(clash)    DE(int)     intcor
     18.74     -19.30       1.61        0.00     119.11       2.14       0.01       0.54       ----

> <Gold.Chemscore.Fitness>
18.7429

> <Gold.Chemscore.DG>
-19.2957

> <Gold.Chemscore.ZeroCoef>
-5.4800

> <Gold.Chemscore.Hbond>
1.6071

> <Gold.Chemscore.Metal>
0.0000

> <Gold.Chemscore.Lipo>
119.1109

> <Gold.Chemscore.Internal_Hbond>
0.0000

> <Gold.Chemscore.DEClash>
0.0149

> <Gold.Chemscore.DEInternal>
0.5379

> <Gold.Chemscore.Rot>
2.1438

> <Gold.Chemscore.Internal.Correction>
   9.000000E+99

> <Gold.Chemscore.Hbonds>
donor molecule, donor type, donor heavy atom, donor atom, acceptor molecule, acceptor atom, score
      L1  H     9    35       P1  7957  0.98
      P1  H  7989  7998       L1     9  0.49

> <Gold.Chemscore.Hbond.Weighted>
-5.3679

> <Gold.Chemscore.Metal.Weighted>
-0.0000

> <Gold.Chemscore.Lipo.Weighted>
-13.9360

> <Gold.Chemscore.Internal_Hbond.Weighted>
0.0000

> <Gold.Chemscore.DEClash.Weighted>
0.0149

> <Gold.Chemscore.DEInternal.Weighted>
0.5379

> <Gold.Chemscore.Rot.Weighted>
5.4881

> <Gold.Chemscore.Internal.Correction.Weighted>
   9.000000E+99

> <Gold.Protein.RotatedTorsions>
[ 6907 6896 6895 6894 ] final  -54.03 input  -60.11 | X-H torsion
[ 7974 7965 7964 7962 ] final   16.40 input  175.53 | X-H torsion
[ 8008 7997 7996 7995 ] final -153.75 input   59.86 | X-H torsion
[ 10167 10162 10161 10158 ] final -123.66 input  -65.29 | X-H torsion
[ 10718 10713 10712 10709 ] final  -68.01 input   66.30 | X-H torsion
[ 10763 10752 10751 10750 ] final  -12.01 input  -60.55 | X-H torsion
[ 11005 11000 10999 10996 ] final  154.26 input  -57.11 | X-H torsion

> <Gold.Protein.ActiveResidues>
 VAL166  LYS551  ARG553  GLY616  TRP617  ASP618  TYR619  PRO620  LYS621  CYS622 
 ASP623  PHE694  ASN695  SER759  ASP760  ASP761  ALA762  ILE779  LEU786  VAL792 
 PHE793  MET794  SER795  GLU796  ALA797  LYS798  CYS799  TRP800  GLU811  SER814 

> <Gold.Protein.RotatedAtoms>
  150.8374  134.7652  159.6903 H   0  0  0  0  0  0  0  0  0  0  0  0  # atno 6907 bound_to 6896
  152.4468  134.5474  159.9867 H   0  0  0  0  0  0  0  0  0  0  0  0  # atno 6908 bound_to 6896
  151.5622  133.3364  159.3009 H   0  0  0  0  0  0  0  0  0  0  0  0  # atno 6909 bound_to 6896
  146.2250  139.8753  142.8580 H   0  0  0  0  0  0  0  0  0  0  0  0  # atno 7974 bound_to 7965
  155.6757  140.0738  157.2503 H   0  0  0  0  0  0  0  0  0  0  0  0  # atno 8008 bound_to 7997
  154.4115  140.1691  156.1979 H   0  0  0  0  0  0  0  0  0  0  0  0  # atno 8009 bound_to 7997
  155.9578  140.3372  155.6467 H   0  0  0  0  0  0  0  0  0  0  0  0  # atno 8010 bound_to 7997
  140.0011  143.5539  152.2303 H   0  0  0  0  0  0  0  0  0  0  0  0  # atno 10167 bound_to 10162
  156.0527  130.4287  150.1938 H   0  0  0  0  0  0  0  0  0  0  0  0  # atno 10718 bound_to 10713
  153.4921  135.7017  153.5878 H   0  0  0  0  0  0  0  0  0  0  0  0  # atno 10763 bound_to 10752
  153.4046  135.3863  155.2010 H   0  0  0  0  0  0  0  0  0  0  0  0  # atno 10764 bound_to 10752
  154.8716  135.3890  154.4383 H   0  0  0  0  0  0  0  0  0  0  0  0  # atno 10765 bound_to 10752
  140.1473  134.8699  157.2408 H   0  0  0  0  0  0  0  0  0  0  0  0  # atno 11005 bound_to 11000
  145.2567  141.0063  143.3850 LP  0  0  0  0  0  0  0  0  0  0  0  0  # atno 17320 bound_to 7965
  144.9331  139.4275  143.6485 LP  0  0  0  0  0  0  0  0  0  0  0  0  # atno 17321 bound_to 7965
  139.6271  144.7639  151.2615 LP  0  0  0  0  0  0  0  0  0  0  0  0  # atno 17342 bound_to 10162
  140.7418  143.6545  150.8219 LP  0  0  0  0  0  0  0  0  0  0  0  0  # atno 17343 bound_to 10162
  157.0019  130.9925  151.3388 LP  0  0  0  0  0  0  0  0  0  0  0  0  # atno 17370 bound_to 10713
  157.5469  130.8156  149.8097 LP  0  0  0  0  0  0  0  0  0  0  0  0  # atno 17371 bound_to 10713
  140.2648  134.3528  155.7393 LP  0  0  0  0  0  0  0  0  0  0  0  0  # atno 17394 bound_to 11000
  141.2194  133.7390  156.9135 LP  0  0  0  0  0  0  0  0  0  0  0  0  # atno 17395 bound_to 11000

$$$$
