AV-unprocessed.smi:99|AV-procd|sdf|870|dock10
  -GOLD-   2262017333D 1   1.00000     0.00000
 Structure written by MMmdl.
 53 56  0  0  0  0  0  0  0  0  1 V2000
  150.2652  136.3829  159.1337 O   0  0  0  0  0  0  0  0  0  0  0  0
  149.1286  136.8506  159.0385 C   0  0  0  0  0  0  0  0  0  0  0  0
  148.7769  137.7739  158.1226 O   0  0  0  0  0  0  0  0  0  0  0  0
  149.7700  138.5864  157.5197 C   0  0  0  0  0  0  0  0  0  0  0  0
  149.2041  139.2144  156.2389 C   0  0  1  0  0  0  0  0  0  0  0  0
  147.8471  139.5934  156.4109 O   0  0  0  0  0  0  0  0  0  0  0  0
  147.5177  140.5175  155.4228 C   0  0  1  0  0  0  0  0  0  0  0  0
  146.5454  141.5038  156.0299 N   0  0  0  0  0  0  0  0  0  0  0  0
  146.0954  141.3310  157.3315 C   0  0  0  0  0  0  0  0  0  0  0  0
  145.1988  142.1547  157.9228 C   0  0  0  0  0  0  0  0  0  0  0  0
  144.6432  143.2882  157.1917 C   0  0  0  0  0  0  0  0  0  0  0  0
  143.8306  144.0930  157.6418 O   0  0  0  0  0  0  0  0  0  0  0  0
  145.1078  143.4148  155.8794 N   0  0  0  0  0  0  0  0  0  0  0  0
  146.0286  142.5691  155.2580 C   0  0  0  0  0  0  0  0  0  0  0  0
  146.3579  142.7798  154.0917 O   0  0  0  0  0  0  0  0  0  0  0  0
  148.8155  141.2074  154.9616 C   0  0  2  0  0  0  0  0  0  0  0  0
  149.0774  140.9979  153.5886 O   0  0  0  0  0  0  0  0  0  0  0  0
  149.8901  140.5127  155.7970 C   0  0  1  0  0  0  0  0  0  0  0  0
  150.2336  141.3017  156.9310 O   0  0  0  0  0  0  0  0  0  0  0  0
  151.4196  141.1494  157.5554 C   0  0  0  0  0  0  0  0  0  0  0  0
  152.2528  140.2973  157.2427 O   0  0  0  0  0  0  0  0  0  0  0  0
  151.6174  142.1329  158.6584 C   0  0  0  0  0  0  0  0  0  0  0  0
  152.4193  141.7782  159.7680 C   0  0  0  0  0  0  0  0  0  0  0  0
  152.6272  142.6885  160.8226 C   0  0  0  0  0  0  0  0  0  0  0  0
  152.0359  143.9646  160.7799 C   0  0  0  0  0  0  0  0  0  0  0  0
  151.2360  144.3295  159.6815 C   0  0  0  0  0  0  0  0  0  0  0  0
  151.0266  143.4207  158.6262 C   0  0  0  0  0  0  0  0  0  0  0  0
  147.9977  136.4517  159.9254 C   0  0  0  0  0  0  0  0  0  0  0  0
  148.2733  135.7853  161.1423 C   0  0  0  0  0  0  0  0  0  0  0  0
  147.2266  135.3954  162.0002 C   0  0  0  0  0  0  0  0  0  0  0  0
  145.8909  135.6671  161.6514 C   0  0  0  0  0  0  0  0  0  0  0  0
  145.6034  136.3300  160.4441 C   0  0  0  0  0  0  0  0  0  0  0  0
  146.6491  136.7210  159.5850 C   0  0  0  0  0  0  0  0  0  0  0  0
  144.7440  144.1823  155.3336 H   0  0  0  0  0  0  0  0  0  0  0  0
  150.1046  139.3612  158.2113 H   0  0  0  0  0  0  0  0  0  0  0  0
  150.6331  137.9647  157.2773 H   0  0  0  0  0  0  0  0  0  0  0  0
  149.2587  138.4974  155.4175 H   0  0  0  0  0  0  0  0  0  0  0  0
  147.0150  139.9857  154.6141 H   0  0  0  0  0  0  0  0  0  0  0  0
  146.4663  140.4987  157.9088 H   0  0  0  0  0  0  0  0  0  0  0  0
  144.8872  141.9707  158.9409 H   0  0  0  0  0  0  0  0  0  0  0  0
  148.7765  142.2824  155.1426 H   0  0  0  0  0  0  0  0  0  0  0  0
  149.5167  140.1674  153.4878 H   0  0  0  0  0  0  0  0  0  0  0  0
  150.7890  140.2897  155.2195 H   0  0  0  0  0  0  0  0  0  0  0  0
  152.8838  140.8041  159.8228 H   0  0  0  0  0  0  0  0  0  0  0  0
  153.2414  142.4066  161.6650 H   0  0  0  0  0  0  0  0  0  0  0  0
  152.1947  144.6620  161.5893 H   0  0  0  0  0  0  0  0  0  0  0  0
  150.7812  145.3087  159.6479 H   0  0  0  0  0  0  0  0  0  0  0  0
  150.4064  143.7339  157.7989 H   0  0  0  0  0  0  0  0  0  0  0  0
  149.2910  135.5653  161.4313 H   0  0  0  0  0  0  0  0  0  0  0  0
  147.4497  134.8871  162.9267 H   0  0  0  0  0  0  0  0  0  0  0  0
  145.0881  135.3677  162.3089 H   0  0  0  0  0  0  0  0  0  0  0  0
  144.5786  136.5395  160.1755 H   0  0  0  0  0  0  0  0  0  0  0  0
  146.3931  137.2280  158.6662 H   0  0  0  0  0  0  0  0  0  0  0  0
  1  2  2  0  0  0  0
  2  3  1  0  0  0  0
  2 28  1  0  0  0  0
  3  4  1  0  0  0  0
  4  5  1  0  0  0  0
  4 35  1  0  0  0  0
  4 36  1  0  0  0  0
  5 18  1  0  0  0  0
  5  6  1  0  0  0  0
  5 37  1  0  0  0  0
  6  7  1  0  0  0  0
  7  8  1  0  0  0  0
  7 16  1  0  0  0  0
  7 38  1  0  0  0  0
  8 14  1  0  0  0  0
  8  9  1  0  0  0  0
  9 10  2  0  0  0  0
  9 39  1  0  0  0  0
 10 11  1  0  0  0  0
 10 40  1  0  0  0  0
 11 12  2  0  0  0  0
 11 13  1  0  0  0  0
 13 34  1  0  0  0  0
 13 14  1  0  0  0  0
 14 15  2  0  0  0  0
 16 17  1  0  0  0  0
 16 18  1  0  0  0  0
 16 41  1  0  0  0  0
 17 42  1  0  0  0  0
 18 19  1  0  0  0  0
 18 43  1  0  0  0  0
 19 20  1  0  0  0  0
 20 21  2  0  0  0  0
 20 22  1  0  0  0  0
 22 27  1  0  0  0  0
 22 23  2  0  0  0  0
 23 24  1  0  0  0  0
 23 44  1  0  0  0  0
 24 25  2  0  0  0  0
 24 45  1  0  0  0  0
 25 26  1  0  0  0  0
 25 46  1  0  0  0  0
 26 27  2  0  0  0  0
 26 47  1  0  0  0  0
 27 48  1  0  0  0  0
 28 33  1  0  0  0  0
 28 29  2  0  0  0  0
 29 30  1  0  0  0  0
 29 49  1  0  0  0  0
 30 31  2  0  0  0  0
 30 50  1  0  0  0  0
 31 32  1  0  0  0  0
 31 51  1  0  0  0  0
 32 33  2  0  0  0  0
 32 52  1  0  0  0  0
 33 53  1  0  0  0  0
M  END
> <s_m_source_file>
AV-unprocessed.smi

> <i_m_source_file_index>
99

> <i_lp_mmshare_version>
43012

> <i_f3d_flags>
0

> <s_epik_input>
W2NIXTFbY0hdW2NIXVtjSF1bY0hdYzFDKD1PKU9bQ0gyXVtDQEBIXTJPW0NAQEhdKG4zW2NIXVtjSF1jKD1PKVtuSF1jMz1PKVtDQEBIXShbT0hdKVtDQEhdMk9DKD1PKWM0W2NIXVtjSF1bY0hdW2NIXVtjSF00

> <s_epik_cmdline>
J2VwaWtfcHl0aG9uJywgJy1waCcsICc3LjAnLCAnLXRuJywgJzgnLCAnLW1hJywgJzIwMCcsICctbWV0YWxfYmluZGluZycsICctaW1hZScsICc8aW5maWxlLm1hZT4nLCAnLW9tYWUnLCAnPG91dGZpbGUubWFlPic=

> <r_lp_tautomer_probability>
1

> <r_epik_Ionization_Penalty>
0.00454555

> <r_epik_Ionization_Penalty_Charging>
0.0045191

> <r_epik_Ionization_Penalty_Neutral>
2.64449e-05

> <r_epik_State_Penalty>
-0

> <r_epik_Charging_Adjusted_Penalty>
0.0045191

> <i_epik_Tot_Q>
0

> <i_epik_Tot_abs_Q>
0

> <r_epik_Metal_State_Penalty>
1.27877

> <b_epik_Metal_Only>
0

> <s_epik_Chemistry_Notes>
This compound has an ester and may undergo hydrolysis at high or low pH. This compound contains an acetal/aminal-like group ( X-CH(R)-Y where X, Y are N, S, or O) that may be acid/base labile, releasing an aldehyde.

> <s_lp_Force_Field>
OPLS_2005

> <r_lp_Energy>
31.5911

> <b_lp_Chiralities_Consistent>
1

> <s_lp_Variant>
AV-unprocessed.smi:99-6

> <Gold.Version>
5.8.1

> <Gold.Id.Protein>
6NUR|6NUR_protein|mol2

> <Gold.PLP.Fitness>
56.9029

> <Gold.PLP.PLP>
-50.7436

> <Gold.PLP.part.hbond>
-4.7713

> <Gold.PLP.part.metal>
0.0000

> <Gold.PLP.part.buried>
-7.7177

> <Gold.PLP.part.nonpolar>
-39.2871

> <Gold.PLP.part.repulsive>
0.3312

> <Gold.PLP.ligand.clash>
0.0000

> <Gold.PLP.ligand.torsion>
1.4238

> <Gold.PLP.Chemscore.Hbond>
2.8544

> <Gold.PLP.Chemscore.CHOScore>
0.0000

> <Gold.PLP.Chemscore.Metal>
0.0000

> <Gold.Chemscore.Hbonds>
donor molecule, donor type, donor heavy atom, donor atom, acceptor molecule, acceptor atom, score
      P1  H  6896  6907       L1     1  1.00
      P1  H  7997  8010       L1    21  0.55
      P1  H  8011  8017       L1    17  1.00

> <Gold.PLP.Chemscore.Internal.Correction>
0.4438

> <Gold.Rescore>
     Score         DG    S(hbond)    S(metal)    S(lipo)     H(rot)  DE(clash)    DE(int)     intcor
     18.01     -20.06       2.80        0.00     114.58       3.19       0.05       2.00       ----

> <Gold.Chemscore.Fitness>
18.0131

> <Gold.Chemscore.DG>
-20.0611

> <Gold.Chemscore.ZeroCoef>
-5.4800

> <Gold.Chemscore.Hbond>
2.7970

> <Gold.Chemscore.Metal>
0.0000

> <Gold.Chemscore.Lipo>
114.5836

> <Gold.Chemscore.Internal_Hbond>
0.0000

> <Gold.Chemscore.DEClash>
0.0456

> <Gold.Chemscore.DEInternal>
2.0024

> <Gold.Chemscore.Rot>
3.1903

> <Gold.Chemscore.Internal.Correction>
   9.000000E+99

> <Gold.Chemscore.Hbonds>
donor molecule, donor type, donor heavy atom, donor atom, acceptor molecule, acceptor atom, score
      L1  H    17    42       P1  7957  0.01
      P1  H  6896  6907       L1     1  0.97
      P1  H  7997  8010       L1    21  0.51
      P1  H  8011  8017       L1    17  0.77

> <Gold.Chemscore.Hbond.Weighted>
-9.3419

> <Gold.Chemscore.Metal.Weighted>
-0.0000

> <Gold.Chemscore.Lipo.Weighted>
-13.4063

> <Gold.Chemscore.Internal_Hbond.Weighted>
0.0000

> <Gold.Chemscore.DEClash.Weighted>
0.0456

> <Gold.Chemscore.DEInternal.Weighted>
2.0024

> <Gold.Chemscore.Rot.Weighted>
8.1671

> <Gold.Chemscore.Internal.Correction.Weighted>
   9.000000E+99

> <Gold.Protein.RotatedTorsions>
[ 6907 6896 6895 6894 ] final  -54.75 input  -60.11 | X-H torsion
[ 7974 7965 7964 7962 ] final -163.69 input  175.53 | X-H torsion
[ 8008 7997 7996 7995 ] final   60.46 input   59.86 | X-H torsion
[ 10167 10162 10161 10158 ] final   76.49 input  -65.29 | X-H torsion
[ 10718 10713 10712 10709 ] final  -79.67 input   66.30 | X-H torsion
[ 10763 10752 10751 10750 ] final   53.48 input  -60.55 | X-H torsion
[ 11005 11000 10999 10996 ] final  179.26 input  -57.11 | X-H torsion

> <Gold.Protein.ActiveResidues>
 VAL166  LYS551  ARG553  GLY616  TRP617  ASP618  TYR619  PRO620  LYS621  CYS622 
 ASP623  PHE694  ASN695  SER759  ASP760  ASP761  ALA762  ILE779  LEU786  VAL792 
 PHE793  MET794  SER795  GLU796  ALA797  LYS798  CYS799  TRP800  GLU811  SER814 

> <Gold.Protein.RotatedAtoms>
  150.8311  134.7564  159.6853 H   0  0  0  0  0  0  0  0  0  0  0  0  # atno 6907 bound_to 6896
  152.4415  134.5577  159.9895 H   0  0  0  0  0  0  0  0  0  0  0  0  # atno 6908 bound_to 6896
  151.5738  133.3349  159.3030 H   0  0  0  0  0  0  0  0  0  0  0  0  # atno 6909 bound_to 6896
  144.7318  140.3070  143.6194 H   0  0  0  0  0  0  0  0  0  0  0  0  # atno 7974 bound_to 7965
  155.5827  140.3491  155.4544 H   0  0  0  0  0  0  0  0  0  0  0  0  # atno 8008 bound_to 7997
  156.0361  140.1285  157.0231 H   0  0  0  0  0  0  0  0  0  0  0  0  # atno 8009 bound_to 7997
  154.4372  140.1033  156.6155 H   0  0  0  0  0  0  0  0  0  0  0  0  # atno 8010 bound_to 7997
  139.9917  144.5752  150.7813 H   0  0  0  0  0  0  0  0  0  0  0  0  # atno 10167 bound_to 10162
  156.0087  130.4552  150.3684 H   0  0  0  0  0  0  0  0  0  0  0  0  # atno 10718 bound_to 10713
  152.9796  135.5777  154.4748 H   0  0  0  0  0  0  0  0  0  0  0  0  # atno 10763 bound_to 10752
  154.4305  135.2773  155.1917 H   0  0  0  0  0  0  0  0  0  0  0  0  # atno 10764 bound_to 10752
  154.3627  135.6185  153.5753 H   0  0  0  0  0  0  0  0  0  0  0  0  # atno 10765 bound_to 10752
  140.4042  134.6750  157.4579 H   0  0  0  0  0  0  0  0  0  0  0  0  # atno 11005 bound_to 11000
  145.7703  139.1855  143.2216 LP  0  0  0  0  0  0  0  0  0  0  0  0  # atno 17320 bound_to 7965
  146.0916  140.7649  142.9592 LP  0  0  0  0  0  0  0  0  0  0  0  0  # atno 17321 bound_to 7965
  140.7452  143.2872  151.3429 LP  0  0  0  0  0  0  0  0  0  0  0  0  # atno 17342 bound_to 10162
  139.6335  144.0674  152.2496 LP  0  0  0  0  0  0  0  0  0  0  0  0  # atno 17343 bound_to 10162
  157.1770  131.0383  151.2767 LP  0  0  0  0  0  0  0  0  0  0  0  0  # atno 17370 bound_to 10713
  157.4179  130.7421  149.6890 LP  0  0  0  0  0  0  0  0  0  0  0  0  # atno 17371 bound_to 10713
  140.0314  134.6400  155.9101 LP  0  0  0  0  0  0  0  0  0  0  0  0  # atno 17394 bound_to 11000
  141.1845  133.6553  156.5161 LP  0  0  0  0  0  0  0  0  0  0  0  0  # atno 17395 bound_to 11000

$$$$
