AV-unprocessed.smi:1760|AV-procd|sdf|7089|dock8
  -GOLD-   22720 8303D 1   1.00000     0.00000
 Structure written by MMmdl.
 44 46  0  0  0  0  0  0  0  0  2 V2000
  146.9203  137.2538  152.9412 O   0  0  0  0  0  0  0  0  0  0  0  0
  146.1074  138.1762  152.8898 C   0  0  0  0  0  0  0  0  0  0  0  0
  146.3318  139.4448  153.2793 N   0  0  0  0  0  0  0  0  0  0  0  0
  147.4814  140.0035  153.8628 C   0  0  0  0  0  0  0  0  0  0  0  0
  148.5801  139.2987  154.2397 C   0  0  0  0  0  0  0  0  0  0  0  0
  149.7326  139.9365  154.8534 C   0  0  0  0  0  0  0  0  0  0  0  0
  150.9879  139.1503  155.1979 C   0  0  0  0  0  0  0  0  0  0  0  0
  152.0647  139.6790  154.6152 F   0  0  0  0  0  0  0  0  0  0  0  0
  151.1815  139.1624  156.5161 F   0  0  0  0  0  0  0  0  0  0  0  0
  150.8808  137.8806  154.8057 F   0  0  0  0  0  0  0  0  0  0  0  0
  149.6614  141.2695  155.0233 C   0  0  0  0  0  0  0  0  0  0  0  0
  148.5274  141.9985  154.6584 N   0  0  0  0  0  0  0  0  0  0  0  0
  147.4262  141.4571  154.0907 C   0  0  0  0  0  0  0  0  0  0  0  0
  146.4646  142.1671  153.7981 O   0  0  0  0  0  0  0  0  0  0  0  0
  144.8642  138.0389  152.4059 N   0  0  0  0  0  0  0  0  0  0  0  0
  144.2879  136.8098  151.8659 C   0  0  2  0  0  0  0  0  0  0  0  0
  143.8621  135.8813  153.0154 C   0  0  0  0  0  0  0  0  0  0  0  0
  143.3560  134.5319  152.4796 C   0  0  0  0  0  0  0  0  0  0  0  0
  144.3812  133.8793  151.6279 N   0  3  1  0  0  0  0  0  0  0  0  0
  143.9672  132.5267  151.1966 C   0  0  0  0  0  0  0  0  0  0  0  0
  145.0594  131.4906  151.3239 C   0  0  0  0  0  0  0  0  0  0  0  0
  144.6862  132.0342  149.9625 C   0  0  0  0  0  0  0  0  0  0  0  0
  144.7721  134.7390  150.4830 C   0  0  0  0  0  0  0  0  0  0  0  0
  145.3129  136.0941  150.9700 C   0  0  0  0  0  0  0  0  0  0  0  0
  148.5455  142.9930  154.8325 H   0  0  0  0  0  0  0  0  0  0  0  0
  145.5912  140.1074  153.1001 H   0  0  0  0  0  0  0  0  0  0  0  0
  148.6226  138.2291  154.1148 H   0  0  0  0  0  0  0  0  0  0  0  0
  150.4549  141.8724  155.4398 H   0  0  0  0  0  0  0  0  0  0  0  0
  144.2710  138.8560  152.4033 H   0  0  0  0  0  0  0  0  0  0  0  0
  143.4059  137.0323  151.2624 H   0  0  0  0  0  0  0  0  0  0  0  0
  144.7046  135.7103  153.6876 H   0  0  0  0  0  0  0  0  0  0  0  0
  143.0822  136.3568  153.6115 H   0  0  0  0  0  0  0  0  0  0  0  0
  143.1046  133.8791  153.3165 H   0  0  0  0  0  0  0  0  0  0  0  0
  142.4401  134.6751  151.9041 H   0  0  0  0  0  0  0  0  0  0  0  0
  142.9270  132.2586  151.3742 H   0  0  0  0  0  0  0  0  0  0  0  0
  146.0164  131.7981  151.7418 H   0  0  0  0  0  0  0  0  0  0  0  0
  144.7592  130.4701  151.5529 H   0  0  0  0  0  0  0  0  0  0  0  0
  144.1394  131.3720  149.2944 H   0  0  0  0  0  0  0  0  0  0  0  0
  145.3949  132.7026  149.4767 H   0  0  0  0  0  0  0  0  0  0  0  0
  145.5358  134.2349  149.8893 H   0  0  0  0  0  0  0  0  0  0  0  0
  143.9118  134.8899  149.8289 H   0  0  0  0  0  0  0  0  0  0  0  0
  145.5629  136.7206  150.1127 H   0  0  0  0  0  0  0  0  0  0  0  0
  146.2422  135.9360  151.5196 H   0  0  0  0  0  0  0  0  0  0  0  0
  145.2052  133.7610  152.1999 H   0  0  0  0  0  0  0  0  0  0  0  0
  1  2  2  0  0  0  0
  2  3  1  0  0  0  0
  2 15  1  0  0  0  0
  3  4  1  0  0  0  0
  3 26  1  0  0  0  0
  4 13  1  0  0  0  0
  4  5  2  0  0  0  0
  5  6  1  0  0  0  0
  5 27  1  0  0  0  0
  6  7  1  0  0  0  0
  6 11  2  0  0  0  0
  7  8  1  0  0  0  0
  7  9  1  0  0  0  0
  7 10  1  0  0  0  0
 11 12  1  0  0  0  0
 11 28  1  0  0  0  0
 12 25  1  0  0  0  0
 12 13  1  0  0  0  0
 13 14  2  0  0  0  0
 15 16  1  0  0  0  0
 15 29  1  0  0  0  0
 16 24  1  0  0  0  0
 16 17  1  0  0  0  0
 16 30  1  0  0  0  0
 17 18  1  0  0  0  0
 17 31  1  0  0  0  0
 17 32  1  0  0  0  0
 18 19  1  0  0  0  0
 18 33  1  0  0  0  0
 18 34  1  0  0  0  0
 19 20  1  0  0  0  0
 19 23  1  0  0  0  0
 19 44  1  0  0  0  0
 20 22  1  0  0  0  0
 20 21  1  0  0  0  0
 20 35  1  0  0  0  0
 21 22  1  0  0  0  0
 21 36  1  0  0  0  0
 21 37  1  0  0  0  0
 22 38  1  0  0  0  0
 22 39  1  0  0  0  0
 23 24  1  0  0  0  0
 23 40  1  0  0  0  0
 23 41  1  0  0  0  0
 24 42  1  0  0  0  0
 24 43  1  0  0  0  0
M  CHG  1  19   1
M  END
> <s_m_source_file>
AV-unprocessed.smi

> <i_m_source_file_index>
1760

> <i_lp_mmshare_version>
43012

> <i_f3d_flags>
0

> <s_epik_input>
W0NIMl0xW0NIMl1bQ0hdMU4oW0NIMl1bQ0gyXTIpW0NIMl1bQ0gyXVtDSF0yW05IXUMoPU8pW05IXWMzW2NIXWMoQyhGKShGKUYpW2NIXVtuSF1jMz1P

> <s_epik_cmdline>
J2VwaWtfcHl0aG9uJywgJy1waCcsICc3LjAnLCAnLXRuJywgJzgnLCAnLW1hJywgJzIwMCcsICctbWV0YWxfYmluZGluZycsICctaW1hZScsICc8aW5maWxlLm1hZT4nLCAnLW9tYWUnLCAnPG91dGZpbGUubWFlPic=

> <r_lp_tautomer_probability>
0.999

> <r_epik_Ionization_Penalty>
0.131122

> <r_epik_Ionization_Penalty_Charging>
0.131104

> <r_epik_Ionization_Penalty_Neutral>
1.84439e-05

> <r_epik_State_Penalty>
0.116042

> <r_epik_Charging_Adjusted_Penalty>
0.247146

> <i_epik_Tot_Q>
1

> <i_epik_Tot_abs_Q>
1

> <r_epik_Metal_State_Penalty>
0.492282

> <b_epik_Metal_Only>
0

> <s_lp_Force_Field>
OPLS_2005

> <r_lp_Energy>
37.3321

> <b_lp_Chiralities_Consistent>
1

> <s_lp_Variant>
AV-unprocessed.smi:1760-1

> <Gold.Version>
5.8.1

> <Gold.Id.Protein>
6NUR|6NUR_protein|mol2

> <Gold.PLP.Fitness>
46.9081

> <Gold.PLP.PLP>
-39.0520

> <Gold.PLP.part.hbond>
-4.0000

> <Gold.PLP.part.metal>
0.0000

> <Gold.PLP.part.buried>
-2.2262

> <Gold.PLP.part.nonpolar>
-37.0839

> <Gold.PLP.part.repulsive>
3.9622

> <Gold.PLP.ligand.clash>
0.0000

> <Gold.PLP.ligand.torsion>
1.2088

> <Gold.PLP.Chemscore.Hbond>
2.9920

> <Gold.PLP.Chemscore.CHOScore>
0.0000

> <Gold.PLP.Chemscore.Metal>
0.0000

> <Gold.Chemscore.Hbonds>
donor molecule, donor type, donor heavy atom, donor atom, acceptor molecule, acceptor atom, score
      L1  H     3    26       P1 10175  0.97
      L1  H    12    25       P1  8028  1.00
      L1  H    15    29       P1 10175  1.00

> <Gold.PLP.Chemscore.Internal.Correction>
1.2977

> <Gold.Rescore>
     Score         DG    S(hbond)    S(metal)    S(lipo)     H(rot)  DE(clash)    DE(int)     intcor
     15.89     -19.49       2.86        0.00      66.24       1.29       0.15       3.46       ----

> <Gold.Chemscore.Fitness>
15.8884

> <Gold.Chemscore.DG>
-19.4948

> <Gold.Chemscore.ZeroCoef>
-5.4800

> <Gold.Chemscore.Hbond>
2.8624

> <Gold.Chemscore.Metal>
0.0000

> <Gold.Chemscore.Lipo>
66.2428

> <Gold.Chemscore.Internal_Hbond>
0.0000

> <Gold.Chemscore.DEClash>
0.1499

> <Gold.Chemscore.DEInternal>
3.4565

> <Gold.Chemscore.Rot>
1.2875

> <Gold.Chemscore.Internal.Correction>
   9.000000E+99

> <Gold.Chemscore.Hbonds>
donor molecule, donor type, donor heavy atom, donor atom, acceptor molecule, acceptor atom, score
      L1  H     3    26       P1 10175  0.85
      L1  H    12    25       P1  8028  0.99
      L1  H    15    29       P1 10175  1.00

> <Gold.Chemscore.Hbond.Weighted>
-9.5604

> <Gold.Chemscore.Metal.Weighted>
-0.0000

> <Gold.Chemscore.Lipo.Weighted>
-7.7504

> <Gold.Chemscore.Internal_Hbond.Weighted>
0.0000

> <Gold.Chemscore.DEClash.Weighted>
0.1499

> <Gold.Chemscore.DEInternal.Weighted>
3.4565

> <Gold.Chemscore.Rot.Weighted>
3.2960

> <Gold.Chemscore.Internal.Correction.Weighted>
   9.000000E+99

> <Gold.Protein.RotatedTorsions>
[ 6907 6896 6895 6894 ] final -106.36 input  -60.11 | X-H torsion
[ 7974 7965 7964 7962 ] final   97.99 input  175.53 | X-H torsion
[ 8008 7997 7996 7995 ] final  109.98 input   59.86 | X-H torsion
[ 10167 10162 10161 10158 ] final   93.35 input  -65.29 | X-H torsion
[ 10718 10713 10712 10709 ] final -129.00 input   66.30 | X-H torsion
[ 10763 10752 10751 10750 ] final   19.78 input  -60.55 | X-H torsion
[ 11005 11000 10999 10996 ] final -135.80 input  -57.11 | X-H torsion

> <Gold.Protein.ActiveResidues>
 VAL166  LYS551  ARG553  GLY616  TRP617  ASP618  TYR619  PRO620  LYS621  CYS622 
 ASP623  PHE694  ASN695  SER759  ASP760  ASP761  ALA762  ILE779  LEU786  VAL792 
 PHE793  MET794  SER795  GLU796  ALA797  LYS798  CYS799  TRP800  GLU811  SER814 

> <Gold.Protein.RotatedAtoms>
  150.7385  133.9988  159.3630 H   0  0  0  0  0  0  0  0  0  0  0  0  # atno 6907 bound_to 6896
  151.7940  135.0725  160.0400 H   0  0  0  0  0  0  0  0  0  0  0  0  # atno 6908 bound_to 6896
  152.3188  133.5794  159.5766 H   0  0  0  0  0  0  0  0  0  0  0  0  # atno 6909 bound_to 6896
  145.4182  139.2325  143.3211 H   0  0  0  0  0  0  0  0  0  0  0  0  # atno 7974 bound_to 7965
  156.2019  140.3047  155.9545 H   0  0  0  0  0  0  0  0  0  0  0  0  # atno 8008 bound_to 7997
  155.2933  140.0443  157.3041 H   0  0  0  0  0  0  0  0  0  0  0  0  # atno 8009 bound_to 7997
  154.5582  140.2312  155.8386 H   0  0  0  0  0  0  0  0  0  0  0  0  # atno 8010 bound_to 7997
  139.8188  144.6740  150.9545 H   0  0  0  0  0  0  0  0  0  0  0  0  # atno 10167 bound_to 10162
  156.2004  130.6854  151.0532 H   0  0  0  0  0  0  0  0  0  0  0  0  # atno 10718 bound_to 10713
  153.1133  135.6702  153.9462 H   0  0  0  0  0  0  0  0  0  0  0  0  # atno 10763 bound_to 10752
  153.8999  135.3037  155.3450 H   0  0  0  0  0  0  0  0  0  0  0  0  # atno 10764 bound_to 10752
  154.7551  135.5015  153.9438 H   0  0  0  0  0  0  0  0  0  0  0  0  # atno 10765 bound_to 10752
  140.8865  134.1866  157.4557 H   0  0  0  0  0  0  0  0  0  0  0  0  # atno 11005 bound_to 11000
  146.2670  140.4903  142.8830 LP  0  0  0  0  0  0  0  0  0  0  0  0  # atno 17320 bound_to 7965
  144.8263  140.6634  143.6320 LP  0  0  0  0  0  0  0  0  0  0  0  0  # atno 17321 bound_to 7965
  140.7814  143.4112  151.0990 LP  0  0  0  0  0  0  0  0  0  0  0  0  # atno 17342 bound_to 10162
  139.7774  143.8406  152.3131 LP  0  0  0  0  0  0  0  0  0  0  0  0  # atno 17343 bound_to 10162
  157.6982  131.0786  150.6902 LP  0  0  0  0  0  0  0  0  0  0  0  0  # atno 17370 bound_to 10713
  156.6959  130.4609  149.5586 LP  0  0  0  0  0  0  0  0  0  0  0  0  # atno 17371 bound_to 10713
  139.8725  134.9840  156.5221 LP  0  0  0  0  0  0  0  0  0  0  0  0  # atno 17394 bound_to 11000
  140.8399  133.8213  155.9064 LP  0  0  0  0  0  0  0  0  0  0  0  0  # atno 17395 bound_to 11000

$$$$
