AV-unprocessed.smi:2693|AV-procd|sdf|10402|dock9
  -GOLD-   2272014433D 1   1.00000     0.00000
 Structure written by MMmdl.
 45 47  0  0  0  0  0  0  0  0  1 V2000
  146.1547  138.5704  151.5784 C   0  0  0  0  0  0  0  0  0  0  0  0
  146.1938  138.5008  153.0363 N   0  0  0  0  0  0  0  0  0  0  0  0
  145.4969  137.3907  153.6795 C   0  0  0  0  0  0  0  0  0  0  0  0
  146.8804  139.4583  153.7887 C   0  0  0  0  0  0  0  0  0  0  0  0
  147.0608  140.6647  153.2351 N   0  0  0  0  0  0  0  0  0  0  0  0
  147.7250  141.5947  153.9536 C   0  0  0  0  0  0  0  0  0  0  0  0
  148.2168  141.3187  155.2519 C   0  0  0  0  0  0  0  0  0  0  0  0
  148.9479  142.2282  156.0622 N   0  0  0  0  0  0  0  0  0  0  0  0
  149.7671  141.9560  157.0918 C   0  0  0  0  0  0  0  0  0  0  0  0
  150.0946  140.8294  157.4632 O   0  0  0  0  0  0  0  0  0  0  0  0
  150.2047  143.0804  157.6736 N   0  0  0  0  0  0  0  0  0  0  0  0
  151.0964  143.1148  158.8283 C   0  0  1  0  0  0  0  0  0  0  0  0
  152.2764  142.1398  158.6923 C   0  0  2  0  0  0  0  0  0  0  0  0
  152.3949  140.9711  159.6324 C   0  0  0  0  0  0  0  0  0  0  0  0
  153.3319  141.5022  160.7212 C   0  0  0  0  0  0  0  0  0  0  0  0
  153.2241  142.9210  160.6293 O   0  0  0  0  0  0  0  0  0  0  0  0
  153.1489  143.2564  159.2457 C   0  0  2  0  0  0  0  0  0  0  0  0
  152.0904  144.3047  158.8433 C   0  0  0  0  0  0  0  0  0  0  0  0
  152.3777  145.0077  157.5085 C   0  0  0  0  0  0  0  0  0  0  0  0
  151.8112  145.4045  159.8690 C   0  0  0  0  0  0  0  0  0  0  0  0
  147.9783  140.0156  155.7321 C   0  0  0  0  0  0  0  0  0  0  0  0
  147.3113  139.0954  155.0042 N   0  0  0  0  0  0  0  0  0  0  0  0
  147.1653  138.5713  151.1687 H   0  0  0  0  0  0  0  0  0  0  0  0
  145.6519  139.4826  151.2562 H   0  0  0  0  0  0  0  0  0  0  0  0
  145.6228  137.7241  151.1436 H   0  0  0  0  0  0  0  0  0  0  0  0
  146.2036  136.7626  154.2224 H   0  0  0  0  0  0  0  0  0  0  0  0
  144.9776  136.7614  152.9568 H   0  0  0  0  0  0  0  0  0  0  0  0
  144.7554  137.7637  154.3865 H   0  0  0  0  0  0  0  0  0  0  0  0
  147.8705  142.5432  153.4609 H   0  0  0  0  0  0  0  0  0  0  0  0
  148.8419  143.2032  155.8229 H   0  0  0  0  0  0  0  0  0  0  0  0
  149.8950  143.9671  157.3040 H   0  0  0  0  0  0  0  0  0  0  0  0
  150.5816  142.9943  159.7843 H   0  0  0  0  0  0  0  0  0  0  0  0
  152.5232  141.9171  157.6526 H   0  0  0  0  0  0  0  0  0  0  0  0
  151.4228  140.7078  160.0508 H   0  0  0  0  0  0  0  0  0  0  0  0
  152.8042  140.0834  159.1493 H   0  0  0  0  0  0  0  0  0  0  0  0
  153.0684  141.1432  161.7161 H   0  0  0  0  0  0  0  0  0  0  0  0
  154.3629  141.2110  160.5146 H   0  0  0  0  0  0  0  0  0  0  0  0
  154.1234  143.3433  158.7627 H   0  0  0  0  0  0  0  0  0  0  0  0
  153.2463  145.6624  157.5833 H   0  0  0  0  0  0  0  0  0  0  0  0
  151.5354  145.6203  157.1849 H   0  0  0  0  0  0  0  0  0  0  0  0
  152.5850  144.2939  156.7109 H   0  0  0  0  0  0  0  0  0  0  0  0
  152.6749  146.0563  160.0025 H   0  0  0  0  0  0  0  0  0  0  0  0
  151.5660  144.9896  160.8469 H   0  0  0  0  0  0  0  0  0  0  0  0
  150.9688  146.0276  159.5668 H   0  0  0  0  0  0  0  0  0  0  0  0
  148.3251  139.7055  156.7069 H   0  0  0  0  0  0  0  0  0  0  0  0
  1  2  1  0  0  0  0
  1 23  1  0  0  0  0
  1 24  1  0  0  0  0
  1 25  1  0  0  0  0
  2  3  1  0  0  0  0
  2  4  1  0  0  0  0
  3 26  1  0  0  0  0
  3 27  1  0  0  0  0
  3 28  1  0  0  0  0
  4 22  1  0  0  0  0
  4  5  2  0  0  0  0
  5  6  1  0  0  0  0
  6  7  2  0  0  0  0
  6 29  1  0  0  0  0
  7  8  1  0  0  0  0
  7 21  1  0  0  0  0
  8  9  1  0  0  0  0
  8 30  1  0  0  0  0
  9 10  2  0  0  0  0
  9 11  1  0  0  0  0
 11 12  1  0  0  0  0
 11 31  1  0  0  0  0
 12 18  1  0  0  0  0
 12 13  1  0  0  0  0
 12 32  1  0  0  0  0
 13 17  1  0  0  0  0
 13 14  1  0  0  0  0
 13 33  1  0  0  0  0
 14 15  1  0  0  0  0
 14 34  1  0  0  0  0
 14 35  1  0  0  0  0
 15 16  1  0  0  0  0
 15 36  1  0  0  0  0
 15 37  1  0  0  0  0
 16 17  1  0  0  0  0
 17 18  1  0  0  0  0
 17 38  1  0  0  0  0
 18 19  1  0  0  0  0
 18 20  1  0  0  0  0
 19 39  1  0  0  0  0
 19 40  1  0  0  0  0
 19 41  1  0  0  0  0
 20 42  1  0  0  0  0
 20 43  1  0  0  0  0
 20 44  1  0  0  0  0
 21 22  2  0  0  0  0
 21 45  1  0  0  0  0
M  END
> <s_m_source_file>
AV-unprocessed.smi

> <i_m_source_file_index>
2693

> <i_lp_mmshare_version>
43012

> <i_f3d_flags>
0

> <s_epik_input>
W0NIM11OKFtDSDNdKWMxbltjSF1jKFtjSF1uMSlbTkhdQyg9TylbTkhdW0NASF0yQyhbQ0gzXSkoW0NIM10pW0NAQEhdKFtDQEhdMjMpT1tDSDJdW0NIMl0z

> <s_epik_cmdline>
J2VwaWtfcHl0aG9uJywgJy1waCcsICc3LjAnLCAnLXRuJywgJzgnLCAnLW1hJywgJzIwMCcsICctbWV0YWxfYmluZGluZycsICctaW1hZScsICc8aW5maWxlLm1hZT4nLCAnLW9tYWUnLCAnPG91dGZpbGUubWFlPic=

> <r_lp_tautomer_probability>
1

> <r_epik_Ionization_Penalty>
0.00031779

> <r_epik_Ionization_Penalty_Charging>
0

> <r_epik_Ionization_Penalty_Neutral>
0.00031779

> <r_epik_State_Penalty>
-0

> <r_epik_Charging_Adjusted_Penalty>
0

> <i_epik_Tot_Q>
0

> <i_epik_Tot_abs_Q>
0

> <r_epik_Metal_State_Penalty>
-0

> <b_epik_Metal_Only>
0

> <s_lp_Force_Field>
OPLS_2005

> <r_lp_Energy>
29.1856

> <b_lp_Chiralities_Consistent>
1

> <s_lp_Variant>
AV-unprocessed.smi:2693-6

> <Gold.Version>
5.8.1

> <Gold.Id.Protein>
6NUR|6NUR_protein|mol2

> <Gold.PLP.Fitness>
47.9939

> <Gold.PLP.PLP>
-43.5863

> <Gold.PLP.part.hbond>
-1.9976

> <Gold.PLP.part.metal>
0.0000

> <Gold.PLP.part.buried>
-4.6660

> <Gold.PLP.part.nonpolar>
-38.6920

> <Gold.PLP.part.repulsive>
0.9434

> <Gold.PLP.ligand.clash>
0.0000

> <Gold.PLP.ligand.torsion>
0.6214

> <Gold.PLP.Chemscore.Hbond>
1.8247

> <Gold.PLP.Chemscore.CHOScore>
0.0000

> <Gold.PLP.Chemscore.Metal>
0.0000

> <Gold.Chemscore.Hbonds>
donor molecule, donor type, donor heavy atom, donor atom, acceptor molecule, acceptor atom, score
      L1  H     8    30       P1  8028  0.98
      L1  H    11    31       P1  8028  0.78

> <Gold.PLP.Chemscore.Internal.Correction>
0.1762

> <Gold.Rescore>
     Score         DG    S(hbond)    S(metal)    S(lipo)     H(rot)  DE(clash)    DE(int)     intcor
     18.32     -23.30       1.91        0.00     119.57       1.00       1.78       3.20       ----

> <Gold.Chemscore.Fitness>
18.3183

> <Gold.Chemscore.DG>
-23.2965

> <Gold.Chemscore.ZeroCoef>
-5.4800

> <Gold.Chemscore.Hbond>
1.9122

> <Gold.Chemscore.Metal>
0.0000

> <Gold.Chemscore.Lipo>
119.5709

> <Gold.Chemscore.Internal_Hbond>
0.0000

> <Gold.Chemscore.DEClash>
1.7829

> <Gold.Chemscore.DEInternal>
3.1952

> <Gold.Chemscore.Rot>
1.0000

> <Gold.Chemscore.Internal.Correction>
   9.000000E+99

> <Gold.Chemscore.Hbonds>
donor molecule, donor type, donor heavy atom, donor atom, acceptor molecule, acceptor atom, score
      L1  H     8    30       P1  8028  0.92
      L1  H    11    31       P1  8028  0.54

> <Gold.Chemscore.Hbond.Weighted>
-6.3867

> <Gold.Chemscore.Metal.Weighted>
-0.0000

> <Gold.Chemscore.Lipo.Weighted>
-13.9898

> <Gold.Chemscore.Internal_Hbond.Weighted>
0.0000

> <Gold.Chemscore.DEClash.Weighted>
1.7829

> <Gold.Chemscore.DEInternal.Weighted>
3.1952

> <Gold.Chemscore.Rot.Weighted>
2.5600

> <Gold.Chemscore.Internal.Correction.Weighted>
   9.000000E+99

> <Gold.Protein.RotatedTorsions>
[ 6907 6896 6895 6894 ] final  146.61 input  -60.11 | X-H torsion
[ 7974 7965 7964 7962 ] final   81.37 input  175.53 | X-H torsion
[ 8008 7997 7996 7995 ] final   39.92 input   59.86 | X-H torsion
[ 10167 10162 10161 10158 ] final -160.94 input  -65.29 | X-H torsion
[ 10718 10713 10712 10709 ] final -105.97 input   66.30 | X-H torsion
[ 10763 10752 10751 10750 ] final  -43.40 input  -60.55 | X-H torsion
[ 11005 11000 10999 10996 ] final   -3.52 input  -57.11 | X-H torsion

> <Gold.Protein.ActiveResidues>
 VAL166  LYS551  ARG553  GLY616  TRP617  ASP618  TYR619  PRO620  LYS621  CYS622 
 ASP623  PHE694  ASN695  SER759  ASP760  ASP761  ALA762  ILE779  LEU786  VAL792 
 PHE793  MET794  SER795  GLU796  ALA797  LYS798  CYS799  TRP800  GLU811  SER814 

> <Gold.Protein.RotatedAtoms>
  152.1657  133.4610  159.4883 H   0  0  0  0  0  0  0  0  0  0  0  0  # atno 6907 bound_to 6896
  150.6912  134.2016  159.4333 H   0  0  0  0  0  0  0  0  0  0  0  0  # atno 6908 bound_to 6896
  151.9921  134.9973  160.0612 H   0  0  0  0  0  0  0  0  0  0  0  0  # atno 6909 bound_to 6896
  145.6390  139.2421  143.2041 H   0  0  0  0  0  0  0  0  0  0  0  0  # atno 7974 bound_to 7965
  155.2446  140.3348  155.4288 H   0  0  0  0  0  0  0  0  0  0  0  0  # atno 8008 bound_to 7997
  156.2241  140.1822  156.7449 H   0  0  0  0  0  0  0  0  0  0  0  0  # atno 8009 bound_to 7997
  154.5871  140.0644  156.9172 H   0  0  0  0  0  0  0  0  0  0  0  0  # atno 8010 bound_to 7997
  139.6502  144.0098  152.2156 H   0  0  0  0  0  0  0  0  0  0  0  0  # atno 10167 bound_to 10162
  156.0369  130.5590  150.7615 H   0  0  0  0  0  0  0  0  0  0  0  0  # atno 10718 bound_to 10713
  153.9949  135.6700  153.4756 H   0  0  0  0  0  0  0  0  0  0  0  0  # atno 10763 bound_to 10752
  153.0688  135.4986  154.8256 H   0  0  0  0  0  0  0  0  0  0  0  0  # atno 10764 bound_to 10752
  154.7087  135.3093  154.9193 H   0  0  0  0  0  0  0  0  0  0  0  0  # atno 10765 bound_to 10752
  140.6703  133.9243  155.8490 H   0  0  0  0  0  0  0  0  0  0  0  0  # atno 11005 bound_to 11000
  146.1296  140.7203  142.9419 LP  0  0  0  0  0  0  0  0  0  0  0  0  # atno 17320 bound_to 7965
  144.7164  140.4225  143.7041 LP  0  0  0  0  0  0  0  0  0  0  0  0  # atno 17321 bound_to 7965
  139.9810  144.6428  150.7900 LP  0  0  0  0  0  0  0  0  0  0  0  0  # atno 17342 bound_to 10162
  140.7534  143.3007  151.3087 LP  0  0  0  0  0  0  0  0  0  0  0  0  # atno 17343 bound_to 10162
  157.5133  131.0927  151.0171 LP  0  0  0  0  0  0  0  0  0  0  0  0  # atno 17370 bound_to 10713
  157.0521  130.5791  149.5372 LP  0  0  0  0  0  0  0  0  0  0  0  0  # atno 17371 bound_to 10713
  141.0397  134.0638  157.3916 LP  0  0  0  0  0  0  0  0  0  0  0  0  # atno 17394 bound_to 11000
  139.8984  135.0154  156.7146 LP  0  0  0  0  0  0  0  0  0  0  0  0  # atno 17395 bound_to 11000

$$$$
