AV-unprocessed.smi:1423|AV-procd|sdf|5797|dock8
  -GOLD-   22720 5453D 1   1.00000     0.00000
 Structure written by MMmdl.
 43 44  0  0  0  0  0  0  0  0  3 V2000
  152.6545  139.3157  159.0559 C   0  0  0  0  0  0  0  0  0  0  0  0
  152.7414  139.5341  157.6521 O   0  0  0  0  0  0  0  0  0  0  0  0
  152.0003  138.7243  156.8161 C   0  0  0  0  0  0  0  0  0  0  0  0
  151.9718  139.0226  155.4395 C   0  0  0  0  0  0  0  0  0  0  0  0
  151.2163  138.2031  154.5792 C   0  0  0  0  0  0  0  0  0  0  0  0
  150.5154  137.1003  155.1246 C   0  0  0  0  0  0  0  0  0  0  0  0
  149.7033  136.2067  154.3733 N   0  0  0  0  0  0  0  0  0  0  0  0
  149.1866  135.0211  154.7404 C   0  0  0  0  0  0  0  0  0  0  0  0
  149.3030  134.5029  155.8504 O   0  0  0  0  0  0  0  0  0  0  0  0
  148.5007  134.4601  153.7340 N   0  0  0  0  0  0  0  0  0  0  0  0
  147.8199  133.1698  153.7976 C   0  0  2  0  0  0  0  0  0  0  0  0
  148.8285  132.0312  154.0367 C   0  0  0  0  0  0  0  0  0  0  0  0
  148.1373  130.6585  153.9995 C   0  0  0  0  0  0  0  0  0  0  0  0
  147.4126  130.4585  152.7163 N   0  3  1  0  0  0  0  0  0  0  0  0
  146.8448  129.0941  152.5688 C   0  0  0  0  0  0  0  0  0  0  0  0
  147.9141  128.1094  152.0830 C   0  0  0  0  0  0  0  0  0  0  0  0
  148.1275  128.1970  150.7543 N   0  5  0  0  0  0  0  0  0  0  0  0
  148.4630  127.3610  152.8884 O   0  0  0  0  0  0  0  0  0  0  0  0
  146.4043  131.5228  152.4841 C   0  0  0  0  0  0  0  0  0  0  0  0
  147.0575  132.9152  152.4872 C   0  0  0  0  0  0  0  0  0  0  0  0
  150.6020  136.8945  156.5174 C   0  0  0  0  0  0  0  0  0  0  0  0
  151.3236  137.6765  157.3476 N   0  0  0  0  0  0  0  0  0  0  0  0
  153.2932  140.0321  159.5722 H   0  0  0  0  0  0  0  0  0  0  0  0
  152.9944  138.3149  159.3261 H   0  0  0  0  0  0  0  0  0  0  0  0
  151.6359  139.4590  159.4198 H   0  0  0  0  0  0  0  0  0  0  0  0
  152.5170  139.8696  155.0496 H   0  0  0  0  0  0  0  0  0  0  0  0
  151.1834  138.4481  153.5296 H   0  0  0  0  0  0  0  0  0  0  0  0
  149.4597  136.5260  153.4471 H   0  0  0  0  0  0  0  0  0  0  0  0
  148.4518  134.9580  152.8571 H   0  0  0  0  0  0  0  0  0  0  0  0
  147.0972  133.1841  154.6160 H   0  0  0  0  0  0  0  0  0  0  0  0
  149.6107  132.0618  153.2765 H   0  0  0  0  0  0  0  0  0  0  0  0
  149.3266  132.1632  154.9979 H   0  0  0  0  0  0  0  0  0  0  0  0
  148.8875  129.8787  154.1340 H   0  0  0  0  0  0  0  0  0  0  0  0
  147.4375  130.5687  154.8317 H   0  0  0  0  0  0  0  0  0  0  0  0
  146.4099  128.7584  153.5117 H   0  0  0  0  0  0  0  0  0  0  0  0
  146.0358  129.0950  151.8362 H   0  0  0  0  0  0  0  0  0  0  0  0
  148.2853  129.1244  150.3412 H   0  0  0  0  0  0  0  0  0  0  0  0
  145.9138  131.3612  151.5235 H   0  0  0  0  0  0  0  0  0  0  0  0
  145.6298  131.4656  153.2508 H   0  0  0  0  0  0  0  0  0  0  0  0
  146.2935  133.6801  152.3437 H   0  0  0  0  0  0  0  0  0  0  0  0
  147.7390  132.9948  151.6388 H   0  0  0  0  0  0  0  0  0  0  0  0
  150.0761  136.0739  156.9836 H   0  0  0  0  0  0  0  0  0  0  0  0
  148.0938  130.5423  151.9742 H   0  0  0  0  0  0  0  0  0  0  0  0
  1  2  1  0  0  0  0
  1 23  1  0  0  0  0
  1 24  1  0  0  0  0
  1 25  1  0  0  0  0
  2  3  1  0  0  0  0
  3 22  1  0  0  0  0
  3  4  2  0  0  0  0
  4  5  1  0  0  0  0
  4 26  1  0  0  0  0
  5  6  2  0  0  0  0
  5 27  1  0  0  0  0
  6  7  1  0  0  0  0
  6 21  1  0  0  0  0
  7  8  1  0  0  0  0
  7 28  1  0  0  0  0
  8  9  2  0  0  0  0
  8 10  1  0  0  0  0
 10 11  1  0  0  0  0
 10 29  1  0  0  0  0
 11 20  1  0  0  0  0
 11 12  1  0  0  0  0
 11 30  1  0  0  0  0
 12 13  1  0  0  0  0
 12 31  1  0  0  0  0
 12 32  1  0  0  0  0
 13 14  1  0  0  0  0
 13 33  1  0  0  0  0
 13 34  1  0  0  0  0
 14 15  1  0  0  0  0
 14 19  1  0  0  0  0
 14 43  1  0  0  0  0
 15 16  1  0  0  0  0
 15 35  1  0  0  0  0
 15 36  1  0  0  0  0
 16 17  1  0  0  0  0
 16 18  2  0  0  0  0
 17 37  1  0  0  0  0
 19 20  1  0  0  0  0
 19 38  1  0  0  0  0
 19 39  1  0  0  0  0
 20 40  1  0  0  0  0
 20 41  1  0  0  0  0
 21 22  2  0  0  0  0
 21 42  1  0  0  0  0
M  CHG  1  14   1
M  CHG  1  17  -1
M  END
> <s_m_source_file>
AV-unprocessed.smi

> <i_m_source_file_index>
1423

> <i_lp_mmshare_version>
43012

> <i_f3d_flags>
0

> <s_epik_input>
W0NIM11PYzFbY0hdW2NIXWMoW2NIXW4xKVtOSF1DKD1PKVtOSF1bQ0hdMltDSDJdW0NIMl1OKFtDSDJdW0NIMl0yKVtDSDJdQyg9TylbTkgyXQ==

> <s_epik_cmdline>
J2VwaWtfcHl0aG9uJywgJy1waCcsICc3LjAnLCAnLXRuJywgJzgnLCAnLW1hJywgJzIwMCcsICctbWV0YWxfYmluZGluZycsICctaW1hZScsICc8aW5maWxlLm1hZT4nLCAnLW9tYWUnLCAnPG91dGZpbGUubWFlPic=

> <r_lp_tautomer_probability>
1

> <r_epik_Ionization_Penalty>
5.72888

> <r_epik_Ionization_Penalty_Charging>
5.7288

> <r_epik_Ionization_Penalty_Neutral>
7.8452e-05

> <r_epik_State_Penalty>
6.54882

> <r_epik_Charging_Adjusted_Penalty>
12.2776

> <i_epik_Tot_Q>
0

> <i_epik_Tot_abs_Q>
2

> <r_epik_Metal_State_Penalty>
2.51301

> <b_epik_Metal_Only>
1

> <s_lp_Force_Field>
OPLS_2005

> <r_lp_Energy>
10.9641

> <b_lp_Chiralities_Consistent>
1

> <s_lp_Variant>
AV-unprocessed.smi:1423-4

> <Gold.Version>
5.8.1

> <Gold.Id.Protein>
6NUR|6NUR_protein|mol2

> <Gold.PLP.Fitness>
49.1311

> <Gold.PLP.PLP>
-35.6644

> <Gold.PLP.part.hbond>
-6.3480

> <Gold.PLP.part.metal>
0.0000

> <Gold.PLP.part.buried>
-3.0376

> <Gold.PLP.part.nonpolar>
-26.9928

> <Gold.PLP.part.repulsive>
0.1955

> <Gold.PLP.ligand.clash>
0.0000

> <Gold.PLP.ligand.torsion>
0.6635

> <Gold.PLP.Chemscore.Hbond>
4.9200

> <Gold.PLP.Chemscore.CHOScore>
0.0000

> <Gold.PLP.Chemscore.Metal>
0.0000

> <Gold.Chemscore.Hbonds>
donor molecule, donor type, donor heavy atom, donor atom, acceptor molecule, acceptor atom, score
      L1  H     7    28       P1  7948  1.00
      L1  H    10    29       P1  7948  1.00
      L1  H    14    43       P1 10747  1.00
      L1  H    17    37       P1 10747  0.60
      P1  H  7997  8010       L1     2  0.72

> <Gold.PLP.Chemscore.Internal.Correction>
0.0337

> <Gold.Rescore>
     Score         DG    S(hbond)    S(metal)    S(lipo)     H(rot)  DE(clash)    DE(int)     intcor
     17.74     -20.12       3.96        0.00      62.08       2.29       0.32       2.06       ----

> <Gold.Chemscore.Fitness>
17.7410

> <Gold.Chemscore.DG>
-20.1162

> <Gold.Chemscore.ZeroCoef>
-5.4800

> <Gold.Chemscore.Hbond>
3.9621

> <Gold.Chemscore.Metal>
0.0000

> <Gold.Chemscore.Lipo>
62.0807

> <Gold.Chemscore.Internal_Hbond>
0.0000

> <Gold.Chemscore.DEClash>
0.3160

> <Gold.Chemscore.DEInternal>
2.0592

> <Gold.Chemscore.Rot>
2.2894

> <Gold.Chemscore.Internal.Correction>
   9.000000E+99

> <Gold.Chemscore.Hbonds>
donor molecule, donor type, donor heavy atom, donor atom, acceptor molecule, acceptor atom, score
      L1  H     7    28       P1  7948  0.71
      L1  H    10    29       P1  7948  0.57
      L1  H    14    43       P1 10747  0.99
      L1  H    17    37       P1 10747  0.04
      P1  H  7997  8010       L1     2  0.50

> <Gold.Chemscore.Hbond.Weighted>
-13.2335

> <Gold.Chemscore.Metal.Weighted>
-0.0000

> <Gold.Chemscore.Lipo.Weighted>
-7.2634

> <Gold.Chemscore.Internal_Hbond.Weighted>
0.0000

> <Gold.Chemscore.DEClash.Weighted>
0.3160

> <Gold.Chemscore.DEInternal.Weighted>
2.0592

> <Gold.Chemscore.Rot.Weighted>
5.8608

> <Gold.Chemscore.Internal.Correction.Weighted>
   9.000000E+99

> <Gold.Protein.RotatedTorsions>
[ 6907 6896 6895 6894 ] final -119.40 input  -60.11 | X-H torsion
[ 7974 7965 7964 7962 ] final  127.11 input  175.53 | X-H torsion
[ 8008 7997 7996 7995 ] final   23.74 input   59.86 | X-H torsion
[ 10167 10162 10161 10158 ] final  -76.36 input  -65.29 | X-H torsion
[ 10718 10713 10712 10709 ] final   74.80 input   66.30 | X-H torsion
[ 10763 10752 10751 10750 ] final -144.72 input  -60.55 | X-H torsion
[ 11005 11000 10999 10996 ] final   -2.33 input  -57.11 | X-H torsion

> <Gold.Protein.ActiveResidues>
 VAL166  LYS551  ARG553  GLY616  TRP617  ASP618  TYR619  PRO620  LYS621  CYS622 
 ASP623  PHE694  ASN695  SER759  ASP760  ASP761  ALA762  ILE779  LEU786  VAL792 
 PHE793  MET794  SER795  GLU796  ALA797  LYS798  CYS799  TRP800  GLU811  SER814 

> <Gold.Protein.RotatedAtoms>
  150.8302  133.8103  159.3101 H   0  0  0  0  0  0  0  0  0  0  0  0  # atno 6907 bound_to 6896
  151.5836  135.1055  160.0032 H   0  0  0  0  0  0  0  0  0  0  0  0  # atno 6908 bound_to 6896
  152.4382  133.7359  159.6670 H   0  0  0  0  0  0  0  0  0  0  0  0  # atno 6909 bound_to 6896
  145.0543  139.3857  143.5038 H   0  0  0  0  0  0  0  0  0  0  0  0  # atno 7974 bound_to 7965
  154.9856  140.3107  155.4928 H   0  0  0  0  0  0  0  0  0  0  0  0  # atno 8008 bound_to 7997
  156.2947  140.2258  156.4897 H   0  0  0  0  0  0  0  0  0  0  0  0  # atno 8009 bound_to 7997
  154.7750  140.0450  157.1070 H   0  0  0  0  0  0  0  0  0  0  0  0  # atno 8010 bound_to 7997
  140.4863  143.2390  151.7978 H   0  0  0  0  0  0  0  0  0  0  0  0  # atno 10167 bound_to 10162
  157.6608  130.9695  150.1263 H   0  0  0  0  0  0  0  0  0  0  0  0  # atno 10718 bound_to 10713
  154.8415  135.3432  154.6391 H   0  0  0  0  0  0  0  0  0  0  0  0  # atno 10763 bound_to 10752
  153.7002  135.6970  153.5070 H   0  0  0  0  0  0  0  0  0  0  0  0  # atno 10764 bound_to 10752
  153.2528  135.4348  155.0770 H   0  0  0  0  0  0  0  0  0  0  0  0  # atno 10765 bound_to 10752
  140.6571  133.9352  155.8414 H   0  0  0  0  0  0  0  0  0  0  0  0  # atno 11005 bound_to 11000
  146.3520  140.0208  142.8658 LP  0  0  0  0  0  0  0  0  0  0  0  0  # atno 17320 bound_to 7965
  145.1488  140.9612  143.4445 LP  0  0  0  0  0  0  0  0  0  0  0  0  # atno 17321 bound_to 7965
  139.4842  144.4707  151.9429 LP  0  0  0  0  0  0  0  0  0  0  0  0  # atno 17342 bound_to 10162
  140.3793  144.2756  150.5910 LP  0  0  0  0  0  0  0  0  0  0  0  0  # atno 17343 bound_to 10162
  156.2121  130.3667  149.8657 LP  0  0  0  0  0  0  0  0  0  0  0  0  # atno 17370 bound_to 10713
  156.6533  130.8752  151.3535 LP  0  0  0  0  0  0  0  0  0  0  0  0  # atno 17371 bound_to 10713
  141.0493  134.0508  157.3804 LP  0  0  0  0  0  0  0  0  0  0  0  0  # atno 17394 bound_to 11000
  139.9025  135.0169  156.7337 LP  0  0  0  0  0  0  0  0  0  0  0  0  # atno 17395 bound_to 11000

$$$$
