AV-unprocessed.smi:1565|AV-procd|sdf|6300|dock4
  -GOLD-   22720 6503D 1   1.00000     0.00000
 Structure written by MMmdl.
 39 40  0  0  0  0  0  0  0  0  2 V2000
  148.8765  142.6878  158.2271 C   0  0  0  0  0  0  0  0  0  0  0  0
  150.3993  142.5318  158.2950 C   0  0  2  0  0  0  0  0  0  0  0  0
  150.8150  141.0712  158.5445 C   0  0  0  0  0  0  0  0  0  0  0  0
  152.2595  140.9801  158.7287 N   0  0  0  0  0  0  0  0  0  0  0  0
  152.8042  139.6813  158.6375 C   0  0  0  0  0  0  0  0  0  0  0  0
  153.2061  138.9975  159.8084 C   0  0  0  0  0  0  0  0  0  0  0  0
  153.7507  137.7038  159.6963 C   0  0  0  0  0  0  0  0  0  0  0  0
  153.8730  137.1149  158.4173 C   0  0  0  0  0  0  0  0  0  0  0  0
  154.4734  135.7492  158.2180 C   0  0  0  0  0  0  0  0  0  0  0  0
  154.3541  134.9253  159.1317 O   0  0  0  0  0  0  0  0  0  0  0  0
  155.1300  135.6377  157.0287 N   0  5  0  0  0  0  0  0  0  0  0  0
  156.3447  134.8435  156.8296 C   0  0  0  0  0  0  0  0  0  0  0  0
  157.5370  135.7365  156.4304 C   0  0  0  0  0  0  0  0  0  0  0  0
  157.8171  136.5627  157.4382 F   0  0  0  0  0  0  0  0  0  0  0  0
  158.6183  134.9965  156.1802 F   0  0  0  0  0  0  0  0  0  0  0  0
  157.2494  136.4702  155.3541 F   0  0  0  0  0  0  0  0  0  0  0  0
  153.4508  137.8790  157.3081 C   0  0  0  0  0  0  0  0  0  0  0  0
  152.9265  139.1193  157.4101 N   0  0  0  0  0  0  0  0  0  0  0  0
  152.7616  141.8628  159.7791 C   0  0  0  0  0  0  0  0  0  0  0  0
  152.2963  143.3144  159.5512 C   0  0  1  0  0  0  0  0  0  0  0  0
  153.0587  144.0330  158.4235 C   0  0  0  0  0  0  0  0  0  0  0  0
  150.8806  143.3549  159.3569 O   0  0  0  0  0  0  0  0  0  0  0  0
  148.4557  142.0852  157.4218 H   0  0  0  0  0  0  0  0  0  0  0  0
  148.5992  143.7263  158.0442 H   0  0  0  0  0  0  0  0  0  0  0  0
  148.4056  142.3766  159.1600 H   0  0  0  0  0  0  0  0  0  0  0  0
  150.8153  142.8730  157.3469 H   0  0  0  0  0  0  0  0  0  0  0  0
  150.3252  140.6887  159.4409 H   0  0  0  0  0  0  0  0  0  0  0  0
  150.4742  140.4561  157.7128 H   0  0  0  0  0  0  0  0  0  0  0  0
  153.0942  139.4417  160.7862 H   0  0  0  0  0  0  0  0  0  0  0  0
  154.0679  137.1811  160.5870 H   0  0  0  0  0  0  0  0  0  0  0  0
  156.6108  134.2668  157.7171 H   0  0  0  0  0  0  0  0  0  0  0  0
  156.1898  134.1001  156.0467 H   0  0  0  0  0  0  0  0  0  0  0  0
  153.5277  137.4877  156.3040 H   0  0  0  0  0  0  0  0  0  0  0  0
  152.3912  141.5065  160.7415 H   0  0  0  0  0  0  0  0  0  0  0  0
  153.8511  141.8291  159.8210 H   0  0  0  0  0  0  0  0  0  0  0  0
  152.4927  143.8723  160.4673 H   0  0  0  0  0  0  0  0  0  0  0  0
  154.1198  144.1070  158.6627 H   0  0  0  0  0  0  0  0  0  0  0  0
  152.6811  145.0459  158.2828 H   0  0  0  0  0  0  0  0  0  0  0  0
  152.9795  143.5097  157.4709 H   0  0  0  0  0  0  0  0  0  0  0  0
  1  2  1  0  0  0  0
  1 23  1  0  0  0  0
  1 24  1  0  0  0  0
  1 25  1  0  0  0  0
  2 22  1  0  0  0  0
  2  3  1  0  0  0  0
  2 26  1  0  0  0  0
  3  4  1  0  0  0  0
  3 27  1  0  0  0  0
  3 28  1  0  0  0  0
  4  5  1  0  0  0  0
  4 19  1  0  0  0  0
  5 18  1  0  0  0  0
  5  6  2  0  0  0  0
  6  7  1  0  0  0  0
  6 29  1  0  0  0  0
  7  8  2  0  0  0  0
  7 30  1  0  0  0  0
  8  9  1  0  0  0  0
  8 17  1  0  0  0  0
  9 10  2  0  0  0  0
  9 11  1  0  0  0  0
 11 12  1  0  0  0  0
 12 13  1  0  0  0  0
 12 31  1  0  0  0  0
 12 32  1  0  0  0  0
 13 14  1  0  0  0  0
 13 15  1  0  0  0  0
 13 16  1  0  0  0  0
 17 18  2  0  0  0  0
 17 33  1  0  0  0  0
 19 20  1  0  0  0  0
 19 34  1  0  0  0  0
 19 35  1  0  0  0  0
 20 21  1  0  0  0  0
 20 22  1  0  0  0  0
 20 36  1  0  0  0  0
 21 37  1  0  0  0  0
 21 38  1  0  0  0  0
 21 39  1  0  0  0  0
M  CHG  1  11  -1
M  END
> <s_m_source_file>
AV-unprocessed.smi

> <i_m_source_file_index>
1565

> <i_lp_mmshare_version>
43012

> <i_f3d_flags>
0

> <s_epik_input>
W0NIM11bQ0BASF0xW0NIMl1OKFtDSDJdW0NASF0oTzEpW0NIM10pYzJbY0hdW2NIXWMoW2NIXW4yKUMoPU8pW05IXVtDSDJdQyhGKShGKUY=

> <s_epik_cmdline>
J2VwaWtfcHl0aG9uJywgJy1waCcsICc3LjAnLCAnLXRuJywgJzgnLCAnLW1hJywgJzIwMCcsICctbWV0YWxfYmluZGluZycsICctaW1hZScsICc8aW5maWxlLm1hZT4nLCAnLW9tYWUnLCAnPG91dGZpbGUubWFlPic=

> <r_lp_tautomer_probability>
1

> <r_epik_Ionization_Penalty>
6.78525

> <r_epik_Ionization_Penalty_Charging>
6.78469

> <r_epik_Ionization_Penalty_Neutral>
0.000559052

> <r_epik_State_Penalty>
6.78469

> <r_epik_Charging_Adjusted_Penalty>
13.5694

> <i_epik_Tot_Q>
-1

> <i_epik_Tot_abs_Q>
1

> <r_epik_Metal_State_Penalty>
2.70441

> <b_epik_Metal_Only>
1

> <s_lp_Force_Field>
OPLS_2005

> <r_lp_Energy>
29.3636

> <b_lp_Chiralities_Consistent>
1

> <s_lp_Variant>
AV-unprocessed.smi:1565-4

> <Gold.Version>
5.8.1

> <Gold.Id.Protein>
6NUR|6NUR_protein|mol2

> <Gold.PLP.Fitness>
41.3173

> <Gold.PLP.PLP>
-31.3268

> <Gold.PLP.part.hbond>
-3.4761

> <Gold.PLP.part.metal>
0.0000

> <Gold.PLP.part.buried>
-4.1330

> <Gold.PLP.part.nonpolar>
-22.9375

> <Gold.PLP.part.repulsive>
0.0334

> <Gold.PLP.ligand.clash>
0.0000

> <Gold.PLP.ligand.torsion>
1.1735

> <Gold.PLP.Chemscore.Hbond>
4.0000

> <Gold.PLP.Chemscore.CHOScore>
0.0000

> <Gold.PLP.Chemscore.Metal>
0.0000

> <Gold.Chemscore.Hbonds>
donor molecule, donor type, donor heavy atom, donor atom, acceptor molecule, acceptor atom, score
      P1  H  6896  6907       L1    10  1.00
      P1  H  7997  8009       L1    18  0.56
      P1  H 10752 10763       L1    11  1.20

> <Gold.PLP.Chemscore.Internal.Correction>
0.3374

> <Gold.Rescore>
     Score         DG    S(hbond)    S(metal)    S(lipo)     H(rot)  DE(clash)    DE(int)     intcor
     14.32     -15.62       1.54        0.00      71.11       1.29       0.07       1.23       ----

> <Gold.Chemscore.Fitness>
14.3205

> <Gold.Chemscore.DG>
-15.6210

> <Gold.Chemscore.ZeroCoef>
-5.4800

> <Gold.Chemscore.Hbond>
1.5356

> <Gold.Chemscore.Metal>
0.0000

> <Gold.Chemscore.Lipo>
71.1103

> <Gold.Chemscore.Internal_Hbond>
0.0000

> <Gold.Chemscore.DEClash>
0.0734

> <Gold.Chemscore.DEInternal>
1.2271

> <Gold.Chemscore.Rot>
1.2921

> <Gold.Chemscore.Internal.Correction>
   9.000000E+99

> <Gold.Chemscore.Hbonds>
donor molecule, donor type, donor heavy atom, donor atom, acceptor molecule, acceptor atom, score
      P1  H  6896  6907       L1    10  0.94
      P1  H  7997  8009       L1    18  0.01
      P1  H 10752 10763       L1    11  0.04

> <Gold.Chemscore.Hbond.Weighted>
-5.1288

> <Gold.Chemscore.Metal.Weighted>
-0.0000

> <Gold.Chemscore.Lipo.Weighted>
-8.3199

> <Gold.Chemscore.Internal_Hbond.Weighted>
0.0000

> <Gold.Chemscore.DEClash.Weighted>
0.0734

> <Gold.Chemscore.DEInternal.Weighted>
1.2271

> <Gold.Chemscore.Rot.Weighted>
3.3078

> <Gold.Chemscore.Internal.Correction.Weighted>
   9.000000E+99

> <Gold.Protein.RotatedTorsions>
[ 6907 6896 6895 6894 ] final   81.66 input  -60.11 | X-H torsion
[ 7974 7965 7964 7962 ] final -173.36 input  175.53 | X-H torsion
[ 8008 7997 7996 7995 ] final  158.54 input   59.86 | X-H torsion
[ 10167 10162 10161 10158 ] final  -72.80 input  -65.29 | X-H torsion
[ 10718 10713 10712 10709 ] final  158.91 input   66.30 | X-H torsion
[ 10763 10752 10751 10750 ] final  179.31 input  -60.55 | X-H torsion
[ 11005 11000 10999 10996 ] final  -90.04 input  -57.11 | X-H torsion

> <Gold.Protein.ActiveResidues>
 VAL166  LYS551  ARG553  GLY616  TRP617  ASP618  TYR619  PRO620  LYS621  CYS622 
 ASP623  PHE694  ASN695  SER759  ASP760  ASP761  ALA762  ILE779  LEU786  VAL792 
 PHE793  MET794  SER795  GLU796  ALA797  LYS798  CYS799  TRP800  GLU811  SER814 

> <Gold.Protein.RotatedAtoms>
  152.5275  134.3170  159.9134 H   0  0  0  0  0  0  0  0  0  0  0  0  # atno 6907 bound_to 6896
  151.3119  133.4070  159.2655 H   0  0  0  0  0  0  0  0  0  0  0  0  # atno 6908 bound_to 6896
  151.0031  134.9355  159.8022 H   0  0  0  0  0  0  0  0  0  0  0  0  # atno 6909 bound_to 6896
  144.7138  140.1634  143.6374 H   0  0  0  0  0  0  0  0  0  0  0  0  # atno 7974 bound_to 7965
  156.2296  140.1855  156.7275 H   0  0  0  0  0  0  0  0  0  0  0  0  # atno 8008 bound_to 7997
  154.6000  140.0637  156.9383 H   0  0  0  0  0  0  0  0  0  0  0  0  # atno 8009 bound_to 7997
  155.2190  140.3306  155.4320 H   0  0  0  0  0  0  0  0  0  0  0  0  # atno 8010 bound_to 7997
  140.5163  143.2337  151.7507 H   0  0  0  0  0  0  0  0  0  0  0  0  # atno 10167 bound_to 10162
  157.1714  131.0611  151.2180 H   0  0  0  0  0  0  0  0  0  0  0  0  # atno 10718 bound_to 10713
  154.5190  135.2793  155.1279 H   0  0  0  0  0  0  0  0  0  0  0  0  # atno 10763 bound_to 10752
  154.2844  135.6279  153.5363 H   0  0  0  0  0  0  0  0  0  0  0  0  # atno 10764 bound_to 10752
  152.9933  135.5659  154.5674 H   0  0  0  0  0  0  0  0  0  0  0  0  # atno 10765 bound_to 10752
  141.1573  133.7667  156.9682 H   0  0  0  0  0  0  0  0  0  0  0  0  # atno 11005 bound_to 11000
  145.9010  139.2430  143.1494 LP  0  0  0  0  0  0  0  0  0  0  0  0  # atno 17320 bound_to 7965
  145.9811  140.8682  143.0114 LP  0  0  0  0  0  0  0  0  0  0  0  0  # atno 17321 bound_to 7965
  139.4910  144.4319  151.9862 LP  0  0  0  0  0  0  0  0  0  0  0  0  # atno 17342 bound_to 10162
  140.3413  144.3199  150.5966 LP  0  0  0  0  0  0  0  0  0  0  0  0  # atno 17343 bound_to 10162
  157.4039  130.7348  149.6788 LP  0  0  0  0  0  0  0  0  0  0  0  0  # atno 17370 bound_to 10713
  155.9738  130.4113  150.3975 LP  0  0  0  0  0  0  0  0  0  0  0  0  # atno 17371 bound_to 10713
  140.1147  134.9454  157.2117 LP  0  0  0  0  0  0  0  0  0  0  0  0  # atno 17394 bound_to 11000
  140.3148  134.2983  155.7259 LP  0  0  0  0  0  0  0  0  0  0  0  0  # atno 17395 bound_to 11000

$$$$
