AV-unprocessed.smi:652|AV-procd|sdf|3198|dock6
  -GOLD-   22720 0133D 1   1.00000     0.00000
 Structure written by MMmdl.
 49 50  0  0  0  0  0  0  0  0  3 V2000
  152.3685  143.2493  161.6200 C   0  0  0  0  0  0  0  0  0  0  0  0
  152.3907  143.9708  160.2629 C   0  0  0  0  0  0  0  0  0  0  0  0
  151.5205  145.2345  160.2803 C   0  0  0  0  0  0  0  0  0  0  0  0
  151.9309  143.0803  159.2006 N   0  0  0  0  0  0  0  0  0  0  0  0
  152.3837  141.8366  158.9767 C   0  0  0  0  0  0  0  0  0  0  0  0
  153.2536  141.3019  159.6649 O   0  0  0  0  0  0  0  0  0  0  0  0
  151.7509  141.0942  157.7943 C   0  0  0  0  0  0  0  0  0  0  0  0
  152.2994  139.6637  157.6043 C   0  0  0  0  0  0  0  0  0  0  0  0
  151.7699  139.0053  156.3832 N   0  3  1  0  0  0  0  0  0  0  0  0
  152.5487  139.3627  155.1737 C   0  0  0  0  0  0  0  0  0  0  0  0
  151.9438  138.6998  153.9266 C   0  0  0  0  0  0  0  0  0  0  0  0
  151.8964  137.2912  154.1154 O   0  0  0  0  0  0  0  0  0  0  0  0
  151.0705  136.9171  155.2119 C   0  0  1  0  0  0  0  0  0  0  0  0
  151.0296  135.3778  155.2486 C   0  0  0  0  0  0  0  0  0  0  0  0
  150.2600  134.8025  154.1531 N   0  0  0  0  0  0  0  0  0  0  0  0
  150.1348  133.4158  153.9823 C   0  0  0  0  0  0  0  0  0  0  0  0
  149.4051  132.7992  152.9383 C   0  0  0  0  0  0  0  0  0  0  0  0
  149.3681  131.3952  152.8892 C   0  0  0  0  0  0  0  0  0  0  0  0
  150.0636  130.6896  153.8866 C   0  0  0  0  0  0  0  0  0  0  0  0
  150.7543  131.2970  154.8769 N   0  0  0  0  0  0  0  0  0  0  0  0
  150.7718  132.6413  154.8961 N   0  3  0  0  0  0  0  0  0  0  0  0
  151.6525  137.5301  156.5043 C   0  0  0  0  0  0  0  0  0  0  0  0
  152.7139  143.9075  162.4178 H   0  0  0  0  0  0  0  0  0  0  0  0
  153.0187  142.3739  161.6160 H   0  0  0  0  0  0  0  0  0  0  0  0
  151.3625  142.9162  161.8768 H   0  0  0  0  0  0  0  0  0  0  0  0
  153.4162  144.2777  160.0491 H   0  0  0  0  0  0  0  0  0  0  0  0
  151.8606  145.9335  161.0448 H   0  0  0  0  0  0  0  0  0  0  0  0
  150.4767  144.9963  160.4884 H   0  0  0  0  0  0  0  0  0  0  0  0
  151.5597  145.7529  159.3217 H   0  0  0  0  0  0  0  0  0  0  0  0
  151.2148  143.4422  158.5874 H   0  0  0  0  0  0  0  0  0  0  0  0
  150.6717  141.0713  157.9470 H   0  0  0  0  0  0  0  0  0  0  0  0
  151.9304  141.6820  156.8931 H   0  0  0  0  0  0  0  0  0  0  0  0
  153.3862  139.7154  157.5166 H   0  0  0  0  0  0  0  0  0  0  0  0
  152.0882  139.0468  158.4796 H   0  0  0  0  0  0  0  0  0  0  0  0
  152.5576  140.4455  155.0428 H   0  0  0  0  0  0  0  0  0  0  0  0
  153.5855  139.0461  155.2989 H   0  0  0  0  0  0  0  0  0  0  0  0
  150.9447  139.0884  153.7223 H   0  0  0  0  0  0  0  0  0  0  0  0
  152.5556  138.9184  153.0511 H   0  0  0  0  0  0  0  0  0  0  0  0
  150.0647  137.3036  155.0379 H   0  0  0  0  0  0  0  0  0  0  0  0
  152.0403  134.9697  155.2357 H   0  0  0  0  0  0  0  0  0  0  0  0
  150.5889  135.0442  156.1886 H   0  0  0  0  0  0  0  0  0  0  0  0
  149.8204  135.4277  153.4923 H   0  0  0  0  0  0  0  0  0  0  0  0
  148.8822  133.3709  152.1866 H   0  0  0  0  0  0  0  0  0  0  0  0
  148.8270  130.8749  152.1127 H   0  0  0  0  0  0  0  0  0  0  0  0
  150.0670  129.6093  153.8924 H   0  0  0  0  0  0  0  0  0  0  0  0
  152.6355  137.1040  156.7122 H   0  0  0  0  0  0  0  0  0  0  0  0
  151.0097  137.2739  157.3457 H   0  0  0  0  0  0  0  0  0  0  0  0
  150.8390  139.3699  156.2385 H   0  0  0  0  0  0  0  0  0  0  0  0
  151.2953  133.1048  155.6389 H   0  0  0  0  0  0  0  0  0  0  0  0
  1  2  1  0  0  0  0
  1 23  1  0  0  0  0
  1 24  1  0  0  0  0
  1 25  1  0  0  0  0
  2  3  1  0  0  0  0
  2  4  1  0  0  0  0
  2 26  1  0  0  0  0
  3 27  1  0  0  0  0
  3 28  1  0  0  0  0
  3 29  1  0  0  0  0
  4  5  1  0  0  0  0
  4 30  1  0  0  0  0
  5  6  2  0  0  0  0
  5  7  1  0  0  0  0
  7  8  1  0  0  0  0
  7 31  1  0  0  0  0
  7 32  1  0  0  0  0
  8  9  1  0  0  0  0
  8 33  1  0  0  0  0
  8 34  1  0  0  0  0
  9 22  1  0  0  0  0
  9 10  1  0  0  0  0
  9 48  1  0  0  0  0
 10 11  1  0  0  0  0
 10 35  1  0  0  0  0
 10 36  1  0  0  0  0
 11 12  1  0  0  0  0
 11 37  1  0  0  0  0
 11 38  1  0  0  0  0
 12 13  1  0  0  0  0
 13 14  1  0  0  0  0
 13 22  1  0  0  0  0
 13 39  1  0  0  0  0
 14 15  1  0  0  0  0
 14 40  1  0  0  0  0
 14 41  1  0  0  0  0
 15 16  1  0  0  0  0
 15 42  1  0  0  0  0
 16 21  1  0  0  0  0
 16 17  2  0  0  0  0
 17 18  1  0  0  0  0
 17 43  1  0  0  0  0
 18 19  2  0  0  0  0
 18 44  1  0  0  0  0
 19 20  1  0  0  0  0
 19 45  1  0  0  0  0
 20 21  2  0  0  0  0
 21 49  1  0  0  0  0
 22 46  1  0  0  0  0
 22 47  1  0  0  0  0
M  CHG  1   9   1
M  CHG  1  21   1
M  END
> <s_m_source_file>
AV-unprocessed.smi

> <i_m_source_file_index>
652

> <i_lp_mmshare_version>
43012

> <i_f3d_flags>
0

> <s_epik_input>
W0NIM11bQ0hdKFtDSDNdKVtOSF1DKD1PKVtDSDJdW0NIMl1OMVtDSDJdW0NIMl1PW0NASF0oW0NIMl0xKVtDSDJdW05IXWMyW2NIXVtjSF1bY0hdbm4y

> <s_epik_cmdline>
J2VwaWtfcHl0aG9uJywgJy1waCcsICc3LjAnLCAnLXRuJywgJzgnLCAnLW1hJywgJzIwMCcsICctbWV0YWxfYmluZGluZycsICctaW1hZScsICc8aW5maWxlLm1hZT4nLCAnLW9tYWUnLCAnPG91dGZpbGUubWFlPic=

> <r_lp_tautomer_probability>
0.966961

> <r_epik_Ionization_Penalty>
2.79885

> <r_epik_Ionization_Penalty_Charging>
2.79884

> <r_epik_Ionization_Penalty_Neutral>
3.2567e-06

> <r_epik_State_Penalty>
2.43203

> <r_epik_Charging_Adjusted_Penalty>
5.23087

> <i_epik_Tot_Q>
2

> <i_epik_Tot_abs_Q>
2

> <r_epik_Metal_State_Penalty>
2.43963

> <b_epik_Metal_Only>
0

> <s_lp_Force_Field>
OPLS_2005

> <r_lp_Energy>
31.8116

> <b_lp_Chiralities_Consistent>
1

> <s_lp_Variant>
AV-unprocessed.smi:652-7

> <Gold.Version>
5.8.1

> <Gold.Id.Protein>
6NUR|6NUR_protein|mol2

> <Gold.PLP.Fitness>
49.6011

> <Gold.PLP.PLP>
-41.4523

> <Gold.PLP.part.hbond>
-2.0000

> <Gold.PLP.part.metal>
0.0000

> <Gold.PLP.part.buried>
-6.9125

> <Gold.PLP.part.nonpolar>
-32.7116

> <Gold.PLP.part.repulsive>
0.3314

> <Gold.PLP.ligand.clash>
0.0000

> <Gold.PLP.ligand.torsion>
0.4628

> <Gold.PLP.Chemscore.Hbond>
3.0000

> <Gold.PLP.Chemscore.CHOScore>
0.0000

> <Gold.PLP.Chemscore.Metal>
0.0000

> <Gold.Chemscore.Hbonds>
donor molecule, donor type, donor heavy atom, donor atom, acceptor molecule, acceptor atom, score
      L1  H    15    42       P1  7948  0.90
      P1  H 10752 10763       L1    12  0.47

> <Gold.PLP.Chemscore.Internal.Correction>
0.0744

> <Gold.Rescore>
     Score         DG    S(hbond)    S(metal)    S(lipo)     H(rot)  DE(clash)    DE(int)     intcor
     13.91     -15.71       1.65        0.00      91.36       2.33       0.09       1.72       ----

> <Gold.Chemscore.Fitness>
13.9061

> <Gold.Chemscore.DG>
-15.7092

> <Gold.Chemscore.ZeroCoef>
-5.4800

> <Gold.Chemscore.Hbond>
1.6503

> <Gold.Chemscore.Metal>
0.0000

> <Gold.Chemscore.Lipo>
91.3551

> <Gold.Chemscore.Internal_Hbond>
0.0000

> <Gold.Chemscore.DEClash>
0.0861

> <Gold.Chemscore.DEInternal>
1.7170

> <Gold.Chemscore.Rot>
2.3326

> <Gold.Chemscore.Internal.Correction>
   9.000000E+99

> <Gold.Chemscore.Hbonds>
donor molecule, donor type, donor heavy atom, donor atom, acceptor molecule, acceptor atom, score
      L1  H    15    42       P1  7948  0.02
      P1  H 10752 10763       L1    12  0.02

> <Gold.Chemscore.Hbond.Weighted>
-5.5120

> <Gold.Chemscore.Metal.Weighted>
-0.0000

> <Gold.Chemscore.Lipo.Weighted>
-10.6885

> <Gold.Chemscore.Internal_Hbond.Weighted>
0.0000

> <Gold.Chemscore.DEClash.Weighted>
0.0861

> <Gold.Chemscore.DEInternal.Weighted>
1.7170

> <Gold.Chemscore.Rot.Weighted>
5.9714

> <Gold.Chemscore.Internal.Correction.Weighted>
   9.000000E+99

> <Gold.Protein.RotatedTorsions>
[ 6907 6896 6895 6894 ] final   41.24 input  -60.11 | X-H torsion
[ 7974 7965 7964 7962 ] final  -61.79 input  175.53 | X-H torsion
[ 8008 7997 7996 7995 ] final -100.09 input   59.86 | X-H torsion
[ 10167 10162 10161 10158 ] final  138.72 input  -65.29 | X-H torsion
[ 10718 10713 10712 10709 ] final   31.39 input   66.30 | X-H torsion
[ 10763 10752 10751 10750 ] final   47.25 input  -60.55 | X-H torsion
[ 11005 11000 10999 10996 ] final  158.14 input  -57.11 | X-H torsion

> <Gold.Protein.ActiveResidues>
 VAL166  LYS551  ARG553  GLY616  TRP617  ASP618  TYR619  PRO620  LYS621  CYS622 
 ASP623  PHE694  ASN695  SER759  ASP760  ASP761  ALA762  ILE779  LEU786  VAL792 
 PHE793  MET794  SER795  GLU796  ALA797  LYS798  CYS799  TRP800  GLU811  SER814 

> <Gold.Protein.RotatedAtoms>
  152.1927  134.8658  160.0515 H   0  0  0  0  0  0  0  0  0  0  0  0  # atno 6907 bound_to 6896
  151.9540  133.3670  159.4019 H   0  0  0  0  0  0  0  0  0  0  0  0  # atno 6908 bound_to 6896
  150.6938  134.4234  159.5259 H   0  0  0  0  0  0  0  0  0  0  0  0  # atno 6909 bound_to 6896
  145.7992  140.8665  143.0240 H   0  0  0  0  0  0  0  0  0  0  0  0  # atno 7974 bound_to 7965
  154.8238  140.0443  157.1429 H   0  0  0  0  0  0  0  0  0  0  0  0  # atno 8008 bound_to 7997
  154.9230  140.3029  155.5186 H   0  0  0  0  0  0  0  0  0  0  0  0  # atno 8009 bound_to 7997
  156.2982  140.2337  156.4282 H   0  0  0  0  0  0  0  0  0  0  0  0  # atno 8010 bound_to 7997
  139.5102  144.6337  151.5752 H   0  0  0  0  0  0  0  0  0  0  0  0  # atno 10167 bound_to 10162
  157.2719  130.7212  149.6509 H   0  0  0  0  0  0  0  0  0  0  0  0  # atno 10718 bound_to 10713
  152.9802  135.5982  154.3732 H   0  0  0  0  0  0  0  0  0  0  0  0  # atno 10763 bound_to 10752
  154.3404  135.2768  155.2427 H   0  0  0  0  0  0  0  0  0  0  0  0  # atno 10764 bound_to 10752
  154.4512  135.5989  153.6248 H   0  0  0  0  0  0  0  0  0  0  0  0  # atno 10765 bound_to 10752
  140.1837  134.8457  157.2832 H   0  0  0  0  0  0  0  0  0  0  0  0  # atno 11005 bound_to 11000
  144.6771  140.0234  143.7483 LP  0  0  0  0  0  0  0  0  0  0  0  0  # atno 17320 bound_to 7965
  145.9896  139.3004  143.0993 LP  0  0  0  0  0  0  0  0  0  0  0  0  # atno 17321 bound_to 7965
  140.6079  143.9491  150.6431 LP  0  0  0  0  0  0  0  0  0  0  0  0  # atno 17342 bound_to 10162
  140.2724  143.3446  152.1226 LP  0  0  0  0  0  0  0  0  0  0  0  0  # atno 17343 bound_to 10162
  155.9663  130.4365  150.5136 LP  0  0  0  0  0  0  0  0  0  0  0  0  # atno 17370 bound_to 10713
  157.3062  131.0655  151.2033 LP  0  0  0  0  0  0  0  0  0  0  0  0  # atno 17371 bound_to 10713
  140.2238  134.3991  155.7553 LP  0  0  0  0  0  0  0  0  0  0  0  0  # atno 17394 bound_to 11000
  141.2224  133.7179  156.8533 LP  0  0  0  0  0  0  0  0  0  0  0  0  # atno 17395 bound_to 11000

$$$$
