AV-unprocessed.smi:1868|AV-procd|sdf|7591|dock1
  -GOLD-   22720 9303D 1   1.00000     0.00000
 Structure written by MMmdl.
 48 50  0  0  0  0  0  0  0  0  3 V2000
  148.8582  141.3548  154.1053 C   0  0  0  0  0  0  0  0  0  0  0  0
  149.7310  141.4501  155.3115 C   0  0  0  0  0  0  0  0  0  0  0  0
  149.7574  142.4813  156.2023 N   0  3  0  0  0  0  0  0  0  0  0  0
  150.7007  142.2222  157.1981 C   0  0  0  0  0  0  0  0  0  0  0  0
  151.0842  142.9686  158.3080 C   0  0  0  0  0  0  0  0  0  0  0  0
  152.0854  142.4109  159.1302 C   0  0  0  0  0  0  0  0  0  0  0  0
  152.6657  141.1599  158.8355 C   0  0  0  0  0  0  0  0  0  0  0  0
  152.2696  140.4128  157.7064 C   0  0  0  0  0  0  0  0  0  0  0  0
  151.2778  140.9707  156.9003 C   0  0  0  0  0  0  0  0  0  0  0  0
  150.6475  140.5303  155.7312 N   0  0  0  0  0  0  0  0  0  0  0  0
  151.0380  139.2376  155.1471 C   0  0  0  0  0  0  0  0  0  0  0  0
  149.8599  138.2520  155.0142 C   0  0  1  0  0  0  0  0  0  0  0  0
  149.2706  138.3979  153.7367 O   0  0  0  0  0  0  0  0  0  0  0  0
  150.3213  136.7906  155.1817 C   0  0  0  0  0  0  0  0  0  0  0  0
  149.3996  135.8216  154.5344 N   0  3  2  0  0  0  0  0  0  0  0  0
  147.9969  135.9297  155.0161 C   0  0  0  0  0  0  0  0  0  0  0  0
  147.0622  135.0038  154.2173 C   0  0  0  0  0  0  0  0  0  0  0  0
  147.5319  133.5377  154.2422 C   0  0  2  0  0  0  0  0  0  0  0  0
  147.2728  132.8512  155.5947 C   0  0  0  0  0  0  0  0  0  0  0  0
  149.0080  133.4652  153.8111 C   0  0  0  0  0  0  0  0  0  0  0  0
  149.8995  134.4255  154.6186 C   0  0  0  0  0  0  0  0  0  0  0  0
  148.2071  142.2263  154.0327 H   0  0  0  0  0  0  0  0  0  0  0  0
  148.2360  140.4613  154.1594 H   0  0  0  0  0  0  0  0  0  0  0  0
  149.4678  141.3019  153.2032 H   0  0  0  0  0  0  0  0  0  0  0  0
  150.6427  143.9278  158.5358 H   0  0  0  0  0  0  0  0  0  0  0  0
  152.4158  142.9547  160.0036 H   0  0  0  0  0  0  0  0  0  0  0  0
  153.4313  140.7661  159.4885 H   0  0  0  0  0  0  0  0  0  0  0  0
  152.7219  139.4566  157.4887 H   0  0  0  0  0  0  0  0  0  0  0  0
  151.4783  139.4359  154.1690 H   0  0  0  0  0  0  0  0  0  0  0  0
  151.8347  138.8127  155.7589 H   0  0  0  0  0  0  0  0  0  0  0  0
  149.1083  138.5020  155.7620 H   0  0  0  0  0  0  0  0  0  0  0  0
  149.1923  137.5423  153.3422 H   0  0  0  0  0  0  0  0  0  0  0  0
  151.3196  136.6954  154.7510 H   0  0  0  0  0  0  0  0  0  0  0  0
  150.4236  136.5384  156.2384 H   0  0  0  0  0  0  0  0  0  0  0  0
  147.9541  135.6883  156.0789 H   0  0  0  0  0  0  0  0  0  0  0  0
  147.6401  136.9539  154.9173 H   0  0  0  0  0  0  0  0  0  0  0  0
  146.0432  135.0807  154.5982 H   0  0  0  0  0  0  0  0  0  0  0  0
  147.0238  135.3489  153.1831 H   0  0  0  0  0  0  0  0  0  0  0  0
  146.9455  132.9915  153.5018 H   0  0  0  0  0  0  0  0  0  0  0  0
  147.8192  133.3259  156.4091 H   0  0  0  0  0  0  0  0  0  0  0  0
  147.5730  131.8034  155.5639 H   0  0  0  0  0  0  0  0  0  0  0  0
  146.2130  132.8786  155.8493 H   0  0  0  0  0  0  0  0  0  0  0  0
  149.3789  132.4436  153.9016 H   0  0  0  0  0  0  0  0  0  0  0  0
  149.0832  133.7202  152.7529 H   0  0  0  0  0  0  0  0  0  0  0  0
  150.9156  134.3761  154.2248 H   0  0  0  0  0  0  0  0  0  0  0  0
  149.9528  134.1164  155.6634 H   0  0  0  0  0  0  0  0  0  0  0  0
  149.3946  136.0554  153.5514 H   0  0  0  0  0  0  0  0  0  0  0  0
  149.1729  143.3045  156.1304 H   0  0  0  0  0  0  0  0  0  0  0  0
  1  2  1  0  0  0  0
  1 22  1  0  0  0  0
  1 23  1  0  0  0  0
  1 24  1  0  0  0  0
  2 10  1  0  0  0  0
  2  3  2  0  0  0  0
  3  4  1  0  0  0  0
  3 48  1  0  0  0  0
  4  9  2  0  0  0  0
  4  5  1  0  0  0  0
  5  6  2  0  0  0  0
  5 25  1  0  0  0  0
  6  7  1  0  0  0  0
  6 26  1  0  0  0  0
  7  8  2  0  0  0  0
  7 27  1  0  0  0  0
  8  9  1  0  0  0  0
  8 28  1  0  0  0  0
  9 10  1  0  0  0  0
 10 11  1  0  0  0  0
 11 12  1  0  0  0  0
 11 29  1  0  0  0  0
 11 30  1  0  0  0  0
 12 13  1  0  0  0  0
 12 14  1  0  0  0  0
 12 31  1  0  0  0  0
 13 32  1  0  0  0  0
 14 15  1  0  0  0  0
 14 33  1  0  0  0  0
 14 34  1  0  0  0  0
 15 21  1  0  0  0  0
 15 16  1  0  0  0  0
 15 47  1  0  0  0  0
 16 17  1  0  0  0  0
 16 35  1  0  0  0  0
 16 36  1  0  0  0  0
 17 18  1  0  0  0  0
 17 37  1  0  0  0  0
 17 38  1  0  0  0  0
 18 19  1  0  0  0  0
 18 20  1  0  0  0  0
 18 39  1  0  0  0  0
 19 40  1  0  0  0  0
 19 41  1  0  0  0  0
 19 42  1  0  0  0  0
 20 21  1  0  0  0  0
 20 43  1  0  0  0  0
 20 44  1  0  0  0  0
 21 45  1  0  0  0  0
 21 46  1  0  0  0  0
M  CHG  1   3   1
M  CHG  1  15   1
M  END
> <s_m_source_file>
AV-unprocessed.smi

> <i_m_source_file_index>
1868

> <i_lp_mmshare_version>
43012

> <i_f3d_flags>
0

> <s_epik_input>
W2NIXTFbY0hdW2NIXVtjSF1jKGMxMiluKGMobjIpW0NIM10pW0NIMl1bQ0BIXShbT0hdKVtDSDJdTjNbQ0gyXVtDSDJdW0NIXShbQ0gzXSlbQ0gyXVtDSDJdMw==

> <s_epik_cmdline>
J2VwaWtfcHl0aG9uJywgJy1waCcsICc3LjAnLCAnLXRuJywgJzgnLCAnLW1hJywgJzIwMCcsICctbWV0YWxfYmluZGluZycsICctaW1hZScsICc8aW5maWxlLm1hZT4nLCAnLW9tYWUnLCAnPG91dGZpbGUubWFlPic=

> <r_epik_Ionization_Penalty>
1.10901

> <r_epik_Ionization_Penalty_Charging>
1.10901

> <r_epik_Ionization_Penalty_Neutral>
6.90208e-07

> <r_epik_State_Penalty>
1.18788

> <r_epik_Charging_Adjusted_Penalty>
2.29689

> <i_epik_Tot_Q>
2

> <i_epik_Tot_abs_Q>
2

> <r_epik_Metal_State_Penalty>
5.19353

> <b_epik_Metal_Only>
0

> <s_lp_Force_Field>
OPLS_2005

> <r_lp_Energy>
31.454

> <b_lp_Chiralities_Consistent>
1

> <s_lp_Variant>
AV-unprocessed.smi:1868-8

> <Gold.Version>
5.8.1

> <Gold.Id.Protein>
6NUR|6NUR_protein|mol2

> <Gold.PLP.Fitness>
51.6564

> <Gold.PLP.PLP>
-37.9775

> <Gold.PLP.part.hbond>
-3.7704

> <Gold.PLP.part.metal>
0.0000

> <Gold.PLP.part.buried>
-2.3838

> <Gold.PLP.part.nonpolar>
-31.8325

> <Gold.PLP.part.repulsive>
0.1332

> <Gold.PLP.ligand.clash>
0.0000

> <Gold.PLP.ligand.torsion>
0.6785

> <Gold.PLP.Chemscore.Hbond>
5.0000

> <Gold.PLP.Chemscore.CHOScore>
0.0000

> <Gold.PLP.Chemscore.Metal>
0.0000

> <Gold.Chemscore.Hbonds>
donor molecule, donor type, donor heavy atom, donor atom, acceptor molecule, acceptor atom, score
      L1  H     3    48       P1  8028  1.95
      L1  H    13    32       P1  7948  1.00
      L1  H    15    47       P1  7948  2.00

> <Gold.PLP.Chemscore.Internal.Correction>
0.0359

> <Gold.Rescore>
     Score         DG    S(hbond)    S(metal)    S(lipo)     H(rot)  DE(clash)    DE(int)     intcor
     19.96     -20.76       2.89        0.00      91.64       1.99       0.07       0.73       ----

> <Gold.Chemscore.Fitness>
19.9584

> <Gold.Chemscore.DG>
-20.7633

> <Gold.Chemscore.ZeroCoef>
-5.4800

> <Gold.Chemscore.Hbond>
2.8882

> <Gold.Chemscore.Metal>
0.0000

> <Gold.Chemscore.Lipo>
91.6381

> <Gold.Chemscore.Internal_Hbond>
0.0000

> <Gold.Chemscore.DEClash>
0.0724

> <Gold.Chemscore.DEInternal>
0.7325

> <Gold.Chemscore.Rot>
1.9863

> <Gold.Chemscore.Internal.Correction>
   9.000000E+99

> <Gold.Chemscore.Hbonds>
donor molecule, donor type, donor heavy atom, donor atom, acceptor molecule, acceptor atom, score
      L1  H     3    48       P1  8028  0.88
      L1  H    13    32       P1  7948  0.96
      L1  H    15    47       P1  7948  0.60

> <Gold.Chemscore.Hbond.Weighted>
-9.6467

> <Gold.Chemscore.Metal.Weighted>
-0.0000

> <Gold.Chemscore.Lipo.Weighted>
-10.7217

> <Gold.Chemscore.Internal_Hbond.Weighted>
0.0000

> <Gold.Chemscore.DEClash.Weighted>
0.0724

> <Gold.Chemscore.DEInternal.Weighted>
0.7325

> <Gold.Chemscore.Rot.Weighted>
5.0850

> <Gold.Chemscore.Internal.Correction.Weighted>
   9.000000E+99

> <Gold.Protein.RotatedTorsions>
[ 6907 6896 6895 6894 ] final   68.99 input  -60.11 | X-H torsion
[ 7974 7965 7964 7962 ] final   64.14 input  175.53 | X-H torsion
[ 8008 7997 7996 7995 ] final -127.41 input   59.86 | X-H torsion
[ 10167 10162 10161 10158 ] final  143.20 input  -65.29 | X-H torsion
[ 10718 10713 10712 10709 ] final   59.82 input   66.30 | X-H torsion
[ 10763 10752 10751 10750 ] final  -78.93 input  -60.55 | X-H torsion
[ 11005 11000 10999 10996 ] final -163.25 input  -57.11 | X-H torsion

> <Gold.Protein.ActiveResidues>
 VAL166  LYS551  ARG553  GLY616  TRP617  ASP618  TYR619  PRO620  LYS621  CYS622 
 ASP623  PHE694  ASN695  SER759  ASP760  ASP761  ALA762  ILE779  LEU786  VAL792 
 PHE793  MET794  SER795  GLU796  ALA797  LYS798  CYS799  TRP800  GLU811  SER814 

> <Gold.Protein.RotatedAtoms>
  152.4657  134.5081  159.9745 H   0  0  0  0  0  0  0  0  0  0  0  0  # atno 6907 bound_to 6896
  151.5120  133.3477  159.2894 H   0  0  0  0  0  0  0  0  0  0  0  0  # atno 6908 bound_to 6896
  150.8640  134.8028  159.7166 H   0  0  0  0  0  0  0  0  0  0  0  0  # atno 6909 bound_to 6896
  145.8537  139.3270  143.0860 H   0  0  0  0  0  0  0  0  0  0  0  0  # atno 7974 bound_to 7965
  155.2457  140.0430  157.2980 H   0  0  0  0  0  0  0  0  0  0  0  0  # atno 8008 bound_to 7997
  154.5800  140.2398  155.8037 H   0  0  0  0  0  0  0  0  0  0  0  0  # atno 8009 bound_to 7997
  156.2186  140.2977  155.9907 H   0  0  0  0  0  0  0  0  0  0  0  0  # atno 8010 bound_to 7997
  139.4975  144.6056  151.6385 H   0  0  0  0  0  0  0  0  0  0  0  0  # atno 10167 bound_to 10162
  157.5705  130.8904  149.9259 H   0  0  0  0  0  0  0  0  0  0  0  0  # atno 10718 bound_to 10713
  154.5321  135.5713  153.6768 H   0  0  0  0  0  0  0  0  0  0  0  0  # atno 10763 bound_to 10752
  152.9942  135.6207  154.2614 H   0  0  0  0  0  0  0  0  0  0  0  0  # atno 10764 bound_to 10752
  154.2541  135.2858  155.2784 H   0  0  0  0  0  0  0  0  0  0  0  0  # atno 10765 bound_to 10752
  140.6001  134.4956  157.5204 H   0  0  0  0  0  0  0  0  0  0  0  0  # atno 11005 bound_to 11000
  145.9328  140.9036  143.0347 LP  0  0  0  0  0  0  0  0  0  0  0  0  # atno 17320 bound_to 7965
  144.6728  140.1442  143.7435 LP  0  0  0  0  0  0  0  0  0  0  0  0  # atno 17321 bound_to 7965
  140.5717  144.0097  150.6220 LP  0  0  0  0  0  0  0  0  0  0  0  0  # atno 17342 bound_to 10162
  140.3217  143.3133  152.0777 LP  0  0  0  0  0  0  0  0  0  0  0  0  # atno 17343 bound_to 10162
  156.0751  130.3680  150.0695 LP  0  0  0  0  0  0  0  0  0  0  0  0  # atno 17370 bound_to 10713
  156.8848  130.9568  151.3595 LP  0  0  0  0  0  0  0  0  0  0  0  0  # atno 17371 bound_to 10713
  139.9236  134.8100  156.1136 LP  0  0  0  0  0  0  0  0  0  0  0  0  # atno 17394 bound_to 11000
  141.0878  133.6727  156.2473 LP  0  0  0  0  0  0  0  0  0  0  0  0  # atno 17395 bound_to 11000

$$$$
