AV-unprocessed.smi:653|AV-procd|sdf|3204|dock1
  -GOLD-   22720 0143D 1   1.00000     0.00000
 Structure written by MMmdl.
 44 45  0  0  0  0  0  0  0  0  1 V2000
  151.1719  133.0011  156.5739 C   0  0  0  0  0  0  0  0  0  0  0  0
  151.3171  134.4769  156.2671 C   0  0  0  0  0  0  0  0  0  0  0  0
  150.5812  135.0732  155.2216 C   0  0  0  0  0  0  0  0  0  0  0  0
  150.7598  136.4482  154.9757 C   0  0  0  0  0  0  0  0  0  0  0  0
  151.6644  137.1715  155.7805 C   0  0  0  0  0  0  0  0  0  0  0  0
  151.8971  138.6565  155.5537 C   0  0  0  0  0  0  0  0  0  0  0  0
  151.1542  139.5261  156.5751 C   0  0  0  0  0  0  0  0  0  0  0  0
  149.9230  139.5556  156.6133 O   0  0  0  0  0  0  0  0  0  0  0  0
  151.9297  140.2382  157.4063 N   0  0  0  0  0  0  0  0  0  0  0  0
  151.4391  141.1476  158.4361 C   0  0  0  0  0  0  0  0  0  0  0  0
  152.5871  141.7158  159.2937 C   0  0  2  0  0  0  0  0  0  0  0  0
  153.2032  140.7161  160.2535 C   0  0  0  0  0  0  0  0  0  0  0  0
  153.9094  141.6333  161.2450 C   0  0  0  0  0  0  0  0  0  0  0  0
  153.0928  142.7958  161.3377 O   0  0  0  0  0  0  0  0  0  0  0  0
  152.1560  142.8281  160.2618 C   0  0  1  0  0  0  0  0  0  0  0  0
  152.0447  144.2485  159.6605 C   0  0  0  0  0  0  0  0  0  0  0  0
  151.2440  145.2269  160.5395 C   0  0  0  0  0  0  0  0  0  0  0  0
  151.4579  144.1962  158.2411 C   0  0  0  0  0  0  0  0  0  0  0  0
  152.3499  136.4793  156.8014 C   0  0  0  0  0  0  0  0  0  0  0  0
  152.1859  135.1611  157.0436 N   0  0  0  0  0  0  0  0  0  0  0  0
  150.2687  132.5926  156.1198 H   0  0  0  0  0  0  0  0  0  0  0  0
  151.1142  132.8354  157.6503 H   0  0  0  0  0  0  0  0  0  0  0  0
  152.0293  132.4505  156.1864 H   0  0  0  0  0  0  0  0  0  0  0  0
  149.8959  134.4936  154.6207 H   0  0  0  0  0  0  0  0  0  0  0  0
  150.2110  136.9376  154.1847 H   0  0  0  0  0  0  0  0  0  0  0  0
  152.9642  138.8745  155.6094 H   0  0  0  0  0  0  0  0  0  0  0  0
  151.5721  138.9191  154.5460 H   0  0  0  0  0  0  0  0  0  0  0  0
  152.9315  140.1532  157.3115 H   0  0  0  0  0  0  0  0  0  0  0  0
  150.8722  141.9579  157.9748 H   0  0  0  0  0  0  0  0  0  0  0  0
  150.7346  140.6004  159.0633 H   0  0  0  0  0  0  0  0  0  0  0  0
  153.3797  142.0794  158.6407 H   0  0  0  0  0  0  0  0  0  0  0  0
  152.4267  140.1427  160.7621 H   0  0  0  0  0  0  0  0  0  0  0  0
  153.8838  140.0166  159.7672 H   0  0  0  0  0  0  0  0  0  0  0  0
  154.0535  141.1660  162.2192 H   0  0  0  0  0  0  0  0  0  0  0  0
  154.8869  141.9268  160.8601 H   0  0  0  0  0  0  0  0  0  0  0  0
  151.1912  142.5465  160.6880 H   0  0  0  0  0  0  0  0  0  0  0  0
  153.0555  144.6467  159.5677 H   0  0  0  0  0  0  0  0  0  0  0  0
  150.2266  144.8726  160.7070 H   0  0  0  0  0  0  0  0  0  0  0  0
  151.1756  146.2068  160.0661 H   0  0  0  0  0  0  0  0  0  0  0  0
  151.7094  145.3788  161.5124 H   0  0  0  0  0  0  0  0  0  0  0  0
  150.4406  143.8039  158.2466 H   0  0  0  0  0  0  0  0  0  0  0  0
  152.0566  143.5590  157.5899 H   0  0  0  0  0  0  0  0  0  0  0  0
  151.4286  145.1884  157.7902 H   0  0  0  0  0  0  0  0  0  0  0  0
  153.0500  136.9961  157.4413 H   0  0  0  0  0  0  0  0  0  0  0  0
  1  2  1  0  0  0  0
  1 21  1  0  0  0  0
  1 22  1  0  0  0  0
  1 23  1  0  0  0  0
  2 20  1  0  0  0  0
  2  3  2  0  0  0  0
  3  4  1  0  0  0  0
  3 24  1  0  0  0  0
  4  5  2  0  0  0  0
  4 25  1  0  0  0  0
  5  6  1  0  0  0  0
  5 19  1  0  0  0  0
  6  7  1  0  0  0  0
  6 26  1  0  0  0  0
  6 27  1  0  0  0  0
  7  8  2  0  0  0  0
  7  9  1  0  0  0  0
  9 10  1  0  0  0  0
  9 28  1  0  0  0  0
 10 11  1  0  0  0  0
 10 29  1  0  0  0  0
 10 30  1  0  0  0  0
 11 15  1  0  0  0  0
 11 12  1  0  0  0  0
 11 31  1  0  0  0  0
 12 13  1  0  0  0  0
 12 32  1  0  0  0  0
 12 33  1  0  0  0  0
 13 14  1  0  0  0  0
 13 34  1  0  0  0  0
 13 35  1  0  0  0  0
 14 15  1  0  0  0  0
 15 16  1  0  0  0  0
 15 36  1  0  0  0  0
 16 17  1  0  0  0  0
 16 18  1  0  0  0  0
 16 37  1  0  0  0  0
 17 38  1  0  0  0  0
 17 39  1  0  0  0  0
 17 40  1  0  0  0  0
 18 41  1  0  0  0  0
 18 42  1  0  0  0  0
 18 43  1  0  0  0  0
 19 20  2  0  0  0  0
 19 44  1  0  0  0  0
M  END
> <s_m_source_file>
AV-unprocessed.smi

> <i_m_source_file_index>
653

> <i_lp_mmshare_version>
43012

> <i_f3d_flags>
0

> <s_epik_input>
W0NIM11jMVtjSF1bY0hdYyhbY0hdbjEpW0NIMl1DKD1PKVtOSF1bQ0gyXVtDQEBIXTJbQ0gyXVtDSDJdT1tDQEhdMltDSF0oW0NIM10pW0NIM10=

> <s_epik_cmdline>
J2VwaWtfcHl0aG9uJywgJy1waCcsICc3LjAnLCAnLXRuJywgJzgnLCAnLW1hJywgJzIwMCcsICctbWV0YWxfYmluZGluZycsICctaW1hZScsICc8aW5maWxlLm1hZT4nLCAnLW9tYWUnLCAnPG91dGZpbGUubWFlPic=

> <r_epik_Ionization_Penalty>
0.0166429

> <r_epik_Ionization_Penalty_Charging>
0

> <r_epik_Ionization_Penalty_Neutral>
0.0166429

> <r_epik_State_Penalty>
0.0131478

> <r_epik_Charging_Adjusted_Penalty>
0.0131478

> <i_epik_Tot_Q>
0

> <i_epik_Tot_abs_Q>
0

> <r_epik_Metal_State_Penalty>
0.012786

> <b_epik_Metal_Only>
0

> <s_lp_Force_Field>
OPLS_2005

> <r_lp_Energy>
19.6488

> <b_lp_Chiralities_Consistent>
1

> <s_lp_Variant>
AV-unprocessed.smi:653-1

> <Gold.Version>
5.8.1

> <Gold.Id.Protein>
6NUR|6NUR_protein|mol2

> <Gold.PLP.Fitness>
43.3596

> <Gold.PLP.PLP>
-44.6553

> <Gold.PLP.part.hbond>
-0.5531

> <Gold.PLP.part.metal>
0.0000

> <Gold.PLP.part.buried>
-5.0302

> <Gold.PLP.part.nonpolar>
-39.8780

> <Gold.PLP.part.repulsive>
0.1520

> <Gold.PLP.ligand.clash>
0.0000

> <Gold.PLP.ligand.torsion>
0.6645

> <Gold.PLP.Chemscore.Hbond>
0.0000

> <Gold.PLP.Chemscore.CHOScore>
0.0000

> <Gold.PLP.Chemscore.Metal>
0.0000

> <Gold.PLP.Chemscore.Internal.Correction>
0.0332

> <Gold.Rescore>
     Score         DG    S(hbond)    S(metal)    S(lipo)     H(rot)  DE(clash)    DE(int)     intcor
     15.07     -15.93       0.00        0.00     121.78       1.48       0.08       0.78       ----

> <Gold.Chemscore.Fitness>
15.0654

> <Gold.Chemscore.DG>
-15.9269

> <Gold.Chemscore.ZeroCoef>
-5.4800

> <Gold.Chemscore.Hbond>
0.0000

> <Gold.Chemscore.Metal>
0.0000

> <Gold.Chemscore.Lipo>
121.7810

> <Gold.Chemscore.Internal_Hbond>
0.0000

> <Gold.Chemscore.DEClash>
0.0777

> <Gold.Chemscore.DEInternal>
0.7838

> <Gold.Chemscore.Rot>
1.4850

> <Gold.Chemscore.Internal.Correction>
   9.000000E+99

> <Gold.Chemscore.Hbond.Weighted>
-0.0000

> <Gold.Chemscore.Metal.Weighted>
-0.0000

> <Gold.Chemscore.Lipo.Weighted>
-14.2484

> <Gold.Chemscore.Internal_Hbond.Weighted>
0.0000

> <Gold.Chemscore.DEClash.Weighted>
0.0777

> <Gold.Chemscore.DEInternal.Weighted>
0.7838

> <Gold.Chemscore.Rot.Weighted>
3.8015

> <Gold.Chemscore.Internal.Correction.Weighted>
   9.000000E+99

> <Gold.Protein.RotatedTorsions>
[ 6907 6896 6895 6894 ] final  -25.30 input  -60.11 | X-H torsion
[ 7974 7965 7964 7962 ] final   11.31 input  175.53 | X-H torsion
[ 8008 7997 7996 7995 ] final -176.24 input   59.86 | X-H torsion
[ 10167 10162 10161 10158 ] final  -11.36 input  -65.29 | X-H torsion
[ 10718 10713 10712 10709 ] final   95.78 input   66.30 | X-H torsion
[ 10763 10752 10751 10750 ] final   40.96 input  -60.55 | X-H torsion
[ 11005 11000 10999 10996 ] final   -7.29 input  -57.11 | X-H torsion

> <Gold.Protein.ActiveResidues>
 VAL166  LYS551  ARG553  GLY616  TRP617  ASP618  TYR619  PRO620  LYS621  CYS622 
 ASP623  PHE694  ASN695  SER759  ASP760  ASP761  ALA762  ILE779  LEU786  VAL792 
 PHE793  MET794  SER795  GLU796  ALA797  LYS798  CYS799  TRP800  GLU811  SER814 

> <Gold.Protein.RotatedAtoms>
  151.1772  135.0344  159.8776 H   0  0  0  0  0  0  0  0  0  0  0  0  # atno 6907 bound_to 6896
  152.5446  134.1104  159.8366 H   0  0  0  0  0  0  0  0  0  0  0  0  # atno 6908 bound_to 6896
  151.1216  133.5053  159.2634 H   0  0  0  0  0  0  0  0  0  0  0  0  # atno 6909 bound_to 6896
  146.2373  139.9504  142.8471 H   0  0  0  0  0  0  0  0  0  0  0  0  # atno 7974 bound_to 7965
  155.9924  140.1204  157.0625 H   0  0  0  0  0  0  0  0  0  0  0  0  # atno 8008 bound_to 7997
  154.4216  140.1123  156.5653 H   0  0  0  0  0  0  0  0  0  0  0  0  # atno 8009 bound_to 7997
  155.6324  140.3473  155.4689 H   0  0  0  0  0  0  0  0  0  0  0  0  # atno 8010 bound_to 7997
  140.7136  143.5648  150.9156 H   0  0  0  0  0  0  0  0  0  0  0  0  # atno 10167 bound_to 10162
  157.6935  131.0557  150.4392 H   0  0  0  0  0  0  0  0  0  0  0  0  # atno 10718 bound_to 10713
  152.9921  135.6176  154.2710 H   0  0  0  0  0  0  0  0  0  0  0  0  # atno 10763 bound_to 10752
  154.2443  135.2787  155.2843 H   0  0  0  0  0  0  0  0  0  0  0  0  # atno 10764 bound_to 10752
  154.5342  135.5779  153.6842 H   0  0  0  0  0  0  0  0  0  0  0  0  # atno 10765 bound_to 10752
  140.7112  133.8907  155.8752 H   0  0  0  0  0  0  0  0  0  0  0  0  # atno 11005 bound_to 11000
  145.1867  140.9792  143.4235 LP  0  0  0  0  0  0  0  0  0  0  0  0  # atno 17320 bound_to 7965
  144.9894  139.3704  143.6222 LP  0  0  0  0  0  0  0  0  0  0  0  0  # atno 17321 bound_to 7965
  139.9373  143.6422  152.3062 LP  0  0  0  0  0  0  0  0  0  0  0  0  # atno 17342 bound_to 10162
  139.6895  144.7648  151.1464 LP  0  0  0  0  0  0  0  0  0  0  0  0  # atno 17343 bound_to 10162
  156.4752  130.4061  149.6494 LP  0  0  0  0  0  0  0  0  0  0  0  0  # atno 17370 bound_to 10713
  156.3560  130.7457  151.2423 LP  0  0  0  0  0  0  0  0  0  0  0  0  # atno 17371 bound_to 10713
  141.0083  134.1056  157.4248 LP  0  0  0  0  0  0  0  0  0  0  0  0  # atno 17394 bound_to 11000
  139.8871  135.0087  156.6540 LP  0  0  0  0  0  0  0  0  0  0  0  0  # atno 17395 bound_to 11000

$$$$
