AV-unprocessed.smi:181|AV-procd|sdf|1453|dock6
  -GOLD-   2262019253D 1   1.00000     0.00000
 Structure written by MMmdl.
 50 53  0  0  0  0  0  0  0  0  1 V2000
  152.2277  143.0217  159.4709 C   0  0  0  0  0  0  0  0  0  0  0  0
  151.8135  141.5544  159.3079 C   0  0  0  0  0  0  0  0  0  0  0  0
  152.8436  140.7728  158.6249 N   0  0  0  0  0  0  0  0  0  0  0  0
  152.4418  140.2167  157.4588 C   0  0  0  0  0  0  0  0  0  0  0  0
  153.0810  139.1219  156.9728 N   0  0  0  0  0  0  0  0  0  0  0  0
  152.6784  138.5715  155.8234 C   0  0  0  0  0  0  0  0  0  0  0  0
  151.6771  138.9464  155.0233 N   0  0  0  0  0  0  0  0  0  0  0  0
  151.0281  140.0391  155.5195 C   0  0  0  0  0  0  0  0  0  0  0  0
  151.3422  140.7288  156.7228 C   0  0  0  0  0  0  0  0  0  0  0  0
  150.4684  141.7920  156.9084 N   0  0  0  0  0  0  0  0  0  0  0  0
  149.6778  141.7331  155.8711 C   0  0  0  0  0  0  0  0  0  0  0  0
  149.9405  140.7093  154.9881 N   0  0  0  0  0  0  0  0  0  0  0  0
  149.2219  140.4121  153.7589 C   0  0  0  0  0  0  0  0  0  0  0  0
  147.6891  140.6056  153.8659 C   0  0  0  0  0  0  0  0  0  0  0  0
  147.1108  140.1204  152.6661 O   0  0  0  0  0  0  0  0  0  0  0  0
  147.1255  139.7858  155.0436 C   0  0  0  0  0  0  0  0  0  0  0  0
  145.6357  140.0788  155.2948 C   0  0  0  0  0  0  0  0  0  0  0  0
  145.4418  141.4732  155.4972 O   0  0  0  0  0  0  0  0  0  0  0  0
  145.7881  142.2477  154.3555 C   0  0  0  0  0  0  0  0  0  0  0  0
  147.2855  142.0868  154.0390 C   0  0  0  0  0  0  0  0  0  0  0  0
  153.9162  140.1325  159.4043 C   0  0  2  0  0  0  0  0  0  0  0  0
  153.6651  138.6427  159.7168 C   0  0  0  0  0  0  0  0  0  0  0  0
  154.3616  138.4093  161.0655 C   0  0  0  0  0  0  0  0  0  0  0  0
  154.4550  139.7325  161.6543 N   0  0  0  0  0  0  0  0  0  0  0  0
  154.1968  140.7130  160.7893 C   0  0  0  0  0  0  0  0  0  0  0  0
  154.2031  141.9149  161.0474 O   0  0  0  0  0  0  0  0  0  0  0  0
  151.4416  143.5916  159.9664 H   0  0  0  0  0  0  0  0  0  0  0  0
  152.4134  143.4848  158.5014 H   0  0  0  0  0  0  0  0  0  0  0  0
  153.1334  143.1212  160.0689 H   0  0  0  0  0  0  0  0  0  0  0  0
  151.6182  141.1203  160.2884 H   0  0  0  0  0  0  0  0  0  0  0  0
  150.8660  141.5138  158.7666 H   0  0  0  0  0  0  0  0  0  0  0  0
  153.2376  137.7063  155.4996 H   0  0  0  0  0  0  0  0  0  0  0  0
  148.8717  142.4370  155.7217 H   0  0  0  0  0  0  0  0  0  0  0  0
  149.6298  141.0391  152.9646 H   0  0  0  0  0  0  0  0  0  0  0  0
  149.4488  139.3832  153.4770 H   0  0  0  0  0  0  0  0  0  0  0  0
  147.7925  139.7291  152.1416 H   0  0  0  0  0  0  0  0  0  0  0  0
  147.2738  138.7186  154.8737 H   0  0  0  0  0  0  0  0  0  0  0  0
  147.6806  140.0294  155.9506 H   0  0  0  0  0  0  0  0  0  0  0  0
  145.0194  139.7305  154.4645 H   0  0  0  0  0  0  0  0  0  0  0  0
  145.2968  139.5458  156.1832 H   0  0  0  0  0  0  0  0  0  0  0  0
  145.1722  141.9560  153.5035 H   0  0  0  0  0  0  0  0  0  0  0  0
  145.5631  143.2942  154.5620 H   0  0  0  0  0  0  0  0  0  0  0  0
  147.8603  142.5220  154.8575 H   0  0  0  0  0  0  0  0  0  0  0  0
  147.5341  142.6651  153.1483 H   0  0  0  0  0  0  0  0  0  0  0  0
  154.8480  140.2151  158.8442 H   0  0  0  0  0  0  0  0  0  0  0  0
  152.6053  138.4157  159.8330 H   0  0  0  0  0  0  0  0  0  0  0  0
  154.0512  137.9875  158.9352 H   0  0  0  0  0  0  0  0  0  0  0  0
  153.8015  137.7272  161.7055 H   0  0  0  0  0  0  0  0  0  0  0  0
  155.3661  138.0077  160.9266 H   0  0  0  0  0  0  0  0  0  0  0  0
  154.6740  139.8806  162.6287 H   0  0  0  0  0  0  0  0  0  0  0  0
  1  2  1  0  0  0  0
  1 27  1  0  0  0  0
  1 28  1  0  0  0  0
  1 29  1  0  0  0  0
  2  3  1  0  0  0  0
  2 30  1  0  0  0  0
  2 31  1  0  0  0  0
  3  4  1  0  0  0  0
  3 21  1  0  0  0  0
  4  9  1  0  0  0  0
  4  5  2  0  0  0  0
  5  6  1  0  0  0  0
  6  7  2  0  0  0  0
  6 32  1  0  0  0  0
  7  8  1  0  0  0  0
  8 12  1  0  0  0  0
  8  9  2  0  0  0  0
  9 10  1  0  0  0  0
 10 11  2  0  0  0  0
 11 12  1  0  0  0  0
 11 33  1  0  0  0  0
 12 13  1  0  0  0  0
 13 14  1  0  0  0  0
 13 34  1  0  0  0  0
 13 35  1  0  0  0  0
 14 20  1  0  0  0  0
 14 15  1  0  0  0  0
 14 16  1  0  0  0  0
 15 36  1  0  0  0  0
 16 17  1  0  0  0  0
 16 37  1  0  0  0  0
 16 38  1  0  0  0  0
 17 18  1  0  0  0  0
 17 39  1  0  0  0  0
 17 40  1  0  0  0  0
 18 19  1  0  0  0  0
 19 20  1  0  0  0  0
 19 41  1  0  0  0  0
 19 42  1  0  0  0  0
 20 43  1  0  0  0  0
 20 44  1  0  0  0  0
 21 25  1  0  0  0  0
 21 22  1  0  0  0  0
 21 45  1  0  0  0  0
 22 23  1  0  0  0  0
 22 46  1  0  0  0  0
 22 47  1  0  0  0  0
 23 24  1  0  0  0  0
 23 48  1  0  0  0  0
 23 49  1  0  0  0  0
 24 25  1  0  0  0  0
 24 50  1  0  0  0  0
 25 26  2  0  0  0  0
M  END
> <s_m_source_file>
AV-unprocessed.smi

> <i_m_source_file_index>
181

> <i_lp_mmshare_version>
43012

> <i_f3d_flags>
0

> <s_epik_input>
Tz1DMVtOSF1bQ0gyXVtDSDJdW0NASF0xTihbQ0gyXVtDSDNdKWMobltjSF1uMiljKGMyMyluW2NIXW4zW0NIMl1DNChbT0hdKVtDSDJdW0NIMl1PW0NIMl1bQ0gyXTQ=

> <s_epik_cmdline>
J2VwaWtfcHl0aG9uJywgJy1waCcsICc3LjAnLCAnLXRuJywgJzgnLCAnLW1hJywgJzIwMCcsICctbWV0YWxfYmluZGluZycsICctaW1hZScsICc8aW5maWxlLm1hZT4nLCAnLW9tYWUnLCAnPG91dGZpbGUubWFlPic=

> <r_lp_tautomer_probability>
1

> <r_epik_Ionization_Penalty>
0.000985257

> <r_epik_Ionization_Penalty_Charging>
0

> <r_epik_Ionization_Penalty_Neutral>
0.000985257

> <r_epik_State_Penalty>
0.000517047

> <r_epik_Charging_Adjusted_Penalty>
0.000517047

> <i_epik_Tot_Q>
0

> <i_epik_Tot_abs_Q>
0

> <r_epik_Metal_State_Penalty>
-0

> <b_epik_Metal_Only>
0

> <s_lp_Force_Field>
OPLS_2005

> <r_lp_Energy>
35.7055

> <b_lp_Chiralities_Consistent>
1

> <s_lp_Variant>
AV-unprocessed.smi:181-1

> <Gold.Version>
5.8.1

> <Gold.Id.Protein>
6NUR|6NUR_protein|mol2

> <Gold.PLP.Fitness>
46.6378

> <Gold.PLP.PLP>
-40.1867

> <Gold.PLP.part.hbond>
-2.7863

> <Gold.PLP.part.metal>
0.0000

> <Gold.PLP.part.buried>
1.7281

> <Gold.PLP.part.nonpolar>
-37.9594

> <Gold.PLP.part.repulsive>
0.2377

> <Gold.PLP.ligand.clash>
0.0000

> <Gold.PLP.ligand.torsion>
1.0042

> <Gold.PLP.Chemscore.Hbond>
1.4000

> <Gold.PLP.Chemscore.CHOScore>
1.0000

> <Gold.PLP.Chemscore.Metal>
0.0000

> <Gold.Chemscore.Hbonds>
donor molecule, donor type, donor heavy atom, donor atom, acceptor molecule, acceptor atom, score
      L1  H    15    36       P1  7957  0.84
      P1  H  7997  8009       L1     5  0.45
      L1  C    11    33       P1  8028  1.00

> <Gold.PLP.Chemscore.Internal.Correction>
1.2595

> <Gold.Rescore>
     Score         DG    S(hbond)    S(metal)    S(lipo)     H(rot)  DE(clash)    DE(int)     intcor
      3.68     -11.27       0.99        0.00      75.69       2.49       2.61       4.99       ----

> <Gold.Chemscore.Fitness>
3.6773

> <Gold.Chemscore.DG>
-11.2712

> <Gold.Chemscore.ZeroCoef>
-5.4800

> <Gold.Chemscore.Hbond>
0.9908

> <Gold.Chemscore.Metal>
0.0000

> <Gold.Chemscore.Lipo>
75.6882

> <Gold.Chemscore.Internal_Hbond>
0.0000

> <Gold.Chemscore.DEClash>
2.6061

> <Gold.Chemscore.DEInternal>
4.9877

> <Gold.Chemscore.Rot>
2.4897

> <Gold.Chemscore.Internal.Correction>
   9.000000E+99

> <Gold.Chemscore.Hbonds>
donor molecule, donor type, donor heavy atom, donor atom, acceptor molecule, acceptor atom, score
      L1  H    15    36       P1  7957  0.79
      P1  H  7997  8009       L1     5  0.01

> <Gold.Chemscore.Hbond.Weighted>
-3.3091

> <Gold.Chemscore.Metal.Weighted>
-0.0000

> <Gold.Chemscore.Lipo.Weighted>
-8.8555

> <Gold.Chemscore.Internal_Hbond.Weighted>
0.0000

> <Gold.Chemscore.DEClash.Weighted>
2.6061

> <Gold.Chemscore.DEInternal.Weighted>
4.9877

> <Gold.Chemscore.Rot.Weighted>
6.3735

> <Gold.Chemscore.Internal.Correction.Weighted>
   9.000000E+99

> <Gold.Protein.RotatedTorsions>
[ 6907 6896 6895 6894 ] final  -19.71 input  -60.11 | X-H torsion
[ 7974 7965 7964 7962 ] final  108.12 input  175.53 | X-H torsion
[ 8008 7997 7996 7995 ] final  178.15 input   59.86 | X-H torsion
[ 10167 10162 10161 10158 ] final  -34.17 input  -65.29 | X-H torsion
[ 10718 10713 10712 10709 ] final  104.16 input   66.30 | X-H torsion
[ 10763 10752 10751 10750 ] final   48.62 input  -60.55 | X-H torsion
[ 11005 11000 10999 10996 ] final   51.71 input  -57.11 | X-H torsion

> <Gold.Protein.ActiveResidues>
 VAL166  LYS551  ARG553  GLY616  TRP617  ASP618  TYR619  PRO620  LYS621  CYS622 
 ASP623  PHE694  ASN695  SER759  ASP760  ASP761  ALA762  ILE779  LEU786  VAL792 
 PHE793  MET794  SER795  GLU796  ALA797  LYS798  CYS799  TRP800  GLU811  SER814 

> <Gold.Protein.RotatedAtoms>
  151.2590  135.0647  159.9090 H   0  0  0  0  0  0  0  0  0  0  0  0  # atno 6907 bound_to 6896
  152.5369  134.0251  159.8009 H   0  0  0  0  0  0  0  0  0  0  0  0  # atno 6908 bound_to 6896
  151.0471  133.5606  159.2677 H   0  0  0  0  0  0  0  0  0  0  0  0  # atno 6909 bound_to 6896
  145.2848  139.2620  143.3896 H   0  0  0  0  0  0  0  0  0  0  0  0  # atno 7974 bound_to 7965
  156.0578  140.1340  156.9976 H   0  0  0  0  0  0  0  0  0  0  0  0  # atno 8008 bound_to 7997
  154.4466  140.0997  156.6542 H   0  0  0  0  0  0  0  0  0  0  0  0  # atno 8009 bound_to 7997
  155.5424  140.3461  155.4452 H   0  0  0  0  0  0  0  0  0  0  0  0  # atno 8010 bound_to 7997
  140.7191  143.3567  151.2045 H   0  0  0  0  0  0  0  0  0  0  0  0  # atno 10167 bound_to 10162
  157.6749  131.0797  150.5665 H   0  0  0  0  0  0  0  0  0  0  0  0  # atno 10718 bound_to 10713
  152.9791  135.5938  154.3956 H   0  0  0  0  0  0  0  0  0  0  0  0  # atno 10763 bound_to 10752
  154.3607  135.2767  155.2323 H   0  0  0  0  0  0  0  0  0  0  0  0  # atno 10764 bound_to 10752
  154.4322  135.6033  153.6131 H   0  0  0  0  0  0  0  0  0  0  0  0  # atno 10765 bound_to 10752
  140.0909  134.5210  155.8853 H   0  0  0  0  0  0  0  0  0  0  0  0  # atno 11005 bound_to 11000
  146.3204  140.3324  142.8641 LP  0  0  0  0  0  0  0  0  0  0  0  0  # atno 17320 bound_to 7965
  144.9223  140.7882  143.5741 LP  0  0  0  0  0  0  0  0  0  0  0  0  # atno 17321 bound_to 7965
  139.7110  143.9377  152.2947 LP  0  0  0  0  0  0  0  0  0  0  0  0  # atno 17342 bound_to 10162
  139.9102  144.6861  150.8571 LP  0  0  0  0  0  0  0  0  0  0  0  0  # atno 17343 bound_to 10162
  156.5967  130.4343  149.5914 LP  0  0  0  0  0  0  0  0  0  0  0  0  # atno 17370 bound_to 10713
  156.2539  130.6923  151.1670 LP  0  0  0  0  0  0  0  0  0  0  0  0  # atno 17371 bound_to 10713
  141.2077  133.6667  156.6326 LP  0  0  0  0  0  0  0  0  0  0  0  0  # atno 17394 bound_to 11000
  140.3353  134.7894  157.4357 LP  0  0  0  0  0  0  0  0  0  0  0  0  # atno 17395 bound_to 11000

$$$$
