AV-unprocessed.smi:2351|AV-procd|sdf|9375|dock3
  -GOLD-   2272013 03D 1   1.00000     0.00000
 Structure written by MMmdl.
 47 49  0  0  0  0  0  0  0  0  2 V2000
  150.8192  140.6210  156.4727 O   0  0  0  0  0  0  0  0  0  0  0  0
  150.2563  141.7141  156.4203 C   0  0  0  0  0  0  0  0  0  0  0  0
  150.4561  142.7381  157.2677 N   0  0  0  0  0  0  0  0  0  0  0  0
  151.3427  142.8202  158.3766 C   0  0  0  0  0  0  0  0  0  0  0  0
  151.9572  141.7023  158.9914 C   0  0  0  0  0  0  0  0  0  0  0  0
  152.8060  141.9214  160.0952 C   0  0  0  0  0  0  0  0  0  0  0  0
  153.0615  143.1442  160.6070 N   0  0  0  0  0  0  0  0  0  0  0  0
  152.4634  144.2060  160.0268 C   0  0  0  0  0  0  0  0  0  0  0  0
  151.5976  144.0972  158.9200 C   0  0  0  0  0  0  0  0  0  0  0  0
  151.0263  145.2047  158.3877 F   0  0  0  0  0  0  0  0  0  0  0  0
  149.3607  142.0355  155.4752 N   0  0  0  0  0  0  0  0  0  0  0  0
  148.9487  141.1636  154.3788 C   0  0  2  0  0  0  0  0  0  0  0  0
  147.6738  141.7142  153.7218 C   0  0  0  0  0  0  0  0  0  0  0  0
  147.1737  140.7768  152.6099 C   0  0  0  0  0  0  0  0  0  0  0  0
  146.9400  139.4032  153.1274 N   0  3  1  0  0  0  0  0  0  0  0  0
  146.3267  138.5046  152.1145 C   0  0  0  0  0  0  0  0  0  0  0  0
  145.7234  137.2374  152.7501 C   0  0  1  0  0  0  0  0  0  0  0  0
  144.4561  137.5062  153.5377 C   0  0  0  0  0  0  0  0  0  0  0  0
  143.8469  136.1126  153.6519 C   0  0  0  0  0  0  0  0  0  0  0  0
  144.2472  135.4191  152.4743 O   0  0  0  0  0  0  0  0  0  0  0  0
  145.2209  136.1790  151.7663 C   0  0  0  0  0  0  0  0  0  0  0  0
  148.1707  138.8363  153.7401 C   0  0  0  0  0  0  0  0  0  0  0  0
  148.6900  139.7308  154.8780 C   0  0  0  0  0  0  0  0  0  0  0  0
  149.9656  143.5935  157.0517 H   0  0  0  0  0  0  0  0  0  0  0  0
  151.7901  140.6917  158.6531 H   0  0  0  0  0  0  0  0  0  0  0  0
  153.2888  141.0886  160.5846 H   0  0  0  0  0  0  0  0  0  0  0  0
  152.6798  145.1719  160.4585 H   0  0  0  0  0  0  0  0  0  0  0  0
  148.9480  142.9564  155.5064 H   0  0  0  0  0  0  0  0  0  0  0  0
  149.7381  141.1410  153.6246 H   0  0  0  0  0  0  0  0  0  0  0  0
  146.8908  141.8360  154.4722 H   0  0  0  0  0  0  0  0  0  0  0  0
  147.8637  142.7056  153.3087 H   0  0  0  0  0  0  0  0  0  0  0  0
  146.2463  141.1786  152.1995 H   0  0  0  0  0  0  0  0  0  0  0  0
  147.8955  140.7418  151.7924 H   0  0  0  0  0  0  0  0  0  0  0  0
  145.5150  139.0316  151.6102 H   0  0  0  0  0  0  0  0  0  0  0  0
  147.0436  138.2541  151.3308 H   0  0  0  0  0  0  0  0  0  0  0  0
  146.4522  136.7823  153.4233 H   0  0  0  0  0  0  0  0  0  0  0  0
  144.6426  137.9663  154.5086 H   0  0  0  0  0  0  0  0  0  0  0  0
  143.7880  138.1590  152.9738 H   0  0  0  0  0  0  0  0  0  0  0  0
  144.2533  135.5885  154.5177 H   0  0  0  0  0  0  0  0  0  0  0  0
  142.7615  136.1396  153.7507 H   0  0  0  0  0  0  0  0  0  0  0  0
  144.7332  136.6457  150.9093 H   0  0  0  0  0  0  0  0  0  0  0  0
  146.0214  135.5387  151.3955 H   0  0  0  0  0  0  0  0  0  0  0  0
  147.9737  137.8396  154.1321 H   0  0  0  0  0  0  0  0  0  0  0  0
  148.9405  138.7248  152.9748 H   0  0  0  0  0  0  0  0  0  0  0  0
  149.6054  139.3033  155.2894 H   0  0  0  0  0  0  0  0  0  0  0  0
  147.9625  139.7447  155.6908 H   0  0  0  0  0  0  0  0  0  0  0  0
  146.2595  139.4994  153.8677 H   0  0  0  0  0  0  0  0  0  0  0  0
  1  2  2  0  0  0  0
  2  3  1  0  0  0  0
  2 11  1  0  0  0  0
  3  4  1  0  0  0  0
  3 24  1  0  0  0  0
  4  9  1  0  0  0  0
  4  5  2  0  0  0  0
  5  6  1  0  0  0  0
  5 25  1  0  0  0  0
  6  7  2  0  0  0  0
  6 26  1  0  0  0  0
  7  8  1  0  0  0  0
  8  9  2  0  0  0  0
  8 27  1  0  0  0  0
  9 10  1  0  0  0  0
 11 12  1  0  0  0  0
 11 28  1  0  0  0  0
 12 23  1  0  0  0  0
 12 13  1  0  0  0  0
 12 29  1  0  0  0  0
 13 14  1  0  0  0  0
 13 30  1  0  0  0  0
 13 31  1  0  0  0  0
 14 15  1  0  0  0  0
 14 32  1  0  0  0  0
 14 33  1  0  0  0  0
 15 16  1  0  0  0  0
 15 22  1  0  0  0  0
 15 47  1  0  0  0  0
 16 17  1  0  0  0  0
 16 34  1  0  0  0  0
 16 35  1  0  0  0  0
 17 21  1  0  0  0  0
 17 18  1  0  0  0  0
 17 36  1  0  0  0  0
 18 19  1  0  0  0  0
 18 37  1  0  0  0  0
 18 38  1  0  0  0  0
 19 20  1  0  0  0  0
 19 39  1  0  0  0  0
 19 40  1  0  0  0  0
 20 21  1  0  0  0  0
 21 41  1  0  0  0  0
 21 42  1  0  0  0  0
 22 23  1  0  0  0  0
 22 43  1  0  0  0  0
 22 44  1  0  0  0  0
 23 45  1  0  0  0  0
 23 46  1  0  0  0  0
M  CHG  1  15   1
M  END
> <s_m_source_file>
AV-unprocessed.smi

> <i_m_source_file_index>
2351

> <i_lp_mmshare_version>
43012

> <i_f3d_flags>
0

> <s_epik_input>
RmMxW2NIXW5bY0hdW2NIXWMxW05IXUMoPU8pW05IXVtDSF0yW0NIMl1bQ0gyXU4oW0NIMl1bQ0gyXTIpW0NIMl1bQ0BASF0zW0NIMl1bQ0gyXU9bQ0gyXTM=

> <s_epik_cmdline>
J2VwaWtfcHl0aG9uJywgJy1waCcsICc3LjAnLCAnLXRuJywgJzgnLCAnLW1hJywgJzIwMCcsICctbWV0YWxfYmluZGluZycsICctaW1hZScsICc8aW5maWxlLm1hZT4nLCAnLW9tYWUnLCAnPG91dGZpbGUubWFlPic=

> <r_epik_Ionization_Penalty>
0.0102464

> <r_epik_Ionization_Penalty_Charging>
0.00747775

> <r_epik_Ionization_Penalty_Neutral>
0.00276864

> <r_epik_State_Penalty>
0.00558817

> <r_epik_Charging_Adjusted_Penalty>
0.0130659

> <i_epik_Tot_Q>
1

> <i_epik_Tot_abs_Q>
1

> <r_epik_Metal_State_Penalty>
-0

> <b_epik_Metal_Only>
0

> <s_lp_Force_Field>
OPLS_2005

> <r_lp_Energy>
39.8259

> <b_lp_Chiralities_Consistent>
1

> <s_lp_Variant>
AV-unprocessed.smi:2351-2

> <Gold.Version>
5.8.1

> <Gold.Id.Protein>
6NUR|6NUR_protein|mol2

> <Gold.PLP.Fitness>
45.9249

> <Gold.PLP.PLP>
-41.0785

> <Gold.PLP.part.hbond>
-2.0407

> <Gold.PLP.part.metal>
0.0000

> <Gold.PLP.part.buried>
-4.2363

> <Gold.PLP.part.nonpolar>
-35.0675

> <Gold.PLP.part.repulsive>
0.3184

> <Gold.PLP.ligand.clash>
0.0000

> <Gold.PLP.ligand.torsion>
0.3708

> <Gold.PLP.Chemscore.Hbond>
1.8544

> <Gold.PLP.Chemscore.CHOScore>
0.0000

> <Gold.PLP.Chemscore.Metal>
0.0000

> <Gold.Chemscore.Hbonds>
donor molecule, donor type, donor heavy atom, donor atom, acceptor molecule, acceptor atom, score
      L1  H     3    24       P1  8028  0.87
      L1  H    11    28       P1  8028  1.00

> <Gold.PLP.Chemscore.Internal.Correction>
0.0249

> <Gold.Rescore>
     Score         DG    S(hbond)    S(metal)    S(lipo)     H(rot)  DE(clash)    DE(int)     intcor
     17.57     -20.52       1.81        0.00     108.68       1.45       0.13       2.82       ----

> <Gold.Chemscore.Fitness>
17.5713

> <Gold.Chemscore.DG>
-20.5208

> <Gold.Chemscore.ZeroCoef>
-5.4800

> <Gold.Chemscore.Hbond>
1.8062

> <Gold.Chemscore.Metal>
0.0000

> <Gold.Chemscore.Lipo>
108.6830

> <Gold.Chemscore.Internal_Hbond>
0.0000

> <Gold.Chemscore.DEClash>
0.1340

> <Gold.Chemscore.DEInternal>
2.8155

> <Gold.Chemscore.Rot>
1.4483

> <Gold.Chemscore.Internal.Correction>
   9.000000E+99

> <Gold.Chemscore.Hbonds>
donor molecule, donor type, donor heavy atom, donor atom, acceptor molecule, acceptor atom, score
      L1  H     3    24       P1  8028  0.79
      L1  H    11    28       P1  8028  0.99

> <Gold.Chemscore.Hbond.Weighted>
-6.0326

> <Gold.Chemscore.Metal.Weighted>
-0.0000

> <Gold.Chemscore.Lipo.Weighted>
-12.7159

> <Gold.Chemscore.Internal_Hbond.Weighted>
0.0000

> <Gold.Chemscore.DEClash.Weighted>
0.1340

> <Gold.Chemscore.DEInternal.Weighted>
2.8155

> <Gold.Chemscore.Rot.Weighted>
3.7077

> <Gold.Chemscore.Internal.Correction.Weighted>
   9.000000E+99

> <Gold.Protein.RotatedTorsions>
[ 6907 6896 6895 6894 ] final  110.03 input  -60.11 | X-H torsion
[ 7974 7965 7964 7962 ] final  -80.05 input  175.53 | X-H torsion
[ 8008 7997 7996 7995 ] final  -13.29 input   59.86 | X-H torsion
[ 10167 10162 10161 10158 ] final  108.23 input  -65.29 | X-H torsion
[ 10718 10713 10712 10709 ] final -157.94 input   66.30 | X-H torsion
[ 10763 10752 10751 10750 ] final  -28.82 input  -60.55 | X-H torsion
[ 11005 11000 10999 10996 ] final -177.42 input  -57.11 | X-H torsion

> <Gold.Protein.ActiveResidues>
 VAL166  LYS551  ARG553  GLY616  TRP617  ASP618  TYR619  PRO620  LYS621  CYS622 
 ASP623  PHE694  ASN695  SER759  ASP760  ASP761  ALA762  ILE779  LEU786  VAL792 
 PHE793  MET794  SER795  GLU796  ALA797  LYS798  CYS799  TRP800  GLU811  SER814 

> <Gold.Protein.RotatedAtoms>
  152.5039  133.8859  159.7369 H   0  0  0  0  0  0  0  0  0  0  0  0  # atno 6907 bound_to 6896
  150.9310  133.6758  159.2817 H   0  0  0  0  0  0  0  0  0  0  0  0  # atno 6908 bound_to 6896
  151.4102  135.0988  159.9635 H   0  0  0  0  0  0  0  0  0  0  0  0  # atno 6909 bound_to 6896
  145.5651  140.9475  143.1426 H   0  0  0  0  0  0  0  0  0  0  0  0  # atno 7974 bound_to 7965
  154.5305  140.2253  155.8813 H   0  0  0  0  0  0  0  0  0  0  0  0  # atno 8008 bound_to 7997
  156.1758  140.3111  155.9021 H   0  0  0  0  0  0  0  0  0  0  0  0  # atno 8009 bound_to 7997
  155.3461  140.0453  157.3036 H   0  0  0  0  0  0  0  0  0  0  0  0  # atno 8010 bound_to 7997
  139.6863  144.7113  151.1427 H   0  0  0  0  0  0  0  0  0  0  0  0  # atno 10167 bound_to 10162
  156.5472  130.8589  151.2768 H   0  0  0  0  0  0  0  0  0  0  0  0  # atno 10718 bound_to 10713
  153.7546  135.6923  153.4938 H   0  0  0  0  0  0  0  0  0  0  0  0  # atno 10763 bound_to 10752
  153.1980  135.4447  155.0230 H   0  0  0  0  0  0  0  0  0  0  0  0  # atno 10764 bound_to 10752
  154.8175  135.3406  154.7064 H   0  0  0  0  0  0  0  0  0  0  0  0  # atno 10765 bound_to 10752
  140.4411  134.6431  157.4758 H   0  0  0  0  0  0  0  0  0  0  0  0  # atno 11005 bound_to 11000
  144.7464  139.7309  143.7290 LP  0  0  0  0  0  0  0  0  0  0  0  0  # atno 17320 bound_to 7965
  146.1823  139.5022  142.9858 LP  0  0  0  0  0  0  0  0  0  0  0  0  # atno 17321 bound_to 7965
  140.7668  143.5625  150.9083 LP  0  0  0  0  0  0  0  0  0  0  0  0  # atno 17342 bound_to 10162
  139.9300  143.6504  152.3078 LP  0  0  0  0  0  0  0  0  0  0  0  0  # atno 17343 bound_to 10162
  157.7394  130.9831  150.2313 LP  0  0  0  0  0  0  0  0  0  0  0  0  # atno 17370 bound_to 10713
  156.2917  130.3746  149.7835 LP  0  0  0  0  0  0  0  0  0  0  0  0  # atno 17371 bound_to 10713
  140.0069  134.6749  155.9440 LP  0  0  0  0  0  0  0  0  0  0  0  0  # atno 17394 bound_to 11000
  141.1705  133.6537  156.4635 LP  0  0  0  0  0  0  0  0  0  0  0  0  # atno 17395 bound_to 11000

$$$$
