AV-unprocessed.smi:561|AV-procd|sdf|2936|dock7
  -GOLD-   2262023433D 1   1.00000     0.00000
 Structure written by MMmdl.
 37 38  0  0  0  0  0  0  0  0  2 V2000
  145.1112  137.7779  152.9630 C   0  0  0  0  0  0  0  0  0  0  0  0
  146.2946  138.0105  152.0146 C   0  0  2  0  0  0  0  0  0  0  0  0
  146.4868  136.8179  151.0538 C   0  0  0  0  0  0  0  0  0  0  0  0
  145.4416  135.7982  151.1900 N   0  0  0  0  0  0  0  0  0  0  0  0
  145.3403  134.8366  152.1627 C   0  0  0  0  0  0  0  0  0  0  0  0
  144.2141  134.1090  151.8766 C   0  0  0  0  0  0  0  0  0  0  0  0
  143.6740  134.6592  150.7452 N   0  3  0  0  0  0  0  0  0  0  0  0
  144.4196  135.6889  150.3314 C   0  0  0  0  0  0  0  0  0  0  0  0
  147.5013  138.2411  152.8076 N   0  0  0  0  0  0  0  0  0  0  0  0
  147.8660  139.4110  153.3654 C   0  0  0  0  0  0  0  0  0  0  0  0
  147.2011  140.4423  153.2628 O   0  0  0  0  0  0  0  0  0  0  0  0
  149.1444  139.3977  154.1219 C   0  0  0  0  0  0  0  0  0  0  0  0
  149.6636  140.5102  154.5372 N   0  0  0  0  0  0  0  0  0  0  0  0
  150.8425  140.5469  155.2540 N   0  0  0  0  0  0  0  0  0  0  0  0
  151.1072  141.8420  155.8803 C   0  0  0  0  0  0  0  0  0  0  0  0
  151.7089  139.5059  155.3606 C   0  0  0  0  0  0  0  0  0  0  0  0
  152.7558  139.5412  156.0066 O   0  0  0  0  0  0  0  0  0  0  0  0
  151.3415  138.2322  154.5926 C   0  0  0  0  0  0  0  0  0  0  0  0
  149.8183  138.0744  154.4194 C   0  0  0  0  0  0  0  0  0  0  0  0
  144.1851  137.6334  152.4057 H   0  0  0  0  0  0  0  0  0  0  0  0
  144.9649  138.6316  153.6259 H   0  0  0  0  0  0  0  0  0  0  0  0
  145.2661  136.8954  153.5847 H   0  0  0  0  0  0  0  0  0  0  0  0
  146.0623  138.9005  151.4272 H   0  0  0  0  0  0  0  0  0  0  0  0
  146.4988  137.1544  150.0160 H   0  0  0  0  0  0  0  0  0  0  0  0
  147.4449  136.3299  151.2387 H   0  0  0  0  0  0  0  0  0  0  0  0
  146.0621  134.7402  152.9610 H   0  0  0  0  0  0  0  0  0  0  0  0
  143.7689  133.2631  152.3797 H   0  0  0  0  0  0  0  0  0  0  0  0
  144.2373  136.3047  149.4687 H   0  0  0  0  0  0  0  0  0  0  0  0
  148.1097  137.4472  152.9486 H   0  0  0  0  0  0  0  0  0  0  0  0
  152.0289  141.8716  156.4628 H   0  0  0  0  0  0  0  0  0  0  0  0
  150.2902  142.1054  156.5534 H   0  0  0  0  0  0  0  0  0  0  0  0
  151.1772  142.6192  155.1185 H   0  0  0  0  0  0  0  0  0  0  0  0
  151.8187  138.2905  153.6137 H   0  0  0  0  0  0  0  0  0  0  0  0
  151.7585  137.3582  155.0938 H   0  0  0  0  0  0  0  0  0  0  0  0
  149.3830  137.6426  155.3214 H   0  0  0  0  0  0  0  0  0  0  0  0
  149.6330  137.3609  153.6155 H   0  0  0  0  0  0  0  0  0  0  0  0
  142.8324  134.3350  150.2852 H   0  0  0  0  0  0  0  0  0  0  0  0
  1  2  1  0  0  0  0
  1 20  1  0  0  0  0
  1 21  1  0  0  0  0
  1 22  1  0  0  0  0
  2  3  1  0  0  0  0
  2  9  1  0  0  0  0
  2 23  1  0  0  0  0
  3  4  1  0  0  0  0
  3 24  1  0  0  0  0
  3 25  1  0  0  0  0
  4  8  1  0  0  0  0
  4  5  1  0  0  0  0
  5  6  2  0  0  0  0
  5 26  1  0  0  0  0
  6  7  1  0  0  0  0
  6 27  1  0  0  0  0
  7  8  2  0  0  0  0
  7 37  1  0  0  0  0
  8 28  1  0  0  0  0
  9 10  1  0  0  0  0
  9 29  1  0  0  0  0
 10 11  2  0  0  0  0
 10 12  1  0  0  0  0
 12 19  1  0  0  0  0
 12 13  2  0  0  0  0
 13 14  1  0  0  0  0
 14 15  1  0  0  0  0
 14 16  1  0  0  0  0
 15 30  1  0  0  0  0
 15 31  1  0  0  0  0
 15 32  1  0  0  0  0
 16 17  2  0  0  0  0
 16 18  1  0  0  0  0
 18 19  1  0  0  0  0
 18 33  1  0  0  0  0
 18 34  1  0  0  0  0
 19 35  1  0  0  0  0
 19 36  1  0  0  0  0
M  CHG  1   7   1
M  END
> <s_m_source_file>
AV-unprocessed.smi

> <i_m_source_file_index>
561

> <i_lp_mmshare_version>
43012

> <i_f3d_flags>
0

> <s_epik_input>
W2NIXTFuW2NIXVtjSF1uMVtDSDJdW0NAQEhdKFtDSDNdKVtOSF1DKD1PKUMyPU5OKFtDSDNdKUMoPU8pW0NIMl1bQ0gyXTI=

> <s_epik_cmdline>
J2VwaWtfcHl0aG9uJywgJy1waCcsICc3LjAnLCAnLXRuJywgJzgnLCAnLW1hJywgJzIwMCcsICctbWV0YWxfYmluZGluZycsICctaW1hZScsICc8aW5maWxlLm1hZT4nLCAnLW9tYWUnLCAnPG91dGZpbGUubWFlPic=

> <r_lp_tautomer_probability>
1

> <r_epik_Ionization_Penalty>
0.358595

> <r_epik_Ionization_Penalty_Charging>
0

> <r_epik_Ionization_Penalty_Neutral>
0.358595

> <r_epik_State_Penalty>
0.355181

> <r_epik_Charging_Adjusted_Penalty>
0.355181

> <i_epik_Tot_Q>
1

> <i_epik_Tot_abs_Q>
1

> <r_epik_Metal_State_Penalty>
0.718565

> <b_epik_Metal_Only>
0

> <s_epik_Chemistry_Notes>
This compound has an imine and may undergo hydrolysis.

> <s_lp_Force_Field>
OPLS_2005

> <r_lp_Energy>
20.1569

> <b_lp_Chiralities_Consistent>
1

> <s_lp_Variant>
AV-unprocessed.smi:561-1

> <Gold.Version>
5.8.1

> <Gold.Id.Protein>
6NUR|6NUR_protein|mol2

> <Gold.PLP.Fitness>
44.8201

> <Gold.PLP.PLP>
-32.8011

> <Gold.PLP.part.hbond>
-3.0099

> <Gold.PLP.part.metal>
0.0000

> <Gold.PLP.part.buried>
2.8046

> <Gold.PLP.part.nonpolar>
-32.8529

> <Gold.PLP.part.repulsive>
0.3066

> <Gold.PLP.ligand.clash>
0.0000

> <Gold.PLP.ligand.torsion>
1.3621

> <Gold.PLP.Chemscore.Hbond>
3.9120

> <Gold.PLP.Chemscore.CHOScore>
1.0000

> <Gold.PLP.Chemscore.Metal>
0.0000

> <Gold.Chemscore.Hbonds>
donor molecule, donor type, donor heavy atom, donor atom, acceptor molecule, acceptor atom, score
      L1  H     7    37       P1 10186  2.00
      L1  H     9    29       P1  7948  0.70
      P1  H  7997  8010       L1    17  1.00
      L1  C     8    28       P1 10171  0.79

> <Gold.PLP.Chemscore.Internal.Correction>
0.0072

> <Gold.Rescore>
     Score         DG    S(hbond)    S(metal)    S(lipo)     H(rot)  DE(clash)    DE(int)     intcor
     12.18     -16.32       2.67        0.00      54.84       1.76       1.85       2.29       ----

> <Gold.Chemscore.Fitness>
12.1771

> <Gold.Chemscore.DG>
-16.3191

> <Gold.Chemscore.ZeroCoef>
-5.4800

> <Gold.Chemscore.Hbond>
2.6723

> <Gold.Chemscore.Metal>
0.0000

> <Gold.Chemscore.Lipo>
54.8410

> <Gold.Chemscore.Internal_Hbond>
0.0000

> <Gold.Chemscore.DEClash>
1.8493

> <Gold.Chemscore.DEInternal>
2.2928

> <Gold.Chemscore.Rot>
1.7589

> <Gold.Chemscore.Internal.Correction>
   9.000000E+99

> <Gold.Chemscore.Hbonds>
donor molecule, donor type, donor heavy atom, donor atom, acceptor molecule, acceptor atom, score
      L1  H     7    37       P1 10186  0.80
      L1  H     9    29       P1  7948  0.70
      P1  H  7997  8010       L1    17  1.00

> <Gold.Chemscore.Hbond.Weighted>
-8.9256

> <Gold.Chemscore.Metal.Weighted>
-0.0000

> <Gold.Chemscore.Lipo.Weighted>
-6.4164

> <Gold.Chemscore.Internal_Hbond.Weighted>
0.0000

> <Gold.Chemscore.DEClash.Weighted>
1.8493

> <Gold.Chemscore.DEInternal.Weighted>
2.2928

> <Gold.Chemscore.Rot.Weighted>
4.5028

> <Gold.Chemscore.Internal.Correction.Weighted>
   9.000000E+99

> <Gold.Protein.RotatedTorsions>
[ 6907 6896 6895 6894 ] final -141.03 input  -60.11 | X-H torsion
[ 7974 7965 7964 7962 ] final -173.03 input  175.53 | X-H torsion
[ 8008 7997 7996 7995 ] final   81.50 input   59.86 | X-H torsion
[ 10167 10162 10161 10158 ] final  -17.92 input  -65.29 | X-H torsion
[ 10718 10713 10712 10709 ] final   29.61 input   66.30 | X-H torsion
[ 10763 10752 10751 10750 ] final  -15.41 input  -60.55 | X-H torsion
[ 11005 11000 10999 10996 ] final  127.68 input  -57.11 | X-H torsion

> <Gold.Protein.ActiveResidues>
 VAL166  LYS551  ARG553  GLY616  TRP617  ASP618  TYR619  PRO620  LYS621  CYS622 
 ASP623  PHE694  ASN695  SER759  ASP760  ASP761  ALA762  ILE779  LEU786  VAL792 
 PHE793  MET794  SER795  GLU796  ALA797  LYS798  CYS799  TRP800  GLU811  SER814 

> <Gold.Protein.RotatedAtoms>
  151.0684  133.5486  159.2628 H   0  0  0  0  0  0  0  0  0  0  0  0  # atno 6907 bound_to 6896
  151.2435  135.0596  159.9044 H   0  0  0  0  0  0  0  0  0  0  0  0  # atno 6908 bound_to 6896
  152.5408  134.0455  159.8140 H   0  0  0  0  0  0  0  0  0  0  0  0  # atno 6909 bound_to 6896
  144.7141  140.1683  143.6370 H   0  0  0  0  0  0  0  0  0  0  0  0  # atno 7974 bound_to 7965
  155.8980  140.3435  155.6005 H   0  0  0  0  0  0  0  0  0  0  0  0  # atno 8008 bound_to 7997
  155.7533  140.0823  157.2209 H   0  0  0  0  0  0  0  0  0  0  0  0  # atno 8009 bound_to 7997
  154.4040  140.1549  156.2737 H   0  0  0  0  0  0  0  0  0  0  0  0  # atno 8010 bound_to 7997
  140.7253  143.4967  150.9922 H   0  0  0  0  0  0  0  0  0  0  0  0  # atno 10167 bound_to 10162
  157.2489  130.7105  149.6395 H   0  0  0  0  0  0  0  0  0  0  0  0  # atno 10718 bound_to 10713
  153.5430  135.7013  153.5628 H   0  0  0  0  0  0  0  0  0  0  0  0  # atno 10763 bound_to 10752
  153.3585  135.3976  155.1700 H   0  0  0  0  0  0  0  0  0  0  0  0  # atno 10764 bound_to 10752
  154.8671  135.3783  154.4935 H   0  0  0  0  0  0  0  0  0  0  0  0  # atno 10765 bound_to 10752
  139.9520  134.9620  156.8891 H   0  0  0  0  0  0  0  0  0  0  0  0  # atno 11005 bound_to 11000
  145.8967  139.2407  143.1517 LP  0  0  0  0  0  0  0  0  0  0  0  0  # atno 17320 bound_to 7965
  145.9851  140.8650  143.0095 LP  0  0  0  0  0  0  0  0  0  0  0  0  # atno 17321 bound_to 7965
  139.8674  143.7236  152.3169 LP  0  0  0  0  0  0  0  0  0  0  0  0  # atno 17342 bound_to 10162
  139.7473  144.7544  151.0561 LP  0  0  0  0  0  0  0  0  0  0  0  0  # atno 17343 bound_to 10162
  155.9667  130.4434  150.5420 LP  0  0  0  0  0  0  0  0  0  0  0  0  # atno 17370 bound_to 10713
  157.3299  131.0697  151.1868 LP  0  0  0  0  0  0  0  0  0  0  0  0  # atno 17371 bound_to 10713
  140.5696  134.0456  155.7426 LP  0  0  0  0  0  0  0  0  0  0  0  0  # atno 17394 bound_to 11000
  141.1185  133.9500  157.2776 LP  0  0  0  0  0  0  0  0  0  0  0  0  # atno 17395 bound_to 11000

$$$$
