AV-unprocessed.smi:2153|AV-procd|sdf|8769|dock10
  -GOLD-   2272011553D 1   1.00000     0.00000
 Structure written by MMmdl.
 48 49  0  0  0  0  0  0  0  0  1 V2000
  153.2269  140.5120  159.4715 C   0  0  0  0  0  0  0  0  0  0  0  0
  152.1329  141.5744  159.2790 C   0  0  1  0  0  0  0  0  0  0  0  0
  152.5288  142.8957  159.9686 C   0  0  0  0  0  0  0  0  0  0  0  0
  151.4519  143.9769  159.7927 C   0  0  0  0  0  0  0  0  0  0  0  0
  151.1556  144.2176  158.3073 C   0  0  0  0  0  0  0  0  0  0  0  0
  150.7525  142.9111  157.6117 C   0  0  0  0  0  0  0  0  0  0  0  0
  151.8172  141.8061  157.7835 C   0  0  2  0  0  0  0  0  0  0  0  0
  151.3031  140.5890  157.2584 O   0  0  0  0  0  0  0  0  0  0  0  0
  151.0573  140.6009  155.8587 C   0  0  0  0  0  0  0  0  0  0  0  0
  151.7636  139.3921  155.2231 C   0  0  0  0  0  0  0  0  0  0  0  0
  151.0682  138.1443  155.5236 N   0  0  0  0  0  0  0  0  0  0  0  0
  151.4326  136.9266  155.0939 C   0  0  0  0  0  0  0  0  0  0  0  0
  152.4612  136.7119  154.4533 O   0  0  0  0  0  0  0  0  0  0  0  0
  150.4810  135.7743  155.4308 C   0  0  0  0  0  0  0  0  0  0  0  0
  151.1198  134.4729  155.1983 N   0  0  0  0  0  0  0  0  0  0  0  0
  150.7261  133.7077  154.1150 C   0  0  0  0  0  0  0  0  0  0  0  0
  151.2806  132.5163  153.8015 C   0  0  0  0  0  0  0  0  0  0  0  0
  152.3616  131.9586  154.6051 C   0  0  0  0  0  0  0  0  0  0  0  0
  152.8936  130.8769  154.3543 O   0  0  0  0  0  0  0  0  0  0  0  0
  152.7504  132.7641  155.7026 N   0  0  0  0  0  0  0  0  0  0  0  0
  153.8195  132.3024  156.5634 C   0  0  0  0  0  0  0  0  0  0  0  0
  152.1499  133.9979  156.0392 C   0  0  0  0  0  0  0  0  0  0  0  0
  152.5073  134.6462  157.0256 O   0  0  0  0  0  0  0  0  0  0  0  0
  154.1597  140.8131  158.9936 H   0  0  0  0  0  0  0  0  0  0  0  0
  152.9297  139.5536  159.0450 H   0  0  0  0  0  0  0  0  0  0  0  0
  153.4324  140.3478  160.5294 H   0  0  0  0  0  0  0  0  0  0  0  0
  151.2261  141.2070  159.7625 H   0  0  0  0  0  0  0  0  0  0  0  0
  152.6999  142.7246  161.0319 H   0  0  0  0  0  0  0  0  0  0  0  0
  153.4733  143.2563  159.5591 H   0  0  0  0  0  0  0  0  0  0  0  0
  150.5382  143.6732  160.3050 H   0  0  0  0  0  0  0  0  0  0  0  0
  151.7758  144.9061  160.2624 H   0  0  0  0  0  0  0  0  0  0  0  0
  150.3589  144.9546  158.2023 H   0  0  0  0  0  0  0  0  0  0  0  0
  152.0351  144.6379  157.8180 H   0  0  0  0  0  0  0  0  0  0  0  0
  149.8134  142.5582  158.0326 H   0  0  0  0  0  0  0  0  0  0  0  0
  150.5572  143.1120  156.5591 H   0  0  0  0  0  0  0  0  0  0  0  0
  152.7362  142.0862  157.2648 H   0  0  0  0  0  0  0  0  0  0  0  0
  149.9921  140.5639  155.6330 H   0  0  0  0  0  0  0  0  0  0  0  0
  151.4341  141.5318  155.4343 H   0  0  0  0  0  0  0  0  0  0  0  0
  151.8459  139.5227  154.1434 H   0  0  0  0  0  0  0  0  0  0  0  0
  152.7802  139.3141  155.6089 H   0  0  0  0  0  0  0  0  0  0  0  0
  150.2093  138.2214  156.0485 H   0  0  0  0  0  0  0  0  0  0  0  0
  150.1561  135.8636  156.4688 H   0  0  0  0  0  0  0  0  0  0  0  0
  149.5729  135.8624  154.8321 H   0  0  0  0  0  0  0  0  0  0  0  0
  149.9353  134.0821  153.4811 H   0  0  0  0  0  0  0  0  0  0  0  0
  150.9241  131.9710  152.9400 H   0  0  0  0  0  0  0  0  0  0  0  0
  154.4908  133.1423  156.7516 H   0  0  0  0  0  0  0  0  0  0  0  0
  154.3900  131.5079  156.0828 H   0  0  0  0  0  0  0  0  0  0  0  0
  153.3540  131.9476  157.4843 H   0  0  0  0  0  0  0  0  0  0  0  0
  1  2  1  0  0  0  0
  1 24  1  0  0  0  0
  1 25  1  0  0  0  0
  1 26  1  0  0  0  0
  2  7  1  0  0  0  0
  2  3  1  0  0  0  0
  2 27  1  0  0  0  0
  3  4  1  0  0  0  0
  3 28  1  0  0  0  0
  3 29  1  0  0  0  0
  4  5  1  0  0  0  0
  4 30  1  0  0  0  0
  4 31  1  0  0  0  0
  5  6  1  0  0  0  0
  5 32  1  0  0  0  0
  5 33  1  0  0  0  0
  6  7  1  0  0  0  0
  6 34  1  0  0  0  0
  6 35  1  0  0  0  0
  7  8  1  0  0  0  0
  7 36  1  0  0  0  0
  8  9  1  0  0  0  0
  9 10  1  0  0  0  0
  9 37  1  0  0  0  0
  9 38  1  0  0  0  0
 10 11  1  0  0  0  0
 10 39  1  0  0  0  0
 10 40  1  0  0  0  0
 11 12  1  0  0  0  0
 11 41  1  0  0  0  0
 12 13  2  0  0  0  0
 12 14  1  0  0  0  0
 14 15  1  0  0  0  0
 14 42  1  0  0  0  0
 14 43  1  0  0  0  0
 15 22  1  0  0  0  0
 15 16  1  0  0  0  0
 16 17  2  0  0  0  0
 16 44  1  0  0  0  0
 17 18  1  0  0  0  0
 17 45  1  0  0  0  0
 18 19  2  0  0  0  0
 18 20  1  0  0  0  0
 20 21  1  0  0  0  0
 20 22  1  0  0  0  0
 21 46  1  0  0  0  0
 21 47  1  0  0  0  0
 21 48  1  0  0  0  0
 22 23  2  0  0  0  0
M  END
> <s_m_source_file>
AV-unprocessed.smi

> <i_m_source_file_index>
2153

> <i_lp_mmshare_version>
43012

> <i_f3d_flags>
0

> <s_epik_input>
W0NIM11bQ0BASF0xW0NIMl1bQ0gyXVtDSDJdW0NIMl1bQ0BIXTFPW0NIMl1bQ0gyXVtOSF1DKD1PKVtDSDJdbjJbY0hdW2NIXWMoPU8pbihbQ0gzXSljMj1P

> <s_epik_cmdline>
J2VwaWtfcHl0aG9uJywgJy1waCcsICc3LjAnLCAnLXRuJywgJzgnLCAnLW1hJywgJzIwMCcsICctbWV0YWxfYmluZGluZycsICctaW1hZScsICc8aW5maWxlLm1hZT4nLCAnLW9tYWUnLCAnPG91dGZpbGUubWFlPic=

> <r_lp_tautomer_probability>
1

> <r_epik_Ionization_Penalty>
4.02205e-08

> <r_epik_Ionization_Penalty_Charging>
1.23606e-08

> <r_epik_Ionization_Penalty_Neutral>
2.78599e-08

> <r_epik_State_Penalty>
-0

> <r_epik_Charging_Adjusted_Penalty>
1.23606e-08

> <i_epik_Tot_Q>
0

> <i_epik_Tot_abs_Q>
0

> <r_epik_Metal_State_Penalty>
-0

> <b_epik_Metal_Only>
0

> <s_lp_Force_Field>
OPLS_2005

> <r_lp_Energy>
17.7366

> <b_lp_Chiralities_Consistent>
1

> <s_lp_Variant>
AV-unprocessed.smi:2153-4

> <Gold.Version>
5.8.1

> <Gold.Id.Protein>
6NUR|6NUR_protein|mol2

> <Gold.PLP.Fitness>
51.9571

> <Gold.PLP.PLP>
-46.1678

> <Gold.PLP.part.hbond>
-2.0000

> <Gold.PLP.part.metal>
0.0000

> <Gold.PLP.part.buried>
-6.5471

> <Gold.PLP.part.nonpolar>
-38.3708

> <Gold.PLP.part.repulsive>
0.2180

> <Gold.PLP.ligand.clash>
0.0000

> <Gold.PLP.ligand.torsion>
0.7043

> <Gold.PLP.Chemscore.Hbond>
1.3840

> <Gold.PLP.Chemscore.CHOScore>
1.0000

> <Gold.PLP.Chemscore.Metal>
0.0000

> <Gold.Chemscore.Hbonds>
donor molecule, donor type, donor heavy atom, donor atom, acceptor molecule, acceptor atom, score
      P1  H 10752 10765       L1    13  0.20

> <Gold.PLP.Chemscore.Internal.Correction>
0.0459

> <Gold.Rescore>
     Score         DG    S(hbond)    S(metal)    S(lipo)     H(rot)  DE(clash)    DE(int)     intcor
     17.37     -18.11       1.95        0.00     100.25       2.20       0.00       0.74       ----

> <Gold.Chemscore.Fitness>
17.3675

> <Gold.Chemscore.DG>
-18.1112

> <Gold.Chemscore.ZeroCoef>
-5.4800

> <Gold.Chemscore.Hbond>
1.9537

> <Gold.Chemscore.Metal>
0.0000

> <Gold.Chemscore.Lipo>
100.2526

> <Gold.Chemscore.Internal_Hbond>
0.0000

> <Gold.Chemscore.DEClash>
0.0030

> <Gold.Chemscore.DEInternal>
0.7407

> <Gold.Chemscore.Rot>
2.1968

> <Gold.Chemscore.Internal.Correction>
   9.000000E+99

> <Gold.Chemscore.Hbonds>
donor molecule, donor type, donor heavy atom, donor atom, acceptor molecule, acceptor atom, score
      P1  H 10752 10765       L1    13  0.18

> <Gold.Chemscore.Hbond.Weighted>
-6.5254

> <Gold.Chemscore.Metal.Weighted>
-0.0000

> <Gold.Chemscore.Lipo.Weighted>
-11.7296

> <Gold.Chemscore.Internal_Hbond.Weighted>
0.0000

> <Gold.Chemscore.DEClash.Weighted>
0.0030

> <Gold.Chemscore.DEInternal.Weighted>
0.7407

> <Gold.Chemscore.Rot.Weighted>
5.6238

> <Gold.Chemscore.Internal.Correction.Weighted>
   9.000000E+99

> <Gold.Protein.RotatedTorsions>
[ 6907 6896 6895 6894 ] final -114.35 input  -60.11 | X-H torsion
[ 7974 7965 7964 7962 ] final -126.58 input  175.53 | X-H torsion
[ 8008 7997 7996 7995 ] final  157.43 input   59.86 | X-H torsion
[ 10167 10162 10161 10158 ] final  -15.10 input  -65.29 | X-H torsion
[ 10718 10713 10712 10709 ] final  -10.94 input   66.30 | X-H torsion
[ 10763 10752 10751 10750 ] final -166.56 input  -60.55 | X-H torsion
[ 11005 11000 10999 10996 ] final  144.50 input  -57.11 | X-H torsion

> <Gold.Protein.ActiveResidues>
 VAL166  LYS551  ARG553  GLY616  TRP617  ASP618  TYR619  PRO620  LYS621  CYS622 
 ASP623  PHE694  ASN695  SER759  ASP760  ASP761  ALA762  ILE779  LEU786  VAL792 
 PHE793  MET794  SER795  GLU796  ALA797  LYS798  CYS799  TRP800  GLU811  SER814 

> <Gold.Protein.RotatedAtoms>
  150.7896  133.8813  159.3286 H   0  0  0  0  0  0  0  0  0  0  0  0  # atno 6907 bound_to 6896
  151.6655  135.0981  160.0197 H   0  0  0  0  0  0  0  0  0  0  0  0  # atno 6908 bound_to 6896
  152.3967  133.6718  159.6317 H   0  0  0  0  0  0  0  0  0  0  0  0  # atno 6909 bound_to 6896
  144.9858  140.7684  143.4584 H   0  0  0  0  0  0  0  0  0  0  0  0  # atno 7974 bound_to 7965
  156.2364  140.1885  156.7108 H   0  0  0  0  0  0  0  0  0  0  0  0  # atno 8008 bound_to 7997
  154.6114  140.0621  156.9526 H   0  0  0  0  0  0  0  0  0  0  0  0  # atno 8009 bound_to 7997
  155.2010  140.3292  155.4346 H   0  0  0  0  0  0  0  0  0  0  0  0  # atno 8010 bound_to 7997
  140.7213  143.5253  150.9584 H   0  0  0  0  0  0  0  0  0  0  0  0  # atno 10167 bound_to 10162
  156.6663  130.4996  149.6014 H   0  0  0  0  0  0  0  0  0  0  0  0  # atno 10718 bound_to 10713
  154.6820  135.2956  154.9599 H   0  0  0  0  0  0  0  0  0  0  0  0  # atno 10763 bound_to 10752
  154.0591  135.6634  153.4813 H   0  0  0  0  0  0  0  0  0  0  0  0  # atno 10764 bound_to 10752
  153.0554  135.5148  154.7868 H   0  0  0  0  0  0  0  0  0  0  0  0  # atno 10765 bound_to 10752
  140.0637  134.9190  157.1228 H   0  0  0  0  0  0  0  0  0  0  0  0  # atno 11005 bound_to 11000
  145.2356  139.2095  143.5020 LP  0  0  0  0  0  0  0  0  0  0  0  0  # atno 17320 bound_to 7965
  146.3419  140.2241  142.8592 LP  0  0  0  0  0  0  0  0  0  0  0  0  # atno 17321 bound_to 7965
  139.8972  143.6881  152.3137 LP  0  0  0  0  0  0  0  0  0  0  0  0  # atno 17342 bound_to 10162
  139.7217  144.7601  151.0944 LP  0  0  0  0  0  0  0  0  0  0  0  0  # atno 17343 bound_to 10162
  156.1973  130.6597  151.1128 LP  0  0  0  0  0  0  0  0  0  0  0  0  # atno 17370 bound_to 10713
  157.7092  131.0742  150.6559 LP  0  0  0  0  0  0  0  0  0  0  0  0  # atno 17371 bound_to 10713
  140.3731  134.2369  155.7176 LP  0  0  0  0  0  0  0  0  0  0  0  0  # atno 17394 bound_to 11000
  141.1984  133.8036  157.0584 LP  0  0  0  0  0  0  0  0  0  0  0  0  # atno 17395 bound_to 11000

$$$$
