AV-unprocessed.smi:21|AV-procd|sdf|149|dock10
  -GOLD-   2262015373D 1   1.00000     0.00000
 Structure written by MMmdl.
 62 65  0  0  0  0  0  0  0  0  2 V2000
  144.6486  132.1471  149.8115 C   0  0  0  0  0  0  0  0  0  0  0  0
  144.1167  133.3534  150.3352 O   0  0  0  0  0  0  0  0  0  0  0  0
  145.0970  134.3553  150.5620 C   0  0  1  0  0  0  0  0  0  0  0  0
  144.5108  135.6725  151.0594 C   0  0  0  0  0  0  0  0  0  0  0  0
  145.6989  136.3457  151.7583 C   0  0  1  0  0  0  0  0  0  0  0  0
  145.2992  137.4343  152.7854 C   0  0  0  0  0  0  0  0  0  0  0  0
  146.3561  138.4299  152.9907 N   0  0  0  0  0  0  0  0  0  0  0  0
  146.8256  139.1668  151.8233 C   0  0  0  0  0  0  0  0  0  0  0  0
  146.7390  138.8127  154.2459 C   0  0  0  0  0  0  0  0  0  0  0  0
  146.3199  138.0683  155.3049 N   0  0  0  0  0  0  0  0  0  0  0  0
  146.6570  138.3919  156.5555 C   0  0  0  0  0  0  0  0  0  0  0  0
  147.4027  139.4112  156.9775 N   0  0  0  0  0  0  0  0  0  0  0  0
  147.8372  140.1673  155.9307 C   0  0  0  0  0  0  0  0  0  0  0  0
  147.5575  139.9475  154.5490 C   0  0  0  0  0  0  0  0  0  0  0  0
  148.1758  140.9428  153.7967 N   0  0  0  0  0  0  0  0  0  0  0  0
  148.7799  141.6959  154.6733 C   0  0  0  0  0  0  0  0  0  0  0  0
  148.6340  141.2968  155.9804 N   0  0  0  0  0  0  0  0  0  0  0  0
  149.1894  141.9414  157.1577 C   0  0  0  0  0  0  0  0  0  0  0  0
  150.5425  141.3266  157.6006 C   0  0  1  0  0  0  0  0  0  0  0  0
  151.4528  141.0356  156.3846 C   0  0  0  0  0  0  0  0  0  0  0  0
  152.4043  140.0349  156.6821 O   0  0  0  0  0  0  0  0  0  0  0  0
  151.2760  142.1653  158.6837 C   0  0  1  0  0  0  0  0  0  0  0  0
  152.5160  141.5473  159.3091 C   0  0  0  0  0  0  0  0  0  0  0  0
  153.1727  142.7703  159.9344 C   0  0  0  0  0  0  0  0  0  0  0  0
  152.9745  143.7976  158.9727 O   0  0  0  0  0  0  0  0  0  0  0  0
  151.7771  143.5476  158.2386 C   0  0  0  0  0  0  0  0  0  0  0  0
  146.5379  135.2278  152.2832 N   0  3  1  0  0  0  0  0  0  0  0  0
  146.7579  135.1629  153.7475 C   0  0  0  0  0  0  0  0  0  0  0  0
  146.0093  133.9619  151.7222 C   0  0  0  0  0  0  0  0  0  0  0  0
  145.7012  134.5215  149.6680 H   0  0  0  0  0  0  0  0  0  0  0  0
  146.3103  136.8152  150.9864 H   0  0  0  0  0  0  0  0  0  0  0  0
  143.8493  131.4142  149.7012 H   0  0  0  0  0  0  0  0  0  0  0  0
  145.4001  131.7240  150.4795 H   0  0  0  0  0  0  0  0  0  0  0  0
  145.0977  132.2994  148.8298 H   0  0  0  0  0  0  0  0  0  0  0  0
  144.0919  136.2838  150.2595 H   0  0  0  0  0  0  0  0  0  0  0  0
  143.7175  135.4672  151.7793 H   0  0  0  0  0  0  0  0  0  0  0  0
  144.3515  137.8980  152.5131 H   0  0  0  0  0  0  0  0  0  0  0  0
  145.1197  136.9672  153.7540 H   0  0  0  0  0  0  0  0  0  0  0  0
  146.4807  140.2008  151.8547 H   0  0  0  0  0  0  0  0  0  0  0  0
  146.4507  138.7218  150.9013 H   0  0  0  0  0  0  0  0  0  0  0  0
  147.9146  139.1558  151.7710 H   0  0  0  0  0  0  0  0  0  0  0  0
  146.2755  137.7402  157.3278 H   0  0  0  0  0  0  0  0  0  0  0  0
  149.3550  142.5648  154.3879 H   0  0  0  0  0  0  0  0  0  0  0  0
  149.3050  143.0027  156.9376 H   0  0  0  0  0  0  0  0  0  0  0  0
  148.4430  141.8713  157.9474 H   0  0  0  0  0  0  0  0  0  0  0  0
  150.3180  140.3635  158.0618 H   0  0  0  0  0  0  0  0  0  0  0  0
  150.8715  140.6782  155.5353 H   0  0  0  0  0  0  0  0  0  0  0  0
  151.9678  141.9397  156.0592 H   0  0  0  0  0  0  0  0  0  0  0  0
  152.0912  139.5304  157.4174 H   0  0  0  0  0  0  0  0  0  0  0  0
  150.5770  142.3558  159.4994 H   0  0  0  0  0  0  0  0  0  0  0  0
  152.2865  140.7705  160.0390 H   0  0  0  0  0  0  0  0  0  0  0  0
  153.1833  141.1274  158.5575 H   0  0  0  0  0  0  0  0  0  0  0  0
  152.6700  143.0452  160.8629 H   0  0  0  0  0  0  0  0  0  0  0  0
  154.2308  142.6197  160.1489 H   0  0  0  0  0  0  0  0  0  0  0  0
  152.0097  143.5935  157.1760 H   0  0  0  0  0  0  0  0  0  0  0  0
  151.0351  144.3202  158.4427 H   0  0  0  0  0  0  0  0  0  0  0  0
  145.8163  135.0582  154.2882 H   0  0  0  0  0  0  0  0  0  0  0  0
  147.2764  136.0505  154.1100 H   0  0  0  0  0  0  0  0  0  0  0  0
  147.3823  134.3032  153.9933 H   0  0  0  0  0  0  0  0  0  0  0  0
  145.4203  133.4439  152.4816 H   0  0  0  0  0  0  0  0  0  0  0  0
  146.8125  133.2925  151.4137 H   0  0  0  0  0  0  0  0  0  0  0  0
  147.4500  135.3623  151.8704 H   0  0  0  0  0  0  0  0  0  0  0  0
  1  2  1  0  0  0  0
  1 32  1  0  0  0  0
  1 33  1  0  0  0  0
  1 34  1  0  0  0  0
  2  3  1  0  0  0  0
  3 30  1  0  0  0  0
  3 29  1  0  0  0  0
  3  4  1  0  0  0  0
  4  5  1  0  0  0  0
  4 35  1  0  0  0  0
  4 36  1  0  0  0  0
  5 31  1  0  0  0  0
  5  6  1  0  0  0  0
  5 27  1  0  0  0  0
  6  7  1  0  0  0  0
  6 37  1  0  0  0  0
  6 38  1  0  0  0  0
  7  8  1  0  0  0  0
  7  9  1  0  0  0  0
  8 39  1  0  0  0  0
  8 40  1  0  0  0  0
  8 41  1  0  0  0  0
  9 14  1  0  0  0  0
  9 10  2  0  0  0  0
 10 11  1  0  0  0  0
 11 12  2  0  0  0  0
 11 42  1  0  0  0  0
 12 13  1  0  0  0  0
 13 17  1  0  0  0  0
 13 14  2  0  0  0  0
 14 15  1  0  0  0  0
 15 16  2  0  0  0  0
 16 17  1  0  0  0  0
 16 43  1  0  0  0  0
 17 18  1  0  0  0  0
 18 19  1  0  0  0  0
 18 44  1  0  0  0  0
 18 45  1  0  0  0  0
 19 20  1  0  0  0  0
 19 22  1  0  0  0  0
 19 46  1  0  0  0  0
 20 21  1  0  0  0  0
 20 47  1  0  0  0  0
 20 48  1  0  0  0  0
 21 49  1  0  0  0  0
 22 26  1  0  0  0  0
 22 23  1  0  0  0  0
 22 50  1  0  0  0  0
 23 24  1  0  0  0  0
 23 51  1  0  0  0  0
 23 52  1  0  0  0  0
 24 25  1  0  0  0  0
 24 53  1  0  0  0  0
 24 54  1  0  0  0  0
 25 26  1  0  0  0  0
 26 55  1  0  0  0  0
 26 56  1  0  0  0  0
 27 28  1  0  0  0  0
 27 29  1  0  0  0  0
 27 62  1  0  0  0  0
 28 57  1  0  0  0  0
 28 58  1  0  0  0  0
 28 59  1  0  0  0  0
 29 60  1  0  0  0  0
 29 61  1  0  0  0  0
M  CHG  1  27   1
M  END
> <s_m_source_file>
AV-unprocessed.smi

> <i_m_source_file_index>
21

> <i_lp_mmshare_version>
43012

> <i_f3d_flags>
0

> <s_epik_input>
W0NIM11PW0NASF0xW0NIMl1bQ0BIXShOKFtDSDNdKVtDSDJdMSlbQ0gyXU4oW0NIM10pYyhuW2NIXW4yKWMoYzIzKW5bY0hdbjNbQ0gyXVtDQEhdKFtDSDJdW09IXSlbQ0BASF00W0NIMl1bQ0gyXU9bQ0gyXTQ=

> <s_epik_cmdline>
J2VwaWtfcHl0aG9uJywgJy1waCcsICc3LjAnLCAnLXRuJywgJzgnLCAnLW1hJywgJzIwMCcsICctbWV0YWxfYmluZGluZycsICctaW1hZScsICc8aW5maWxlLm1hZT4nLCAnLW9tYWUnLCAnPG91dGZpbGUubWFlPic=

> <r_lp_tautomer_probability>
1

> <r_epik_Ionization_Penalty>
0.0157465

> <r_epik_Ionization_Penalty_Charging>
0.015354

> <r_epik_Ionization_Penalty_Neutral>
0.000392529

> <r_epik_State_Penalty>
0.0120612

> <r_epik_Charging_Adjusted_Penalty>
0.0274152

> <i_epik_Tot_Q>
1

> <i_epik_Tot_abs_Q>
1

> <r_epik_Metal_State_Penalty>
0.0121253

> <b_epik_Metal_Only>
0

> <s_lp_Force_Field>
OPLS_2005

> <r_lp_Energy>
61.5082

> <b_lp_Chiralities_Consistent>
1

> <s_lp_Variant>
AV-unprocessed.smi:21-29

> <Gold.Version>
5.8.1

> <Gold.Id.Protein>
6NUR|6NUR_protein|mol2

> <Gold.PLP.Fitness>
53.8080

> <Gold.PLP.PLP>
-44.4764

> <Gold.PLP.part.hbond>
-2.0000

> <Gold.PLP.part.metal>
0.0000

> <Gold.PLP.part.buried>
-3.2765

> <Gold.PLP.part.nonpolar>
-38.3622

> <Gold.PLP.part.repulsive>
0.4126

> <Gold.PLP.ligand.clash>
0.0000

> <Gold.PLP.ligand.torsion>
1.0601

> <Gold.PLP.Chemscore.Hbond>
3.0000

> <Gold.PLP.Chemscore.CHOScore>
0.6947

> <Gold.PLP.Chemscore.Metal>
0.0000

> <Gold.Chemscore.Hbonds>
donor molecule, donor type, donor heavy atom, donor atom, acceptor molecule, acceptor atom, score
      L1  H    27    62       P1  7948  2.00
      P1  H  7997  8008       L1    21  1.00
      L1  C    16    43       P1  8028  0.75

> <Gold.PLP.Chemscore.Internal.Correction>
0.3679

> <Gold.Rescore>
     Score         DG    S(hbond)    S(metal)    S(lipo)     H(rot)  DE(clash)    DE(int)     intcor
     14.26     -16.72       1.91        0.00     108.94       3.08       0.14       2.32       ----

> <Gold.Chemscore.Fitness>
14.2631

> <Gold.Chemscore.DG>
-16.7212

> <Gold.Chemscore.ZeroCoef>
-5.4800

> <Gold.Chemscore.Hbond>
1.9069

> <Gold.Chemscore.Metal>
0.0000

> <Gold.Chemscore.Lipo>
108.9427

> <Gold.Chemscore.Internal_Hbond>
0.0000

> <Gold.Chemscore.DEClash>
0.1401

> <Gold.Chemscore.DEInternal>
2.3180

> <Gold.Chemscore.Rot>
3.0758

> <Gold.Chemscore.Internal.Correction>
   9.000000E+99

> <Gold.Chemscore.Hbonds>
donor molecule, donor type, donor heavy atom, donor atom, acceptor molecule, acceptor atom, score
      L1  H    27    62       P1  7948  0.93
      P1  H  7997  8008       L1    21  0.74

> <Gold.Chemscore.Hbond.Weighted>
-6.3690

> <Gold.Chemscore.Metal.Weighted>
-0.0000

> <Gold.Chemscore.Lipo.Weighted>
-12.7463

> <Gold.Chemscore.Internal_Hbond.Weighted>
0.0000

> <Gold.Chemscore.DEClash.Weighted>
0.1401

> <Gold.Chemscore.DEInternal.Weighted>
2.3180

> <Gold.Chemscore.Rot.Weighted>
7.8741

> <Gold.Chemscore.Internal.Correction.Weighted>
   9.000000E+99

> <Gold.Protein.RotatedTorsions>
[ 6907 6896 6895 6894 ] final  104.35 input  -60.11 | X-H torsion
[ 7974 7965 7964 7962 ] final   50.63 input  175.53 | X-H torsion
[ 8008 7997 7996 7995 ] final  -62.44 input   59.86 | X-H torsion
[ 10167 10162 10161 10158 ] final  -62.71 input  -65.29 | X-H torsion
[ 10718 10713 10712 10709 ] final  160.73 input   66.30 | X-H torsion
[ 10763 10752 10751 10750 ] final -143.29 input  -60.55 | X-H torsion
[ 11005 11000 10999 10996 ] final  -98.89 input  -57.11 | X-H torsion

> <Gold.Protein.ActiveResidues>
 VAL166  LYS551  ARG553  GLY616  TRP617  ASP618  TYR619  PRO620  LYS621  CYS622 
 ASP623  PHE694  ASN695  SER759  ASP760  ASP761  ALA762  ILE779  LEU786  VAL792 
 PHE793  MET794  SER795  GLU796  ALA797  LYS798  CYS799  TRP800  GLU811  SER814 

> <Gold.Protein.RotatedAtoms>
  152.5267  133.9690  159.7752 H   0  0  0  0  0  0  0  0  0  0  0  0  # atno 6907 bound_to 6896
  150.9966  133.6089  159.2708 H   0  0  0  0  0  0  0  0  0  0  0  0  # atno 6908 bound_to 6896
  151.3213  135.0825  159.9360 H   0  0  0  0  0  0  0  0  0  0  0  0  # atno 6909 bound_to 6896
  145.9993  139.4422  143.0025 H   0  0  0  0  0  0  0  0  0  0  0  0  # atno 7974 bound_to 7965
  154.4500  140.0996  156.6587 H   0  0  0  0  0  0  0  0  0  0  0  0  # atno 8008 bound_to 7997
  155.5317  140.3481  155.4409 H   0  0  0  0  0  0  0  0  0  0  0  0  # atno 8009 bound_to 7997
  156.0659  140.1337  156.9875 H   0  0  0  0  0  0  0  0  0  0  0  0  # atno 8010 bound_to 7997
  140.5920  143.2343  151.6118 H   0  0  0  0  0  0  0  0  0  0  0  0  # atno 10167 bound_to 10162
  157.1464  131.0553  151.2302 H   0  0  0  0  0  0  0  0  0  0  0  0  # atno 10718 bound_to 10713
  154.8476  135.3472  154.6164 H   0  0  0  0  0  0  0  0  0  0  0  0  # atno 10763 bound_to 10752
  153.6772  135.6982  153.5133 H   0  0  0  0  0  0  0  0  0  0  0  0  # atno 10764 bound_to 10752
  153.2696  135.4297  155.0931 H   0  0  0  0  0  0  0  0  0  0  0  0  # atno 10765 bound_to 10752
  141.1329  133.8279  157.0899 H   0  0  0  0  0  0  0  0  0  0  0  0  # atno 11005 bound_to 11000
  145.7512  140.9972  143.1249 LP  0  0  0  0  0  0  0  0  0  0  0  0  # atno 17320 bound_to 7965
  144.6914  139.9216  143.7468 LP  0  0  0  0  0  0  0  0  0  0  0  0  # atno 17321 bound_to 7965
  139.5234  144.3135  152.0972 LP  0  0  0  0  0  0  0  0  0  0  0  0  # atno 17342 bound_to 10162
  140.2301  144.4377  150.6304 LP  0  0  0  0  0  0  0  0  0  0  0  0  # atno 17343 bound_to 10162
  157.4260  130.7464  149.6952 LP  0  0  0  0  0  0  0  0  0  0  0  0  # atno 17370 bound_to 10713
  155.9779  130.4058  150.3685 LP  0  0  0  0  0  0  0  0  0  0  0  0  # atno 17371 bound_to 10713
  140.0399  134.9860  157.0941 LP  0  0  0  0  0  0  0  0  0  0  0  0  # atno 17394 bound_to 11000
  140.4152  134.1939  155.7163 LP  0  0  0  0  0  0  0  0  0  0  0  0  # atno 17395 bound_to 11000

$$$$
