AV-unprocessed.smi:1205|AV-procd|sdf|5039|dock5
  -GOLD-   22720 4 63D 1   1.00000     0.00000
 Structure written by MMmdl.
 49 50  0  0  0  0  0  0  0  0  2 V2000
  150.3617  141.8603  156.4436 C   0  0  0  0  0  0  0  0  0  0  0  0
  150.0967  140.6654  155.5759 C   0  0  0  0  0  0  0  0  0  0  0  0
  148.8709  140.2859  154.9557 C   0  0  0  0  0  0  0  0  0  0  0  0
  149.2096  139.1344  154.2988 C   0  0  0  0  0  0  0  0  0  0  0  0
  148.4291  138.3249  153.5344 N   0  0  0  0  0  0  0  0  0  0  0  0
  147.0873  138.2745  153.4641 C   0  0  0  0  0  0  0  0  0  0  0  0
  146.3094  138.9813  154.1053 O   0  0  0  0  0  0  0  0  0  0  0  0
  146.6811  137.3376  152.5952 N   0  0  0  0  0  0  0  0  0  0  0  0
  145.2865  137.0301  152.2920 C   0  0  0  0  0  0  0  0  0  0  0  0
  144.8209  135.6919  152.9132 C   0  0  2  0  0  0  0  0  0  0  0  0
  145.2925  135.5135  154.3730 C   0  0  0  0  0  0  0  0  0  0  0  0
  145.1944  134.5445  152.0348 N   0  3  1  0  0  0  0  0  0  0  0  0
  145.6951  133.3347  152.7432 C   0  0  0  0  0  0  0  0  0  0  0  0
  146.2712  132.3196  151.7437 C   0  0  0  0  0  0  0  0  0  0  0  0
  145.2270  131.9408  150.6849 C   0  0  0  0  0  0  0  0  0  0  0  0
  144.6874  133.2022  149.9880 C   0  0  1  0  0  0  0  0  0  0  0  0
  143.6195  132.8531  148.9421 C   0  0  0  0  0  0  0  0  0  0  0  0
  144.1501  134.2018  151.0321 C   0  0  0  0  0  0  0  0  0  0  0  0
  150.5416  138.8680  154.5258 N   0  0  0  0  0  0  0  0  0  0  0  0
  151.3555  137.7661  154.0504 C   0  0  0  0  0  0  0  0  0  0  0  0
  151.0859  139.8176  155.3171 N   0  0  0  0  0  0  0  0  0  0  0  0
  149.4609  142.4605  156.5727 H   0  0  0  0  0  0  0  0  0  0  0  0
  151.1270  142.5016  156.0057 H   0  0  0  0  0  0  0  0  0  0  0  0
  150.7037  141.5587  157.4339 H   0  0  0  0  0  0  0  0  0  0  0  0
  147.9168  140.7887  155.0004 H   0  0  0  0  0  0  0  0  0  0  0  0
  148.9315  137.6813  152.9410 H   0  0  0  0  0  0  0  0  0  0  0  0
  147.3843  136.8029  152.1059 H   0  0  0  0  0  0  0  0  0  0  0  0
  144.6513  137.8493  152.6342 H   0  0  0  0  0  0  0  0  0  0  0  0
  145.1939  137.0045  151.2067 H   0  0  0  0  0  0  0  0  0  0  0  0
  143.7308  135.7261  152.9325 H   0  0  0  0  0  0  0  0  0  0  0  0
  144.8795  136.2904  155.0168 H   0  0  0  0  0  0  0  0  0  0  0  0
  146.3779  135.5678  154.4588 H   0  0  0  0  0  0  0  0  0  0  0  0
  144.9702  134.5580  154.7865 H   0  0  0  0  0  0  0  0  0  0  0  0
  146.4692  133.6037  153.4609 H   0  0  0  0  0  0  0  0  0  0  0  0
  144.8858  132.8690  153.3072 H   0  0  0  0  0  0  0  0  0  0  0  0
  147.1523  132.7414  151.2580 H   0  0  0  0  0  0  0  0  0  0  0  0
  146.6064  131.4259  152.2711 H   0  0  0  0  0  0  0  0  0  0  0  0
  145.6691  131.2630  149.9538 H   0  0  0  0  0  0  0  0  0  0  0  0
  144.4073  131.3973  151.1575 H   0  0  0  0  0  0  0  0  0  0  0  0
  145.5170  133.6779  149.4625 H   0  0  0  0  0  0  0  0  0  0  0  0
  142.7586  132.3658  149.4007 H   0  0  0  0  0  0  0  0  0  0  0  0
  144.0182  132.1787  148.1838 H   0  0  0  0  0  0  0  0  0  0  0  0
  143.2627  133.7478  148.4315 H   0  0  0  0  0  0  0  0  0  0  0  0
  143.2761  133.7869  151.5359 H   0  0  0  0  0  0  0  0  0  0  0  0
  143.8207  135.1070  150.5203 H   0  0  0  0  0  0  0  0  0  0  0  0
  151.2296  137.6533  152.9733 H   0  0  0  0  0  0  0  0  0  0  0  0
  151.0472  136.8447  154.5448 H   0  0  0  0  0  0  0  0  0  0  0  0
  152.4097  137.9481  154.2633 H   0  0  0  0  0  0  0  0  0  0  0  0
  145.9733  134.8831  151.4880 H   0  0  0  0  0  0  0  0  0  0  0  0
  1  2  1  0  0  0  0
  1 22  1  0  0  0  0
  1 23  1  0  0  0  0
  1 24  1  0  0  0  0
  2 21  2  0  0  0  0
  2  3  1  0  0  0  0
  3  4  2  0  0  0  0
  3 25  1  0  0  0  0
  4  5  1  0  0  0  0
  4 19  1  0  0  0  0
  5  6  1  0  0  0  0
  5 26  1  0  0  0  0
  6  7  2  0  0  0  0
  6  8  1  0  0  0  0
  8  9  1  0  0  0  0
  8 27  1  0  0  0  0
  9 10  1  0  0  0  0
  9 28  1  0  0  0  0
  9 29  1  0  0  0  0
 10 11  1  0  0  0  0
 10 12  1  0  0  0  0
 10 30  1  0  0  0  0
 11 31  1  0  0  0  0
 11 32  1  0  0  0  0
 11 33  1  0  0  0  0
 12 18  1  0  0  0  0
 12 13  1  0  0  0  0
 12 49  1  0  0  0  0
 13 14  1  0  0  0  0
 13 34  1  0  0  0  0
 13 35  1  0  0  0  0
 14 15  1  0  0  0  0
 14 36  1  0  0  0  0
 14 37  1  0  0  0  0
 15 16  1  0  0  0  0
 15 38  1  0  0  0  0
 15 39  1  0  0  0  0
 16 17  1  0  0  0  0
 16 18  1  0  0  0  0
 16 40  1  0  0  0  0
 17 41  1  0  0  0  0
 17 42  1  0  0  0  0
 17 43  1  0  0  0  0
 18 44  1  0  0  0  0
 18 45  1  0  0  0  0
 19 20  1  0  0  0  0
 19 21  1  0  0  0  0
 20 46  1  0  0  0  0
 20 47  1  0  0  0  0
 20 48  1  0  0  0  0
M  CHG  1  12   1
M  END
> <s_m_source_file>
AV-unprocessed.smi

> <i_m_source_file_index>
1205

> <i_lp_mmshare_version>
43012

> <i_f3d_flags>
0

> <s_epik_input>
W0NIM11jMVtjSF1jKG4objEpW0NIM10pW05IXUMoPU8pW05IXVtDSDJdW0NASF0oW0NIM10pTjJbQ0gyXVtDSDJdW0NIMl1bQ0BASF0oW0NIM10pW0NIMl0y

> <s_epik_cmdline>
J2VwaWtfcHl0aG9uJywgJy1waCcsICc3LjAnLCAnLXRuJywgJzgnLCAnLW1hJywgJzIwMCcsICctbWV0YWxfYmluZGluZycsICctaW1hZScsICc8aW5maWxlLm1hZT4nLCAnLW9tYWUnLCAnPG91dGZpbGUubWFlPic=

> <r_lp_tautomer_probability>
1

> <r_epik_Ionization_Penalty>
0.0020309

> <r_epik_Ionization_Penalty_Charging>
0.00195276

> <r_epik_Ionization_Penalty_Neutral>
7.81448e-05

> <r_epik_State_Penalty>
0.00133177

> <r_epik_Charging_Adjusted_Penalty>
0.00328452

> <i_epik_Tot_Q>
1

> <i_epik_Tot_abs_Q>
1

> <r_epik_Metal_State_Penalty>
-0

> <b_epik_Metal_Only>
0

> <s_lp_Force_Field>
OPLS_2005

> <r_lp_Energy>
21.646

> <b_lp_Chiralities_Consistent>
1

> <s_lp_Variant>
AV-unprocessed.smi:1205-1

> <Gold.Version>
5.8.1

> <Gold.Id.Protein>
6NUR|6NUR_protein|mol2

> <Gold.PLP.Fitness>
40.2374

> <Gold.PLP.PLP>
-36.3980

> <Gold.PLP.part.hbond>
-3.9302

> <Gold.PLP.part.metal>
0.0000

> <Gold.PLP.part.buried>
-0.1231

> <Gold.PLP.part.nonpolar>
-32.8809

> <Gold.PLP.part.repulsive>
0.3261

> <Gold.PLP.ligand.clash>
0.0000

> <Gold.PLP.ligand.torsion>
1.4069

> <Gold.PLP.Chemscore.Hbond>
2.1785

> <Gold.PLP.Chemscore.CHOScore>
0.0000

> <Gold.PLP.Chemscore.Metal>
0.0000

> <Gold.Chemscore.Hbonds>
donor molecule, donor type, donor heavy atom, donor atom, acceptor molecule, acceptor atom, score
      L1  H     5    26       P1  7948  1.00
      L1  H     8    27       P1  7948  1.00
      P1  H  7989  7998       L1    21  0.15

> <Gold.PLP.Chemscore.Internal.Correction>
0.1177

> <Gold.Rescore>
     Score         DG    S(hbond)    S(metal)    S(lipo)     H(rot)  DE(clash)    DE(int)     intcor
     15.47     -18.22       1.88        0.00      87.19       1.47       0.28       2.47       ----

> <Gold.Chemscore.Fitness>
15.4733

> <Gold.Chemscore.DG>
-18.2202

> <Gold.Chemscore.ZeroCoef>
-5.4800

> <Gold.Chemscore.Hbond>
1.8837

> <Gold.Chemscore.Metal>
0.0000

> <Gold.Chemscore.Lipo>
87.1883

> <Gold.Chemscore.Internal_Hbond>
0.0000

> <Gold.Chemscore.DEClash>
0.2795

> <Gold.Chemscore.DEInternal>
2.4674

> <Gold.Chemscore.Rot>
1.4658

> <Gold.Chemscore.Internal.Correction>
   9.000000E+99

> <Gold.Chemscore.Hbonds>
donor molecule, donor type, donor heavy atom, donor atom, acceptor molecule, acceptor atom, score
      L1  H     5    26       P1  7948  0.96
      L1  H     8    27       P1  7948  0.98

> <Gold.Chemscore.Hbond.Weighted>
-6.2917

> <Gold.Chemscore.Metal.Weighted>
-0.0000

> <Gold.Chemscore.Lipo.Weighted>
-10.2010

> <Gold.Chemscore.Internal_Hbond.Weighted>
0.0000

> <Gold.Chemscore.DEClash.Weighted>
0.2795

> <Gold.Chemscore.DEInternal.Weighted>
2.4674

> <Gold.Chemscore.Rot.Weighted>
3.7526

> <Gold.Chemscore.Internal.Correction.Weighted>
   9.000000E+99

> <Gold.Protein.RotatedTorsions>
[ 6907 6896 6895 6894 ] final   55.92 input  -60.11 | X-H torsion
[ 7974 7965 7964 7962 ] final   63.27 input  175.53 | X-H torsion
[ 8008 7997 7996 7995 ] final  111.03 input   59.86 | X-H torsion
[ 10167 10162 10161 10158 ] final  -61.69 input  -65.29 | X-H torsion
[ 10718 10713 10712 10709 ] final   47.68 input   66.30 | X-H torsion
[ 10763 10752 10751 10750 ] final  -27.99 input  -60.55 | X-H torsion
[ 11005 11000 10999 10996 ] final -127.65 input  -57.11 | X-H torsion

> <Gold.Protein.ActiveResidues>
 VAL166  LYS551  ARG553  GLY616  TRP617  ASP618  TYR619  PRO620  LYS621  CYS622 
 ASP623  PHE694  ASN695  SER759  ASP760  ASP761  ALA762  ILE779  LEU786  VAL792 
 PHE793  MET794  SER795  GLU796  ALA797  LYS798  CYS799  TRP800  GLU811  SER814 

> <Gold.Protein.RotatedAtoms>
  152.3586  134.6905  160.0214 H   0  0  0  0  0  0  0  0  0  0  0  0  # atno 6907 bound_to 6896
  151.7236  133.3310  159.3330 H   0  0  0  0  0  0  0  0  0  0  0  0  # atno 6908 bound_to 6896
  150.7588  134.6360  159.6256 H   0  0  0  0  0  0  0  0  0  0  0  0  # atno 6909 bound_to 6896
  145.8637  139.3332  143.0804 H   0  0  0  0  0  0  0  0  0  0  0  0  # atno 7974 bound_to 7965
  156.2095  140.3027  155.9701 H   0  0  0  0  0  0  0  0  0  0  0  0  # atno 8008 bound_to 7997
  155.2758  140.0435  157.3028 H   0  0  0  0  0  0  0  0  0  0  0  0  # atno 8009 bound_to 7997
  154.5680  140.2340  155.8243 H   0  0  0  0  0  0  0  0  0  0  0  0  # atno 8010 bound_to 7997
  140.5989  143.2357  151.5973 H   0  0  0  0  0  0  0  0  0  0  0  0  # atno 10167 bound_to 10162
  157.4609  130.8196  149.7886 H   0  0  0  0  0  0  0  0  0  0  0  0  # atno 10718 bound_to 10713
  153.7411  135.6932  153.4967 H   0  0  0  0  0  0  0  0  0  0  0  0  # atno 10763 bound_to 10752
  153.2069  135.4416  155.0332 H   0  0  0  0  0  0  0  0  0  0  0  0  # atno 10764 bound_to 10752
  154.8220  135.3427  154.6936 H   0  0  0  0  0  0  0  0  0  0  0  0  # atno 10765 bound_to 10752
  140.9582  134.0973  157.3995 H   0  0  0  0  0  0  0  0  0  0  0  0  # atno 11005 bound_to 11000
  145.9218  140.9110  143.0401 LP  0  0  0  0  0  0  0  0  0  0  0  0  # atno 17320 bound_to 7965
  144.6726  140.1299  143.7444 LP  0  0  0  0  0  0  0  0  0  0  0  0  # atno 17321 bound_to 7965
  139.5277  144.3009  152.1074 LP  0  0  0  0  0  0  0  0  0  0  0  0  # atno 17342 bound_to 10162
  140.2186  144.4489  150.6352 LP  0  0  0  0  0  0  0  0  0  0  0  0  # atno 17343 bound_to 10162
  156.0028  130.3871  150.2540 LP  0  0  0  0  0  0  0  0  0  0  0  0  # atno 17370 bound_to 10713
  157.0718  131.0119  151.3187 LP  0  0  0  0  0  0  0  0  0  0  0  0  # atno 17371 bound_to 10713
  139.8869  135.0085  156.6528 LP  0  0  0  0  0  0  0  0  0  0  0  0  # atno 17394 bound_to 11000
  140.7506  133.8901  155.8344 LP  0  0  0  0  0  0  0  0  0  0  0  0  # atno 17395 bound_to 11000

$$$$
