AV-unprocessed.smi:72|AV-procd|sdf|692|dock7
  -GOLD-   2262017 03D 1   1.00000     0.00000
 Structure written by MMmdl.
 29 30  0  0  0  0  0  0  0  0  1 V2000
  146.3531  131.1716  148.8189 N   0  0  0  0  0  0  0  0  0  0  0  0
  145.9262  132.0646  149.6378 C   0  0  0  0  0  0  0  0  0  0  0  0
  144.6719  132.6890  149.5766 N   0  0  0  0  0  0  0  0  0  0  0  0
  144.3680  133.5654  150.4837 C   0  0  0  0  0  0  0  0  0  0  0  0
  145.2768  133.9076  151.5715 N   0  0  0  0  0  0  0  0  0  0  0  0
  144.9387  134.9410  152.6342 C   0  0  1  0  0  0  0  0  0  0  0  0
  145.8907  135.9666  152.6232 O   0  0  0  0  0  0  0  0  0  0  0  0
  145.3944  137.0785  151.8833 C   0  0  2  0  0  0  0  0  0  0  0  0
  146.1932  138.3566  152.1908 C   0  0  0  0  0  0  0  0  0  0  0  0
  147.5083  138.2307  151.6942 O   0  0  0  0  0  0  0  0  0  0  0  0
  143.9199  137.0970  152.2963 C   0  0  2  0  0  0  0  0  0  0  0  0
  143.7671  137.7311  153.5560 O   0  0  0  0  0  0  0  0  0  0  0  0
  143.5760  135.6082  152.3417 C   0  0  2  0  0  0  0  0  0  0  0  0
  142.5843  135.3111  153.3069 O   0  0  0  0  0  0  0  0  0  0  0  0
  146.5620  133.3118  151.6203 C   0  0  0  0  0  0  0  0  0  0  0  0
  147.3864  133.5945  152.4896 O   0  0  0  0  0  0  0  0  0  0  0  0
  146.8267  132.4079  150.6531 N   0  0  0  0  0  0  0  0  0  0  0  0
  144.9880  134.4049  153.5837 H   0  0  0  0  0  0  0  0  0  0  0  0
  145.4436  136.8576  150.8153 H   0  0  0  0  0  0  0  0  0  0  0  0
  143.3029  137.6292  151.5715 H   0  0  0  0  0  0  0  0  0  0  0  0
  143.2226  135.2944  151.3581 H   0  0  0  0  0  0  0  0  0  0  0  0
  147.2859  130.8829  149.0771 H   0  0  0  0  0  0  0  0  0  0  0  0
  143.4145  134.0932  150.4791 H   0  0  0  0  0  0  0  0  0  0  0  0
  145.7362  139.2131  151.6942 H   0  0  0  0  0  0  0  0  0  0  0  0
  146.2125  138.5704  153.2600 H   0  0  0  0  0  0  0  0  0  0  0  0
  147.9234  137.5024  152.1309 H   0  0  0  0  0  0  0  0  0  0  0  0
  143.4895  138.6221  153.4065 H   0  0  0  0  0  0  0  0  0  0  0  0
  142.1650  136.1193  153.5617 H   0  0  0  0  0  0  0  0  0  0  0  0
  147.7311  131.9592  150.6652 H   0  0  0  0  0  0  0  0  0  0  0  0
  1  2  2  0  0  0  0
  1 22  1  0  0  0  0
  2 17  1  0  0  0  0
  2  3  1  0  0  0  0
  3  4  2  0  0  0  0
  4  5  1  0  0  0  0
  4 23  1  0  0  0  0
  5  6  1  0  0  0  0
  5 15  1  0  0  0  0
  6 18  1  0  0  0  0
  6 13  1  0  0  0  0
  6  7  1  0  0  0  0
  7  8  1  0  0  0  0
  8 19  1  0  0  0  0
  8  9  1  0  0  0  0
  8 11  1  0  0  0  0
  9 10  1  0  0  0  0
  9 24  1  0  0  0  0
  9 25  1  0  0  0  0
 10 26  1  0  0  0  0
 11 20  1  0  0  0  0
 11 12  1  0  0  0  0
 11 13  1  0  0  0  0
 12 27  1  0  0  0  0
 13 21  1  0  0  0  0
 13 14  1  0  0  0  0
 14 28  1  0  0  0  0
 15 16  2  0  0  0  0
 15 17  1  0  0  0  0
 17 29  1  0  0  0  0
M  END
> <s_m_source_file>
AV-unprocessed.smi

> <i_m_source_file_index>
72

> <i_lp_mmshare_version>
43012

> <i_f3d_flags>
0

> <s_epik_input>
W05IMl1jMW5bY0hdbihjKD1PKW4xKVtDQEBIXTJPW0NASF0oW0NIMl1bT0hdKVtDQEBIXShbT0hdKVtDQEhdMltPSF0=

> <s_epik_cmdline>
J2VwaWtfcHl0aG9uJywgJy1waCcsICc3LjAnLCAnLXRuJywgJzgnLCAnLW1hJywgJzIwMCcsICctbWV0YWxfYmluZGluZycsICctaW1hZScsICc8aW5maWxlLm1hZT4nLCAnLW9tYWUnLCAnPG91dGZpbGUubWFlPic=

> <r_lp_tautomer_probability>
7.17554e-07

> <r_epik_Ionization_Penalty>
0.0066451

> <r_epik_Ionization_Penalty_Charging>
0.00663793

> <r_epik_Ionization_Penalty_Neutral>
7.17052e-06

> <r_epik_State_Penalty>
0.419231

> <r_epik_Charging_Adjusted_Penalty>
0.425868

> <i_epik_Tot_Q>
0

> <i_epik_Tot_abs_Q>
0

> <r_epik_Metal_State_Penalty>
1.44144

> <b_epik_Metal_Only>
0

> <s_epik_Chemistry_Notes>
This compound contains an acetal/aminal-like group ( X-CH(R)-Y where X, Y are N, S, or O) that may be acid/base labile, releasing an aldehyde.

> <s_lp_Force_Field>
OPLS_2005

> <r_lp_Energy>
42.1685

> <b_lp_Chiralities_Consistent>
1

> <s_lp_Variant>
AV-unprocessed.smi:72-30

> <Gold.Version>
5.8.1

> <Gold.Id.Protein>
6NUR|6NUR_protein|mol2

> <Gold.PLP.Fitness>
40.7683

> <Gold.PLP.PLP>
-23.8973

> <Gold.PLP.part.hbond>
-5.5664

> <Gold.PLP.part.metal>
0.0000

> <Gold.PLP.part.buried>
-1.6085

> <Gold.PLP.part.nonpolar>
-18.9302

> <Gold.PLP.part.repulsive>
0.5809

> <Gold.PLP.ligand.clash>
0.0000

> <Gold.PLP.ligand.torsion>
0.0530

> <Gold.PLP.Chemscore.Hbond>
4.7680

> <Gold.PLP.Chemscore.CHOScore>
0.8836

> <Gold.PLP.Chemscore.Metal>
0.0000

> <Gold.Chemscore.Hbonds>
donor molecule, donor type, donor heavy atom, donor atom, acceptor molecule, acceptor atom, score
      L1  H     1    22       P1 10747  1.00
      L1  H    10    26       P1  7948  0.80
      L1  H    12    27       P1 10175  0.96
      L1  H    17    29       P1 10747  1.00
      P1  H  7954  7966       L1    10  0.90
      L1  C     4    23       P1 10186  0.83

> <Gold.PLP.Chemscore.Internal.Correction>
0.0223

> <Gold.Rescore>
     Score         DG    S(hbond)    S(metal)    S(lipo)     H(rot)  DE(clash)    DE(int)     intcor
      8.49     -11.41       4.08        0.00      22.95       4.06       1.47       1.45       ----

> <Gold.Chemscore.Fitness>
8.4925

> <Gold.Chemscore.DG>
-11.4099

> <Gold.Chemscore.ZeroCoef>
-5.4800

> <Gold.Chemscore.Hbond>
4.0833

> <Gold.Chemscore.Metal>
0.0000

> <Gold.Chemscore.Lipo>
22.9504

> <Gold.Chemscore.Internal_Hbond>
0.0000

> <Gold.Chemscore.DEClash>
1.4703

> <Gold.Chemscore.DEInternal>
1.4471

> <Gold.Chemscore.Rot>
4.0600

> <Gold.Chemscore.Internal.Correction>
   9.000000E+99

> <Gold.Chemscore.Hbonds>
donor molecule, donor type, donor heavy atom, donor atom, acceptor molecule, acceptor atom, score
      L1  H     1    22       P1 10747  0.92
      L1  H    10    26       P1  7948  0.79
      L1  H    12    27       P1 10175  0.88
      L1  H    17    29       P1 10747  1.00
      P1  H  7954  7966       L1    10  0.18

> <Gold.Chemscore.Hbond.Weighted>
-13.6383

> <Gold.Chemscore.Metal.Weighted>
-0.0000

> <Gold.Chemscore.Lipo.Weighted>
-2.6852

> <Gold.Chemscore.Internal_Hbond.Weighted>
0.0000

> <Gold.Chemscore.DEClash.Weighted>
1.4703

> <Gold.Chemscore.DEInternal.Weighted>
1.4471

> <Gold.Chemscore.Rot.Weighted>
10.3936

> <Gold.Chemscore.Internal.Correction.Weighted>
   9.000000E+99

> <Gold.Protein.RotatedTorsions>
[ 6907 6896 6895 6894 ] final  -28.86 input  -60.11 | X-H torsion
[ 7974 7965 7964 7962 ] final  100.19 input  175.53 | X-H torsion
[ 8008 7997 7996 7995 ] final -179.04 input   59.86 | X-H torsion
[ 10167 10162 10161 10158 ] final -117.76 input  -65.29 | X-H torsion
[ 10718 10713 10712 10709 ] final -176.40 input   66.30 | X-H torsion
[ 10763 10752 10751 10750 ] final  -36.60 input  -60.55 | X-H torsion
[ 11005 11000 10999 10996 ] final   17.96 input  -57.11 | X-H torsion

> <Gold.Protein.ActiveResidues>
 VAL166  LYS551  ARG553  GLY616  TRP617  ASP618  TYR619  PRO620  LYS621  CYS622 
 ASP623  PHE694  ASN695  SER759  ASP760  ASP761  ALA762  ILE779  LEU786  VAL792 
 PHE793  MET794  SER795  GLU796  ALA797  LYS798  CYS799  TRP800  GLU811  SER814 

> <Gold.Protein.RotatedAtoms>
  151.1272  135.0111  159.8565 H   0  0  0  0  0  0  0  0  0  0  0  0  # atno 6907 bound_to 6896
  152.5450  134.1653  159.8584 H   0  0  0  0  0  0  0  0  0  0  0  0  # atno 6908 bound_to 6896
  151.1716  133.4735  159.2627 H   0  0  0  0  0  0  0  0  0  0  0  0  # atno 6909 bound_to 6896
  145.3889  139.2366  143.3363 H   0  0  0  0  0  0  0  0  0  0  0  0  # atno 7974 bound_to 7965
  156.0258  140.1271  157.0310 H   0  0  0  0  0  0  0  0  0  0  0  0  # atno 8008 bound_to 7997
  154.4330  140.1059  156.6099 H   0  0  0  0  0  0  0  0  0  0  0  0  # atno 8009 bound_to 7997
  155.5878  140.3469  155.4560 H   0  0  0  0  0  0  0  0  0  0  0  0  # atno 8010 bound_to 7997
  140.0648  143.4933  152.2012 H   0  0  0  0  0  0  0  0  0  0  0  0  # atno 10167 bound_to 10162
  156.8141  130.9596  151.3114 H   0  0  0  0  0  0  0  0  0  0  0  0  # atno 10718 bound_to 10713
  153.8824  135.6820  153.4766 H   0  0  0  0  0  0  0  0  0  0  0  0  # atno 10763 bound_to 10752
  153.1226  135.4733  154.9219 H   0  0  0  0  0  0  0  0  0  0  0  0  # atno 10764 bound_to 10752
  154.7662  135.3225  154.8233 H   0  0  0  0  0  0  0  0  0  0  0  0  # atno 10765 bound_to 10752
  140.4302  134.1428  155.7680 H   0  0  0  0  0  0  0  0  0  0  0  0  # atno 11005 bound_to 11000
  146.2807  140.4568  142.8777 LP  0  0  0  0  0  0  0  0  0  0  0  0  # atno 17320 bound_to 7965
  144.8454  140.6922  143.6202 LP  0  0  0  0  0  0  0  0  0  0  0  0  # atno 17321 bound_to 7965
  139.5872  144.7535  151.3492 LP  0  0  0  0  0  0  0  0  0  0  0  0  # atno 17342 bound_to 10162
  140.7154  143.7279  150.7646 LP  0  0  0  0  0  0  0  0  0  0  0  0  # atno 17343 bound_to 10162
  157.6491  130.8869  149.9597 LP  0  0  0  0  0  0  0  0  0  0  0  0  # atno 17370 bound_to 10713
  156.1027  130.3654  150.0189 LP  0  0  0  0  0  0  0  0  0  0  0  0  # atno 17371 bound_to 10713
  141.1749  133.8535  157.1454 LP  0  0  0  0  0  0  0  0  0  0  0  0  # atno 17394 bound_to 11000
  140.0140  134.9976  157.0454 LP  0  0  0  0  0  0  0  0  0  0  0  0  # atno 17395 bound_to 11000

$$$$
