AV-unprocessed.smi:311|AV-procd|sdf|2299|dock9
  -GOLD-   2262022203D 1   1.00000     0.00000
 Structure written by MMmdl.
 44 46  0  0  0  0  0  0  0  0  2 V2000
  149.0845  134.4491  155.0736 C   0  0  0  0  0  0  0  0  0  0  0  0
  149.8579  133.4537  155.8895 C   0  0  0  0  0  0  0  0  0  0  0  0
  150.3091  133.7969  157.0842 N   0  0  0  0  0  0  0  0  0  0  0  0
  150.9828  132.6753  157.5766 O   0  0  0  0  0  0  0  0  0  0  0  0
  150.9075  131.6880  156.6488 C   0  0  0  0  0  0  0  0  0  0  0  0
  151.5854  130.4034  156.9865 C   0  0  0  0  0  0  0  0  0  0  0  0
  150.2064  132.1141  155.5536 C   0  0  0  0  0  0  0  0  0  0  0  0
  149.8860  131.3659  154.2850 C   0  0  0  0  0  0  0  0  0  0  0  0
  148.3692  131.2486  154.1477 C   0  0  0  0  0  0  0  0  0  0  0  0
  147.6896  130.8898  155.1089 O   0  0  0  0  0  0  0  0  0  0  0  0
  147.8500  131.5939  152.9597 N   0  0  0  0  0  0  0  0  0  0  0  0
  146.4250  131.6961  152.6657 C   0  0  2  0  0  0  0  0  0  0  0  0
  145.9625  130.7300  151.5613 C   0  0  0  0  0  0  0  0  0  0  0  0
  144.9107  131.5131  150.7495 C   0  0  0  0  0  0  0  0  0  0  0  0
  144.7695  132.8117  151.4367 N   0  3  2  0  0  0  0  0  0  0  0  0
  144.3002  133.9569  150.6265 C   0  0  0  0  0  0  0  0  0  0  0  0
  144.1443  135.1934  151.5349 C   0  0  0  0  0  0  0  0  0  0  0  0
  145.4335  135.4872  152.3292 C   0  0  0  0  0  0  0  0  0  0  0  0
  145.9238  134.2333  153.0784 C   0  0  0  0  0  0  0  0  0  0  0  0
  146.0631  133.0656  152.0876 C   0  0  1  0  0  0  0  0  0  0  0  0
  149.4168  134.4445  154.0354 H   0  0  0  0  0  0  0  0  0  0  0  0
  149.2056  135.4641  155.4531 H   0  0  0  0  0  0  0  0  0  0  0  0
  148.0200  134.2154  155.0827 H   0  0  0  0  0  0  0  0  0  0  0  0
  151.1065  129.5650  156.4811 H   0  0  0  0  0  0  0  0  0  0  0  0
  151.5508  130.2140  158.0595 H   0  0  0  0  0  0  0  0  0  0  0  0
  152.6311  130.4301  156.6806 H   0  0  0  0  0  0  0  0  0  0  0  0
  150.3006  131.8684  153.4100 H   0  0  0  0  0  0  0  0  0  0  0  0
  150.3165  130.3641  154.2903 H   0  0  0  0  0  0  0  0  0  0  0  0
  148.4895  131.8675  152.2275 H   0  0  0  0  0  0  0  0  0  0  0  0
  145.8277  131.5072  153.5605 H   0  0  0  0  0  0  0  0  0  0  0  0
  146.7906  130.4456  150.9104 H   0  0  0  0  0  0  0  0  0  0  0  0
  145.5505  129.8138  151.9859 H   0  0  0  0  0  0  0  0  0  0  0  0
  145.2638  131.6630  149.7280 H   0  0  0  0  0  0  0  0  0  0  0  0
  143.9516  130.9963  150.7037 H   0  0  0  0  0  0  0  0  0  0  0  0
  145.0101  134.1600  149.8232 H   0  0  0  0  0  0  0  0  0  0  0  0
  143.3461  133.7093  150.1602 H   0  0  0  0  0  0  0  0  0  0  0  0
  143.8667  136.0630  150.9383 H   0  0  0  0  0  0  0  0  0  0  0  0
  143.3235  135.0261  152.2337 H   0  0  0  0  0  0  0  0  0  0  0  0
  146.2112  135.8270  151.6440 H   0  0  0  0  0  0  0  0  0  0  0  0
  145.2642  136.3028  153.0329 H   0  0  0  0  0  0  0  0  0  0  0  0
  146.8797  134.4397  153.5609 H   0  0  0  0  0  0  0  0  0  0  0  0
  145.2210  133.9730  153.8710 H   0  0  0  0  0  0  0  0  0  0  0  0
  146.7913  133.3312  151.3175 H   0  0  0  0  0  0  0  0  0  0  0  0
  144.0995  132.6732  152.1799 H   0  0  0  0  0  0  0  0  0  0  0  0
  1  2  1  0  0  0  0
  1 21  1  0  0  0  0
  1 22  1  0  0  0  0
  1 23  1  0  0  0  0
  2  7  1  0  0  0  0
  2  3  2  0  0  0  0
  3  4  1  0  0  0  0
  4  5  1  0  0  0  0
  5  6  1  0  0  0  0
  5  7  2  0  0  0  0
  6 24  1  0  0  0  0
  6 25  1  0  0  0  0
  6 26  1  0  0  0  0
  7  8  1  0  0  0  0
  8  9  1  0  0  0  0
  8 27  1  0  0  0  0
  8 28  1  0  0  0  0
  9 10  2  0  0  0  0
  9 11  1  0  0  0  0
 11 12  1  0  0  0  0
 11 29  1  0  0  0  0
 12 20  1  0  0  0  0
 12 13  1  0  0  0  0
 12 30  1  0  0  0  0
 13 14  1  0  0  0  0
 13 31  1  0  0  0  0
 13 32  1  0  0  0  0
 14 15  1  0  0  0  0
 14 33  1  0  0  0  0
 14 34  1  0  0  0  0
 15 20  1  0  0  0  0
 15 16  1  0  0  0  0
 15 44  1  0  0  0  0
 16 17  1  0  0  0  0
 16 35  1  0  0  0  0
 16 36  1  0  0  0  0
 17 18  1  0  0  0  0
 17 37  1  0  0  0  0
 17 38  1  0  0  0  0
 18 19  1  0  0  0  0
 18 39  1  0  0  0  0
 18 40  1  0  0  0  0
 19 20  1  0  0  0  0
 19 41  1  0  0  0  0
 19 42  1  0  0  0  0
 20 43  1  0  0  0  0
M  CHG  1  15   1
M  END
> <s_m_source_file>
AV-unprocessed.smi

> <i_m_source_file_index>
311

> <i_lp_mmshare_version>
43012

> <i_f3d_flags>
0

> <s_epik_input>
W0NIM11jMW5vYyhbQ0gzXSljMVtDSDJdQyg9TylbTkhdW0NASF0oW0NIMl1bQ0gyXTIpW0NAQEhdKE4yMylbQ0gyXVtDSDJdW0NIMl1bQ0gyXTM=

> <s_epik_cmdline>
J2VwaWtfcHl0aG9uJywgJy1waCcsICc3LjAnLCAnLXRuJywgJzgnLCAnLW1hJywgJzIwMCcsICctbWV0YWxfYmluZGluZycsICctaW1hZScsICc8aW5maWxlLm1hZT4nLCAnLW9tYWUnLCAnPG91dGZpbGUubWFlPic=

> <r_epik_Ionization_Penalty>
0.00173669

> <r_epik_Ionization_Penalty_Charging>
0.0017366

> <r_epik_Ionization_Penalty_Neutral>
9.2145e-08

> <r_epik_State_Penalty>
0.00117499

> <r_epik_Charging_Adjusted_Penalty>
0.00291159

> <i_epik_Tot_Q>
1

> <i_epik_Tot_abs_Q>
1

> <r_epik_Metal_State_Penalty>
-0

> <b_epik_Metal_Only>
0

> <s_lp_Force_Field>
OPLS_2005

> <r_lp_Energy>
27.517

> <b_lp_Chiralities_Consistent>
1

> <s_lp_Variant>
AV-unprocessed.smi:311-3

> <Gold.Version>
5.8.1

> <Gold.Id.Protein>
6NUR|6NUR_protein|mol2

> <Gold.PLP.Fitness>
38.4451

> <Gold.PLP.PLP>
-32.7315

> <Gold.PLP.part.hbond>
-2.0000

> <Gold.PLP.part.metal>
0.0000

> <Gold.PLP.part.buried>
-4.2822

> <Gold.PLP.part.nonpolar>
-26.7195

> <Gold.PLP.part.repulsive>
0.0453

> <Gold.PLP.ligand.clash>
0.0000

> <Gold.PLP.ligand.torsion>
0.1499

> <Gold.PLP.Chemscore.Hbond>
2.0000

> <Gold.PLP.Chemscore.CHOScore>
0.0000

> <Gold.PLP.Chemscore.Metal>
0.0000

> <Gold.Chemscore.Hbonds>
donor molecule, donor type, donor heavy atom, donor atom, acceptor molecule, acceptor atom, score
      L1  H    11    29       P1 10747  0.30
      P1  H  6896  6907       L1     4  0.80

> <Gold.PLP.Chemscore.Internal.Correction>
0.0134

> <Gold.Rescore>
     Score         DG    S(hbond)    S(metal)    S(lipo)     H(rot)  DE(clash)    DE(int)     intcor
     17.48     -17.79       1.77        0.00      84.37       1.36       0.06       0.25       ----

> <Gold.Chemscore.Fitness>
17.4806

> <Gold.Chemscore.DG>
-17.7873

> <Gold.Chemscore.ZeroCoef>
-5.4800

> <Gold.Chemscore.Hbond>
1.7690

> <Gold.Chemscore.Metal>
0.0000

> <Gold.Chemscore.Lipo>
84.3742

> <Gold.Chemscore.Internal_Hbond>
0.0000

> <Gold.Chemscore.DEClash>
0.0554

> <Gold.Chemscore.DEInternal>
0.2512

> <Gold.Chemscore.Rot>
1.3567

> <Gold.Chemscore.Internal.Correction>
   9.000000E+99

> <Gold.Chemscore.Hbonds>
donor molecule, donor type, donor heavy atom, donor atom, acceptor molecule, acceptor atom, score
      L1  H    11    29       P1 10747  0.29
      P1  H  6896  6907       L1     4  0.12

> <Gold.Chemscore.Hbond.Weighted>
-5.9086

> <Gold.Chemscore.Metal.Weighted>
-0.0000

> <Gold.Chemscore.Lipo.Weighted>
-9.8718

> <Gold.Chemscore.Internal_Hbond.Weighted>
0.0000

> <Gold.Chemscore.DEClash.Weighted>
0.0554

> <Gold.Chemscore.DEInternal.Weighted>
0.2512

> <Gold.Chemscore.Rot.Weighted>
3.4731

> <Gold.Chemscore.Internal.Correction.Weighted>
   9.000000E+99

> <Gold.Protein.RotatedTorsions>
[ 6907 6896 6895 6894 ] final -160.85 input  -60.11 | X-H torsion
[ 7974 7965 7964 7962 ] final  -63.66 input  175.53 | X-H torsion
[ 8008 7997 7996 7995 ] final  -49.78 input   59.86 | X-H torsion
[ 10167 10162 10161 10158 ] final   59.65 input  -65.29 | X-H torsion
[ 10718 10713 10712 10709 ] final  -50.91 input   66.30 | X-H torsion
[ 10763 10752 10751 10750 ] final  -60.55 input  -60.55 | X-H torsion
[ 11005 11000 10999 10996 ] final   14.92 input  -57.11 | X-H torsion

> <Gold.Protein.ActiveResidues>
 VAL166  LYS551  ARG553  GLY616  TRP617  ASP618  TYR619  PRO620  LYS621  CYS622 
 ASP623  PHE694  ASN695  SER759  ASP760  ASP761  ALA762  ILE779  LEU786  VAL792 
 PHE793  MET794  SER795  GLU796  ALA797  LYS798  CYS799  TRP800  GLU811  SER814 

> <Gold.Protein.RotatedAtoms>
  151.3556  133.3909  159.2684 H   0  0  0  0  0  0  0  0  0  0  0  0  # atno 6907 bound_to 6896
  150.9766  134.9130  159.7830 H   0  0  0  0  0  0  0  0  0  0  0  0  # atno 6908 bound_to 6896
  152.5203  134.3519  159.9306 H   0  0  0  0  0  0  0  0  0  0  0  0  # atno 6909 bound_to 6896
  145.7763  140.8786  143.0354 H   0  0  0  0  0  0  0  0  0  0  0  0  # atno 7974 bound_to 7965
  154.4050  140.1288  156.4559 H   0  0  0  0  0  0  0  0  0  0  0  0  # atno 8008 bound_to 7997
  155.7321  140.3491  155.5044 H   0  0  0  0  0  0  0  0  0  0  0  0  # atno 8009 bound_to 7997
  155.9118  140.1037  157.1264 H   0  0  0  0  0  0  0  0  0  0  0  0  # atno 8010 bound_to 7997
  140.1741  144.4247  150.6647 H   0  0  0  0  0  0  0  0  0  0  0  0  # atno 10167 bound_to 10162
  156.1758  130.4150  149.9579 H   0  0  0  0  0  0  0  0  0  0  0  0  # atno 10718 bound_to 10713
  154.2709  135.6290  153.5310 H   0  0  0  0  0  0  0  0  0  0  0  0  # atno 10763 bound_to 10752
  152.9880  135.5610  154.5601 H   0  0  0  0  0  0  0  0  0  0  0  0  # atno 10764 bound_to 10752
  154.5171  135.2880  155.1269 H   0  0  0  0  0  0  0  0  0  0  0  0  # atno 10765 bound_to 10752
  140.4641  134.1097  155.7721 H   0  0  0  0  0  0  0  0  0  0  0  0  # atno 11005 bound_to 11000
  144.6804  139.9926  143.7484 LP  0  0  0  0  0  0  0  0  0  0  0  0  # atno 17320 bound_to 7965
  146.0119  139.3177  143.0865 LP  0  0  0  0  0  0  0  0  0  0  0  0  # atno 17321 bound_to 7965
  140.6563  143.2238  151.5962 LP  0  0  0  0  0  0  0  0  0  0  0  0  # atno 17342 bound_to 10162
  139.5325  144.2876  152.1179 LP  0  0  0  0  0  0  0  0  0  0  0  0  # atno 17343 bound_to 10162
  156.7365  130.9063  151.3629 LP  0  0  0  0  0  0  0  0  0  0  0  0  # atno 17370 bound_to 10713
  157.6834  130.9162  150.0325 LP  0  0  0  0  0  0  0  0  0  0  0  0  # atno 17371 bound_to 10713
  141.1607  133.8797  157.1854 LP  0  0  0  0  0  0  0  0  0  0  0  0  # atno 17394 bound_to 11000
  139.9926  135.0059  157.0010 LP  0  0  0  0  0  0  0  0  0  0  0  0  # atno 17395 bound_to 11000

$$$$
