AV-unprocessed.smi:835|AV-procd|sdf|3888|dock9
  -GOLD-   22720 1343D 1   1.00000     0.00000
 Structure written by MMmdl.
 41 43  0  0  0  0  0  0  0  0  2 V2000
  150.8352  139.5079  154.3114 C   0  0  0  0  0  0  0  0  0  0  0  0
  149.3942  139.7099  153.9460 C   0  0  0  0  0  0  0  0  0  0  0  0
  148.4545  138.7314  153.5088 C   0  0  0  0  0  0  0  0  0  0  0  0
  147.3169  139.4685  153.3231 C   0  0  0  0  0  0  0  0  0  0  0  0
  146.0896  139.0573  152.9063 N   0  0  0  0  0  0  0  0  0  0  0  0
  145.6734  137.8108  152.6222 C   0  0  0  0  0  0  0  0  0  0  0  0
  146.3623  136.7928  152.6900 O   0  0  0  0  0  0  0  0  0  0  0  0
  144.3871  137.8020  152.2448 N   0  0  0  0  0  0  0  0  0  0  0  0
  143.6427  136.6037  151.8719 C   0  0  2  0  0  0  0  0  0  0  0  0
  143.5538  135.5450  152.9746 C   0  0  0  0  0  0  0  0  0  0  0  0
  143.4665  134.2074  152.2196 C   0  0  0  0  0  0  0  0  0  0  0  0
  143.7062  134.5061  150.7884 N   0  3  2  0  0  0  0  0  0  0  0  0
  144.4655  133.4636  150.0665 C   0  0  0  0  0  0  0  0  0  0  0  0
  143.6709  132.7836  148.9773 C   0  0  0  0  0  0  0  0  0  0  0  0
  143.9319  132.0680  150.2851 C   0  0  0  0  0  0  0  0  0  0  0  0
  144.3188  135.8448  150.7347 C   0  0  0  0  0  0  0  0  0  0  0  0
  147.5833  140.7836  153.6333 N   0  0  0  0  0  0  0  0  0  0  0  0
  146.7043  141.9360  153.5924 C   0  0  0  0  0  0  0  0  0  0  0  0
  148.8702  140.9284  154.0166 N   0  0  0  0  0  0  0  0  0  0  0  0
  151.0864  138.4477  154.3517 H   0  0  0  0  0  0  0  0  0  0  0  0
  151.0587  139.9378  155.2882 H   0  0  0  0  0  0  0  0  0  0  0  0
  151.4939  139.9775  153.5806 H   0  0  0  0  0  0  0  0  0  0  0  0
  148.6115  137.6734  153.3632 H   0  0  0  0  0  0  0  0  0  0  0  0
  145.4052  139.7915  152.8003 H   0  0  0  0  0  0  0  0  0  0  0  0
  143.8912  138.6811  152.2154 H   0  0  0  0  0  0  0  0  0  0  0  0
  142.6350  136.8807  151.5548 H   0  0  0  0  0  0  0  0  0  0  0  0
  144.4551  135.5577  153.5893 H   0  0  0  0  0  0  0  0  0  0  0  0
  142.7013  135.7082  153.6348 H   0  0  0  0  0  0  0  0  0  0  0  0
  144.2086  133.5085  152.6084 H   0  0  0  0  0  0  0  0  0  0  0  0
  142.4853  133.7453  152.3321 H   0  0  0  0  0  0  0  0  0  0  0  0
  145.5345  133.6340  149.9478 H   0  0  0  0  0  0  0  0  0  0  0  0
  142.6560  133.1288  148.7869 H   0  0  0  0  0  0  0  0  0  0  0  0
  144.2150  132.4351  148.1018 H   0  0  0  0  0  0  0  0  0  0  0  0
  144.6478  131.2485  150.2698 H   0  0  0  0  0  0  0  0  0  0  0  0
  143.0913  131.9381  150.9644 H   0  0  0  0  0  0  0  0  0  0  0  0
  144.1651  136.3176  149.7641 H   0  0  0  0  0  0  0  0  0  0  0  0
  145.3934  135.7661  150.9110 H   0  0  0  0  0  0  0  0  0  0  0  0
  146.4327  142.1517  152.5591 H   0  0  0  0  0  0  0  0  0  0  0  0
  147.1969  142.8102  154.0200 H   0  0  0  0  0  0  0  0  0  0  0  0
  145.7994  141.7280  154.1635 H   0  0  0  0  0  0  0  0  0  0  0  0
  142.7980  134.5869  150.3539 H   0  0  0  0  0  0  0  0  0  0  0  0
  1  2  1  0  0  0  0
  1 20  1  0  0  0  0
  1 21  1  0  0  0  0
  1 22  1  0  0  0  0
  2 19  2  0  0  0  0
  2  3  1  0  0  0  0
  3  4  2  0  0  0  0
  3 23  1  0  0  0  0
  4  5  1  0  0  0  0
  4 17  1  0  0  0  0
  5  6  1  0  0  0  0
  5 24  1  0  0  0  0
  6  7  2  0  0  0  0
  6  8  1  0  0  0  0
  8  9  1  0  0  0  0
  8 25  1  0  0  0  0
  9 16  1  0  0  0  0
  9 10  1  0  0  0  0
  9 26  1  0  0  0  0
 10 11  1  0  0  0  0
 10 27  1  0  0  0  0
 10 28  1  0  0  0  0
 11 12  1  0  0  0  0
 11 29  1  0  0  0  0
 11 30  1  0  0  0  0
 12 13  1  0  0  0  0
 12 16  1  0  0  0  0
 12 41  1  0  0  0  0
 13 15  1  0  0  0  0
 13 14  1  0  0  0  0
 13 31  1  0  0  0  0
 14 15  1  0  0  0  0
 14 32  1  0  0  0  0
 14 33  1  0  0  0  0
 15 34  1  0  0  0  0
 15 35  1  0  0  0  0
 16 36  1  0  0  0  0
 16 37  1  0  0  0  0
 17 18  1  0  0  0  0
 17 19  1  0  0  0  0
 18 38  1  0  0  0  0
 18 39  1  0  0  0  0
 18 40  1  0  0  0  0
M  CHG  1  12   1
M  END
> <s_m_source_file>
AV-unprocessed.smi

> <i_m_source_file_index>
835

> <i_lp_mmshare_version>
43012

> <i_f3d_flags>
0

> <s_epik_input>
W0NIM11jMVtjSF1jKG4objEpW0NIM10pW05IXUMoPU8pW05IXVtDQEBIXTJbQ0gyXVtDSDJdTihbQ0gyXTIpW0NIXTNbQ0gyXVtDSDJdMw==

> <s_epik_cmdline>
J2VwaWtfcHl0aG9uJywgJy1waCcsICc3LjAnLCAnLXRuJywgJzgnLCAnLW1hJywgJzIwMCcsICctbWV0YWxfYmluZGluZycsICctaW1hZScsICc8aW5maWxlLm1hZT4nLCAnLW9tYWUnLCAnPG91dGZpbGUubWFlPic=

> <r_lp_tautomer_probability>
1

> <r_epik_Ionization_Penalty>
0.000700689

> <r_epik_Ionization_Penalty_Charging>
0.000627528

> <r_epik_Ionization_Penalty_Neutral>
7.31611e-05

> <r_epik_State_Penalty>
0.00039643

> <r_epik_Charging_Adjusted_Penalty>
0.00102396

> <i_epik_Tot_Q>
1

> <i_epik_Tot_abs_Q>
1

> <r_epik_Metal_State_Penalty>
-0

> <b_epik_Metal_Only>
0

> <s_lp_Force_Field>
OPLS_2005

> <r_lp_Energy>
38.0167

> <b_lp_Chiralities_Consistent>
1

> <s_lp_Variant>
AV-unprocessed.smi:835-3

> <Gold.Version>
5.8.1

> <Gold.Id.Protein>
6NUR|6NUR_protein|mol2

> <Gold.PLP.Fitness>
46.7277

> <Gold.PLP.PLP>
-35.0602

> <Gold.PLP.part.hbond>
-3.9991

> <Gold.PLP.part.metal>
0.0000

> <Gold.PLP.part.buried>
-2.8521

> <Gold.PLP.part.nonpolar>
-29.8160

> <Gold.PLP.part.repulsive>
1.5192

> <Gold.PLP.ligand.clash>
0.0000

> <Gold.PLP.ligand.torsion>
0.7983

> <Gold.PLP.Chemscore.Hbond>
4.0000

> <Gold.PLP.Chemscore.CHOScore>
0.0000

> <Gold.PLP.Chemscore.Metal>
0.0000

> <Gold.Chemscore.Hbonds>
donor molecule, donor type, donor heavy atom, donor atom, acceptor molecule, acceptor atom, score
      L1  H     5    24       P1 10175  1.00
      L1  H     8    25       P1 10175  1.00
      L1  H    12    41       P1 10186  2.00

> <Gold.PLP.Chemscore.Internal.Correction>
1.2641

> <Gold.Rescore>
     Score         DG    S(hbond)    S(metal)    S(lipo)     H(rot)  DE(clash)    DE(int)     intcor
     16.24     -20.24       2.66        0.00      76.97       1.22       0.93       3.07       ----

> <Gold.Chemscore.Fitness>
16.2403

> <Gold.Chemscore.DG>
-20.2370

> <Gold.Chemscore.ZeroCoef>
-5.4800

> <Gold.Chemscore.Hbond>
2.6569

> <Gold.Chemscore.Metal>
0.0000

> <Gold.Chemscore.Lipo>
76.9679

> <Gold.Chemscore.Internal_Hbond>
0.0000

> <Gold.Chemscore.DEClash>
0.9284

> <Gold.Chemscore.DEInternal>
3.0684

> <Gold.Chemscore.Rot>
1.2196

> <Gold.Chemscore.Internal.Correction>
   9.000000E+99

> <Gold.Chemscore.Hbonds>
donor molecule, donor type, donor heavy atom, donor atom, acceptor molecule, acceptor atom, score
      L1  H     5    24       P1 10175  0.98
      L1  H     8    25       P1 10175  0.99
      L1  H    12    41       P1 10186  0.49
      P1  H  8011  8017       L1    19  0.02

> <Gold.Chemscore.Hbond.Weighted>
-8.8741

> <Gold.Chemscore.Metal.Weighted>
-0.0000

> <Gold.Chemscore.Lipo.Weighted>
-9.0052

> <Gold.Chemscore.Internal_Hbond.Weighted>
0.0000

> <Gold.Chemscore.DEClash.Weighted>
0.9284

> <Gold.Chemscore.DEInternal.Weighted>
3.0684

> <Gold.Chemscore.Rot.Weighted>
3.1223

> <Gold.Chemscore.Internal.Correction.Weighted>
   9.000000E+99

> <Gold.Protein.RotatedTorsions>
[ 6907 6896 6895 6894 ] final -141.40 input  -60.11 | X-H torsion
[ 7974 7965 7964 7962 ] final  -63.70 input  175.53 | X-H torsion
[ 8008 7997 7996 7995 ] final  -72.51 input   59.86 | X-H torsion
[ 10167 10162 10161 10158 ] final  173.03 input  -65.29 | X-H torsion
[ 10718 10713 10712 10709 ] final  156.69 input   66.30 | X-H torsion
[ 10763 10752 10751 10750 ] final -129.50 input  -60.55 | X-H torsion
[ 11005 11000 10999 10996 ] final   79.52 input  -57.11 | X-H torsion

> <Gold.Protein.ActiveResidues>
 VAL166  LYS551  ARG553  GLY616  TRP617  ASP618  TYR619  PRO620  LYS621  CYS622 
 ASP623  PHE694  ASN695  SER759  ASP760  ASP761  ALA762  ILE779  LEU786  VAL792 
 PHE793  MET794  SER795  GLU796  ALA797  LYS798  CYS799  TRP800  GLU811  SER814 

> <Gold.Protein.RotatedAtoms>
  151.0733  133.5448  159.2625 H   0  0  0  0  0  0  0  0  0  0  0  0  # atno 6907 bound_to 6896
  151.2379  135.0577  159.9023 H   0  0  0  0  0  0  0  0  0  0  0  0  # atno 6908 bound_to 6896
  152.5414  134.0513  159.8165 H   0  0  0  0  0  0  0  0  0  0  0  0  # atno 6909 bound_to 6896
  145.7758  140.8788  143.0356 H   0  0  0  0  0  0  0  0  0  0  0  0  # atno 7974 bound_to 7965
  154.5172  140.0796  156.8103 H   0  0  0  0  0  0  0  0  0  0  0  0  # atno 8008 bound_to 7997
  155.3655  140.3420  155.4223 H   0  0  0  0  0  0  0  0  0  0  0  0  # atno 8009 bound_to 7997
  156.1640  140.1598  156.8550 H   0  0  0  0  0  0  0  0  0  0  0  0  # atno 8010 bound_to 7997
  139.5095  144.3307  152.0114 H   0  0  0  0  0  0  0  0  0  0  0  0  # atno 10167 bound_to 10162
  157.2016  131.0677  151.2022 H   0  0  0  0  0  0  0  0  0  0  0  0  # atno 10718 bound_to 10713
  154.8757  135.3893  154.3930 H   0  0  0  0  0  0  0  0  0  0  0  0  # atno 10763 bound_to 10752
  153.4663  135.7029  153.6025 H   0  0  0  0  0  0  0  0  0  0  0  0  # atno 10764 bound_to 10752
  153.4502  135.3836  155.2247 H   0  0  0  0  0  0  0  0  0  0  0  0  # atno 10765 bound_to 10752
  139.9169  134.7849  156.1790 H   0  0  0  0  0  0  0  0  0  0  0  0  # atno 11005 bound_to 11000
  144.6805  139.9919  143.7484 LP  0  0  0  0  0  0  0  0  0  0  0  0  # atno 17320 bound_to 7965
  146.0124  139.3181  143.0862 LP  0  0  0  0  0  0  0  0  0  0  0  0  # atno 17321 bound_to 7965
  140.2747  144.3926  150.6139 LP  0  0  0  0  0  0  0  0  0  0  0  0  # atno 17342 bound_to 10162
  140.6063  143.2168  151.6975 LP  0  0  0  0  0  0  0  0  0  0  0  0  # atno 17343 bound_to 10162
  157.3762  130.7207  149.6598 LP  0  0  0  0  0  0  0  0  0  0  0  0  # atno 17370 bound_to 10713
  155.9700  130.4185  150.4331 LP  0  0  0  0  0  0  0  0  0  0  0  0  # atno 17371 bound_to 10713
  141.0654  133.6822  156.2034 LP  0  0  0  0  0  0  0  0  0  0  0  0  # atno 17394 bound_to 11000
  140.6593  134.4984  157.5582 LP  0  0  0  0  0  0  0  0  0  0  0  0  # atno 17395 bound_to 11000

$$$$
