AV-unprocessed.smi:12|AV-procd|sdf|67|dock6
  -GOLD-   2262015183D 1   1.00000     0.00000
 Structure written by MMmdl.
 41 44  0  0  0  0  0  0  0  0  1 V2000
  151.6940  139.2150  158.4575 C   0  0  0  0  0  0  0  0  0  0  0  0
  151.0393  139.7269  157.1871 C   0  0  0  0  0  0  0  0  0  0  0  0
  149.7839  140.2343  157.1872 C   0  0  0  0  0  0  0  0  0  0  0  0
  149.2389  140.6764  156.0142 N   0  0  0  0  0  0  0  0  0  0  0  0
  149.9919  140.6096  154.8248 C   0  0  0  0  0  0  0  0  0  0  0  0
  151.1969  140.1379  154.7405 N   0  0  0  0  0  0  0  0  0  0  0  0
  151.8055  139.6606  155.9172 C   0  0  0  0  0  0  0  0  0  0  0  0
  152.9467  139.2020  155.8881 O   0  0  0  0  0  0  0  0  0  0  0  0
  149.2479  141.1229  153.8087 O   0  0  0  0  0  0  0  0  0  0  0  0
  147.9931  141.6183  154.3083 C   0  0  1  0  0  0  0  0  0  0  0  0
  146.8025  140.8587  153.7392 C   0  0  1  0  0  0  0  0  0  0  0  0
  146.9622  140.5708  152.3645 O   0  0  0  0  0  0  0  0  0  0  0  0
  146.7132  139.6361  154.6521 C   0  0  2  0  0  0  0  0  0  0  0  0
  145.3437  138.9450  154.6622 C   0  0  0  0  0  0  0  0  0  0  0  0
  145.3391  137.8898  153.7142 O   0  0  0  0  0  0  0  0  0  0  0  0
  144.2366  137.1337  153.5489 C   0  0  0  0  0  0  0  0  0  0  0  0
  143.1789  137.3289  154.1510 O   0  0  0  0  0  0  0  0  0  0  0  0
  144.4308  136.0347  152.5590 C   0  0  0  0  0  0  0  0  0  0  0  0
  143.4883  134.9814  152.4995 C   0  0  0  0  0  0  0  0  0  0  0  0
  143.6447  133.9301  151.5754 C   0  0  0  0  0  0  0  0  0  0  0  0
  144.7452  133.9195  150.6989 C   0  0  0  0  0  0  0  0  0  0  0  0
  145.6895  134.9614  150.7478 C   0  0  0  0  0  0  0  0  0  0  0  0
  145.5353  136.0136  151.6716 C   0  0  0  0  0  0  0  0  0  0  0  0
  146.9637  140.2204  155.9274 O   0  0  0  0  0  0  0  0  0  0  0  0
  147.9063  141.2484  155.8058 C   0  0  1  0  0  0  0  0  0  0  0  0
  151.0311  139.3212  159.3167 H   0  0  0  0  0  0  0  0  0  0  0  0
  152.6081  139.7716  158.6666 H   0  0  0  0  0  0  0  0  0  0  0  0
  151.9482  138.1594  158.3554 H   0  0  0  0  0  0  0  0  0  0  0  0
  149.2054  140.2902  158.0980 H   0  0  0  0  0  0  0  0  0  0  0  0
  147.9186  142.6972  154.1665 H   0  0  0  0  0  0  0  0  0  0  0  0
  145.9039  141.4651  153.8630 H   0  0  0  0  0  0  0  0  0  0  0  0
  147.8814  140.4355  152.1906 H   0  0  0  0  0  0  0  0  0  0  0  0
  147.5053  138.9194  154.4280 H   0  0  0  0  0  0  0  0  0  0  0  0
  145.1422  138.5371  155.6536 H   0  0  0  0  0  0  0  0  0  0  0  0
  144.5539  139.6626  154.4358 H   0  0  0  0  0  0  0  0  0  0  0  0
  142.6351  134.9677  153.1623 H   0  0  0  0  0  0  0  0  0  0  0  0
  142.9191  133.1310  151.5394 H   0  0  0  0  0  0  0  0  0  0  0  0
  144.8646  133.1132  149.9903 H   0  0  0  0  0  0  0  0  0  0  0  0
  146.5347  134.9542  150.0755 H   0  0  0  0  0  0  0  0  0  0  0  0
  146.2790  136.7972  151.6818 H   0  0  0  0  0  0  0  0  0  0  0  0
  147.8072  142.0716  156.5140 H   0  0  0  0  0  0  0  0  0  0  0  0
  1  2  1  0  0  0  0
  1 26  1  0  0  0  0
  1 27  1  0  0  0  0
  1 28  1  0  0  0  0
  2  7  1  0  0  0  0
  2  3  2  0  0  0  0
  3  4  1  0  0  0  0
  3 29  1  0  0  0  0
  4 25  1  0  0  0  0
  4  5  1  0  0  0  0
  5  6  2  0  0  0  0
  5  9  1  0  0  0  0
  6  7  1  0  0  0  0
  7  8  2  0  0  0  0
  9 10  1  0  0  0  0
 10 25  1  0  0  0  0
 10 11  1  0  0  0  0
 10 30  1  0  0  0  0
 11 12  1  0  0  0  0
 11 13  1  0  0  0  0
 11 31  1  0  0  0  0
 12 32  1  0  0  0  0
 13 14  1  0  0  0  0
 13 24  1  0  0  0  0
 13 33  1  0  0  0  0
 14 15  1  0  0  0  0
 14 34  1  0  0  0  0
 14 35  1  0  0  0  0
 15 16  1  0  0  0  0
 16 17  2  0  0  0  0
 16 18  1  0  0  0  0
 18 23  1  0  0  0  0
 18 19  2  0  0  0  0
 19 20  1  0  0  0  0
 19 36  1  0  0  0  0
 20 21  2  0  0  0  0
 20 37  1  0  0  0  0
 21 22  1  0  0  0  0
 21 38  1  0  0  0  0
 22 23  2  0  0  0  0
 22 39  1  0  0  0  0
 23 40  1  0  0  0  0
 24 25  1  0  0  0  0
 25 41  1  0  0  0  0
M  END
> <s_m_source_file>
AV-unprocessed.smi

> <i_m_source_file_index>
12

> <i_lp_mmshare_version>
43012

> <i_f3d_flags>
0

> <s_epik_input>
W0NIM11jKFtjSF0xKWMoPU8pbmMobjEyKU9bQ0BIXTNbQ0BASF0yT1tDQEBIXShbQ0BASF0zW09IXSlbQ0gyXU9DKD1PKWM0W2NIXVtjSF1bY0hdW2NIXVtjSF00

> <s_epik_cmdline>
J2VwaWtfcHl0aG9uJywgJy1waCcsICc3LjAnLCAnLXRuJywgJzgnLCAnLW1hJywgJzIwMCcsICctbWV0YWxfYmluZGluZycsICctaW1hZScsICc8aW5maWxlLm1hZT4nLCAnLW9tYWUnLCAnPG91dGZpbGUubWFlPic=

> <r_lp_tautomer_probability>
0.933681

> <r_epik_Ionization_Penalty>
0.00399549

> <r_epik_Ionization_Penalty_Charging>
3.09373e-09

> <r_epik_Ionization_Penalty_Neutral>
0.00399549

> <r_epik_State_Penalty>
0.00284953

> <r_epik_Charging_Adjusted_Penalty>
0.00284953

> <i_epik_Tot_Q>
0

> <i_epik_Tot_abs_Q>
0

> <r_epik_Metal_State_Penalty>
-0

> <b_epik_Metal_Only>
0

> <s_epik_Chemistry_Notes>
This compound has an ester and may undergo hydrolysis at high or low pH. This compound contains an acetal/aminal-like group ( X-CH(R)-Y where X, Y are N, S, or O) that may be acid/base labile, releasing an aldehyde.

> <s_lp_Force_Field>
OPLS_2005

> <r_lp_Energy>
46.3609

> <b_lp_Chiralities_Consistent>
1

> <s_lp_Variant>
AV-unprocessed.smi:12-7

> <Gold.Version>
5.8.1

> <Gold.Id.Protein>
6NUR|6NUR_protein|mol2

> <Gold.PLP.Fitness>
45.3514

> <Gold.PLP.PLP>
-34.9229

> <Gold.PLP.part.hbond>
-5.0897

> <Gold.PLP.part.metal>
0.0000

> <Gold.PLP.part.buried>
-4.1874

> <Gold.PLP.part.nonpolar>
-27.1897

> <Gold.PLP.part.repulsive>
2.1434

> <Gold.PLP.ligand.clash>
0.0000

> <Gold.PLP.ligand.torsion>
0.4810

> <Gold.PLP.Chemscore.Hbond>
3.7911

> <Gold.PLP.Chemscore.CHOScore>
0.0000

> <Gold.PLP.Chemscore.Metal>
0.0000

> <Gold.Chemscore.Hbonds>
donor molecule, donor type, donor heavy atom, donor atom, acceptor molecule, acceptor atom, score
      L1  H    12    32       P1  7957  1.00
      P1  H  7989  7998       L1     6  0.90
      P1  H  7997  8009       L1     8  1.00
      P1  H  8011  8017       L1     9  0.90

> <Gold.PLP.Chemscore.Internal.Correction>
0.0172

> <Gold.Rescore>
     Score         DG    S(hbond)    S(metal)    S(lipo)     H(rot)  DE(clash)    DE(int)     intcor
     15.82     -17.87       3.25        0.00      60.81       2.18       1.59       0.46       ----

> <Gold.Chemscore.Fitness>
15.8205

> <Gold.Chemscore.DG>
-17.8662

> <Gold.Chemscore.ZeroCoef>
-5.4800

> <Gold.Chemscore.Hbond>
3.2490

> <Gold.Chemscore.Metal>
0.0000

> <Gold.Chemscore.Lipo>
60.8134

> <Gold.Chemscore.Internal_Hbond>
0.0000

> <Gold.Chemscore.DEClash>
1.5851

> <Gold.Chemscore.DEInternal>
0.4606

> <Gold.Chemscore.Rot>
2.1800

> <Gold.Chemscore.Internal.Correction>
   9.000000E+99

> <Gold.Chemscore.Hbonds>
donor molecule, donor type, donor heavy atom, donor atom, acceptor molecule, acceptor atom, score
      L1  H    12    32       P1  7957  0.93
      P1  H  7989  7998       L1     6  0.19
      P1  H  7997  8009       L1     8  1.00
      P1  H  8011  8017       L1     9  0.46

> <Gold.Chemscore.Hbond.Weighted>
-10.8518

> <Gold.Chemscore.Metal.Weighted>
-0.0000

> <Gold.Chemscore.Lipo.Weighted>
-7.1152

> <Gold.Chemscore.Internal_Hbond.Weighted>
0.0000

> <Gold.Chemscore.DEClash.Weighted>
1.5851

> <Gold.Chemscore.DEInternal.Weighted>
0.4606

> <Gold.Chemscore.Rot.Weighted>
5.5807

> <Gold.Chemscore.Internal.Correction.Weighted>
   9.000000E+99

> <Gold.Protein.RotatedTorsions>
[ 6907 6896 6895 6894 ] final   51.25 input  -60.11 | X-H torsion
[ 7974 7965 7964 7962 ] final    0.08 input  175.53 | X-H torsion
[ 8008 7997 7996 7995 ] final -157.26 input   59.86 | X-H torsion
[ 10167 10162 10161 10158 ] final   57.68 input  -65.29 | X-H torsion
[ 10718 10713 10712 10709 ] final  172.29 input   66.30 | X-H torsion
[ 10763 10752 10751 10750 ] final   94.29 input  -60.55 | X-H torsion
[ 11005 11000 10999 10996 ] final  -39.79 input  -57.11 | X-H torsion

> <Gold.Protein.ActiveResidues>
 VAL166  LYS551  ARG553  GLY616  TRP617  ASP618  TYR619  PRO620  LYS621  CYS622 
 ASP623  PHE694  ASN695  SER759  ASP760  ASP761  ALA762  ILE779  LEU786  VAL792 
 PHE793  MET794  SER795  GLU796  ALA797  LYS798  CYS799  TRP800  GLU811  SER814 

> <Gold.Protein.RotatedAtoms>
  152.3106  134.7502  160.0337 H   0  0  0  0  0  0  0  0  0  0  0  0  # atno 6907 bound_to 6896
  151.7984  133.3362  159.3528 H   0  0  0  0  0  0  0  0  0  0  0  0  # atno 6908 bound_to 6896
  150.7318  134.5707  159.5933 H   0  0  0  0  0  0  0  0  0  0  0  0  # atno 6909 bound_to 6896
  146.2431  140.1192  142.8341 H   0  0  0  0  0  0  0  0  0  0  0  0  # atno 7974 bound_to 7965
  155.7298  140.0800  157.2294 H   0  0  0  0  0  0  0  0  0  0  0  0  # atno 8008 bound_to 7997
  154.4034  140.1597  156.2550 H   0  0  0  0  0  0  0  0  0  0  0  0  # atno 8009 bound_to 7997
  155.9120  140.3403  155.6108 H   0  0  0  0  0  0  0  0  0  0  0  0  # atno 8010 bound_to 7997
  140.1954  144.4043  150.6552 H   0  0  0  0  0  0  0  0  0  0  0  0  # atno 10167 bound_to 10162
  156.9811  131.0119  151.2881 H   0  0  0  0  0  0  0  0  0  0  0  0  # atno 10718 bound_to 10713
  153.2400  135.4295  155.0687 H   0  0  0  0  0  0  0  0  0  0  0  0  # atno 10763 bound_to 10752
  154.8336  135.3400  154.6663 H   0  0  0  0  0  0  0  0  0  0  0  0  # atno 10764 bound_to 10752
  153.7087  135.7024  153.5099 H   0  0  0  0  0  0  0  0  0  0  0  0  # atno 10765 bound_to 10752
  141.0127  133.6900  156.2234 H   0  0  0  0  0  0  0  0  0  0  0  0  # atno 11005 bound_to 11000
  145.0421  140.8953  143.5046 LP  0  0  0  0  0  0  0  0  0  0  0  0  # atno 17320 bound_to 7965
  145.1274  139.2654  143.5557 LP  0  0  0  0  0  0  0  0  0  0  0  0  # atno 17321 bound_to 7965
  140.6427  143.2207  151.6254 LP  0  0  0  0  0  0  0  0  0  0  0  0  # atno 17342 bound_to 10162
  139.5239  144.3120  152.0984 LP  0  0  0  0  0  0  0  0  0  0  0  0  # atno 17343 bound_to 10162
  157.5525  130.8192  149.8163 LP  0  0  0  0  0  0  0  0  0  0  0  0  # atno 17370 bound_to 10713
  156.0244  130.3784  150.1866 LP  0  0  0  0  0  0  0  0  0  0  0  0  # atno 17371 bound_to 10713
  140.6706  134.4872  157.5587 LP  0  0  0  0  0  0  0  0  0  0  0  0  # atno 17394 bound_to 11000
  139.9099  134.8367  156.1566 LP  0  0  0  0  0  0  0  0  0  0  0  0  # atno 17395 bound_to 11000

$$$$
