AV-unprocessed.smi:3263|AV-procd|sdf|12488|dock6
  -GOLD-   2272018383D 1   1.00000     0.00000
 Structure written by MMmdl.
 41 43  0  0  0  0  0  0  0  0  1 V2000
  154.1795  139.9680  159.0468 O   0  0  0  0  0  0  0  0  0  0  0  0
  153.0618  140.4636  159.1905 C   0  0  0  0  0  0  0  0  0  0  0  0
  152.7737  141.3970  160.3712 C   0  0  0  0  0  0  0  0  0  0  0  0
  152.8760  142.8957  160.0080 C   0  0  2  0  0  0  0  0  0  0  0  0
  152.1775  143.8425  161.0144 C   0  0  0  0  0  0  0  0  0  0  0  0
  151.2141  144.6491  160.1252 C   0  0  1  0  0  0  0  0  0  0  0  0
  152.0202  145.5937  159.2145 C   0  0  0  0  0  0  0  0  0  0  0  0
  152.6524  144.6254  158.1971 C   0  0  0  0  0  0  0  0  0  0  0  0
  152.1577  143.2500  158.6851 C   0  0  2  0  0  0  0  0  0  0  0  0
  150.7412  143.5860  159.1426 C   0  0  0  0  0  0  0  0  0  0  0  0
  152.0417  140.2357  158.3492 N   0  0  0  0  0  0  0  0  0  0  0  0
  152.1027  139.3782  157.1716 C   0  0  0  0  0  0  0  0  0  0  0  0
  152.0189  140.1952  155.8717 C   0  0  0  0  0  0  0  0  0  0  0  0
  150.6069  140.6687  155.5835 C   0  0  0  0  0  0  0  0  0  0  0  0
  149.8117  141.2294  156.6058 C   0  0  0  0  0  0  0  0  0  0  0  0
  148.5105  141.6608  156.2830 C   0  0  0  0  0  0  0  0  0  0  0  0
  148.0574  141.5174  154.9574 C   0  0  0  0  0  0  0  0  0  0  0  0
  148.9293  140.9454  154.0096 C   0  0  0  0  0  0  0  0  0  0  0  0
  150.1784  140.5279  154.3085 N   0  0  0  0  0  0  0  0  0  0  0  0
  151.7673  141.1777  160.7290 H   0  0  0  0  0  0  0  0  0  0  0  0
  153.4486  141.1625  161.1954 H   0  0  0  0  0  0  0  0  0  0  0  0
  153.9322  143.1578  159.9230 H   0  0  0  0  0  0  0  0  0  0  0  0
  151.6138  143.2843  161.7631 H   0  0  0  0  0  0  0  0  0  0  0  0
  152.8867  144.4799  161.5437 H   0  0  0  0  0  0  0  0  0  0  0  0
  150.4205  145.1483  160.6817 H   0  0  0  0  0  0  0  0  0  0  0  0
  151.3640  146.3045  158.7105 H   0  0  0  0  0  0  0  0  0  0  0  0
  152.7683  146.1618  159.7687 H   0  0  0  0  0  0  0  0  0  0  0  0
  152.2838  144.8336  157.1918 H   0  0  0  0  0  0  0  0  0  0  0  0
  153.7406  144.6962  158.1726 H   0  0  0  0  0  0  0  0  0  0  0  0
  152.2237  142.4737  157.9222 H   0  0  0  0  0  0  0  0  0  0  0  0
  150.2245  142.7528  159.6212 H   0  0  0  0  0  0  0  0  0  0  0  0
  150.1113  143.9838  158.3450 H   0  0  0  0  0  0  0  0  0  0  0  0
  151.1581  140.6852  158.5404 H   0  0  0  0  0  0  0  0  0  0  0  0
  153.0155  138.7801  157.1893 H   0  0  0  0  0  0  0  0  0  0  0  0
  151.2707  138.6756  157.2245 H   0  0  0  0  0  0  0  0  0  0  0  0
  152.6770  141.0634  155.9319 H   0  0  0  0  0  0  0  0  0  0  0  0
  152.3734  139.6006  155.0286 H   0  0  0  0  0  0  0  0  0  0  0  0
  150.1887  141.3291  157.6133 H   0  0  0  0  0  0  0  0  0  0  0  0
  147.8720  142.0945  157.0387 H   0  0  0  0  0  0  0  0  0  0  0  0
  147.0661  141.8382  154.6738 H   0  0  0  0  0  0  0  0  0  0  0  0
  148.6155  140.8205  152.9838 H   0  0  0  0  0  0  0  0  0  0  0  0
  1  2  2  0  0  0  0
  2  3  1  0  0  0  0
  2 11  1  0  0  0  0
  3  4  1  0  0  0  0
  3 20  1  0  0  0  0
  3 21  1  0  0  0  0
  4  9  1  0  0  0  0
  4  5  1  0  0  0  0
  4 22  1  0  0  0  0
  5  6  1  0  0  0  0
  5 23  1  0  0  0  0
  5 24  1  0  0  0  0
  6 10  1  0  0  0  0
  6  7  1  0  0  0  0
  6 25  1  0  0  0  0
  7  8  1  0  0  0  0
  7 26  1  0  0  0  0
  7 27  1  0  0  0  0
  8  9  1  0  0  0  0
  8 28  1  0  0  0  0
  8 29  1  0  0  0  0
  9 10  1  0  0  0  0
  9 30  1  0  0  0  0
 10 31  1  0  0  0  0
 10 32  1  0  0  0  0
 11 12  1  0  0  0  0
 11 33  1  0  0  0  0
 12 13  1  0  0  0  0
 12 34  1  0  0  0  0
 12 35  1  0  0  0  0
 13 14  1  0  0  0  0
 13 36  1  0  0  0  0
 13 37  1  0  0  0  0
 14 19  1  0  0  0  0
 14 15  2  0  0  0  0
 15 16  1  0  0  0  0
 15 38  1  0  0  0  0
 16 17  2  0  0  0  0
 16 39  1  0  0  0  0
 17 18  1  0  0  0  0
 17 40  1  0  0  0  0
 18 19  2  0  0  0  0
 18 41  1  0  0  0  0
M  END
> <s_m_source_file>
AV-unprocessed.smi

> <i_m_source_file_index>
3263

> <i_lp_mmshare_version>
43012

> <i_f3d_flags>
0

> <s_epik_input>
W0NIMl0xW0NIMl1bQ0BASF0oW0NIMl0yKVtDQEBIXShbQ0gyXVtDQEhdMTIpW0NIMl1DKD1PKVtOSF1bQ0gyXVtDSDJdYzNbY0hdW2NIXVtjSF1bY0hdbjM=

> <s_epik_cmdline>
J2VwaWtfcHl0aG9uJywgJy1waCcsICc3LjAnLCAnLXRuJywgJzgnLCAnLW1hJywgJzIwMCcsICctbWV0YWxfYmluZGluZycsICctaW1hZScsICc8aW5maWxlLm1hZT4nLCAnLW9tYWUnLCAnPG91dGZpbGUubWFlPic=

> <r_epik_Ionization_Penalty>
0.0273541

> <r_epik_Ionization_Penalty_Charging>
0

> <r_epik_Ionization_Penalty_Neutral>
0.0273541

> <r_epik_State_Penalty>
0.0223838

> <r_epik_Charging_Adjusted_Penalty>
0.0223838

> <i_epik_Tot_Q>
0

> <i_epik_Tot_abs_Q>
0

> <r_epik_Metal_State_Penalty>
0.0213927

> <b_epik_Metal_Only>
0

> <s_lp_Force_Field>
OPLS_2005

> <r_lp_Energy>
45.3245

> <b_lp_Chiralities_Consistent>
1

> <s_lp_Variant>
AV-unprocessed.smi:3263-3

> <Gold.Version>
5.8.1

> <Gold.Id.Protein>
6NUR|6NUR_protein|mol2

> <Gold.PLP.Fitness>
54.0288

> <Gold.PLP.PLP>
-46.8428

> <Gold.PLP.part.hbond>
-2.0000

> <Gold.PLP.part.metal>
0.0000

> <Gold.PLP.part.buried>
-3.4386

> <Gold.PLP.part.nonpolar>
-41.7303

> <Gold.PLP.part.repulsive>
0.2254

> <Gold.PLP.ligand.clash>
0.0015

> <Gold.PLP.ligand.torsion>
0.7440

> <Gold.PLP.Chemscore.Hbond>
1.8800

> <Gold.PLP.Chemscore.CHOScore>
1.0000

> <Gold.PLP.Chemscore.Metal>
0.0000

> <Gold.Chemscore.Hbonds>
donor molecule, donor type, donor heavy atom, donor atom, acceptor molecule, acceptor atom, score
      P1  H  7989  7998       L1    19  0.85
      P1  H  7997  8008       L1     1  1.00
      L1  C    18    41       P1  7957  1.00

> <Gold.PLP.Chemscore.Internal.Correction>
0.0354

> <Gold.Rescore>
     Score         DG    S(hbond)    S(metal)    S(lipo)     H(rot)  DE(clash)    DE(int)     intcor
     19.70     -21.63       1.25        0.00     134.23       1.46       0.12       1.81       ----

> <Gold.Chemscore.Fitness>
19.7035

> <Gold.Chemscore.DG>
-21.6300

> <Gold.Chemscore.ZeroCoef>
-5.4800

> <Gold.Chemscore.Hbond>
1.2488

> <Gold.Chemscore.Metal>
0.0000

> <Gold.Chemscore.Lipo>
134.2306

> <Gold.Chemscore.Internal_Hbond>
0.0000

> <Gold.Chemscore.DEClash>
0.1214

> <Gold.Chemscore.DEInternal>
1.8051

> <Gold.Chemscore.Rot>
1.4555

> <Gold.Chemscore.Internal.Correction>
   9.000000E+99

> <Gold.Chemscore.Hbonds>
donor molecule, donor type, donor heavy atom, donor atom, acceptor molecule, acceptor atom, score
      P1  H  7989  7998       L1    19  0.22
      P1  H  7997  8008       L1     1  0.93

> <Gold.Chemscore.Hbond.Weighted>
-4.1710

> <Gold.Chemscore.Metal.Weighted>
-0.0000

> <Gold.Chemscore.Lipo.Weighted>
-15.7050

> <Gold.Chemscore.Internal_Hbond.Weighted>
0.0000

> <Gold.Chemscore.DEClash.Weighted>
0.1214

> <Gold.Chemscore.DEInternal.Weighted>
1.8051

> <Gold.Chemscore.Rot.Weighted>
3.7260

> <Gold.Chemscore.Internal.Correction.Weighted>
   9.000000E+99

> <Gold.Protein.RotatedTorsions>
[ 6907 6896 6895 6894 ] final  -55.97 input  -60.11 | X-H torsion
[ 7974 7965 7964 7962 ] final  -77.81 input  175.53 | X-H torsion
[ 8008 7997 7996 7995 ] final -114.97 input   59.86 | X-H torsion
[ 10167 10162 10161 10158 ] final   61.06 input  -65.29 | X-H torsion
[ 10718 10713 10712 10709 ] final   90.06 input   66.30 | X-H torsion
[ 10763 10752 10751 10750 ] final  158.64 input  -60.55 | X-H torsion
[ 11005 11000 10999 10996 ] final   30.14 input  -57.11 | X-H torsion

> <Gold.Protein.ActiveResidues>
 VAL166  LYS551  ARG553  GLY616  TRP617  ASP618  TYR619  PRO620  LYS621  CYS622 
 ASP623  PHE694  ASN695  SER759  ASP760  ASP761  ALA762  ILE779  LEU786  VAL792 
 PHE793  MET794  SER795  GLU796  ALA797  LYS798  CYS799  TRP800  GLU811  SER814 

> <Gold.Protein.RotatedAtoms>
  150.8207  134.7412  159.6768 H   0  0  0  0  0  0  0  0  0  0  0  0  # atno 6907 bound_to 6896
  152.4322  134.5752  159.9942 H   0  0  0  0  0  0  0  0  0  0  0  0  # atno 6908 bound_to 6896
  151.5937  133.3326  159.3069 H   0  0  0  0  0  0  0  0  0  0  0  0  # atno 6909 bound_to 6896
  145.5948  140.9422  143.1273 H   0  0  0  0  0  0  0  0  0  0  0  0  # atno 7974 bound_to 7965
  155.0447  140.0392  157.2522 H   0  0  0  0  0  0  0  0  0  0  0  0  # atno 8008 bound_to 7997
  154.7187  140.2707  155.6537 H   0  0  0  0  0  0  0  0  0  0  0  0  # atno 8009 bound_to 7997
  156.2810  140.2707  156.1852 H   0  0  0  0  0  0  0  0  0  0  0  0  # atno 8010 bound_to 7997
  140.1588  144.4390  150.6720 H   0  0  0  0  0  0  0  0  0  0  0  0  # atno 10167 bound_to 10162
  157.6958  131.0356  150.3520 H   0  0  0  0  0  0  0  0  0  0  0  0  # atno 10718 bound_to 10713
  154.2192  135.2783  155.2931 H   0  0  0  0  0  0  0  0  0  0  0  0  # atno 10763 bound_to 10752
  154.5715  135.5617  153.7103 H   0  0  0  0  0  0  0  0  0  0  0  0  # atno 10764 bound_to 10752
  153.0045  135.6322  154.2332 H   0  0  0  0  0  0  0  0  0  0  0  0  # atno 10765 bound_to 10752
  140.2975  134.2794  155.7761 H   0  0  0  0  0  0  0  0  0  0  0  0  # atno 11005 bound_to 11000
  144.7335  139.7653  143.7338 LP  0  0  0  0  0  0  0  0  0  0  0  0  # atno 17320 bound_to 7965
  146.1620  139.4738  142.9982 LP  0  0  0  0  0  0  0  0  0  0  0  0  # atno 17321 bound_to 7965
  140.6656  143.2267  151.5751 LP  0  0  0  0  0  0  0  0  0  0  0  0  # atno 17342 bound_to 10162
  139.5391  144.2699  152.1313 LP  0  0  0  0  0  0  0  0  0  0  0  0  # atno 17343 bound_to 10162
  156.3967  130.3908  149.6990 LP  0  0  0  0  0  0  0  0  0  0  0  0  # atno 17370 bound_to 10713
  156.4321  130.7820  151.2840 LP  0  0  0  0  0  0  0  0  0  0  0  0  # atno 17371 bound_to 10713
  141.2134  133.7624  156.9717 LP  0  0  0  0  0  0  0  0  0  0  0  0  # atno 17394 bound_to 11000
  140.1139  134.9459  157.2106 LP  0  0  0  0  0  0  0  0  0  0  0  0  # atno 17395 bound_to 11000

$$$$
