AV-unprocessed.smi:2954|AV-procd|sdf|11300|dock2
  -GOLD-   2272016193D 1   1.00000     0.00000
 Structure written by MMmdl.
 43 45  0  0  0  0  0  0  0  0  2 V2000
  150.2882  132.0024  154.2691 C   0  0  0  0  0  0  0  0  0  0  0  0
  149.3285  133.2006  154.3063 C   0  0  1  0  0  0  0  0  0  0  0  0
  150.0803  134.4241  154.0455 N   0  0  0  0  0  0  0  0  0  0  0  0
  151.1310  134.8362  154.7643 C   0  0  0  0  0  0  0  0  0  0  0  0
  151.5669  134.2155  155.7302 O   0  0  0  0  0  0  0  0  0  0  0  0
  148.2034  133.0030  153.3311 C   0  0  0  0  0  0  0  0  0  0  0  0
  147.7277  133.9304  152.4499 N   0  3  0  0  0  0  0  0  0  0  0  0
  146.7075  133.3748  151.6782 C   0  0  0  0  0  0  0  0  0  0  0  0
  145.9308  133.9240  150.6627 C   0  0  0  0  0  0  0  0  0  0  0  0
  144.9732  133.0751  150.0697 C   0  0  0  0  0  0  0  0  0  0  0  0
  144.8182  131.7374  150.4883 C   0  0  0  0  0  0  0  0  0  0  0  0
  145.6122  131.1924  151.5187 C   0  0  0  0  0  0  0  0  0  0  0  0
  146.5532  132.0399  152.1029 C   0  0  0  0  0  0  0  0  0  0  0  0
  147.4886  131.8566  153.1274 N   0  0  0  0  0  0  0  0  0  0  0  0
  147.5737  130.5464  153.7920 C   0  0  0  0  0  0  0  0  0  0  0  0
  148.4274  129.5326  153.0136 C   0  0  0  0  0  0  0  0  0  0  0  0
  148.2169  128.2259  153.5324 O   0  0  0  0  0  0  0  0  0  0  0  0
  148.1966  127.1699  152.6456 C   0  0  0  0  0  0  0  0  0  0  0  0
  148.3446  127.3161  151.2423 C   0  0  0  0  0  0  0  0  0  0  0  0
  148.3229  126.1885  150.3992 C   0  0  0  0  0  0  0  0  0  0  0  0
  148.1526  124.9027  150.9435 C   0  0  0  0  0  0  0  0  0  0  0  0
  148.0020  124.7463  152.3333 C   0  0  0  0  0  0  0  0  0  0  0  0
  148.0235  125.8730  153.1788 C   0  0  0  0  0  0  0  0  0  0  0  0
  147.8171  125.6540  154.8789 Cl  0  0  0  0  0  0  0  0  0  0  0  0
  149.7734  131.0734  154.5149 H   0  0  0  0  0  0  0  0  0  0  0  0
  151.0993  132.1260  154.9875 H   0  0  0  0  0  0  0  0  0  0  0  0
  150.7341  131.8814  153.2811 H   0  0  0  0  0  0  0  0  0  0  0  0
  148.8987  133.2595  155.3083 H   0  0  0  0  0  0  0  0  0  0  0  0
  149.7781  134.9977  153.2715 H   0  0  0  0  0  0  0  0  0  0  0  0
  151.5417  135.7852  154.3875 H   0  0  0  0  0  0  0  0  0  0  0  0
  146.0496  134.9475  150.3384 H   0  0  0  0  0  0  0  0  0  0  0  0
  144.3466  133.4573  149.2769 H   0  0  0  0  0  0  0  0  0  0  0  0
  144.0757  131.1159  150.0088 H   0  0  0  0  0  0  0  0  0  0  0  0
  145.4871  130.1661  151.8296 H   0  0  0  0  0  0  0  0  0  0  0  0
  147.9566  130.6891  154.8032 H   0  0  0  0  0  0  0  0  0  0  0  0
  146.5604  130.1602  153.8977 H   0  0  0  0  0  0  0  0  0  0  0  0
  148.1561  129.5543  151.9575 H   0  0  0  0  0  0  0  0  0  0  0  0
  149.4782  129.8141  153.0927 H   0  0  0  0  0  0  0  0  0  0  0  0
  148.4822  128.2846  150.7865 H   0  0  0  0  0  0  0  0  0  0  0  0
  148.4393  126.3107  149.3323 H   0  0  0  0  0  0  0  0  0  0  0  0
  148.1362  124.0383  150.2963 H   0  0  0  0  0  0  0  0  0  0  0  0
  147.8677  123.7593  152.7509 H   0  0  0  0  0  0  0  0  0  0  0  0
  148.0808  134.8765  152.3849 H   0  0  0  0  0  0  0  0  0  0  0  0
  1  2  1  0  0  0  0
  1 25  1  0  0  0  0
  1 26  1  0  0  0  0
  1 27  1  0  0  0  0
  2  3  1  0  0  0  0
  2  6  1  0  0  0  0
  2 28  1  0  0  0  0
  3  4  1  0  0  0  0
  3 29  1  0  0  0  0
  4  5  2  0  0  0  0
  4 30  1  0  0  0  0
  6 14  1  0  0  0  0
  6  7  2  0  0  0  0
  7  8  1  0  0  0  0
  7 43  1  0  0  0  0
  8 13  2  0  0  0  0
  8  9  1  0  0  0  0
  9 10  2  0  0  0  0
  9 31  1  0  0  0  0
 10 11  1  0  0  0  0
 10 32  1  0  0  0  0
 11 12  2  0  0  0  0
 11 33  1  0  0  0  0
 12 13  1  0  0  0  0
 12 34  1  0  0  0  0
 13 14  1  0  0  0  0
 14 15  1  0  0  0  0
 15 16  1  0  0  0  0
 15 35  1  0  0  0  0
 15 36  1  0  0  0  0
 16 17  1  0  0  0  0
 16 37  1  0  0  0  0
 16 38  1  0  0  0  0
 17 18  1  0  0  0  0
 18 23  1  0  0  0  0
 18 19  2  0  0  0  0
 19 20  1  0  0  0  0
 19 39  1  0  0  0  0
 20 21  2  0  0  0  0
 20 40  1  0  0  0  0
 21 22  1  0  0  0  0
 21 41  1  0  0  0  0
 22 23  2  0  0  0  0
 22 42  1  0  0  0  0
 23 24  1  0  0  0  0
M  CHG  1   7   1
M  END
> <s_m_source_file>
AV-unprocessed.smi

> <i_m_source_file_index>
2954

> <i_lp_mmshare_version>
43012

> <i_f3d_flags>
0

> <s_epik_input>
Tz1bQ0hdW05IXVtDQEBIXShbQ0gzXSljKG4xKW4oYyhjMTIpW2NIXVtjSF1bY0hdW2NIXTIpW0NIMl1bQ0gyXU9jM1tjSF1bY0hdW2NIXVtjSF1jM0Ns

> <s_epik_cmdline>
J2VwaWtfcHl0aG9uJywgJy1waCcsICc3LjAnLCAnLXRuJywgJzgnLCAnLW1hJywgJzIwMCcsICctbWV0YWxfYmluZGluZycsICctaW1hZScsICc8aW5maWxlLm1hZT4nLCAnLW9tYWUnLCAnPG91dGZpbGUubWFlPic=

> <r_lp_tautomer_probability>
1

> <r_epik_Ionization_Penalty>
1.18508

> <r_epik_Ionization_Penalty_Charging>
1.18508

> <r_epik_Ionization_Penalty_Neutral>
5.5802e-08

> <r_epik_State_Penalty>
1.24934

> <r_epik_Charging_Adjusted_Penalty>
2.43443

> <i_epik_Tot_Q>
1

> <i_epik_Tot_abs_Q>
1

> <r_epik_Metal_State_Penalty>
1.32564

> <b_epik_Metal_Only>
0

> <s_lp_Force_Field>
OPLS_2005

> <r_lp_Energy>
18.4095

> <b_lp_Chiralities_Consistent>
1

> <s_lp_Variant>
AV-unprocessed.smi:2954-4

> <Gold.Version>
5.8.1

> <Gold.Id.Protein>
6NUR|6NUR_protein|mol2

> <Gold.PLP.Fitness>
50.0740

> <Gold.PLP.PLP>
-44.0052

> <Gold.PLP.part.hbond>
-2.0000

> <Gold.PLP.part.metal>
0.0000

> <Gold.PLP.part.buried>
-5.8810

> <Gold.PLP.part.nonpolar>
-36.6326

> <Gold.PLP.part.repulsive>
0.1316

> <Gold.PLP.ligand.clash>
0.0000

> <Gold.PLP.ligand.torsion>
0.9653

> <Gold.PLP.Chemscore.Hbond>
2.6320

> <Gold.PLP.Chemscore.CHOScore>
0.0000

> <Gold.PLP.Chemscore.Metal>
0.0000

> <Gold.Chemscore.Hbonds>
donor molecule, donor type, donor heavy atom, donor atom, acceptor molecule, acceptor atom, score
      L1  H     3    29       P1  7948  0.10
      L1  H     7    43       P1  7948  2.00

> <Gold.PLP.Chemscore.Internal.Correction>
0.1035

> <Gold.Rescore>
     Score         DG    S(hbond)    S(metal)    S(lipo)     H(rot)  DE(clash)    DE(int)     intcor
     15.44     -17.34       1.38        0.00     113.35       2.35       1.05       0.85       ----

> <Gold.Chemscore.Fitness>
15.4372

> <Gold.Chemscore.DG>
-17.3381

> <Gold.Chemscore.ZeroCoef>
-5.4800

> <Gold.Chemscore.Hbond>
1.3784

> <Gold.Chemscore.Metal>
0.0000

> <Gold.Chemscore.Lipo>
113.3495

> <Gold.Chemscore.Internal_Hbond>
0.0000

> <Gold.Chemscore.DEClash>
1.0500

> <Gold.Chemscore.DEInternal>
0.8509

> <Gold.Chemscore.Rot>
2.3467

> <Gold.Chemscore.Internal.Correction>
   9.000000E+99

> <Gold.Chemscore.Hbonds>
donor molecule, donor type, donor heavy atom, donor atom, acceptor molecule, acceptor atom, score
      L1  H     7    43       P1  7948  0.65

> <Gold.Chemscore.Hbond.Weighted>
-4.6039

> <Gold.Chemscore.Metal.Weighted>
-0.0000

> <Gold.Chemscore.Lipo.Weighted>
-13.2619

> <Gold.Chemscore.Internal_Hbond.Weighted>
0.0000

> <Gold.Chemscore.DEClash.Weighted>
1.0500

> <Gold.Chemscore.DEInternal.Weighted>
0.8509

> <Gold.Chemscore.Rot.Weighted>
6.0077

> <Gold.Chemscore.Internal.Correction.Weighted>
   9.000000E+99

> <Gold.Protein.RotatedTorsions>
[ 6907 6896 6895 6894 ] final  -68.57 input  -60.11 | X-H torsion
[ 7974 7965 7964 7962 ] final   -1.91 input  175.53 | X-H torsion
[ 8008 7997 7996 7995 ] final  113.84 input   59.86 | X-H torsion
[ 10167 10162 10161 10158 ] final  156.03 input  -65.29 | X-H torsion
[ 10718 10713 10712 10709 ] final -140.22 input   66.30 | X-H torsion
[ 10763 10752 10751 10750 ] final  -29.99 input  -60.55 | X-H torsion
[ 11005 11000 10999 10996 ] final  -46.18 input  -57.11 | X-H torsion

> <Gold.Protein.ActiveResidues>
 VAL166  LYS551  ARG553  GLY616  TRP617  ASP618  TYR619  PRO620  LYS621  CYS622 
 ASP623  PHE694  ASN695  SER759  ASP760  ASP761  ALA762  ILE779  LEU786  VAL792 
 PHE793  MET794  SER795  GLU796  ALA797  LYS798  CYS799  TRP800  GLU811  SER814 

> <Gold.Protein.RotatedAtoms>
  150.7349  134.5721  159.5895 H   0  0  0  0  0  0  0  0  0  0  0  0  # atno 6907 bound_to 6896
  152.3157  134.7440  160.0335 H   0  0  0  0  0  0  0  0  0  0  0  0  # atno 6908 bound_to 6896
  151.7973  133.3330  159.3553 H   0  0  0  0  0  0  0  0  0  0  0  0  # atno 6909 bound_to 6896
  146.2411  140.1492  142.8334 H   0  0  0  0  0  0  0  0  0  0  0  0  # atno 7974 bound_to 7965
  156.2283  140.2971  156.0124 H   0  0  0  0  0  0  0  0  0  0  0  0  # atno 8008 bound_to 7997
  155.2294  140.0418  157.2977 H   0  0  0  0  0  0  0  0  0  0  0  0  # atno 8009 bound_to 7997
  154.5953  140.2412  155.7873 H   0  0  0  0  0  0  0  0  0  0  0  0  # atno 8010 bound_to 7997
  139.4821  144.5046  151.8118 H   0  0  0  0  0  0  0  0  0  0  0  0  # atno 10167 bound_to 10162
  156.3198  130.7528  151.1623 H   0  0  0  0  0  0  0  0  0  0  0  0  # atno 10718 bound_to 10713
  153.7736  135.6910  153.4902 H   0  0  0  0  0  0  0  0  0  0  0  0  # atno 10763 bound_to 10752
  153.1858  135.4489  155.0085 H   0  0  0  0  0  0  0  0  0  0  0  0  # atno 10764 bound_to 10752
  154.8108  135.3377  154.7244 H   0  0  0  0  0  0  0  0  0  0  0  0  # atno 10765 bound_to 10752
  141.0563  133.6725  156.3119 H   0  0  0  0  0  0  0  0  0  0  0  0  # atno 11005 bound_to 11000
  145.0182  140.8771  143.5183 LP  0  0  0  0  0  0  0  0  0  0  0  0  # atno 17320 bound_to 7965
  145.1536  139.2500  143.5428 LP  0  0  0  0  0  0  0  0  0  0  0  0  # atno 17321 bound_to 7965
  140.4542  144.1812  150.5900 LP  0  0  0  0  0  0  0  0  0  0  0  0  # atno 17342 bound_to 10162
  140.4553  143.2470  151.9293 LP  0  0  0  0  0  0  0  0  0  0  0  0  # atno 17343 bound_to 10162
  157.7409  131.0511  150.5133 LP  0  0  0  0  0  0  0  0  0  0  0  0  # atno 17370 bound_to 10713
  156.5284  130.4179  149.6214 LP  0  0  0  0  0  0  0  0  0  0  0  0  # atno 17371 bound_to 10713
  140.5958  134.5605  157.5508 LP  0  0  0  0  0  0  0  0  0  0  0  0  # atno 17394 bound_to 11000
  139.9393  134.7817  156.0721 LP  0  0  0  0  0  0  0  0  0  0  0  0  # atno 17395 bound_to 11000

$$$$
