AV-unprocessed.smi:6|AV-procd|sdf|42|dock5
  -GOLD-   2262015153D 1   1.00000     0.00000
 Structure written by MMmdl.
 37 38  0  0  0  0  0  0  0  0  3 V2000
  151.8720  144.2856  157.6154 C   0  0  0  0  0  0  0  0  0  0  0  0
  151.4263  142.9199  158.1597 C   0  0  0  0  0  0  0  0  0  0  0  0
  152.4085  142.3324  159.1845 C   0  0  0  0  0  0  0  0  0  0  0  0
  151.1129  141.9351  157.0422 C   0  0  0  0  0  0  0  0  0  0  0  0
  150.2107  142.2774  156.1080 N   0  3  0  0  0  0  0  0  0  0  0  0
  149.9175  141.4110  155.1078 C   0  0  0  0  0  0  0  0  0  0  0  0
  150.5518  140.1567  155.0435 C   0  0  0  0  0  0  0  0  0  0  0  0
  151.4881  139.8634  156.0498 C   0  0  0  0  0  0  0  0  0  0  0  0
  152.1480  138.6283  156.0391 N   0  0  0  0  0  0  0  0  0  0  0  0
  151.8850  137.6952  154.9501 C   0  0  0  0  0  0  0  0  0  0  0  0
  151.3783  136.3446  155.4336 C   0  0  0  0  0  0  0  0  0  0  0  0
  150.2522  135.7820  154.9474 C   0  0  0  0  0  0  0  0  0  0  0  0
  149.7700  134.5457  155.4073 N   0  0  0  0  0  0  0  0  0  0  0  0
  148.5420  134.0138  154.8113 C   0  0  0  0  0  0  0  0  0  0  0  0
  150.4398  133.8672  156.3816 C   0  0  0  0  0  0  0  0  0  0  0  0
  149.9977  132.7819  156.7605 O   0  0  0  0  0  0  0  0  0  0  0  0
  151.5782  134.4198  156.9013 N   0  5  0  0  0  0  0  0  0  0  0  0
  152.0869  135.6197  156.4951 C   0  0  0  0  0  0  0  0  0  0  0  0
  153.1079  136.1008  156.9863 O   0  0  0  0  0  0  0  0  0  0  0  0
  151.7493  140.7548  157.0318 N   0  0  0  0  0  0  0  0  0  0  0  0
  151.1222  144.7042  156.9436 H   0  0  0  0  0  0  0  0  0  0  0  0
  152.8089  144.2079  157.0626 H   0  0  0  0  0  0  0  0  0  0  0  0
  152.0247  144.9995  158.4253 H   0  0  0  0  0  0  0  0  0  0  0  0
  150.4927  143.0958  158.6970 H   0  0  0  0  0  0  0  0  0  0  0  0
  152.0271  141.4015  159.6050 H   0  0  0  0  0  0  0  0  0  0  0  0
  152.5735  143.0241  160.0109 H   0  0  0  0  0  0  0  0  0  0  0  0
  153.3782  142.1212  158.7320 H   0  0  0  0  0  0  0  0  0  0  0  0
  149.1839  141.7499  154.3911 H   0  0  0  0  0  0  0  0  0  0  0  0
  150.3297  139.4543  154.2531 H   0  0  0  0  0  0  0  0  0  0  0  0
  152.3661  138.2178  156.9364 H   0  0  0  0  0  0  0  0  0  0  0  0
  151.1496  138.1265  154.2694 H   0  0  0  0  0  0  0  0  0  0  0  0
  152.8008  137.5434  154.3772 H   0  0  0  0  0  0  0  0  0  0  0  0
  149.6542  136.2455  154.1764 H   0  0  0  0  0  0  0  0  0  0  0  0
  147.7945  133.8168  155.5811 H   0  0  0  0  0  0  0  0  0  0  0  0
  148.7481  133.0780  154.2898 H   0  0  0  0  0  0  0  0  0  0  0  0
  148.0941  134.6995  154.0915 H   0  0  0  0  0  0  0  0  0  0  0  0
  149.7426  143.1835  156.1435 H   0  0  0  0  0  0  0  0  0  0  0  0
  1  2  1  0  0  0  0
  1 21  1  0  0  0  0
  1 22  1  0  0  0  0
  1 23  1  0  0  0  0
  2  3  1  0  0  0  0
  2  4  1  0  0  0  0
  2 24  1  0  0  0  0
  3 25  1  0  0  0  0
  3 26  1  0  0  0  0
  3 27  1  0  0  0  0
  4 20  1  0  0  0  0
  4  5  2  0  0  0  0
  5  6  1  0  0  0  0
  5 37  1  0  0  0  0
  6  7  2  0  0  0  0
  6 28  1  0  0  0  0
  7  8  1  0  0  0  0
  7 29  1  0  0  0  0
  8  9  1  0  0  0  0
  8 20  2  0  0  0  0
  9 10  1  0  0  0  0
  9 30  1  0  0  0  0
 10 11  1  0  0  0  0
 10 31  1  0  0  0  0
 10 32  1  0  0  0  0
 11 18  1  0  0  0  0
 11 12  2  0  0  0  0
 12 13  1  0  0  0  0
 12 33  1  0  0  0  0
 13 14  1  0  0  0  0
 13 15  1  0  0  0  0
 14 34  1  0  0  0  0
 14 35  1  0  0  0  0
 14 36  1  0  0  0  0
 15 16  2  0  0  0  0
 15 17  1  0  0  0  0
 17 18  1  0  0  0  0
 18 19  2  0  0  0  0
M  CHG  1   5   1
M  CHG  1  17  -1
M  END
> <s_m_source_file>
AV-unprocessed.smi

> <i_m_source_file_index>
6

> <i_lp_mmshare_version>
43012

> <i_f3d_flags>
0

> <s_epik_input>
W0NIM11bQ0hdKFtDSDNdKWMxbltjSF1bY0hdYyhuMSlbTkhdW0NIMl1jMltjSF1uKFtDSDNdKWMoPU8pW25IXWMyPU8=

> <s_epik_cmdline>
J2VwaWtfcHl0aG9uJywgJy1waCcsICc3LjAnLCAnLXRuJywgJzgnLCAnLW1hJywgJzIwMCcsICctbWV0YWxfYmluZGluZycsICctaW1hZScsICc8aW5maWxlLm1hZT4nLCAnLW9tYWUnLCAnPG91dGZpbGUubWFlPic=

> <r_lp_tautomer_probability>
0.998874

> <r_epik_Ionization_Penalty>
4.8157

> <r_epik_Ionization_Penalty_Charging>
0.866709

> <r_epik_Ionization_Penalty_Neutral>
3.94899

> <r_epik_State_Penalty>
4.49389

> <r_epik_Charging_Adjusted_Penalty>
5.3606

> <i_epik_Tot_Q>
0

> <i_epik_Tot_abs_Q>
2

> <r_epik_Metal_State_Penalty>
1.28929

> <b_epik_Metal_Only>
1

> <s_lp_Force_Field>
OPLS_2005

> <r_lp_Energy>
16.1184

> <b_lp_Chiralities_Consistent>
1

> <s_lp_Variant>
AV-unprocessed.smi:6-4

> <Gold.Version>
5.8.1

> <Gold.Id.Protein>
6NUR|6NUR_protein|mol2

> <Gold.PLP.Fitness>
43.2120

> <Gold.PLP.PLP>
-31.5642

> <Gold.PLP.part.hbond>
-3.0000

> <Gold.PLP.part.metal>
0.0000

> <Gold.PLP.part.buried>
-4.2244

> <Gold.PLP.part.nonpolar>
-25.7436

> <Gold.PLP.part.repulsive>
0.2362

> <Gold.PLP.ligand.clash>
0.0000

> <Gold.PLP.ligand.torsion>
0.1152

> <Gold.PLP.Chemscore.Hbond>
2.9325

> <Gold.PLP.Chemscore.CHOScore>
1.0000

> <Gold.PLP.Chemscore.Metal>
0.0000

> <Gold.Chemscore.Hbonds>
donor molecule, donor type, donor heavy atom, donor atom, acceptor molecule, acceptor atom, score
      L1  H     5    37       P1  8028  2.00
      L1  C    12    33       P1  7948  1.00

> <Gold.PLP.Chemscore.Internal.Correction>
0.0806

> <Gold.Rescore>
     Score         DG    S(hbond)    S(metal)    S(lipo)     H(rot)  DE(clash)    DE(int)     intcor
     12.49     -14.10       1.58        0.00      64.68       1.65       0.00       1.60       ----

> <Gold.Chemscore.Fitness>
12.4924

> <Gold.Chemscore.DG>
-14.0976

> <Gold.Chemscore.ZeroCoef>
-5.4800

> <Gold.Chemscore.Hbond>
1.5773

> <Gold.Chemscore.Metal>
0.0000

> <Gold.Chemscore.Lipo>
64.6777

> <Gold.Chemscore.Internal_Hbond>
0.0000

> <Gold.Chemscore.DEClash>
0.0021

> <Gold.Chemscore.DEInternal>
1.6030

> <Gold.Chemscore.Rot>
1.6477

> <Gold.Chemscore.Internal.Correction>
   9.000000E+99

> <Gold.Chemscore.Hbonds>
donor molecule, donor type, donor heavy atom, donor atom, acceptor molecule, acceptor atom, score
      L1  H     5    37       P1  8028  1.00

> <Gold.Chemscore.Hbond.Weighted>
-5.2683

> <Gold.Chemscore.Metal.Weighted>
-0.0000

> <Gold.Chemscore.Lipo.Weighted>
-7.5673

> <Gold.Chemscore.Internal_Hbond.Weighted>
0.0000

> <Gold.Chemscore.DEClash.Weighted>
0.0021

> <Gold.Chemscore.DEInternal.Weighted>
1.6030

> <Gold.Chemscore.Rot.Weighted>
4.2180

> <Gold.Chemscore.Internal.Correction.Weighted>
   9.000000E+99

> <Gold.Protein.RotatedTorsions>
[ 6907 6896 6895 6894 ] final   -4.05 input  -60.11 | X-H torsion
[ 7974 7965 7964 7962 ] final -171.59 input  175.53 | X-H torsion
[ 8008 7997 7996 7995 ] final -173.30 input   59.86 | X-H torsion
[ 10167 10162 10161 10158 ] final -146.82 input  -65.29 | X-H torsion
[ 10718 10713 10712 10709 ] final   54.02 input   66.30 | X-H torsion
[ 10763 10752 10751 10750 ] final  120.71 input  -60.55 | X-H torsion
[ 11005 11000 10999 10996 ] final   79.49 input  -57.11 | X-H torsion

> <Gold.Protein.ActiveResidues>
 VAL166  LYS551  ARG553  GLY616  TRP617  ASP618  TYR619  PRO620  LYS621  CYS622 
 ASP623  PHE694  ASN695  SER759  ASP760  ASP761  ALA762  ILE779  LEU786  VAL792 
 PHE793  MET794  SER795  GLU796  ALA797  LYS798  CYS799  TRP800  GLU811  SER814 

> <Gold.Protein.RotatedAtoms>
  151.5040  135.1063  159.9836 H   0  0  0  0  0  0  0  0  0  0  0  0  # atno 6907 bound_to 6896
  152.4690  133.7982  159.6949 H   0  0  0  0  0  0  0  0  0  0  0  0  # atno 6908 bound_to 6896
  150.8688  133.7472  159.2993 H   0  0  0  0  0  0  0  0  0  0  0  0  # atno 6909 bound_to 6896
  144.7155  140.1899  143.6349 H   0  0  0  0  0  0  0  0  0  0  0  0  # atno 7974 bound_to 7965
  155.9557  140.1135  157.0939 H   0  0  0  0  0  0  0  0  0  0  0  0  # atno 8008 bound_to 7997
  154.4120  140.1192  156.5178 H   0  0  0  0  0  0  0  0  0  0  0  0  # atno 8009 bound_to 7997
  155.6786  140.3473  155.4848 H   0  0  0  0  0  0  0  0  0  0  0  0  # atno 8010 bound_to 7997
  139.7678  143.8282  152.2619 H   0  0  0  0  0  0  0  0  0  0  0  0  # atno 10167 bound_to 10162
  157.5219  130.8571  149.8570 H   0  0  0  0  0  0  0  0  0  0  0  0  # atno 10718 bound_to 10713
  153.6028  135.3445  155.2951 H   0  0  0  0  0  0  0  0  0  0  0  0  # atno 10763 bound_to 10752
  154.8633  135.4231  154.2394 H   0  0  0  0  0  0  0  0  0  0  0  0  # atno 10764 bound_to 10752
  153.3227  135.7039  153.7088 H   0  0  0  0  0  0  0  0  0  0  0  0  # atno 10765 bound_to 10752
  139.9170  134.7847  156.1786 H   0  0  0  0  0  0  0  0  0  0  0  0  # atno 11005 bound_to 11000
  145.8778  139.2306  143.1623 LP  0  0  0  0  0  0  0  0  0  0  0  0  # atno 17320 bound_to 7965
  146.0024  140.8509  143.0012 LP  0  0  0  0  0  0  0  0  0  0  0  0  # atno 17321 bound_to 7965
  139.8307  144.7255  150.9454 LP  0  0  0  0  0  0  0  0  0  0  0  0  # atno 17342 bound_to 10162
  140.7812  143.4072  151.1051 LP  0  0  0  0  0  0  0  0  0  0  0  0  # atno 17343 bound_to 10162
  156.0359  130.3751  150.1561 LP  0  0  0  0  0  0  0  0  0  0  0  0  # atno 17370 bound_to 10713
  156.9748  130.9846  151.3451 LP  0  0  0  0  0  0  0  0  0  0  0  0  # atno 17371 bound_to 10713
  141.0656  133.6821  156.2038 LP  0  0  0  0  0  0  0  0  0  0  0  0  # atno 17394 bound_to 11000
  140.6590  134.4987  157.5582 LP  0  0  0  0  0  0  0  0  0  0  0  0  # atno 17395 bound_to 11000

$$$$
