AV-unprocessed.smi:3010|AV-procd|sdf|11455|dock8
  -GOLD-   2272016393D 1   1.00000     0.00000
 Structure written by MMmdl.
 38 40  0  0  0  0  0  0  0  0  1 V2000
  154.6303  139.7088  159.9988 C   0  0  0  0  0  0  0  0  0  0  0  0
  153.6687  140.8269  160.0295 N   0  0  0  0  0  0  0  0  0  0  0  0
  152.8154  140.9767  158.9678 C   0  0  0  0  0  0  0  0  0  0  0  0
  152.7836  140.2445  157.9776 O   0  0  0  0  0  0  0  0  0  0  0  0
  151.9064  142.1186  159.0959 C   0  0  0  0  0  0  0  0  0  0  0  0
  151.9078  142.9475  160.1671 C   0  0  0  0  0  0  0  0  0  0  0  0
  150.9499  143.9467  160.0360 N   0  0  0  0  0  0  0  0  0  0  0  0
  150.4068  143.6566  158.8525 C   0  0  0  0  0  0  0  0  0  0  0  0
  150.9224  142.5800  158.2243 N   0  0  0  0  0  0  0  0  0  0  0  0
  150.5132  142.0540  156.9313 C   0  0  0  0  0  0  0  0  0  0  0  0
  149.2602  141.1602  157.0203 C   0  0  2  0  0  0  0  0  0  0  0  0
  149.6410  139.7979  157.0621 O   0  0  0  0  0  0  0  0  0  0  0  0
  148.2938  141.4550  155.8839 C   0  0  0  0  0  0  0  0  0  0  0  0
  148.6562  141.1471  154.5550 C   0  0  0  0  0  0  0  0  0  0  0  0
  147.7637  141.4082  153.4969 C   0  0  0  0  0  0  0  0  0  0  0  0
  146.5025  141.9756  153.7621 C   0  0  0  0  0  0  0  0  0  0  0  0
  146.1332  142.2805  155.0862 C   0  0  0  0  0  0  0  0  0  0  0  0
  147.0254  142.0198  156.1445 C   0  0  0  0  0  0  0  0  0  0  0  0
  152.8307  142.7028  161.2139 N   0  0  0  0  0  0  0  0  0  0  0  0
  152.8032  143.6198  162.3570 C   0  0  0  0  0  0  0  0  0  0  0  0
  153.7098  141.6486  161.1441 C   0  0  0  0  0  0  0  0  0  0  0  0
  154.5170  141.4406  162.0540 O   0  0  0  0  0  0  0  0  0  0  0  0
  154.5573  139.0639  159.1226 H   0  0  0  0  0  0  0  0  0  0  0  0
  154.4933  139.0634  160.8681 H   0  0  0  0  0  0  0  0  0  0  0  0
  155.6531  140.0886  160.0217 H   0  0  0  0  0  0  0  0  0  0  0  0
  149.6103  144.2487  158.4260 H   0  0  0  0  0  0  0  0  0  0  0  0
  150.3391  142.8924  156.2564 H   0  0  0  0  0  0  0  0  0  0  0  0
  151.3468  141.4917  156.5076 H   0  0  0  0  0  0  0  0  0  0  0  0
  148.7464  141.3619  157.9607 H   0  0  0  0  0  0  0  0  0  0  0  0
  150.0530  139.5777  156.2405 H   0  0  0  0  0  0  0  0  0  0  0  0
  149.6200  140.7075  154.3423 H   0  0  0  0  0  0  0  0  0  0  0  0
  148.0465  141.1718  152.4817 H   0  0  0  0  0  0  0  0  0  0  0  0
  145.8180  142.1750  152.9507 H   0  0  0  0  0  0  0  0  0  0  0  0
  145.1650  142.7131  155.2909 H   0  0  0  0  0  0  0  0  0  0  0  0
  146.7310  142.2527  157.1574 H   0  0  0  0  0  0  0  0  0  0  0  0
  153.5337  143.3943  163.1343 H   0  0  0  0  0  0  0  0  0  0  0  0
  151.8177  143.6014  162.8236 H   0  0  0  0  0  0  0  0  0  0  0  0
  152.9935  144.6392  162.0199 H   0  0  0  0  0  0  0  0  0  0  0  0
  1  2  1  0  0  0  0
  1 23  1  0  0  0  0
  1 24  1  0  0  0  0
  1 25  1  0  0  0  0
  2 21  1  0  0  0  0
  2  3  1  0  0  0  0
  3  4  2  0  0  0  0
  3  5  1  0  0  0  0
  5  9  1  0  0  0  0
  5  6  2  0  0  0  0
  6  7  1  0  0  0  0
  6 19  1  0  0  0  0
  7  8  2  0  0  0  0
  8  9  1  0  0  0  0
  8 26  1  0  0  0  0
  9 10  1  0  0  0  0
 10 11  1  0  0  0  0
 10 27  1  0  0  0  0
 10 28  1  0  0  0  0
 11 12  1  0  0  0  0
 11 13  1  0  0  0  0
 11 29  1  0  0  0  0
 12 30  1  0  0  0  0
 13 18  1  0  0  0  0
 13 14  2  0  0  0  0
 14 15  1  0  0  0  0
 14 31  1  0  0  0  0
 15 16  2  0  0  0  0
 15 32  1  0  0  0  0
 16 17  1  0  0  0  0
 16 33  1  0  0  0  0
 17 18  2  0  0  0  0
 17 34  1  0  0  0  0
 18 35  1  0  0  0  0
 19 20  1  0  0  0  0
 19 21  1  0  0  0  0
 20 36  1  0  0  0  0
 20 37  1  0  0  0  0
 20 38  1  0  0  0  0
 21 22  2  0  0  0  0
M  END
> <s_m_source_file>
AV-unprocessed.smi

> <i_m_source_file_index>
3010

> <i_lp_mmshare_version>
43012

> <i_f3d_flags>
0

> <s_epik_input>
Tz1jMW4oW0NIM10pYyg9TyluKFtDSDNdKWMoYzEyKW5bY0hdbjJbQ0gyXVtDQEhdKFtPSF0pYzNbY0hdW2NIXVtjSF1bY0hdW2NIXTM=

> <s_epik_cmdline>
J2VwaWtfcHl0aG9uJywgJy1waCcsICc3LjAnLCAnLXRuJywgJzgnLCAnLW1hJywgJzIwMCcsICctbWV0YWxfYmluZGluZycsICctaW1hZScsICc8aW5maWxlLm1hZT4nLCAnLW9tYWUnLCAnPG91dGZpbGUubWFlPic=

> <r_lp_tautomer_probability>
1

> <r_epik_Ionization_Penalty>
1.43747e-06

> <r_epik_Ionization_Penalty_Charging>
3.74189e-09

> <r_epik_Ionization_Penalty_Neutral>
1.43373e-06

> <r_epik_State_Penalty>
-0

> <r_epik_Charging_Adjusted_Penalty>
3.74189e-09

> <i_epik_Tot_Q>
0

> <i_epik_Tot_abs_Q>
0

> <r_epik_Metal_State_Penalty>
-0

> <b_epik_Metal_Only>
0

> <s_lp_Force_Field>
OPLS_2005

> <r_lp_Energy>
35.6617

> <b_lp_Chiralities_Consistent>
1

> <s_lp_Variant>
AV-unprocessed.smi:3010-1

> <Gold.Version>
5.8.1

> <Gold.Id.Protein>
6NUR|6NUR_protein|mol2

> <Gold.PLP.Fitness>
49.0153

> <Gold.PLP.PLP>
-45.8043

> <Gold.PLP.part.hbond>
-2.0000

> <Gold.PLP.part.metal>
0.0000

> <Gold.PLP.part.buried>
-5.8736

> <Gold.PLP.part.nonpolar>
-37.7234

> <Gold.PLP.part.repulsive>
0.0935

> <Gold.PLP.ligand.clash>
0.0000

> <Gold.PLP.ligand.torsion>
0.9248

> <Gold.PLP.Chemscore.Hbond>
0.9600

> <Gold.PLP.Chemscore.CHOScore>
0.7192

> <Gold.PLP.Chemscore.Metal>
0.0000

> <Gold.Chemscore.Hbonds>
donor molecule, donor type, donor heavy atom, donor atom, acceptor molecule, acceptor atom, score
      P1  H  7997  8009       L1     4  0.96
      L1  C     8    26       P1  8028  0.09
      L1  C     8    26       P1  8029  0.63

> <Gold.PLP.Chemscore.Internal.Correction>
0.0231

> <Gold.Rescore>
     Score         DG    S(hbond)    S(metal)    S(lipo)     H(rot)  DE(clash)    DE(int)     intcor
      8.99     -11.57       0.86        0.00      74.42       2.15       1.84       0.73       ----

> <Gold.Chemscore.Fitness>
8.9926

> <Gold.Chemscore.DG>
-11.5684

> <Gold.Chemscore.ZeroCoef>
-5.4800

> <Gold.Chemscore.Hbond>
0.8620

> <Gold.Chemscore.Metal>
0.0000

> <Gold.Chemscore.Lipo>
74.4162

> <Gold.Chemscore.Internal_Hbond>
0.0000

> <Gold.Chemscore.DEClash>
1.8427

> <Gold.Chemscore.DEInternal>
0.7332

> <Gold.Chemscore.Rot>
2.1474

> <Gold.Chemscore.Internal.Correction>
   9.000000E+99

> <Gold.Chemscore.Hbonds>
donor molecule, donor type, donor heavy atom, donor atom, acceptor molecule, acceptor atom, score
      P1  H  7997  8009       L1     4  0.80

> <Gold.Chemscore.Hbond.Weighted>
-2.8791

> <Gold.Chemscore.Metal.Weighted>
-0.0000

> <Gold.Chemscore.Lipo.Weighted>
-8.7067

> <Gold.Chemscore.Internal_Hbond.Weighted>
0.0000

> <Gold.Chemscore.DEClash.Weighted>
1.8427

> <Gold.Chemscore.DEInternal.Weighted>
0.7332

> <Gold.Chemscore.Rot.Weighted>
5.4974

> <Gold.Chemscore.Internal.Correction.Weighted>
   9.000000E+99

> <Gold.Protein.RotatedTorsions>
[ 6907 6896 6895 6894 ] final  160.54 input  -60.11 | X-H torsion
[ 7974 7965 7964 7962 ] final   -9.00 input  175.53 | X-H torsion
[ 8008 7997 7996 7995 ] final  160.36 input   59.86 | X-H torsion
[ 10167 10162 10161 10158 ] final   -2.69 input  -65.29 | X-H torsion
[ 10718 10713 10712 10709 ] final    1.17 input   66.30 | X-H torsion
[ 10763 10752 10751 10750 ] final   39.96 input  -60.55 | X-H torsion
[ 11005 11000 10999 10996 ] final  115.33 input  -57.11 | X-H torsion

> <Gold.Protein.ActiveResidues>
 VAL166  LYS551  ARG553  GLY616  TRP617  ASP618  TYR619  PRO620  LYS621  CYS622 
 ASP623  PHE694  ASN695  SER759  ASP760  ASP761  ALA762  ILE779  LEU786  VAL792 
 PHE793  MET794  SER795  GLU796  ALA797  LYS798  CYS799  TRP800  GLU811  SER814 

> <Gold.Protein.RotatedAtoms>
  151.9692  133.3720  159.4064 H   0  0  0  0  0  0  0  0  0  0  0  0  # atno 6907 bound_to 6896
  150.6951  134.4158  159.5192 H   0  0  0  0  0  0  0  0  0  0  0  0  # atno 6908 bound_to 6896
  152.1860  134.8713  160.0573 H   0  0  0  0  0  0  0  0  0  0  0  0  # atno 6909 bound_to 6896
  146.2264  140.2551  142.8349 H   0  0  0  0  0  0  0  0  0  0  0  0  # atno 7974 bound_to 7965
  156.2177  140.1806  156.7550 H   0  0  0  0  0  0  0  0  0  0  0  0  # atno 8008 bound_to 7997
  154.5817  140.0665  156.9142 H   0  0  0  0  0  0  0  0  0  0  0  0  # atno 8009 bound_to 7997
  155.2491  140.3327  155.4286 H   0  0  0  0  0  0  0  0  0  0  0  0  # atno 8010 bound_to 7997
  140.6861  143.6627  150.8252 H   0  0  0  0  0  0  0  0  0  0  0  0  # atno 10167 bound_to 10162
  156.8442  130.5531  149.5675 H   0  0  0  0  0  0  0  0  0  0  0  0  # atno 10718 bound_to 10713
  152.9951  135.6205  154.2549 H   0  0  0  0  0  0  0  0  0  0  0  0  # atno 10763 bound_to 10752
  154.2286  135.2793  155.2900 H   0  0  0  0  0  0  0  0  0  0  0  0  # atno 10764 bound_to 10752
  154.5468  135.5745  153.6945 H   0  0  0  0  0  0  0  0  0  0  0  0  # atno 10765 bound_to 10752
  139.9006  134.9582  156.7028 H   0  0  0  0  0  0  0  0  0  0  0  0  # atno 11005 bound_to 11000
  144.9382  140.8050  143.5647 LP  0  0  0  0  0  0  0  0  0  0  0  0  # atno 17320 bound_to 7965
  145.2500  139.2035  143.4947 LP  0  0  0  0  0  0  0  0  0  0  0  0  # atno 17321 bound_to 7965
  140.0334  143.5420  152.2750 LP  0  0  0  0  0  0  0  0  0  0  0  0  # atno 17342 bound_to 10162
  139.6221  144.7631  151.2718 LP  0  0  0  0  0  0  0  0  0  0  0  0  # atno 17343 bound_to 10162
  156.0864  130.5861  150.9655 LP  0  0  0  0  0  0  0  0  0  0  0  0  # atno 17370 bound_to 10713
  157.6339  131.0918  150.8387 LP  0  0  0  0  0  0  0  0  0  0  0  0  # atno 17371 bound_to 10713
  140.7137  133.9201  155.8101 LP  0  0  0  0  0  0  0  0  0  0  0  0  # atno 17394 bound_to 11000
  141.0281  134.0795  157.4046 LP  0  0  0  0  0  0  0  0  0  0  0  0  # atno 17395 bound_to 11000

$$$$
