AV-unprocessed.smi:246|AV-procd|sdf|1887|dock2
  -GOLD-   2262020543D 1   1.00000     0.00000
 Structure written by MMmdl.
 57 60  0  0  0  0  0  0  0  0  1 V2000
  144.5065  132.2030  150.8361 C   0  0  0  0  0  0  0  0  0  0  0  0
  145.1016  133.6167  150.8899 C   0  0  0  0  0  0  0  0  0  0  0  0
  146.2052  133.6943  151.7816 O   0  0  0  0  0  0  0  0  0  0  0  0
  145.9528  133.1581  153.0722 C   0  0  0  0  0  0  0  0  0  0  0  0
  147.2790  133.0316  153.8270 C   0  0  0  0  0  0  0  0  0  0  0  0
  147.3970  134.1111  154.7419 O   0  0  0  0  0  0  0  0  0  0  0  0
  148.7280  134.3374  155.1812 C   0  0  2  0  0  0  0  0  0  0  0  0
  149.0848  133.4169  156.3467 C   0  0  0  0  0  0  0  0  0  0  0  0
  150.2323  134.1659  157.0216 C   0  0  0  0  0  0  0  0  0  0  0  0
  149.9064  135.5753  156.8485 N   0  0  0  0  0  0  0  0  0  0  0  0
  150.8010  136.5558  157.1347 C   0  0  0  0  0  0  0  0  0  0  0  0
  152.1023  136.2214  157.3428 N   0  0  0  0  0  0  0  0  0  0  0  0
  153.0094  137.1631  157.6171 C   0  0  0  0  0  0  0  0  0  0  0  0
  152.8350  138.4803  157.7344 N   0  0  0  0  0  0  0  0  0  0  0  0
  151.5297  138.8245  157.5412 C   0  0  0  0  0  0  0  0  0  0  0  0
  150.4563  137.9347  157.2482 C   0  0  0  0  0  0  0  0  0  0  0  0
  149.2686  138.6513  157.1491 N   0  0  0  0  0  0  0  0  0  0  0  0
  149.6207  139.8893  157.3595 C   0  0  0  0  0  0  0  0  0  0  0  0
  150.9639  140.0869  157.5849 N   0  0  0  0  0  0  0  0  0  0  0  0
  151.6250  141.3580  157.8330 C   0  0  0  0  0  0  0  0  0  0  0  0
  152.1728  141.5242  159.2697 C   0  0  1  0  0  0  0  0  0  0  0  0
  153.3186  140.7207  159.4749 O   0  0  0  0  0  0  0  0  0  0  0  0
  152.4543  142.9800  159.7084 C   0  0  1  0  0  0  0  0  0  0  0  0
  153.3155  143.8094  158.7491 C   0  0  0  0  0  0  0  0  0  0  0  0
  152.8592  145.2166  159.0639 C   0  0  0  0  0  0  0  0  0  0  0  0
  151.3676  145.0060  159.2958 C   0  0  0  0  0  0  0  0  0  0  0  0
  151.2639  143.7356  159.9272 O   0  0  0  0  0  0  0  0  0  0  0  0
  148.9479  135.7414  155.7632 C   0  0  0  0  0  0  0  0  0  0  0  0
  149.4373  134.1573  154.3711 H   0  0  0  0  0  0  0  0  0  0  0  0
  143.6034  132.1894  150.2260 H   0  0  0  0  0  0  0  0  0  0  0  0
  144.2389  131.8539  151.8335 H   0  0  0  0  0  0  0  0  0  0  0  0
  145.2017  131.4845  150.4033 H   0  0  0  0  0  0  0  0  0  0  0  0
  145.3791  133.9646  149.8937 H   0  0  0  0  0  0  0  0  0  0  0  0
  144.3383  134.3040  151.2551 H   0  0  0  0  0  0  0  0  0  0  0  0
  145.2566  133.7764  153.6387 H   0  0  0  0  0  0  0  0  0  0  0  0
  145.5028  132.1697  152.9680 H   0  0  0  0  0  0  0  0  0  0  0  0
  147.2896  132.0911  154.3799 H   0  0  0  0  0  0  0  0  0  0  0  0
  148.1142  133.0082  153.1258 H   0  0  0  0  0  0  0  0  0  0  0  0
  148.2408  133.3397  157.0338 H   0  0  0  0  0  0  0  0  0  0  0  0
  149.3586  132.4102  156.0304 H   0  0  0  0  0  0  0  0  0  0  0  0
  150.3243  133.9018  158.0755 H   0  0  0  0  0  0  0  0  0  0  0  0
  151.1760  133.9383  156.5235 H   0  0  0  0  0  0  0  0  0  0  0  0
  154.0198  136.8104  157.7616 H   0  0  0  0  0  0  0  0  0  0  0  0
  148.9078  140.7008  157.3398 H   0  0  0  0  0  0  0  0  0  0  0  0
  152.4387  141.4652  157.1149 H   0  0  0  0  0  0  0  0  0  0  0  0
  150.9177  142.1577  157.6100 H   0  0  0  0  0  0  0  0  0  0  0  0
  151.4114  141.1291  159.9432 H   0  0  0  0  0  0  0  0  0  0  0  0
  153.0942  139.8223  159.2859 H   0  0  0  0  0  0  0  0  0  0  0  0
  152.9674  142.9520  160.6709 H   0  0  0  0  0  0  0  0  0  0  0  0
  154.3845  143.6622  158.9040 H   0  0  0  0  0  0  0  0  0  0  0  0
  153.0899  143.5787  157.7074 H   0  0  0  0  0  0  0  0  0  0  0  0
  153.3369  145.5723  159.9778 H   0  0  0  0  0  0  0  0  0  0  0  0
  153.0712  145.9267  158.2644 H   0  0  0  0  0  0  0  0  0  0  0  0
  150.9180  145.7930  159.9016 H   0  0  0  0  0  0  0  0  0  0  0  0
  150.8370  144.9640  158.3436 H   0  0  0  0  0  0  0  0  0  0  0  0
  149.3015  136.4302  154.9950 H   0  0  0  0  0  0  0  0  0  0  0  0
  148.0208  136.1374  156.1795 H   0  0  0  0  0  0  0  0  0  0  0  0
  1  2  1  0  0  0  0
  1 30  1  0  0  0  0
  1 31  1  0  0  0  0
  1 32  1  0  0  0  0
  2  3  1  0  0  0  0
  2 33  1  0  0  0  0
  2 34  1  0  0  0  0
  3  4  1  0  0  0  0
  4  5  1  0  0  0  0
  4 35  1  0  0  0  0
  4 36  1  0  0  0  0
  5  6  1  0  0  0  0
  5 37  1  0  0  0  0
  5 38  1  0  0  0  0
  6  7  1  0  0  0  0
  7 29  1  0  0  0  0
  7 28  1  0  0  0  0
  7  8  1  0  0  0  0
  8  9  1  0  0  0  0
  8 39  1  0  0  0  0
  8 40  1  0  0  0  0
  9 10  1  0  0  0  0
  9 41  1  0  0  0  0
  9 42  1  0  0  0  0
 10 11  1  0  0  0  0
 10 28  1  0  0  0  0
 11 16  1  0  0  0  0
 11 12  2  0  0  0  0
 12 13  1  0  0  0  0
 13 14  2  0  0  0  0
 13 43  1  0  0  0  0
 14 15  1  0  0  0  0
 15 19  1  0  0  0  0
 15 16  2  0  0  0  0
 16 17  1  0  0  0  0
 17 18  2  0  0  0  0
 18 19  1  0  0  0  0
 18 44  1  0  0  0  0
 19 20  1  0  0  0  0
 20 21  1  0  0  0  0
 20 45  1  0  0  0  0
 20 46  1  0  0  0  0
 21 22  1  0  0  0  0
 21 23  1  0  0  0  0
 21 47  1  0  0  0  0
 22 48  1  0  0  0  0
 23 27  1  0  0  0  0
 23 24  1  0  0  0  0
 23 49  1  0  0  0  0
 24 25  1  0  0  0  0
 24 50  1  0  0  0  0
 24 51  1  0  0  0  0
 25 26  1  0  0  0  0
 25 52  1  0  0  0  0
 25 53  1  0  0  0  0
 26 27  1  0  0  0  0
 26 54  1  0  0  0  0
 26 55  1  0  0  0  0
 28 56  1  0  0  0  0
 28 57  1  0  0  0  0
M  END
> <s_m_source_file>
AV-unprocessed.smi

> <i_m_source_file_index>
246

> <i_lp_mmshare_version>
43012

> <i_f3d_flags>
0

> <s_epik_input>
W0NIM11bQ0gyXU9bQ0gyXVtDSDJdT1tDQEhdMVtDSDJdW0NIMl1OKFtDSDJdMSljKG5bY0hdbjIpYyhjMjMpbltjSF1uM1tDSDJdW0NASF0oW09IXSlbQ0BASF00W0NIMl1bQ0gyXVtDSDJdTzQ=

> <s_epik_cmdline>
J2VwaWtfcHl0aG9uJywgJy1waCcsICc3LjAnLCAnLXRuJywgJzgnLCAnLW1hJywgJzIwMCcsICctbWV0YWxfYmluZGluZycsICctaW1hZScsICc8aW5maWxlLm1hZT4nLCAnLW9tYWUnLCAnPG91dGZpbGUubWFlPic=

> <r_lp_tautomer_probability>
1

> <r_epik_Ionization_Penalty>
0.0024631

> <r_epik_Ionization_Penalty_Charging>
0

> <r_epik_Ionization_Penalty_Neutral>
0.0024631

> <r_epik_State_Penalty>
0.00162428

> <r_epik_Charging_Adjusted_Penalty>
0.00162428

> <i_epik_Tot_Q>
0

> <i_epik_Tot_abs_Q>
0

> <r_epik_Metal_State_Penalty>
-0

> <b_epik_Metal_Only>
0

> <s_lp_Force_Field>
OPLS_2005

> <r_lp_Energy>
52.7235

> <b_lp_Chiralities_Consistent>
1

> <s_lp_Variant>
AV-unprocessed.smi:246-8

> <Gold.Version>
5.8.1

> <Gold.Id.Protein>
6NUR|6NUR_protein|mol2

> <Gold.PLP.Fitness>
51.7260

> <Gold.PLP.PLP>
-48.1054

> <Gold.PLP.part.hbond>
-2.8119

> <Gold.PLP.part.metal>
0.0000

> <Gold.PLP.part.buried>
-7.6733

> <Gold.PLP.part.nonpolar>
-38.1624

> <Gold.PLP.part.repulsive>
0.4089

> <Gold.PLP.ligand.clash>
0.0000

> <Gold.PLP.ligand.torsion>
1.4677

> <Gold.PLP.Chemscore.Hbond>
2.0000

> <Gold.PLP.Chemscore.CHOScore>
0.0000

> <Gold.PLP.Chemscore.Metal>
0.0000

> <Gold.PLP.Chemscore.Internal.Correction>
0.5561

> <Gold.Rescore>
     Score         DG    S(hbond)    S(metal)    S(lipo)     H(rot)  DE(clash)    DE(int)     intcor
     14.42     -16.02       1.44        0.00     116.78       3.10       0.00       1.60       ----

> <Gold.Chemscore.Fitness>
14.4224

> <Gold.Chemscore.DG>
-16.0230

> <Gold.Chemscore.ZeroCoef>
-5.4800

> <Gold.Chemscore.Hbond>
1.4437

> <Gold.Chemscore.Metal>
0.0000

> <Gold.Chemscore.Lipo>
116.7825

> <Gold.Chemscore.Internal_Hbond>
0.0000

> <Gold.Chemscore.DEClash>
0.0000

> <Gold.Chemscore.DEInternal>
1.6006

> <Gold.Chemscore.Rot>
3.1026

> <Gold.Chemscore.Internal.Correction>
   9.000000E+99

> <Gold.Chemscore.Hbonds>
donor molecule, donor type, donor heavy atom, donor atom, acceptor molecule, acceptor atom, score
      P1  H  7997  8009       L1    14  0.04

> <Gold.Chemscore.Hbond.Weighted>
-4.8221

> <Gold.Chemscore.Metal.Weighted>
-0.0000

> <Gold.Chemscore.Lipo.Weighted>
-13.6636

> <Gold.Chemscore.Internal_Hbond.Weighted>
0.0000

> <Gold.Chemscore.DEClash.Weighted>
0.0000

> <Gold.Chemscore.DEInternal.Weighted>
1.6006

> <Gold.Chemscore.Rot.Weighted>
7.9426

> <Gold.Chemscore.Internal.Correction.Weighted>
   9.000000E+99

> <Gold.Protein.RotatedTorsions>
[ 6907 6896 6895 6894 ] final  -70.55 input  -60.11 | X-H torsion
[ 7974 7965 7964 7962 ] final   81.23 input  175.53 | X-H torsion
[ 8008 7997 7996 7995 ] final  150.35 input   59.86 | X-H torsion
[ 10167 10162 10161 10158 ] final  -97.67 input  -65.29 | X-H torsion
[ 10718 10713 10712 10709 ] final  -55.22 input   66.30 | X-H torsion
[ 10763 10752 10751 10750 ] final   -1.40 input  -60.55 | X-H torsion
[ 11005 11000 10999 10996 ] final   87.59 input  -57.11 | X-H torsion

> <Gold.Protein.ActiveResidues>
 VAL166  LYS551  ARG553  GLY616  TRP617  ASP618  TYR619  PRO620  LYS621  CYS622 
 ASP623  PHE694  ASN695  SER759  ASP760  ASP761  ALA762  ILE779  LEU786  VAL792 
 PHE793  MET794  SER795  GLU796  ALA797  LYS798  CYS799  TRP800  GLU811  SER814 

> <Gold.Protein.RotatedAtoms>
  150.7252  134.5437  159.5759 H   0  0  0  0  0  0  0  0  0  0  0  0  # atno 6907 bound_to 6896
  152.2941  134.7684  160.0381 H   0  0  0  0  0  0  0  0  0  0  0  0  # atno 6908 bound_to 6896
  151.8287  133.3370  159.3643 H   0  0  0  0  0  0  0  0  0  0  0  0  # atno 6909 bound_to 6896
  145.6409  139.2425  143.2031 H   0  0  0  0  0  0  0  0  0  0  0  0  # atno 7974 bound_to 7965
  156.2719  140.2077  156.6004 H   0  0  0  0  0  0  0  0  0  0  0  0  # atno 8008 bound_to 7997
  154.6911  140.0530  157.0388 H   0  0  0  0  0  0  0  0  0  0  0  0  # atno 8009 bound_to 7997
  155.0865  140.3192  155.4589 H   0  0  0  0  0  0  0  0  0  0  0  0  # atno 8010 bound_to 7997
  140.2809  143.3282  152.0442 H   0  0  0  0  0  0  0  0  0  0  0  0  # atno 10167 bound_to 10162
  156.1387  130.4155  150.0141 H   0  0  0  0  0  0  0  0  0  0  0  0  # atno 10718 bound_to 10713
  153.3444  135.6982  153.6840 H   0  0  0  0  0  0  0  0  0  0  0  0  # atno 10763 bound_to 10752
  153.5592  135.3538  155.2792 H   0  0  0  0  0  0  0  0  0  0  0  0  # atno 10764 bound_to 10752
  154.8642  135.4245  154.2665 H   0  0  0  0  0  0  0  0  0  0  0  0  # atno 10765 bound_to 10752
  139.8916  134.8432  156.2882 H   0  0  0  0  0  0  0  0  0  0  0  0  # atno 11005 bound_to 11000
  146.1281  140.7221  142.9425 LP  0  0  0  0  0  0  0  0  0  0  0  0  # atno 17320 bound_to 7965
  144.7158  140.4203  143.7046 LP  0  0  0  0  0  0  0  0  0  0  0  0  # atno 17321 bound_to 7965
  139.4963  144.6592  151.6503 LP  0  0  0  0  0  0  0  0  0  0  0  0  # atno 17342 bound_to 10162
  140.5812  143.9942  150.6269 LP  0  0  0  0  0  0  0  0  0  0  0  0  # atno 17343 bound_to 10162
  156.8033  130.9298  151.3645 LP  0  0  0  0  0  0  0  0  0  0  0  0  # atno 17370 bound_to 10713
  157.6555  130.8921  149.9721 LP  0  0  0  0  0  0  0  0  0  0  0  0  # atno 17371 bound_to 10713
  140.9994  133.7161  156.0936 LP  0  0  0  0  0  0  0  0  0  0  0  0  # atno 17394 bound_to 11000
  140.7519  134.4036  157.5540 LP  0  0  0  0  0  0  0  0  0  0  0  0  # atno 17395 bound_to 11000

$$$$
