AV-unprocessed.smi:1295|AV-procd|sdf|5404|dock1
  -GOLD-   22720 4563D 1   1.00000     0.00000
 Structure written by MMmdl.
 43 44  0  0  0  0  0  0  0  0  1 V2000
  146.8013  138.8647  152.5576 C   0  0  0  0  0  0  0  0  0  0  0  0
  147.6996  138.7772  153.7733 C   0  0  0  0  0  0  0  0  0  0  0  0
  147.2663  138.6056  154.9787 N   0  0  0  0  0  0  0  0  0  0  0  0
  148.1959  138.5446  156.0263 C   0  0  0  0  0  0  0  0  0  0  0  0
  147.6087  138.3496  157.4139 C   0  0  0  0  0  0  0  0  0  0  0  0
  149.5378  138.6571  155.8005 C   0  0  0  0  0  0  0  0  0  0  0  0
  150.5730  138.5994  156.9225 C   0  0  0  0  0  0  0  0  0  0  0  0
  151.5334  139.7887  156.9966 C   0  0  0  0  0  0  0  0  0  0  0  0
  152.4804  139.8690  156.2142 O   0  0  0  0  0  0  0  0  0  0  0  0
  151.2693  140.7057  157.9402 N   0  0  0  0  0  0  0  0  0  0  0  0
  152.0168  141.9409  158.1716 C   0  0  1  0  0  0  0  0  0  0  0  0
  151.1575  143.1304  157.6994 C   0  0  0  0  0  0  0  0  0  0  0  0
  151.8491  144.4742  157.9692 C   0  0  0  0  0  0  0  0  0  0  0  0
  152.2066  144.6172  159.4545 C   0  0  0  0  0  0  0  0  0  0  0  0
  153.0799  143.4448  159.9257 C   0  0  0  0  0  0  0  0  0  0  0  0
  152.4060  142.0818  159.6659 C   0  0  2  0  0  0  0  0  0  0  0  0
  153.3087  140.9350  160.1552 C   0  0  0  0  0  0  0  0  0  0  0  0
  150.0215  138.8498  154.4195 C   0  0  0  0  0  0  0  0  0  0  0  0
  151.2047  138.9655  154.1036 O   0  0  0  0  0  0  0  0  0  0  0  0
  149.0556  138.8999  153.4750 N   0  0  0  0  0  0  0  0  0  0  0  0
  149.3354  139.0338  152.5143 H   0  0  0  0  0  0  0  0  0  0  0  0
  146.1091  139.7004  152.6631 H   0  0  0  0  0  0  0  0  0  0  0  0
  146.2197  137.9482  152.4539 H   0  0  0  0  0  0  0  0  0  0  0  0
  147.3753  139.0105  151.6413 H   0  0  0  0  0  0  0  0  0  0  0  0
  147.9529  137.4103  157.8468 H   0  0  0  0  0  0  0  0  0  0  0  0
  146.5189  138.3227  157.3826 H   0  0  0  0  0  0  0  0  0  0  0  0
  147.9018  139.1653  158.0747 H   0  0  0  0  0  0  0  0  0  0  0  0
  150.0439  138.5105  157.8721 H   0  0  0  0  0  0  0  0  0  0  0  0
  151.1679  137.6883  156.8518 H   0  0  0  0  0  0  0  0  0  0  0  0
  150.4706  140.5455  158.5367 H   0  0  0  0  0  0  0  0  0  0  0  0
  152.9336  141.9417  157.5789 H   0  0  0  0  0  0  0  0  0  0  0  0
  150.9449  143.0365  156.6336 H   0  0  0  0  0  0  0  0  0  0  0  0
  150.1923  143.1146  158.2081 H   0  0  0  0  0  0  0  0  0  0  0  0
  152.7532  144.5503  157.3638 H   0  0  0  0  0  0  0  0  0  0  0  0
  151.2004  145.2948  157.6615 H   0  0  0  0  0  0  0  0  0  0  0  0
  152.7277  145.5601  159.6230 H   0  0  0  0  0  0  0  0  0  0  0  0
  151.2937  144.6568  160.0500 H   0  0  0  0  0  0  0  0  0  0  0  0
  154.0423  143.4825  159.4132 H   0  0  0  0  0  0  0  0  0  0  0  0
  153.2939  143.5581  160.9890 H   0  0  0  0  0  0  0  0  0  0  0  0
  151.4901  142.0516  160.2583 H   0  0  0  0  0  0  0  0  0  0  0  0
  154.2290  140.8812  159.5726 H   0  0  0  0  0  0  0  0  0  0  0  0
  152.8107  139.9684  160.0794 H   0  0  0  0  0  0  0  0  0  0  0  0
  153.5851  141.0726  161.2009 H   0  0  0  0  0  0  0  0  0  0  0  0
  1  2  1  0  0  0  0
  1 22  1  0  0  0  0
  1 23  1  0  0  0  0
  1 24  1  0  0  0  0
  2 20  1  0  0  0  0
  2  3  2  0  0  0  0
  3  4  1  0  0  0  0
  4  5  1  0  0  0  0
  4  6  2  0  0  0  0
  5 25  1  0  0  0  0
  5 26  1  0  0  0  0
  5 27  1  0  0  0  0
  6  7  1  0  0  0  0
  6 18  1  0  0  0  0
  7  8  1  0  0  0  0
  7 28  1  0  0  0  0
  7 29  1  0  0  0  0
  8  9  2  0  0  0  0
  8 10  1  0  0  0  0
 10 11  1  0  0  0  0
 10 30  1  0  0  0  0
 11 16  1  0  0  0  0
 11 12  1  0  0  0  0
 11 31  1  0  0  0  0
 12 13  1  0  0  0  0
 12 32  1  0  0  0  0
 12 33  1  0  0  0  0
 13 14  1  0  0  0  0
 13 34  1  0  0  0  0
 13 35  1  0  0  0  0
 14 15  1  0  0  0  0
 14 36  1  0  0  0  0
 14 37  1  0  0  0  0
 15 16  1  0  0  0  0
 15 38  1  0  0  0  0
 15 39  1  0  0  0  0
 16 17  1  0  0  0  0
 16 40  1  0  0  0  0
 17 41  1  0  0  0  0
 17 42  1  0  0  0  0
 17 43  1  0  0  0  0
 18 19  2  0  0  0  0
 18 20  1  0  0  0  0
 20 21  1  0  0  0  0
M  END
> <s_m_source_file>
AV-unprocessed.smi

> <i_m_source_file_index>
1295

> <i_lp_mmshare_version>
43012

> <i_f3d_flags>
0

> <s_epik_input>
W0NIM11jMW5jKFtDSDNdKWMoYyg9TylbbkhdMSlbQ0gyXUMoPU8pW05IXVtDQEBIXTJbQ0gyXVtDSDJdW0NIMl1bQ0gyXVtDQEhdMltDSDNd

> <s_epik_cmdline>
J2VwaWtfcHl0aG9uJywgJy1waCcsICc3LjAnLCAnLXRuJywgJzgnLCAnLW1hJywgJzIwMCcsICctbWV0YWxfYmluZGluZycsICctaW1hZScsICc8aW5maWxlLm1hZT4nLCAnLW9tYWUnLCAnPG91dGZpbGUubWFlPic=

> <r_lp_tautomer_probability>
0.839158

> <r_epik_Ionization_Penalty>
0.00037085

> <r_epik_Ionization_Penalty_Charging>
0.000336002

> <r_epik_Ionization_Penalty_Neutral>
3.48485e-05

> <r_epik_State_Penalty>
0.09125

> <r_epik_Charging_Adjusted_Penalty>
0.091586

> <i_epik_Tot_Q>
0

> <i_epik_Tot_abs_Q>
0

> <r_epik_Metal_State_Penalty>
0.251445

> <b_epik_Metal_Only>
0

> <s_lp_Force_Field>
OPLS_2005

> <r_lp_Energy>
11.9106

> <b_lp_Chiralities_Consistent>
1

> <s_lp_Variant>
AV-unprocessed.smi:1295-4

> <Gold.Version>
5.8.1

> <Gold.Id.Protein>
6NUR|6NUR_protein|mol2

> <Gold.PLP.Fitness>
44.7895

> <Gold.PLP.PLP>
-36.5530

> <Gold.PLP.part.hbond>
-3.7369

> <Gold.PLP.part.metal>
0.0000

> <Gold.PLP.part.buried>
-3.2266

> <Gold.PLP.part.nonpolar>
-29.5569

> <Gold.PLP.part.repulsive>
0.4236

> <Gold.PLP.ligand.clash>
0.0000

> <Gold.PLP.ligand.torsion>
0.3839

> <Gold.PLP.Chemscore.Hbond>
3.0000

> <Gold.PLP.Chemscore.CHOScore>
0.0000

> <Gold.PLP.Chemscore.Metal>
0.0000

> <Gold.Chemscore.Hbonds>
donor molecule, donor type, donor heavy atom, donor atom, acceptor molecule, acceptor atom, score
      L1  H    20    21       P1  7957  1.00
      P1  H  7989  7998       L1    19  1.00
      P1  H  7997  8010       L1     9  1.00

> <Gold.PLP.Chemscore.Internal.Correction>
0.0042

> <Gold.Rescore>
     Score         DG    S(hbond)    S(metal)    S(lipo)     H(rot)  DE(clash)    DE(int)     intcor
     19.19     -22.36       2.93        0.00      92.95       1.48       0.26       2.91       ----

> <Gold.Chemscore.Fitness>
19.1923

> <Gold.Chemscore.DG>
-22.3580

> <Gold.Chemscore.ZeroCoef>
-5.4800

> <Gold.Chemscore.Hbond>
2.9317

> <Gold.Chemscore.Metal>
0.0000

> <Gold.Chemscore.Lipo>
92.9518

> <Gold.Chemscore.Internal_Hbond>
0.0000

> <Gold.Chemscore.DEClash>
0.2567

> <Gold.Chemscore.DEInternal>
2.9090

> <Gold.Chemscore.Rot>
1.4801

> <Gold.Chemscore.Internal.Correction>
   9.000000E+99

> <Gold.Chemscore.Hbonds>
donor molecule, donor type, donor heavy atom, donor atom, acceptor molecule, acceptor atom, score
      L1  H    20    21       P1  7957  0.93
      P1  H  7989  7998       L1    19  0.75
      P1  H  7997  8010       L1     9  0.96

> <Gold.Chemscore.Hbond.Weighted>
-9.7917

> <Gold.Chemscore.Metal.Weighted>
-0.0000

> <Gold.Chemscore.Lipo.Weighted>
-10.8754

> <Gold.Chemscore.Internal_Hbond.Weighted>
0.0000

> <Gold.Chemscore.DEClash.Weighted>
0.2567

> <Gold.Chemscore.DEInternal.Weighted>
2.9090

> <Gold.Chemscore.Rot.Weighted>
3.7891

> <Gold.Chemscore.Internal.Correction.Weighted>
   9.000000E+99

> <Gold.Protein.RotatedTorsions>
[ 6907 6896 6895 6894 ] final  146.42 input  -60.11 | X-H torsion
[ 7974 7965 7964 7962 ] final  -12.69 input  175.53 | X-H torsion
[ 8008 7997 7996 7995 ] final   62.68 input   59.86 | X-H torsion
[ 10167 10162 10161 10158 ] final   19.90 input  -65.29 | X-H torsion
[ 10718 10713 10712 10709 ] final   62.59 input   66.30 | X-H torsion
[ 10763 10752 10751 10750 ] final   96.83 input  -60.55 | X-H torsion
[ 11005 11000 10999 10996 ] final -129.90 input  -57.11 | X-H torsion

> <Gold.Protein.ActiveResidues>
 VAL166  LYS551  ARG553  GLY616  TRP617  ASP618  TYR619  PRO620  LYS621  CYS622 
 ASP623  PHE694  ASN695  SER759  ASP760  ASP761  ALA762  ILE779  LEU786  VAL792 
 PHE793  MET794  SER795  GLU796  ALA797  LYS798  CYS799  TRP800  GLU811  SER814 

> <Gold.Protein.RotatedAtoms>
  152.1681  133.4626  159.4895 H   0  0  0  0  0  0  0  0  0  0  0  0  # atno 6907 bound_to 6896
  150.6916  134.1987  159.4322 H   0  0  0  0  0  0  0  0  0  0  0  0  # atno 6908 bound_to 6896
  151.9892  134.9987  160.0611 H   0  0  0  0  0  0  0  0  0  0  0  0  # atno 6909 bound_to 6896
  146.2142  140.3094  142.8381 H   0  0  0  0  0  0  0  0  0  0  0  0  # atno 7974 bound_to 7965
  155.6182  140.3495  155.4643 H   0  0  0  0  0  0  0  0  0  0  0  0  # atno 8008 bound_to 7997
  156.0100  140.1231  157.0487 H   0  0  0  0  0  0  0  0  0  0  0  0  # atno 8009 bound_to 7997
  154.4277  140.1083  156.5803 H   0  0  0  0  0  0  0  0  0  0  0  0  # atno 8010 bound_to 7997
  140.5544  143.9451  150.6599 H   0  0  0  0  0  0  0  0  0  0  0  0  # atno 10167 bound_to 10162
  157.5912  130.9059  149.9608 H   0  0  0  0  0  0  0  0  0  0  0  0  # atno 10718 bound_to 10713
  153.2697  135.4204  155.0975 H   0  0  0  0  0  0  0  0  0  0  0  0  # atno 10763 bound_to 10752
  154.8451  135.3469  154.6262 H   0  0  0  0  0  0  0  0  0  0  0  0  # atno 10764 bound_to 10752
  153.6682  135.7045  153.5213 H   0  0  0  0  0  0  0  0  0  0  0  0  # atno 10765 bound_to 10752
  140.9392  134.1216  157.4166 H   0  0  0  0  0  0  0  0  0  0  0  0  # atno 11005 bound_to 11000
  144.8999  140.7629  143.5873 LP  0  0  0  0  0  0  0  0  0  0  0  0  # atno 17320 bound_to 7965
  145.3020  139.1847  143.4684 LP  0  0  0  0  0  0  0  0  0  0  0  0  # atno 17321 bound_to 7965
  140.2885  143.3340  152.1085 LP  0  0  0  0  0  0  0  0  0  0  0  0  # atno 17342 bound_to 10162
  139.5041  144.6769  151.6105 LP  0  0  0  0  0  0  0  0  0  0  0  0  # atno 17343 bound_to 10162
  156.0967  130.3659  150.0294 LP  0  0  0  0  0  0  0  0  0  0  0  0  # atno 17370 bound_to 10713
  156.8416  130.9428  151.3631 LP  0  0  0  0  0  0  0  0  0  0  0  0  # atno 17371 bound_to 10713
  139.8816  135.0031  156.6166 LP  0  0  0  0  0  0  0  0  0  0  0  0  # atno 17394 bound_to 11000
  140.7757  133.8701  155.8527 LP  0  0  0  0  0  0  0  0  0  0  0  0  # atno 17395 bound_to 11000

$$$$
