AV-unprocessed.smi:53|AV-procd|sdf|515|dock2
  -GOLD-   2262016393D 1   1.00000     0.00000
 Structure written by MMmdl.
 30 31  0  0  0  0  0  0  0  0  1 V2000
  152.8879  140.9240  158.9126 N   0  0  0  0  0  0  0  0  0  0  0  0
  152.0738  140.9547  157.8480 C   0  0  0  0  0  0  0  0  0  0  0  0
  150.9223  141.8285  157.8343 C   0  0  0  0  0  0  0  0  0  0  0  0
  150.1491  141.8042  156.7261 C   0  0  0  0  0  0  0  0  0  0  0  0
  150.4348  140.9828  155.6427 N   0  0  0  0  0  0  0  0  0  0  0  0
  149.5697  140.9555  154.3944 C   0  0  2  0  0  0  0  0  0  0  0  0
  148.6449  142.0035  154.4349 O   0  0  0  0  0  0  0  0  0  0  0  0
  147.3371  141.4962  154.6829 C   0  0  1  0  0  0  0  0  0  0  0  0
  146.2568  142.4832  154.2077 C   0  0  0  0  0  0  0  0  0  0  0  0
  144.9851  142.0612  154.6515 O   0  0  0  0  0  0  0  0  0  0  0  0
  147.3557  140.1403  153.9672 C   0  0  1  0  0  0  0  0  0  0  0  0
  147.1366  140.2911  152.5757 O   0  0  0  0  0  0  0  0  0  0  0  0
  148.7686  139.6387  154.2340 C   0  0  2  0  0  0  0  0  0  0  0  0
  148.7688  138.8208  155.3920 O   0  0  0  0  0  0  0  0  0  0  0  0
  151.5694  140.1373  155.6881 C   0  0  0  0  0  0  0  0  0  0  0  0
  151.8512  139.3846  154.7562 O   0  0  0  0  0  0  0  0  0  0  0  0
  152.3417  140.1759  156.8179 N   0  0  0  0  0  0  0  0  0  0  0  0
  150.2461  141.1542  153.5607 H   0  0  0  0  0  0  0  0  0  0  0  0
  147.2244  141.3070  155.7520 H   0  0  0  0  0  0  0  0  0  0  0  0
  146.5904  139.4664  154.3552 H   0  0  0  0  0  0  0  0  0  0  0  0
  149.1721  139.0589  153.4027 H   0  0  0  0  0  0  0  0  0  0  0  0
  153.6913  140.3122  158.9191 H   0  0  0  0  0  0  0  0  0  0  0  0
  152.6949  141.5144  159.7091 H   0  0  0  0  0  0  0  0  0  0  0  0
  150.6631  142.4827  158.6546 H   0  0  0  0  0  0  0  0  0  0  0  0
  149.2884  142.4550  156.7121 H   0  0  0  0  0  0  0  0  0  0  0  0
  146.4610  143.4960  154.5564 H   0  0  0  0  0  0  0  0  0  0  0  0
  146.2272  142.5120  153.1180 H   0  0  0  0  0  0  0  0  0  0  0  0
  144.6125  141.4904  153.9968 H   0  0  0  0  0  0  0  0  0  0  0  0
  147.9502  140.1295  152.1235 H   0  0  0  0  0  0  0  0  0  0  0  0
  149.4534  138.1755  155.2984 H   0  0  0  0  0  0  0  0  0  0  0  0
  1  2  1  0  0  0  0
  1 22  1  0  0  0  0
  1 23  1  0  0  0  0
  2 17  2  0  0  0  0
  2  3  1  0  0  0  0
  3  4  2  0  0  0  0
  3 24  1  0  0  0  0
  4  5  1  0  0  0  0
  4 25  1  0  0  0  0
  5  6  1  0  0  0  0
  5 15  1  0  0  0  0
  6 18  1  0  0  0  0
  6 13  1  0  0  0  0
  6  7  1  0  0  0  0
  7  8  1  0  0  0  0
  8 19  1  0  0  0  0
  8  9  1  0  0  0  0
  8 11  1  0  0  0  0
  9 10  1  0  0  0  0
  9 26  1  0  0  0  0
  9 27  1  0  0  0  0
 10 28  1  0  0  0  0
 11 20  1  0  0  0  0
 11 12  1  0  0  0  0
 11 13  1  0  0  0  0
 12 29  1  0  0  0  0
 13 21  1  0  0  0  0
 13 14  1  0  0  0  0
 14 30  1  0  0  0  0
 15 16  2  0  0  0  0
 15 17  1  0  0  0  0
M  END
> <s_m_source_file>
AV-unprocessed.smi

> <i_m_source_file_index>
53

> <i_lp_mmshare_version>
43012

> <i_f3d_flags>
0

> <s_epik_input>
W05IMl1jMVtjSF1bY0hdbihjKD1PKW4xKVtDQEBIXTJPW0NASF0oW0NIMl1bT0hdKVtDQEBIXShbT0hdKVtDQEBIXTJbT0hd

> <s_epik_cmdline>
J2VwaWtfcHl0aG9uJywgJy1waCcsICc3LjAnLCAnLXRuJywgJzgnLCAnLW1hJywgJzIwMCcsICctbWV0YWxfYmluZGluZycsICctaW1hZScsICc8aW5maWxlLm1hZT4nLCAnLW9tYWUnLCAnPG91dGZpbGUubWFlPic=

> <r_lp_tautomer_probability>
0.99996

> <r_epik_Ionization_Penalty>
0.00069087

> <r_epik_Ionization_Penalty_Charging>
2.61959e-08

> <r_epik_Ionization_Penalty_Neutral>
0.000690844

> <r_epik_State_Penalty>
1.15523e-05

> <r_epik_Charging_Adjusted_Penalty>
1.15785e-05

> <i_epik_Tot_Q>
0

> <i_epik_Tot_abs_Q>
0

> <r_epik_Metal_State_Penalty>
-0

> <b_epik_Metal_Only>
0

> <s_epik_Chemistry_Notes>
This compound contains an acetal/aminal-like group ( X-CH(R)-Y where X, Y are N, S, or O) that may be acid/base labile, releasing an aldehyde.

> <s_lp_Force_Field>
OPLS_2005

> <r_lp_Energy>
36.7575

> <b_lp_Chiralities_Consistent>
1

> <s_lp_Variant>
AV-unprocessed.smi:53-3

> <Gold.Version>
5.8.1

> <Gold.Id.Protein>
6NUR|6NUR_protein|mol2

> <Gold.PLP.Fitness>
41.8228

> <Gold.PLP.PLP>
-28.6099

> <Gold.PLP.part.hbond>
-4.9922

> <Gold.PLP.part.metal>
0.0000

> <Gold.PLP.part.buried>
-2.2193

> <Gold.PLP.part.nonpolar>
-22.7106

> <Gold.PLP.part.repulsive>
1.3219

> <Gold.PLP.ligand.clash>
0.0000

> <Gold.PLP.ligand.torsion>
0.2507

> <Gold.PLP.Chemscore.Hbond>
3.5500

> <Gold.PLP.Chemscore.CHOScore>
1.0000

> <Gold.PLP.Chemscore.Metal>
0.0000

> <Gold.Chemscore.Hbonds>
donor molecule, donor type, donor heavy atom, donor atom, acceptor molecule, acceptor atom, score
      L1  H    10    28       P1 10175  1.00
      L1  H    12    29       P1  7957  1.00
      P1  H  7989  7998       L1    16  0.55
      P1  H  7997  8008       L1    17  1.00
      L1  C     4    25       P1  8028  1.00

> <Gold.PLP.Chemscore.Internal.Correction>
0.0644

> <Gold.Rescore>
     Score         DG    S(hbond)    S(metal)    S(lipo)     H(rot)  DE(clash)    DE(int)     intcor
      9.76     -10.13       3.15        0.00      31.05       3.71       0.08       0.29       ----

> <Gold.Chemscore.Fitness>
9.7572

> <Gold.Chemscore.DG>
-10.1341

> <Gold.Chemscore.ZeroCoef>
-5.4800

> <Gold.Chemscore.Hbond>
3.1489

> <Gold.Chemscore.Metal>
0.0000

> <Gold.Chemscore.Lipo>
31.0517

> <Gold.Chemscore.Internal_Hbond>
0.0000

> <Gold.Chemscore.DEClash>
0.0821

> <Gold.Chemscore.DEInternal>
0.2948

> <Gold.Chemscore.Rot>
3.7095

> <Gold.Chemscore.Internal.Correction>
   9.000000E+99

> <Gold.Chemscore.Hbonds>
donor molecule, donor type, donor heavy atom, donor atom, acceptor molecule, acceptor atom, score
      L1  H    10    28       P1 10175  0.24
      L1  H    12    29       P1  7957  1.00
      P1  H  7989  7998       L1    16  0.03
      P1  H  7997  8008       L1    17  0.59

> <Gold.Chemscore.Hbond.Weighted>
-10.5175

> <Gold.Chemscore.Metal.Weighted>
-0.0000

> <Gold.Chemscore.Lipo.Weighted>
-3.6331

> <Gold.Chemscore.Internal_Hbond.Weighted>
0.0000

> <Gold.Chemscore.DEClash.Weighted>
0.0821

> <Gold.Chemscore.DEInternal.Weighted>
0.2948

> <Gold.Chemscore.Rot.Weighted>
9.4964

> <Gold.Chemscore.Internal.Correction.Weighted>
   9.000000E+99

> <Gold.Protein.RotatedTorsions>
[ 6907 6896 6895 6894 ] final -143.38 input  -60.11 | X-H torsion
[ 7974 7965 7964 7962 ] final  -18.82 input  175.53 | X-H torsion
[ 8008 7997 7996 7995 ] final  -53.86 input   59.86 | X-H torsion
[ 10167 10162 10161 10158 ] final  -66.25 input  -65.29 | X-H torsion
[ 10718 10713 10712 10709 ] final   45.37 input   66.30 | X-H torsion
[ 10763 10752 10751 10750 ] final -133.35 input  -60.55 | X-H torsion
[ 11005 11000 10999 10996 ] final   30.84 input  -57.11 | X-H torsion

> <Gold.Protein.ActiveResidues>
 VAL166  LYS551  ARG553  GLY616  TRP617  ASP618  TYR619  PRO620  LYS621  CYS622 
 ASP623  PHE694  ASN695  SER759  ASP760  ASP761  ALA762  ILE779  LEU786  VAL792 
 PHE793  MET794  SER795  GLU796  ALA797  LYS798  CYS799  TRP800  GLU811  SER814 

> <Gold.Protein.RotatedAtoms>
  151.0997  133.5252  159.2610 H   0  0  0  0  0  0  0  0  0  0  0  0  # atno 6907 bound_to 6896
  151.2088  135.0472  159.8912 H   0  0  0  0  0  0  0  0  0  0  0  0  # atno 6908 bound_to 6896
  152.5442  134.0816  159.8291 H   0  0  0  0  0  0  0  0  0  0  0  0  # atno 6909 bound_to 6896
  146.1873  140.3976  142.8471 H   0  0  0  0  0  0  0  0  0  0  0  0  # atno 7974 bound_to 7965
  154.4145  140.1190  156.5221 H   0  0  0  0  0  0  0  0  0  0  0  0  # atno 8008 bound_to 7997
  155.6692  140.3496  155.4792 H   0  0  0  0  0  0  0  0  0  0  0  0  # atno 8009 bound_to 7997
  155.9648  140.1130  157.0854 H   0  0  0  0  0  0  0  0  0  0  0  0  # atno 8010 bound_to 7997
  140.5670  143.2315  151.6614 H   0  0  0  0  0  0  0  0  0  0  0  0  # atno 10167 bound_to 10162
  157.4369  130.8058  149.7656 H   0  0  0  0  0  0  0  0  0  0  0  0  # atno 10718 bound_to 10713
  154.8733  135.3769  154.4559 H   0  0  0  0  0  0  0  0  0  0  0  0  # atno 10763 bound_to 10752
  153.5231  135.7028  153.5726 H   0  0  0  0  0  0  0  0  0  0  0  0  # atno 10764 bound_to 10752
  153.3964  135.3959  155.1924 H   0  0  0  0  0  0  0  0  0  0  0  0  # atno 10765 bound_to 10752
  140.2901  134.2874  155.7778 H   0  0  0  0  0  0  0  0  0  0  0  0  # atno 11005 bound_to 11000
  144.8420  140.6871  143.6223 LP  0  0  0  0  0  0  0  0  0  0  0  0  # atno 17320 bound_to 7965
  145.3901  139.1618  143.4234 LP  0  0  0  0  0  0  0  0  0  0  0  0  # atno 17321 bound_to 7965
  139.5098  144.3564  152.0604 LP  0  0  0  0  0  0  0  0  0  0  0  0  # atno 17342 bound_to 10162
  140.2697  144.3978  150.6156 LP  0  0  0  0  0  0  0  0  0  0  0  0  # atno 17343 bound_to 10162
  155.9934  130.3925  150.2903 LP  0  0  0  0  0  0  0  0  0  0  0  0  # atno 17370 bound_to 10713
  157.1064  131.0209  151.3065 LP  0  0  0  0  0  0  0  0  0  0  0  0  # atno 17371 bound_to 10713
  141.2148  133.7580  156.9612 LP  0  0  0  0  0  0  0  0  0  0  0  0  # atno 17394 bound_to 11000
  140.1203  134.9421  157.2194 LP  0  0  0  0  0  0  0  0  0  0  0  0  # atno 17395 bound_to 11000

$$$$
