AV-unprocessed.smi:2385|AV-procd|sdf|9464|dock1
  -GOLD-   2272013 93D 1   1.00000     0.00000
 Structure written by MMmdl.
 50 52  0  0  0  0  0  0  0  0  2 V2000
  151.9502  145.0026  159.9365 C   0  0  0  0  0  0  0  0  0  0  0  0
  151.4002  143.8108  159.1818 C   0  0  0  0  0  0  0  0  0  0  0  0
  152.1978  142.6760  158.9426 C   0  0  0  0  0  0  0  0  0  0  0  0
  151.6435  141.5940  158.2319 C   0  0  0  0  0  0  0  0  0  0  0  0
  150.3082  141.6719  157.7765 C   0  0  0  0  0  0  0  0  0  0  0  0
  149.8474  140.5319  157.0647 N   0  0  0  0  0  0  0  0  0  0  0  0
  148.7118  140.3987  156.3570 C   0  0  0  0  0  0  0  0  0  0  0  0
  147.8429  141.2624  156.2336 O   0  0  0  0  0  0  0  0  0  0  0  0
  148.6311  139.1874  155.7860 N   0  0  0  0  0  0  0  0  0  0  0  0
  147.5372  138.7406  154.9281 C   0  0  2  0  0  0  0  0  0  0  0  0
  147.3494  137.2155  155.0158 C   0  0  0  0  0  0  0  0  0  0  0  0
  146.2500  136.7378  154.0521 C   0  0  0  0  0  0  0  0  0  0  0  0
  146.5380  137.1501  152.6530 N   0  3  1  0  0  0  0  0  0  0  0  0
  145.5582  136.5980  151.6807 C   0  0  0  0  0  0  0  0  0  0  0  0
  145.3603  135.0785  151.8452 C   0  0  1  0  0  0  0  0  0  0  0  0
  144.2370  134.5262  150.9897 C   0  0  0  0  0  0  0  0  0  0  0  0
  144.5453  133.0324  150.9742 C   0  0  0  0  0  0  0  0  0  0  0  0
  145.9614  132.9285  151.0835 O   0  0  0  0  0  0  0  0  0  0  0  0
  146.5238  134.2036  151.3744 C   0  0  0  0  0  0  0  0  0  0  0  0
  146.6987  138.6246  152.5425 C   0  0  0  0  0  0  0  0  0  0  0  0
  147.8136  139.1358  153.4697 C   0  0  0  0  0  0  0  0  0  0  0  0
  149.5472  142.7698  158.0126 N   0  0  0  0  0  0  0  0  0  0  0  0
  150.0788  143.8062  158.6940 C   0  0  0  0  0  0  0  0  0  0  0  0
  152.5893  144.6760  160.7572 H   0  0  0  0  0  0  0  0  0  0  0  0
  151.1445  145.6072  160.3542 H   0  0  0  0  0  0  0  0  0  0  0  0
  152.5403  145.6306  159.2689 H   0  0  0  0  0  0  0  0  0  0  0  0
  153.2179  142.6329  159.2953 H   0  0  0  0  0  0  0  0  0  0  0  0
  152.2428  140.7162  158.0391 H   0  0  0  0  0  0  0  0  0  0  0  0
  150.4636  139.7329  157.0826 H   0  0  0  0  0  0  0  0  0  0  0  0
  149.3876  138.5369  155.9405 H   0  0  0  0  0  0  0  0  0  0  0  0
  146.6151  139.2319  155.2452 H   0  0  0  0  0  0  0  0  0  0  0  0
  148.2870  136.7106  154.7774 H   0  0  0  0  0  0  0  0  0  0  0  0
  147.0924  136.9239  156.0348 H   0  0  0  0  0  0  0  0  0  0  0  0
  146.1783  135.6509  154.1084 H   0  0  0  0  0  0  0  0  0  0  0  0
  145.2818  137.1376  154.3583 H   0  0  0  0  0  0  0  0  0  0  0  0
  144.5874  137.0689  151.8429 H   0  0  0  0  0  0  0  0  0  0  0  0
  145.8394  136.8540  150.6579 H   0  0  0  0  0  0  0  0  0  0  0  0
  145.1387  134.8478  152.8888 H   0  0  0  0  0  0  0  0  0  0  0  0
  143.2458  134.7492  151.3857 H   0  0  0  0  0  0  0  0  0  0  0  0
  144.2966  134.9278  149.9768 H   0  0  0  0  0  0  0  0  0  0  0  0
  144.0936  132.5405  151.8368 H   0  0  0  0  0  0  0  0  0  0  0  0
  144.1774  132.5415  150.0729 H   0  0  0  0  0  0  0  0  0  0  0  0
  146.9623  134.6009  150.4578 H   0  0  0  0  0  0  0  0  0  0  0  0
  147.3135  134.1198  152.1213 H   0  0  0  0  0  0  0  0  0  0  0  0
  146.9336  138.9043  151.5169 H   0  0  0  0  0  0  0  0  0  0  0  0
  145.7553  139.1137  152.7910 H   0  0  0  0  0  0  0  0  0  0  0  0
  147.8939  140.2202  153.3845 H   0  0  0  0  0  0  0  0  0  0  0  0
  148.7720  138.7270  153.1458 H   0  0  0  0  0  0  0  0  0  0  0  0
  149.4293  144.6546  158.8521 H   0  0  0  0  0  0  0  0  0  0  0  0
  147.4304  136.7372  152.4220 H   0  0  0  0  0  0  0  0  0  0  0  0
  1  2  1  0  0  0  0
  1 24  1  0  0  0  0
  1 25  1  0  0  0  0
  1 26  1  0  0  0  0
  2 23  1  0  0  0  0
  2  3  2  0  0  0  0
  3  4  1  0  0  0  0
  3 27  1  0  0  0  0
  4  5  2  0  0  0  0
  4 28  1  0  0  0  0
  5  6  1  0  0  0  0
  5 22  1  0  0  0  0
  6  7  1  0  0  0  0
  6 29  1  0  0  0  0
  7  8  2  0  0  0  0
  7  9  1  0  0  0  0
  9 10  1  0  0  0  0
  9 30  1  0  0  0  0
 10 21  1  0  0  0  0
 10 11  1  0  0  0  0
 10 31  1  0  0  0  0
 11 12  1  0  0  0  0
 11 32  1  0  0  0  0
 11 33  1  0  0  0  0
 12 13  1  0  0  0  0
 12 34  1  0  0  0  0
 12 35  1  0  0  0  0
 13 14  1  0  0  0  0
 13 20  1  0  0  0  0
 13 50  1  0  0  0  0
 14 15  1  0  0  0  0
 14 36  1  0  0  0  0
 14 37  1  0  0  0  0
 15 19  1  0  0  0  0
 15 16  1  0  0  0  0
 15 38  1  0  0  0  0
 16 17  1  0  0  0  0
 16 39  1  0  0  0  0
 16 40  1  0  0  0  0
 17 18  1  0  0  0  0
 17 41  1  0  0  0  0
 17 42  1  0  0  0  0
 18 19  1  0  0  0  0
 19 43  1  0  0  0  0
 19 44  1  0  0  0  0
 20 21  1  0  0  0  0
 20 45  1  0  0  0  0
 20 46  1  0  0  0  0
 21 47  1  0  0  0  0
 21 48  1  0  0  0  0
 22 23  2  0  0  0  0
 23 49  1  0  0  0  0
M  CHG  1  13   1
M  END
> <s_m_source_file>
AV-unprocessed.smi

> <i_m_source_file_index>
2385

> <i_lp_mmshare_version>
43012

> <i_f3d_flags>
0

> <s_epik_input>
W0NIM11jMVtjSF1bY0hdYyhuW2NIXTEpW05IXUMoPU8pW05IXVtDSF0yW0NIMl1bQ0gyXU4oW0NIMl1bQ0gyXTIpW0NIMl1bQ0BASF0zW0NIMl1bQ0gyXU9bQ0gyXTM=

> <s_epik_cmdline>
J2VwaWtfcHl0aG9uJywgJy1waCcsICc3LjAnLCAnLXRuJywgJzgnLCAnLW1hJywgJzIwMCcsICctbWV0YWxfYmluZGluZycsICctaW1hZScsICc8aW5maWxlLm1hZT4nLCAnLW9tYWUnLCAnPG91dGZpbGUubWFlPic=

> <r_epik_Ionization_Penalty>
0.00752367

> <r_epik_Ionization_Penalty_Charging>
0.00747775

> <r_epik_Ionization_Penalty_Neutral>
4.59207e-05

> <r_epik_State_Penalty>
0.00558817

> <r_epik_Charging_Adjusted_Penalty>
0.0130659

> <i_epik_Tot_Q>
1

> <i_epik_Tot_abs_Q>
1

> <r_epik_Metal_State_Penalty>
-0

> <b_epik_Metal_Only>
0

> <s_lp_Force_Field>
OPLS_2005

> <r_lp_Energy>
36.1133

> <b_lp_Chiralities_Consistent>
1

> <s_lp_Variant>
AV-unprocessed.smi:2385-2

> <Gold.Version>
5.8.1

> <Gold.Id.Protein>
6NUR|6NUR_protein|mol2

> <Gold.PLP.Fitness>
41.4400

> <Gold.PLP.PLP>
-33.3323

> <Gold.PLP.part.hbond>
-1.0000

> <Gold.PLP.part.metal>
0.0000

> <Gold.PLP.part.buried>
-4.3797

> <Gold.PLP.part.nonpolar>
-28.9477

> <Gold.PLP.part.repulsive>
0.7542

> <Gold.PLP.ligand.clash>
0.0000

> <Gold.PLP.ligand.torsion>
0.4731

> <Gold.PLP.Chemscore.Hbond>
2.0000

> <Gold.PLP.Chemscore.CHOScore>
1.0000

> <Gold.PLP.Chemscore.Metal>
0.0000

> <Gold.Chemscore.Hbonds>
donor molecule, donor type, donor heavy atom, donor atom, acceptor molecule, acceptor atom, score
      L1  H    13    50       P1  7948  2.00
      L1  C    23    49       P1  8029  0.96

> <Gold.PLP.Chemscore.Internal.Correction>
0.0539

> <Gold.Rescore>
     Score         DG    S(hbond)    S(metal)    S(lipo)     H(rot)  DE(clash)    DE(int)     intcor
     14.74     -16.63       1.00        0.00      97.53       1.41       0.21       1.68       ----

> <Gold.Chemscore.Fitness>
14.7398

> <Gold.Chemscore.DG>
-16.6313

> <Gold.Chemscore.ZeroCoef>
-5.4800

> <Gold.Chemscore.Hbond>
0.9997

> <Gold.Chemscore.Metal>
0.0000

> <Gold.Chemscore.Lipo>
97.5255

> <Gold.Chemscore.Internal_Hbond>
0.0000

> <Gold.Chemscore.DEClash>
0.2142

> <Gold.Chemscore.DEInternal>
1.6774

> <Gold.Chemscore.Rot>
1.4056

> <Gold.Chemscore.Internal.Correction>
   9.000000E+99

> <Gold.Chemscore.Hbonds>
donor molecule, donor type, donor heavy atom, donor atom, acceptor molecule, acceptor atom, score
      L1  H    13    50       P1  7948  1.00

> <Gold.Chemscore.Hbond.Weighted>
-3.3391

> <Gold.Chemscore.Metal.Weighted>
-0.0000

> <Gold.Chemscore.Lipo.Weighted>
-11.4105

> <Gold.Chemscore.Internal_Hbond.Weighted>
0.0000

> <Gold.Chemscore.DEClash.Weighted>
0.2142

> <Gold.Chemscore.DEInternal.Weighted>
1.6774

> <Gold.Chemscore.Rot.Weighted>
3.5982

> <Gold.Chemscore.Internal.Correction.Weighted>
   9.000000E+99

> <Gold.Protein.RotatedTorsions>
[ 6907 6896 6895 6894 ] final  -20.60 input  -60.11 | X-H torsion
[ 7974 7965 7964 7962 ] final  136.62 input  175.53 | X-H torsion
[ 8008 7997 7996 7995 ] final  -11.78 input   59.86 | X-H torsion
[ 10167 10162 10161 10158 ] final   65.56 input  -65.29 | X-H torsion
[ 10718 10713 10712 10709 ] final  163.12 input   66.30 | X-H torsion
[ 10763 10752 10751 10750 ] final   39.62 input  -60.55 | X-H torsion
[ 11005 11000 10999 10996 ] final -148.75 input  -57.11 | X-H torsion

> <Gold.Protein.ActiveResidues>
 VAL166  LYS551  ARG553  GLY616  TRP617  ASP618  TYR619  PRO620  LYS621  CYS622 
 ASP623  PHE694  ASN695  SER759  ASP760  ASP761  ALA762  ILE779  LEU786  VAL792 
 PHE793  MET794  SER795  GLU796  ALA797  LYS798  CYS799  TRP800  GLU811  SER814 

> <Gold.Protein.RotatedAtoms>
  151.2457  135.0605  159.9042 H   0  0  0  0  0  0  0  0  0  0  0  0  # atno 6907 bound_to 6896
  152.5387  134.0386  159.8067 H   0  0  0  0  0  0  0  0  0  0  0  0  # atno 6908 bound_to 6896
  151.0586  133.5514  159.2667 H   0  0  0  0  0  0  0  0  0  0  0  0  # atno 6909 bound_to 6896
  144.9547  139.4779  143.5509 H   0  0  0  0  0  0  0  0  0  0  0  0  # atno 7974 bound_to 7965
  154.5434  140.2293  155.8603 H   0  0  0  0  0  0  0  0  0  0  0  0  # atno 8008 bound_to 7997
  156.1880  140.3084  155.9238 H   0  0  0  0  0  0  0  0  0  0  0  0  # atno 8009 bound_to 7997
  155.3212  140.0440  157.3030 H   0  0  0  0  0  0  0  0  0  0  0  0  # atno 8010 bound_to 7997
  140.1099  144.4827  150.6984 H   0  0  0  0  0  0  0  0  0  0  0  0  # atno 10167 bound_to 10162
  157.1130  131.0473  151.2449 H   0  0  0  0  0  0  0  0  0  0  0  0  # atno 10718 bound_to 10713
  152.9961  135.6215  154.2495 H   0  0  0  0  0  0  0  0  0  0  0  0  # atno 10763 bound_to 10752
  154.2234  135.2795  155.2918 H   0  0  0  0  0  0  0  0  0  0  0  0  # atno 10764 bound_to 10752
  154.5510  135.5733  153.6980 H   0  0  0  0  0  0  0  0  0  0  0  0  # atno 10765 bound_to 10752
  140.7580  134.3331  157.5109 H   0  0  0  0  0  0  0  0  0  0  0  0  # atno 11005 bound_to 11000
  146.3333  139.8656  142.8849 LP  0  0  0  0  0  0  0  0  0  0  0  0  # atno 17320 bound_to 7965
  145.2791  141.0133  143.3728 LP  0  0  0  0  0  0  0  0  0  0  0  0  # atno 17321 bound_to 7965
  140.6931  143.2388  151.5076 LP  0  0  0  0  0  0  0  0  0  0  0  0  # atno 17342 bound_to 10162
  139.5625  144.2122  152.1713 LP  0  0  0  0  0  0  0  0  0  0  0  0  # atno 17343 bound_to 10162
  157.4543  130.7616  149.7178 LP  0  0  0  0  0  0  0  0  0  0  0  0  # atno 17370 bound_to 10713
  155.9846  130.3990  150.3304 LP  0  0  0  0  0  0  0  0  0  0  0  0  # atno 17371 bound_to 10713
  139.8776  134.9184  156.3201 LP  0  0  0  0  0  0  0  0  0  0  0  0  # atno 17394 bound_to 11000
  140.9690  133.7339  156.0507 LP  0  0  0  0  0  0  0  0  0  0  0  0  # atno 17395 bound_to 11000

$$$$
