AV-unprocessed.smi:2856|AV-procd|sdf|10996|dock3
  -GOLD-   2272015453D 1   1.00000     0.00000
 Structure written by MMmdl.
 37 38  0  0  0  0  0  0  0  0  1 V2000
  154.3006  141.3250  161.5496 C   0  0  0  0  0  0  0  0  0  0  0  0
  153.6598  140.7504  159.9531 S   0  0  0  0  0  0  0  0  0  0  0  0
  152.4599  142.0643  159.5628 C   0  0  1  0  0  0  0  0  0  0  0  0
  153.0960  143.4394  159.8401 C   0  0  0  0  0  0  0  0  0  0  0  0
  152.1393  144.5914  159.5006 C   0  0  0  0  0  0  0  0  0  0  0  0
  151.6747  144.5040  158.0406 C   0  0  0  0  0  0  0  0  0  0  0  0
  151.0205  143.1450  157.7524 C   0  0  0  0  0  0  0  0  0  0  0  0
  151.9585  141.9701  158.1005 C   0  0  2  0  0  0  0  0  0  0  0  0
  151.2528  140.7088  157.8879 N   0  0  0  0  0  0  0  0  0  0  0  0
  151.6201  139.7443  157.0325 C   0  0  0  0  0  0  0  0  0  0  0  0
  152.5893  139.8337  156.2785 O   0  0  0  0  0  0  0  0  0  0  0  0
  150.7985  138.6846  157.1169 N   0  0  0  0  0  0  0  0  0  0  0  0
  150.8869  137.4623  156.4039 C   0  0  0  0  0  0  0  0  0  0  0  0
  150.0903  136.3457  156.7728 C   0  0  0  0  0  0  0  0  0  0  0  0
  150.4638  135.3898  155.8704 C   0  0  0  0  0  0  0  0  0  0  0  0
  150.0456  133.9748  155.6608 C   0  0  0  0  0  0  0  0  0  0  0  0
  151.4073  135.8818  155.0222 O   0  0  0  0  0  0  0  0  0  0  0  0
  151.6739  137.2117  155.3687 N   0  0  0  0  0  0  0  0  0  0  0  0
  155.0590  140.6340  161.9169 H   0  0  0  0  0  0  0  0  0  0  0  0
  153.5056  141.3843  162.2919 H   0  0  0  0  0  0  0  0  0  0  0  0
  154.7548  142.3104  161.4455 H   0  0  0  0  0  0  0  0  0  0  0  0
  151.6108  141.9524  160.2384 H   0  0  0  0  0  0  0  0  0  0  0  0
  153.3919  143.5067  160.8878 H   0  0  0  0  0  0  0  0  0  0  0  0
  154.0107  143.5459  159.2550 H   0  0  0  0  0  0  0  0  0  0  0  0
  151.2748  144.5590  160.1651 H   0  0  0  0  0  0  0  0  0  0  0  0
  152.6313  145.5482  159.6776 H   0  0  0  0  0  0  0  0  0  0  0  0
  150.9716  145.3089  157.8246 H   0  0  0  0  0  0  0  0  0  0  0  0
  152.5265  144.6494  157.3750 H   0  0  0  0  0  0  0  0  0  0  0  0
  150.0974  143.0627  158.3282 H   0  0  0  0  0  0  0  0  0  0  0  0
  150.7328  143.0956  156.7015 H   0  0  0  0  0  0  0  0  0  0  0  0
  152.8295  142.0162  157.4434 H   0  0  0  0  0  0  0  0  0  0  0  0
  150.4389  140.5469  158.4623 H   0  0  0  0  0  0  0  0  0  0  0  0
  150.0393  138.7510  157.7783 H   0  0  0  0  0  0  0  0  0  0  0  0
  149.3655  136.2565  157.5684 H   0  0  0  0  0  0  0  0  0  0  0  0
  149.1103  133.7645  156.1802 H   0  0  0  0  0  0  0  0  0  0  0  0
  150.8041  133.2885  156.0376 H   0  0  0  0  0  0  0  0  0  0  0  0
  149.8968  133.7672  154.6010 H   0  0  0  0  0  0  0  0  0  0  0  0
  1  2  1  0  0  0  0
  1 19  1  0  0  0  0
  1 20  1  0  0  0  0
  1 21  1  0  0  0  0
  2  3  1  0  0  0  0
  3  8  1  0  0  0  0
  3  4  1  0  0  0  0
  3 22  1  0  0  0  0
  4  5  1  0  0  0  0
  4 23  1  0  0  0  0
  4 24  1  0  0  0  0
  5  6  1  0  0  0  0
  5 25  1  0  0  0  0
  5 26  1  0  0  0  0
  6  7  1  0  0  0  0
  6 27  1  0  0  0  0
  6 28  1  0  0  0  0
  7  8  1  0  0  0  0
  7 29  1  0  0  0  0
  7 30  1  0  0  0  0
  8  9  1  0  0  0  0
  8 31  1  0  0  0  0
  9 10  1  0  0  0  0
  9 32  1  0  0  0  0
 10 11  2  0  0  0  0
 10 12  1  0  0  0  0
 12 13  1  0  0  0  0
 12 33  1  0  0  0  0
 13 18  2  0  0  0  0
 13 14  1  0  0  0  0
 14 15  2  0  0  0  0
 14 34  1  0  0  0  0
 15 16  1  0  0  0  0
 15 17  1  0  0  0  0
 16 35  1  0  0  0  0
 16 36  1  0  0  0  0
 16 37  1  0  0  0  0
 17 18  1  0  0  0  0
M  END
> <s_m_source_file>
AV-unprocessed.smi

> <i_m_source_file_index>
2856

> <i_lp_mmshare_version>
43012

> <i_f3d_flags>
0

> <s_epik_input>
W0NIM11TW0NAQEhdMVtDSDJdW0NIMl1bQ0gyXVtDSDJdW0NASF0xW05IXUMoPU8pW05IXWMyW2NIXWMoW0NIM10pb24y

> <s_epik_cmdline>
J2VwaWtfcHl0aG9uJywgJy1waCcsICc3LjAnLCAnLXRuJywgJzgnLCAnLW1hJywgJzIwMCcsICctbWV0YWxfYmluZGluZycsICctaW1hZScsICc8aW5maWxlLm1hZT4nLCAnLW9tYWUnLCAnPG91dGZpbGUubWFlPic=

> <r_lp_tautomer_probability>
1

> <r_epik_Ionization_Penalty>
2.20874e-05

> <r_epik_Ionization_Penalty_Charging>
0

> <r_epik_Ionization_Penalty_Neutral>
2.20874e-05

> <r_epik_State_Penalty>
-0

> <r_epik_Charging_Adjusted_Penalty>
0

> <i_epik_Tot_Q>
0

> <i_epik_Tot_abs_Q>
0

> <r_epik_Metal_State_Penalty>
-0

> <b_epik_Metal_Only>
0

> <s_lp_Force_Field>
OPLS_2005

> <r_lp_Energy>
6.82526

> <b_lp_Chiralities_Consistent>
1

> <s_lp_Variant>
AV-unprocessed.smi:2856-4

> <Gold.Version>
5.8.1

> <Gold.Id.Protein>
6NUR|6NUR_protein|mol2

> <Gold.PLP.Fitness>
40.1454

> <Gold.PLP.PLP>
-35.1198

> <Gold.PLP.part.hbond>
-2.4490

> <Gold.PLP.part.metal>
0.0000

> <Gold.PLP.part.buried>
-4.4944

> <Gold.PLP.part.nonpolar>
-28.5243

> <Gold.PLP.part.repulsive>
0.3268

> <Gold.PLP.ligand.clash>
0.0000

> <Gold.PLP.ligand.torsion>
0.1161

> <Gold.PLP.Chemscore.Hbond>
1.7500

> <Gold.PLP.Chemscore.CHOScore>
0.0000

> <Gold.PLP.Chemscore.Metal>
0.0000

> <Gold.Chemscore.Hbonds>
donor molecule, donor type, donor heavy atom, donor atom, acceptor molecule, acceptor atom, score
      P1  H  7997  8009       L1    11  1.00
      P1  H 10752 10765       L1    17  0.70

> <Gold.PLP.Chemscore.Internal.Correction>
0.0077

> <Gold.Rescore>
     Score         DG    S(hbond)    S(metal)    S(lipo)     H(rot)  DE(clash)    DE(int)     intcor
     17.99     -19.51       1.88        0.00      92.66       1.21       0.06       1.45       ----

> <Gold.Chemscore.Fitness>
17.9945

> <Gold.Chemscore.DG>
-19.5055

> <Gold.Chemscore.ZeroCoef>
-5.4800

> <Gold.Chemscore.Hbond>
1.8817

> <Gold.Chemscore.Metal>
0.0000

> <Gold.Chemscore.Lipo>
92.6552

> <Gold.Chemscore.Internal_Hbond>
0.0000

> <Gold.Chemscore.DEClash>
0.0580

> <Gold.Chemscore.DEInternal>
1.4531

> <Gold.Chemscore.Rot>
1.2109

> <Gold.Chemscore.Internal.Correction>
   9.000000E+99

> <Gold.Chemscore.Hbonds>
donor molecule, donor type, donor heavy atom, donor atom, acceptor molecule, acceptor atom, score
      P1  H  7997  8009       L1    11  1.00
      P1  H 10752 10765       L1    17  0.07

> <Gold.Chemscore.Hbond.Weighted>
-6.2848

> <Gold.Chemscore.Metal.Weighted>
-0.0000

> <Gold.Chemscore.Lipo.Weighted>
-10.8407

> <Gold.Chemscore.Internal_Hbond.Weighted>
0.0000

> <Gold.Chemscore.DEClash.Weighted>
0.0580

> <Gold.Chemscore.DEInternal.Weighted>
1.4531

> <Gold.Chemscore.Rot.Weighted>
3.1000

> <Gold.Chemscore.Internal.Correction.Weighted>
   9.000000E+99

> <Gold.Protein.RotatedTorsions>
[ 6907 6896 6895 6894 ] final  172.96 input  -60.11 | X-H torsion
[ 7974 7965 7964 7962 ] final -159.19 input  175.53 | X-H torsion
[ 8008 7997 7996 7995 ] final -167.08 input   59.86 | X-H torsion
[ 10167 10162 10161 10158 ] final  161.05 input  -65.29 | X-H torsion
[ 10718 10713 10712 10709 ] final  140.39 input   66.30 | X-H torsion
[ 10763 10752 10751 10750 ] final -179.53 input  -60.55 | X-H torsion
[ 11005 11000 10999 10996 ] final   97.87 input  -57.11 | X-H torsion

> <Gold.Protein.ActiveResidues>
 VAL166  LYS551  ARG553  GLY616  TRP617  ASP618  TYR619  PRO620  LYS621  CYS622 
 ASP623  PHE694  ASN695  SER759  ASP760  ASP761  ALA762  ILE779  LEU786  VAL792 
 PHE793  MET794  SER795  GLU796  ALA797  LYS798  CYS799  TRP800  GLU811  SER814 

> <Gold.Protein.RotatedAtoms>
  151.7760  133.3345  159.3457 H   0  0  0  0  0  0  0  0  0  0  0  0  # atno 6907 bound_to 6896
  150.7444  134.5975  159.6029 H   0  0  0  0  0  0  0  0  0  0  0  0  # atno 6908 bound_to 6896
  152.3309  134.7262  160.0341 H   0  0  0  0  0  0  0  0  0  0  0  0  # atno 6909 bound_to 6896
  144.7475  140.3720  143.6074 H   0  0  0  0  0  0  0  0  0  0  0  0  # atno 7974 bound_to 7965
  155.8728  140.0996  157.1539 H   0  0  0  0  0  0  0  0  0  0  0  0  # atno 8008 bound_to 7997
  154.3998  140.1344  156.4162 H   0  0  0  0  0  0  0  0  0  0  0  0  # atno 8009 bound_to 7997
  155.7732  140.3460  155.5260 H   0  0  0  0  0  0  0  0  0  0  0  0  # atno 8010 bound_to 7997
  139.4845  144.4575  151.8749 H   0  0  0  0  0  0  0  0  0  0  0  0  # atno 10167 bound_to 10162
  157.4038  131.1020  151.0525 H   0  0  0  0  0  0  0  0  0  0  0  0  # atno 10718 bound_to 10713
  154.5339  135.2801  155.1155 H   0  0  0  0  0  0  0  0  0  0  0  0  # atno 10763 bound_to 10752
  154.2664  135.6312  153.5297 H   0  0  0  0  0  0  0  0  0  0  0  0  # atno 10764 bound_to 10752
  152.9963  135.5618  154.5860 H   0  0  0  0  0  0  0  0  0  0  0  0  # atno 10765 bound_to 10752
  139.8774  134.9022  156.4372 H   0  0  0  0  0  0  0  0  0  0  0  0  # atno 11005 bound_to 11000
  145.7068  139.1674  143.2561 LP  0  0  0  0  0  0  0  0  0  0  0  0  # atno 17320 bound_to 7965
  146.1376  140.7102  142.9382 LP  0  0  0  0  0  0  0  0  0  0  0  0  # atno 17321 bound_to 7965
  140.4035  144.2462  150.5892 LP  0  0  0  0  0  0  0  0  0  0  0  0  # atno 17342 bound_to 10162
  140.5035  143.2311  151.8644 LP  0  0  0  0  0  0  0  0  0  0  0  0  # atno 17343 bound_to 10162
  157.1514  130.6186  149.5583 LP  0  0  0  0  0  0  0  0  0  0  0  0  # atno 17370 bound_to 10713
  155.9830  130.4848  150.6913 LP  0  0  0  0  0  0  0  0  0  0  0  0  # atno 17371 bound_to 10713
  140.9025  133.7769  155.9697 LP  0  0  0  0  0  0  0  0  0  0  0  0  # atno 17394 bound_to 11000
  140.8635  134.2812  157.5223 LP  0  0  0  0  0  0  0  0  0  0  0  0  # atno 17395 bound_to 11000

$$$$
