AV-unprocessed.smi:3057|AV-procd|sdf|11666|dock4
  -GOLD-   2272017 73D 1   1.00000     0.00000
 Structure written by MMmdl.
 41 43  0  0  0  0  0  0  0  0  2 V2000
  152.8162  144.0246  158.6069 C   0  0  0  0  0  0  0  0  0  0  0  0
  152.1182  142.7867  159.2073 C   0  0  2  0  0  0  0  0  0  0  0  0
  152.4572  142.6224  160.6977 C   0  0  0  0  0  0  0  0  0  0  0  0
  153.6938  141.7104  160.7002 C   0  0  0  0  0  0  0  0  0  0  0  0
  153.5669  140.9797  159.3714 C   0  0  0  0  0  0  0  0  0  0  0  0
  154.2069  139.9656  159.0967 O   0  0  0  0  0  0  0  0  0  0  0  0
  152.6274  141.5656  158.6114 N   0  0  0  0  0  0  0  0  0  0  0  0
  151.9050  141.0451  157.4408 C   0  0  1  0  0  0  0  0  0  0  0  0
  151.4569  139.5805  157.6027 C   0  0  0  0  0  0  0  0  0  0  0  0
  151.6634  138.9802  158.6582 O   0  0  0  0  0  0  0  0  0  0  0  0
  150.8341  139.0252  156.5529 N   0  0  0  0  0  0  0  0  0  0  0  0
  150.3513  137.6518  156.5114 C   0  0  0  0  0  0  0  0  0  0  0  0
  151.2603  136.7863  155.6280 C   0  0  0  0  0  0  0  0  0  0  0  0
  150.7326  135.3731  155.4737 C   0  0  0  0  0  0  0  0  0  0  0  0
  151.0965  134.3335  156.3570 C   0  0  0  0  0  0  0  0  0  0  0  0
  150.5740  133.0397  156.1502 C   0  0  0  0  0  0  0  0  0  0  0  0
  149.7007  132.8127  155.0663 C   0  0  0  0  0  0  0  0  0  0  0  0
  149.3709  133.8873  154.2152 C   0  0  0  0  0  0  0  0  0  0  0  0
  149.8919  135.1125  154.4461 N   0  3  0  0  0  0  0  0  0  0  0  0
  150.7098  141.9944  157.2016 C   0  0  0  0  0  0  0  0  0  0  0  0
  150.3594  142.7650  158.8057 S   0  0  0  0  0  0  0  0  0  0  0  0
  153.8905  144.0091  158.7938 H   0  0  0  0  0  0  0  0  0  0  0  0
  152.4217  144.9430  159.0428 H   0  0  0  0  0  0  0  0  0  0  0  0
  152.6762  144.0884  157.5280 H   0  0  0  0  0  0  0  0  0  0  0  0
  152.6402  143.5747  161.1965 H   0  0  0  0  0  0  0  0  0  0  0  0
  151.6396  142.1283  161.2250 H   0  0  0  0  0  0  0  0  0  0  0  0
  154.6182  142.2885  160.7091 H   0  0  0  0  0  0  0  0  0  0  0  0
  153.6984  141.0212  161.5450 H   0  0  0  0  0  0  0  0  0  0  0  0
  152.5773  141.1063  156.5833 H   0  0  0  0  0  0  0  0  0  0  0  0
  150.6980  139.5886  155.7260 H   0  0  0  0  0  0  0  0  0  0  0  0
  150.3167  137.2375  157.5208 H   0  0  0  0  0  0  0  0  0  0  0  0
  149.3308  137.6471  156.1253 H   0  0  0  0  0  0  0  0  0  0  0  0
  151.3642  137.2391  154.6409 H   0  0  0  0  0  0  0  0  0  0  0  0
  152.2638  136.7419  156.0542 H   0  0  0  0  0  0  0  0  0  0  0  0
  151.7684  134.5217  157.1819 H   0  0  0  0  0  0  0  0  0  0  0  0
  150.8410  132.2309  156.8147 H   0  0  0  0  0  0  0  0  0  0  0  0
  149.2906  131.8290  154.8897 H   0  0  0  0  0  0  0  0  0  0  0  0
  148.7126  133.8045  153.3626 H   0  0  0  0  0  0  0  0  0  0  0  0
  150.9830  142.7746  156.4908 H   0  0  0  0  0  0  0  0  0  0  0  0
  149.8247  141.4917  156.8091 H   0  0  0  0  0  0  0  0  0  0  0  0
  149.6413  135.8751  153.8162 H   0  0  0  0  0  0  0  0  0  0  0  0
  1  2  1  0  0  0  0
  1 22  1  0  0  0  0
  1 23  1  0  0  0  0
  1 24  1  0  0  0  0
  2  7  1  0  0  0  0
  2 21  1  0  0  0  0
  2  3  1  0  0  0  0
  3  4  1  0  0  0  0
  3 25  1  0  0  0  0
  3 26  1  0  0  0  0
  4  5  1  0  0  0  0
  4 27  1  0  0  0  0
  4 28  1  0  0  0  0
  5  6  2  0  0  0  0
  5  7  1  0  0  0  0
  7  8  1  0  0  0  0
  8  9  1  0  0  0  0
  8 20  1  0  0  0  0
  8 29  1  0  0  0  0
  9 10  2  0  0  0  0
  9 11  1  0  0  0  0
 11 12  1  0  0  0  0
 11 30  1  0  0  0  0
 12 13  1  0  0  0  0
 12 31  1  0  0  0  0
 12 32  1  0  0  0  0
 13 14  1  0  0  0  0
 13 33  1  0  0  0  0
 13 34  1  0  0  0  0
 14 19  1  0  0  0  0
 14 15  2  0  0  0  0
 15 16  1  0  0  0  0
 15 35  1  0  0  0  0
 16 17  2  0  0  0  0
 16 36  1  0  0  0  0
 17 18  1  0  0  0  0
 17 37  1  0  0  0  0
 18 19  2  0  0  0  0
 18 38  1  0  0  0  0
 19 41  1  0  0  0  0
 20 21  1  0  0  0  0
 20 39  1  0  0  0  0
 20 40  1  0  0  0  0
M  CHG  1  19   1
M  END
> <s_m_source_file>
AV-unprocessed.smi

> <i_m_source_file_index>
3057

> <i_lp_mmshare_version>
43012

> <i_f3d_flags>
0

> <s_epik_input>
W0NIMl0xW0NIMl1DKD1PKU4oW0NAQF0xMltDSDNdKVtDQEhdKFtDSDJdUzIpQyg9TylbTkhdW0NIMl1bQ0gyXWMzW2NIXVtjSF1bY0hdW2NIXW4z

> <s_epik_cmdline>
J2VwaWtfcHl0aG9uJywgJy1waCcsICc3LjAnLCAnLXRuJywgJzgnLCAnLW1hJywgJzIwMCcsICctbWV0YWxfYmluZGluZycsICctaW1hZScsICc8aW5maWxlLm1hZT4nLCAnLW9tYWUnLCAnPG91dGZpbGUubWFlPic=

> <r_epik_Ionization_Penalty>
1.8888

> <r_epik_Ionization_Penalty_Charging>
1.8888

> <r_epik_Ionization_Penalty_Neutral>
1.66252e-07

> <r_epik_State_Penalty>
2.00916

> <r_epik_Charging_Adjusted_Penalty>
3.89796

> <i_epik_Tot_Q>
1

> <i_epik_Tot_abs_Q>
1

> <r_epik_Metal_State_Penalty>
2.03343

> <b_epik_Metal_Only>
0

> <s_lp_Force_Field>
OPLS_2005

> <r_lp_Energy>
32.3734

> <b_lp_Chiralities_Consistent>
1

> <s_lp_Variant>
AV-unprocessed.smi:3057-6

> <Gold.Version>
5.8.1

> <Gold.Id.Protein>
6NUR|6NUR_protein|mol2

> <Gold.PLP.Fitness>
45.8747

> <Gold.PLP.PLP>
-38.9274

> <Gold.PLP.part.hbond>
-2.1720

> <Gold.PLP.part.metal>
0.0000

> <Gold.PLP.part.buried>
-3.9111

> <Gold.PLP.part.nonpolar>
-32.1770

> <Gold.PLP.part.repulsive>
0.0858

> <Gold.PLP.ligand.clash>
0.0000

> <Gold.PLP.ligand.torsion>
0.4767

> <Gold.PLP.Chemscore.Hbond>
2.6320

> <Gold.PLP.Chemscore.CHOScore>
0.0000

> <Gold.PLP.Chemscore.Metal>
0.0000

> <Gold.Chemscore.Hbonds>
donor molecule, donor type, donor heavy atom, donor atom, acceptor molecule, acceptor atom, score
      L1  H    19    41       P1  7948  1.49
      P1  H  7997  8009       L1     6  1.00

> <Gold.PLP.Chemscore.Internal.Correction>
0.0046

> <Gold.Rescore>
     Score         DG    S(hbond)    S(metal)    S(lipo)     H(rot)  DE(clash)    DE(int)     intcor
     14.33     -17.57       1.49        0.00      96.20       1.62       0.01       3.22       ----

> <Gold.Chemscore.Fitness>
14.3339

> <Gold.Chemscore.DG>
-17.5667

> <Gold.Chemscore.ZeroCoef>
-5.4800

> <Gold.Chemscore.Hbond>
1.4933

> <Gold.Chemscore.Metal>
0.0000

> <Gold.Chemscore.Lipo>
96.1971

> <Gold.Chemscore.Internal_Hbond>
0.0000

> <Gold.Chemscore.DEClash>
0.0089

> <Gold.Chemscore.DEInternal>
3.2239

> <Gold.Chemscore.Rot>
1.6234

> <Gold.Chemscore.Internal.Correction>
   9.000000E+99

> <Gold.Chemscore.Hbonds>
donor molecule, donor type, donor heavy atom, donor atom, acceptor molecule, acceptor atom, score
      L1  H    19    41       P1  7948  0.21
      P1  H  7997  8009       L1     6  0.81

> <Gold.Chemscore.Hbond.Weighted>
-4.9875

> <Gold.Chemscore.Metal.Weighted>
-0.0000

> <Gold.Chemscore.Lipo.Weighted>
-11.2551

> <Gold.Chemscore.Internal_Hbond.Weighted>
0.0000

> <Gold.Chemscore.DEClash.Weighted>
0.0089

> <Gold.Chemscore.DEInternal.Weighted>
3.2239

> <Gold.Chemscore.Rot.Weighted>
4.1558

> <Gold.Chemscore.Internal.Correction.Weighted>
   9.000000E+99

> <Gold.Protein.RotatedTorsions>
[ 6907 6896 6895 6894 ] final   50.80 input  -60.11 | X-H torsion
[ 7974 7965 7964 7962 ] final  -55.26 input  175.53 | X-H torsion
[ 8008 7997 7996 7995 ] final  123.26 input   59.86 | X-H torsion
[ 10167 10162 10161 10158 ] final -160.43 input  -65.29 | X-H torsion
[ 10718 10713 10712 10709 ] final  -29.83 input   66.30 | X-H torsion
[ 10763 10752 10751 10750 ] final  105.97 input  -60.55 | X-H torsion
[ 11005 11000 10999 10996 ] final   46.14 input  -57.11 | X-H torsion

> <Gold.Protein.ActiveResidues>
 VAL166  LYS551  ARG553  GLY616  TRP617  ASP618  TYR619  PRO620  LYS621  CYS622 
 ASP623  PHE694  ASN695  SER759  ASP760  ASP761  ALA762  ILE779  LEU786  VAL792 
 PHE793  MET794  SER795  GLU796  ALA797  LYS798  CYS799  TRP800  GLU811  SER814 

> <Gold.Protein.RotatedAtoms>
  152.3057  134.7558  160.0347 H   0  0  0  0  0  0  0  0  0  0  0  0  # atno 6907 bound_to 6896
  151.8055  133.3370  159.3548 H   0  0  0  0  0  0  0  0  0  0  0  0  # atno 6908 bound_to 6896
  150.7295  134.5643  159.5902 H   0  0  0  0  0  0  0  0  0  0  0  0  # atno 6909 bound_to 6896
  145.8762  140.8179  142.9863 H   0  0  0  0  0  0  0  0  0  0  0  0  # atno 7974 bound_to 7965
  156.2759  140.2767  156.1599 H   0  0  0  0  0  0  0  0  0  0  0  0  # atno 8008 bound_to 7997
  155.0765  140.0387  157.2643 H   0  0  0  0  0  0  0  0  0  0  0  0  # atno 8009 bound_to 7997
  154.6998  140.2647  155.6736 H   0  0  0  0  0  0  0  0  0  0  0  0  # atno 8010 bound_to 7997
  139.6540  144.0033  152.2181 H   0  0  0  0  0  0  0  0  0  0  0  0  # atno 10167 bound_to 10162
  156.4075  130.4402  149.7277 H   0  0  0  0  0  0  0  0  0  0  0  0  # atno 10718 bound_to 10713
  153.3866  135.3892  155.1894 H   0  0  0  0  0  0  0  0  0  0  0  0  # atno 10763 bound_to 10752
  154.8714  135.3738  154.4790 H   0  0  0  0  0  0  0  0  0  0  0  0  # atno 10764 bound_to 10752
  153.5272  135.7086  153.5763 H   0  0  0  0  0  0  0  0  0  0  0  0  # atno 10765 bound_to 10752
  140.1395  134.4601  155.8460 H   0  0  0  0  0  0  0  0  0  0  0  0  # atno 11005 bound_to 11000
  144.6726  140.1314  143.7443 LP  0  0  0  0  0  0  0  0  0  0  0  0  # atno 17320 bound_to 7965
  145.9078  139.2469  143.1455 LP  0  0  0  0  0  0  0  0  0  0  0  0  # atno 17321 bound_to 7965
  139.9754  144.6465  150.7950 LP  0  0  0  0  0  0  0  0  0  0  0  0  # atno 17342 bound_to 10162
  140.7550  143.3039  151.3011 LP  0  0  0  0  0  0  0  0  0  0  0  0  # atno 17343 bound_to 10162
  156.4269  130.7796  151.2815 LP  0  0  0  0  0  0  0  0  0  0  0  0  # atno 17370 bound_to 10713
  157.7506  131.0166  150.3551 LP  0  0  0  0  0  0  0  0  0  0  0  0  # atno 17371 bound_to 10713
  141.2184  133.6828  156.7221 LP  0  0  0  0  0  0  0  0  0  0  0  0  # atno 17394 bound_to 11000
  140.2739  134.8370  157.3872 LP  0  0  0  0  0  0  0  0  0  0  0  0  # atno 17395 bound_to 11000

$$$$
