AV-unprocessed.smi:1535|AV-procd|sdf|6184|dock3
  -GOLD-   22720 6343D 1   1.00000     0.00000
 Structure written by MMmdl.
 47 48  0  0  0  0  0  0  0  0  2 V2000
  153.0780  142.9334  161.5199 C   0  0  0  0  0  0  0  0  0  0  0  0
  152.4477  142.5680  160.1872 C   0  0  0  0  0  0  0  0  0  0  0  0
  152.4371  141.2148  159.7800 C   0  0  0  0  0  0  0  0  0  0  0  0
  151.8591  140.8332  158.5499 C   0  0  0  0  0  0  0  0  0  0  0  0
  151.7401  139.5864  157.9607 N   0  0  0  0  0  0  0  0  0  0  0  0
  151.1113  139.8833  156.8274 C   0  0  0  0  0  0  0  0  0  0  0  0
  150.8204  141.1799  156.6057 N   0  0  0  0  0  0  0  0  0  0  0  0
  150.1547  141.7426  155.4450 C   0  0  0  0  0  0  0  0  0  0  0  0
  149.2285  140.7286  154.7445 C   0  0  2  0  0  0  0  0  0  0  0  0
  150.0255  139.9316  153.8922 O   0  0  0  0  0  0  0  0  0  0  0  0
  148.1145  141.3916  153.9035 C   0  0  0  0  0  0  0  0  0  0  0  0
  147.2808  142.3277  154.7026 N   0  3  1  0  0  0  0  0  0  0  0  0
  146.1947  142.9447  153.9018 C   0  0  0  0  0  0  0  0  0  0  0  0
  146.7835  141.7075  155.9595 C   0  0  0  0  0  0  0  0  0  0  0  0
  146.2825  142.7401  156.9881 C   0  0  1  0  0  0  0  0  0  0  0  0
  144.9137  143.3066  156.5901 C   0  0  0  0  0  0  0  0  0  0  0  0
  146.2346  142.1668  158.3431 C   0  0  0  0  0  0  0  0  0  0  0  0
  146.1930  141.7184  159.4081 N   0  0  0  0  0  0  0  0  0  0  0  0
  151.2902  141.8509  157.7296 C   0  0  0  0  0  0  0  0  0  0  0  0
  151.2934  143.2005  158.1242 C   0  0  0  0  0  0  0  0  0  0  0  0
  151.8732  143.5641  159.3575 C   0  0  0  0  0  0  0  0  0  0  0  0
  151.8707  145.0240  159.7755 C   0  0  0  0  0  0  0  0  0  0  0  0
  153.4952  142.0571  162.0170 H   0  0  0  0  0  0  0  0  0  0  0  0
  152.3350  143.3736  162.1853 H   0  0  0  0  0  0  0  0  0  0  0  0
  153.8854  143.6521  161.3776 H   0  0  0  0  0  0  0  0  0  0  0  0
  152.8733  140.4557  160.4126 H   0  0  0  0  0  0  0  0  0  0  0  0
  150.8565  139.1146  156.1123 H   0  0  0  0  0  0  0  0  0  0  0  0
  149.5868  142.6187  155.7626 H   0  0  0  0  0  0  0  0  0  0  0  0
  150.9201  142.0995  154.7544 H   0  0  0  0  0  0  0  0  0  0  0  0
  148.7967  140.0765  155.5025 H   0  0  0  0  0  0  0  0  0  0  0  0
  149.6162  139.8965  153.0404 H   0  0  0  0  0  0  0  0  0  0  0  0
  148.5289  141.9355  153.0535 H   0  0  0  0  0  0  0  0  0  0  0  0
  147.4981  140.5976  153.4794 H   0  0  0  0  0  0  0  0  0  0  0  0
  145.4523  142.1999  153.6119 H   0  0  0  0  0  0  0  0  0  0  0  0
  146.5780  143.4053  152.9923 H   0  0  0  0  0  0  0  0  0  0  0  0
  145.6884  143.7315  154.4591 H   0  0  0  0  0  0  0  0  0  0  0  0
  145.9980  140.9879  155.7234 H   0  0  0  0  0  0  0  0  0  0  0  0
  147.5906  141.1414  156.4268 H   0  0  0  0  0  0  0  0  0  0  0  0
  146.9770  143.5779  157.0358 H   0  0  0  0  0  0  0  0  0  0  0  0
  144.5801  144.0596  157.3050 H   0  0  0  0  0  0  0  0  0  0  0  0
  144.1559  142.5232  156.5553 H   0  0  0  0  0  0  0  0  0  0  0  0
  144.9527  143.7782  155.6077 H   0  0  0  0  0  0  0  0  0  0  0  0
  150.8518  143.9500  157.4844 H   0  0  0  0  0  0  0  0  0  0  0  0
  151.3688  145.6490  159.0363 H   0  0  0  0  0  0  0  0  0  0  0  0
  152.8915  145.3900  159.8865 H   0  0  0  0  0  0  0  0  0  0  0  0
  151.3520  145.1497  160.7263 H   0  0  0  0  0  0  0  0  0  0  0  0
  147.9053  143.0705  154.9852 H   0  0  0  0  0  0  0  0  0  0  0  0
  1  2  1  0  0  0  0
  1 23  1  0  0  0  0
  1 24  1  0  0  0  0
  1 25  1  0  0  0  0
  2 21  1  0  0  0  0
  2  3  2  0  0  0  0
  3  4  1  0  0  0  0
  3 26  1  0  0  0  0
  4 19  2  0  0  0  0
  4  5  1  0  0  0  0
  5  6  2  0  0  0  0
  6  7  1  0  0  0  0
  6 27  1  0  0  0  0
  7  8  1  0  0  0  0
  7 19  1  0  0  0  0
  8  9  1  0  0  0  0
  8 28  1  0  0  0  0
  8 29  1  0  0  0  0
  9 10  1  0  0  0  0
  9 11  1  0  0  0  0
  9 30  1  0  0  0  0
 10 31  1  0  0  0  0
 11 12  1  0  0  0  0
 11 32  1  0  0  0  0
 11 33  1  0  0  0  0
 12 13  1  0  0  0  0
 12 14  1  0  0  0  0
 12 47  1  0  0  0  0
 13 34  1  0  0  0  0
 13 35  1  0  0  0  0
 13 36  1  0  0  0  0
 14 15  1  0  0  0  0
 14 37  1  0  0  0  0
 14 38  1  0  0  0  0
 15 16  1  0  0  0  0
 15 17  1  0  0  0  0
 15 39  1  0  0  0  0
 16 40  1  0  0  0  0
 16 41  1  0  0  0  0
 16 42  1  0  0  0  0
 17 18  3  0  0  0  0
 19 20  1  0  0  0  0
 20 21  2  0  0  0  0
 20 43  1  0  0  0  0
 21 22  1  0  0  0  0
 22 44  1  0  0  0  0
 22 45  1  0  0  0  0
 22 46  1  0  0  0  0
M  CHG  1  12   1
M  END
> <s_m_source_file>
AV-unprocessed.smi

> <i_m_source_file_index>
1535

> <i_lp_mmshare_version>
43012

> <i_f3d_flags>
0

> <s_epik_input>
W0NIM11jKFtjSF0xKWMoW0NIM10pW2NIXWMoYzEyKW4oW2NIXW4yKVtDSDJdW0NASF0oW09IXSlbQ0gyXU4oW0NIM10pW0NIMl1bQ0BIXShbQ0gzXSlDI04=

> <s_epik_cmdline>
J2VwaWtfcHl0aG9uJywgJy1waCcsICc3LjAnLCAnLXRuJywgJzgnLCAnLW1hJywgJzIwMCcsICctbWV0YWxfYmluZGluZycsICctaW1hZScsICc8aW5maWxlLm1hZT4nLCAnLW9tYWUnLCAnPG91dGZpbGUubWFlPic=

> <r_epik_Ionization_Penalty>
2.21058

> <r_epik_Ionization_Penalty_Charging>
2.12381

> <r_epik_Ionization_Penalty_Neutral>
0.0867699

> <r_epik_State_Penalty>
2.36208

> <r_epik_Charging_Adjusted_Penalty>
4.48589

> <i_epik_Tot_Q>
1

> <i_epik_Tot_abs_Q>
1

> <r_epik_Metal_State_Penalty>
2.2818

> <b_epik_Metal_Only>
0

> <s_lp_Force_Field>
OPLS_2005

> <r_lp_Energy>
14.8259

> <b_lp_Chiralities_Consistent>
1

> <s_lp_Variant>
AV-unprocessed.smi:1535-15

> <Gold.Version>
5.8.1

> <Gold.Id.Protein>
6NUR|6NUR_protein|mol2

> <Gold.PLP.Fitness>
62.2614

> <Gold.PLP.PLP>
-49.0004

> <Gold.PLP.part.hbond>
-4.0000

> <Gold.PLP.part.metal>
0.0000

> <Gold.PLP.part.buried>
-6.7281

> <Gold.PLP.part.nonpolar>
-37.8146

> <Gold.PLP.part.repulsive>
0.1255

> <Gold.PLP.ligand.clash>
0.0048

> <Gold.PLP.ligand.torsion>
0.8614

> <Gold.PLP.Chemscore.Hbond>
4.8960

> <Gold.PLP.Chemscore.CHOScore>
0.0000

> <Gold.PLP.Chemscore.Metal>
0.0000

> <Gold.Chemscore.Hbonds>
donor molecule, donor type, donor heavy atom, donor atom, acceptor molecule, acceptor atom, score
      L1  H    10    31       P1  7957  1.00
      L1  H    12    47       P1  8028  2.00
      P1  H  6934  6946       L1    18  1.00
      P1  H  7989  7998       L1    10  0.88

> <Gold.PLP.Chemscore.Internal.Correction>
0.3007

> <Gold.Rescore>
     Score         DG    S(hbond)    S(metal)    S(lipo)     H(rot)  DE(clash)    DE(int)     intcor
     21.67     -23.32       3.10        0.00     120.97       2.60       0.63       1.02       ----

> <Gold.Chemscore.Fitness>
21.6680

> <Gold.Chemscore.DG>
-23.3181

> <Gold.Chemscore.ZeroCoef>
-5.4800

> <Gold.Chemscore.Hbond>
3.0984

> <Gold.Chemscore.Metal>
0.0000

> <Gold.Chemscore.Lipo>
120.9703

> <Gold.Chemscore.Internal_Hbond>
0.0000

> <Gold.Chemscore.DEClash>
0.6260

> <Gold.Chemscore.DEInternal>
1.0241

> <Gold.Chemscore.Rot>
2.6031

> <Gold.Chemscore.Internal.Correction>
   9.000000E+99

> <Gold.Chemscore.Hbonds>
donor molecule, donor type, donor heavy atom, donor atom, acceptor molecule, acceptor atom, score
      L1  H    10    31       P1  7957  0.97
      L1  H    12    47       P1  8028  0.79
      P1  H  6934  6946       L1    18  0.94
      P1  H  7989  7998       L1    10  0.15

> <Gold.Chemscore.Hbond.Weighted>
-10.3485

> <Gold.Chemscore.Metal.Weighted>
-0.0000

> <Gold.Chemscore.Lipo.Weighted>
-14.1535

> <Gold.Chemscore.Internal_Hbond.Weighted>
0.0000

> <Gold.Chemscore.DEClash.Weighted>
0.6260

> <Gold.Chemscore.DEInternal.Weighted>
1.0241

> <Gold.Chemscore.Rot.Weighted>
6.6640

> <Gold.Chemscore.Internal.Correction.Weighted>
   9.000000E+99

> <Gold.Protein.RotatedTorsions>
[ 6907 6896 6895 6894 ] final   96.08 input  -60.11 | X-H torsion
[ 7974 7965 7964 7962 ] final   31.68 input  175.53 | X-H torsion
[ 8008 7997 7996 7995 ] final  -76.53 input   59.86 | X-H torsion
[ 10167 10162 10161 10158 ] final  117.56 input  -65.29 | X-H torsion
[ 10718 10713 10712 10709 ] final   39.55 input   66.30 | X-H torsion
[ 10763 10752 10751 10750 ] final -147.11 input  -60.55 | X-H torsion
[ 11005 11000 10999 10996 ] final  -72.50 input  -57.11 | X-H torsion

> <Gold.Protein.ActiveResidues>
 VAL166  LYS551  ARG553  GLY616  TRP617  ASP618  TYR619  PRO620  LYS621  CYS622 
 ASP623  PHE694  ASN695  SER759  ASP760  ASP761  ALA762  ILE779  LEU786  VAL792 
 PHE793  MET794  SER795  GLU796  ALA797  LYS798  CYS799  TRP800  GLU811  SER814 

> <Gold.Protein.RotatedAtoms>
  152.5438  134.0941  159.8289 H   0  0  0  0  0  0  0  0  0  0  0  0  # atno 6907 bound_to 6896
  151.1027  133.5224  159.2616 H   0  0  0  0  0  0  0  0  0  0  0  0  # atno 6908 bound_to 6896
  151.1973  135.0437  159.8912 H   0  0  0  0  0  0  0  0  0  0  0  0  # atno 6909 bound_to 6896
  146.1534  139.6624  142.9083 H   0  0  0  0  0  0  0  0  0  0  0  0  # atno 7974 bound_to 7965
  154.5514  140.0725  156.8673 H   0  0  0  0  0  0  0  0  0  0  0  0  # atno 8008 bound_to 7997
  155.2986  140.3383  155.4230 H   0  0  0  0  0  0  0  0  0  0  0  0  # atno 8009 bound_to 7997
  156.1964  140.1705  156.7975 H   0  0  0  0  0  0  0  0  0  0  0  0  # atno 8010 bound_to 7997
  139.6171  144.7094  151.2716 H   0  0  0  0  0  0  0  0  0  0  0  0  # atno 10167 bound_to 10162
  157.3719  130.7706  149.7126 H   0  0  0  0  0  0  0  0  0  0  0  0  # atno 10718 bound_to 10713
  154.8302  135.3368  154.6768 H   0  0  0  0  0  0  0  0  0  0  0  0  # atno 10763 bound_to 10752
  153.7388  135.6947  153.4976 H   0  0  0  0  0  0  0  0  0  0  0  0  # atno 10764 bound_to 10752
  153.2259  135.4433  155.0492 H   0  0  0  0  0  0  0  0  0  0  0  0  # atno 10765 bound_to 10752
  141.1609  133.6849  156.7068 H   0  0  0  0  0  0  0  0  0  0  0  0  # atno 11005 bound_to 11000
  145.4767  141.0437  143.2669 LP  0  0  0  0  0  0  0  0  0  0  0  0  # atno 17320 bound_to 7965
  144.7933  139.6284  143.7104 LP  0  0  0  0  0  0  0  0  0  0  0  0  # atno 17321 bound_to 7965
  140.7358  143.6727  150.8068 LP  0  0  0  0  0  0  0  0  0  0  0  0  # atno 17342 bound_to 10162
  140.0332  143.5422  152.2751 LP  0  0  0  0  0  0  0  0  0  0  0  0  # atno 17343 bound_to 10162
  155.9757  130.4085  150.3829 LP  0  0  0  0  0  0  0  0  0  0  0  0  # atno 17370 bound_to 10713
  157.1921  131.0418  151.2695 LP  0  0  0  0  0  0  0  0  0  0  0  0  # atno 17371 bound_to 10713
  140.2917  134.8235  157.4022 LP  0  0  0  0  0  0  0  0  0  0  0  0  # atno 17394 bound_to 11000
  140.1341  134.5057  155.8082 LP  0  0  0  0  0  0  0  0  0  0  0  0  # atno 17395 bound_to 11000

$$$$
