AV-unprocessed.smi:1496|AV-procd|sdf|6057|dock4
  -GOLD-   22720 6173D 1   1.00000     0.00000
 Structure written by MMmdl.
 43 44  0  0  0  0  0  0  0  0  2 V2000
  145.9140  136.4117  155.1938 C   0  0  0  0  0  0  0  0  0  0  0  0
  145.6478  137.5267  154.1698 C   0  0  0  0  0  0  0  0  0  0  0  0
  144.1264  137.7726  154.0753 C   0  0  0  0  0  0  0  0  0  0  0  0
  146.4168  138.8061  154.5761 C   0  0  0  0  0  0  0  0  0  0  0  0
  146.4177  139.8131  153.4880 N   0  3  1  0  0  0  0  0  0  0  0  0
  147.0883  141.0754  153.8868 C   0  0  0  0  0  0  0  0  0  0  0  0
  148.6034  140.8935  154.0997 C   0  0  0  0  0  0  0  0  0  0  0  0
  149.1501  141.9330  154.9643 N   0  0  0  0  0  0  0  0  0  0  0  0
  150.0459  141.7238  155.9396 C   0  0  0  0  0  0  0  0  0  0  0  0
  150.5045  140.6133  156.2075 O   0  0  0  0  0  0  0  0  0  0  0  0
  150.3742  142.8724  156.5555 N   0  0  0  0  0  0  0  0  0  0  0  0
  151.2729  143.0696  157.6387 C   0  0  0  0  0  0  0  0  0  0  0  0
  151.7859  144.3302  158.0304 C   0  0  0  0  0  0  0  0  0  0  0  0
  152.6874  144.3914  159.1105 C   0  0  0  0  0  0  0  0  0  0  0  0
  153.0481  143.1923  159.7549 C   0  0  0  0  0  0  0  0  0  0  0  0
  152.5776  141.9828  159.3840 N   0  0  0  0  0  0  0  0  0  0  0  0
  151.7147  141.9317  158.3470 C   0  0  0  0  0  0  0  0  0  0  0  0
  146.9664  139.2207  152.2450 C   0  0  0  0  0  0  0  0  0  0  0  0
  146.1698  137.9674  151.8562 C   0  0  0  0  0  0  0  0  0  0  0  0
  146.1685  137.0341  152.9323 O   0  0  0  0  0  0  0  0  0  0  0  0
  145.5620  136.6920  156.1870 H   0  0  0  0  0  0  0  0  0  0  0  0
  146.9792  136.1905  155.2709 H   0  0  0  0  0  0  0  0  0  0  0  0
  145.4081  135.4875  154.9117 H   0  0  0  0  0  0  0  0  0  0  0  0
  143.7142  138.0405  155.0486 H   0  0  0  0  0  0  0  0  0  0  0  0
  143.6044  136.8784  153.7332 H   0  0  0  0  0  0  0  0  0  0  0  0
  143.8751  138.5833  153.3921 H   0  0  0  0  0  0  0  0  0  0  0  0
  145.9733  139.2319  155.4775 H   0  0  0  0  0  0  0  0  0  0  0  0
  147.4515  138.5609  154.8219 H   0  0  0  0  0  0  0  0  0  0  0  0
  146.9462  141.8197  153.1017 H   0  0  0  0  0  0  0  0  0  0  0  0
  146.6084  141.4765  154.7808 H   0  0  0  0  0  0  0  0  0  0  0  0
  148.8339  139.9175  154.5273 H   0  0  0  0  0  0  0  0  0  0  0  0
  149.1213  140.9420  153.1413 H   0  0  0  0  0  0  0  0  0  0  0  0
  148.8287  142.8772  154.8057 H   0  0  0  0  0  0  0  0  0  0  0  0
  149.9749  143.7149  156.1679 H   0  0  0  0  0  0  0  0  0  0  0  0
  151.5209  145.2428  157.5197 H   0  0  0  0  0  0  0  0  0  0  0  0
  153.0967  145.3367  159.4350 H   0  0  0  0  0  0  0  0  0  0  0  0
  153.7371  143.2044  160.5864 H   0  0  0  0  0  0  0  0  0  0  0  0
  151.3611  140.9474  158.0766 H   0  0  0  0  0  0  0  0  0  0  0  0
  146.9273  139.9373  151.4257 H   0  0  0  0  0  0  0  0  0  0  0  0
  148.0166  138.9636  152.3931 H   0  0  0  0  0  0  0  0  0  0  0  0
  145.1520  138.2249  151.5636 H   0  0  0  0  0  0  0  0  0  0  0  0
  146.6272  137.4928  150.9880 H   0  0  0  0  0  0  0  0  0  0  0  0
  145.4497  140.0409  153.3107 H   0  0  0  0  0  0  0  0  0  0  0  0
  1  2  1  0  0  0  0
  1 21  1  0  0  0  0
  1 22  1  0  0  0  0
  1 23  1  0  0  0  0
  2 20  1  0  0  0  0
  2  3  1  0  0  0  0
  2  4  1  0  0  0  0
  3 24  1  0  0  0  0
  3 25  1  0  0  0  0
  3 26  1  0  0  0  0
  4  5  1  0  0  0  0
  4 27  1  0  0  0  0
  4 28  1  0  0  0  0
  5  6  1  0  0  0  0
  5 18  1  0  0  0  0
  5 43  1  0  0  0  0
  6  7  1  0  0  0  0
  6 29  1  0  0  0  0
  6 30  1  0  0  0  0
  7  8  1  0  0  0  0
  7 31  1  0  0  0  0
  7 32  1  0  0  0  0
  8  9  1  0  0  0  0
  8 33  1  0  0  0  0
  9 10  2  0  0  0  0
  9 11  1  0  0  0  0
 11 12  1  0  0  0  0
 11 34  1  0  0  0  0
 12 17  1  0  0  0  0
 12 13  2  0  0  0  0
 13 14  1  0  0  0  0
 13 35  1  0  0  0  0
 14 15  2  0  0  0  0
 14 36  1  0  0  0  0
 15 16  1  0  0  0  0
 15 37  1  0  0  0  0
 16 17  2  0  0  0  0
 17 38  1  0  0  0  0
 18 19  1  0  0  0  0
 18 39  1  0  0  0  0
 18 40  1  0  0  0  0
 19 20  1  0  0  0  0
 19 41  1  0  0  0  0
 19 42  1  0  0  0  0
M  CHG  1   5   1
M  END
> <s_m_source_file>
AV-unprocessed.smi

> <i_m_source_file_index>
1496

> <i_lp_mmshare_version>
43012

> <i_f3d_flags>
0

> <s_epik_input>
W0NIM11DMShbQ0gzXSlbQ0gyXU4oW0NIMl1bQ0gyXU8xKVtDSDJdW0NIMl1bTkhdQyg9TylbTkhdYzJbY0hdW2NIXVtjSF1uW2NIXTI=

> <s_epik_cmdline>
J2VwaWtfcHl0aG9uJywgJy1waCcsICc3LjAnLCAnLXRuJywgJzgnLCAnLW1hJywgJzIwMCcsICctbWV0YWxfYmluZGluZycsICctaW1hZScsICc8aW5maWxlLm1hZT4nLCAnLW9tYWUnLCAnPG91dGZpbGUubWFlPic=

> <r_epik_Ionization_Penalty>
0.606681

> <r_epik_Ionization_Penalty_Charging>
0.602531

> <r_epik_Ionization_Penalty_Neutral>
0.00415082

> <r_epik_State_Penalty>
0.607427

> <r_epik_Charging_Adjusted_Penalty>
1.20996

> <i_epik_Tot_Q>
1

> <i_epik_Tot_abs_Q>
1

> <r_epik_Metal_State_Penalty>
0.604583

> <b_epik_Metal_Only>
0

> <s_lp_Force_Field>
OPLS_2005

> <r_lp_Energy>
21.2927

> <b_lp_Chiralities_Consistent>
1

> <s_lp_Variant>
AV-unprocessed.smi:1496-3

> <Gold.Version>
5.8.1

> <Gold.Id.Protein>
6NUR|6NUR_protein|mol2

> <Gold.PLP.Fitness>
47.3404

> <Gold.PLP.PLP>
-36.3639

> <Gold.PLP.part.hbond>
-3.0000

> <Gold.PLP.part.metal>
0.0000

> <Gold.PLP.part.buried>
-1.5263

> <Gold.PLP.part.nonpolar>
-32.2184

> <Gold.PLP.part.repulsive>
1.0241

> <Gold.PLP.ligand.clash>
0.0000

> <Gold.PLP.ligand.torsion>
0.2944

> <Gold.PLP.Chemscore.Hbond>
3.8480

> <Gold.PLP.Chemscore.CHOScore>
0.0000

> <Gold.PLP.Chemscore.Metal>
0.0000

> <Gold.Chemscore.Hbonds>
donor molecule, donor type, donor heavy atom, donor atom, acceptor molecule, acceptor atom, score
      L1  H     5    43       P1 10175  2.00
      L1  H     8    33       P1  8028  0.83
      L1  H    11    34       P1  8028  1.00

> <Gold.PLP.Chemscore.Internal.Correction>
0.0213

> <Gold.Rescore>
     Score         DG    S(hbond)    S(metal)    S(lipo)     H(rot)  DE(clash)    DE(int)     intcor
     20.52     -22.46       2.88        0.00      95.77       1.50       0.22       1.73       ----

> <Gold.Chemscore.Fitness>
20.5169

> <Gold.Chemscore.DG>
-22.4603

> <Gold.Chemscore.ZeroCoef>
-5.4800

> <Gold.Chemscore.Hbond>
2.8797

> <Gold.Chemscore.Metal>
0.0000

> <Gold.Chemscore.Lipo>
95.7657

> <Gold.Chemscore.Internal_Hbond>
0.0000

> <Gold.Chemscore.DEClash>
0.2171

> <Gold.Chemscore.DEInternal>
1.7262

> <Gold.Chemscore.Rot>
1.5010

> <Gold.Chemscore.Internal.Correction>
   9.000000E+99

> <Gold.Chemscore.Hbonds>
donor molecule, donor type, donor heavy atom, donor atom, acceptor molecule, acceptor atom, score
      L1  H     5    43       P1 10175  0.96
      L1  H     8    33       P1  8028  0.79
      L1  H    11    34       P1  8028  0.96

> <Gold.Chemscore.Hbond.Weighted>
-9.6183

> <Gold.Chemscore.Metal.Weighted>
-0.0000

> <Gold.Chemscore.Lipo.Weighted>
-11.2046

> <Gold.Chemscore.Internal_Hbond.Weighted>
0.0000

> <Gold.Chemscore.DEClash.Weighted>
0.2171

> <Gold.Chemscore.DEInternal.Weighted>
1.7262

> <Gold.Chemscore.Rot.Weighted>
3.8426

> <Gold.Chemscore.Internal.Correction.Weighted>
   9.000000E+99

> <Gold.Protein.RotatedTorsions>
[ 6907 6896 6895 6894 ] final   -5.96 input  -60.11 | X-H torsion
[ 7974 7965 7964 7962 ] final   45.97 input  175.53 | X-H torsion
[ 8008 7997 7996 7995 ] final  167.23 input   59.86 | X-H torsion
[ 10167 10162 10161 10158 ] final  166.04 input  -65.29 | X-H torsion
[ 10718 10713 10712 10709 ] final  167.61 input   66.30 | X-H torsion
[ 10763 10752 10751 10750 ] final   35.24 input  -60.55 | X-H torsion
[ 11005 11000 10999 10996 ] final   31.15 input  -57.11 | X-H torsion

> <Gold.Protein.ActiveResidues>
 VAL166  LYS551  ARG553  GLY616  TRP617  ASP618  TYR619  PRO620  LYS621  CYS622 
 ASP623  PHE694  ASN695  SER759  ASP760  ASP761  ALA762  ILE779  LEU786  VAL792 
 PHE793  MET794  SER795  GLU796  ALA797  LYS798  CYS799  TRP800  GLU811  SER814 

> <Gold.Protein.RotatedAtoms>
  151.4733  135.1047  159.9757 H   0  0  0  0  0  0  0  0  0  0  0  0  # atno 6907 bound_to 6896
  152.4808  133.8246  159.7082 H   0  0  0  0  0  0  0  0  0  0  0  0  # atno 6908 bound_to 6896
  150.8879  133.7222  159.2940 H   0  0  0  0  0  0  0  0  0  0  0  0  # atno 6909 bound_to 6896
  146.0432  139.4907  142.9765 H   0  0  0  0  0  0  0  0  0  0  0  0  # atno 7974 bound_to 7965
  156.1652  140.1622  156.8544 H   0  0  0  0  0  0  0  0  0  0  0  0  # atno 8008 bound_to 7997
  154.5200  140.0780  156.8189 H   0  0  0  0  0  0  0  0  0  0  0  0  # atno 8009 bound_to 7997
  155.3627  140.3396  155.4243 H   0  0  0  0  0  0  0  0  0  0  0  0  # atno 8010 bound_to 7997
  139.4917  144.4069  151.9345 H   0  0  0  0  0  0  0  0  0  0  0  0  # atno 10167 bound_to 10162
  157.0490  131.0308  151.2687 H   0  0  0  0  0  0  0  0  0  0  0  0  # atno 10718 bound_to 10713
  153.0128  135.6338  154.1796 H   0  0  0  0  0  0  0  0  0  0  0  0  # atno 10763 bound_to 10752
  154.1537  135.2827  155.3130 H   0  0  0  0  0  0  0  0  0  0  0  0  # atno 10764 bound_to 10752
  154.6034  135.5580  153.7459 H   0  0  0  0  0  0  0  0  0  0  0  0  # atno 10765 bound_to 10752
  140.2869  134.2909  155.7786 H   0  0  0  0  0  0  0  0  0  0  0  0  # atno 11005 bound_to 11000
  145.6849  141.0181  143.1586 LP  0  0  0  0  0  0  0  0  0  0  0  0  # atno 17320 bound_to 7965
  144.7085  139.8464  143.7422 LP  0  0  0  0  0  0  0  0  0  0  0  0  # atno 17321 bound_to 7965
  140.3509  144.3089  150.5949 LP  0  0  0  0  0  0  0  0  0  0  0  0  # atno 17342 bound_to 10162
  140.5485  143.2210  151.7966 LP  0  0  0  0  0  0  0  0  0  0  0  0  # atno 17343 bound_to 10162
  157.5045  130.7900  149.7639 LP  0  0  0  0  0  0  0  0  0  0  0  0  # atno 17370 bound_to 10713
  156.0014  130.3878  150.2593 LP  0  0  0  0  0  0  0  0  0  0  0  0  # atno 17371 bound_to 10713
  141.2153  133.7560  156.9565 LP  0  0  0  0  0  0  0  0  0  0  0  0  # atno 17394 bound_to 11000
  140.1231  134.9404  157.2232 LP  0  0  0  0  0  0  0  0  0  0  0  0  # atno 17395 bound_to 11000

$$$$
