AV-unprocessed.smi:2490|AV-procd|sdf|9807|dock6
  -GOLD-   2272013443D 1   1.00000     0.00000
 Structure written by MMmdl.
 33 34  0  0  0  0  0  0  0  0  1 V2000
  148.5249  135.3629  157.4178 C   0  0  0  0  0  0  0  0  0  0  0  0
  149.3997  136.4660  157.0520 N   0  0  0  0  0  0  0  0  0  0  0  0
  150.2275  137.0907  157.9027 C   0  0  0  0  0  0  0  0  0  0  0  0
  150.3274  136.7769  159.0897 O   0  0  0  0  0  0  0  0  0  0  0  0
  151.0806  138.2238  157.3152 C   0  0  2  0  0  0  0  0  0  0  0  0
  150.8113  139.5863  157.9934 C   0  0  0  0  0  0  0  0  0  0  0  0
  151.5742  140.6416  157.3394 N   0  0  0  0  0  0  0  0  0  0  0  0
  151.6514  141.8535  157.9991 C   0  0  0  0  0  0  0  0  0  0  0  0
  152.1569  141.8522  159.2386 N   0  0  0  0  0  0  0  0  0  0  0  0
  152.2261  143.0433  159.8713 C   0  0  0  0  0  0  0  0  0  0  0  0
  151.7864  144.2342  159.2575 C   0  0  0  0  0  0  0  0  0  0  0  0
  151.8648  145.5685  159.9678 C   0  0  0  0  0  0  0  0  0  0  0  0
  151.2725  144.1112  157.9495 C   0  0  0  0  0  0  0  0  0  0  0  0
  151.2060  142.9165  157.3236 N   0  0  0  0  0  0  0  0  0  0  0  0
  151.3392  140.6923  155.9033 C   0  0  0  0  0  0  0  0  0  0  0  0
  151.6025  139.3142  155.2757 C   0  0  0  0  0  0  0  0  0  0  0  0
  150.7945  138.3347  155.9201 O   0  0  0  0  0  0  0  0  0  0  0  0
  147.9679  135.0255  156.5437 H   0  0  0  0  0  0  0  0  0  0  0  0
  147.8088  135.6722  158.1802 H   0  0  0  0  0  0  0  0  0  0  0  0
  149.1011  134.5198  157.8012 H   0  0  0  0  0  0  0  0  0  0  0  0
  149.3743  136.7806  156.0927 H   0  0  0  0  0  0  0  0  0  0  0  0
  152.1287  137.9481  157.4456 H   0  0  0  0  0  0  0  0  0  0  0  0
  149.7489  139.8308  157.9484 H   0  0  0  0  0  0  0  0  0  0  0  0
  151.0879  139.5439  159.0480 H   0  0  0  0  0  0  0  0  0  0  0  0
  152.6337  143.0443  160.8715 H   0  0  0  0  0  0  0  0  0  0  0  0
  151.4467  146.3665  159.3536 H   0  0  0  0  0  0  0  0  0  0  0  0
  152.9025  145.8165  160.1916 H   0  0  0  0  0  0  0  0  0  0  0  0
  151.3089  145.5311  160.9048 H   0  0  0  0  0  0  0  0  0  0  0  0
  150.9134  144.9705  157.4020 H   0  0  0  0  0  0  0  0  0  0  0  0
  150.3099  141.0011  155.7154 H   0  0  0  0  0  0  0  0  0  0  0  0
  151.9887  141.4414  155.4484 H   0  0  0  0  0  0  0  0  0  0  0  0
  151.3595  139.3319  154.2134 H   0  0  0  0  0  0  0  0  0  0  0  0
  152.6564  139.0437  155.3582 H   0  0  0  0  0  0  0  0  0  0  0  0
  1  2  1  0  0  0  0
  1 18  1  0  0  0  0
  1 19  1  0  0  0  0
  1 20  1  0  0  0  0
  2  3  1  0  0  0  0
  2 21  1  0  0  0  0
  3  4  2  0  0  0  0
  3  5  1  0  0  0  0
  5 17  1  0  0  0  0
  5  6  1  0  0  0  0
  5 22  1  0  0  0  0
  6  7  1  0  0  0  0
  6 23  1  0  0  0  0
  6 24  1  0  0  0  0
  7  8  1  0  0  0  0
  7 15  1  0  0  0  0
  8 14  1  0  0  0  0
  8  9  2  0  0  0  0
  9 10  1  0  0  0  0
 10 11  2  0  0  0  0
 10 25  1  0  0  0  0
 11 12  1  0  0  0  0
 11 13  1  0  0  0  0
 12 26  1  0  0  0  0
 12 27  1  0  0  0  0
 12 28  1  0  0  0  0
 13 14  2  0  0  0  0
 13 29  1  0  0  0  0
 15 16  1  0  0  0  0
 15 30  1  0  0  0  0
 15 31  1  0  0  0  0
 16 17  1  0  0  0  0
 16 32  1  0  0  0  0
 16 33  1  0  0  0  0
M  END
> <s_m_source_file>
AV-unprocessed.smi

> <i_m_source_file_index>
2490

> <i_lp_mmshare_version>
43012

> <i_f3d_flags>
0

> <s_epik_input>
W0NIM11bTkhdQyg9TylbQ0BASF0xW0NIMl1OKFtDSDJdW0NIMl1PMSljMm5bY0hdYyhbQ0gzXSlbY0hdbjI=

> <s_epik_cmdline>
J2VwaWtfcHl0aG9uJywgJy1waCcsICc3LjAnLCAnLXRuJywgJzgnLCAnLW1hJywgJzIwMCcsICctbWV0YWxfYmluZGluZycsICctaW1hZScsICc8aW5maWxlLm1hZT4nLCAnLW9tYWUnLCAnPG91dGZpbGUubWFlPic=

> <r_lp_tautomer_probability>
1

> <r_epik_Ionization_Penalty>
8.72552e-06

> <r_epik_Ionization_Penalty_Charging>
0

> <r_epik_Ionization_Penalty_Neutral>
8.72552e-06

> <r_epik_State_Penalty>
-0

> <r_epik_Charging_Adjusted_Penalty>
0

> <i_epik_Tot_Q>
0

> <i_epik_Tot_abs_Q>
0

> <r_epik_Metal_State_Penalty>
-0

> <b_epik_Metal_Only>
0

> <s_lp_Force_Field>
OPLS_2005

> <r_lp_Energy>
12.5382

> <b_lp_Chiralities_Consistent>
1

> <s_lp_Variant>
AV-unprocessed.smi:2490-1

> <Gold.Version>
5.8.1

> <Gold.Id.Protein>
6NUR|6NUR_protein|mol2

> <Gold.PLP.Fitness>
35.8168

> <Gold.PLP.PLP>
-30.2668

> <Gold.PLP.part.hbond>
-1.0000

> <Gold.PLP.part.metal>
0.0000

> <Gold.PLP.part.buried>
-4.6148

> <Gold.PLP.part.nonpolar>
-25.2787

> <Gold.PLP.part.repulsive>
0.1743

> <Gold.PLP.ligand.clash>
0.0000

> <Gold.PLP.ligand.torsion>
0.1906

> <Gold.PLP.Chemscore.Hbond>
1.0000

> <Gold.PLP.Chemscore.CHOScore>
0.8815

> <Gold.PLP.Chemscore.Metal>
0.0000

> <Gold.Chemscore.Hbonds>
donor molecule, donor type, donor heavy atom, donor atom, acceptor molecule, acceptor atom, score
      P1  H  6896  6907       L1     4  1.00
      L1  C    13    29       P1  8028  0.61

> <Gold.PLP.Chemscore.Internal.Correction>
0.2866

> <Gold.Rescore>
     Score         DG    S(hbond)    S(metal)    S(lipo)     H(rot)  DE(clash)    DE(int)     intcor
     14.03     -14.23       1.00        0.00      74.98       1.31       0.03       0.17       ----

> <Gold.Chemscore.Fitness>
14.0321

> <Gold.Chemscore.DG>
-14.2334

> <Gold.Chemscore.ZeroCoef>
-5.4800

> <Gold.Chemscore.Hbond>
0.9975

> <Gold.Chemscore.Metal>
0.0000

> <Gold.Chemscore.Lipo>
74.9799

> <Gold.Chemscore.Internal_Hbond>
0.0000

> <Gold.Chemscore.DEClash>
0.0274

> <Gold.Chemscore.DEInternal>
0.1740

> <Gold.Chemscore.Rot>
1.3089

> <Gold.Chemscore.Internal.Correction>
   9.000000E+99

> <Gold.Chemscore.Hbonds>
donor molecule, donor type, donor heavy atom, donor atom, acceptor molecule, acceptor atom, score
      P1  H  6896  6907       L1     4  0.94

> <Gold.Chemscore.Hbond.Weighted>
-3.3316

> <Gold.Chemscore.Metal.Weighted>
-0.0000

> <Gold.Chemscore.Lipo.Weighted>
-8.7726

> <Gold.Chemscore.Internal_Hbond.Weighted>
0.0000

> <Gold.Chemscore.DEClash.Weighted>
0.0274

> <Gold.Chemscore.DEInternal.Weighted>
0.1740

> <Gold.Chemscore.Rot.Weighted>
3.3509

> <Gold.Chemscore.Internal.Correction.Weighted>
   9.000000E+99

> <Gold.Protein.RotatedTorsions>
[ 6907 6896 6895 6894 ] final  -28.43 input  -60.11 | X-H torsion
[ 7974 7965 7964 7962 ] final  121.86 input  175.53 | X-H torsion
[ 8008 7997 7996 7995 ] final  -75.40 input   59.86 | X-H torsion
[ 10167 10162 10161 10158 ] final  -96.42 input  -65.29 | X-H torsion
[ 10718 10713 10712 10709 ] final -171.75 input   66.30 | X-H torsion
[ 10763 10752 10751 10750 ] final  -95.10 input  -60.55 | X-H torsion
[ 11005 11000 10999 10996 ] final  -33.99 input  -57.11 | X-H torsion

> <Gold.Protein.ActiveResidues>
 VAL166  LYS551  ARG553  GLY616  TRP617  ASP618  TYR619  PRO620  LYS621  CYS622 
 ASP623  PHE694  ASN695  SER759  ASP760  ASP761  ALA762  ILE779  LEU786  VAL792 
 PHE793  MET794  SER795  GLU796  ALA797  LYS798  CYS799  TRP800  GLU811  SER814 

> <Gold.Protein.RotatedAtoms>
  151.1331  135.0141  159.8591 H   0  0  0  0  0  0  0  0  0  0  0  0  # atno 6907 bound_to 6896
  152.5451  134.1587  159.8559 H   0  0  0  0  0  0  0  0  0  0  0  0  # atno 6908 bound_to 6896
  151.1655  133.4772  159.2627 H   0  0  0  0  0  0  0  0  0  0  0  0  # atno 6909 bound_to 6896
  145.1143  139.3432  143.4747 H   0  0  0  0  0  0  0  0  0  0  0  0  # atno 7974 bound_to 7965
  154.5413  140.0745  156.8515 H   0  0  0  0  0  0  0  0  0  0  0  0  # atno 8008 bound_to 7997
  155.3175  140.3394  155.4224 H   0  0  0  0  0  0  0  0  0  0  0  0  # atno 8009 bound_to 7997
  156.1877  140.1675  156.8139 H   0  0  0  0  0  0  0  0  0  0  0  0  # atno 8010 bound_to 7997
  140.2939  143.3204  152.0317 H   0  0  0  0  0  0  0  0  0  0  0  0  # atno 10167 bound_to 10162
  156.7455  130.9358  151.3112 H   0  0  0  0  0  0  0  0  0  0  0  0  # atno 10718 bound_to 10713
  154.7117  135.5133  153.8677 H   0  0  0  0  0  0  0  0  0  0  0  0  # atno 10763 bound_to 10752
  153.0786  135.6624  154.0101 H   0  0  0  0  0  0  0  0  0  0  0  0  # atno 10764 bound_to 10752
  153.9942  135.3017  155.3388 H   0  0  0  0  0  0  0  0  0  0  0  0  # atno 10765 bound_to 10752
  140.9679  133.7126  156.1476 H   0  0  0  0  0  0  0  0  0  0  0  0  # atno 11005 bound_to 11000
  146.3524  140.1075  142.8605 LP  0  0  0  0  0  0  0  0  0  0  0  0  # atno 17320 bound_to 7965
  145.0812  140.9222  143.4824 LP  0  0  0  0  0  0  0  0  0  0  0  0  # atno 17321 bound_to 7965
  139.4931  144.6505  151.6686 LP  0  0  0  0  0  0  0  0  0  0  0  0  # atno 17342 bound_to 10162
  140.5708  144.0111  150.6216 LP  0  0  0  0  0  0  0  0  0  0  0  0  # atno 17343 bound_to 10162
  157.6800  130.9131  150.0244 LP  0  0  0  0  0  0  0  0  0  0  0  0  # atno 17370 bound_to 10713
  156.1436  130.3642  149.9544 LP  0  0  0  0  0  0  0  0  0  0  0  0  # atno 17371 bound_to 10713
  140.7372  134.4190  157.5559 LP  0  0  0  0  0  0  0  0  0  0  0  0  # atno 17394 bound_to 11000
  139.8901  134.8812  156.2385 LP  0  0  0  0  0  0  0  0  0  0  0  0  # atno 17395 bound_to 11000

$$$$
