AV-unprocessed.smi:2038|AV-procd|sdf|8280|dock6
  -GOLD-   2272010553D 1   1.00000     0.00000
 Structure written by MMmdl.
 33 34  0  0  0  0  0  0  0  0  1 V2000
  150.6684  141.1561  158.9322 O   0  0  0  0  0  0  0  0  0  0  0  0
  150.7210  141.8633  157.9257 C   0  0  0  0  0  0  0  0  0  0  0  0
  150.8720  141.3965  156.6726 N   0  0  0  0  0  0  0  0  0  0  0  0
  150.9777  140.0468  156.2409 C   0  0  0  0  0  0  0  0  0  0  0  0
  150.7838  139.0273  157.1944 C   0  0  0  0  0  0  0  0  0  0  0  0
  150.9033  137.6826  156.7959 C   0  0  0  0  0  0  0  0  0  0  0  0
  151.2255  137.3982  155.4542 C   0  0  0  0  0  0  0  0  0  0  0  0
  151.3408  136.0787  155.0688 O   0  0  0  0  0  0  0  0  0  0  0  0
  150.8361  135.0695  155.9397 C   0  0  0  0  0  0  0  0  0  0  0  0
  149.5429  134.4937  155.3509 C   0  0  0  0  0  0  0  0  0  0  0  0
  149.0689  133.5518  156.1657 F   0  0  0  0  0  0  0  0  0  0  0  0
  148.6258  135.4528  155.2269 F   0  0  0  0  0  0  0  0  0  0  0  0
  149.7826  133.9466  154.1594 F   0  0  0  0  0  0  0  0  0  0  0  0
  151.4306  138.3716  154.5327 N   0  0  0  0  0  0  0  0  0  0  0  0
  151.3121  139.6595  154.9205 C   0  0  0  0  0  0  0  0  0  0  0  0
  150.6228  143.3875  158.0609 C   0  0  2  0  0  0  0  0  0  0  0  0
  151.9028  144.1339  157.6405 C   0  0  0  0  0  0  0  0  0  0  0  0
  152.4690  144.6426  158.9515 C   0  0  0  0  0  0  0  0  0  0  0  0
  151.2076  144.8313  159.7814 C   0  0  0  0  0  0  0  0  0  0  0  0
  150.4252  143.6978  159.4395 O   0  0  0  0  0  0  0  0  0  0  0  0
  150.9847  142.0946  155.9518 H   0  0  0  0  0  0  0  0  0  0  0  0
  150.5410  139.2691  158.2189 H   0  0  0  0  0  0  0  0  0  0  0  0
  150.7519  136.8837  157.5066 H   0  0  0  0  0  0  0  0  0  0  0  0
  151.5707  134.2712  156.0598 H   0  0  0  0  0  0  0  0  0  0  0  0
  150.6344  135.4893  156.9268 H   0  0  0  0  0  0  0  0  0  0  0  0
  151.5154  140.3840  154.1473 H   0  0  0  0  0  0  0  0  0  0  0  0
  149.7741  143.7643  157.4872 H   0  0  0  0  0  0  0  0  0  0  0  0
  152.6210  143.5185  157.0965 H   0  0  0  0  0  0  0  0  0  0  0  0
  151.6419  144.9744  156.9962 H   0  0  0  0  0  0  0  0  0  0  0  0
  153.1049  143.8818  159.4062 H   0  0  0  0  0  0  0  0  0  0  0  0
  153.0510  145.5578  158.8417 H   0  0  0  0  0  0  0  0  0  0  0  0
  151.4080  144.8740  160.8522 H   0  0  0  0  0  0  0  0  0  0  0  0
  150.6809  145.7411  159.4895 H   0  0  0  0  0  0  0  0  0  0  0  0
  1  2  2  0  0  0  0
  2  3  1  0  0  0  0
  2 16  1  0  0  0  0
  3  4  1  0  0  0  0
  3 21  1  0  0  0  0
  4 15  1  0  0  0  0
  4  5  2  0  0  0  0
  5  6  1  0  0  0  0
  5 22  1  0  0  0  0
  6  7  2  0  0  0  0
  6 23  1  0  0  0  0
  7  8  1  0  0  0  0
  7 14  1  0  0  0  0
  8  9  1  0  0  0  0
  9 10  1  0  0  0  0
  9 24  1  0  0  0  0
  9 25  1  0  0  0  0
 10 11  1  0  0  0  0
 10 12  1  0  0  0  0
 10 13  1  0  0  0  0
 14 15  2  0  0  0  0
 15 26  1  0  0  0  0
 16 20  1  0  0  0  0
 16 17  1  0  0  0  0
 16 27  1  0  0  0  0
 17 18  1  0  0  0  0
 17 28  1  0  0  0  0
 17 29  1  0  0  0  0
 18 19  1  0  0  0  0
 18 30  1  0  0  0  0
 18 31  1  0  0  0  0
 19 20  1  0  0  0  0
 19 32  1  0  0  0  0
 19 33  1  0  0  0  0
M  END
> <s_m_source_file>
AV-unprocessed.smi

> <i_m_source_file_index>
2038

> <i_lp_mmshare_version>
43012

> <i_f3d_flags>
0

> <s_epik_input>
TzFbQ0gyXVtDSDJdW0NIMl1bQ0BIXTFDKD1PKVtOSF1jMltjSF1bY0hdYyhuW2NIXTIpT1tDSDJdQyhGKShGKUY=

> <s_epik_cmdline>
J2VwaWtfcHl0aG9uJywgJy1waCcsICc3LjAnLCAnLXRuJywgJzgnLCAnLW1hJywgJzIwMCcsICctbWV0YWxfYmluZGluZycsICctaW1hZScsICc8aW5maWxlLm1hZT4nLCAnLW9tYWUnLCAnPG91dGZpbGUubWFlPic=

> <r_lp_tautomer_probability>
1

> <r_epik_Ionization_Penalty>
2.73305e-06

> <r_epik_Ionization_Penalty_Charging>
0

> <r_epik_Ionization_Penalty_Neutral>
2.73305e-06

> <r_epik_State_Penalty>
-0

> <r_epik_Charging_Adjusted_Penalty>
0

> <i_epik_Tot_Q>
0

> <i_epik_Tot_abs_Q>
0

> <r_epik_Metal_State_Penalty>
-0

> <b_epik_Metal_Only>
0

> <s_lp_Force_Field>
OPLS_2005

> <r_lp_Energy>
22.8429

> <b_lp_Chiralities_Consistent>
1

> <s_lp_Variant>
AV-unprocessed.smi:2038-1

> <Gold.Version>
5.8.1

> <Gold.Id.Protein>
6NUR|6NUR_protein|mol2

> <Gold.PLP.Fitness>
34.6707

> <Gold.PLP.PLP>
-32.7360

> <Gold.PLP.part.hbond>
-1.3198

> <Gold.PLP.part.metal>
0.0000

> <Gold.PLP.part.buried>
-4.0437

> <Gold.PLP.part.nonpolar>
-28.1510

> <Gold.PLP.part.repulsive>
0.4432

> <Gold.PLP.ligand.clash>
0.0000

> <Gold.PLP.ligand.torsion>
0.5430

> <Gold.PLP.Chemscore.Hbond>
1.0000

> <Gold.PLP.Chemscore.CHOScore>
0.0000

> <Gold.PLP.Chemscore.Metal>
0.0000

> <Gold.Chemscore.Hbonds>
donor molecule, donor type, donor heavy atom, donor atom, acceptor molecule, acceptor atom, score
      P1  H 10752 10763       L1     8  1.00

> <Gold.PLP.Chemscore.Internal.Correction>
0.0208

> <Gold.Rescore>
     Score         DG    S(hbond)    S(metal)    S(lipo)     H(rot)  DE(clash)    DE(int)     intcor
     11.62     -13.69       0.94        0.00      80.51       1.69       0.03       2.05       ----

> <Gold.Chemscore.Fitness>
11.6162

> <Gold.Chemscore.DG>
-13.6944

> <Gold.Chemscore.ZeroCoef>
-5.4800

> <Gold.Chemscore.Hbond>
0.9360

> <Gold.Chemscore.Metal>
0.0000

> <Gold.Chemscore.Lipo>
80.5090

> <Gold.Chemscore.Internal_Hbond>
0.0000

> <Gold.Chemscore.DEClash>
0.0278

> <Gold.Chemscore.DEInternal>
2.0505

> <Gold.Chemscore.Rot>
1.6919

> <Gold.Chemscore.Internal.Correction>
   9.000000E+99

> <Gold.Chemscore.Hbonds>
donor molecule, donor type, donor heavy atom, donor atom, acceptor molecule, acceptor atom, score
      P1  H 10752 10763       L1     8  0.45

> <Gold.Chemscore.Hbond.Weighted>
-3.1262

> <Gold.Chemscore.Metal.Weighted>
-0.0000

> <Gold.Chemscore.Lipo.Weighted>
-9.4195

> <Gold.Chemscore.Internal_Hbond.Weighted>
0.0000

> <Gold.Chemscore.DEClash.Weighted>
0.0278

> <Gold.Chemscore.DEInternal.Weighted>
2.0505

> <Gold.Chemscore.Rot.Weighted>
4.3313

> <Gold.Chemscore.Internal.Correction.Weighted>
   9.000000E+99

> <Gold.Protein.RotatedTorsions>
[ 6907 6896 6895 6894 ] final  -84.71 input  -60.11 | X-H torsion
[ 7974 7965 7964 7962 ] final -152.98 input  175.53 | X-H torsion
[ 8008 7997 7996 7995 ] final -172.89 input   59.86 | X-H torsion
[ 10167 10162 10161 10158 ] final   45.85 input  -65.29 | X-H torsion
[ 10718 10713 10712 10709 ] final -113.44 input   66.30 | X-H torsion
[ 10763 10752 10751 10750 ] final   64.88 input  -60.55 | X-H torsion
[ 11005 11000 10999 10996 ] final -113.10 input  -57.11 | X-H torsion

> <Gold.Protein.ActiveResidues>
 VAL166  LYS551  ARG553  GLY616  TRP617  ASP618  TYR619  PRO620  LYS621  CYS622 
 ASP623  PHE694  ASN695  SER759  ASP760  ASP761  ALA762  ILE779  LEU786  VAL792 
 PHE793  MET794  SER795  GLU796  ALA797  LYS798  CYS799  TRP800  GLU811  SER814 

> <Gold.Protein.RotatedAtoms>
  150.6874  134.3316  159.4829 H   0  0  0  0  0  0  0  0  0  0  0  0  # atno 6907 bound_to 6896
  152.1180  134.9223  160.0573 H   0  0  0  0  0  0  0  0  0  0  0  0  # atno 6908 bound_to 6896
  152.0440  133.3955  159.4386 H   0  0  0  0  0  0  0  0  0  0  0  0  # atno 6909 bound_to 6896
  144.7765  140.4589  143.5870 H   0  0  0  0  0  0  0  0  0  0  0  0  # atno 7974 bound_to 7965
  155.9504  140.1125  157.0981 H   0  0  0  0  0  0  0  0  0  0  0  0  # atno 8008 bound_to 7997
  154.4108  140.1201  156.5112 H   0  0  0  0  0  0  0  0  0  0  0  0  # atno 8009 bound_to 7997
  155.6849  140.3473  155.4872 H   0  0  0  0  0  0  0  0  0  0  0  0  # atno 8010 bound_to 7997
  140.3199  144.2718  150.6184 H   0  0  0  0  0  0  0  0  0  0  0  0  # atno 10167 bound_to 10162
  156.0767  130.5973  150.8643 H   0  0  0  0  0  0  0  0  0  0  0  0  # atno 10718 bound_to 10713
  153.0073  135.5377  154.6579 H   0  0  0  0  0  0  0  0  0  0  0  0  # atno 10763 bound_to 10752
  154.5795  135.2848  155.0749 H   0  0  0  0  0  0  0  0  0  0  0  0  # atno 10764 bound_to 10752
  154.1883  135.6504  153.5105 H   0  0  0  0  0  0  0  0  0  0  0  0  # atno 10765 bound_to 10752
  141.0635  133.9497  157.2622 H   0  0  0  0  0  0  0  0  0  0  0  0  # atno 11005 bound_to 11000
  145.6171  139.1520  143.3043 LP  0  0  0  0  0  0  0  0  0  0  0  0  # atno 17320 bound_to 7965
  146.1948  140.6284  142.9129 LP  0  0  0  0  0  0  0  0  0  0  0  0  # atno 17321 bound_to 7965
  140.5493  143.2209  151.7954 LP  0  0  0  0  0  0  0  0  0  0  0  0  # atno 17342 bound_to 10162
  139.4876  144.4498  151.9667 LP  0  0  0  0  0  0  0  0  0  0  0  0  # atno 17343 bound_to 10162
  157.5865  131.0945  150.9187 LP  0  0  0  0  0  0  0  0  0  0  0  0  # atno 17370 bound_to 10713
  156.9372  130.5371  149.5279 LP  0  0  0  0  0  0  0  0  0  0  0  0  # atno 17371 bound_to 10713
  139.9454  135.0185  156.8837 LP  0  0  0  0  0  0  0  0  0  0  0  0  # atno 17394 bound_to 11000
  140.5820  134.0343  155.7468 LP  0  0  0  0  0  0  0  0  0  0  0  0  # atno 17395 bound_to 11000

$$$$
