AV-unprocessed.smi:895|AV-procd|sdf|4074|dock8
  -GOLD-   22720 1563D 1   1.00000     0.00000
 Structure written by MMmdl.
 44 45  0  0  0  0  0  0  0  0  1 V2000
  145.5944  132.5442  152.9043 C   0  0  0  0  0  0  0  0  0  0  0  0
  146.8222  133.4753  152.9239 C   0  0  0  0  0  0  0  0  0  0  0  0
  148.1204  132.6516  152.8926 C   0  0  0  0  0  0  0  0  0  0  0  0
  146.8133  134.2473  151.7390 O   0  0  0  0  0  0  0  0  0  0  0  0
  146.8377  134.4466  154.1259 C   0  0  0  0  0  0  0  0  0  0  0  0
  147.8915  135.4485  154.0179 N   0  0  0  0  0  0  0  0  0  0  0  0
  148.3472  136.1804  155.0413 C   0  0  0  0  0  0  0  0  0  0  0  0
  147.9264  136.0894  156.1948 O   0  0  0  0  0  0  0  0  0  0  0  0
  149.3149  137.0220  154.6546 N   0  0  0  0  0  0  0  0  0  0  0  0
  150.0263  137.9595  155.5221 C   0  0  1  0  0  0  0  0  0  0  0  0
  151.3051  138.4816  154.8325 C   0  0  0  0  0  0  0  0  0  0  0  0
  152.0477  139.4895  155.7231 C   0  0  0  0  0  0  0  0  0  0  0  0
  151.1392  140.6574  156.1355 C   0  0  0  0  0  0  0  0  0  0  0  0
  149.8539  140.1561  156.8204 C   0  0  0  0  0  0  0  0  0  0  0  0
  149.0824  139.0971  155.9983 C   0  0  1  0  0  0  0  0  0  0  0  0
  148.2730  139.6898  154.9308 N   0  0  0  0  0  0  0  0  0  0  0  0
  148.3400  140.9833  154.4521 C   0  0  0  0  0  0  0  0  0  0  0  0
  147.4010  141.1124  153.4696 C   0  0  0  0  0  0  0  0  0  0  0  0
  146.7963  139.8272  153.4130 C   0  0  0  0  0  0  0  0  0  0  0  0
  147.3177  138.9823  154.2862 N   0  0  0  0  0  0  0  0  0  0  0  0
  145.5358  131.9539  153.8191 H   0  0  0  0  0  0  0  0  0  0  0  0
  145.6411  131.8476  152.0664 H   0  0  0  0  0  0  0  0  0  0  0  0
  144.6607  133.0990  152.8073 H   0  0  0  0  0  0  0  0  0  0  0  0
  148.2034  132.0151  153.7742 H   0  0  0  0  0  0  0  0  0  0  0  0
  149.0009  133.2948  152.8684 H   0  0  0  0  0  0  0  0  0  0  0  0
  148.1613  132.0035  152.0161 H   0  0  0  0  0  0  0  0  0  0  0  0
  147.4329  134.9543  151.8364 H   0  0  0  0  0  0  0  0  0  0  0  0
  145.8826  134.9720  154.1785 H   0  0  0  0  0  0  0  0  0  0  0  0
  146.9431  133.8977  155.0636 H   0  0  0  0  0  0  0  0  0  0  0  0
  148.3001  135.5861  153.1053 H   0  0  0  0  0  0  0  0  0  0  0  0
  149.5903  137.0115  153.6834 H   0  0  0  0  0  0  0  0  0  0  0  0
  150.3412  137.4230  156.4196 H   0  0  0  0  0  0  0  0  0  0  0  0
  151.9699  137.6476  154.6050 H   0  0  0  0  0  0  0  0  0  0  0  0
  151.0663  138.9425  153.8744 H   0  0  0  0  0  0  0  0  0  0  0  0
  152.4152  138.9826  156.6161 H   0  0  0  0  0  0  0  0  0  0  0  0
  152.9262  139.8690  155.2006 H   0  0  0  0  0  0  0  0  0  0  0  0
  151.6793  141.3184  156.8139 H   0  0  0  0  0  0  0  0  0  0  0  0
  150.8966  141.2621  155.2625 H   0  0  0  0  0  0  0  0  0  0  0  0
  150.1287  139.7155  157.7795 H   0  0  0  0  0  0  0  0  0  0  0  0
  149.2025  140.9985  157.0559 H   0  0  0  0  0  0  0  0  0  0  0  0
  148.3667  138.6400  156.6837 H   0  0  0  0  0  0  0  0  0  0  0  0
  149.0432  141.7007  154.8489 H   0  0  0  0  0  0  0  0  0  0  0  0
  147.1797  141.9908  152.8820 H   0  0  0  0  0  0  0  0  0  0  0  0
  145.9991  139.4857  152.7693 H   0  0  0  0  0  0  0  0  0  0  0  0
  1  2  1  0  0  0  0
  1 21  1  0  0  0  0
  1 22  1  0  0  0  0
  1 23  1  0  0  0  0
  2  3  1  0  0  0  0
  2  4  1  0  0  0  0
  2  5  1  0  0  0  0
  3 24  1  0  0  0  0
  3 25  1  0  0  0  0
  3 26  1  0  0  0  0
  4 27  1  0  0  0  0
  5  6  1  0  0  0  0
  5 28  1  0  0  0  0
  5 29  1  0  0  0  0
  6  7  1  0  0  0  0
  6 30  1  0  0  0  0
  7  8  2  0  0  0  0
  7  9  1  0  0  0  0
  9 10  1  0  0  0  0
  9 31  1  0  0  0  0
 10 15  1  0  0  0  0
 10 11  1  0  0  0  0
 10 32  1  0  0  0  0
 11 12  1  0  0  0  0
 11 33  1  0  0  0  0
 11 34  1  0  0  0  0
 12 13  1  0  0  0  0
 12 35  1  0  0  0  0
 12 36  1  0  0  0  0
 13 14  1  0  0  0  0
 13 37  1  0  0  0  0
 13 38  1  0  0  0  0
 14 15  1  0  0  0  0
 14 39  1  0  0  0  0
 14 40  1  0  0  0  0
 15 16  1  0  0  0  0
 15 41  1  0  0  0  0
 16 20  1  0  0  0  0
 16 17  1  0  0  0  0
 17 18  2  0  0  0  0
 17 42  1  0  0  0  0
 18 19  1  0  0  0  0
 18 43  1  0  0  0  0
 19 20  2  0  0  0  0
 19 44  1  0  0  0  0
M  END
> <s_m_source_file>
AV-unprocessed.smi

> <i_m_source_file_index>
895

> <i_lp_mmshare_version>
43012

> <i_f3d_flags>
0

> <s_epik_input>
W0NIM11DKFtDSDNdKShbT0hdKVtDSDJdW05IXUMoPU8pW05IXVtDQEBIXTFbQ0gyXVtDSDJdW0NIMl1bQ0gyXVtDQEhdMW4yW2NIXVtjSF1bY0hdbjI=

> <s_epik_cmdline>
J2VwaWtfcHl0aG9uJywgJy1waCcsICc3LjAnLCAnLXRuJywgJzgnLCAnLW1hJywgJzIwMCcsICctbWV0YWxfYmluZGluZycsICctaW1hZScsICc8aW5maWxlLm1hZT4nLCAnLW9tYWUnLCAnPG91dGZpbGUubWFlPic=

> <r_lp_tautomer_probability>
1

> <r_epik_Ionization_Penalty>
0.000440451

> <r_epik_Ionization_Penalty_Charging>
0

> <r_epik_Ionization_Penalty_Neutral>
0.000440451

> <r_epik_State_Penalty>
-0

> <r_epik_Charging_Adjusted_Penalty>
0

> <i_epik_Tot_Q>
0

> <i_epik_Tot_abs_Q>
0

> <r_epik_Metal_State_Penalty>
-0

> <b_epik_Metal_Only>
0

> <s_lp_Force_Field>
OPLS_2005

> <r_lp_Energy>
15.0391

> <b_lp_Chiralities_Consistent>
1

> <s_lp_Variant>
AV-unprocessed.smi:895-2

> <Gold.Version>
5.8.1

> <Gold.Id.Protein>
6NUR|6NUR_protein|mol2

> <Gold.PLP.Fitness>
39.0925

> <Gold.PLP.PLP>
-28.5042

> <Gold.PLP.part.hbond>
-2.9367

> <Gold.PLP.part.metal>
0.0000

> <Gold.PLP.part.buried>
-3.6239

> <Gold.PLP.part.nonpolar>
-22.7617

> <Gold.PLP.part.repulsive>
0.1688

> <Gold.PLP.ligand.clash>
0.0000

> <Gold.PLP.ligand.torsion>
0.4900

> <Gold.PLP.Chemscore.Hbond>
2.8233

> <Gold.PLP.Chemscore.CHOScore>
0.9997

> <Gold.PLP.Chemscore.Metal>
0.0000

> <Gold.Chemscore.Hbonds>
donor molecule, donor type, donor heavy atom, donor atom, acceptor molecule, acceptor atom, score
      L1  H     4    27       P1  7948  1.00
      L1  H     6    30       P1  7948  1.00
      L1  H     9    31       P1  7948  0.77
      L1  C    19    44       P1 10175  0.97

> <Gold.PLP.Chemscore.Internal.Correction>
0.0995

> <Gold.Rescore>
     Score         DG    S(hbond)    S(metal)    S(lipo)     H(rot)  DE(clash)    DE(int)     intcor
     14.89     -16.96       2.51        0.00      74.41       2.19       0.11       1.96       ----

> <Gold.Chemscore.Fitness>
14.8872

> <Gold.Chemscore.DG>
-16.9583

> <Gold.Chemscore.ZeroCoef>
-5.4800

> <Gold.Chemscore.Hbond>
2.5100

> <Gold.Chemscore.Metal>
0.0000

> <Gold.Chemscore.Lipo>
74.4112

> <Gold.Chemscore.Internal_Hbond>
0.0000

> <Gold.Chemscore.DEClash>
0.1062

> <Gold.Chemscore.DEInternal>
1.9648

> <Gold.Chemscore.Rot>
2.1919

> <Gold.Chemscore.Internal.Correction>
   9.000000E+99

> <Gold.Chemscore.Hbonds>
donor molecule, donor type, donor heavy atom, donor atom, acceptor molecule, acceptor atom, score
      L1  H     4    27       P1  7948  0.81
      L1  H     6    30       P1  7948  0.93
      L1  H     9    31       P1  7948  0.60

> <Gold.Chemscore.Hbond.Weighted>
-8.3835

> <Gold.Chemscore.Metal.Weighted>
-0.0000

> <Gold.Chemscore.Lipo.Weighted>
-8.7061

> <Gold.Chemscore.Internal_Hbond.Weighted>
0.0000

> <Gold.Chemscore.DEClash.Weighted>
0.1062

> <Gold.Chemscore.DEInternal.Weighted>
1.9648

> <Gold.Chemscore.Rot.Weighted>
5.6113

> <Gold.Chemscore.Internal.Correction.Weighted>
   9.000000E+99

> <Gold.Protein.RotatedTorsions>
[ 6907 6896 6895 6894 ] final -173.85 input  -60.11 | X-H torsion
[ 7974 7965 7964 7962 ] final    1.11 input  175.53 | X-H torsion
[ 8008 7997 7996 7995 ] final -164.39 input   59.86 | X-H torsion
[ 10167 10162 10161 10158 ] final   -3.31 input  -65.29 | X-H torsion
[ 10718 10713 10712 10709 ] final  -34.61 input   66.30 | X-H torsion
[ 10763 10752 10751 10750 ] final   41.35 input  -60.55 | X-H torsion
[ 11005 11000 10999 10996 ] final  123.60 input  -57.11 | X-H torsion

> <Gold.Protein.ActiveResidues>
 VAL166  LYS551  ARG553  GLY616  TRP617  ASP618  TYR619  PRO620  LYS621  CYS622 
 ASP623  PHE694  ASN695  SER759  ASP760  ASP761  ALA762  ILE779  LEU786  VAL792 
 PHE793  MET794  SER795  GLU796  ALA797  LYS798  CYS799  TRP800  GLU811  SER814 

> <Gold.Protein.RotatedAtoms>
  151.5628  133.3401  159.2974 H   0  0  0  0  0  0  0  0  0  0  0  0  # atno 6907 bound_to 6896
  150.8412  134.7708  159.6945 H   0  0  0  0  0  0  0  0  0  0  0  0  # atno 6908 bound_to 6896
  152.4479  134.5462  159.9905 H   0  0  0  0  0  0  0  0  0  0  0  0  # atno 6909 bound_to 6896
  146.2438  140.1037  142.8346 H   0  0  0  0  0  0  0  0  0  0  0  0  # atno 7974 bound_to 7965
  155.8349  140.0939  157.1770 H   0  0  0  0  0  0  0  0  0  0  0  0  # atno 8008 bound_to 7997
  154.3980  140.1412  156.3720 H   0  0  0  0  0  0  0  0  0  0  0  0  # atno 8009 bound_to 7997
  155.8126  140.3449  155.5469 H   0  0  0  0  0  0  0  0  0  0  0  0  # atno 8010 bound_to 7997
  140.6885  143.6555  150.8312 H   0  0  0  0  0  0  0  0  0  0  0  0  # atno 10167 bound_to 10162
  156.3485  130.4304  149.7725 H   0  0  0  0  0  0  0  0  0  0  0  0  # atno 10718 bound_to 10713
  152.9911  135.6164  154.2773 H   0  0  0  0  0  0  0  0  0  0  0  0  # atno 10763 bound_to 10752
  154.2504  135.2785  155.2820 H   0  0  0  0  0  0  0  0  0  0  0  0  # atno 10764 bound_to 10752
  154.5293  135.5792  153.6803 H   0  0  0  0  0  0  0  0  0  0  0  0  # atno 10765 bound_to 10752
  139.9320  134.9641  156.8284 H   0  0  0  0  0  0  0  0  0  0  0  0  # atno 11005 bound_to 11000
  145.0546  140.9043  143.4975 LP  0  0  0  0  0  0  0  0  0  0  0  0  # atno 17320 bound_to 7965
  145.1141  139.2737  143.5622 LP  0  0  0  0  0  0  0  0  0  0  0  0  # atno 17321 bound_to 7965
  140.0265  143.5488  152.2778 LP  0  0  0  0  0  0  0  0  0  0  0  0  # atno 17342 bound_to 10162
  139.6265  144.7638  151.2627 LP  0  0  0  0  0  0  0  0  0  0  0  0  # atno 17343 bound_to 10162
  156.4934  130.8095  151.3104 LP  0  0  0  0  0  0  0  0  0  0  0  0  # atno 17370 bound_to 10713
  157.7457  130.9968  150.2792 LP  0  0  0  0  0  0  0  0  0  0  0  0  # atno 17371 bound_to 10713
  140.6176  134.0023  155.7604 LP  0  0  0  0  0  0  0  0  0  0  0  0  # atno 17394 bound_to 11000
  141.0914  133.9911  157.3231 LP  0  0  0  0  0  0  0  0  0  0  0  0  # atno 17395 bound_to 11000

$$$$
