AV-unprocessed.smi:2295|AV-procd|sdf|9219|dock8
  -GOLD-   2272012443D 1   1.00000     0.00000
 Structure written by MMmdl.
 37 38  0  0  0  0  0  0  0  0  1 V2000
  152.0959  145.9239  160.1264 C   0  0  0  0  0  0  0  0  0  0  0  0
  152.0144  144.5443  159.5074 C   0  0  0  0  0  0  0  0  0  0  0  0
  152.8459  143.5000  159.9550 C   0  0  0  0  0  0  0  0  0  0  0  0
  152.7199  142.2394  159.3387 C   0  0  0  0  0  0  0  0  0  0  0  0
  153.5825  141.0717  159.7694 C   0  0  0  0  0  0  0  0  0  0  0  0
  151.8428  141.9904  158.3427 N   0  0  0  0  0  0  0  0  0  0  0  0
  151.0366  142.9888  157.9036 C   0  0  0  0  0  0  0  0  0  0  0  0
  150.0799  142.8313  156.8658 N   0  0  0  0  0  0  0  0  0  0  0  0
  149.4565  141.7068  156.4722 C   0  0  0  0  0  0  0  0  0  0  0  0
  149.6337  140.5875  156.9541 O   0  0  0  0  0  0  0  0  0  0  0  0
  148.6015  141.9547  155.4693 N   0  0  0  0  0  0  0  0  0  0  0  0
  147.7522  140.9649  154.8132 C   0  0  0  0  0  0  0  0  0  0  0  0
  146.3163  141.4810  154.6077 C   0  0  1  0  0  0  0  0  0  0  0  0
  145.6034  141.9059  155.9005 C   0  0  0  0  0  0  0  0  0  0  0  0
  144.4735  142.8518  155.4926 C   0  0  0  0  0  0  0  0  0  0  0  0
  145.0754  143.8312  154.4844 C   0  0  0  0  0  0  0  0  0  0  0  0
  146.2757  142.9098  153.4892 S   0  0  0  0  0  0  0  0  0  0  0  0
  151.0997  144.2830  158.4675 C   0  0  0  0  0  0  0  0  0  0  0  0
  152.8072  145.9469  160.9525 H   0  0  0  0  0  0  0  0  0  0  0  0
  151.1203  146.2247  160.5088 H   0  0  0  0  0  0  0  0  0  0  0  0
  152.4137  146.6538  159.3816 H   0  0  0  0  0  0  0  0  0  0  0  0
  153.5610  143.6606  160.7489 H   0  0  0  0  0  0  0  0  0  0  0  0
  154.1952  141.3296  160.6337 H   0  0  0  0  0  0  0  0  0  0  0  0
  154.2461  140.7724  158.9578 H   0  0  0  0  0  0  0  0  0  0  0  0
  152.9600  140.2177  160.0379 H   0  0  0  0  0  0  0  0  0  0  0  0
  149.8319  143.6766  156.3736 H   0  0  0  0  0  0  0  0  0  0  0  0
  148.5241  142.9049  155.1379 H   0  0  0  0  0  0  0  0  0  0  0  0
  148.1838  140.6425  153.8641 H   0  0  0  0  0  0  0  0  0  0  0  0
  147.7320  140.0812  155.4515 H   0  0  0  0  0  0  0  0  0  0  0  0
  145.7209  140.7035  154.1272 H   0  0  0  0  0  0  0  0  0  0  0  0
  145.2287  141.0472  156.4584 H   0  0  0  0  0  0  0  0  0  0  0  0
  146.2978  142.4376  156.5526 H   0  0  0  0  0  0  0  0  0  0  0  0
  143.6739  142.2813  155.0185 H   0  0  0  0  0  0  0  0  0  0  0  0
  144.0416  143.3675  156.3506 H   0  0  0  0  0  0  0  0  0  0  0  0
  144.3155  144.2954  153.8553 H   0  0  0  0  0  0  0  0  0  0  0  0
  145.6071  144.6268  155.0072 H   0  0  0  0  0  0  0  0  0  0  0  0
  150.4521  145.0701  158.1090 H   0  0  0  0  0  0  0  0  0  0  0  0
  1  2  1  0  0  0  0
  1 19  1  0  0  0  0
  1 20  1  0  0  0  0
  1 21  1  0  0  0  0
  2 18  1  0  0  0  0
  2  3  2  0  0  0  0
  3  4  1  0  0  0  0
  3 22  1  0  0  0  0
  4  5  1  0  0  0  0
  4  6  2  0  0  0  0
  5 23  1  0  0  0  0
  5 24  1  0  0  0  0
  5 25  1  0  0  0  0
  6  7  1  0  0  0  0
  7  8  1  0  0  0  0
  7 18  2  0  0  0  0
  8  9  1  0  0  0  0
  8 26  1  0  0  0  0
  9 10  2  0  0  0  0
  9 11  1  0  0  0  0
 11 12  1  0  0  0  0
 11 27  1  0  0  0  0
 12 13  1  0  0  0  0
 12 28  1  0  0  0  0
 12 29  1  0  0  0  0
 13 17  1  0  0  0  0
 13 14  1  0  0  0  0
 13 30  1  0  0  0  0
 14 15  1  0  0  0  0
 14 31  1  0  0  0  0
 14 32  1  0  0  0  0
 15 16  1  0  0  0  0
 15 33  1  0  0  0  0
 15 34  1  0  0  0  0
 16 17  1  0  0  0  0
 16 35  1  0  0  0  0
 16 36  1  0  0  0  0
 18 37  1  0  0  0  0
M  END
> <s_m_source_file>
AV-unprocessed.smi

> <i_m_source_file_index>
2295

> <i_lp_mmshare_version>
43012

> <i_f3d_flags>
0

> <s_epik_input>
W0NIM11jMVtjSF1jKFtDSDNdKW5jKFtjSF0xKVtOSF1DKD1PKVtOSF1bQ0gyXVtDQEBIXTJbQ0gyXVtDSDJdW0NIMl1TMg==

> <s_epik_cmdline>
J2VwaWtfcHl0aG9uJywgJy1waCcsICc3LjAnLCAnLXRuJywgJzgnLCAnLW1hJywgJzIwMCcsICctbWV0YWxfYmluZGluZycsICctaW1hZScsICc8aW5maWxlLm1hZT4nLCAnLW9tYWUnLCAnPG91dGZpbGUubWFlPic=

> <r_lp_tautomer_probability>
1

> <r_epik_Ionization_Penalty>
0.000247769

> <r_epik_Ionization_Penalty_Charging>
0

> <r_epik_Ionization_Penalty_Neutral>
0.000247769

> <r_epik_State_Penalty>
-0

> <r_epik_Charging_Adjusted_Penalty>
0

> <i_epik_Tot_Q>
0

> <i_epik_Tot_abs_Q>
0

> <r_epik_Metal_State_Penalty>
-0

> <b_epik_Metal_Only>
0

> <s_lp_Force_Field>
OPLS_2005

> <r_lp_Energy>
14.3156

> <b_lp_Chiralities_Consistent>
1

> <s_lp_Variant>
AV-unprocessed.smi:2295-2

> <Gold.Version>
5.8.1

> <Gold.Id.Protein>
6NUR|6NUR_protein|mol2

> <Gold.PLP.Fitness>
44.2359

> <Gold.PLP.PLP>
-39.1309

> <Gold.PLP.part.hbond>
-2.0000

> <Gold.PLP.part.metal>
0.0000

> <Gold.PLP.part.buried>
-6.0724

> <Gold.PLP.part.nonpolar>
-31.1613

> <Gold.PLP.part.repulsive>
0.1834

> <Gold.PLP.ligand.clash>
0.0000

> <Gold.PLP.ligand.torsion>
0.2441

> <Gold.PLP.Chemscore.Hbond>
1.8640

> <Gold.PLP.Chemscore.CHOScore>
0.0000

> <Gold.PLP.Chemscore.Metal>
0.0000

> <Gold.Chemscore.Hbonds>
donor molecule, donor type, donor heavy atom, donor atom, acceptor molecule, acceptor atom, score
      L1  H     8    26       P1  8028  1.00
      L1  H    11    27       P1  8028  0.86

> <Gold.PLP.Chemscore.Internal.Correction>
0.0012

> <Gold.Rescore>
     Score         DG    S(hbond)    S(metal)    S(lipo)     H(rot)  DE(clash)    DE(int)     intcor
     18.09     -19.85       1.90        0.00      94.19       1.17       0.33       1.43       ----

> <Gold.Chemscore.Fitness>
18.0945

> <Gold.Chemscore.DG>
-19.8460

> <Gold.Chemscore.ZeroCoef>
-5.4800

> <Gold.Chemscore.Hbond>
1.8992

> <Gold.Chemscore.Metal>
0.0000

> <Gold.Chemscore.Lipo>
94.1891

> <Gold.Chemscore.Internal_Hbond>
0.0000

> <Gold.Chemscore.DEClash>
0.3262

> <Gold.Chemscore.DEInternal>
1.4253

> <Gold.Chemscore.Rot>
1.1709

> <Gold.Chemscore.Internal.Correction>
   9.000000E+99

> <Gold.Chemscore.Hbonds>
donor molecule, donor type, donor heavy atom, donor atom, acceptor molecule, acceptor atom, score
      L1  H     8    26       P1  8028  0.97
      L1  H    11    27       P1  8028  0.85

> <Gold.Chemscore.Hbond.Weighted>
-6.3434

> <Gold.Chemscore.Metal.Weighted>
-0.0000

> <Gold.Chemscore.Lipo.Weighted>
-11.0201

> <Gold.Chemscore.Internal_Hbond.Weighted>
0.0000

> <Gold.Chemscore.DEClash.Weighted>
0.3262

> <Gold.Chemscore.DEInternal.Weighted>
1.4253

> <Gold.Chemscore.Rot.Weighted>
2.9975

> <Gold.Chemscore.Internal.Correction.Weighted>
   9.000000E+99

> <Gold.Protein.RotatedTorsions>
[ 6907 6896 6895 6894 ] final -113.87 input  -60.11 | X-H torsion
[ 7974 7965 7964 7962 ] final   75.32 input  175.53 | X-H torsion
[ 8008 7997 7996 7995 ] final  139.18 input   59.86 | X-H torsion
[ 10167 10162 10161 10158 ] final  -97.31 input  -65.29 | X-H torsion
[ 10718 10713 10712 10709 ] final  -81.87 input   66.30 | X-H torsion
[ 10763 10752 10751 10750 ] final  160.05 input  -60.55 | X-H torsion
[ 11005 11000 10999 10996 ] final  142.98 input  -57.11 | X-H torsion

> <Gold.Protein.ActiveResidues>
 VAL166  LYS551  ARG553  GLY616  TRP617  ASP618  TYR619  PRO620  LYS621  CYS622 
 ASP623  PHE694  ASN695  SER759  ASP760  ASP761  ALA762  ILE779  LEU786  VAL792 
 PHE793  MET794  SER795  GLU796  ALA797  LYS798  CYS799  TRP800  GLU811  SER814 

> <Gold.Protein.RotatedAtoms>
  150.7860  133.8882  159.3305 H   0  0  0  0  0  0  0  0  0  0  0  0  # atno 6907 bound_to 6896
  151.6732  135.0971  160.0211 H   0  0  0  0  0  0  0  0  0  0  0  0  # atno 6908 bound_to 6896
  152.3924  133.6660  159.6284 H   0  0  0  0  0  0  0  0  0  0  0  0  # atno 6909 bound_to 6896
  145.7171  139.2635  143.1617 H   0  0  0  0  0  0  0  0  0  0  0  0  # atno 7974 bound_to 7965
  156.2992  140.2374  156.4195 H   0  0  0  0  0  0  0  0  0  0  0  0  # atno 8008 bound_to 7997
  154.8368  140.0430  157.1535 H   0  0  0  0  0  0  0  0  0  0  0  0  # atno 8009 bound_to 7997
  154.9147  140.2995  155.5251 H   0  0  0  0  0  0  0  0  0  0  0  0  # atno 8010 bound_to 7997
  140.2848  143.3259  152.0405 H   0  0  0  0  0  0  0  0  0  0  0  0  # atno 10167 bound_to 10162
  156.0042  130.4617  150.4018 H   0  0  0  0  0  0  0  0  0  0  0  0  # atno 10718 bound_to 10713
  154.2414  135.2774  155.2852 H   0  0  0  0  0  0  0  0  0  0  0  0  # atno 10763 bound_to 10752
  154.5541  135.5666  153.6952 H   0  0  0  0  0  0  0  0  0  0  0  0  # atno 10764 bound_to 10752
  152.9999  135.6282  154.2558 H   0  0  0  0  0  0  0  0  0  0  0  0  # atno 10765 bound_to 10752
  140.0518  134.9251  157.1030 H   0  0  0  0  0  0  0  0  0  0  0  0  # atno 11005 bound_to 11000
  146.0660  140.7920  142.9711 LP  0  0  0  0  0  0  0  0  0  0  0  0  # atno 17320 bound_to 7965
  144.6926  140.3269  143.7223 LP  0  0  0  0  0  0  0  0  0  0  0  0  # atno 17321 bound_to 7965
  139.4953  144.6567  151.6557 LP  0  0  0  0  0  0  0  0  0  0  0  0  # atno 17342 bound_to 10162
  140.5782  143.9992  150.6253 LP  0  0  0  0  0  0  0  0  0  0  0  0  # atno 17343 bound_to 10162
  157.2087  131.0455  151.2611 LP  0  0  0  0  0  0  0  0  0  0  0  0  # atno 17370 bound_to 10713
  157.3909  130.7281  149.6697 LP  0  0  0  0  0  0  0  0  0  0  0  0  # atno 17371 bound_to 10713
  140.3905  134.2189  155.7166 LP  0  0  0  0  0  0  0  0  0  0  0  0  # atno 17394 bound_to 11000
  141.1934  133.8152  157.0801 LP  0  0  0  0  0  0  0  0  0  0  0  0  # atno 17395 bound_to 11000

$$$$
