AV-unprocessed.smi:2083|AV-procd|sdf|8491|dock10
  -GOLD-   2272011203D 1   1.00000     0.00000
 Structure written by MMmdl.
 45 46  0  0  0  0  0  0  0  0  2 V2000
  151.8549  141.3611  157.4090 C   0  0  0  0  0  0  0  0  0  0  0  0
  151.4293  140.5701  156.2199 C   0  0  0  0  0  0  0  0  0  0  0  0
  150.2290  140.0435  155.8338 C   0  0  0  0  0  0  0  0  0  0  0  0
  150.5381  139.4150  154.5985 C   0  0  0  0  0  0  0  0  0  0  0  0
  149.5375  138.7358  153.8573 N   0  0  0  0  0  0  0  0  0  0  0  0
  148.2051  138.8422  153.9940 C   0  0  0  0  0  0  0  0  0  0  0  0
  147.6311  139.5536  154.8190 O   0  0  0  0  0  0  0  0  0  0  0  0
  147.5598  138.0618  153.1142 N   0  0  0  0  0  0  0  0  0  0  0  0
  146.1088  137.9621  152.9782 C   0  0  0  0  0  0  0  0  0  0  0  0
  145.6845  136.9953  151.8426 C   0  0  1  0  0  0  0  0  0  0  0  0
  146.1057  137.4747  150.4398 C   0  0  0  0  0  0  0  0  0  0  0  0
  146.1395  135.5920  152.0693 N   0  3  1  0  0  0  0  0  0  0  0  0
  145.9724  135.0819  153.4575 C   0  0  0  0  0  0  0  0  0  0  0  0
  146.6995  133.7397  153.6301 C   0  0  0  0  0  0  0  0  0  0  0  0
  146.1958  132.7112  152.6083 C   0  0  0  0  0  0  0  0  0  0  0  0
  146.3307  133.2633  151.1784 C   0  0  1  0  0  0  0  0  0  0  0  0
  145.8018  132.2646  150.1392 C   0  0  0  0  0  0  0  0  0  0  0  0
  145.6210  134.6278  151.0621 C   0  0  0  0  0  0  0  0  0  0  0  0
  151.8120  139.5450  154.2610 N   0  0  0  0  0  0  0  0  0  0  0  0
  152.3898  140.2857  155.2989 O   0  0  0  0  0  0  0  0  0  0  0  0
  151.0047  141.5828  158.0545 H   0  0  0  0  0  0  0  0  0  0  0  0
  152.3031  142.3067  157.1036 H   0  0  0  0  0  0  0  0  0  0  0  0
  152.5905  140.8112  157.9960 H   0  0  0  0  0  0  0  0  0  0  0  0
  149.2842  140.1011  156.3533 H   0  0  0  0  0  0  0  0  0  0  0  0
  149.8741  138.1076  153.1429 H   0  0  0  0  0  0  0  0  0  0  0  0
  148.1144  137.5094  152.4765 H   0  0  0  0  0  0  0  0  0  0  0  0
  145.6673  137.6650  153.9302 H   0  0  0  0  0  0  0  0  0  0  0  0
  145.7398  138.9672  152.7756 H   0  0  0  0  0  0  0  0  0  0  0  0
  144.5940  136.9704  151.8260 H   0  0  0  0  0  0  0  0  0  0  0  0
  145.5999  138.4014  150.1690 H   0  0  0  0  0  0  0  0  0  0  0  0
  145.8475  136.7380  149.6784 H   0  0  0  0  0  0  0  0  0  0  0  0
  147.1779  137.6602  150.3764 H   0  0  0  0  0  0  0  0  0  0  0  0
  146.3677  135.7962  154.1791 H   0  0  0  0  0  0  0  0  0  0  0  0
  144.9138  134.9507  153.6846 H   0  0  0  0  0  0  0  0  0  0  0  0
  147.7738  133.8846  153.5084 H   0  0  0  0  0  0  0  0  0  0  0  0
  146.5504  133.3624  154.6422 H   0  0  0  0  0  0  0  0  0  0  0  0
  146.7571  131.7817  152.7097 H   0  0  0  0  0  0  0  0  0  0  0  0
  145.1527  132.4691  152.8175 H   0  0  0  0  0  0  0  0  0  0  0  0
  147.3918  133.4173  150.9748 H   0  0  0  0  0  0  0  0  0  0  0  0
  144.7398  132.0645  150.2849 H   0  0  0  0  0  0  0  0  0  0  0  0
  146.3310  131.3134  150.2039 H   0  0  0  0  0  0  0  0  0  0  0  0
  145.9327  132.6443  149.1255 H   0  0  0  0  0  0  0  0  0  0  0  0
  144.5451  134.5016  151.1899 H   0  0  0  0  0  0  0  0  0  0  0  0
  145.7765  135.0264  150.0589 H   0  0  0  0  0  0  0  0  0  0  0  0
  147.1368  135.6194  151.9110 H   0  0  0  0  0  0  0  0  0  0  0  0
  1  2  1  0  0  0  0
  1 21  1  0  0  0  0
  1 22  1  0  0  0  0
  1 23  1  0  0  0  0
  2 20  1  0  0  0  0
  2  3  2  0  0  0  0
  3  4  1  0  0  0  0
  3 24  1  0  0  0  0
  4  5  1  0  0  0  0
  4 19  2  0  0  0  0
  5  6  1  0  0  0  0
  5 25  1  0  0  0  0
  6  7  2  0  0  0  0
  6  8  1  0  0  0  0
  8  9  1  0  0  0  0
  8 26  1  0  0  0  0
  9 10  1  0  0  0  0
  9 27  1  0  0  0  0
  9 28  1  0  0  0  0
 10 11  1  0  0  0  0
 10 12  1  0  0  0  0
 10 29  1  0  0  0  0
 11 30  1  0  0  0  0
 11 31  1  0  0  0  0
 11 32  1  0  0  0  0
 12 18  1  0  0  0  0
 12 13  1  0  0  0  0
 12 45  1  0  0  0  0
 13 14  1  0  0  0  0
 13 33  1  0  0  0  0
 13 34  1  0  0  0  0
 14 15  1  0  0  0  0
 14 35  1  0  0  0  0
 14 36  1  0  0  0  0
 15 16  1  0  0  0  0
 15 37  1  0  0  0  0
 15 38  1  0  0  0  0
 16 17  1  0  0  0  0
 16 18  1  0  0  0  0
 16 39  1  0  0  0  0
 17 40  1  0  0  0  0
 17 41  1  0  0  0  0
 17 42  1  0  0  0  0
 18 43  1  0  0  0  0
 18 44  1  0  0  0  0
 19 20  1  0  0  0  0
M  CHG  1  12   1
M  END
> <s_m_source_file>
AV-unprocessed.smi

> <i_m_source_file_index>
2083

> <i_lp_mmshare_version>
43012

> <i_f3d_flags>
0

> <s_epik_input>
W0NIM11jMVtjSF1jKG5vMSlbTkhdQyg9TylbTkhdW0NIMl1bQ0BIXShbQ0gzXSlOMltDSDJdW0NIMl1bQ0gyXVtDQEBIXShbQ0gzXSlbQ0gyXTI=

> <s_epik_cmdline>
J2VwaWtfcHl0aG9uJywgJy1waCcsICc3LjAnLCAnLXRuJywgJzgnLCAnLW1hJywgJzIwMCcsICctbWV0YWxfYmluZGluZycsICctaW1hZScsICc8aW5maWxlLm1hZT4nLCAnLW9tYWUnLCAnPG91dGZpbGUubWFlPic=

> <r_epik_Ionization_Penalty>
0.00216453

> <r_epik_Ionization_Penalty_Charging>
0.00212879

> <r_epik_Ionization_Penalty_Neutral>
3.57418e-05

> <r_epik_State_Penalty>
0.00146033

> <r_epik_Charging_Adjusted_Penalty>
0.00358912

> <i_epik_Tot_Q>
1

> <i_epik_Tot_abs_Q>
1

> <r_epik_Metal_State_Penalty>
0.0215827

> <b_epik_Metal_Only>
0

> <s_lp_Force_Field>
OPLS_2005

> <r_lp_Energy>
17.3533

> <b_lp_Chiralities_Consistent>
1

> <s_lp_Variant>
AV-unprocessed.smi:2083-2

> <Gold.Version>
5.8.1

> <Gold.Id.Protein>
6NUR|6NUR_protein|mol2

> <Gold.PLP.Fitness>
42.8638

> <Gold.PLP.PLP>
-28.1195

> <Gold.PLP.part.hbond>
-4.0616

> <Gold.PLP.part.metal>
0.0000

> <Gold.PLP.part.buried>
0.3370

> <Gold.PLP.part.nonpolar>
-24.8440

> <Gold.PLP.part.repulsive>
0.1877

> <Gold.PLP.ligand.clash>
0.0000

> <Gold.PLP.ligand.torsion>
0.1708

> <Gold.PLP.Chemscore.Hbond>
4.9920

> <Gold.PLP.Chemscore.CHOScore>
0.0000

> <Gold.PLP.Chemscore.Metal>
0.0000

> <Gold.Chemscore.Hbonds>
donor molecule, donor type, donor heavy atom, donor atom, acceptor molecule, acceptor atom, score
      L1  H     5    25       P1  7948  0.05
      L1  H     8    26       P1  7948  1.00
      L1  H    12    45       P1  7948  2.00
      P1  H  7989  7998       L1    19  0.32
      P1  H  7997  8009       L1    20  0.76

> <Gold.PLP.Chemscore.Internal.Correction>
0.1101

> <Gold.Rescore>
     Score         DG    S(hbond)    S(metal)    S(lipo)     H(rot)  DE(clash)    DE(int)     intcor
     17.89     -21.44       3.62        0.00      67.06       1.55       1.85       1.71       ----

> <Gold.Chemscore.Fitness>
17.8872

> <Gold.Chemscore.DG>
-21.4401

> <Gold.Chemscore.ZeroCoef>
-5.4800

> <Gold.Chemscore.Hbond>
3.6154

> <Gold.Chemscore.Metal>
0.0000

> <Gold.Chemscore.Lipo>
67.0591

> <Gold.Chemscore.Internal_Hbond>
0.0000

> <Gold.Chemscore.DEClash>
1.8463

> <Gold.Chemscore.DEInternal>
1.7066

> <Gold.Chemscore.Rot>
1.5474

> <Gold.Chemscore.Internal.Correction>
   9.000000E+99

> <Gold.Chemscore.Hbonds>
donor molecule, donor type, donor heavy atom, donor atom, acceptor molecule, acceptor atom, score
      L1  H     5    25       P1  7948  0.04
      L1  H     8    26       P1  7948  0.99
      L1  H    12    45       P1  7948  1.00
      P1  H  7997  8009       L1    20  0.67

> <Gold.Chemscore.Hbond.Weighted>
-12.0755

> <Gold.Chemscore.Metal.Weighted>
-0.0000

> <Gold.Chemscore.Lipo.Weighted>
-7.8459

> <Gold.Chemscore.Internal_Hbond.Weighted>
0.0000

> <Gold.Chemscore.DEClash.Weighted>
1.8463

> <Gold.Chemscore.DEInternal.Weighted>
1.7066

> <Gold.Chemscore.Rot.Weighted>
3.9612

> <Gold.Chemscore.Internal.Correction.Weighted>
   9.000000E+99

> <Gold.Protein.RotatedTorsions>
[ 6907 6896 6895 6894 ] final   65.12 input  -60.11 | X-H torsion
[ 7974 7965 7964 7962 ] final  -73.51 input  175.53 | X-H torsion
[ 8008 7997 7996 7995 ] final -146.33 input   59.86 | X-H torsion
[ 10167 10162 10161 10158 ] final   -6.40 input  -65.29 | X-H torsion
[ 10718 10713 10712 10709 ] final -127.97 input   66.30 | X-H torsion
[ 10763 10752 10751 10750 ] final  -85.70 input  -60.55 | X-H torsion
[ 11005 11000 10999 10996 ] final -109.87 input  -57.11 | X-H torsion

> <Gold.Protein.ActiveResidues>
 VAL166  LYS551  ARG553  GLY616  TRP617  ASP618  TYR619  PRO620  LYS621  CYS622 
 ASP623  PHE694  ASN695  SER759  ASP760  ASP761  ALA762  ILE779  LEU786  VAL792 
 PHE793  MET794  SER795  GLU796  ALA797  LYS798  CYS799  TRP800  GLU811  SER814 

> <Gold.Protein.RotatedAtoms>
  152.4383  134.5641  159.9902 H   0  0  0  0  0  0  0  0  0  0  0  0  # atno 6907 bound_to 6896
  151.5745  133.3380  159.3004 H   0  0  0  0  0  0  0  0  0  0  0  0  # atno 6908 bound_to 6896
  150.8285  134.7562  159.6898 H   0  0  0  0  0  0  0  0  0  0  0  0  # atno 6909 bound_to 6896
  145.6512  140.9282  143.0984 H   0  0  0  0  0  0  0  0  0  0  0  0  # atno 7974 bound_to 7965
  155.5577  140.0622  157.2836 H   0  0  0  0  0  0  0  0  0  0  0  0  # atno 8008 bound_to 7997
  154.4400  140.1891  156.0795 H   0  0  0  0  0  0  0  0  0  0  0  0  # atno 8009 bound_to 7997
  156.0470  140.3289  155.7311 H   0  0  0  0  0  0  0  0  0  0  0  0  # atno 8010 bound_to 7997
  140.6996  143.6198  150.8623 H   0  0  0  0  0  0  0  0  0  0  0  0  # atno 10167 bound_to 10162
  156.1906  130.6793  151.0420 H   0  0  0  0  0  0  0  0  0  0  0  0  # atno 10718 bound_to 10713
  154.6141  135.5476  153.7504 H   0  0  0  0  0  0  0  0  0  0  0  0  # atno 10763 bound_to 10752
  153.0208  135.6396  154.1536 H   0  0  0  0  0  0  0  0  0  0  0  0  # atno 10764 bound_to 10752
  154.1473  135.2905  155.3125 H   0  0  0  0  0  0  0  0  0  0  0  0  # atno 10765 bound_to 10752
  141.0823  133.9198  157.2261 H   0  0  0  0  0  0  0  0  0  0  0  0  # atno 11005 bound_to 11000
  144.7122  139.8328  143.7411 LP  0  0  0  0  0  0  0  0  0  0  0  0  # atno 17320 bound_to 7965
  146.1202  139.4219  143.0233 LP  0  0  0  0  0  0  0  0  0  0  0  0  # atno 17321 bound_to 7965
  139.9919  143.5838  152.2907 LP  0  0  0  0  0  0  0  0  0  0  0  0  # atno 17342 bound_to 10162
  139.6496  144.7660  151.2175 LP  0  0  0  0  0  0  0  0  0  0  0  0  # atno 17343 bound_to 10162
  157.6927  131.0804  150.7061 LP  0  0  0  0  0  0  0  0  0  0  0  0  # atno 17370 bound_to 10713
  156.7117  130.4654  149.5545 LP  0  0  0  0  0  0  0  0  0  0  0  0  # atno 17371 bound_to 10713
  139.9638  135.0147  156.9332 LP  0  0  0  0  0  0  0  0  0  0  0  0  # atno 17394 bound_to 11000
  140.5440  134.0692  155.7350 LP  0  0  0  0  0  0  0  0  0  0  0  0  # atno 17395 bound_to 11000

$$$$
