AV-unprocessed.smi:689|AV-procd|sdf|3358|dock5
  -GOLD-   22720 0333D 1   1.00000     0.00000
 Structure written by MMmdl.
 33 34  0  0  0  0  0  0  0  0  2 V2000
  150.0822  138.6911  154.5589 C   0  0  0  0  0  0  0  0  0  0  0  0
  151.4263  138.5311  155.2097 C   0  0  0  0  0  0  0  0  0  0  0  0
  152.3958  139.3832  154.9206 N   0  0  0  0  0  0  0  0  0  0  0  0
  153.4980  138.9821  155.6818 O   0  0  0  0  0  0  0  0  0  0  0  0
  153.1440  137.8920  156.4087 C   0  0  0  0  0  0  0  0  0  0  0  0
  154.1909  137.3133  157.2987 C   0  0  0  0  0  0  0  0  0  0  0  0
  151.8449  137.5489  156.1532 C   0  0  0  0  0  0  0  0  0  0  0  0
  151.0411  136.4120  156.7330 C   0  0  0  0  0  0  0  0  0  0  0  0
  150.2628  136.8987  157.9593 C   0  0  0  0  0  0  0  0  0  0  0  0
  150.3658  138.0752  158.3069 O   0  0  0  0  0  0  0  0  0  0  0  0
  149.5186  135.9125  158.5086 N   0  5  0  0  0  0  0  0  0  0  0  0
  148.2833  136.2366  159.4987 S   0  0  0  0  0  0  0  0  0  0  0  0
  148.7146  136.8899  160.7445 O   0  0  0  0  0  0  0  0  0  0  0  0
  147.1329  136.8216  158.7924 O   0  0  0  0  0  0  0  0  0  0  0  0
  147.7744  134.5294  159.9739 C   0  0  0  0  0  0  0  0  0  0  0  0
  146.7292  134.5405  161.0721 C   0  0  0  0  0  0  0  0  0  0  0  0
  147.0788  134.9764  162.4767 C   0  0  0  0  0  0  0  0  0  0  0  0
  146.7769  133.5264  162.1929 C   0  0  0  0  0  0  0  0  0  0  0  0
  149.6613  137.7239  154.2846 H   0  0  0  0  0  0  0  0  0  0  0  0
  150.1425  139.2927  153.6514 H   0  0  0  0  0  0  0  0  0  0  0  0
  149.3793  139.1785  155.2349 H   0  0  0  0  0  0  0  0  0  0  0  0
  153.7401  136.8121  158.1552 H   0  0  0  0  0  0  0  0  0  0  0  0
  154.8544  138.0913  157.6768 H   0  0  0  0  0  0  0  0  0  0  0  0
  154.7949  136.5841  156.7591 H   0  0  0  0  0  0  0  0  0  0  0  0
  150.3601  135.9851  155.9947 H   0  0  0  0  0  0  0  0  0  0  0  0
  151.6899  135.5906  157.0390 H   0  0  0  0  0  0  0  0  0  0  0  0
  147.3873  134.0299  159.0855 H   0  0  0  0  0  0  0  0  0  0  0  0
  148.6549  133.9848  160.3140 H   0  0  0  0  0  0  0  0  0  0  0  0
  145.7321  134.7989  160.7202 H   0  0  0  0  0  0  0  0  0  0  0  0
  148.1136  135.2412  162.6849 H   0  0  0  0  0  0  0  0  0  0  0  0
  146.3323  135.5478  163.0247 H   0  0  0  0  0  0  0  0  0  0  0  0
  145.8288  133.1284  162.5487 H   0  0  0  0  0  0  0  0  0  0  0  0
  147.6118  132.8288  162.2129 H   0  0  0  0  0  0  0  0  0  0  0  0
  1  2  1  0  0  0  0
  1 19  1  0  0  0  0
  1 20  1  0  0  0  0
  1 21  1  0  0  0  0
  2  7  1  0  0  0  0
  2  3  2  0  0  0  0
  3  4  1  0  0  0  0
  4  5  1  0  0  0  0
  5  6  1  0  0  0  0
  5  7  2  0  0  0  0
  6 22  1  0  0  0  0
  6 23  1  0  0  0  0
  6 24  1  0  0  0  0
  7  8  1  0  0  0  0
  8  9  1  0  0  0  0
  8 25  1  0  0  0  0
  8 26  1  0  0  0  0
  9 10  2  0  0  0  0
  9 11  1  0  0  0  0
 11 12  1  0  0  0  0
 12 13  2  0  0  0  0
 12 14  2  0  0  0  0
 12 15  1  0  0  0  0
 15 16  1  0  0  0  0
 15 27  1  0  0  0  0
 15 28  1  0  0  0  0
 16 18  1  0  0  0  0
 16 17  1  0  0  0  0
 16 29  1  0  0  0  0
 17 18  1  0  0  0  0
 17 30  1  0  0  0  0
 17 31  1  0  0  0  0
 18 32  1  0  0  0  0
 18 33  1  0  0  0  0
M  CHG  1  11  -1
M  END
> <s_m_source_file>
AV-unprocessed.smi

> <i_m_source_file_index>
689

> <i_lp_mmshare_version>
43012

> <i_f3d_flags>
0

> <s_epik_input>
W0NIM11jMW5vYyhbQ0gzXSljMVtDSDJdQyg9TylbTkhdUyg9TykoPU8pW0NIMl1bQ0hdMltDSDJdW0NIMl0y

> <s_epik_cmdline>
J2VwaWtfcHl0aG9uJywgJy1waCcsICc3LjAnLCAnLXRuJywgJzgnLCAnLW1hJywgJzIwMCcsICctbWV0YWxfYmluZGluZycsICctaW1hZScsICc8aW5maWxlLm1hZT4nLCAnLW9tYWUnLCAnPG91dGZpbGUubWFlPic=

> <r_epik_Ionization_Penalty>
0.0117783

> <r_epik_Ionization_Penalty_Charging>
0.0117783

> <r_epik_Ionization_Penalty_Neutral>
2.69026e-10

> <r_epik_State_Penalty>
0.00908283

> <r_epik_Charging_Adjusted_Penalty>
0.0208612

> <i_epik_Tot_Q>
-1

> <i_epik_Tot_abs_Q>
1

> <r_epik_Metal_State_Penalty>
0.00890557

> <b_epik_Metal_Only>
0

> <s_lp_Force_Field>
OPLS_2005

> <r_lp_Energy>
1.25467

> <b_lp_Chiralities_Consistent>
1

> <s_lp_Variant>
AV-unprocessed.smi:689-1

> <Gold.Version>
5.8.1

> <Gold.Id.Protein>
6NUR|6NUR_protein|mol2

> <Gold.PLP.Fitness>
41.7965

> <Gold.PLP.PLP>
-29.1965

> <Gold.PLP.part.hbond>
-4.2367

> <Gold.PLP.part.metal>
0.0000

> <Gold.PLP.part.buried>
-4.2822

> <Gold.PLP.part.nonpolar>
-21.1761

> <Gold.PLP.part.repulsive>
0.0542

> <Gold.PLP.ligand.clash>
0.0000

> <Gold.PLP.ligand.torsion>
1.4784

> <Gold.PLP.Chemscore.Hbond>
4.6480

> <Gold.PLP.Chemscore.CHOScore>
0.0000

> <Gold.PLP.Chemscore.Metal>
0.0000

> <Gold.Chemscore.Hbonds>
donor molecule, donor type, donor heavy atom, donor atom, acceptor molecule, acceptor atom, score
      P1  H  6896  6909       L1    11  1.98
      P1  H  6931  6943       L1    13  0.91
      P1  H  7989  7998       L1     3  0.48
      P1  H  7997  8008       L1     4  0.83

> <Gold.PLP.Chemscore.Internal.Correction>
1.6129

> <Gold.Rescore>
     Score         DG    S(hbond)    S(metal)    S(lipo)     H(rot)  DE(clash)    DE(int)     intcor
     19.38     -21.53       3.85        0.00      62.37       1.61       0.09       2.06       ----

> <Gold.Chemscore.Fitness>
19.3790

> <Gold.Chemscore.DG>
-21.5280

> <Gold.Chemscore.ZeroCoef>
-5.4800

> <Gold.Chemscore.Hbond>
3.8506

> <Gold.Chemscore.Metal>
0.0000

> <Gold.Chemscore.Lipo>
62.3747

> <Gold.Chemscore.Internal_Hbond>
0.0000

> <Gold.Chemscore.DEClash>
0.0884

> <Gold.Chemscore.DEInternal>
2.0606

> <Gold.Chemscore.Rot>
1.6058

> <Gold.Chemscore.Internal.Correction>
   9.000000E+99

> <Gold.Chemscore.Hbonds>
donor molecule, donor type, donor heavy atom, donor atom, acceptor molecule, acceptor atom, score
      P1  H  6896  6909       L1    11  0.31
      P1  H  6931  6943       L1    13  0.90
      P1  H  7989  7998       L1     3  0.36
      P1  H  7997  8008       L1     4  0.59

> <Gold.Chemscore.Hbond.Weighted>
-12.8610

> <Gold.Chemscore.Metal.Weighted>
-0.0000

> <Gold.Chemscore.Lipo.Weighted>
-7.2978

> <Gold.Chemscore.Internal_Hbond.Weighted>
0.0000

> <Gold.Chemscore.DEClash.Weighted>
0.0884

> <Gold.Chemscore.DEInternal.Weighted>
2.0606

> <Gold.Chemscore.Rot.Weighted>
4.1108

> <Gold.Chemscore.Internal.Correction.Weighted>
   9.000000E+99

> <Gold.Protein.RotatedTorsions>
[ 6907 6896 6895 6894 ] final   54.74 input  -60.11 | X-H torsion
[ 7974 7965 7964 7962 ] final  169.12 input  175.53 | X-H torsion
[ 8008 7997 7996 7995 ] final  -11.50 input   59.86 | X-H torsion
[ 10167 10162 10161 10158 ] final -111.01 input  -65.29 | X-H torsion
[ 10718 10713 10712 10709 ] final -113.63 input   66.30 | X-H torsion
[ 10763 10752 10751 10750 ] final  -99.03 input  -60.55 | X-H torsion
[ 11005 11000 10999 10996 ] final  -35.03 input  -57.11 | X-H torsion

> <Gold.Protein.ActiveResidues>
 VAL166  LYS551  ARG553  GLY616  TRP617  ASP618  TYR619  PRO620  LYS621  CYS622 
 ASP623  PHE694  ASN695  SER759  ASP760  ASP761  ALA762  ILE779  LEU786  VAL792 
 PHE793  MET794  SER795  GLU796  ALA797  LYS798  CYS799  TRP800  GLU811  SER814 

> <Gold.Protein.RotatedAtoms>
  152.3469  134.7058  160.0247 H   0  0  0  0  0  0  0  0  0  0  0  0  # atno 6907 bound_to 6896
  151.7425  133.3317  159.3377 H   0  0  0  0  0  0  0  0  0  0  0  0  # atno 6908 bound_to 6896
  150.7515  134.6198  159.6175 H   0  0  0  0  0  0  0  0  0  0  0  0  # atno 6909 bound_to 6896
  144.7365  139.9008  143.6409 H   0  0  0  0  0  0  0  0  0  0  0  0  # atno 7974 bound_to 7965
  154.5459  140.2301  155.8563 H   0  0  0  0  0  0  0  0  0  0  0  0  # atno 8008 bound_to 7997
  156.1902  140.3079  155.9280 H   0  0  0  0  0  0  0  0  0  0  0  0  # atno 8009 bound_to 7997
  155.3165  140.0438  157.3028 H   0  0  0  0  0  0  0  0  0  0  0  0  # atno 8010 bound_to 7997
  140.1382  143.4301  152.1580 H   0  0  0  0  0  0  0  0  0  0  0  0  # atno 10167 bound_to 10162
  156.0779  130.5983  150.8668 H   0  0  0  0  0  0  0  0  0  0  0  0  # atno 10718 bound_to 10713
  154.7464  135.4987  153.9211 H   0  0  0  0  0  0  0  0  0  0  0  0  # atno 10763 bound_to 10752
  153.1096  135.6706  153.9532 H   0  0  0  0  0  0  0  0  0  0  0  0  # atno 10764 bound_to 10752
  153.9295  135.3079  155.3425 H   0  0  0  0  0  0  0  0  0  0  0  0  # atno 10765 bound_to 10752
  140.9763  133.7081  156.1608 H   0  0  0  0  0  0  0  0  0  0  0  0  # atno 11005 bound_to 11000
  146.1073  139.4074  143.0309 LP  0  0  0  0  0  0  0  0  0  0  0  0  # atno 17320 bound_to 7965
  145.7493  140.9978  143.1259 LP  0  0  0  0  0  0  0  0  0  0  0  0  # atno 17321 bound_to 7965
  139.5485  144.7318  151.4508 LP  0  0  0  0  0  0  0  0  0  0  0  0  # atno 17342 bound_to 10162
  140.6776  143.8154  150.7079 LP  0  0  0  0  0  0  0  0  0  0  0  0  # atno 17343 bound_to 10162
  157.5883  131.0945  150.9161 LP  0  0  0  0  0  0  0  0  0  0  0  0  # atno 17370 bound_to 10713
  156.9342  130.5361  149.5279 LP  0  0  0  0  0  0  0  0  0  0  0  0  # atno 17371 bound_to 10713
  140.7253  134.4313  157.5571 LP  0  0  0  0  0  0  0  0  0  0  0  0  # atno 17394 bound_to 11000
  139.8932  134.8736  156.2235 LP  0  0  0  0  0  0  0  0  0  0  0  0  # atno 17395 bound_to 11000

$$$$
