AV-unprocessed.smi:1540|AV-procd|sdf|6199|dock7
  -GOLD-   22720 6363D 1   1.00000     0.00000
 Structure written by MMmdl.
 33 33  0  0  0  0  0  0  0  0  1 V2000
  153.5018  138.1217  160.8448 C   0  0  0  0  0  0  0  0  0  0  0  0
  153.6378  137.1442  159.9361 C   0  0  0  0  0  0  0  0  0  0  0  0
  153.7052  137.3662  158.4414 C   0  0  0  0  0  0  0  0  0  0  0  0
  152.6010  136.7386  157.8006 O   0  0  0  0  0  0  0  0  0  0  0  0
  152.4435  137.0360  156.4151 C   0  0  1  0  0  0  0  0  0  0  0  0
  151.1226  136.4032  155.9521 C   0  0  0  0  0  0  0  0  0  0  0  0
  152.4496  138.5569  156.1870 C   0  0  0  0  0  0  0  0  0  0  0  0
  153.1641  139.0352  155.3063 O   0  0  0  0  0  0  0  0  0  0  0  0
  151.6155  139.2615  156.9770 N   0  0  0  0  0  0  0  0  0  0  0  0
  151.3867  140.6468  157.0231 C   0  0  0  0  0  0  0  0  0  0  0  0
  151.7171  141.4552  158.0639 C   0  0  0  0  0  0  0  0  0  0  0  0
  151.4375  142.8817  158.0517 C   0  0  0  0  0  0  0  0  0  0  0  0
  151.8843  143.7897  159.1870 C   0  0  0  0  0  0  0  0  0  0  0  0
  152.5300  143.1036  160.1310 F   0  0  0  0  0  0  0  0  0  0  0  0
  152.7069  144.7273  158.7192 F   0  0  0  0  0  0  0  0  0  0  0  0
  150.8410  144.3979  159.7513 F   0  0  0  0  0  0  0  0  0  0  0  0
  150.8379  143.3662  156.9485 C   0  0  0  0  0  0  0  0  0  0  0  0
  150.4751  142.5381  155.8838 N   0  0  0  0  0  0  0  0  0  0  0  0
  150.7069  141.2068  155.8434 C   0  0  0  0  0  0  0  0  0  0  0  0
  150.3571  140.5446  154.8669 O   0  0  0  0  0  0  0  0  0  0  0  0
  150.0130  142.9748  155.0993 H   0  0  0  0  0  0  0  0  0  0  0  0
  153.4297  139.1581  160.5486 H   0  0  0  0  0  0  0  0  0  0  0  0
  153.4598  137.8960  161.9002 H   0  0  0  0  0  0  0  0  0  0  0  0
  153.7060  136.1190  160.2694 H   0  0  0  0  0  0  0  0  0  0  0  0
  153.7233  138.4372  158.2346 H   0  0  0  0  0  0  0  0  0  0  0  0
  154.6417  136.9439  158.0747 H   0  0  0  0  0  0  0  0  0  0  0  0
  153.2567  136.5737  155.8519 H   0  0  0  0  0  0  0  0  0  0  0  0
  150.9265  136.6178  154.9009 H   0  0  0  0  0  0  0  0  0  0  0  0
  150.2759  136.7696  156.5339 H   0  0  0  0  0  0  0  0  0  0  0  0
  151.1537  135.3194  156.0659 H   0  0  0  0  0  0  0  0  0  0  0  0
  151.0352  138.7211  157.6024 H   0  0  0  0  0  0  0  0  0  0  0  0
  152.1812  141.0569  158.9511 H   0  0  0  0  0  0  0  0  0  0  0  0
  150.5977  144.4079  156.7940 H   0  0  0  0  0  0  0  0  0  0  0  0
  1  2  2  0  0  0  0
  1 22  1  0  0  0  0
  1 23  1  0  0  0  0
  2  3  1  0  0  0  0
  2 24  1  0  0  0  0
  3  4  1  0  0  0  0
  3 25  1  0  0  0  0
  3 26  1  0  0  0  0
  4  5  1  0  0  0  0
  5  6  1  0  0  0  0
  5  7  1  0  0  0  0
  5 27  1  0  0  0  0
  6 28  1  0  0  0  0
  6 29  1  0  0  0  0
  6 30  1  0  0  0  0
  7  8  2  0  0  0  0
  7  9  1  0  0  0  0
  9 10  1  0  0  0  0
  9 31  1  0  0  0  0
 10 19  1  0  0  0  0
 10 11  2  0  0  0  0
 11 12  1  0  0  0  0
 11 32  1  0  0  0  0
 12 13  1  0  0  0  0
 12 17  2  0  0  0  0
 13 14  1  0  0  0  0
 13 15  1  0  0  0  0
 13 16  1  0  0  0  0
 17 18  1  0  0  0  0
 17 33  1  0  0  0  0
 18 21  1  0  0  0  0
 18 19  1  0  0  0  0
 19 20  2  0  0  0  0
M  END
> <s_m_source_file>
AV-unprocessed.smi

> <i_m_source_file_index>
1540

> <i_lp_mmshare_version>
43012

> <i_f3d_flags>
0

> <s_epik_input>
W0NIMl09W0NIXVtDSDJdT1tDQEhdKFtDSDNdKUMoPU8pW05IXWMxW2NIXWMoQyhGKShGKUYpW2NIXVtuSF1jMT1P

> <s_epik_cmdline>
J2VwaWtfcHl0aG9uJywgJy1waCcsICc3LjAnLCAnLXRuJywgJzgnLCAnLW1hJywgJzIwMCcsICctbWV0YWxfYmluZGluZycsICctaW1hZScsICc8aW5maWxlLm1hZT4nLCAnLW9tYWUnLCAnPG91dGZpbGUubWFlPic=

> <r_lp_tautomer_probability>
0.999

> <r_epik_Ionization_Penalty>
0.0086731

> <r_epik_Ionization_Penalty_Charging>
0.00867296

> <r_epik_Ionization_Penalty_Neutral>
1.3954e-07

> <r_epik_State_Penalty>
0.00654787

> <r_epik_Charging_Adjusted_Penalty>
0.0152208

> <i_epik_Tot_Q>
0

> <i_epik_Tot_abs_Q>
0

> <r_epik_Metal_State_Penalty>
0.320056

> <b_epik_Metal_Only>
0

> <s_lp_Force_Field>
OPLS_2005

> <r_lp_Energy>
18.3286

> <b_lp_Chiralities_Consistent>
1

> <s_lp_Variant>
AV-unprocessed.smi:1540-2

> <Gold.Version>
5.8.1

> <Gold.Id.Protein>
6NUR|6NUR_protein|mol2

> <Gold.PLP.Fitness>
41.4265

> <Gold.PLP.PLP>
-34.2825

> <Gold.PLP.part.hbond>
-3.0000

> <Gold.PLP.part.metal>
0.0000

> <Gold.PLP.part.buried>
-0.7591

> <Gold.PLP.part.nonpolar>
-30.6456

> <Gold.PLP.part.repulsive>
0.3025

> <Gold.PLP.ligand.clash>
0.0000

> <Gold.PLP.ligand.torsion>
0.9197

> <Gold.PLP.Chemscore.Hbond>
2.2408

> <Gold.PLP.Chemscore.CHOScore>
0.7189

> <Gold.PLP.Chemscore.Metal>
0.0000

> <Gold.Chemscore.Hbonds>
donor molecule, donor type, donor heavy atom, donor atom, acceptor molecule, acceptor atom, score
      L1  H    18    21       P1  8028  0.19
      P1  H  7989  7998       L1    20  0.96
      P1  H  7997  8008       L1     8  1.00
      L1  C    17    33       P1  8028  0.71

> <Gold.PLP.Chemscore.Internal.Correction>
0.1043

> <Gold.Rescore>
     Score         DG    S(hbond)    S(metal)    S(lipo)     H(rot)  DE(clash)    DE(int)     intcor
     15.17     -16.14       2.29        0.00      65.40       1.81       0.23       0.74       ----

> <Gold.Chemscore.Fitness>
15.1696

> <Gold.Chemscore.DG>
-16.1393

> <Gold.Chemscore.ZeroCoef>
-5.4800

> <Gold.Chemscore.Hbond>
2.2867

> <Gold.Chemscore.Metal>
0.0000

> <Gold.Chemscore.Lipo>
65.3964

> <Gold.Chemscore.Internal_Hbond>
0.0000

> <Gold.Chemscore.DEClash>
0.2286

> <Gold.Chemscore.DEInternal>
0.7411

> <Gold.Chemscore.Rot>
1.8084

> <Gold.Chemscore.Internal.Correction>
   9.000000E+99

> <Gold.Chemscore.Hbonds>
donor molecule, donor type, donor heavy atom, donor atom, acceptor molecule, acceptor atom, score
      L1  H    18    21       P1  8028  0.20
      P1  H  7989  7998       L1    20  0.56
      P1  H  7997  8008       L1     8  0.78

> <Gold.Chemscore.Hbond.Weighted>
-7.6375

> <Gold.Chemscore.Metal.Weighted>
-0.0000

> <Gold.Chemscore.Lipo.Weighted>
-7.6514

> <Gold.Chemscore.Internal_Hbond.Weighted>
0.0000

> <Gold.Chemscore.DEClash.Weighted>
0.2286

> <Gold.Chemscore.DEInternal.Weighted>
0.7411

> <Gold.Chemscore.Rot.Weighted>
4.6296

> <Gold.Chemscore.Internal.Correction.Weighted>
   9.000000E+99

> <Gold.Protein.RotatedTorsions>
[ 6907 6896 6895 6894 ] final  121.06 input  -60.11 | X-H torsion
[ 7974 7965 7964 7962 ] final  -57.94 input  175.53 | X-H torsion
[ 8008 7997 7996 7995 ] final  -24.13 input   59.86 | X-H torsion
[ 10167 10162 10161 10158 ] final  -16.84 input  -65.29 | X-H torsion
[ 10718 10713 10712 10709 ] final -136.16 input   66.30 | X-H torsion
[ 10763 10752 10751 10750 ] final  133.57 input  -60.55 | X-H torsion
[ 11005 11000 10999 10996 ] final  -59.64 input  -57.11 | X-H torsion

> <Gold.Protein.ActiveResidues>
 VAL166  LYS551  ARG553  GLY616  TRP617  ASP618  TYR619  PRO620  LYS621  CYS622 
 ASP623  PHE694  ASN695  SER759  ASP760  ASP761  ALA762  ILE779  LEU786  VAL792 
 PHE793  MET794  SER795  GLU796  ALA797  LYS798  CYS799  TRP800  GLU811  SER814 

> <Gold.Protein.RotatedAtoms>
  152.4351  133.7346  159.6606 H   0  0  0  0  0  0  0  0  0  0  0  0  # atno 6907 bound_to 6896
  150.8234  133.8203  159.3135 H   0  0  0  0  0  0  0  0  0  0  0  0  # atno 6908 bound_to 6896
  151.5879  135.1057  160.0084 H   0  0  0  0  0  0  0  0  0  0  0  0  # atno 6909 bound_to 6896
  145.8452  140.8390  143.0014 H   0  0  0  0  0  0  0  0  0  0  0  0  # atno 7974 bound_to 7965
  154.4546  140.1962  156.0418 H   0  0  0  0  0  0  0  0  0  0  0  0  # atno 8008 bound_to 7997
  156.0719  140.3283  155.7559 H   0  0  0  0  0  0  0  0  0  0  0  0  # atno 8009 bound_to 7997
  155.5249  140.0573  157.2890 H   0  0  0  0  0  0  0  0  0  0  0  0  # atno 8010 bound_to 7997
  140.7239  143.5075  150.9791 H   0  0  0  0  0  0  0  0  0  0  0  0  # atno 10167 bound_to 10162
  156.2741  130.7282  151.1259 H   0  0  0  0  0  0  0  0  0  0  0  0  # atno 10718 bound_to 10713
  153.8093  135.3131  155.3399 H   0  0  0  0  0  0  0  0  0  0  0  0  # atno 10763 bound_to 10752
  154.8058  135.4699  154.0391 H   0  0  0  0  0  0  0  0  0  0  0  0  # atno 10764 bound_to 10752
  153.1764  135.6886  153.8626 H   0  0  0  0  0  0  0  0  0  0  0  0  # atno 10765 bound_to 10752
  141.1256  133.6617  156.5102 H   0  0  0  0  0  0  0  0  0  0  0  0  # atno 11005 bound_to 11000
  144.6731  140.0871  143.7467 LP  0  0  0  0  0  0  0  0  0  0  0  0  # atno 17320 bound_to 7965
  145.9420  139.2675  143.1263 LP  0  0  0  0  0  0  0  0  0  0  0  0  # atno 17321 bound_to 7965
  139.8787  143.7099  152.3159 LP  0  0  0  0  0  0  0  0  0  0  0  0  # atno 17342 bound_to 10162
  139.7374  144.7568  151.0706 LP  0  0  0  0  0  0  0  0  0  0  0  0  # atno 17343 bound_to 10162
  157.7293  131.0625  150.5779 LP  0  0  0  0  0  0  0  0  0  0  0  0  # atno 17370 bound_to 10713
  156.5878  130.4321  149.5949 LP  0  0  0  0  0  0  0  0  0  0  0  0  # atno 17371 bound_to 10713
  140.4375  134.7046  157.4974 LP  0  0  0  0  0  0  0  0  0  0  0  0  # atno 17394 bound_to 11000
  140.0252  134.6488  155.9183 LP  0  0  0  0  0  0  0  0  0  0  0  0  # atno 17395 bound_to 11000

$$$$
