AV-unprocessed.smi:65|AV-procd|sdf|613|dock1
  -GOLD-   2262016503D 1   1.00000     0.00000
 Structure written by MMmdl.
 25 26  0  0  0  0  0  0  0  0  1 V2000
  149.7689  142.2825  155.3055 N   0  0  0  0  0  0  0  0  0  0  0  0
  150.5919  141.7089  156.2436 C   0  0  0  0  0  0  0  0  0  0  0  0
  150.9010  140.4245  156.0611 N   0  0  0  0  0  0  0  0  0  0  0  0
  151.7085  139.8617  156.9850 C   0  0  0  0  0  0  0  0  0  0  0  0
  152.2028  140.5912  158.0854 C   0  0  0  0  0  0  0  0  0  0  0  0
  151.8139  141.9491  158.1768 C   0  0  0  0  0  0  0  0  0  0  0  0
  152.2438  142.7678  159.2387 N   0  0  0  0  0  0  0  0  0  0  0  0
  151.8292  144.1613  159.3402 C   0  0  0  0  0  0  0  0  0  0  0  0
  151.8561  144.4928  160.8375 C   0  0  0  0  0  0  0  0  0  0  0  0
  152.8009  143.4428  161.4238 C   0  0  1  0  0  0  0  0  0  0  0  0
  152.5555  143.1969  162.7921 O   0  0  0  0  0  0  0  0  0  0  0  0
  152.5256  142.2166  160.5550 C   0  0  0  0  0  0  0  0  0  0  0  0
  150.9979  142.4951  157.2422 N   0  0  0  0  0  0  0  0  0  0  0  0
  149.4980  143.2516  155.3879 H   0  0  0  0  0  0  0  0  0  0  0  0
  149.4089  141.7339  154.5382 H   0  0  0  0  0  0  0  0  0  0  0  0
  151.9611  138.8208  156.8476 H   0  0  0  0  0  0  0  0  0  0  0  0
  152.8406  140.1182  158.8170 H   0  0  0  0  0  0  0  0  0  0  0  0
  152.5412  144.7806  158.7938 H   0  0  0  0  0  0  0  0  0  0  0  0
  150.8359  144.3297  158.9229 H   0  0  0  0  0  0  0  0  0  0  0  0
  152.1735  145.5158  161.0414 H   0  0  0  0  0  0  0  0  0  0  0  0
  150.8543  144.3642  161.2506 H   0  0  0  0  0  0  0  0  0  0  0  0
  153.8348  143.7649  161.2909 H   0  0  0  0  0  0  0  0  0  0  0  0
  153.3835  143.0522  163.2241 H   0  0  0  0  0  0  0  0  0  0  0  0
  151.6492  141.6729  160.9111 H   0  0  0  0  0  0  0  0  0  0  0  0
  153.3750  141.5329  160.5369 H   0  0  0  0  0  0  0  0  0  0  0  0
  1  2  1  0  0  0  0
  1 14  1  0  0  0  0
  1 15  1  0  0  0  0
  2 13  1  0  0  0  0
  2  3  2  0  0  0  0
  3  4  1  0  0  0  0
  4  5  2  0  0  0  0
  4 16  1  0  0  0  0
  5  6  1  0  0  0  0
  5 17  1  0  0  0  0
  6  7  1  0  0  0  0
  6 13  2  0  0  0  0
  7 12  1  0  0  0  0
  7  8  1  0  0  0  0
  8  9  1  0  0  0  0
  8 18  1  0  0  0  0
  8 19  1  0  0  0  0
  9 10  1  0  0  0  0
  9 20  1  0  0  0  0
  9 21  1  0  0  0  0
 10 11  1  0  0  0  0
 10 12  1  0  0  0  0
 10 22  1  0  0  0  0
 11 23  1  0  0  0  0
 12 24  1  0  0  0  0
 12 25  1  0  0  0  0
M  END
> <s_m_source_file>
AV-unprocessed.smi

> <i_m_source_file_index>
65

> <i_lp_mmshare_version>
43012

> <i_f3d_flags>
0

> <s_epik_input>
W05IMl1jMW5bY0hdW2NIXWMobjEpTjJbQ0gyXVtDSDJdW0NAQEhdKFtPSF0pW0NIMl0y

> <s_epik_cmdline>
J2VwaWtfcHl0aG9uJywgJy1waCcsICc3LjAnLCAnLXRuJywgJzgnLCAnLW1hJywgJzIwMCcsICctbWV0YWxfYmluZGluZycsICctaW1hZScsICc8aW5maWxlLm1hZT4nLCAnLW9tYWUnLCAnPG91dGZpbGUubWFlPic=

> <r_lp_tautomer_probability>
1

> <r_epik_Ionization_Penalty>
0.99295

> <r_epik_Ionization_Penalty_Charging>
0

> <r_epik_Ionization_Penalty_Neutral>
0.99295

> <r_epik_State_Penalty>
0.750885

> <r_epik_Charging_Adjusted_Penalty>
0.750885

> <i_epik_Tot_Q>
0

> <i_epik_Tot_abs_Q>
0

> <r_epik_Metal_State_Penalty>
0.338511

> <b_epik_Metal_Only>
0

> <s_lp_Force_Field>
OPLS_2005

> <r_lp_Energy>
17.7727

> <b_lp_Chiralities_Consistent>
1

> <s_lp_Variant>
AV-unprocessed.smi:65-3

> <Gold.Version>
5.8.1

> <Gold.Id.Protein>
6NUR|6NUR_protein|mol2

> <Gold.PLP.Fitness>
33.0678

> <Gold.PLP.PLP>
-30.2369

> <Gold.PLP.part.hbond>
-2.0000

> <Gold.PLP.part.metal>
0.0000

> <Gold.PLP.part.buried>
-5.2389

> <Gold.PLP.part.nonpolar>
-22.6945

> <Gold.PLP.part.repulsive>
0.3201

> <Gold.PLP.ligand.clash>
0.0000

> <Gold.PLP.ligand.torsion>
0.1896

> <Gold.PLP.Chemscore.Hbond>
1.0000

> <Gold.PLP.Chemscore.CHOScore>
0.0000

> <Gold.PLP.Chemscore.Metal>
0.0000

> <Gold.Chemscore.Hbonds>
donor molecule, donor type, donor heavy atom, donor atom, acceptor molecule, acceptor atom, score
      L1  H     1    14       P1  8028  1.00

> <Gold.PLP.Chemscore.Internal.Correction>
0.2100

> <Gold.Rescore>
     Score         DG    S(hbond)    S(metal)    S(lipo)     H(rot)  DE(clash)    DE(int)     intcor
     12.89     -13.09       1.00        0.00      58.38       1.00       0.03       0.18       ----

> <Gold.Chemscore.Fitness>
12.8883

> <Gold.Chemscore.DG>
-13.0910

> <Gold.Chemscore.ZeroCoef>
-5.4800

> <Gold.Chemscore.Hbond>
1.0000

> <Gold.Chemscore.Metal>
0.0000

> <Gold.Chemscore.Lipo>
58.3843

> <Gold.Chemscore.Internal_Hbond>
0.0000

> <Gold.Chemscore.DEClash>
0.0270

> <Gold.Chemscore.DEInternal>
0.1757

> <Gold.Chemscore.Rot>
1.0000

> <Gold.Chemscore.Internal.Correction>
   9.000000E+99

> <Gold.Chemscore.Hbonds>
donor molecule, donor type, donor heavy atom, donor atom, acceptor molecule, acceptor atom, score
      L1  H     1    14       P1  8028  0.99

> <Gold.Chemscore.Hbond.Weighted>
-3.3400

> <Gold.Chemscore.Metal.Weighted>
-0.0000

> <Gold.Chemscore.Lipo.Weighted>
-6.8310

> <Gold.Chemscore.Internal_Hbond.Weighted>
0.0000

> <Gold.Chemscore.DEClash.Weighted>
0.0270

> <Gold.Chemscore.DEInternal.Weighted>
0.1757

> <Gold.Chemscore.Rot.Weighted>
2.5600

> <Gold.Chemscore.Internal.Correction.Weighted>
   9.000000E+99

> <Gold.Protein.RotatedTorsions>
[ 6907 6896 6895 6894 ] final   99.91 input  -60.11 | X-H torsion
[ 7974 7965 7964 7962 ] final   95.70 input  175.53 | X-H torsion
[ 8008 7997 7996 7995 ] final  160.71 input   59.86 | X-H torsion
[ 10167 10162 10161 10158 ] final   44.93 input  -65.29 | X-H torsion
[ 10718 10713 10712 10709 ] final  -67.10 input   66.30 | X-H torsion
[ 10763 10752 10751 10750 ] final  -73.02 input  -60.55 | X-H torsion
[ 11005 11000 10999 10996 ] final   -9.95 input  -57.11 | X-H torsion

> <Gold.Protein.ActiveResidues>
 VAL166  LYS551  ARG553  GLY616  TRP617  ASP618  TYR619  PRO620  LYS621  CYS622 
 ASP623  PHE694  ASN695  SER759  ASP760  ASP761  ALA762  ILE779  LEU786  VAL792 
 PHE793  MET794  SER795  GLU796  ALA797  LYS798  CYS799  TRP800  GLU811  SER814 

> <Gold.Protein.RotatedAtoms>
  152.5383  134.0356  159.8044 H   0  0  0  0  0  0  0  0  0  0  0  0  # atno 6907 bound_to 6896
  151.0520  133.5608  159.2648 H   0  0  0  0  0  0  0  0  0  0  0  0  # atno 6908 bound_to 6896
  151.2539  135.0639  159.9126 H   0  0  0  0  0  0  0  0  0  0  0  0  # atno 6909 bound_to 6896
  145.4487  139.2295  143.3052 H   0  0  0  0  0  0  0  0  0  0  0  0  # atno 7974 bound_to 7965
  156.2154  140.1797  156.7601 H   0  0  0  0  0  0  0  0  0  0  0  0  # atno 8008 bound_to 7997
  154.5783  140.0670  156.9096 H   0  0  0  0  0  0  0  0  0  0  0  0  # atno 8009 bound_to 7997
  155.2547  140.3331  155.4281 H   0  0  0  0  0  0  0  0  0  0  0  0  # atno 8010 bound_to 7997
  140.3293  144.2608  150.6170 H   0  0  0  0  0  0  0  0  0  0  0  0  # atno 10167 bound_to 10162
  156.0576  130.4272  150.1805 H   0  0  0  0  0  0  0  0  0  0  0  0  # atno 10718 bound_to 10713
  154.4537  135.5911  153.6209 H   0  0  0  0  0  0  0  0  0  0  0  0  # atno 10763 bound_to 10752
  152.9816  135.6027  154.3572 H   0  0  0  0  0  0  0  0  0  0  0  0  # atno 10764 bound_to 10752
  154.3437  135.2841  155.2388 H   0  0  0  0  0  0  0  0  0  0  0  0  # atno 10765 bound_to 10752
  140.7396  133.8681  155.8957 H   0  0  0  0  0  0  0  0  0  0  0  0  # atno 11005 bound_to 11000
  146.2516  140.5243  142.8891 LP  0  0  0  0  0  0  0  0  0  0  0  0  # atno 17320 bound_to 7965
  144.8075  140.6326  143.6437 LP  0  0  0  0  0  0  0  0  0  0  0  0  # atno 17321 bound_to 7965
  140.5412  143.2223  151.8082 LP  0  0  0  0  0  0  0  0  0  0  0  0  # atno 17342 bound_to 10162
  139.4859  144.4598  151.9554 LP  0  0  0  0  0  0  0  0  0  0  0  0  # atno 17343 bound_to 10162
  156.9879  130.9884  151.3422 LP  0  0  0  0  0  0  0  0  0  0  0  0  # atno 17370 bound_to 10713
  157.5558  130.8213  149.8203 LP  0  0  0  0  0  0  0  0  0  0  0  0  # atno 17371 bound_to 10713
  140.9848  134.1357  157.4462 LP  0  0  0  0  0  0  0  0  0  0  0  0  # atno 17394 bound_to 11000
  139.8809  135.0022  156.6113 LP  0  0  0  0  0  0  0  0  0  0  0  0  # atno 17395 bound_to 11000

$$$$
