AV-unprocessed.smi:2573|AV-procd|sdf|10113|dock6
  -GOLD-   2272014133D 1   1.00000     0.00000
 Structure written by MMmdl.
 38 39  0  0  0  0  0  0  0  0  1 V2000
  156.6999  138.6147  161.3389 C   0  0  0  0  0  0  0  0  0  0  0  0
  155.8602  139.8488  160.9935 C   0  0  0  0  0  0  0  0  0  0  0  0
  154.4053  139.4920  160.6511 C   0  0  0  0  0  0  0  0  0  0  0  0
  153.6405  140.6817  160.2858 N   0  0  0  0  0  0  0  0  0  0  0  0
  153.0485  140.9273  159.0934 C   0  0  0  0  0  0  0  0  0  0  0  0
  153.0641  140.1849  158.1119 O   0  0  0  0  0  0  0  0  0  0  0  0
  152.4313  142.1303  159.1695 N   0  0  0  0  0  0  0  0  0  0  0  0
  151.6617  142.7783  158.1072 C   0  0  0  0  0  0  0  0  0  0  0  0
  150.5838  141.8505  157.5095 C   0  0  1  0  0  0  0  0  0  0  0  0
  149.4270  142.6346  157.3000 O   0  0  0  0  0  0  0  0  0  0  0  0
  151.0124  141.1888  156.1808 C   0  0  0  0  0  0  0  0  0  0  0  0
  149.8936  140.4194  155.4558 C   0  0  0  0  0  0  0  0  0  0  0  0
  149.2088  139.7065  156.3493 F   0  0  0  0  0  0  0  0  0  0  0  0
  149.0574  141.2700  154.8610 F   0  0  0  0  0  0  0  0  0  0  0  0
  150.3928  139.5847  154.5444 F   0  0  0  0  0  0  0  0  0  0  0  0
  152.6248  142.6646  160.4527 C   0  0  0  0  0  0  0  0  0  0  0  0
  152.1942  143.8725  161.0297 C   0  0  0  0  0  0  0  0  0  0  0  0
  152.5667  144.1178  162.3720 C   0  0  0  0  0  0  0  0  0  0  0  0
  153.3420  143.1749  163.0954 C   0  0  0  0  0  0  0  0  0  0  0  0
  153.7646  141.9683  162.4904 C   0  0  0  0  0  0  0  0  0  0  0  0
  153.3840  141.7516  161.1545 C   0  0  0  0  0  0  0  0  0  0  0  0
  157.7260  138.8968  161.5759 H   0  0  0  0  0  0  0  0  0  0  0  0
  156.7320  137.9149  160.5036 H   0  0  0  0  0  0  0  0  0  0  0  0
  156.2911  138.0892  162.2021 H   0  0  0  0  0  0  0  0  0  0  0  0
  155.8804  140.5435  161.8342 H   0  0  0  0  0  0  0  0  0  0  0  0
  156.3191  140.3694  160.1521 H   0  0  0  0  0  0  0  0  0  0  0  0
  154.3756  138.7761  159.8292 H   0  0  0  0  0  0  0  0  0  0  0  0
  153.9324  138.9952  161.4998 H   0  0  0  0  0  0  0  0  0  0  0  0
  151.1894  143.6692  158.5248 H   0  0  0  0  0  0  0  0  0  0  0  0
  152.3279  143.1393  157.3234 H   0  0  0  0  0  0  0  0  0  0  0  0
  150.3319  141.0788  158.2375 H   0  0  0  0  0  0  0  0  0  0  0  0
  149.6320  143.3131  156.6743 H   0  0  0  0  0  0  0  0  0  0  0  0
  151.4349  141.9420  155.5143 H   0  0  0  0  0  0  0  0  0  0  0  0
  151.8175  140.4809  156.3781 H   0  0  0  0  0  0  0  0  0  0  0  0
  151.6060  144.5895  160.4766 H   0  0  0  0  0  0  0  0  0  0  0  0
  152.2565  145.0340  162.8524 H   0  0  0  0  0  0  0  0  0  0  0  0
  153.6140  143.3813  164.1201 H   0  0  0  0  0  0  0  0  0  0  0  0
  154.3549  141.2472  163.0361 H   0  0  0  0  0  0  0  0  0  0  0  0
  1  2  1  0  0  0  0
  1 22  1  0  0  0  0
  1 23  1  0  0  0  0
  1 24  1  0  0  0  0
  2  3  1  0  0  0  0
  2 25  1  0  0  0  0
  2 26  1  0  0  0  0
  3  4  1  0  0  0  0
  3 27  1  0  0  0  0
  3 28  1  0  0  0  0
  4 21  1  0  0  0  0
  4  5  1  0  0  0  0
  5  6  2  0  0  0  0
  5  7  1  0  0  0  0
  7  8  1  0  0  0  0
  7 16  1  0  0  0  0
  8  9  1  0  0  0  0
  8 29  1  0  0  0  0
  8 30  1  0  0  0  0
  9 10  1  0  0  0  0
  9 11  1  0  0  0  0
  9 31  1  0  0  0  0
 10 32  1  0  0  0  0
 11 12  1  0  0  0  0
 11 33  1  0  0  0  0
 11 34  1  0  0  0  0
 12 13  1  0  0  0  0
 12 14  1  0  0  0  0
 12 15  1  0  0  0  0
 16 21  2  0  0  0  0
 16 17  1  0  0  0  0
 17 18  2  0  0  0  0
 17 35  1  0  0  0  0
 18 19  1  0  0  0  0
 18 36  1  0  0  0  0
 19 20  2  0  0  0  0
 19 37  1  0  0  0  0
 20 21  1  0  0  0  0
 20 38  1  0  0  0  0
M  END
> <s_m_source_file>
AV-unprocessed.smi

> <i_m_source_file_index>
2573

> <i_lp_mmshare_version>
43012

> <i_f3d_flags>
0

> <s_epik_input>
W2NIXTFbY0hdW2NIXVtjSF1jKGMxMiluKFtDSDJdW0NIMl1bQ0gzXSljKD1PKW4yW0NIMl1bQ0BIXShbT0hdKVtDSDJdQyhGKShGKUY=

> <s_epik_cmdline>
J2VwaWtfcHl0aG9uJywgJy1waCcsICc3LjAnLCAnLXRuJywgJzgnLCAnLW1hJywgJzIwMCcsICctbWV0YWxfYmluZGluZycsICctaW1hZScsICc8aW5maWxlLm1hZT4nLCAnLW9tYWUnLCAnPG91dGZpbGUubWFlPic=

> <r_lp_tautomer_probability>
1

> <r_epik_Ionization_Penalty>
2.4024e-06

> <r_epik_Ionization_Penalty_Charging>
3.10219e-09

> <r_epik_Ionization_Penalty_Neutral>
2.3993e-06

> <r_epik_State_Penalty>
-0

> <r_epik_Charging_Adjusted_Penalty>
3.10219e-09

> <i_epik_Tot_Q>
0

> <i_epik_Tot_abs_Q>
0

> <r_epik_Metal_State_Penalty>
-0

> <b_epik_Metal_Only>
0

> <s_lp_Force_Field>
OPLS_2005

> <r_lp_Energy>
39.6684

> <b_lp_Chiralities_Consistent>
1

> <s_lp_Variant>
AV-unprocessed.smi:2573-2

> <Gold.Version>
5.8.1

> <Gold.Id.Protein>
6NUR|6NUR_protein|mol2

> <Gold.PLP.Fitness>
51.7040

> <Gold.PLP.PLP>
-48.0518

> <Gold.PLP.part.hbond>
-2.0000

> <Gold.PLP.part.metal>
0.0000

> <Gold.PLP.part.buried>
-1.7865

> <Gold.PLP.part.nonpolar>
-43.8004

> <Gold.PLP.part.repulsive>
0.0000

> <Gold.PLP.ligand.clash>
0.0000

> <Gold.PLP.ligand.torsion>
0.8639

> <Gold.PLP.Chemscore.Hbond>
1.7600

> <Gold.PLP.Chemscore.CHOScore>
0.0000

> <Gold.PLP.Chemscore.Metal>
0.0000

> <Gold.Chemscore.Hbonds>
donor molecule, donor type, donor heavy atom, donor atom, acceptor molecule, acceptor atom, score
      L1  H    10    32       P1  8028  0.86
      P1  H  7997  8010       L1     6  0.90

> <Gold.PLP.Chemscore.Internal.Correction>
0.0999

> <Gold.Rescore>
     Score         DG    S(hbond)    S(metal)    S(lipo)     H(rot)  DE(clash)    DE(int)     intcor
     15.80     -18.19       1.77        0.00     112.42       2.48       0.24       2.15       ----

> <Gold.Chemscore.Fitness>
15.7959

> <Gold.Chemscore.DG>
-18.1944

> <Gold.Chemscore.ZeroCoef>
-5.4800

> <Gold.Chemscore.Hbond>
1.7705

> <Gold.Chemscore.Metal>
0.0000

> <Gold.Chemscore.Lipo>
112.4164

> <Gold.Chemscore.Internal_Hbond>
0.0000

> <Gold.Chemscore.DEClash>
0.2437

> <Gold.Chemscore.DEInternal>
2.1548

> <Gold.Chemscore.Rot>
2.4812

> <Gold.Chemscore.Internal.Correction>
   9.000000E+99

> <Gold.Chemscore.Hbonds>
donor molecule, donor type, donor heavy atom, donor atom, acceptor molecule, acceptor atom, score
      L1  H    10    32       P1  8028  0.86
      P1  H  7997  8010       L1     6  0.84

> <Gold.Chemscore.Hbond.Weighted>
-5.9135

> <Gold.Chemscore.Metal.Weighted>
-0.0000

> <Gold.Chemscore.Lipo.Weighted>
-13.1527

> <Gold.Chemscore.Internal_Hbond.Weighted>
0.0000

> <Gold.Chemscore.DEClash.Weighted>
0.2437

> <Gold.Chemscore.DEInternal.Weighted>
2.1548

> <Gold.Chemscore.Rot.Weighted>
6.3518

> <Gold.Chemscore.Internal.Correction.Weighted>
   9.000000E+99

> <Gold.Protein.RotatedTorsions>
[ 6907 6896 6895 6894 ] final   76.72 input  -60.11 | X-H torsion
[ 7974 7965 7964 7962 ] final  -23.73 input  175.53 | X-H torsion
[ 8008 7997 7996 7995 ] final   27.63 input   59.86 | X-H torsion
[ 10167 10162 10161 10158 ] final  -66.86 input  -65.29 | X-H torsion
[ 10718 10713 10712 10709 ] final   18.09 input   66.30 | X-H torsion
[ 10763 10752 10751 10750 ] final   -3.89 input  -60.55 | X-H torsion
[ 11005 11000 10999 10996 ] final -151.74 input  -57.11 | X-H torsion

> <Gold.Protein.ActiveResidues>
 VAL166  LYS551  ARG553  GLY616  TRP617  ASP618  TYR619  PRO620  LYS621  CYS622 
 ASP623  PHE694  ASN695  SER759  ASP760  ASP761  ALA762  ILE779  LEU786  VAL792 
 PHE793  MET794  SER795  GLU796  ALA797  LYS798  CYS799  TRP800  GLU811  SER814 

> <Gold.Protein.RotatedAtoms>
  152.5086  134.3926  159.9388 H   0  0  0  0  0  0  0  0  0  0  0  0  # atno 6907 bound_to 6896
  151.3886  133.3790  159.2726 H   0  0  0  0  0  0  0  0  0  0  0  0  # atno 6908 bound_to 6896
  150.9450  134.8876  159.7695 H   0  0  0  0  0  0  0  0  0  0  0  0  # atno 6909 bound_to 6896
  146.1598  140.4656  142.8576 H   0  0  0  0  0  0  0  0  0  0  0  0  # atno 7974 bound_to 7965
  155.0460  140.3174  155.4708 H   0  0  0  0  0  0  0  0  0  0  0  0  # atno 8008 bound_to 7997
  156.2844  140.2154  156.5528 H   0  0  0  0  0  0  0  0  0  0  0  0  # atno 8009 bound_to 7997
  154.7250  140.0486  157.0662 H   0  0  0  0  0  0  0  0  0  0  0  0  # atno 8010 bound_to 7997
  140.5625  143.2313  151.6699 H   0  0  0  0  0  0  0  0  0  0  0  0  # atno 10167 bound_to 10162
  157.0914  130.6429  149.5849 H   0  0  0  0  0  0  0  0  0  0  0  0  # atno 10718 bound_to 10713
  153.3775  135.6997  153.6590 H   0  0  0  0  0  0  0  0  0  0  0  0  # atno 10763 bound_to 10752
  153.5215  135.3611  155.2635 H   0  0  0  0  0  0  0  0  0  0  0  0  # atno 10764 bound_to 10752
  154.8689  135.4159  154.3066 H   0  0  0  0  0  0  0  0  0  0  0  0  # atno 10765 bound_to 10752
  140.7264  134.3670  157.5174 H   0  0  0  0  0  0  0  0  0  0  0  0  # atno 11005 bound_to 11000
  144.8012  140.6216  143.6477 LP  0  0  0  0  0  0  0  0  0  0  0  0  # atno 17320 bound_to 7965
  145.4617  139.1512  143.3863 LP  0  0  0  0  0  0  0  0  0  0  0  0  # atno 17321 bound_to 7965
  139.5077  144.3637  152.0538 LP  0  0  0  0  0  0  0  0  0  0  0  0  # atno 17342 bound_to 10162
  140.2765  144.3907  150.6133 LP  0  0  0  0  0  0  0  0  0  0  0  0  # atno 17343 bound_to 10162
  155.9897  130.4945  150.7225 LP  0  0  0  0  0  0  0  0  0  0  0  0  # atno 17370 bound_to 10713
  157.4718  131.0894  151.0634 LP  0  0  0  0  0  0  0  0  0  0  0  0  # atno 17371 bound_to 10713
  139.8836  134.8989  156.2755 LP  0  0  0  0  0  0  0  0  0  0  0  0  # atno 17394 bound_to 11000
  140.9959  133.7180  156.0885 LP  0  0  0  0  0  0  0  0  0  0  0  0  # atno 17395 bound_to 11000

$$$$
