AV-unprocessed.smi:781|AV-procd|sdf|3713|dock5
  -GOLD-   22720 1133D 1   1.00000     0.00000
 Structure written by MMmdl.
 38 40  0  0  0  0  0  0  0  0  1 V2000
  137.9489  137.3632  153.9994 C   0  0  0  0  0  0  0  0  0  0  0  0
  139.4230  137.4311  154.2086 C   0  0  0  0  0  0  0  0  0  0  0  0
  140.4129  138.1654  153.6181 C   0  0  0  0  0  0  0  0  0  0  0  0
  141.5816  137.7328  154.2991 C   0  0  0  0  0  0  0  0  0  0  0  0
  142.8540  138.2670  153.9723 N   0  0  0  0  0  0  0  0  0  0  0  0
  144.0376  137.9657  154.5326 C   0  0  0  0  0  0  0  0  0  0  0  0
  144.2054  137.1624  155.4504 O   0  0  0  0  0  0  0  0  0  0  0  0
  145.0338  138.6619  153.9676 N   0  0  0  0  0  0  0  0  0  0  0  0
  146.4411  138.5783  154.3596 C   0  0  2  0  0  0  0  0  0  0  0  0
  146.8574  139.6588  155.3919 C   0  0  2  0  0  0  0  0  0  0  0  0
  146.4112  141.0661  154.9415 C   0  0  0  0  0  0  0  0  0  0  0  0
  147.3376  141.3435  153.7441 C   0  0  0  0  0  0  0  0  0  0  0  0
  148.2178  140.0770  153.6861 C   0  0  1  0  0  0  0  0  0  0  0  0
  148.3633  139.7501  155.1678 C   0  0  0  0  0  0  0  0  0  0  0  0
  147.4304  138.8399  153.1890 C   0  0  2  0  0  0  0  0  0  0  0  0
  146.8329  138.9398  151.7672 C   0  0  0  0  0  0  0  0  0  0  0  0
  146.5528  137.6516  151.2617 O   0  0  0  0  0  0  0  0  0  0  0  0
  141.3287  136.8168  155.2214 N   0  0  0  0  0  0  0  0  0  0  0  0
  139.9440  136.6178  155.1670 O   0  0  0  0  0  0  0  0  0  0  0  0
  137.5786  138.2805  153.5418 H   0  0  0  0  0  0  0  0  0  0  0  0
  137.4273  137.2251  154.9466 H   0  0  0  0  0  0  0  0  0  0  0  0
  137.6905  136.5305  153.3455 H   0  0  0  0  0  0  0  0  0  0  0  0
  140.3132  138.8940  152.8273 H   0  0  0  0  0  0  0  0  0  0  0  0
  142.8635  138.9531  153.2325 H   0  0  0  0  0  0  0  0  0  0  0  0
  144.8065  139.3012  153.2204 H   0  0  0  0  0  0  0  0  0  0  0  0
  146.6365  137.5844  154.7671 H   0  0  0  0  0  0  0  0  0  0  0  0
  146.5628  139.4188  156.4141 H   0  0  0  0  0  0  0  0  0  0  0  0
  145.3550  141.1310  154.6812 H   0  0  0  0  0  0  0  0  0  0  0  0
  146.5918  141.7934  155.7342 H   0  0  0  0  0  0  0  0  0  0  0  0
  146.7896  141.5319  152.8222 H   0  0  0  0  0  0  0  0  0  0  0  0
  147.9501  142.2245  153.9399 H   0  0  0  0  0  0  0  0  0  0  0  0
  149.1627  140.2283  153.1635 H   0  0  0  0  0  0  0  0  0  0  0  0
  148.8410  140.5453  155.7434 H   0  0  0  0  0  0  0  0  0  0  0  0
  148.8869  138.8113  155.3581 H   0  0  0  0  0  0  0  0  0  0  0  0
  148.1291  138.0010  153.1707 H   0  0  0  0  0  0  0  0  0  0  0  0
  145.8992  139.5023  151.7938 H   0  0  0  0  0  0  0  0  0  0  0  0
  147.4945  139.4600  151.0756 H   0  0  0  0  0  0  0  0  0  0  0  0
  145.7555  137.6933  150.7561 H   0  0  0  0  0  0  0  0  0  0  0  0
  1  2  1  0  0  0  0
  1 20  1  0  0  0  0
  1 21  1  0  0  0  0
  1 22  1  0  0  0  0
  2 19  1  0  0  0  0
  2  3  2  0  0  0  0
  3  4  1  0  0  0  0
  3 23  1  0  0  0  0
  4  5  1  0  0  0  0
  4 18  2  0  0  0  0
  5  6  1  0  0  0  0
  5 24  1  0  0  0  0
  6  7  2  0  0  0  0
  6  8  1  0  0  0  0
  8  9  1  0  0  0  0
  8 25  1  0  0  0  0
  9 15  1  0  0  0  0
  9 10  1  0  0  0  0
  9 26  1  0  0  0  0
 10 14  1  0  0  0  0
 10 11  1  0  0  0  0
 10 27  1  0  0  0  0
 11 12  1  0  0  0  0
 11 28  1  0  0  0  0
 11 29  1  0  0  0  0
 12 13  1  0  0  0  0
 12 30  1  0  0  0  0
 12 31  1  0  0  0  0
 13 14  1  0  0  0  0
 13 15  1  0  0  0  0
 13 32  1  0  0  0  0
 14 33  1  0  0  0  0
 14 34  1  0  0  0  0
 15 16  1  0  0  0  0
 15 35  1  0  0  0  0
 16 17  1  0  0  0  0
 16 36  1  0  0  0  0
 16 37  1  0  0  0  0
 17 38  1  0  0  0  0
 18 19  1  0  0  0  0
M  END
> <s_m_source_file>
AV-unprocessed.smi

> <i_m_source_file_index>
781

> <i_lp_mmshare_version>
43012

> <i_f3d_flags>
0

> <s_epik_input>
W0NIM11jMVtjSF1jKG5vMSlbTkhdQyg9TylbTkhdW0NASF0oW0NAQEhdMjMpW0NASF0oW0NIMl1bT0hdKVtDQEBIXShbQ0gyXTMpW0NIMl1bQ0gyXTI=

> <s_epik_cmdline>
J2VwaWtfcHl0aG9uJywgJy1waCcsICc3LjAnLCAnLXRuJywgJzgnLCAnLW1hJywgJzIwMCcsICctbWV0YWxfYmluZGluZycsICctaW1hZScsICc8aW5maWxlLm1hZT4nLCAnLW9tYWUnLCAnPG91dGZpbGUubWFlPic=

> <r_lp_tautomer_probability>
1

> <r_epik_Ionization_Penalty>
2.32222e-05

> <r_epik_Ionization_Penalty_Charging>
0

> <r_epik_Ionization_Penalty_Neutral>
2.32222e-05

> <r_epik_State_Penalty>
-0

> <r_epik_Charging_Adjusted_Penalty>
0

> <i_epik_Tot_Q>
0

> <i_epik_Tot_abs_Q>
0

> <r_epik_Metal_State_Penalty>
-0

> <b_epik_Metal_Only>
0

> <s_lp_Force_Field>
OPLS_2005

> <r_lp_Energy>
48.8518

> <b_lp_Chiralities_Consistent>
1

> <s_lp_Variant>
AV-unprocessed.smi:781-7

> <Gold.Version>
5.8.1

> <Gold.Id.Protein>
6NUR|6NUR_protein|mol2

> <Gold.PLP.Fitness>
43.0079

> <Gold.PLP.PLP>
-29.0783

> <Gold.PLP.part.hbond>
-6.2778

> <Gold.PLP.part.metal>
0.0000

> <Gold.PLP.part.buried>
0.1411

> <Gold.PLP.part.nonpolar>
-22.7159

> <Gold.PLP.part.repulsive>
0.0855

> <Gold.PLP.ligand.clash>
0.0000

> <Gold.PLP.ligand.torsion>
0.5393

> <Gold.PLP.Chemscore.Hbond>
5.0000

> <Gold.PLP.Chemscore.CHOScore>
0.0000

> <Gold.PLP.Chemscore.Metal>
0.0000

> <Gold.Chemscore.Hbonds>
donor molecule, donor type, donor heavy atom, donor atom, acceptor molecule, acceptor atom, score
      L1  H     5    24       P1 10175  0.99
      L1  H     8    25       P1 10175  0.99
      L1  H    17    38       P1 10171  0.37
      P1  H  7954  7966       L1    17  0.38
      P1  H 11000 11005       L1    19  0.85

> <Gold.PLP.Chemscore.Internal.Correction>
0.0083

> <Gold.Rescore>
     Score         DG    S(hbond)    S(metal)    S(lipo)     H(rot)  DE(clash)    DE(int)     intcor
     19.24     -21.84       4.09        0.00      63.77       1.86       0.69       1.91       ----

> <Gold.Chemscore.Fitness>
19.2402

> <Gold.Chemscore.DG>
-21.8439

> <Gold.Chemscore.ZeroCoef>
-5.4800

> <Gold.Chemscore.Hbond>
4.0903

> <Gold.Chemscore.Metal>
0.0000

> <Gold.Chemscore.Lipo>
63.7671

> <Gold.Chemscore.Internal_Hbond>
0.0000

> <Gold.Chemscore.DEClash>
0.6948

> <Gold.Chemscore.DEInternal>
1.9090

> <Gold.Chemscore.Rot>
1.8587

> <Gold.Chemscore.Internal.Correction>
   9.000000E+99

> <Gold.Chemscore.Hbonds>
donor molecule, donor type, donor heavy atom, donor atom, acceptor molecule, acceptor atom, score
      L1  H     5    24       P1 10175  0.94
      L1  H     8    25       P1 10175  0.94
      L1  H    17    38       P1 10171  0.37
      P1  H  7954  7966       L1    17  0.01
      P1  H 11000 11005       L1    19  0.13

> <Gold.Chemscore.Hbond.Weighted>
-13.6615

> <Gold.Chemscore.Metal.Weighted>
-0.0000

> <Gold.Chemscore.Lipo.Weighted>
-7.4607

> <Gold.Chemscore.Internal_Hbond.Weighted>
0.0000

> <Gold.Chemscore.DEClash.Weighted>
0.6948

> <Gold.Chemscore.DEInternal.Weighted>
1.9090

> <Gold.Chemscore.Rot.Weighted>
4.7583

> <Gold.Chemscore.Internal.Correction.Weighted>
   9.000000E+99

> <Gold.Protein.RotatedTorsions>
[ 6907 6896 6895 6894 ] final   64.43 input  -60.11 | X-H torsion
[ 7974 7965 7964 7962 ] final   48.55 input  175.53 | X-H torsion
[ 8008 7997 7996 7995 ] final   54.35 input   59.86 | X-H torsion
[ 10167 10162 10161 10158 ] final  -11.28 input  -65.29 | X-H torsion
[ 10718 10713 10712 10709 ] final    5.28 input   66.30 | X-H torsion
[ 10763 10752 10751 10750 ] final -116.75 input  -60.55 | X-H torsion
[ 11005 11000 10999 10996 ] final   78.58 input  -57.11 | X-H torsion

> <Gold.Protein.ActiveResidues>
 VAL166  LYS551  ARG553  GLY616  TRP617  ASP618  TYR619  PRO620  LYS621  CYS622 
 ASP623  PHE694  ASN695  SER759  ASP760  ASP761  ALA762  ILE779  LEU786  VAL792 
 PHE793  MET794  SER795  GLU796  ALA797  LYS798  CYS799  TRP800  GLU811  SER814 

> <Gold.Protein.RotatedAtoms>
  152.4331  134.5739  159.9928 H   0  0  0  0  0  0  0  0  0  0  0  0  # atno 6907 bound_to 6896
  151.5857  133.3366  159.3025 H   0  0  0  0  0  0  0  0  0  0  0  0  # atno 6908 bound_to 6896
  150.8226  134.7476  159.6850 H   0  0  0  0  0  0  0  0  0  0  0  0  # atno 6909 bound_to 6896
  146.0193  139.4633  142.9907 H   0  0  0  0  0  0  0  0  0  0  0  0  # atno 7974 bound_to 7965
  155.4833  140.3469  155.4343 H   0  0  0  0  0  0  0  0  0  0  0  0  # atno 8008 bound_to 7997
  156.1025  140.1439  156.9477 H   0  0  0  0  0  0  0  0  0  0  0  0  # atno 8009 bound_to 7997
  154.4703  140.0903  156.7104 H   0  0  0  0  0  0  0  0  0  0  0  0  # atno 8010 bound_to 7997
  140.7135  143.5656  150.9147 H   0  0  0  0  0  0  0  0  0  0  0  0  # atno 10167 bound_to 10162
  156.9051  130.5736  149.5647 H   0  0  0  0  0  0  0  0  0  0  0  0  # atno 10718 bound_to 10713
  154.8531  135.4334  154.1871 H   0  0  0  0  0  0  0  0  0  0  0  0  # atno 10763 bound_to 10752
  153.2948  135.6964  153.7265 H   0  0  0  0  0  0  0  0  0  0  0  0  # atno 10764 bound_to 10752
  153.6418  135.3466  155.3048 H   0  0  0  0  0  0  0  0  0  0  0  0  # atno 10765 bound_to 10752
  139.9207  134.7774  156.1667 H   0  0  0  0  0  0  0  0  0  0  0  0  # atno 11005 bound_to 11000
  145.7218  141.0072  143.1398 LP  0  0  0  0  0  0  0  0  0  0  0  0  # atno 17320 bound_to 7965
  144.6983  139.8879  143.7451 LP  0  0  0  0  0  0  0  0  0  0  0  0  # atno 17321 bound_to 7965
  139.9382  143.6413  152.3060 LP  0  0  0  0  0  0  0  0  0  0  0  0  # atno 17342 bound_to 10162
  139.6888  144.7649  151.1476 LP  0  0  0  0  0  0  0  0  0  0  0  0  # atno 17343 bound_to 10162
  156.0563  130.5624  150.9098 LP  0  0  0  0  0  0  0  0  0  0  0  0  # atno 17370 bound_to 10713
  157.6002  131.0941  150.8973 LP  0  0  0  0  0  0  0  0  0  0  0  0  # atno 17371 bound_to 10713
  141.0725  133.6790  156.2169 LP  0  0  0  0  0  0  0  0  0  0  0  0  # atno 17394 bound_to 11000
  140.6483  134.5093  157.5575 LP  0  0  0  0  0  0  0  0  0  0  0  0  # atno 17395 bound_to 11000

$$$$
