AV-unprocessed.smi:2869|AV-procd|sdf|11028|dock8
  -GOLD-   2272015493D 1   1.00000     0.00000
 Structure written by MMmdl.
 49 51  0  0  0  0  0  0  0  0  1 V2000
  148.4635  142.0873  153.8961 N   0  0  0  0  0  0  0  0  0  0  0  0
  149.2264  141.7178  154.6842 C   0  0  0  0  0  0  0  0  0  0  0  0
  150.1792  141.2457  155.6337 C   0  0  0  0  0  0  0  0  0  0  0  0
  150.3974  141.8857  156.8007 C   0  0  0  0  0  0  0  0  0  0  0  0
  151.3060  141.4362  157.7338 N   0  0  0  0  0  0  0  0  0  0  0  0
  151.6215  142.2089  158.9023 C   0  0  0  0  0  0  0  0  0  0  0  0
  152.0636  143.6539  158.7735 C   0  0  0  0  0  0  0  0  0  0  0  0
  153.0627  142.5908  159.1595 C   0  0  0  0  0  0  0  0  0  0  0  0
  152.1149  140.3129  157.4539 C   0  0  0  0  0  0  0  0  0  0  0  0
  152.9892  139.9438  158.2420 O   0  0  0  0  0  0  0  0  0  0  0  0
  151.8931  139.6237  156.2370 N   0  0  0  0  0  0  0  0  0  0  0  0
  152.6912  138.4110  155.9511 C   0  0  0  0  0  0  0  0  0  0  0  0
  151.9194  137.1008  156.1700 C   0  0  0  0  0  0  0  0  0  0  0  0
  152.4193  136.1638  156.7945 O   0  0  0  0  0  0  0  0  0  0  0  0
  150.6860  137.0595  155.6427 N   0  0  0  0  0  0  0  0  0  0  0  0
  149.7549  135.9339  155.7261 C   0  0  0  0  0  0  0  0  0  0  0  0
  149.6139  135.5651  157.2211 C   0  0  0  0  0  0  0  0  0  0  0  0
  148.2677  134.9638  157.6806 C   0  0  0  0  0  0  0  0  0  0  0  0
  147.7646  133.6865  156.9840 C   0  0  0  0  0  0  0  0  0  0  0  0
  148.8522  132.6403  156.6814 C   0  0  0  0  0  0  0  0  0  0  0  0
  149.1630  132.4675  155.1849 C   0  0  0  0  0  0  0  0  0  0  0  0
  149.2840  133.7555  154.3463 C   0  0  0  0  0  0  0  0  0  0  0  0
  150.3105  134.7921  154.8332 C   0  0  0  0  0  0  0  0  0  0  0  0
  150.9217  140.0354  155.2888 C   0  0  0  0  0  0  0  0  0  0  0  0
  150.7373  139.3976  154.2506 O   0  0  0  0  0  0  0  0  0  0  0  0
  149.8339  142.7815  157.0191 H   0  0  0  0  0  0  0  0  0  0  0  0
  151.0302  141.9733  159.7856 H   0  0  0  0  0  0  0  0  0  0  0  0
  152.1527  144.0794  157.7756 H   0  0  0  0  0  0  0  0  0  0  0  0
  151.7407  144.3470  159.5476 H   0  0  0  0  0  0  0  0  0  0  0  0
  153.4089  142.5767  160.1909 H   0  0  0  0  0  0  0  0  0  0  0  0
  153.8079  142.3166  158.4149 H   0  0  0  0  0  0  0  0  0  0  0  0
  153.0643  138.4272  154.9258 H   0  0  0  0  0  0  0  0  0  0  0  0
  153.5973  138.3809  156.5582 H   0  0  0  0  0  0  0  0  0  0  0  0
  150.3611  137.8766  155.1467 H   0  0  0  0  0  0  0  0  0  0  0  0
  148.7830  136.2617  155.3525 H   0  0  0  0  0  0  0  0  0  0  0  0
  150.4462  134.9309  157.5255 H   0  0  0  0  0  0  0  0  0  0  0  0
  149.7401  136.4717  157.8157 H   0  0  0  0  0  0  0  0  0  0  0  0
  148.3553  134.7525  158.7470 H   0  0  0  0  0  0  0  0  0  0  0  0
  147.4920  135.7263  157.6022 H   0  0  0  0  0  0  0  0  0  0  0  0
  147.0160  133.2307  157.6332 H   0  0  0  0  0  0  0  0  0  0  0  0
  147.2101  133.9476  156.0839 H   0  0  0  0  0  0  0  0  0  0  0  0
  149.7675  132.8530  157.2314 H   0  0  0  0  0  0  0  0  0  0  0  0
  148.5250  131.6736  157.0662 H   0  0  0  0  0  0  0  0  0  0  0  0
  150.0802  131.8859  155.0854 H   0  0  0  0  0  0  0  0  0  0  0  0
  148.3794  131.8542  154.7388 H   0  0  0  0  0  0  0  0  0  0  0  0
  149.5815  133.4423  153.3447 H   0  0  0  0  0  0  0  0  0  0  0  0
  148.3130  134.2280  154.2018 H   0  0  0  0  0  0  0  0  0  0  0  0
  150.7225  135.2456  153.9300 H   0  0  0  0  0  0  0  0  0  0  0  0
  151.1587  134.2997  155.3103 H   0  0  0  0  0  0  0  0  0  0  0  0
  1  2  3  0  0  0  0
  2  3  1  0  0  0  0
  3 24  1  0  0  0  0
  3  4  2  0  0  0  0
  4  5  1  0  0  0  0
  4 26  1  0  0  0  0
  5  6  1  0  0  0  0
  5  9  1  0  0  0  0
  6  8  1  0  0  0  0
  6  7  1  0  0  0  0
  6 27  1  0  0  0  0
  7  8  1  0  0  0  0
  7 28  1  0  0  0  0
  7 29  1  0  0  0  0
  8 30  1  0  0  0  0
  8 31  1  0  0  0  0
  9 10  2  0  0  0  0
  9 11  1  0  0  0  0
 11 12  1  0  0  0  0
 11 24  1  0  0  0  0
 12 13  1  0  0  0  0
 12 32  1  0  0  0  0
 12 33  1  0  0  0  0
 13 14  2  0  0  0  0
 13 15  1  0  0  0  0
 15 16  1  0  0  0  0
 15 34  1  0  0  0  0
 16 23  1  0  0  0  0
 16 17  1  0  0  0  0
 16 35  1  0  0  0  0
 17 18  1  0  0  0  0
 17 36  1  0  0  0  0
 17 37  1  0  0  0  0
 18 19  1  0  0  0  0
 18 38  1  0  0  0  0
 18 39  1  0  0  0  0
 19 20  1  0  0  0  0
 19 40  1  0  0  0  0
 19 41  1  0  0  0  0
 20 21  1  0  0  0  0
 20 42  1  0  0  0  0
 20 43  1  0  0  0  0
 21 22  1  0  0  0  0
 21 44  1  0  0  0  0
 21 45  1  0  0  0  0
 22 23  1  0  0  0  0
 22 46  1  0  0  0  0
 22 47  1  0  0  0  0
 23 48  1  0  0  0  0
 23 49  1  0  0  0  0
 24 25  2  0  0  0  0
M  END
> <s_m_source_file>
AV-unprocessed.smi

> <i_m_source_file_index>
2869

> <i_lp_mmshare_version>
43012

> <i_f3d_flags>
0

> <s_epik_input>
TiNDYzFbY0hdbihbQ0hdMltDSDJdW0NIMl0yKWMoPU8pbihjMT1PKVtDSDJdQyg9TylbTkhdW0NIXTNbQ0gyXVtDSDJdW0NIMl1bQ0gyXVtDSDJdW0NIMl1bQ0gyXTM=

> <s_epik_cmdline>
J2VwaWtfcHl0aG9uJywgJy1waCcsICc3LjAnLCAnLXRuJywgJzgnLCAnLW1hJywgJzIwMCcsICctbWV0YWxfYmluZGluZycsICctaW1hZScsICc8aW5maWxlLm1hZT4nLCAnLW9tYWUnLCAnPG91dGZpbGUubWFlPic=

> <r_lp_tautomer_probability>
1

> <r_epik_Ionization_Penalty>
2.03018e-08

> <r_epik_Ionization_Penalty_Charging>
8.701e-11

> <r_epik_Ionization_Penalty_Neutral>
2.02148e-08

> <r_epik_State_Penalty>
-0

> <r_epik_Charging_Adjusted_Penalty>
8.701e-11

> <i_epik_Tot_Q>
0

> <i_epik_Tot_abs_Q>
0

> <r_epik_Metal_State_Penalty>
-0

> <b_epik_Metal_Only>
0

> <s_lp_Force_Field>
OPLS_2005

> <r_lp_Energy>
47.5685

> <b_lp_Chiralities_Consistent>
1

> <s_lp_Variant>
AV-unprocessed.smi:2869-1

> <Gold.Version>
5.8.1

> <Gold.Id.Protein>
6NUR|6NUR_protein|mol2

> <Gold.PLP.Fitness>
50.1680

> <Gold.PLP.PLP>
-40.7685

> <Gold.PLP.part.hbond>
-4.0000

> <Gold.PLP.part.metal>
0.0000

> <Gold.PLP.part.buried>
-0.9763

> <Gold.PLP.part.nonpolar>
-35.0079

> <Gold.PLP.part.repulsive>
0.4149

> <Gold.PLP.ligand.clash>
0.0000

> <Gold.PLP.ligand.torsion>
0.5602

> <Gold.PLP.Chemscore.Hbond>
2.5705

> <Gold.PLP.Chemscore.CHOScore>
0.8632

> <Gold.PLP.Chemscore.Metal>
0.0000

> <Gold.Chemscore.Hbonds>
donor molecule, donor type, donor heavy atom, donor atom, acceptor molecule, acceptor atom, score
      P1  H  7989  7998       L1    25  0.15
      P1  H  7997  8009       L1    10  0.97
      P1  H  8011  8017       L1     1  0.32
      P1  H 10752 10763       L1    14  0.94
      L1  C     4    26       P1  8028  0.96

> <Gold.PLP.Chemscore.Internal.Correction>
0.2189

> <Gold.Rescore>
     Score         DG    S(hbond)    S(metal)    S(lipo)     H(rot)  DE(clash)    DE(int)     intcor
     10.89     -16.87       1.71        0.00      85.36       1.68       0.37       5.61       ----

> <Gold.Chemscore.Fitness>
10.8874

> <Gold.Chemscore.DG>
-16.8745

> <Gold.Chemscore.ZeroCoef>
-5.4800

> <Gold.Chemscore.Hbond>
1.7110

> <Gold.Chemscore.Metal>
0.0000

> <Gold.Chemscore.Lipo>
85.3604

> <Gold.Chemscore.Internal_Hbond>
0.0000

> <Gold.Chemscore.DEClash>
0.3749

> <Gold.Chemscore.DEInternal>
5.6122

> <Gold.Chemscore.Rot>
1.6826

> <Gold.Chemscore.Internal.Correction>
   9.000000E+99

> <Gold.Chemscore.Hbonds>
donor molecule, donor type, donor heavy atom, donor atom, acceptor molecule, acceptor atom, score
      P1  H  7997  8009       L1    10  0.39
      P1  H  8011  8017       L1     1  0.07
      P1  H 10752 10763       L1    14  0.25

> <Gold.Chemscore.Hbond.Weighted>
-5.7149

> <Gold.Chemscore.Metal.Weighted>
-0.0000

> <Gold.Chemscore.Lipo.Weighted>
-9.9872

> <Gold.Chemscore.Internal_Hbond.Weighted>
0.0000

> <Gold.Chemscore.DEClash.Weighted>
0.3749

> <Gold.Chemscore.DEInternal.Weighted>
5.6122

> <Gold.Chemscore.Rot.Weighted>
4.3076

> <Gold.Chemscore.Internal.Correction.Weighted>
   9.000000E+99

> <Gold.Protein.RotatedTorsions>
[ 6907 6896 6895 6894 ] final   67.75 input  -60.11 | X-H torsion
[ 7974 7965 7964 7962 ] final  -56.11 input  175.53 | X-H torsion
[ 8008 7997 7996 7995 ] final  144.79 input   59.86 | X-H torsion
[ 10167 10162 10161 10158 ] final  143.56 input  -65.29 | X-H torsion
[ 10718 10713 10712 10709 ] final -118.71 input   66.30 | X-H torsion
[ 10763 10752 10751 10750 ] final  126.29 input  -60.55 | X-H torsion
[ 11005 11000 10999 10996 ] final   33.34 input  -57.11 | X-H torsion

> <Gold.Protein.ActiveResidues>
 VAL166  LYS551  ARG553  GLY616  TRP617  ASP618  TYR619  PRO620  LYS621  CYS622 
 ASP623  PHE694  ASN695  SER759  ASP760  ASP761  ALA762  ILE779  LEU786  VAL792 
 PHE793  MET794  SER795  GLU796  ALA797  LYS798  CYS799  TRP800  GLU811  SER814 

> <Gold.Protein.RotatedAtoms>
  152.4573  134.5262  159.9797 H   0  0  0  0  0  0  0  0  0  0  0  0  # atno 6907 bound_to 6896
  151.5319  133.3442  159.2927 H   0  0  0  0  0  0  0  0  0  0  0  0  # atno 6908 bound_to 6896
  150.8523  134.7881  159.7081 H   0  0  0  0  0  0  0  0  0  0  0  0  # atno 6909 bound_to 6896
  145.8664  140.8248  142.9910 H   0  0  0  0  0  0  0  0  0  0  0  0  # atno 7974 bound_to 7965
  156.2899  140.2226  156.5111 H   0  0  0  0  0  0  0  0  0  0  0  0  # atno 8008 bound_to 7997
  154.7608  140.0473  157.0993 H   0  0  0  0  0  0  0  0  0  0  0  0  # atno 8009 bound_to 7997
  154.9993  140.3099  155.4877 H   0  0  0  0  0  0  0  0  0  0  0  0  # atno 8010 bound_to 7997
  139.4967  144.6032  151.6435 H   0  0  0  0  0  0  0  0  0  0  0  0  # atno 10167 bound_to 10162
  156.1126  130.6261  150.9325 H   0  0  0  0  0  0  0  0  0  0  0  0  # atno 10718 bound_to 10713
  153.6909  135.3299  155.3202 H   0  0  0  0  0  0  0  0  0  0  0  0  # atno 10763 bound_to 10752
  154.8440  135.4431  154.1509 H   0  0  0  0  0  0  0  0  0  0  0  0  # atno 10764 bound_to 10752
  153.2550  135.6985  153.7716 H   0  0  0  0  0  0  0  0  0  0  0  0  # atno 10765 bound_to 10752
  140.2641  134.3158  155.7848 H   0  0  0  0  0  0  0  0  0  0  0  0  # atno 11005 bound_to 11000
  144.6726  140.1173  143.7452 LP  0  0  0  0  0  0  0  0  0  0  0  0  # atno 17320 bound_to 7965
  145.9188  139.2533  143.1394 LP  0  0  0  0  0  0  0  0  0  0  0  0  # atno 17321 bound_to 7965
  140.5687  144.0146  150.6205 LP  0  0  0  0  0  0  0  0  0  0  0  0  # atno 17342 bound_to 10162
  140.3256  143.3110  152.0740 LP  0  0  0  0  0  0  0  0  0  0  0  0  # atno 17343 bound_to 10162
  157.6308  131.0921  150.8445 LP  0  0  0  0  0  0  0  0  0  0  0  0  # atno 17370 bound_to 10713
  156.8553  130.5094  149.5308 LP  0  0  0  0  0  0  0  0  0  0  0  0  # atno 17371 bound_to 10713
  141.2186  133.7427  156.9232 LP  0  0  0  0  0  0  0  0  0  0  0  0  # atno 17394 bound_to 11000
  140.1436  134.9277  157.2500 LP  0  0  0  0  0  0  0  0  0  0  0  0  # atno 17395 bound_to 11000

$$$$
