AV-unprocessed.smi:1726|AV-procd|sdf|6958|dock9
  -GOLD-   22720 8173D 1   1.00000     0.00000
 Structure written by MMmdl.
 43 44  0  0  0  0  0  0  0  0  2 V2000
  145.3527  132.6860  150.3318 C   0  0  0  0  0  0  0  0  0  0  0  0
  144.9417  132.0961  151.6888 C   0  0  0  0  0  0  0  0  0  0  0  0
  144.2719  133.0951  152.5581 N   0  3  2  0  0  0  0  0  0  0  0  0
  143.2816  133.9197  151.8178 C   0  0  0  0  0  0  0  0  0  0  0  0
  142.4963  134.8371  152.7719 C   0  0  0  0  0  0  0  0  0  0  0  0
  143.4398  135.7065  153.6202 C   0  0  0  0  0  0  0  0  0  0  0  0
  144.4889  134.8396  154.3392 C   0  0  1  0  0  0  0  0  0  0  0  0
  143.8435  134.0400  155.3813 N   0  0  0  0  0  0  0  0  0  0  0  0
  143.9603  134.2437  156.7012 C   0  0  0  0  0  0  0  0  0  0  0  0
  144.6448  135.1446  157.1850 O   0  0  0  0  0  0  0  0  0  0  0  0
  143.2616  133.3248  157.3921 N   0  0  0  0  0  0  0  0  0  0  0  0
  143.1156  133.1803  158.7820 C   0  0  0  0  0  0  0  0  0  0  0  0
  143.5977  134.0493  159.7087 C   0  0  0  0  0  0  0  0  0  0  0  0
  143.3996  133.8448  161.1340 C   0  0  0  0  0  0  0  0  0  0  0  0
  144.0157  134.7777  162.1649 C   0  0  0  0  0  0  0  0  0  0  0  0
  144.6208  135.8129  161.5805 F   0  0  0  0  0  0  0  0  0  0  0  0
  143.0875  135.2503  162.9973 F   0  0  0  0  0  0  0  0  0  0  0  0
  144.9227  134.1195  162.8857 F   0  0  0  0  0  0  0  0  0  0  0  0
  142.7160  132.7425  161.4930 C   0  0  0  0  0  0  0  0  0  0  0  0
  142.1978  131.8565  160.5459 N   0  0  0  0  0  0  0  0  0  0  0  0
  142.3494  131.9983  159.2101 C   0  0  0  0  0  0  0  0  0  0  0  0
  141.8659  131.1710  158.4378 O   0  0  0  0  0  0  0  0  0  0  0  0
  145.2256  133.9528  153.3108 C   0  0  0  0  0  0  0  0  0  0  0  0
  141.6831  131.0608  160.8949 H   0  0  0  0  0  0  0  0  0  0  0  0
  145.9233  131.9581  149.7548 H   0  0  0  0  0  0  0  0  0  0  0  0
  145.9799  133.5689  150.4601 H   0  0  0  0  0  0  0  0  0  0  0  0
  144.4912  132.9708  149.7285 H   0  0  0  0  0  0  0  0  0  0  0  0
  144.3001  131.2239  151.5549 H   0  0  0  0  0  0  0  0  0  0  0  0
  145.8473  131.7401  152.1818 H   0  0  0  0  0  0  0  0  0  0  0  0
  143.7957  134.5143  151.0607 H   0  0  0  0  0  0  0  0  0  0  0  0
  142.5807  133.2722  151.2898 H   0  0  0  0  0  0  0  0  0  0  0  0
  141.8191  135.4736  152.2013 H   0  0  0  0  0  0  0  0  0  0  0  0
  141.8666  134.2307  153.4242 H   0  0  0  0  0  0  0  0  0  0  0  0
  143.9467  136.4234  152.9728 H   0  0  0  0  0  0  0  0  0  0  0  0
  142.8691  136.2950  154.3398 H   0  0  0  0  0  0  0  0  0  0  0  0
  145.2107  135.5028  154.8195 H   0  0  0  0  0  0  0  0  0  0  0  0
  143.2545  133.2806  155.0713 H   0  0  0  0  0  0  0  0  0  0  0  0
  142.8037  132.6070  156.8494 H   0  0  0  0  0  0  0  0  0  0  0  0
  144.1284  134.9393  159.4127 H   0  0  0  0  0  0  0  0  0  0  0  0
  142.5209  132.4538  162.5155 H   0  0  0  0  0  0  0  0  0  0  0  0
  145.9694  133.3412  153.8198 H   0  0  0  0  0  0  0  0  0  0  0  0
  145.7789  134.5787  152.6088 H   0  0  0  0  0  0  0  0  0  0  0  0
  143.7465  132.5691  153.2414 H   0  0  0  0  0  0  0  0  0  0  0  0
  1  2  1  0  0  0  0
  1 25  1  0  0  0  0
  1 26  1  0  0  0  0
  1 27  1  0  0  0  0
  2  3  1  0  0  0  0
  2 28  1  0  0  0  0
  2 29  1  0  0  0  0
  3 23  1  0  0  0  0
  3  4  1  0  0  0  0
  3 43  1  0  0  0  0
  4  5  1  0  0  0  0
  4 30  1  0  0  0  0
  4 31  1  0  0  0  0
  5  6  1  0  0  0  0
  5 32  1  0  0  0  0
  5 33  1  0  0  0  0
  6  7  1  0  0  0  0
  6 34  1  0  0  0  0
  6 35  1  0  0  0  0
  7  8  1  0  0  0  0
  7 23  1  0  0  0  0
  7 36  1  0  0  0  0
  8  9  1  0  0  0  0
  8 37  1  0  0  0  0
  9 10  2  0  0  0  0
  9 11  1  0  0  0  0
 11 12  1  0  0  0  0
 11 38  1  0  0  0  0
 12 21  1  0  0  0  0
 12 13  2  0  0  0  0
 13 14  1  0  0  0  0
 13 39  1  0  0  0  0
 14 15  1  0  0  0  0
 14 19  2  0  0  0  0
 15 16  1  0  0  0  0
 15 17  1  0  0  0  0
 15 18  1  0  0  0  0
 19 20  1  0  0  0  0
 19 40  1  0  0  0  0
 20 24  1  0  0  0  0
 20 21  1  0  0  0  0
 21 22  2  0  0  0  0
 23 41  1  0  0  0  0
 23 42  1  0  0  0  0
M  CHG  1   3   1
M  END
> <s_m_source_file>
AV-unprocessed.smi

> <i_m_source_file_index>
1726

> <i_lp_mmshare_version>
43012

> <i_f3d_flags>
0

> <s_epik_input>
W0NIM11bQ0gyXU4xW0NIMl1bQ0gyXVtDSDJdW0NASF0oW0NIMl0xKVtOSF1DKD1PKVtOSF1jMltjSF1jKEMoRikoRilGKVtjSF1bbkhdYzI9Tw==

> <s_epik_cmdline>
J2VwaWtfcHl0aG9uJywgJy1waCcsICc3LjAnLCAnLXRuJywgJzgnLCAnLW1hJywgJzIwMCcsICctbWV0YWxfYmluZGluZycsICctaW1hZScsICc8aW5maWxlLm1hZT4nLCAnLW9tYWUnLCAnPG91dGZpbGUubWFlPic=

> <r_lp_tautomer_probability>
1

> <r_epik_Ionization_Penalty>
0.00745721

> <r_epik_Ionization_Penalty_Charging>
0.00743804

> <r_epik_Ionization_Penalty_Neutral>
1.91703e-05

> <r_epik_State_Penalty>
-0

> <r_epik_Charging_Adjusted_Penalty>
0.00743804

> <i_epik_Tot_Q>
1

> <i_epik_Tot_abs_Q>
1

> <r_epik_Metal_State_Penalty>
0.37929

> <b_epik_Metal_Only>
0

> <s_lp_Force_Field>
OPLS_2005

> <r_lp_Energy>
34.544

> <b_lp_Chiralities_Consistent>
1

> <s_lp_Variant>
AV-unprocessed.smi:1726-2

> <Gold.Version>
5.8.1

> <Gold.Id.Protein>
6NUR|6NUR_protein|mol2

> <Gold.PLP.Fitness>
39.6035

> <Gold.PLP.PLP>
-29.5712

> <Gold.PLP.part.hbond>
-3.9270

> <Gold.PLP.part.metal>
0.0000

> <Gold.PLP.part.buried>
-6.3378

> <Gold.PLP.part.nonpolar>
-21.6451

> <Gold.PLP.part.repulsive>
0.2741

> <Gold.PLP.ligand.clash>
0.0000

> <Gold.PLP.ligand.torsion>
0.3619

> <Gold.PLP.Chemscore.Hbond>
3.5688

> <Gold.PLP.Chemscore.CHOScore>
0.0000

> <Gold.PLP.Chemscore.Metal>
0.0000

> <Gold.Chemscore.Hbonds>
donor molecule, donor type, donor heavy atom, donor atom, acceptor molecule, acceptor atom, score
      L1  H     3    43       P1 10957  1.88
      L1  H     8    37       P1 10957  1.00
      L1  H    11    38       P1 10957  0.56

> <Gold.PLP.Chemscore.Internal.Correction>
0.0497

> <Gold.Rescore>
     Score         DG    S(hbond)    S(metal)    S(lipo)     H(rot)  DE(clash)    DE(int)     intcor
     13.68     -15.34       1.98        0.00      56.00       1.29       0.01       1.65       ----

> <Gold.Chemscore.Fitness>
13.6839

> <Gold.Chemscore.DG>
-15.3371

> <Gold.Chemscore.ZeroCoef>
-5.4800

> <Gold.Chemscore.Hbond>
1.9772

> <Gold.Chemscore.Metal>
0.0000

> <Gold.Chemscore.Lipo>
55.9960

> <Gold.Chemscore.Internal_Hbond>
0.0000

> <Gold.Chemscore.DEClash>
0.0063

> <Gold.Chemscore.DEInternal>
1.6469

> <Gold.Chemscore.Rot>
1.2884

> <Gold.Chemscore.Internal.Correction>
   9.000000E+99

> <Gold.Chemscore.Hbonds>
donor molecule, donor type, donor heavy atom, donor atom, acceptor molecule, acceptor atom, score
      L1  H     3    43       P1 10957  0.20
      L1  H     8    37       P1 10957  0.99
      L1  H    11    38       P1 10957  0.56

> <Gold.Chemscore.Hbond.Weighted>
-6.6039

> <Gold.Chemscore.Metal.Weighted>
-0.0000

> <Gold.Chemscore.Lipo.Weighted>
-6.5515

> <Gold.Chemscore.Internal_Hbond.Weighted>
0.0000

> <Gold.Chemscore.DEClash.Weighted>
0.0063

> <Gold.Chemscore.DEInternal.Weighted>
1.6469

> <Gold.Chemscore.Rot.Weighted>
3.2983

> <Gold.Chemscore.Internal.Correction.Weighted>
   9.000000E+99

> <Gold.Protein.RotatedTorsions>
[ 6907 6896 6895 6894 ] final  169.75 input  -60.11 | X-H torsion
[ 7974 7965 7964 7962 ] final   38.21 input  175.53 | X-H torsion
[ 8008 7997 7996 7995 ] final -151.17 input   59.86 | X-H torsion
[ 10167 10162 10161 10158 ] final  -35.49 input  -65.29 | X-H torsion
[ 10718 10713 10712 10709 ] final -115.13 input   66.30 | X-H torsion
[ 10763 10752 10751 10750 ] final   54.49 input  -60.55 | X-H torsion
[ 11005 11000 10999 10996 ] final   84.99 input  -57.11 | X-H torsion

> <Gold.Protein.ActiveResidues>
 VAL166  LYS551  ARG553  GLY616  TRP617  ASP618  TYR619  PRO620  LYS621  CYS622 
 ASP623  PHE694  ASN695  SER759  ASP760  ASP761  ALA762  ILE779  LEU786  VAL792 
 PHE793  MET794  SER795  GLU796  ALA797  LYS798  CYS799  TRP800  GLU811  SER814 

> <Gold.Protein.RotatedAtoms>
  151.8270  133.3403  159.3601 H   0  0  0  0  0  0  0  0  0  0  0  0  # atno 6907 bound_to 6896
  150.7276  134.5519  159.5808 H   0  0  0  0  0  0  0  0  0  0  0  0  # atno 6908 bound_to 6896
  152.2964  134.7663  160.0418 H   0  0  0  0  0  0  0  0  0  0  0  0  # atno 6909 bound_to 6896
  146.1079  139.5800  142.9371 H   0  0  0  0  0  0  0  0  0  0  0  0  # atno 7974 bound_to 7965
  155.6352  140.0695  157.2636 H   0  0  0  0  0  0  0  0  0  0  0  0  # atno 8008 bound_to 7997
  154.4196  140.1760  156.1563 H   0  0  0  0  0  0  0  0  0  0  0  0  # atno 8009 bound_to 7997
  155.9901  140.3346  155.6748 H   0  0  0  0  0  0  0  0  0  0  0  0  # atno 8010 bound_to 7997
  140.7164  143.3473  151.2228 H   0  0  0  0  0  0  0  0  0  0  0  0  # atno 10167 bound_to 10162
  156.0875  130.6064  150.8865 H   0  0  0  0  0  0  0  0  0  0  0  0  # atno 10718 bound_to 10713
  152.9805  135.5743  154.4912 H   0  0  0  0  0  0  0  0  0  0  0  0  # atno 10763 bound_to 10752
  154.4446  135.2777  155.1826 H   0  0  0  0  0  0  0  0  0  0  0  0  # atno 10764 bound_to 10752
  154.3479  135.6215  153.5682 H   0  0  0  0  0  0  0  0  0  0  0  0  # atno 10765 bound_to 10752
  139.8984  134.8255  156.2521 H   0  0  0  0  0  0  0  0  0  0  0  0  # atno 11005 bound_to 11000
  145.5723  141.0392  143.2167 LP  0  0  0  0  0  0  0  0  0  0  0  0  # atno 17320 bound_to 7965
  144.7486  139.7252  143.7282 LP  0  0  0  0  0  0  0  0  0  0  0  0  # atno 17321 bound_to 7965
  139.6996  143.9555  152.2899 LP  0  0  0  0  0  0  0  0  0  0  0  0  # atno 17342 bound_to 10162
  139.9244  144.6780  150.8428 LP  0  0  0  0  0  0  0  0  0  0  0  0  # atno 17343 bound_to 10162
  157.6014  131.0941  150.8953 LP  0  0  0  0  0  0  0  0  0  0  0  0  # atno 17370 bound_to 10713
  156.9110  130.5280  149.5280 LP  0  0  0  0  0  0  0  0  0  0  0  0  # atno 17371 bound_to 10713
  141.0217  133.7037  156.1279 LP  0  0  0  0  0  0  0  0  0  0  0  0  # atno 17394 bound_to 11000
  140.7224  134.4344  157.5573 LP  0  0  0  0  0  0  0  0  0  0  0  0  # atno 17395 bound_to 11000

$$$$
