AV-unprocessed.smi:456|AV-procd|sdf|2618|dock8
  -GOLD-   2262023 23D 1   1.00000     0.00000
 Structure written by MMmdl.
 33 35  0  0  0  0  0  0  0  0  2 V2000
  150.5189  139.3954  154.2069 O   0  0  0  0  0  0  0  0  0  0  0  0
  150.8764  138.8477  155.4615 C   0  0  1  0  0  0  0  0  0  0  0  0
  151.8864  139.7766  156.1632 C   0  0  0  0  0  0  0  0  0  0  0  0
  151.2871  141.0436  156.6020 N   0  0  0  0  0  0  0  0  0  0  0  0
  150.3414  141.8177  156.0038 C   0  0  0  0  0  0  0  0  0  0  0  0
  150.1242  142.8952  156.8083 N   0  3  0  0  0  0  0  0  0  0  0  0
  150.9443  142.8083  157.9359 C   0  0  0  0  0  0  0  0  0  0  0  0
  151.0850  143.6556  159.0301 C   0  0  0  0  0  0  0  0  0  0  0  0
  152.0192  143.2716  160.0149 C   0  0  0  0  0  0  0  0  0  0  0  0
  152.1949  144.0597  161.1017 F   0  0  0  0  0  0  0  0  0  0  0  0
  152.7724  142.0846  159.8894 C   0  0  0  0  0  0  0  0  0  0  0  0
  153.6588  141.7531  160.8578 F   0  0  0  0  0  0  0  0  0  0  0  0
  152.6217  141.2337  158.7746 C   0  0  0  0  0  0  0  0  0  0  0  0
  151.6948  141.6209  157.8082 C   0  0  0  0  0  0  0  0  0  0  0  0
  149.6662  138.5839  156.3431 C   0  0  0  0  0  0  0  0  0  0  0  0
  149.8405  138.0246  157.6274 C   0  0  0  0  0  0  0  0  0  0  0  0
  148.7265  137.7855  158.4552 C   0  0  0  0  0  0  0  0  0  0  0  0
  147.4317  138.1076  158.0050 C   0  0  0  0  0  0  0  0  0  0  0  0
  147.2516  138.6697  156.7266 C   0  0  0  0  0  0  0  0  0  0  0  0
  148.3652  138.9081  155.8979 C   0  0  0  0  0  0  0  0  0  0  0  0
  150.5983  138.7185  153.5519 H   0  0  0  0  0  0  0  0  0  0  0  0
  151.3593  137.8920  155.2544 H   0  0  0  0  0  0  0  0  0  0  0  0
  152.3041  139.2888  157.0452 H   0  0  0  0  0  0  0  0  0  0  0  0
  152.7288  140.0028  155.5080 H   0  0  0  0  0  0  0  0  0  0  0  0
  149.8551  141.6149  155.0604 H   0  0  0  0  0  0  0  0  0  0  0  0
  150.5113  144.5653  159.1300 H   0  0  0  0  0  0  0  0  0  0  0  0
  153.2036  140.3283  158.6869 H   0  0  0  0  0  0  0  0  0  0  0  0
  150.8299  137.7774  157.9840 H   0  0  0  0  0  0  0  0  0  0  0  0
  148.8656  137.3562  159.4365 H   0  0  0  0  0  0  0  0  0  0  0  0
  146.5776  137.9251  158.6403 H   0  0  0  0  0  0  0  0  0  0  0  0
  146.2590  138.9195  156.3817 H   0  0  0  0  0  0  0  0  0  0  0  0
  148.2170  139.3433  154.9205 H   0  0  0  0  0  0  0  0  0  0  0  0
  149.4651  143.6343  156.5990 H   0  0  0  0  0  0  0  0  0  0  0  0
  1  2  1  0  0  0  0
  1 21  1  0  0  0  0
  2  3  1  0  0  0  0
  2 15  1  0  0  0  0
  2 22  1  0  0  0  0
  3  4  1  0  0  0  0
  3 23  1  0  0  0  0
  3 24  1  0  0  0  0
  4 14  1  0  0  0  0
  4  5  1  0  0  0  0
  5  6  2  0  0  0  0
  5 25  1  0  0  0  0
  6  7  1  0  0  0  0
  6 33  1  0  0  0  0
  7 14  2  0  0  0  0
  7  8  1  0  0  0  0
  8  9  2  0  0  0  0
  8 26  1  0  0  0  0
  9 10  1  0  0  0  0
  9 11  1  0  0  0  0
 11 12  1  0  0  0  0
 11 13  2  0  0  0  0
 13 14  1  0  0  0  0
 13 27  1  0  0  0  0
 15 20  1  0  0  0  0
 15 16  2  0  0  0  0
 16 17  1  0  0  0  0
 16 28  1  0  0  0  0
 17 18  2  0  0  0  0
 17 29  1  0  0  0  0
 18 19  1  0  0  0  0
 18 30  1  0  0  0  0
 19 20  2  0  0  0  0
 19 31  1  0  0  0  0
 20 32  1  0  0  0  0
M  CHG  1   6   1
M  END
> <s_m_source_file>
AV-unprocessed.smi

> <i_m_source_file_index>
456

> <i_lp_mmshare_version>
43012

> <i_f3d_flags>
0

> <s_epik_input>
W2NIXTFbY0hdW2NIXVtjSF1bY0hdYzFbQ0BIXShbT0hdKVtDSDJdbihbY0hdbjIpYyhjMjMpW2NIXWMoRiljKEYpW2NIXTM=

> <s_epik_cmdline>
J2VwaWtfcHl0aG9uJywgJy1waCcsICc3LjAnLCAnLXRuJywgJzgnLCAnLW1hJywgJzIwMCcsICctbWV0YWxfYmluZGluZycsICctaW1hZScsICc8aW5maWxlLm1hZT4nLCAnLW9tYWUnLCAnPG91dGZpbGUubWFlPic=

> <r_epik_Ionization_Penalty>
2.16139

> <r_epik_Ionization_Penalty_Charging>
2.16138

> <r_epik_Ionization_Penalty_Neutral>
1.34362e-06

> <r_epik_State_Penalty>
2.30198

> <r_epik_Charging_Adjusted_Penalty>
4.46337

> <i_epik_Tot_Q>
1

> <i_epik_Tot_abs_Q>
1

> <r_epik_Metal_State_Penalty>
6.38245

> <b_epik_Metal_Only>
0

> <s_lp_Force_Field>
OPLS_2005

> <r_lp_Energy>
14.9755

> <b_lp_Chiralities_Consistent>
1

> <s_lp_Variant>
AV-unprocessed.smi:456-4

> <Gold.Version>
5.8.1

> <Gold.Id.Protein>
6NUR|6NUR_protein|mol2

> <Gold.PLP.Fitness>
45.8764

> <Gold.PLP.PLP>
-37.5813

> <Gold.PLP.part.hbond>
-2.1726

> <Gold.PLP.part.metal>
0.0000

> <Gold.PLP.part.buried>
-5.5654

> <Gold.PLP.part.nonpolar>
-30.6243

> <Gold.PLP.part.repulsive>
0.0316

> <Gold.PLP.ligand.clash>
0.0000

> <Gold.PLP.ligand.torsion>
0.3620

> <Gold.PLP.Chemscore.Hbond>
3.0000

> <Gold.PLP.Chemscore.CHOScore>
0.0000

> <Gold.PLP.Chemscore.Metal>
0.0000

> <Gold.Chemscore.Hbonds>
donor molecule, donor type, donor heavy atom, donor atom, acceptor molecule, acceptor atom, score
      L1  H     6    33       P1  8028  2.00
      P1  H  7989  7998       L1     1  1.00

> <Gold.PLP.Chemscore.Internal.Correction>
0.0192

> <Gold.Rescore>
     Score         DG    S(hbond)    S(metal)    S(lipo)     H(rot)  DE(clash)    DE(int)     intcor
     15.47     -16.01       1.93        0.00      79.13       2.03       0.05       0.49       ----

> <Gold.Chemscore.Fitness>
15.4661

> <Gold.Chemscore.DG>
-16.0125

> <Gold.Chemscore.ZeroCoef>
-5.4800

> <Gold.Chemscore.Hbond>
1.9339

> <Gold.Chemscore.Metal>
0.0000

> <Gold.Chemscore.Lipo>
79.1345

> <Gold.Chemscore.Internal_Hbond>
0.0000

> <Gold.Chemscore.DEClash>
0.0530

> <Gold.Chemscore.DEInternal>
0.4934

> <Gold.Chemscore.Rot>
2.0256

> <Gold.Chemscore.Internal.Correction>
   9.000000E+99

> <Gold.Chemscore.Hbonds>
donor molecule, donor type, donor heavy atom, donor atom, acceptor molecule, acceptor atom, score
      L1  H     6    33       P1  8028  0.90
      P1  H  7989  7998       L1     1  0.37

> <Gold.Chemscore.Hbond.Weighted>
-6.4593

> <Gold.Chemscore.Metal.Weighted>
-0.0000

> <Gold.Chemscore.Lipo.Weighted>
-9.2587

> <Gold.Chemscore.Internal_Hbond.Weighted>
0.0000

> <Gold.Chemscore.DEClash.Weighted>
0.0530

> <Gold.Chemscore.DEInternal.Weighted>
0.4934

> <Gold.Chemscore.Rot.Weighted>
5.1855

> <Gold.Chemscore.Internal.Correction.Weighted>
   9.000000E+99

> <Gold.Protein.RotatedTorsions>
[ 6907 6896 6895 6894 ] final  108.20 input  -60.11 | X-H torsion
[ 7974 7965 7964 7962 ] final   -1.70 input  175.53 | X-H torsion
[ 8008 7997 7996 7995 ] final  -55.49 input   59.86 | X-H torsion
[ 10167 10162 10161 10158 ] final -150.16 input  -65.29 | X-H torsion
[ 10718 10713 10712 10709 ] final   19.21 input   66.30 | X-H torsion
[ 10763 10752 10751 10750 ] final -101.22 input  -60.55 | X-H torsion
[ 11005 11000 10999 10996 ] final  138.82 input  -57.11 | X-H torsion

> <Gold.Protein.ActiveResidues>
 VAL166  LYS551  ARG553  GLY616  TRP617  ASP618  TYR619  PRO620  LYS621  CYS622 
 ASP623  PHE694  ASN695  SER759  ASP760  ASP761  ALA762  ILE779  LEU786  VAL792 
 PHE793  MET794  SER795  GLU796  ALA797  LYS798  CYS799  TRP800  GLU811  SER814 

> <Gold.Protein.RotatedAtoms>
  152.5122  133.9123  159.7493 H   0  0  0  0  0  0  0  0  0  0  0  0  # atno 6907 bound_to 6896
  150.9513  133.6537  159.2778 H   0  0  0  0  0  0  0  0  0  0  0  0  # atno 6908 bound_to 6896
  151.3814  135.0945  159.9550 H   0  0  0  0  0  0  0  0  0  0  0  0  # atno 6909 bound_to 6896
  146.2414  140.1459  142.8334 H   0  0  0  0  0  0  0  0  0  0  0  0  # atno 7974 bound_to 7965
  154.4197  140.1151  156.5485 H   0  0  0  0  0  0  0  0  0  0  0  0  # atno 8008 bound_to 7997
  155.6434  140.3496  155.4704 H   0  0  0  0  0  0  0  0  0  0  0  0  # atno 8009 bound_to 7997
  155.9852  140.1168  157.0679 H   0  0  0  0  0  0  0  0  0  0  0  0  # atno 8010 bound_to 7997
  139.7379  143.8708  152.2554 H   0  0  0  0  0  0  0  0  0  0  0  0  # atno 10167 bound_to 10162
  157.1072  130.6493  149.5888 H   0  0  0  0  0  0  0  0  0  0  0  0  # atno 10718 bound_to 10713
  154.7640  135.4906  153.9519 H   0  0  0  0  0  0  0  0  0  0  0  0  # atno 10763 bound_to 10752
  153.1286  135.6748  153.9224 H   0  0  0  0  0  0  0  0  0  0  0  0  # atno 10764 bound_to 10752
  153.8934  135.3118  155.3426 H   0  0  0  0  0  0  0  0  0  0  0  0  # atno 10765 bound_to 10752
  140.0210  134.9396  157.0475 H   0  0  0  0  0  0  0  0  0  0  0  0  # atno 11005 bound_to 11000
  145.0207  140.8791  143.5168 LP  0  0  0  0  0  0  0  0  0  0  0  0  # atno 17320 bound_to 7965
  145.1508  139.2516  143.5442 LP  0  0  0  0  0  0  0  0  0  0  0  0  # atno 17321 bound_to 7965
  139.8650  144.7098  150.9055 LP  0  0  0  0  0  0  0  0  0  0  0  0  # atno 17342 bound_to 10162
  140.7781  143.3786  151.1518 LP  0  0  0  0  0  0  0  0  0  0  0  0  # atno 17343 bound_to 10162
  155.9859  130.4891  150.7054 LP  0  0  0  0  0  0  0  0  0  0  0  0  # atno 17370 bound_to 10713
  157.4590  131.0881  151.0765 LP  0  0  0  0  0  0  0  0  0  0  0  0  # atno 17371 bound_to 10713
  140.4387  134.1704  155.7172 LP  0  0  0  0  0  0  0  0  0  0  0  0  # atno 17394 bound_to 11000
  141.1774  133.8486  157.1375 LP  0  0  0  0  0  0  0  0  0  0  0  0  # atno 17395 bound_to 11000

$$$$
