AV-unprocessed.smi:2024|AV-procd|sdf|8194|dock9
  -GOLD-   2272010453D 1   1.00000     0.00000
 Structure written by MMmdl.
 43 44  0  0  0  0  0  0  0  0  3 V2000
  150.5536  143.2265  156.1622 C   0  0  0  0  0  0  0  0  0  0  0  0
  149.7144  142.0388  156.4421 N   0  3  0  0  0  0  0  0  0  0  0  0
  149.9324  141.4551  157.7861 C   0  0  0  0  0  0  0  0  0  0  0  0
  151.2303  140.6217  157.8469 C   0  0  0  0  0  0  0  0  0  0  0  0
  151.1749  139.5452  156.8466 N   0  0  0  0  0  0  0  0  0  0  0  0
  152.2022  138.4782  156.9670 C   0  0  0  0  0  0  0  0  0  0  0  0
  151.9771  137.3581  155.9246 C   0  0  0  0  0  0  0  0  0  0  0  0
  153.6214  139.0661  156.7566 C   0  0  0  0  0  0  0  0  0  0  0  0
  152.1558  137.8709  158.4021 C   0  0  0  0  0  0  0  0  0  0  0  0
  151.0396  136.9402  158.5822 N   0  0  0  0  0  0  0  0  0  0  0  0
  149.9929  137.0979  159.4056 C   0  0  0  0  0  0  0  0  0  0  0  0
  149.8499  138.1501  160.0324 O   0  0  0  0  0  0  0  0  0  0  0  0
  149.1851  136.0160  159.4705 N   0  5  0  0  0  0  0  0  0  0  0  0
  148.2886  135.9099  160.4646 C   0  0  0  0  0  0  0  0  0  0  0  0
  148.1251  136.8475  161.4045 N   0  0  0  0  0  0  0  0  0  0  0  0
  147.1343  136.5321  162.3361 C   0  0  0  0  0  0  0  0  0  0  0  0
  146.5248  135.3291  162.0960 C   0  0  0  0  0  0  0  0  0  0  0  0
  147.1795  134.5523  160.6825 S   0  0  0  0  0  0  0  0  0  0  0  0
  151.1057  140.1848  155.5234 C   0  0  0  0  0  0  0  0  0  0  0  0
  149.7967  140.9876  155.4022 C   0  0  0  0  0  0  0  0  0  0  0  0
  151.6160  142.9834  156.1599 H   0  0  0  0  0  0  0  0  0  0  0  0
  150.3847  143.9976  156.9144 H   0  0  0  0  0  0  0  0  0  0  0  0
  150.3004  143.6521  155.1909 H   0  0  0  0  0  0  0  0  0  0  0  0
  149.9481  142.2445  158.5383 H   0  0  0  0  0  0  0  0  0  0  0  0
  149.0806  140.8174  158.0285 H   0  0  0  0  0  0  0  0  0  0  0  0
  152.1098  141.2479  157.6939 H   0  0  0  0  0  0  0  0  0  0  0  0
  151.2974  140.2234  158.8569 H   0  0  0  0  0  0  0  0  0  0  0  0
  152.7733  136.6150  155.9787 H   0  0  0  0  0  0  0  0  0  0  0  0
  151.9697  137.7443  154.9053 H   0  0  0  0  0  0  0  0  0  0  0  0
  151.0411  136.8235  156.0867 H   0  0  0  0  0  0  0  0  0  0  0  0
  154.3898  138.3484  157.0455 H   0  0  0  0  0  0  0  0  0  0  0  0
  153.7823  139.9672  157.3501 H   0  0  0  0  0  0  0  0  0  0  0  0
  153.8180  139.3119  155.7129 H   0  0  0  0  0  0  0  0  0  0  0  0
  153.1029  137.4139  158.6880 H   0  0  0  0  0  0  0  0  0  0  0  0
  152.0164  138.6724  159.1282 H   0  0  0  0  0  0  0  0  0  0  0  0
  151.0997  136.0646  158.0834 H   0  0  0  0  0  0  0  0  0  0  0  0
  146.9278  137.2247  163.1386 H   0  0  0  0  0  0  0  0  0  0  0  0
  145.7342  134.8566  162.6589 H   0  0  0  0  0  0  0  0  0  0  0  0
  151.9686  140.8315  155.3623 H   0  0  0  0  0  0  0  0  0  0  0  0
  151.1226  139.4505  154.7222 H   0  0  0  0  0  0  0  0  0  0  0  0
  148.9433  140.3163  155.5122 H   0  0  0  0  0  0  0  0  0  0  0  0
  149.7111  141.4338  154.4109 H   0  0  0  0  0  0  0  0  0  0  0  0
  148.7618  142.3743  156.4293 H   0  0  0  0  0  0  0  0  0  0  0  0
  1  2  1  0  0  0  0
  1 21  1  0  0  0  0
  1 22  1  0  0  0  0
  1 23  1  0  0  0  0
  2 20  1  0  0  0  0
  2  3  1  0  0  0  0
  2 43  1  0  0  0  0
  3  4  1  0  0  0  0
  3 24  1  0  0  0  0
  3 25  1  0  0  0  0
  4  5  1  0  0  0  0
  4 26  1  0  0  0  0
  4 27  1  0  0  0  0
  5  6  1  0  0  0  0
  5 19  1  0  0  0  0
  6  7  1  0  0  0  0
  6  8  1  0  0  0  0
  6  9  1  0  0  0  0
  7 28  1  0  0  0  0
  7 29  1  0  0  0  0
  7 30  1  0  0  0  0
  8 31  1  0  0  0  0
  8 32  1  0  0  0  0
  8 33  1  0  0  0  0
  9 10  1  0  0  0  0
  9 34  1  0  0  0  0
  9 35  1  0  0  0  0
 10 11  1  0  0  0  0
 10 36  1  0  0  0  0
 11 12  2  0  0  0  0
 11 13  1  0  0  0  0
 13 14  1  0  0  0  0
 14 18  1  0  0  0  0
 14 15  2  0  0  0  0
 15 16  1  0  0  0  0
 16 17  2  0  0  0  0
 16 37  1  0  0  0  0
 17 18  1  0  0  0  0
 17 38  1  0  0  0  0
 19 20  1  0  0  0  0
 19 39  1  0  0  0  0
 19 40  1  0  0  0  0
 20 41  1  0  0  0  0
 20 42  1  0  0  0  0
M  CHG  1   2   1
M  CHG  1  13  -1
M  END
> <s_m_source_file>
AV-unprocessed.smi

> <i_m_source_file_index>
2024

> <i_lp_mmshare_version>
43012

> <i_f3d_flags>
0

> <s_epik_input>
W0NIM11OMVtDSDJdW0NIMl1OKFtDSDJdW0NIMl0xKUMoW0NIM10pKFtDSDNdKVtDSDJdW05IXUMoPU8pW05IXWMybltjSF1bY0hdczI=

> <s_epik_cmdline>
J2VwaWtfcHl0aG9uJywgJy1waCcsICc3LjAnLCAnLXRuJywgJzgnLCAnLW1hJywgJzIwMCcsICctbWV0YWxfYmluZGluZycsICctaW1hZScsICc8aW5maWxlLm1hZT4nLCAnLW9tYWUnLCAnPG91dGZpbGUubWFlPic=

> <r_lp_tautomer_probability>
0.999

> <r_epik_Ionization_Penalty>
7.04933

> <r_epik_Ionization_Penalty_Charging>
5.90256

> <r_epik_Ionization_Penalty_Neutral>
1.14676

> <r_epik_State_Penalty>
6.00717

> <r_epik_Charging_Adjusted_Penalty>
11.9097

> <i_epik_Tot_Q>
0

> <i_epik_Tot_abs_Q>
2

> <r_epik_Metal_State_Penalty>
1.97542

> <b_epik_Metal_Only>
1

> <s_lp_Force_Field>
OPLS_2005

> <r_lp_Energy>
14.8551

> <b_lp_Chiralities_Consistent>
1

> <s_lp_Variant>
AV-unprocessed.smi:2024-4

> <Gold.Version>
5.8.1

> <Gold.Id.Protein>
6NUR|6NUR_protein|mol2

> <Gold.PLP.Fitness>
40.7677

> <Gold.PLP.PLP>
-31.3333

> <Gold.PLP.part.hbond>
-4.8454

> <Gold.PLP.part.metal>
0.0000

> <Gold.PLP.part.buried>
-3.8099

> <Gold.PLP.part.nonpolar>
-23.8877

> <Gold.PLP.part.repulsive>
0.1416

> <Gold.PLP.ligand.clash>
0.0000

> <Gold.PLP.ligand.torsion>
0.2787

> <Gold.PLP.Chemscore.Hbond>
3.3120

> <Gold.PLP.Chemscore.CHOScore>
0.0000

> <Gold.PLP.Chemscore.Metal>
0.0000

> <Gold.Chemscore.Hbonds>
donor molecule, donor type, donor heavy atom, donor atom, acceptor molecule, acceptor atom, score
      P1  H  6896  6907       L1    13  1.10
      P1  H  6931  6943       L1    15  1.00
      P1  H  6934  6947       L1    15  0.02

> <Gold.PLP.Chemscore.Internal.Correction>
0.0558

> <Gold.Rescore>
     Score         DG    S(hbond)    S(metal)    S(lipo)     H(rot)  DE(clash)    DE(int)     intcor
     13.61     -15.69       1.84        0.00      69.15       1.57       0.06       2.02       ----

> <Gold.Chemscore.Fitness>
13.6056

> <Gold.Chemscore.DG>
-15.6879

> <Gold.Chemscore.ZeroCoef>
-5.4800

> <Gold.Chemscore.Hbond>
1.8355

> <Gold.Chemscore.Metal>
0.0000

> <Gold.Chemscore.Lipo>
69.1526

> <Gold.Chemscore.Internal_Hbond>
0.0000

> <Gold.Chemscore.DEClash>
0.0628

> <Gold.Chemscore.DEInternal>
2.0194

> <Gold.Chemscore.Rot>
1.5678

> <Gold.Chemscore.Internal.Correction>
   9.000000E+99

> <Gold.Chemscore.Hbonds>
donor molecule, donor type, donor heavy atom, donor atom, acceptor molecule, acceptor atom, score
      P1  H  6896  6907       L1    13  0.03
      P1  H  6931  6943       L1    15  0.78

> <Gold.Chemscore.Hbond.Weighted>
-6.1306

> <Gold.Chemscore.Metal.Weighted>
-0.0000

> <Gold.Chemscore.Lipo.Weighted>
-8.0909

> <Gold.Chemscore.Internal_Hbond.Weighted>
0.0000

> <Gold.Chemscore.DEClash.Weighted>
0.0628

> <Gold.Chemscore.DEInternal.Weighted>
2.0194

> <Gold.Chemscore.Rot.Weighted>
4.0136

> <Gold.Chemscore.Internal.Correction.Weighted>
   9.000000E+99

> <Gold.Protein.RotatedTorsions>
[ 6907 6896 6895 6894 ] final  -55.20 input  -60.11 | X-H torsion
[ 7974 7965 7964 7962 ] final   24.17 input  175.53 | X-H torsion
[ 8008 7997 7996 7995 ] final -119.16 input   59.86 | X-H torsion
[ 10167 10162 10161 10158 ] final -122.77 input  -65.29 | X-H torsion
[ 10718 10713 10712 10709 ] final   55.18 input   66.30 | X-H torsion
[ 10763 10752 10751 10750 ] final  175.21 input  -60.55 | X-H torsion
[ 11005 11000 10999 10996 ] final   60.06 input  -57.11 | X-H torsion

> <Gold.Protein.ActiveResidues>
 VAL166  LYS551  ARG553  GLY616  TRP617  ASP618  TYR619  PRO620  LYS621  CYS622 
 ASP623  PHE694  ASN695  SER759  ASP760  ASP761  ALA762  ILE779  LEU786  VAL792 
 PHE793  MET794  SER795  GLU796  ALA797  LYS798  CYS799  TRP800  GLU811  SER814 

> <Gold.Protein.RotatedAtoms>
  150.8272  134.7508  159.6822 H   0  0  0  0  0  0  0  0  0  0  0  0  # atno 6907 bound_to 6896
  152.4381  134.5642  159.9912 H   0  0  0  0  0  0  0  0  0  0  0  0  # atno 6908 bound_to 6896
  151.5812  133.3340  159.3044 H   0  0  0  0  0  0  0  0  0  0  0  0  # atno 6909 bound_to 6896
  146.1950  139.7642  142.8804 H   0  0  0  0  0  0  0  0  0  0  0  0  # atno 7974 bound_to 7965
  155.1112  140.0397  157.2724 H   0  0  0  0  0  0  0  0  0  0  0  0  # atno 8008 bound_to 7997
  154.6684  140.2606  155.7008 H   0  0  0  0  0  0  0  0  0  0  0  0  # atno 8009 bound_to 7997
  156.2648  140.2803  156.1183 H   0  0  0  0  0  0  0  0  0  0  0  0  # atno 8010 bound_to 7997
  140.0107  143.5445  152.2264 H   0  0  0  0  0  0  0  0  0  0  0  0  # atno 10167 bound_to 10162
  157.5323  130.8639  149.8704 H   0  0  0  0  0  0  0  0  0  0  0  0  # atno 10718 bound_to 10713
  154.4645  135.2769  155.1688 H   0  0  0  0  0  0  0  0  0  0  0  0  # atno 10763 bound_to 10752
  154.3463  135.6159  153.5624 H   0  0  0  0  0  0  0  0  0  0  0  0  # atno 10764 bound_to 10752
  152.9858  135.5800  154.5014 H   0  0  0  0  0  0  0  0  0  0  0  0  # atno 10765 bound_to 10752
  140.0259  134.6084  155.9574 H   0  0  0  0  0  0  0  0  0  0  0  0  # atno 11005 bound_to 11000
  145.3672  141.0336  143.3251 LP  0  0  0  0  0  0  0  0  0  0  0  0  # atno 17320 bound_to 7965
  144.8562  139.5246  143.6833 LP  0  0  0  0  0  0  0  0  0  0  0  0  # atno 17321 bound_to 7965
  139.6207  144.7628  151.2746 LP  0  0  0  0  0  0  0  0  0  0  0  0  # atno 17342 bound_to 10162
  140.7382  143.6653  150.8128 LP  0  0  0  0  0  0  0  0  0  0  0  0  # atno 17343 bound_to 10162
  156.0432  130.3734  150.1384 LP  0  0  0  0  0  0  0  0  0  0  0  0  # atno 17370 bound_to 10713
  156.9568  130.9792  151.3487 LP  0  0  0  0  0  0  0  0  0  0  0  0  # atno 17371 bound_to 10713
  141.1802  133.6545  156.4990 LP  0  0  0  0  0  0  0  0  0  0  0  0  # atno 17394 bound_to 11000
  140.4308  134.7104  157.4940 LP  0  0  0  0  0  0  0  0  0  0  0  0  # atno 17395 bound_to 11000

$$$$
