AV-unprocessed.smi:3091|AV-procd|sdf|11781|dock4
  -GOLD-   2272017163D 1   1.00000     0.00000
 Structure written by MMmdl.
 28 29  0  0  0  0  0  0  0  0  1 V2000
  148.2401  140.1314  153.2944 N   0  0  0  0  0  0  0  0  0  0  0  0
  148.5729  140.8214  154.5244 C   0  0  0  0  0  0  0  0  0  0  0  0
  149.9141  140.3922  155.0843 C   0  0  0  0  0  0  0  0  0  0  0  0
  150.6678  139.3824  154.4532 C   0  0  0  0  0  0  0  0  0  0  0  0
  151.9093  139.0249  155.0137 C   0  0  0  0  0  0  0  0  0  0  0  0
  152.4149  139.6023  156.1241 N   0  0  0  0  0  0  0  0  0  0  0  0
  151.6900  140.5755  156.7303 C   0  0  0  0  0  0  0  0  0  0  0  0
  152.1923  141.1789  157.8665 O   0  0  0  0  0  0  0  0  0  0  0  0
  151.4453  142.2187  158.5018 C   0  0  1  0  0  0  0  0  0  0  0  0
  152.1203  142.6666  159.7920 C   0  0  0  0  0  0  0  0  0  0  0  0
  153.0821  143.7397  159.3040 C   0  0  0  0  0  0  0  0  0  0  0  0
  152.3213  144.4226  158.3225 O   0  0  0  0  0  0  0  0  0  0  0  0
  151.5284  143.4721  157.6172 C   0  0  0  0  0  0  0  0  0  0  0  0
  150.4356  140.9986  156.2455 C   0  0  0  0  0  0  0  0  0  0  0  0
  149.0188  140.1898  152.6535 H   0  0  0  0  0  0  0  0  0  0  0  0
  148.0898  139.1505  153.4821 H   0  0  0  0  0  0  0  0  0  0  0  0
  148.5848  141.8958  154.3396 H   0  0  0  0  0  0  0  0  0  0  0  0
  147.7882  140.6322  155.2574 H   0  0  0  0  0  0  0  0  0  0  0  0
  150.3075  138.8914  153.5611 H   0  0  0  0  0  0  0  0  0  0  0  0
  152.5133  138.2550  154.5569 H   0  0  0  0  0  0  0  0  0  0  0  0
  150.4034  141.9315  158.6539 H   0  0  0  0  0  0  0  0  0  0  0  0
  151.3822  143.1133  160.4592 H   0  0  0  0  0  0  0  0  0  0  0  0
  152.6202  141.8636  160.3340 H   0  0  0  0  0  0  0  0  0  0  0  0
  153.4091  144.4095  160.0995 H   0  0  0  0  0  0  0  0  0  0  0  0
  153.9632  143.2928  158.8408 H   0  0  0  0  0  0  0  0  0  0  0  0
  151.9832  143.2520  156.6504 H   0  0  0  0  0  0  0  0  0  0  0  0
  150.5419  143.8971  157.4303 H   0  0  0  0  0  0  0  0  0  0  0  0
  149.8859  141.7765  156.7551 H   0  0  0  0  0  0  0  0  0  0  0  0
  1  2  1  0  0  0  0
  1 15  1  0  0  0  0
  1 16  1  0  0  0  0
  2  3  1  0  0  0  0
  2 17  1  0  0  0  0
  2 18  1  0  0  0  0
  3 14  1  0  0  0  0
  3  4  2  0  0  0  0
  4  5  1  0  0  0  0
  4 19  1  0  0  0  0
  5  6  2  0  0  0  0
  5 20  1  0  0  0  0
  6  7  1  0  0  0  0
  7  8  1  0  0  0  0
  7 14  2  0  0  0  0
  8  9  1  0  0  0  0
  9 13  1  0  0  0  0
  9 10  1  0  0  0  0
  9 21  1  0  0  0  0
 10 11  1  0  0  0  0
 10 22  1  0  0  0  0
 10 23  1  0  0  0  0
 11 12  1  0  0  0  0
 11 24  1  0  0  0  0
 11 25  1  0  0  0  0
 12 13  1  0  0  0  0
 13 26  1  0  0  0  0
 13 27  1  0  0  0  0
 14 28  1  0  0  0  0
M  END
> <s_m_source_file>
AV-unprocessed.smi

> <i_m_source_file_index>
3091

> <i_lp_mmshare_version>
43012

> <i_f3d_flags>
0

> <s_epik_input>
W05IMl1bQ0gyXWMxW2NIXVtjSF1uYyhbY0hdMSlPW0NAQEhdMltDSDJdW0NIMl1PW0NIMl0y

> <s_epik_cmdline>
J2VwaWtfcHl0aG9uJywgJy1waCcsICc3LjAnLCAnLXRuJywgJzgnLCAnLW1hJywgJzIwMCcsICctbWV0YWxfYmluZGluZycsICctaW1hZScsICc8aW5maWxlLm1hZT4nLCAnLW9tYWUnLCAnPG91dGZpbGUubWFlPic=

> <r_lp_tautomer_probability>
1

> <r_epik_Ionization_Penalty>
1.24495

> <r_epik_Ionization_Penalty_Charging>
0

> <r_epik_Ionization_Penalty_Neutral>
1.24495

> <r_epik_State_Penalty>
1.3141

> <r_epik_Charging_Adjusted_Penalty>
1.3141

> <i_epik_Tot_Q>
0

> <i_epik_Tot_abs_Q>
0

> <r_epik_Metal_State_Penalty>
1.31398

> <b_epik_Metal_Only>
0

> <s_lp_Force_Field>
OPLS_2005

> <r_lp_Energy>
15.3378

> <b_lp_Chiralities_Consistent>
1

> <s_lp_Variant>
AV-unprocessed.smi:3091-4

> <Gold.Version>
5.8.1

> <Gold.Id.Protein>
6NUR|6NUR_protein|mol2

> <Gold.PLP.Fitness>
36.6919

> <Gold.PLP.PLP>
-30.8011

> <Gold.PLP.part.hbond>
-2.0000

> <Gold.PLP.part.metal>
0.0000

> <Gold.PLP.part.buried>
-2.8717

> <Gold.PLP.part.nonpolar>
-25.4592

> <Gold.PLP.part.repulsive>
0.0410

> <Gold.PLP.ligand.clash>
0.0000

> <Gold.PLP.ligand.torsion>
0.0518

> <Gold.PLP.Chemscore.Hbond>
1.9920

> <Gold.PLP.Chemscore.CHOScore>
0.0000

> <Gold.PLP.Chemscore.Metal>
0.0000

> <Gold.Chemscore.Hbonds>
donor molecule, donor type, donor heavy atom, donor atom, acceptor molecule, acceptor atom, score
      L1  H     1    15       P1  7957  0.99
      P1  H  7997  8009       L1     6  1.00

> <Gold.PLP.Chemscore.Internal.Correction>
0.0184

> <Gold.Rescore>
     Score         DG    S(hbond)    S(metal)    S(lipo)     H(rot)  DE(clash)    DE(int)     intcor
     16.65     -16.97       1.85        0.00      79.18       1.54       0.18       0.14       ----

> <Gold.Chemscore.Fitness>
16.6525

> <Gold.Chemscore.DG>
-16.9717

> <Gold.Chemscore.ZeroCoef>
-5.4800

> <Gold.Chemscore.Hbond>
1.8491

> <Gold.Chemscore.Metal>
0.0000

> <Gold.Chemscore.Lipo>
79.1836

> <Gold.Chemscore.Internal_Hbond>
0.0000

> <Gold.Chemscore.DEClash>
0.1799

> <Gold.Chemscore.DEInternal>
0.1393

> <Gold.Chemscore.Rot>
1.5424

> <Gold.Chemscore.Internal.Correction>
   9.000000E+99

> <Gold.Chemscore.Hbonds>
donor molecule, donor type, donor heavy atom, donor atom, acceptor molecule, acceptor atom, score
      L1  H     1    15       P1  7957  0.92
      P1  H  7997  8009       L1     6  0.59

> <Gold.Chemscore.Hbond.Weighted>
-6.1759

> <Gold.Chemscore.Metal.Weighted>
-0.0000

> <Gold.Chemscore.Lipo.Weighted>
-9.2645

> <Gold.Chemscore.Internal_Hbond.Weighted>
0.0000

> <Gold.Chemscore.DEClash.Weighted>
0.1799

> <Gold.Chemscore.DEInternal.Weighted>
0.1393

> <Gold.Chemscore.Rot.Weighted>
3.9487

> <Gold.Chemscore.Internal.Correction.Weighted>
   9.000000E+99

> <Gold.Protein.RotatedTorsions>
[ 6907 6896 6895 6894 ] final  -13.21 input  -60.11 | X-H torsion
[ 7974 7965 7964 7962 ] final  -38.20 input  175.53 | X-H torsion
[ 8008 7997 7996 7995 ] final -148.98 input   59.86 | X-H torsion
[ 10167 10162 10161 10158 ] final  -32.07 input  -65.29 | X-H torsion
[ 10718 10713 10712 10709 ] final   15.89 input   66.30 | X-H torsion
[ 10763 10752 10751 10750 ] final  -79.85 input  -60.55 | X-H torsion
[ 11005 11000 10999 10996 ] final -174.96 input  -57.11 | X-H torsion

> <Gold.Protein.ActiveResidues>
 VAL166  LYS551  ARG553  GLY616  TRP617  ASP618  TYR619  PRO620  LYS621  CYS622 
 ASP623  PHE694  ASN695  SER759  ASP760  ASP761  ALA762  ILE779  LEU786  VAL792 
 PHE793  MET794  SER795  GLU796  ALA797  LYS798  CYS799  TRP800  GLU811  SER814 

> <Gold.Protein.RotatedAtoms>
  151.3585  135.0899  159.9426 H   0  0  0  0  0  0  0  0  0  0  0  0  # atno 6907 bound_to 6896
  152.5168  133.9282  159.7578 H   0  0  0  0  0  0  0  0  0  0  0  0  # atno 6908 bound_to 6896
  150.9672  133.6328  159.2773 H   0  0  0  0  0  0  0  0  0  0  0  0  # atno 6909 bound_to 6896
  146.0508  140.6484  142.9043 H   0  0  0  0  0  0  0  0  0  0  0  0  # atno 7974 bound_to 7965
  155.6004  140.0661  157.2734 H   0  0  0  0  0  0  0  0  0  0  0  0  # atno 8008 bound_to 7997
  154.4280  140.1819  156.1214 H   0  0  0  0  0  0  0  0  0  0  0  0  # atno 8009 bound_to 7997
  156.0164  140.3321  155.6996 H   0  0  0  0  0  0  0  0  0  0  0  0  # atno 8010 bound_to 7997
  140.7227  143.3723  151.1755 H   0  0  0  0  0  0  0  0  0  0  0  0  # atno 10167 bound_to 10162
  157.0600  130.6305  149.5784 H   0  0  0  0  0  0  0  0  0  0  0  0  # atno 10718 bound_to 10713
  154.5439  135.5681  153.6863 H   0  0  0  0  0  0  0  0  0  0  0  0  # atno 10763 bound_to 10752
  152.9971  135.6234  154.2465 H   0  0  0  0  0  0  0  0  0  0  0  0  # atno 10764 bound_to 10752
  154.2397  135.2863  155.2838 H   0  0  0  0  0  0  0  0  0  0  0  0  # atno 10765 bound_to 10752
  140.4687  134.6186  157.4873 H   0  0  0  0  0  0  0  0  0  0  0  0  # atno 11005 bound_to 11000
  144.7121  140.4079  143.7072 LP  0  0  0  0  0  0  0  0  0  0  0  0  # atno 17320 bound_to 7965
  145.6728  139.1602  143.2745 LP  0  0  0  0  0  0  0  0  0  0  0  0  # atno 17321 bound_to 7965
  139.7296  143.9093  152.3015 LP  0  0  0  0  0  0  0  0  0  0  0  0  # atno 17342 bound_to 10162
  139.8878  144.6982  150.8805 LP  0  0  0  0  0  0  0  0  0  0  0  0  # atno 17343 bound_to 10162
  155.9981  130.5055  150.7560 LP  0  0  0  0  0  0  0  0  0  0  0  0  # atno 17370 bound_to 10713
  157.4963  131.0915  151.0368 LP  0  0  0  0  0  0  0  0  0  0  0  0  # atno 17371 bound_to 10713
  139.9899  134.7002  155.9708 LP  0  0  0  0  0  0  0  0  0  0  0  0  # atno 17394 bound_to 11000
  141.1587  133.6540  156.4247 LP  0  0  0  0  0  0  0  0  0  0  0  0  # atno 17395 bound_to 11000

$$$$
