AV-unprocessed.smi:2032|AV-procd|sdf|8247|dock1
  -GOLD-   2272010513D 1   1.00000     0.00000
 Structure written by MMmdl.
 41 42  0  0  0  0  0  0  0  0  2 V2000
  152.2458  138.0680  154.3830 C   0  0  0  0  0  0  0  0  0  0  0  0
  151.2512  138.8461  155.2509 C   0  0  2  0  0  0  0  0  0  0  0  0
  149.7944  138.4351  154.9728 C   0  0  0  0  0  0  0  0  0  0  0  0
  148.8253  139.2178  155.7447 N   0  0  0  0  0  0  0  0  0  0  0  0
  147.4239  138.8020  155.4937 C   0  0  1  0  0  0  0  0  0  0  0  0
  147.1483  138.4902  154.0000 C   0  0  0  0  0  0  0  0  0  0  0  0
  146.9844  137.5816  156.3491 C   0  0  0  0  0  0  0  0  0  0  0  0
  147.3053  137.7411  157.7641 N   0  0  0  0  0  0  0  0  0  0  0  0
  146.8593  136.9510  158.7498 C   0  0  0  0  0  0  0  0  0  0  0  0
  146.1208  135.9993  158.4855 O   0  0  0  0  0  0  0  0  0  0  0  0
  147.2967  137.3091  159.9787 N   0  5  0  0  0  0  0  0  0  0  0  0
  147.3733  136.3908  160.9560 C   0  0  0  0  0  0  0  0  0  0  0  0
  147.7662  136.6806  162.2019 N   0  0  0  0  0  0  0  0  0  0  0  0
  147.7702  135.5750  163.0543 C   0  0  0  0  0  0  0  0  0  0  0  0
  147.3818  134.4139  162.4402 C   0  0  0  0  0  0  0  0  0  0  0  0
  146.9969  134.6761  160.7630 S   0  0  0  0  0  0  0  0  0  0  0  0
  149.0560  140.6375  155.4518 C   0  0  0  0  0  0  0  0  0  0  0  0
  150.5142  141.0893  155.6710 C   0  0  1  0  0  0  0  0  0  0  0  0
  150.8930  141.2304  157.1554 C   0  0  0  0  0  0  0  0  0  0  0  0
  151.4144  140.2323  154.9727 O   0  0  0  0  0  0  0  0  0  0  0  0
  152.1688  136.9954  154.5626 H   0  0  0  0  0  0  0  0  0  0  0  0
  153.2709  138.3675  154.6019 H   0  0  0  0  0  0  0  0  0  0  0  0
  152.0667  138.2440  153.3220 H   0  0  0  0  0  0  0  0  0  0  0  0
  151.4901  138.6536  156.2971 H   0  0  0  0  0  0  0  0  0  0  0  0
  149.5811  138.5309  153.9070 H   0  0  0  0  0  0  0  0  0  0  0  0
  149.7141  137.3778  155.2179 H   0  0  0  0  0  0  0  0  0  0  0  0
  146.7730  139.6333  155.7694 H   0  0  0  0  0  0  0  0  0  0  0  0
  146.1360  138.1263  153.8283 H   0  0  0  0  0  0  0  0  0  0  0  0
  147.8355  137.7323  153.6224 H   0  0  0  0  0  0  0  0  0  0  0  0
  147.2392  139.3739  153.3700 H   0  0  0  0  0  0  0  0  0  0  0  0
  145.9120  137.4132  156.2364 H   0  0  0  0  0  0  0  0  0  0  0  0
  147.4885  136.6698  156.0327 H   0  0  0  0  0  0  0  0  0  0  0  0
  147.9077  138.5107  158.0168 H   0  0  0  0  0  0  0  0  0  0  0  0
  148.0655  135.7057  164.0847 H   0  0  0  0  0  0  0  0  0  0  0  0
  147.2997  133.4264  162.8681 H   0  0  0  0  0  0  0  0  0  0  0  0
  148.7753  140.8416  154.4174 H   0  0  0  0  0  0  0  0  0  0  0  0
  148.4297  141.2719  156.0754 H   0  0  0  0  0  0  0  0  0  0  0  0
  150.6269  142.0766  155.2225 H   0  0  0  0  0  0  0  0  0  0  0  0
  150.2756  141.9858  157.6419 H   0  0  0  0  0  0  0  0  0  0  0  0
  151.9339  141.5355  157.2633 H   0  0  0  0  0  0  0  0  0  0  0  0
  150.7580  140.2988  157.7043 H   0  0  0  0  0  0  0  0  0  0  0  0
  1  2  1  0  0  0  0
  1 21  1  0  0  0  0
  1 22  1  0  0  0  0
  1 23  1  0  0  0  0
  2 20  1  0  0  0  0
  2  3  1  0  0  0  0
  2 24  1  0  0  0  0
  3  4  1  0  0  0  0
  3 25  1  0  0  0  0
  3 26  1  0  0  0  0
  4  5  1  0  0  0  0
  4 17  1  0  0  0  0
  5  6  1  0  0  0  0
  5  7  1  0  0  0  0
  5 27  1  0  0  0  0
  6 28  1  0  0  0  0
  6 29  1  0  0  0  0
  6 30  1  0  0  0  0
  7  8  1  0  0  0  0
  7 31  1  0  0  0  0
  7 32  1  0  0  0  0
  8  9  1  0  0  0  0
  8 33  1  0  0  0  0
  9 10  2  0  0  0  0
  9 11  1  0  0  0  0
 11 12  1  0  0  0  0
 12 16  1  0  0  0  0
 12 13  2  0  0  0  0
 13 14  1  0  0  0  0
 14 15  2  0  0  0  0
 14 34  1  0  0  0  0
 15 16  1  0  0  0  0
 15 35  1  0  0  0  0
 17 18  1  0  0  0  0
 17 36  1  0  0  0  0
 17 37  1  0  0  0  0
 18 19  1  0  0  0  0
 18 20  1  0  0  0  0
 18 38  1  0  0  0  0
 19 39  1  0  0  0  0
 19 40  1  0  0  0  0
 19 41  1  0  0  0  0
M  CHG  1  11  -1
M  END
> <s_m_source_file>
AV-unprocessed.smi

> <i_m_source_file_index>
2032

> <i_lp_mmshare_version>
43012

> <i_f3d_flags>
0

> <s_epik_input>
W0NIM11bQ0BASF0xW0NIMl1OKFtDSDJdW0NASF0oTzEpW0NIM10pW0NASF0oW0NIM10pW0NIMl1bTkhdQyg9TylbTkhdYzJuW2NIXVtjSF1zMg==

> <s_epik_cmdline>
J2VwaWtfcHl0aG9uJywgJy1waCcsICc3LjAnLCAnLXRuJywgJzgnLCAnLW1hJywgJzIwMCcsICctbWV0YWxfYmluZGluZycsICctaW1hZScsICc8aW5maWxlLm1hZT4nLCAnLW9tYWUnLCAnPG91dGZpbGUubWFlPic=

> <r_lp_tautomer_probability>
0.999

> <r_epik_Ionization_Penalty>
7.22375

> <r_epik_Ionization_Penalty_Charging>
5.82415

> <r_epik_Ionization_Penalty_Neutral>
1.39959

> <r_epik_State_Penalty>
6.03347

> <r_epik_Charging_Adjusted_Penalty>
11.8576

> <i_epik_Tot_Q>
-1

> <i_epik_Tot_abs_Q>
1

> <r_epik_Metal_State_Penalty>
2.01024

> <b_epik_Metal_Only>
1

> <s_lp_Force_Field>
OPLS_2005

> <r_lp_Energy>
26.6576

> <b_lp_Chiralities_Consistent>
1

> <s_lp_Variant>
AV-unprocessed.smi:2032-17

> <Gold.Version>
5.8.1

> <Gold.Id.Protein>
6NUR|6NUR_protein|mol2

> <Gold.PLP.Fitness>
42.1543

> <Gold.PLP.PLP>
-31.4540

> <Gold.PLP.part.hbond>
-3.1326

> <Gold.PLP.part.metal>
0.0000

> <Gold.PLP.part.buried>
-4.2925

> <Gold.PLP.part.nonpolar>
-23.9655

> <Gold.PLP.part.repulsive>
0.1316

> <Gold.PLP.ligand.clash>
0.0000

> <Gold.PLP.ligand.torsion>
0.7021

> <Gold.PLP.Chemscore.Hbond>
3.9840

> <Gold.PLP.Chemscore.CHOScore>
0.0000

> <Gold.PLP.Chemscore.Metal>
0.0000

> <Gold.Chemscore.Hbonds>
donor molecule, donor type, donor heavy atom, donor atom, acceptor molecule, acceptor atom, score
      P1  H  6931  6943       L1    13  1.00
      P1  H  6934  6947       L1    11  2.00
      P1  H  7989  7998       L1    20  1.00

> <Gold.PLP.Chemscore.Internal.Correction>
0.1525

> <Gold.Rescore>
     Score         DG    S(hbond)    S(metal)    S(lipo)     H(rot)  DE(clash)    DE(int)     intcor
     13.48     -15.63       1.87        0.00      67.04       1.54       0.00       2.14       ----

> <Gold.Chemscore.Fitness>
13.4831

> <Gold.Chemscore.DG>
-15.6291

> <Gold.Chemscore.ZeroCoef>
-5.4800

> <Gold.Chemscore.Hbond>
1.8731

> <Gold.Chemscore.Metal>
0.0000

> <Gold.Chemscore.Lipo>
67.0364

> <Gold.Chemscore.Internal_Hbond>
0.0000

> <Gold.Chemscore.DEClash>
0.0029

> <Gold.Chemscore.DEInternal>
2.1431

> <Gold.Chemscore.Rot>
1.5431

> <Gold.Chemscore.Internal.Correction>
   9.000000E+99

> <Gold.Chemscore.Hbonds>
donor molecule, donor type, donor heavy atom, donor atom, acceptor molecule, acceptor atom, score
      P1  H  6931  6943       L1    13  0.37
      P1  H  6934  6947       L1    11  0.47
      P1  H  7989  7998       L1    20  0.58

> <Gold.Chemscore.Hbond.Weighted>
-6.2561

> <Gold.Chemscore.Metal.Weighted>
-0.0000

> <Gold.Chemscore.Lipo.Weighted>
-7.8433

> <Gold.Chemscore.Internal_Hbond.Weighted>
0.0000

> <Gold.Chemscore.DEClash.Weighted>
0.0029

> <Gold.Chemscore.DEInternal.Weighted>
2.1431

> <Gold.Chemscore.Rot.Weighted>
3.9503

> <Gold.Chemscore.Internal.Correction.Weighted>
   9.000000E+99

> <Gold.Protein.RotatedTorsions>
[ 6907 6896 6895 6894 ] final   20.61 input  -60.11 | X-H torsion
[ 7974 7965 7964 7962 ] final   63.42 input  175.53 | X-H torsion
[ 8008 7997 7996 7995 ] final  -53.33 input   59.86 | X-H torsion
[ 10167 10162 10161 10158 ] final  102.55 input  -65.29 | X-H torsion
[ 10718 10713 10712 10709 ] final  103.10 input   66.30 | X-H torsion
[ 10763 10752 10751 10750 ] final   76.72 input  -60.55 | X-H torsion
[ 11005 11000 10999 10996 ] final  -52.15 input  -57.11 | X-H torsion

> <Gold.Protein.ActiveResidues>
 VAL166  LYS551  ARG553  GLY616  TRP617  ASP618  TYR619  PRO620  LYS621  CYS622 
 ASP623  PHE694  ASN695  SER759  ASP760  ASP761  ALA762  ILE779  LEU786  VAL792 
 PHE793  MET794  SER795  GLU796  ALA797  LYS798  CYS799  TRP800  GLU811  SER814 

> <Gold.Protein.RotatedAtoms>
  151.8991  135.0385  160.0504 H   0  0  0  0  0  0  0  0  0  0  0  0  # atno 6907 bound_to 6896
  152.2373  133.5102  159.5258 H   0  0  0  0  0  0  0  0  0  0  0  0  # atno 6908 bound_to 6896
  150.7043  134.1053  159.4023 H   0  0  0  0  0  0  0  0  0  0  0  0  # atno 6909 bound_to 6896
  145.8620  139.3321  143.0813 H   0  0  0  0  0  0  0  0  0  0  0  0  # atno 7974 bound_to 7965
  154.4130  140.1202  156.5136 H   0  0  0  0  0  0  0  0  0  0  0  0  # atno 8008 bound_to 7997
  155.6774  140.3496  155.4822 H   0  0  0  0  0  0  0  0  0  0  0  0  # atno 8009 bound_to 7997
  155.9581  140.1117  157.0909 H   0  0  0  0  0  0  0  0  0  0  0  0  # atno 8010 bound_to 7997
  139.7340  144.7029  151.0677 H   0  0  0  0  0  0  0  0  0  0  0  0  # atno 10167 bound_to 10162
  157.6783  131.0770  150.5504 H   0  0  0  0  0  0  0  0  0  0  0  0  # atno 10718 bound_to 10713
  153.0746  135.4941  154.8376 H   0  0  0  0  0  0  0  0  0  0  0  0  # atno 10763 bound_to 10752
  154.7069  135.3012  154.9259 H   0  0  0  0  0  0  0  0  0  0  0  0  # atno 10764 bound_to 10752
  153.9965  135.6771  153.4809 H   0  0  0  0  0  0  0  0  0  0  0  0  # atno 10765 bound_to 10752
  141.0909  133.6633  156.3982 H   0  0  0  0  0  0  0  0  0  0  0  0  # atno 11005 bound_to 11000
  145.9236  140.9098  143.0392 LP  0  0  0  0  0  0  0  0  0  0  0  0  # atno 17320 bound_to 7965
  144.6726  140.1323  143.7443 LP  0  0  0  0  0  0  0  0  0  0  0  0  # atno 17321 bound_to 7965
  140.7776  143.5007  150.9775 LP  0  0  0  0  0  0  0  0  0  0  0  0  # atno 17342 bound_to 10162
  139.8695  143.7210  152.3167 LP  0  0  0  0  0  0  0  0  0  0  0  0  # atno 17343 bound_to 10162
  156.5809  130.4304  149.5978 LP  0  0  0  0  0  0  0  0  0  0  0  0  # atno 17370 bound_to 10713
  156.2662  130.6991  151.1775 LP  0  0  0  0  0  0  0  0  0  0  0  0  # atno 17371 bound_to 10713
  140.5254  134.6264  157.5332 LP  0  0  0  0  0  0  0  0  0  0  0  0  # atno 17394 bound_to 11000
  139.9735  134.7254  155.9995 LP  0  0  0  0  0  0  0  0  0  0  0  0  # atno 17395 bound_to 11000

$$$$
