AV-unprocessed.smi:1433|AV-procd|sdf|5835|dock3
  -GOLD-   22720 5493D 1   1.00000     0.00000
 Structure written by MMmdl.
 44 45  0  0  0  0  0  0  0  0  1 V2000
  150.0927  141.3762  157.0397 C   0  0  0  0  0  0  0  0  0  0  0  0
  150.5004  141.3016  155.5581 C   0  0  2  0  0  0  0  0  0  0  0  0
  149.3075  141.0655  154.6100 C   0  0  0  0  0  0  0  0  0  0  0  0
  148.7900  139.6958  154.6633 N   0  0  0  0  0  0  0  0  0  0  0  0
  147.6440  139.4762  153.7543 C   0  0  2  0  0  0  0  0  0  0  0  0
  146.6677  140.6733  153.6878 C   0  0  0  0  0  0  0  0  0  0  0  0
  146.8202  138.2035  154.0810 C   0  0  0  0  0  0  0  0  0  0  0  0
  146.5985  137.3818  152.8932 N   0  0  0  0  0  0  0  0  0  0  0  0
  145.4573  137.3039  152.1905 C   0  0  0  0  0  0  0  0  0  0  0  0
  144.4254  137.9014  152.4947 O   0  0  0  0  0  0  0  0  0  0  0  0
  145.4874  136.4271  150.9374 C   0  0  0  0  0  0  0  0  0  0  0  0
  144.5182  135.3483  151.0185 N   0  0  0  0  0  0  0  0  0  0  0  0
  144.3414  134.2885  150.1533 C   0  0  0  0  0  0  0  0  0  0  0  0
  143.3108  133.5355  150.6383 C   0  0  0  0  0  0  0  0  0  0  0  0
  142.9170  134.2227  151.8203 C   0  0  0  0  0  0  0  0  0  0  0  0
  143.6408  135.3072  152.0455 N   0  0  0  0  0  0  0  0  0  0  0  0
  149.9031  138.7829  154.3970 C   0  0  0  0  0  0  0  0  0  0  0  0
  151.0658  138.9723  155.3865 C   0  0  1  0  0  0  0  0  0  0  0  0
  152.2539  138.0618  155.0597 C   0  0  0  0  0  0  0  0  0  0  0  0
  151.5148  140.3233  155.3358 O   0  0  0  0  0  0  0  0  0  0  0  0
  149.4081  142.2070  157.2114 H   0  0  0  0  0  0  0  0  0  0  0  0
  150.9644  141.5301  157.6760 H   0  0  0  0  0  0  0  0  0  0  0  0
  149.5905  140.4685  157.3737 H   0  0  0  0  0  0  0  0  0  0  0  0
  150.9444  142.2644  155.3028 H   0  0  0  0  0  0  0  0  0  0  0  0
  148.5313  141.7834  154.8707 H   0  0  0  0  0  0  0  0  0  0  0  0
  149.6139  141.2966  153.5887 H   0  0  0  0  0  0  0  0  0  0  0  0
  148.0373  139.3412  152.7455 H   0  0  0  0  0  0  0  0  0  0  0  0
  145.7809  140.4286  153.1024 H   0  0  0  0  0  0  0  0  0  0  0  0
  147.1164  141.5410  153.2052 H   0  0  0  0  0  0  0  0  0  0  0  0
  146.3340  140.9750  154.6813 H   0  0  0  0  0  0  0  0  0  0  0  0
  147.3613  137.5920  154.8037 H   0  0  0  0  0  0  0  0  0  0  0  0
  145.8858  138.4524  154.5840 H   0  0  0  0  0  0  0  0  0  0  0  0
  147.3893  136.8497  152.5592 H   0  0  0  0  0  0  0  0  0  0  0  0
  145.2654  137.0285  150.0546 H   0  0  0  0  0  0  0  0  0  0  0  0
  146.4883  136.0140  150.8009 H   0  0  0  0  0  0  0  0  0  0  0  0
  144.9559  134.1622  149.2740 H   0  0  0  0  0  0  0  0  0  0  0  0
  142.9007  132.6314  150.2136 H   0  0  0  0  0  0  0  0  0  0  0  0
  142.1319  133.9676  152.5168 H   0  0  0  0  0  0  0  0  0  0  0  0
  149.5799  137.7471  154.4708 H   0  0  0  0  0  0  0  0  0  0  0  0
  150.2613  138.9254  153.3762 H   0  0  0  0  0  0  0  0  0  0  0  0
  150.7249  138.7390  156.3956 H   0  0  0  0  0  0  0  0  0  0  0  0
  151.9645  137.0110  155.0971 H   0  0  0  0  0  0  0  0  0  0  0  0
  153.0645  138.2082  155.7741 H   0  0  0  0  0  0  0  0  0  0  0  0
  152.6462  138.2664  154.0632 H   0  0  0  0  0  0  0  0  0  0  0  0
  1  2  1  0  0  0  0
  1 21  1  0  0  0  0
  1 22  1  0  0  0  0
  1 23  1  0  0  0  0
  2 20  1  0  0  0  0
  2  3  1  0  0  0  0
  2 24  1  0  0  0  0
  3  4  1  0  0  0  0
  3 25  1  0  0  0  0
  3 26  1  0  0  0  0
  4  5  1  0  0  0  0
  4 17  1  0  0  0  0
  5  6  1  0  0  0  0
  5  7  1  0  0  0  0
  5 27  1  0  0  0  0
  6 28  1  0  0  0  0
  6 29  1  0  0  0  0
  6 30  1  0  0  0  0
  7  8  1  0  0  0  0
  7 31  1  0  0  0  0
  7 32  1  0  0  0  0
  8  9  1  0  0  0  0
  8 33  1  0  0  0  0
  9 10  2  0  0  0  0
  9 11  1  0  0  0  0
 11 12  1  0  0  0  0
 11 34  1  0  0  0  0
 11 35  1  0  0  0  0
 12 16  1  0  0  0  0
 12 13  1  0  0  0  0
 13 14  2  0  0  0  0
 13 36  1  0  0  0  0
 14 15  1  0  0  0  0
 14 37  1  0  0  0  0
 15 16  2  0  0  0  0
 15 38  1  0  0  0  0
 17 18  1  0  0  0  0
 17 39  1  0  0  0  0
 17 40  1  0  0  0  0
 18 19  1  0  0  0  0
 18 20  1  0  0  0  0
 18 41  1  0  0  0  0
 19 42  1  0  0  0  0
 19 43  1  0  0  0  0
 19 44  1  0  0  0  0
M  END
> <s_m_source_file>
AV-unprocessed.smi

> <i_m_source_file_index>
1433

> <i_lp_mmshare_version>
43012

> <i_f3d_flags>
0

> <s_epik_input>
W0NIM11bQ0BASF0xW0NIMl1OKFtDSDJdW0NASF0oTzEpW0NIM10pW0NASF0oW0NIM10pW0NIMl1bTkhdQyg9TylbQ0gyXW4yW2NIXVtjSF1bY0hdbjI=

> <s_epik_cmdline>
J2VwaWtfcHl0aG9uJywgJy1waCcsICc3LjAnLCAnLXRuJywgJzgnLCAnLW1hJywgJzIwMCcsICctbWV0YWxfYmluZGluZycsICctaW1hZScsICc8aW5maWxlLm1hZT4nLCAnLW9tYWUnLCAnPG91dGZpbGUubWFlPic=

> <r_lp_tautomer_probability>
1

> <r_epik_Ionization_Penalty>
0.196927

> <r_epik_Ionization_Penalty_Charging>
0

> <r_epik_Ionization_Penalty_Neutral>
0.196927

> <r_epik_State_Penalty>
0.186684

> <r_epik_Charging_Adjusted_Penalty>
0.186684

> <i_epik_Tot_Q>
0

> <i_epik_Tot_abs_Q>
0

> <r_epik_Metal_State_Penalty>
0.186682

> <b_epik_Metal_Only>
0

> <s_lp_Force_Field>
OPLS_2005

> <r_lp_Energy>
34.3038

> <b_lp_Chiralities_Consistent>
1

> <s_lp_Variant>
AV-unprocessed.smi:1433-1

> <Gold.Version>
5.8.1

> <Gold.Id.Protein>
6NUR|6NUR_protein|mol2

> <Gold.PLP.Fitness>
45.0353

> <Gold.PLP.PLP>
-35.6404

> <Gold.PLP.part.hbond>
-2.0000

> <Gold.PLP.part.metal>
0.0000

> <Gold.PLP.part.buried>
-3.7640

> <Gold.PLP.part.nonpolar>
-31.0164

> <Gold.PLP.part.repulsive>
0.4740

> <Gold.PLP.ligand.clash>
0.0000

> <Gold.PLP.ligand.torsion>
1.1194

> <Gold.PLP.Chemscore.Hbond>
1.8640

> <Gold.PLP.Chemscore.CHOScore>
2.0000

> <Gold.PLP.Chemscore.Metal>
0.0000

> <Gold.Chemscore.Hbonds>
donor molecule, donor type, donor heavy atom, donor atom, acceptor molecule, acceptor atom, score
      L1  H     8    33       P1  7948  1.00
      P1  H  7989  7998       L1    20  0.46
      L1  C    13    36       P1  7921  1.00

> <Gold.PLP.Chemscore.Internal.Correction>
0.0417

> <Gold.Rescore>
     Score         DG    S(hbond)    S(metal)    S(lipo)     H(rot)  DE(clash)    DE(int)     intcor
     12.22     -14.35       1.14        0.00      82.64       1.80       0.05       2.08       ----

> <Gold.Chemscore.Fitness>
12.2202

> <Gold.Chemscore.DG>
-14.3525

> <Gold.Chemscore.ZeroCoef>
-5.4800

> <Gold.Chemscore.Hbond>
1.1442

> <Gold.Chemscore.Metal>
0.0000

> <Gold.Chemscore.Lipo>
82.6380

> <Gold.Chemscore.Internal_Hbond>
0.0000

> <Gold.Chemscore.DEClash>
0.0531

> <Gold.Chemscore.DEInternal>
2.0792

> <Gold.Chemscore.Rot>
1.8038

> <Gold.Chemscore.Internal.Correction>
   9.000000E+99

> <Gold.Chemscore.Hbonds>
donor molecule, donor type, donor heavy atom, donor atom, acceptor molecule, acceptor atom, score
      L1  H     8    33       P1  7948  1.00
      P1  H  7989  7998       L1    20  0.02

> <Gold.Chemscore.Hbond.Weighted>
-3.8216

> <Gold.Chemscore.Metal.Weighted>
-0.0000

> <Gold.Chemscore.Lipo.Weighted>
-9.6686

> <Gold.Chemscore.Internal_Hbond.Weighted>
0.0000

> <Gold.Chemscore.DEClash.Weighted>
0.0531

> <Gold.Chemscore.DEInternal.Weighted>
2.0792

> <Gold.Chemscore.Rot.Weighted>
4.6178

> <Gold.Chemscore.Internal.Correction.Weighted>
   9.000000E+99

> <Gold.Protein.RotatedTorsions>
[ 6907 6896 6895 6894 ] final -165.78 input  -60.11 | X-H torsion
[ 7974 7965 7964 7962 ] final -112.12 input  175.53 | X-H torsion
[ 8008 7997 7996 7995 ] final   97.12 input   59.86 | X-H torsion
[ 10167 10162 10161 10158 ] final   31.74 input  -65.29 | X-H torsion
[ 10718 10713 10712 10709 ] final  -88.65 input   66.30 | X-H torsion
[ 10763 10752 10751 10750 ] final  160.21 input  -60.55 | X-H torsion
[ 11005 11000 10999 10996 ] final -161.74 input  -57.11 | X-H torsion

> <Gold.Protein.ActiveResidues>
 VAL166  LYS551  ARG553  GLY616  TRP617  ASP618  TYR619  PRO620  LYS621  CYS622 
 ASP623  PHE694  ASN695  SER759  ASP760  ASP761  ALA762  ILE779  LEU786  VAL792 
 PHE793  MET794  SER795  GLU796  ALA797  LYS798  CYS799  TRP800  GLU811  SER814 

> <Gold.Protein.RotatedAtoms>
  151.4331  133.3664  159.2771 H   0  0  0  0  0  0  0  0  0  0  0  0  # atno 6907 bound_to 6896
  150.9211  134.8630  159.7500 H   0  0  0  0  0  0  0  0  0  0  0  0  # atno 6908 bound_to 6896
  152.4982  134.4268  159.9551 H   0  0  0  0  0  0  0  0  0  0  0  0  # atno 6909 bound_to 6896
  145.1478  140.8813  143.3664 H   0  0  0  0  0  0  0  0  0  0  0  0  # atno 7974 bound_to 7965
  156.0868  140.3263  155.7764 H   0  0  0  0  0  0  0  0  0  0  0  0  # atno 8008 bound_to 7997
  155.5062  140.0573  157.2948 H   0  0  0  0  0  0  0  0  0  0  0  0  # atno 8009 bound_to 7997
  154.4614  140.1968  156.0251 H   0  0  0  0  0  0  0  0  0  0  0  0  # atno 8010 bound_to 7997
  140.4561  144.0975  150.6202 H   0  0  0  0  0  0  0  0  0  0  0  0  # atno 10167 bound_to 10162
  155.9983  130.4843  150.5052 H   0  0  0  0  0  0  0  0  0  0  0  0  # atno 10718 bound_to 10713
  154.2438  135.2774  155.2843 H   0  0  0  0  0  0  0  0  0  0  0  0  # atno 10763 bound_to 10752
  154.5522  135.5671  153.6936 H   0  0  0  0  0  0  0  0  0  0  0  0  # atno 10764 bound_to 10752
  152.9994  135.6277  154.2583 H   0  0  0  0  0  0  0  0  0  0  0  0  # atno 10765 bound_to 10752
  140.6171  134.4789  157.5220 H   0  0  0  0  0  0  0  0  0  0  0  0  # atno 11005 bound_to 11000
  145.0463  139.3218  143.5951 LP  0  0  0  0  0  0  0  0  0  0  0  0  # atno 17320 bound_to 7965
  146.3498  139.9854  142.8691 LP  0  0  0  0  0  0  0  0  0  0  0  0  # atno 17321 bound_to 7965
  140.4149  143.2639  151.9787 LP  0  0  0  0  0  0  0  0  0  0  0  0  # atno 17342 bound_to 10162
  139.4801  144.5883  151.7816 LP  0  0  0  0  0  0  0  0  0  0  0  0  # atno 17343 bound_to 10162
  157.3032  131.0649  151.2054 LP  0  0  0  0  0  0  0  0  0  0  0  0  # atno 17370 bound_to 10713
  157.3026  130.6850  149.6172 LP  0  0  0  0  0  0  0  0  0  0  0  0  # atno 17371 bound_to 10713
  139.9168  134.8229  156.1339 LP  0  0  0  0  0  0  0  0  0  0  0  0  # atno 17394 bound_to 11000
  141.0768  133.6772  156.2253 LP  0  0  0  0  0  0  0  0  0  0  0  0  # atno 17395 bound_to 11000

$$$$
