AV-unprocessed.smi:1997|AV-procd|sdf|8088|dock6
  -GOLD-   2272010303D 1   1.00000     0.00000
 Structure written by MMmdl.
 36 38  0  0  0  0  0  0  0  0  2 V2000
  152.9921  137.5659  159.1066 O   0  0  0  0  0  0  0  0  0  0  0  0
  153.6808  138.5237  159.4664 C   0  0  0  0  0  0  0  0  0  0  0  0
  153.7373  139.7380  158.8733 N   0  5  0  0  0  0  0  0  0  0  0  0
  153.4259  140.8421  159.5719 C   0  0  0  0  0  0  0  0  0  0  0  0
  153.6796  140.9591  160.8830 N   0  0  0  0  0  0  0  0  0  0  0  0
  153.2854  142.1819  161.4068 N   0  0  0  0  0  0  0  0  0  0  0  0
  152.7440  142.9759  160.4800 C   0  0  0  0  0  0  0  0  0  0  0  0
  152.2395  144.3446  160.7942 C   0  0  0  0  0  0  0  0  0  0  0  0
  150.7972  144.7151  160.5354 C   0  0  0  0  0  0  0  0  0  0  0  0
  151.8908  145.3295  159.6995 C   0  0  0  0  0  0  0  0  0  0  0  0
  152.6818  142.2780  158.8693 S   0  0  0  0  0  0  0  0  0  0  0  0
  154.4740  138.4116  160.5430 N   0  0  0  0  0  0  0  0  0  0  0  0
  154.6424  137.2196  161.3775 C   0  0  2  0  0  0  0  0  0  0  0  0
  153.9144  137.4698  162.7225 C   0  0  0  0  0  0  0  0  0  0  0  0
  154.2889  136.5329  163.8930 C   0  0  0  0  0  0  0  0  0  0  0  0
  154.3847  135.0363  163.5323 C   0  0  0  0  0  0  0  0  0  0  0  0
  155.4377  134.6434  162.4635 C   0  0  0  0  0  0  0  0  0  0  0  0
  156.4165  135.6853  162.1532 N   0  0  0  0  0  0  0  0  0  0  0  0
  156.1307  136.8926  161.6364 C   0  0  0  0  0  0  0  0  0  0  0  0
  157.0159  137.7161  161.4075 O   0  0  0  0  0  0  0  0  0  0  0  0
  152.7119  144.7308  161.6951 H   0  0  0  0  0  0  0  0  0  0  0  0
  150.1618  143.9694  160.0614 H   0  0  0  0  0  0  0  0  0  0  0  0
  150.3043  145.3512  161.2673 H   0  0  0  0  0  0  0  0  0  0  0  0
  152.1283  146.3769  159.8729 H   0  0  0  0  0  0  0  0  0  0  0  0
  151.9704  144.9997  158.6655 H   0  0  0  0  0  0  0  0  0  0  0  0
  155.0220  139.2207  160.7951 H   0  0  0  0  0  0  0  0  0  0  0  0
  154.1713  136.3800  160.8648 H   0  0  0  0  0  0  0  0  0  0  0  0
  154.0849  138.4966  163.0506 H   0  0  0  0  0  0  0  0  0  0  0  0
  152.8409  137.3955  162.5442 H   0  0  0  0  0  0  0  0  0  0  0  0
  155.2341  136.8564  164.3317 H   0  0  0  0  0  0  0  0  0  0  0  0
  153.5536  136.6602  164.6879 H   0  0  0  0  0  0  0  0  0  0  0  0
  154.6105  134.4898  164.4485 H   0  0  0  0  0  0  0  0  0  0  0  0
  153.4050  134.6766  163.2163 H   0  0  0  0  0  0  0  0  0  0  0  0
  155.9800  133.7578  162.7956 H   0  0  0  0  0  0  0  0  0  0  0  0
  154.9390  134.3458  161.5400 H   0  0  0  0  0  0  0  0  0  0  0  0
  157.3860  135.4710  162.3359 H   0  0  0  0  0  0  0  0  0  0  0  0
  1  2  2  0  0  0  0
  2  3  1  0  0  0  0
  2 12  1  0  0  0  0
  3  4  1  0  0  0  0
  4 11  1  0  0  0  0
  4  5  2  0  0  0  0
  5  6  1  0  0  0  0
  6  7  2  0  0  0  0
  7  8  1  0  0  0  0
  7 11  1  0  0  0  0
  8 10  1  0  0  0  0
  8  9  1  0  0  0  0
  8 21  1  0  0  0  0
  9 10  1  0  0  0  0
  9 22  1  0  0  0  0
  9 23  1  0  0  0  0
 10 24  1  0  0  0  0
 10 25  1  0  0  0  0
 12 13  1  0  0  0  0
 12 26  1  0  0  0  0
 13 19  1  0  0  0  0
 13 14  1  0  0  0  0
 13 27  1  0  0  0  0
 14 15  1  0  0  0  0
 14 28  1  0  0  0  0
 14 29  1  0  0  0  0
 15 16  1  0  0  0  0
 15 30  1  0  0  0  0
 15 31  1  0  0  0  0
 16 17  1  0  0  0  0
 16 32  1  0  0  0  0
 16 33  1  0  0  0  0
 17 18  1  0  0  0  0
 17 34  1  0  0  0  0
 17 35  1  0  0  0  0
 18 19  1  0  0  0  0
 18 36  1  0  0  0  0
 19 20  2  0  0  0  0
M  CHG  1   3  -1
M  END
> <s_m_source_file>
AV-unprocessed.smi

> <i_m_source_file_index>
1997

> <i_lp_mmshare_version>
43012

> <i_f3d_flags>
0

> <s_epik_input>
W0NIMl0xW0NIMl1bQ0hdMWMoczIpbm5jMltOSF1DKD1PKVtOSF1bQ0BASF0zW0NIMl1bQ0gyXVtDSDJdW0NIMl1bTkhdQzM9Tw==

> <s_epik_cmdline>
J2VwaWtfcHl0aG9uJywgJy1waCcsICc3LjAnLCAnLXRuJywgJzgnLCAnLW1hJywgJzIwMCcsICctbWV0YWxfYmluZGluZycsICctaW1hZScsICc8aW5maWxlLm1hZT4nLCAnLW9tYWUnLCAnPG91dGZpbGUubWFlPic=

> <r_lp_tautomer_probability>
1

> <r_epik_Ionization_Penalty>
4.47229

> <r_epik_Ionization_Penalty_Charging>
4.32584

> <r_epik_Ionization_Penalty_Neutral>
0.146443

> <r_epik_State_Penalty>
4.32544

> <r_epik_Charging_Adjusted_Penalty>
8.65129

> <i_epik_Tot_Q>
-1

> <i_epik_Tot_abs_Q>
1

> <r_epik_Metal_State_Penalty>
0.738743

> <b_epik_Metal_Only>
1

> <s_lp_Force_Field>
OPLS_2005

> <r_lp_Energy>
12.6103

> <b_lp_Chiralities_Consistent>
1

> <s_lp_Variant>
AV-unprocessed.smi:1997-3

> <Gold.Version>
5.8.1

> <Gold.Id.Protein>
6NUR|6NUR_protein|mol2

> <Gold.PLP.Fitness>
40.9638

> <Gold.PLP.PLP>
-36.9153

> <Gold.PLP.part.hbond>
-1.0000

> <Gold.PLP.part.metal>
0.0000

> <Gold.PLP.part.buried>
-6.2751

> <Gold.PLP.part.nonpolar>
-29.1120

> <Gold.PLP.part.repulsive>
0.0367

> <Gold.PLP.ligand.clash>
0.0000

> <Gold.PLP.ligand.torsion>
1.0416

> <Gold.PLP.Chemscore.Hbond>
2.0000

> <Gold.PLP.Chemscore.CHOScore>
0.0000

> <Gold.PLP.Chemscore.Metal>
0.0000

> <Gold.Chemscore.Hbonds>
donor molecule, donor type, donor heavy atom, donor atom, acceptor molecule, acceptor atom, score
      P1  H  7997  8010       L1     3  2.00

> <Gold.PLP.Chemscore.Internal.Correction>
0.1317

> <Gold.Rescore>
     Score         DG    S(hbond)    S(metal)    S(lipo)     H(rot)  DE(clash)    DE(int)     intcor
     15.33     -16.35       0.94        0.00      93.91       1.27       0.03       1.00       ----

> <Gold.Chemscore.Fitness>
15.3252

> <Gold.Chemscore.DG>
-16.3545

> <Gold.Chemscore.ZeroCoef>
-5.4800

> <Gold.Chemscore.Hbond>
0.9423

> <Gold.Chemscore.Metal>
0.0000

> <Gold.Chemscore.Lipo>
93.9150

> <Gold.Chemscore.Internal_Hbond>
0.0000

> <Gold.Chemscore.DEClash>
0.0300

> <Gold.Chemscore.DEInternal>
0.9993

> <Gold.Chemscore.Rot>
1.2738

> <Gold.Chemscore.Internal.Correction>
   9.000000E+99

> <Gold.Chemscore.Hbonds>
donor molecule, donor type, donor heavy atom, donor atom, acceptor molecule, acceptor atom, score
      P1  H  7997  8010       L1     3  0.88

> <Gold.Chemscore.Hbond.Weighted>
-3.1474

> <Gold.Chemscore.Metal.Weighted>
-0.0000

> <Gold.Chemscore.Lipo.Weighted>
-10.9880

> <Gold.Chemscore.Internal_Hbond.Weighted>
0.0000

> <Gold.Chemscore.DEClash.Weighted>
0.0300

> <Gold.Chemscore.DEInternal.Weighted>
0.9993

> <Gold.Chemscore.Rot.Weighted>
3.2610

> <Gold.Chemscore.Internal.Correction.Weighted>
   9.000000E+99

> <Gold.Protein.RotatedTorsions>
[ 6907 6896 6895 6894 ] final  126.01 input  -60.11 | X-H torsion
[ 7974 7965 7964 7962 ] final -115.45 input  175.53 | X-H torsion
[ 8008 7997 7996 7995 ] final   21.06 input   59.86 | X-H torsion
[ 10167 10162 10161 10158 ] final -171.18 input  -65.29 | X-H torsion
[ 10718 10713 10712 10709 ] final -130.55 input   66.30 | X-H torsion
[ 10763 10752 10751 10750 ] final  174.25 input  -60.55 | X-H torsion
[ 11005 11000 10999 10996 ] final  102.58 input  -57.11 | X-H torsion

> <Gold.Protein.ActiveResidues>
 VAL166  LYS551  ARG553  GLY616  TRP617  ASP618  TYR619  PRO620  LYS621  CYS622 
 ASP623  PHE694  ASN695  SER759  ASP760  ASP761  ALA762  ILE779  LEU786  VAL792 
 PHE793  MET794  SER795  GLU796  ALA797  LYS798  CYS799  TRP800  GLU811  SER814 

> <Gold.Protein.RotatedAtoms>
  152.3941  133.6721  159.6261 H   0  0  0  0  0  0  0  0  0  0  0  0  # atno 6907 bound_to 6896
  150.7843  133.8904  159.3320 H   0  0  0  0  0  0  0  0  0  0  0  0  # atno 6908 bound_to 6896
  151.6684  135.0981  160.0244 H   0  0  0  0  0  0  0  0  0  0  0  0  # atno 6909 bound_to 6896
  145.1082  140.8595  143.3885 H   0  0  0  0  0  0  0  0  0  0  0  0  # atno 7974 bound_to 7965
  154.9449  140.3058  155.5103 H   0  0  0  0  0  0  0  0  0  0  0  0  # atno 8008 bound_to 7997
  156.2992  140.2329  156.4459 H   0  0  0  0  0  0  0  0  0  0  0  0  # atno 8009 bound_to 7997
  154.8110  140.0428  157.1331 H   0  0  0  0  0  0  0  0  0  0  0  0  # atno 8010 bound_to 7997
  139.5817  144.1407  152.1524 H   0  0  0  0  0  0  0  0  0  0  0  0  # atno 10167 bound_to 10162
  156.2156  130.6946  151.0699 H   0  0  0  0  0  0  0  0  0  0  0  0  # atno 10718 bound_to 10713
  154.4513  135.2765  155.1779 H   0  0  0  0  0  0  0  0  0  0  0  0  # atno 10763 bound_to 10752
  154.3605  135.6130  153.5692 H   0  0  0  0  0  0  0  0  0  0  0  0  # atno 10764 bound_to 10752
  152.9847  135.5833  154.4858 H   0  0  0  0  0  0  0  0  0  0  0  0  # atno 10765 bound_to 10752
  139.8778  134.9229  156.5079 H   0  0  0  0  0  0  0  0  0  0  0  0  # atno 11005 bound_to 11000
  145.0877  139.2913  143.5751 LP  0  0  0  0  0  0  0  0  0  0  0  0  # atno 17320 bound_to 7965
  146.3527  140.0404  142.8643 LP  0  0  0  0  0  0  0  0  0  0  0  0  # atno 17321 bound_to 7965
  140.0962  144.5578  150.7020 LP  0  0  0  0  0  0  0  0  0  0  0  0  # atno 17342 bound_to 10162
  140.7095  143.2493  151.4625 LP  0  0  0  0  0  0  0  0  0  0  0  0  # atno 17343 bound_to 10162
  157.7061  131.0755  150.6661 LP  0  0  0  0  0  0  0  0  0  0  0  0  # atno 17370 bound_to 10713
  156.6722  130.4543  149.5653 LP  0  0  0  0  0  0  0  0  0  0  0  0  # atno 17371 bound_to 10713
  140.8541  133.8109  155.9199 LP  0  0  0  0  0  0  0  0  0  0  0  0  # atno 17394 bound_to 11000
  140.9114  134.2255  157.4983 LP  0  0  0  0  0  0  0  0  0  0  0  0  # atno 17395 bound_to 11000

$$$$
