AV-unprocessed.smi:1163|AV-procd|sdf|4921|dock2
  -GOLD-   22720 3503D 1   1.00000     0.00000
 Structure written by MMmdl.
 39 40  0  0  0  0  0  0  0  0  1 V2000
  152.0140  140.7854  158.2200 C   0  0  0  0  0  0  0  0  0  0  0  0
  152.3294  140.3787  156.8928 O   0  0  0  0  0  0  0  0  0  0  0  0
  151.3839  139.6655  156.1843 C   0  0  0  0  0  0  0  0  0  0  0  0
  150.3049  139.0931  156.8867 C   0  0  0  0  0  0  0  0  0  0  0  0
  149.3363  138.3681  156.1674 C   0  0  0  0  0  0  0  0  0  0  0  0
  149.4674  138.2424  154.7699 C   0  0  0  0  0  0  0  0  0  0  0  0
  148.4817  137.4916  154.0743 N   0  0  0  0  0  0  0  0  0  0  0  0
  147.2143  137.2308  154.4380 C   0  0  0  0  0  0  0  0  0  0  0  0
  146.6852  137.5965  155.4872 O   0  0  0  0  0  0  0  0  0  0  0  0
  146.5912  136.4916  153.5097 N   0  0  0  0  0  0  0  0  0  0  0  0
  145.2155  136.0079  153.5848 C   0  0  1  0  0  0  0  0  0  0  0  0
  144.2774  136.7821  152.6624 C   0  0  0  0  0  0  0  0  0  0  0  0
  143.3872  135.6920  152.0770 C   0  0  0  0  0  0  0  0  0  0  0  0
  144.3177  134.5899  151.8888 N   0  0  0  0  0  0  0  0  0  0  0  0
  143.6192  133.3384  151.6026 C   0  0  0  0  0  0  0  0  0  0  0  0
  144.4306  132.3860  150.7025 C   0  0  0  0  0  0  0  0  0  0  0  0
  144.4180  131.1709  151.2487 F   0  0  0  0  0  0  0  0  0  0  0  0
  143.8825  132.3107  149.4892 F   0  0  0  0  0  0  0  0  0  0  0  0
  145.6999  132.7779  150.5903 F   0  0  0  0  0  0  0  0  0  0  0  0
  145.1193  134.5500  153.1095 C   0  0  0  0  0  0  0  0  0  0  0  0
  150.5948  138.8428  154.1578 C   0  0  0  0  0  0  0  0  0  0  0  0
  151.5279  139.5381  154.8422 N   0  0  0  0  0  0  0  0  0  0  0  0
  152.8616  141.3239  158.6437 H   0  0  0  0  0  0  0  0  0  0  0  0
  151.8126  139.9279  158.8641 H   0  0  0  0  0  0  0  0  0  0  0  0
  151.1539  141.4564  158.2366 H   0  0  0  0  0  0  0  0  0  0  0  0
  150.2227  139.2082  157.9574 H   0  0  0  0  0  0  0  0  0  0  0  0
  148.5012  137.9187  156.6852 H   0  0  0  0  0  0  0  0  0  0  0  0
  148.7951  137.0556  153.2196 H   0  0  0  0  0  0  0  0  0  0  0  0
  147.1110  136.2364  152.6829 H   0  0  0  0  0  0  0  0  0  0  0  0
  144.8337  136.0582  154.6061 H   0  0  0  0  0  0  0  0  0  0  0  0
  143.7082  137.5483  153.1895 H   0  0  0  0  0  0  0  0  0  0  0  0
  144.8318  137.2708  151.8593 H   0  0  0  0  0  0  0  0  0  0  0  0
  142.6096  135.4140  152.7907 H   0  0  0  0  0  0  0  0  0  0  0  0
  142.9118  135.9924  151.1428 H   0  0  0  0  0  0  0  0  0  0  0  0
  143.3372  132.8401  152.5315 H   0  0  0  0  0  0  0  0  0  0  0  0
  142.6895  133.5848  151.0877 H   0  0  0  0  0  0  0  0  0  0  0  0
  146.0942  134.0974  152.9245 H   0  0  0  0  0  0  0  0  0  0  0  0
  144.6132  133.9558  153.8722 H   0  0  0  0  0  0  0  0  0  0  0  0
  150.7851  138.7602  153.0993 H   0  0  0  0  0  0  0  0  0  0  0  0
  1  2  1  0  0  0  0
  1 23  1  0  0  0  0
  1 24  1  0  0  0  0
  1 25  1  0  0  0  0
  2  3  1  0  0  0  0
  3 22  1  0  0  0  0
  3  4  2  0  0  0  0
  4  5  1  0  0  0  0
  4 26  1  0  0  0  0
  5  6  2  0  0  0  0
  5 27  1  0  0  0  0
  6  7  1  0  0  0  0
  6 21  1  0  0  0  0
  7  8  1  0  0  0  0
  7 28  1  0  0  0  0
  8  9  2  0  0  0  0
  8 10  1  0  0  0  0
 10 11  1  0  0  0  0
 10 29  1  0  0  0  0
 11 20  1  0  0  0  0
 11 12  1  0  0  0  0
 11 30  1  0  0  0  0
 12 13  1  0  0  0  0
 12 31  1  0  0  0  0
 12 32  1  0  0  0  0
 13 14  1  0  0  0  0
 13 33  1  0  0  0  0
 13 34  1  0  0  0  0
 14 15  1  0  0  0  0
 14 20  1  0  0  0  0
 15 16  1  0  0  0  0
 15 35  1  0  0  0  0
 15 36  1  0  0  0  0
 16 17  1  0  0  0  0
 16 18  1  0  0  0  0
 16 19  1  0  0  0  0
 20 37  1  0  0  0  0
 20 38  1  0  0  0  0
 21 22  2  0  0  0  0
 21 39  1  0  0  0  0
M  END
> <s_m_source_file>
AV-unprocessed.smi

> <i_m_source_file_index>
1163

> <i_lp_mmshare_version>
43012

> <i_f3d_flags>
0

> <s_epik_input>
W0NIM11PYzFbY0hdW2NIXWMoW2NIXW4xKVtOSF1DKD1PKVtOSF1bQ0BASF0yW0NIMl1bQ0gyXU4oW0NIMl0yKVtDSDJdQyhGKShGKUY=

> <s_epik_cmdline>
J2VwaWtfcHl0aG9uJywgJy1waCcsICc3LjAnLCAnLXRuJywgJzgnLCAnLW1hJywgJzIwMCcsICctbWV0YWxfYmluZGluZycsICctaW1hZScsICc8aW5maWxlLm1hZT4nLCAnLW9tYWUnLCAnPG91dGZpbGUubWFlPic=

> <r_lp_tautomer_probability>
1

> <r_epik_Ionization_Penalty>
0.0970123

> <r_epik_Ionization_Penalty_Charging>
0

> <r_epik_Ionization_Penalty_Neutral>
0.0970123

> <r_epik_State_Penalty>
0.0870533

> <r_epik_Charging_Adjusted_Penalty>
0.0870533

> <i_epik_Tot_Q>
0

> <i_epik_Tot_abs_Q>
0

> <r_epik_Metal_State_Penalty>
0.0870519

> <b_epik_Metal_Only>
0

> <s_lp_Force_Field>
OPLS_2005

> <r_lp_Energy>
29.6524

> <b_lp_Chiralities_Consistent>
1

> <s_lp_Variant>
AV-unprocessed.smi:1163-2

> <Gold.Version>
5.8.1

> <Gold.Id.Protein>
6NUR|6NUR_protein|mol2

> <Gold.PLP.Fitness>
42.2728

> <Gold.PLP.PLP>
-31.9924

> <Gold.PLP.part.hbond>
-4.0000

> <Gold.PLP.part.metal>
0.0000

> <Gold.PLP.part.buried>
-4.7054

> <Gold.PLP.part.nonpolar>
-24.0797

> <Gold.PLP.part.repulsive>
0.2061

> <Gold.PLP.ligand.clash>
0.0004

> <Gold.PLP.ligand.torsion>
1.9329

> <Gold.PLP.Chemscore.Hbond>
3.5480

> <Gold.PLP.Chemscore.CHOScore>
1.0000

> <Gold.PLP.Chemscore.Metal>
0.0000

> <Gold.Chemscore.Hbonds>
donor molecule, donor type, donor heavy atom, donor atom, acceptor molecule, acceptor atom, score
      L1  H     7    28       P1  7948  1.00
      L1  H    10    29       P1  7948  0.90
      P1  H  7989  7998       L1    22  0.65
      P1  H  7997  8009       L1     2  0.89
      L1  C    21    39       P1  7957  0.86

> <Gold.PLP.Chemscore.Internal.Correction>
0.5026

> <Gold.Rescore>
     Score         DG    S(hbond)    S(metal)    S(lipo)     H(rot)  DE(clash)    DE(int)     intcor
     13.88     -16.66       2.75        0.00      53.30       1.65       0.06       2.73       ----

> <Gold.Chemscore.Fitness>
13.8768

> <Gold.Chemscore.DG>
-16.6650

> <Gold.Chemscore.ZeroCoef>
-5.4800

> <Gold.Chemscore.Hbond>
2.7476

> <Gold.Chemscore.Metal>
0.0000

> <Gold.Chemscore.Lipo>
53.2985

> <Gold.Chemscore.Internal_Hbond>
0.0000

> <Gold.Chemscore.DEClash>
0.0567

> <Gold.Chemscore.DEInternal>
2.7315

> <Gold.Chemscore.Rot>
1.6515

> <Gold.Chemscore.Internal.Correction>
   9.000000E+99

> <Gold.Chemscore.Hbonds>
donor molecule, donor type, donor heavy atom, donor atom, acceptor molecule, acceptor atom, score
      L1  H     7    28       P1  7948  0.98
      L1  H    10    29       P1  7948  0.84
      P1  H  7989  7998       L1    22  0.06
      P1  H  7997  8009       L1     2  0.75

> <Gold.Chemscore.Hbond.Weighted>
-9.1769

> <Gold.Chemscore.Metal.Weighted>
-0.0000

> <Gold.Chemscore.Lipo.Weighted>
-6.2359

> <Gold.Chemscore.Internal_Hbond.Weighted>
0.0000

> <Gold.Chemscore.DEClash.Weighted>
0.0567

> <Gold.Chemscore.DEInternal.Weighted>
2.7315

> <Gold.Chemscore.Rot.Weighted>
4.2279

> <Gold.Chemscore.Internal.Correction.Weighted>
   9.000000E+99

> <Gold.Protein.RotatedTorsions>
[ 6907 6896 6895 6894 ] final   70.37 input  -60.11 | X-H torsion
[ 7974 7965 7964 7962 ] final  100.95 input  175.53 | X-H torsion
[ 8008 7997 7996 7995 ] final -169.15 input   59.86 | X-H torsion
[ 10167 10162 10161 10158 ] final  134.29 input  -65.29 | X-H torsion
[ 10718 10713 10712 10709 ] final   90.41 input   66.30 | X-H torsion
[ 10763 10752 10751 10750 ] final   76.55 input  -60.55 | X-H torsion
[ 11005 11000 10999 10996 ] final   21.83 input  -57.11 | X-H torsion

> <Gold.Protein.ActiveResidues>
 VAL166  LYS551  ARG553  GLY616  TRP617  ASP618  TYR619  PRO620  LYS621  CYS622 
 ASP623  PHE694  ASN695  SER759  ASP760  ASP761  ALA762  ILE779  LEU786  VAL792 
 PHE793  MET794  SER795  GLU796  ALA797  LYS798  CYS799  TRP800  GLU811  SER814 

> <Gold.Protein.RotatedAtoms>
  152.4745  134.4878  159.9685 H   0  0  0  0  0  0  0  0  0  0  0  0  # atno 6907 bound_to 6896
  151.4897  133.3521  159.2859 H   0  0  0  0  0  0  0  0  0  0  0  0  # atno 6908 bound_to 6896
  150.8775  134.8187  159.7262 H   0  0  0  0  0  0  0  0  0  0  0  0  # atno 6909 bound_to 6896
  145.3788  139.2384  143.3415 H   0  0  0  0  0  0  0  0  0  0  0  0  # atno 7974 bound_to 7965
  155.9010  140.1041  157.1349 H   0  0  0  0  0  0  0  0  0  0  0  0  # atno 8008 bound_to 7997
  154.4026  140.1292  156.4501 H   0  0  0  0  0  0  0  0  0  0  0  0  # atno 8009 bound_to 7997
  155.7422  140.3466  155.5112 H   0  0  0  0  0  0  0  0  0  0  0  0  # atno 8010 bound_to 7997
  139.5262  144.6575  151.5118 H   0  0  0  0  0  0  0  0  0  0  0  0  # atno 10167 bound_to 10162
  157.6959  131.0369  150.3573 H   0  0  0  0  0  0  0  0  0  0  0  0  # atno 10718 bound_to 10713
  153.0733  135.4947  154.8352 H   0  0  0  0  0  0  0  0  0  0  0  0  # atno 10763 bound_to 10752
  154.7053  135.3009  154.9282 H   0  0  0  0  0  0  0  0  0  0  0  0  # atno 10764 bound_to 10752
  153.9993  135.6768  153.4811 H   0  0  0  0  0  0  0  0  0  0  0  0  # atno 10765 bound_to 10752
  140.3873  134.1857  155.7663 H   0  0  0  0  0  0  0  0  0  0  0  0  # atno 11005 bound_to 11000
  146.2852  140.4451  142.8761 LP  0  0  0  0  0  0  0  0  0  0  0  0  # atno 17320 bound_to 7965
  144.8523  140.7019  143.6160 LP  0  0  0  0  0  0  0  0  0  0  0  0  # atno 17321 bound_to 7965
  140.6407  143.8895  150.6689 LP  0  0  0  0  0  0  0  0  0  0  0  0  # atno 17342 bound_to 10162
  140.2228  143.3795  152.1629 LP  0  0  0  0  0  0  0  0  0  0  0  0  # atno 17343 bound_to 10162
  156.4014  130.3916  149.6957 LP  0  0  0  0  0  0  0  0  0  0  0  0  # atno 17370 bound_to 10713
  156.4273  130.7798  151.2817 LP  0  0  0  0  0  0  0  0  0  0  0  0  # atno 17371 bound_to 10713
  141.1903  133.8220  157.0924 LP  0  0  0  0  0  0  0  0  0  0  0  0  # atno 17394 bound_to 11000
  140.0433  134.9843  157.1002 LP  0  0  0  0  0  0  0  0  0  0  0  0  # atno 17395 bound_to 11000

$$$$
