AV-unprocessed.smi:3330|AV-procd|sdf|12814|dock6
  -GOLD-   2272019183D 1   1.00000     0.00000
 Structure written by MMmdl.
 37 38  0  0  0  0  0  0  0  0  2 V2000
  147.7979  133.3274  153.0246 C   0  0  0  0  0  0  0  0  0  0  0  0
  146.6262  134.3180  152.8936 C   0  0  1  0  0  0  0  0  0  0  0  0
  147.0836  135.5913  153.4386 N   0  0  0  0  0  0  0  0  0  0  0  0
  147.4362  135.4677  154.8441 C   0  0  0  0  0  0  0  0  0  0  0  0
  147.8853  136.8333  155.3833 C   0  0  0  0  0  0  0  0  0  0  0  0
  149.3013  137.0721  155.0922 N   0  0  0  0  0  0  0  0  0  0  0  0
  149.7865  138.2208  154.6116 C   0  0  0  0  0  0  0  0  0  0  0  0
  149.1653  139.2449  154.3263 O   0  0  0  0  0  0  0  0  0  0  0  0
  151.2830  138.0617  154.4777 C   0  0  0  0  0  0  0  0  0  0  0  0
  151.4947  136.7143  154.9568 N   0  5  0  0  0  0  0  0  0  0  0  0
  150.2964  136.1898  155.3049 C   0  0  0  0  0  0  0  0  0  0  0  0
  150.0910  135.0666  155.7638 O   0  0  0  0  0  0  0  0  0  0  0  0
  146.1454  134.5194  151.4314 C   0  0  2  0  0  0  0  0  0  0  0  0
  145.3543  135.8251  151.2298 C   0  0  0  0  0  0  0  0  0  0  0  0
  145.3464  133.3907  150.9709 N   0  0  0  0  0  0  0  0  0  0  0  0
  145.7325  132.0766  150.7964 C   0  0  0  0  0  0  0  0  0  0  0  0
  144.6427  131.3857  150.3500 C   0  0  0  0  0  0  0  0  0  0  0  0
  143.6225  132.3746  150.2798 C   0  0  0  0  0  0  0  0  0  0  0  0
  144.0455  133.5715  150.6525 N   0  0  0  0  0  0  0  0  0  0  0  0
  147.5109  132.3213  152.7193 H   0  0  0  0  0  0  0  0  0  0  0  0
  148.1414  133.2592  154.0575 H   0  0  0  0  0  0  0  0  0  0  0  0
  148.6465  133.6313  152.4104 H   0  0  0  0  0  0  0  0  0  0  0  0
  145.7988  133.9266  153.4883 H   0  0  0  0  0  0  0  0  0  0  0  0
  147.8925  135.9093  152.9242 H   0  0  0  0  0  0  0  0  0  0  0  0
  146.5801  135.1040  155.4133 H   0  0  0  0  0  0  0  0  0  0  0  0
  148.2379  134.7361  154.9549 H   0  0  0  0  0  0  0  0  0  0  0  0
  147.2769  137.6292  154.9502 H   0  0  0  0  0  0  0  0  0  0  0  0
  147.7153  136.8835  156.4604 H   0  0  0  0  0  0  0  0  0  0  0  0
  151.5791  138.2007  153.4375 H   0  0  0  0  0  0  0  0  0  0  0  0
  151.7920  138.8172  155.0773 H   0  0  0  0  0  0  0  0  0  0  0  0
  147.0290  134.5724  150.7920 H   0  0  0  0  0  0  0  0  0  0  0  0
  145.9724  136.7002  151.4307 H   0  0  0  0  0  0  0  0  0  0  0  0
  144.4863  135.8727  151.8880 H   0  0  0  0  0  0  0  0  0  0  0  0
  144.9987  135.9129  150.2027 H   0  0  0  0  0  0  0  0  0  0  0  0
  146.7403  131.7473  151.0018 H   0  0  0  0  0  0  0  0  0  0  0  0
  144.5838  130.3347  150.1096 H   0  0  0  0  0  0  0  0  0  0  0  0
  142.5937  132.2593  149.9720 H   0  0  0  0  0  0  0  0  0  0  0  0
  1  2  1  0  0  0  0
  1 20  1  0  0  0  0
  1 21  1  0  0  0  0
  1 22  1  0  0  0  0
  2  3  1  0  0  0  0
  2 13  1  0  0  0  0
  2 23  1  0  0  0  0
  3  4  1  0  0  0  0
  3 24  1  0  0  0  0
  4  5  1  0  0  0  0
  4 25  1  0  0  0  0
  4 26  1  0  0  0  0
  5  6  1  0  0  0  0
  5 27  1  0  0  0  0
  5 28  1  0  0  0  0
  6 11  1  0  0  0  0
  6  7  1  0  0  0  0
  7  8  2  0  0  0  0
  7  9  1  0  0  0  0
  9 10  1  0  0  0  0
  9 29  1  0  0  0  0
  9 30  1  0  0  0  0
 10 11  1  0  0  0  0
 11 12  2  0  0  0  0
 13 14  1  0  0  0  0
 13 15  1  0  0  0  0
 13 31  1  0  0  0  0
 14 32  1  0  0  0  0
 14 33  1  0  0  0  0
 14 34  1  0  0  0  0
 15 19  1  0  0  0  0
 15 16  1  0  0  0  0
 16 17  2  0  0  0  0
 16 35  1  0  0  0  0
 17 18  1  0  0  0  0
 17 36  1  0  0  0  0
 18 19  2  0  0  0  0
 18 37  1  0  0  0  0
M  CHG  1  10  -1
M  END
> <s_m_source_file>
AV-unprocessed.smi

> <i_m_source_file_index>
3330

> <i_lp_mmshare_version>
43012

> <i_f3d_flags>
0

> <s_epik_input>
bjFbY0hdW2NIXVtjSF1uMVtDQEBIXShbQ0gzXSlbQ0BIXShbQ0gzXSlbTkhdW0NIMl1bQ0gyXU4yQyg9TylbQ0gyXVtOSF1DMj1P

> <s_epik_cmdline>
J2VwaWtfcHl0aG9uJywgJy1waCcsICc3LjAnLCAnLXRuJywgJzgnLCAnLW1hJywgJzIwMCcsICctbWV0YWxfYmluZGluZycsICctaW1hZScsICc8aW5maWxlLm1hZT4nLCAnLW9tYWUnLCAnPG91dGZpbGUubWFlPic=

> <r_lp_tautomer_probability>
1

> <r_epik_Ionization_Penalty>
8.77477

> <r_epik_Ionization_Penalty_Charging>
6.28461

> <r_epik_Ionization_Penalty_Neutral>
2.49016

> <r_epik_State_Penalty>
8.73376

> <r_epik_Charging_Adjusted_Penalty>
15.0184

> <i_epik_Tot_Q>
-1

> <i_epik_Tot_abs_Q>
1

> <r_epik_Metal_State_Penalty>
4.73175

> <b_epik_Metal_Only>
1

> <s_lp_Force_Field>
OPLS_2005

> <r_lp_Energy>
21.213

> <b_lp_Chiralities_Consistent>
1

> <s_lp_Variant>
AV-unprocessed.smi:3330-14

> <Gold.Version>
5.8.1

> <Gold.Id.Protein>
6NUR|6NUR_protein|mol2

> <Gold.PLP.Fitness>
44.6002

> <Gold.PLP.PLP>
-29.9597

> <Gold.PLP.part.hbond>
-1.9855

> <Gold.PLP.part.metal>
0.0000

> <Gold.PLP.part.buried>
-4.5359

> <Gold.PLP.part.nonpolar>
-24.7774

> <Gold.PLP.part.repulsive>
0.5581

> <Gold.PLP.ligand.clash>
0.0000

> <Gold.PLP.ligand.torsion>
0.7199

> <Gold.PLP.Chemscore.Hbond>
3.0000

> <Gold.PLP.Chemscore.CHOScore>
2.3242

> <Gold.PLP.Chemscore.Metal>
0.0000

> <Gold.Chemscore.Hbonds>
donor molecule, donor type, donor heavy atom, donor atom, acceptor molecule, acceptor atom, score
      L1  H     3    24       P1  7948  0.99
      P1  H 10752 10765       L1    10  2.00
      L1  C    16    35       P1 10747  1.00
      L1  C    18    37       P1 10186  0.47
      L1  C    18    37       P1 10952  0.75

> <Gold.PLP.Chemscore.Internal.Correction>
0.1078

> <Gold.Rescore>
     Score         DG    S(hbond)    S(metal)    S(lipo)     H(rot)  DE(clash)    DE(int)     intcor
     12.52     -12.98       1.98        0.00      62.65       2.52       0.06       0.40       ----

> <Gold.Chemscore.Fitness>
12.5160

> <Gold.Chemscore.DG>
-12.9816

> <Gold.Chemscore.ZeroCoef>
-5.4800

> <Gold.Chemscore.Hbond>
1.9797

> <Gold.Chemscore.Metal>
0.0000

> <Gold.Chemscore.Lipo>
62.6538

> <Gold.Chemscore.Internal_Hbond>
0.0000

> <Gold.Chemscore.DEClash>
0.0634

> <Gold.Chemscore.DEInternal>
0.4023

> <Gold.Chemscore.Rot>
2.5160

> <Gold.Chemscore.Internal.Correction>
   9.000000E+99

> <Gold.Chemscore.Hbonds>
donor molecule, donor type, donor heavy atom, donor atom, acceptor molecule, acceptor atom, score
      L1  H     3    24       P1  7948  0.92
      P1  H 10752 10765       L1    10  0.98

> <Gold.Chemscore.Hbond.Weighted>
-6.6122

> <Gold.Chemscore.Metal.Weighted>
-0.0000

> <Gold.Chemscore.Lipo.Weighted>
-7.3305

> <Gold.Chemscore.Internal_Hbond.Weighted>
0.0000

> <Gold.Chemscore.DEClash.Weighted>
0.0634

> <Gold.Chemscore.DEInternal.Weighted>
0.4023

> <Gold.Chemscore.Rot.Weighted>
6.4410

> <Gold.Chemscore.Internal.Correction.Weighted>
   9.000000E+99

> <Gold.Protein.RotatedTorsions>
[ 6907 6896 6895 6894 ] final -168.21 input  -60.11 | X-H torsion
[ 7974 7965 7964 7962 ] final  115.01 input  175.53 | X-H torsion
[ 8008 7997 7996 7995 ] final   89.22 input   59.86 | X-H torsion
[ 10167 10162 10161 10158 ] final   23.00 input  -65.29 | X-H torsion
[ 10718 10713 10712 10709 ] final -104.92 input   66.30 | X-H torsion
[ 10763 10752 10751 10750 ] final  178.32 input  -60.55 | X-H torsion
[ 11005 11000 10999 10996 ] final  -33.94 input  -57.11 | X-H torsion

> <Gold.Protein.ActiveResidues>
 VAL166  LYS551  ARG553  GLY616  TRP617  ASP618  TYR619  PRO620  LYS621  CYS622 
 ASP623  PHE694  ASN695  SER759  ASP760  ASP761  ALA762  ILE779  LEU786  VAL792 
 PHE793  MET794  SER795  GLU796  ALA797  LYS798  CYS799  TRP800  GLU811  SER814 

> <Gold.Protein.RotatedAtoms>
  151.4719  133.3567  159.2824 H   0  0  0  0  0  0  0  0  0  0  0  0  # atno 6907 bound_to 6896
  150.8955  134.8365  159.7334 H   0  0  0  0  0  0  0  0  0  0  0  0  # atno 6908 bound_to 6896
  152.4849  134.4633  159.9664 H   0  0  0  0  0  0  0  0  0  0  0  0  # atno 6909 bound_to 6896
  145.1973  139.2970  143.4337 H   0  0  0  0  0  0  0  0  0  0  0  0  # atno 7974 bound_to 7965
  155.9973  140.3363  155.6811 H   0  0  0  0  0  0  0  0  0  0  0  0  # atno 8008 bound_to 7997
  155.6339  140.0688  157.2658 H   0  0  0  0  0  0  0  0  0  0  0  0  # atno 8009 bound_to 7997
  154.4238  140.1755  156.1488 H   0  0  0  0  0  0  0  0  0  0  0  0  # atno 8010 bound_to 7997
  140.5304  143.9851  150.6462 H   0  0  0  0  0  0  0  0  0  0  0  0  # atno 10167 bound_to 10162
  156.0324  130.5538  150.7465 H   0  0  0  0  0  0  0  0  0  0  0  0  # atno 10718 bound_to 10713
  154.5061  135.2786  155.1381 H   0  0  0  0  0  0  0  0  0  0  0  0  # atno 10763 bound_to 10752
  154.2994  135.6251  153.5422 H   0  0  0  0  0  0  0  0  0  0  0  0  # atno 10764 bound_to 10752
  152.9910  135.5693  154.5516 H   0  0  0  0  0  0  0  0  0  0  0  0  # atno 10765 bound_to 10752
  140.9676  133.7128  156.1471 H   0  0  0  0  0  0  0  0  0  0  0  0  # atno 11005 bound_to 11000
  146.3424  140.2206  142.8591 LP  0  0  0  0  0  0  0  0  0  0  0  0  # atno 17320 bound_to 7965
  144.9982  140.8608  143.5298 LP  0  0  0  0  0  0  0  0  0  0  0  0  # atno 17321 bound_to 7965
  140.3224  143.3128  152.0770 LP  0  0  0  0  0  0  0  0  0  0  0  0  # atno 17342 bound_to 10162
  139.4952  144.6564  151.6562 LP  0  0  0  0  0  0  0  0  0  0  0  0  # atno 17343 bound_to 10162
  157.5020  131.0919  151.0303 LP  0  0  0  0  0  0  0  0  0  0  0  0  # atno 17370 bound_to 10713
  157.0681  130.5853  149.5397 LP  0  0  0  0  0  0  0  0  0  0  0  0  # atno 17371 bound_to 10713
  140.7376  134.4185  157.5558 LP  0  0  0  0  0  0  0  0  0  0  0  0  # atno 17394 bound_to 11000
  139.8900  134.8815  156.2391 LP  0  0  0  0  0  0  0  0  0  0  0  0  # atno 17395 bound_to 11000

$$$$
