AV-unprocessed.smi:3279|AV-procd|sdf|12551|dock3
  -GOLD-   2272018473D 1   1.00000     0.00000
 Structure written by MMmdl.
 36 36  0  0  0  0  0  0  0  0  1 V2000
  148.3416  138.8013  155.1357 C   0  0  0  0  0  0  0  0  0  0  0  0
  149.1510  139.7101  154.1936 C   0  0  1  0  0  0  0  0  0  0  0  0
  149.0733  141.2072  154.5614 C   0  0  0  0  0  0  0  0  0  0  0  0
  149.7995  141.5148  155.7901 N   0  0  0  0  0  0  0  0  0  0  0  0
  149.2580  141.6242  157.0135 C   0  0  0  0  0  0  0  0  0  0  0  0
  148.0601  141.4641  157.2458 O   0  0  0  0  0  0  0  0  0  0  0  0
  150.2192  141.9644  158.1492 C   0  0  0  0  0  0  0  0  0  0  0  0
  150.7447  143.2682  157.9157 O   0  0  0  0  0  0  0  0  0  0  0  0
  151.5165  143.8827  158.9504 C   0  0  0  0  0  0  0  0  0  0  0  0
  152.6301  142.8659  159.2484 C   0  0  0  0  0  0  0  0  0  0  0  0
  150.6622  144.0950  160.2157 C   0  0  0  0  0  0  0  0  0  0  0  0
  152.1437  145.2073  158.4716 C   0  0  0  0  0  0  0  0  0  0  0  0
  150.5746  139.2530  154.1006 C   0  0  0  0  0  0  0  0  0  0  0  0
  151.6436  139.9068  154.5407 N   0  0  0  0  0  0  0  0  0  0  0  0
  152.6981  139.0673  154.2203 N   0  0  0  0  0  0  0  0  0  0  0  0
  152.2802  137.9829  153.6308 N   0  0  0  0  0  0  0  0  0  0  0  0
  150.9349  138.0909  153.5514 N   0  0  0  0  0  0  0  0  0  0  0  0
  150.3428  137.3853  153.1376 H   0  0  0  0  0  0  0  0  0  0  0  0
  148.4131  137.7579  154.8271 H   0  0  0  0  0  0  0  0  0  0  0  0
  147.2838  139.0637  155.1395 H   0  0  0  0  0  0  0  0  0  0  0  0
  148.7052  138.8702  156.1616 H   0  0  0  0  0  0  0  0  0  0  0  0
  148.7182  139.6006  153.1976 H   0  0  0  0  0  0  0  0  0  0  0  0
  149.4245  141.8225  153.7311 H   0  0  0  0  0  0  0  0  0  0  0  0
  148.0323  141.4879  154.7252 H   0  0  0  0  0  0  0  0  0  0  0  0
  150.7941  141.6670  155.7043 H   0  0  0  0  0  0  0  0  0  0  0  0
  149.6813  141.9183  159.0963 H   0  0  0  0  0  0  0  0  0  0  0  0
  151.0049  141.2098  158.1695 H   0  0  0  0  0  0  0  0  0  0  0  0
  153.2951  143.2225  160.0358 H   0  0  0  0  0  0  0  0  0  0  0  0
  153.2382  142.6763  158.3631 H   0  0  0  0  0  0  0  0  0  0  0  0
  152.2167  141.9103  159.5728 H   0  0  0  0  0  0  0  0  0  0  0  0
  150.1658  143.1717  160.5160 H   0  0  0  0  0  0  0  0  0  0  0  0
  149.8946  144.8547  160.0705 H   0  0  0  0  0  0  0  0  0  0  0  0
  151.2791  144.4240  161.0524 H   0  0  0  0  0  0  0  0  0  0  0  0
  152.8445  145.5968  159.2108 H   0  0  0  0  0  0  0  0  0  0  0  0
  151.3936  145.9811  158.3087 H   0  0  0  0  0  0  0  0  0  0  0  0
  152.6917  145.0711  157.5387 H   0  0  0  0  0  0  0  0  0  0  0  0
  1  2  1  0  0  0  0
  1 19  1  0  0  0  0
  1 20  1  0  0  0  0
  1 21  1  0  0  0  0
  2  3  1  0  0  0  0
  2 13  1  0  0  0  0
  2 22  1  0  0  0  0
  3  4  1  0  0  0  0
  3 23  1  0  0  0  0
  3 24  1  0  0  0  0
  4  5  1  0  0  0  0
  4 25  1  0  0  0  0
  5  6  2  0  0  0  0
  5  7  1  0  0  0  0
  7  8  1  0  0  0  0
  7 26  1  0  0  0  0
  7 27  1  0  0  0  0
  8  9  1  0  0  0  0
  9 10  1  0  0  0  0
  9 11  1  0  0  0  0
  9 12  1  0  0  0  0
 10 28  1  0  0  0  0
 10 29  1  0  0  0  0
 10 30  1  0  0  0  0
 11 31  1  0  0  0  0
 11 32  1  0  0  0  0
 11 33  1  0  0  0  0
 12 34  1  0  0  0  0
 12 35  1  0  0  0  0
 12 36  1  0  0  0  0
 13 17  1  0  0  0  0
 13 14  2  0  0  0  0
 14 15  1  0  0  0  0
 15 16  2  0  0  0  0
 16 17  1  0  0  0  0
 17 18  1  0  0  0  0
M  END
> <s_m_source_file>
AV-unprocessed.smi

> <i_m_source_file_index>
3279

> <i_lp_mmshare_version>
43012

> <i_f3d_flags>
0

> <s_epik_input>
W25IXTFubm5jMVtDQEhdKFtDSDNdKVtDSDJdW05IXUMoPU8pW0NIMl1PQyhbQ0gzXSkoW0NIM10pW0NIM10=

> <s_epik_cmdline>
J2VwaWtfcHl0aG9uJywgJy1waCcsICc3LjAnLCAnLXRuJywgJzgnLCAnLW1hJywgJzIwMCcsICctbWV0YWxfYmluZGluZycsICctaW1hZScsICc8aW5maWxlLm1hZT4nLCAnLW9tYWUnLCAnPG91dGZpbGUubWFlPic=

> <r_lp_tautomer_probability>
0.3

> <r_epik_Ionization_Penalty>
1.45055

> <r_epik_Ionization_Penalty_Charging>
0

> <r_epik_Ionization_Penalty_Neutral>
1.45055

> <r_epik_State_Penalty>
2.31845

> <r_epik_Charging_Adjusted_Penalty>
2.31845

> <i_epik_Tot_Q>
0

> <i_epik_Tot_abs_Q>
0

> <r_epik_Metal_State_Penalty>
2.36898

> <b_epik_Metal_Only>
0

> <s_lp_Force_Field>
OPLS_2005

> <r_lp_Energy>
7.01933

> <b_lp_Chiralities_Consistent>
1

> <s_lp_Variant>
AV-unprocessed.smi:3279-4

> <Gold.Version>
5.8.1

> <Gold.Id.Protein>
6NUR|6NUR_protein|mol2

> <Gold.PLP.Fitness>
39.6753

> <Gold.PLP.PLP>
-31.8403

> <Gold.PLP.part.hbond>
-4.0000

> <Gold.PLP.part.metal>
0.0000

> <Gold.PLP.part.buried>
-6.3004

> <Gold.PLP.part.nonpolar>
-23.3872

> <Gold.PLP.part.repulsive>
1.7535

> <Gold.PLP.ligand.clash>
0.0000

> <Gold.PLP.ligand.torsion>
0.4603

> <Gold.PLP.Chemscore.Hbond>
2.8680

> <Gold.PLP.Chemscore.CHOScore>
0.0000

> <Gold.PLP.Chemscore.Metal>
0.0000

> <Gold.Chemscore.Hbonds>
donor molecule, donor type, donor heavy atom, donor atom, acceptor molecule, acceptor atom, score
      L1  H    17    18       P1  7948  0.41
      P1  H  7989  7998       L1    14  0.56
      P1  H 10752 10764       L1    16  0.01

> <Gold.PLP.Chemscore.Internal.Correction>
0.1516

> <Gold.Rescore>
     Score         DG    S(hbond)    S(metal)    S(lipo)     H(rot)  DE(clash)    DE(int)     intcor
      8.55     -11.23       1.28        0.00      71.90       2.71       0.33       2.36       ----

> <Gold.Chemscore.Fitness>
8.5475

> <Gold.Chemscore.DG>
-11.2323

> <Gold.Chemscore.ZeroCoef>
-5.4800

> <Gold.Chemscore.Hbond>
1.2804

> <Gold.Chemscore.Metal>
0.0000

> <Gold.Chemscore.Lipo>
71.8961

> <Gold.Chemscore.Internal_Hbond>
0.0000

> <Gold.Chemscore.DEClash>
0.3284

> <Gold.Chemscore.DEInternal>
2.3564

> <Gold.Chemscore.Rot>
2.7094

> <Gold.Chemscore.Internal.Correction>
   9.000000E+99

> <Gold.Chemscore.Hbonds>
donor molecule, donor type, donor heavy atom, donor atom, acceptor molecule, acceptor atom, score
      L1  H    17    18       P1  7948  0.03
      P1  H  7989  7998       L1    14  0.03
      P1  H 10752 10764       L1    16  0.05

> <Gold.Chemscore.Hbond.Weighted>
-4.2764

> <Gold.Chemscore.Metal.Weighted>
-0.0000

> <Gold.Chemscore.Lipo.Weighted>
-8.4118

> <Gold.Chemscore.Internal_Hbond.Weighted>
0.0000

> <Gold.Chemscore.DEClash.Weighted>
0.3284

> <Gold.Chemscore.DEInternal.Weighted>
2.3564

> <Gold.Chemscore.Rot.Weighted>
6.9360

> <Gold.Chemscore.Internal.Correction.Weighted>
   9.000000E+99

> <Gold.Protein.RotatedTorsions>
[ 6907 6896 6895 6894 ] final  126.19 input  -60.11 | X-H torsion
[ 7974 7965 7964 7962 ] final  -99.50 input  175.53 | X-H torsion
[ 8008 7997 7996 7995 ] final   85.32 input   59.86 | X-H torsion
[ 10167 10162 10161 10158 ] final    5.00 input  -65.29 | X-H torsion
[ 10718 10713 10712 10709 ] final  -86.91 input   66.30 | X-H torsion
[ 10763 10752 10751 10750 ] final  -91.16 input  -60.55 | X-H torsion
[ 11005 11000 10999 10996 ] final  101.42 input  -57.11 | X-H torsion

> <Gold.Protein.ActiveResidues>
 VAL166  LYS551  ARG553  GLY616  TRP617  ASP618  TYR619  PRO620  LYS621  CYS622 
 ASP623  PHE694  ASN695  SER759  ASP760  ASP761  ALA762  ILE779  LEU786  VAL792 
 PHE793  MET794  SER795  GLU796  ALA797  LYS798  CYS799  TRP800  GLU811  SER814 

> <Gold.Protein.RotatedAtoms>
  152.3926  133.6700  159.6249 H   0  0  0  0  0  0  0  0  0  0  0  0  # atno 6907 bound_to 6896
  150.7831  133.8929  159.3327 H   0  0  0  0  0  0  0  0  0  0  0  0  # atno 6908 bound_to 6896
  151.6712  135.0977  160.0249 H   0  0  0  0  0  0  0  0  0  0  0  0  # atno 6909 bound_to 6896
  145.3068  140.9391  143.2792 H   0  0  0  0  0  0  0  0  0  0  0  0  # atno 7974 bound_to 7965
  155.9485  140.3402  155.6387 H   0  0  0  0  0  0  0  0  0  0  0  0  # atno 8008 bound_to 7997
  155.6950  140.0753  157.2451 H   0  0  0  0  0  0  0  0  0  0  0  0  # atno 8009 bound_to 7997
  154.4117  140.1650  156.2116 H   0  0  0  0  0  0  0  0  0  0  0  0  # atno 8010 bound_to 7997
  140.6505  143.7556  150.7568 H   0  0  0  0  0  0  0  0  0  0  0  0  # atno 10167 bound_to 10162
  155.9987  130.4781  150.4787 H   0  0  0  0  0  0  0  0  0  0  0  0  # atno 10718 bound_to 10713
  154.6732  135.5278  153.8165 H   0  0  0  0  0  0  0  0  0  0  0  0  # atno 10763 bound_to 10752
  153.0515  135.6534  154.0692 H   0  0  0  0  0  0  0  0  0  0  0  0  # atno 10764 bound_to 10752
  154.0588  135.2963  155.3308 H   0  0  0  0  0  0  0  0  0  0  0  0  # atno 10765 bound_to 10752
  139.8773  134.9182  156.4905 H   0  0  0  0  0  0  0  0  0  0  0  0  # atno 11005 bound_to 11000
  144.9048  139.4603  143.6615 LP  0  0  0  0  0  0  0  0  0  0  0  0  # atno 17320 bound_to 7965
  146.3132  139.7823  142.9003 LP  0  0  0  0  0  0  0  0  0  0  0  0  # atno 17321 bound_to 7965
  140.1205  143.4616  152.2316 LP  0  0  0  0  0  0  0  0  0  0  0  0  # atno 17342 bound_to 10162
  139.5720  144.7468  151.3865 LP  0  0  0  0  0  0  0  0  0  0  0  0  # atno 17343 bound_to 10162
  157.2795  131.0604  151.2207 LP  0  0  0  0  0  0  0  0  0  0  0  0  # atno 17370 bound_to 10713
  157.3259  130.6960  149.6296 LP  0  0  0  0  0  0  0  0  0  0  0  0  # atno 17371 bound_to 10713
  140.8662  133.8022  155.9316 LP  0  0  0  0  0  0  0  0  0  0  0  0  # atno 17394 bound_to 11000
  140.8999  134.2391  157.5047 LP  0  0  0  0  0  0  0  0  0  0  0  0  # atno 17395 bound_to 11000

$$$$
