AV-unprocessed.smi:1703|AV-procd|sdf|6861|dock1
  -GOLD-   22720 8 53D 1   1.00000     0.00000
 Structure written by MMmdl.
 49 51  0  0  0  0  0  0  0  0  2 V2000
  152.9724  143.5339  162.7783 C   0  0  0  0  0  0  0  0  0  0  0  0
  152.2500  143.2503  161.4568 C   0  0  2  0  0  0  0  0  0  0  0  0
  152.9545  142.1547  160.6361 C   0  0  0  0  0  0  0  0  0  0  0  0
  152.2738  141.9737  159.3319 N   0  3  2  0  0  0  0  0  0  0  0  0
  152.8192  140.8551  158.5212 C   0  0  0  0  0  0  0  0  0  0  0  0
  151.7393  140.1825  157.6513 C   0  0  1  0  0  0  0  0  0  0  0  0
  150.5460  140.0844  158.4057 O   0  0  0  0  0  0  0  0  0  0  0  0
  151.4684  140.9758  156.3571 C   0  0  0  0  0  0  0  0  0  0  0  0
  150.6968  140.2162  155.3816 N   0  0  0  0  0  0  0  0  0  0  0  0
  151.0304  139.0494  154.7740 C   0  0  0  0  0  0  0  0  0  0  0  0
  152.3294  138.3519  155.0381 C   0  0  0  0  0  0  0  0  0  0  0  0
  153.4501  139.1465  154.7145 O   0  0  0  0  0  0  0  0  0  0  0  0
  150.1306  138.5616  153.9196 N   0  0  0  0  0  0  0  0  0  0  0  0
  149.1202  139.5017  153.9721 C   0  0  0  0  0  0  0  0  0  0  0  0
  147.8824  139.5580  153.2924 C   0  0  0  0  0  0  0  0  0  0  0  0
  146.9967  140.6333  153.5103 C   0  0  0  0  0  0  0  0  0  0  0  0
  147.3356  141.6666  154.4076 C   0  0  0  0  0  0  0  0  0  0  0  0
  148.5641  141.6302  155.0948 C   0  0  0  0  0  0  0  0  0  0  0  0
  149.4443  140.5532  154.8757 C   0  0  0  0  0  0  0  0  0  0  0  0
  152.2371  143.2556  158.5899 C   0  0  0  0  0  0  0  0  0  0  0  0
  151.5770  144.3637  159.4339 C   0  0  1  0  0  0  0  0  0  0  0  0
  150.0507  144.2112  159.5618 C   0  0  0  0  0  0  0  0  0  0  0  0
  152.2192  144.4614  160.7053 O   0  0  0  0  0  0  0  0  0  0  0  0
  153.0178  142.6399  163.4009 H   0  0  0  0  0  0  0  0  0  0  0  0
  152.4548  144.3076  163.3462 H   0  0  0  0  0  0  0  0  0  0  0  0
  153.9936  143.8747  162.6058 H   0  0  0  0  0  0  0  0  0  0  0  0
  151.2330  142.9357  161.6906 H   0  0  0  0  0  0  0  0  0  0  0  0
  153.9997  142.4197  160.4691 H   0  0  0  0  0  0  0  0  0  0  0  0
  152.9497  141.2228  161.2004 H   0  0  0  0  0  0  0  0  0  0  0  0
  153.6096  141.2257  157.8662 H   0  0  0  0  0  0  0  0  0  0  0  0
  153.2904  140.1261  159.1823 H   0  0  0  0  0  0  0  0  0  0  0  0
  152.0487  139.1729  157.3844 H   0  0  0  0  0  0  0  0  0  0  0  0
  150.5445  139.2582  158.8651 H   0  0  0  0  0  0  0  0  0  0  0  0
  150.9290  141.8967  156.5830 H   0  0  0  0  0  0  0  0  0  0  0  0
  152.4078  141.2860  155.8995 H   0  0  0  0  0  0  0  0  0  0  0  0
  152.3854  138.0549  156.0849 H   0  0  0  0  0  0  0  0  0  0  0  0
  152.3720  137.4347  154.4495 H   0  0  0  0  0  0  0  0  0  0  0  0
  153.3758  139.4179  153.8124 H   0  0  0  0  0  0  0  0  0  0  0  0
  147.6137  138.7716  152.6028 H   0  0  0  0  0  0  0  0  0  0  0  0
  146.0528  140.6655  152.9858 H   0  0  0  0  0  0  0  0  0  0  0  0
  146.6511  142.4866  154.5686 H   0  0  0  0  0  0  0  0  0  0  0  0
  148.8242  142.4201  155.7830 H   0  0  0  0  0  0  0  0  0  0  0  0
  153.2568  143.5459  158.3316 H   0  0  0  0  0  0  0  0  0  0  0  0
  151.6957  143.1336  157.6507 H   0  0  0  0  0  0  0  0  0  0  0  0
  151.7564  145.3148  158.9315 H   0  0  0  0  0  0  0  0  0  0  0  0
  149.5734  144.2718  158.5836 H   0  0  0  0  0  0  0  0  0  0  0  0
  149.6314  145.0045  160.1813 H   0  0  0  0  0  0  0  0  0  0  0  0
  149.7637  143.2564  160.0016 H   0  0  0  0  0  0  0  0  0  0  0  0
  151.3121  141.7344  159.5294 H   0  0  0  0  0  0  0  0  0  0  0  0
  1  2  1  0  0  0  0
  1 24  1  0  0  0  0
  1 25  1  0  0  0  0
  1 26  1  0  0  0  0
  2 23  1  0  0  0  0
  2  3  1  0  0  0  0
  2 27  1  0  0  0  0
  3  4  1  0  0  0  0
  3 28  1  0  0  0  0
  3 29  1  0  0  0  0
  4  5  1  0  0  0  0
  4 20  1  0  0  0  0
  4 49  1  0  0  0  0
  5  6  1  0  0  0  0
  5 30  1  0  0  0  0
  5 31  1  0  0  0  0
  6  7  1  0  0  0  0
  6  8  1  0  0  0  0
  6 32  1  0  0  0  0
  7 33  1  0  0  0  0
  8  9  1  0  0  0  0
  8 34  1  0  0  0  0
  8 35  1  0  0  0  0
  9 19  1  0  0  0  0
  9 10  1  0  0  0  0
 10 11  1  0  0  0  0
 10 13  2  0  0  0  0
 11 12  1  0  0  0  0
 11 36  1  0  0  0  0
 11 37  1  0  0  0  0
 12 38  1  0  0  0  0
 13 14  1  0  0  0  0
 14 19  2  0  0  0  0
 14 15  1  0  0  0  0
 15 16  2  0  0  0  0
 15 39  1  0  0  0  0
 16 17  1  0  0  0  0
 16 40  1  0  0  0  0
 17 18  2  0  0  0  0
 17 41  1  0  0  0  0
 18 19  1  0  0  0  0
 18 42  1  0  0  0  0
 20 21  1  0  0  0  0
 20 43  1  0  0  0  0
 20 44  1  0  0  0  0
 21 22  1  0  0  0  0
 21 23  1  0  0  0  0
 21 45  1  0  0  0  0
 22 46  1  0  0  0  0
 22 47  1  0  0  0  0
 22 48  1  0  0  0  0
M  CHG  1   4   1
M  END
> <s_m_source_file>
AV-unprocessed.smi

> <i_m_source_file_index>
1703

> <i_lp_mmshare_version>
43012

> <i_f3d_flags>
0

> <s_epik_input>
W0NIM11bQ0BASF0xW0NIMl1OKFtDSDJdW0NASF0oTzEpW0NIM10pW0NIMl1bQ0BIXShbT0hdKVtDSDJdbihjKG4yKVtDSDJdW09IXSljKGMyMylbY0hdW2NIXVtjSF1bY0hdMw==

> <s_epik_cmdline>
J2VwaWtfcHl0aG9uJywgJy1waCcsICc3LjAnLCAnLXRuJywgJzgnLCAnLW1hJywgJzIwMCcsICctbWV0YWxfYmluZGluZycsICctaW1hZScsICc8aW5maWxlLm1hZT4nLCAnLW9tYWUnLCAnPG91dGZpbGUubWFlPic=

> <r_epik_Ionization_Penalty>
0.655661

> <r_epik_Ionization_Penalty_Charging>
0.608065

> <r_epik_Ionization_Penalty_Neutral>
0.0475963

> <r_epik_State_Penalty>
0.695267

> <r_epik_Charging_Adjusted_Penalty>
1.30333

> <i_epik_Tot_Q>
1

> <i_epik_Tot_abs_Q>
1

> <r_epik_Metal_State_Penalty>
0.653591

> <b_epik_Metal_Only>
0

> <s_lp_Force_Field>
OPLS_2005

> <r_lp_Energy>
24.4185

> <b_lp_Chiralities_Consistent>
1

> <s_lp_Variant>
AV-unprocessed.smi:1703-9

> <Gold.Version>
5.8.1

> <Gold.Id.Protein>
6NUR|6NUR_protein|mol2

> <Gold.PLP.Fitness>
50.5997

> <Gold.PLP.PLP>
-48.7828

> <Gold.PLP.part.hbond>
-1.0000

> <Gold.PLP.part.metal>
0.0000

> <Gold.PLP.part.buried>
0.0355

> <Gold.PLP.part.nonpolar>
-48.3737

> <Gold.PLP.part.repulsive>
0.4699

> <Gold.PLP.ligand.clash>
0.0000

> <Gold.PLP.ligand.torsion>
0.6301

> <Gold.PLP.Chemscore.Hbond>
1.0000

> <Gold.PLP.Chemscore.CHOScore>
0.0000

> <Gold.PLP.Chemscore.Metal>
0.0000

> <Gold.Chemscore.Hbonds>
donor molecule, donor type, donor heavy atom, donor atom, acceptor molecule, acceptor atom, score
      P1  H  7997  8010       L1    12  1.00

> <Gold.PLP.Chemscore.Internal.Correction>
0.0771

> <Gold.Rescore>
     Score         DG    S(hbond)    S(metal)    S(lipo)     H(rot)  DE(clash)    DE(int)     intcor
     15.04     -16.58       0.90        0.00     133.98       2.96       0.80       0.75       ----

> <Gold.Chemscore.Fitness>
15.0378

> <Gold.Chemscore.DG>
-16.5840

> <Gold.Chemscore.ZeroCoef>
-5.4800

> <Gold.Chemscore.Hbond>
0.9008

> <Gold.Chemscore.Metal>
0.0000

> <Gold.Chemscore.Lipo>
133.9793

> <Gold.Chemscore.Internal_Hbond>
0.0000

> <Gold.Chemscore.DEClash>
0.7989

> <Gold.Chemscore.DEInternal>
0.7473

> <Gold.Chemscore.Rot>
2.9611

> <Gold.Chemscore.Internal.Correction>
   9.000000E+99

> <Gold.Chemscore.Hbonds>
donor molecule, donor type, donor heavy atom, donor atom, acceptor molecule, acceptor atom, score
      P1  H  7997  8010       L1    12  0.93

> <Gold.Chemscore.Hbond.Weighted>
-3.0088

> <Gold.Chemscore.Metal.Weighted>
-0.0000

> <Gold.Chemscore.Lipo.Weighted>
-15.6756

> <Gold.Chemscore.Internal_Hbond.Weighted>
0.0000

> <Gold.Chemscore.DEClash.Weighted>
0.7989

> <Gold.Chemscore.DEInternal.Weighted>
0.7473

> <Gold.Chemscore.Rot.Weighted>
7.5803

> <Gold.Chemscore.Internal.Correction.Weighted>
   9.000000E+99

> <Gold.Protein.RotatedTorsions>
[ 6907 6896 6895 6894 ] final  -95.11 input  -60.11 | X-H torsion
[ 7974 7965 7964 7962 ] final  -34.40 input  175.53 | X-H torsion
[ 8008 7997 7996 7995 ] final   96.16 input   59.86 | X-H torsion
[ 10167 10162 10161 10158 ] final  -77.48 input  -65.29 | X-H torsion
[ 10718 10713 10712 10709 ] final  -95.79 input   66.30 | X-H torsion
[ 10763 10752 10751 10750 ] final  -19.77 input  -60.55 | X-H torsion
[ 11005 11000 10999 10996 ] final  134.41 input  -57.11 | X-H torsion

> <Gold.Protein.ActiveResidues>
 VAL166  LYS551  ARG553  GLY616  TRP617  ASP618  TYR619  PRO620  LYS621  CYS622 
 ASP623  PHE694  ASN695  SER759  ASP760  ASP761  ALA762  ILE779  LEU786  VAL792 
 PHE793  MET794  SER795  GLU796  ALA797  LYS798  CYS799  TRP800  GLU811  SER814 

> <Gold.Protein.RotatedAtoms>
  150.6956  134.1708  159.4211 H   0  0  0  0  0  0  0  0  0  0  0  0  # atno 6907 bound_to 6896
  151.9686  135.0086  160.0561 H   0  0  0  0  0  0  0  0  0  0  0  0  # atno 6908 bound_to 6896
  152.1862  133.4706  159.5021 H   0  0  0  0  0  0  0  0  0  0  0  0  # atno 6909 bound_to 6896
  146.0832  140.6034  142.8898 H   0  0  0  0  0  0  0  0  0  0  0  0  # atno 7974 bound_to 7965
  156.0767  140.3276  155.7642 H   0  0  0  0  0  0  0  0  0  0  0  0  # atno 8008 bound_to 7997
  155.5219  140.0586  157.2922 H   0  0  0  0  0  0  0  0  0  0  0  0  # atno 8009 bound_to 7997
  154.4559  140.1942  156.0398 H   0  0  0  0  0  0  0  0  0  0  0  0  # atno 8010 bound_to 7997
  140.4767  143.2412  151.8122 H   0  0  0  0  0  0  0  0  0  0  0  0  # atno 10167 bound_to 10162
  156.0050  130.5124  150.6129 H   0  0  0  0  0  0  0  0  0  0  0  0  # atno 10718 bound_to 10713
  153.6100  135.6996  153.5350 H   0  0  0  0  0  0  0  0  0  0  0  0  # atno 10763 bound_to 10752
  153.3024  135.4125  155.1264 H   0  0  0  0  0  0  0  0  0  0  0  0  # atno 10764 bound_to 10752
  154.8565  135.3652  154.5638 H   0  0  0  0  0  0  0  0  0  0  0  0  # atno 10765 bound_to 10752
  139.9913  134.9514  156.9863 H   0  0  0  0  0  0  0  0  0  0  0  0  # atno 11005 bound_to 11000
  144.7308  140.4664  143.6939 LP  0  0  0  0  0  0  0  0  0  0  0  0  # atno 17320 bound_to 7965
  145.6179  139.1520  143.3039 LP  0  0  0  0  0  0  0  0  0  0  0  0  # atno 17321 bound_to 7965
  139.4826  144.4824  151.9289 LP  0  0  0  0  0  0  0  0  0  0  0  0  # atno 17342 bound_to 10162
  140.3910  144.2616  150.5900 LP  0  0  0  0  0  0  0  0  0  0  0  0  # atno 17343 bound_to 10162
  157.3958  131.0802  151.1353 LP  0  0  0  0  0  0  0  0  0  0  0  0  # atno 17370 bound_to 10713
  157.2030  130.6403  149.5745 LP  0  0  0  0  0  0  0  0  0  0  0  0  # atno 17371 bound_to 10713
  140.4902  134.1200  155.7231 LP  0  0  0  0  0  0  0  0  0  0  0  0  # atno 17394 bound_to 11000
  141.1568  133.8867  157.1955 LP  0  0  0  0  0  0  0  0  0  0  0  0  # atno 17395 bound_to 11000

$$$$
