AV-unprocessed.smi:2079|AV-procd|sdf|8479|dock9
  -GOLD-   2272011183D 1   1.00000     0.00000
 Structure written by MMmdl.
 41 42  0  0  0  0  0  0  0  0  3 V2000
  151.3744  141.1517  157.8921 C   0  0  0  0  0  0  0  0  0  0  0  0
  150.7210  141.0159  156.5595 C   0  0  0  0  0  0  0  0  0  0  0  0
  149.5992  141.5733  156.0150 C   0  0  0  0  0  0  0  0  0  0  0  0
  149.5607  141.0155  154.7079 C   0  0  0  0  0  0  0  0  0  0  0  0
  148.6232  141.2524  153.7774 N   0  5  0  0  0  0  0  0  0  0  0  0
  147.5262  140.4648  153.7010 C   0  0  0  0  0  0  0  0  0  0  0  0
  146.6155  140.3926  154.5295 O   0  0  0  0  0  0  0  0  0  0  0  0
  147.4803  139.7112  152.5948 N   0  0  0  0  0  0  0  0  0  0  0  0
  146.4091  138.7830  152.2607 C   0  0  0  0  0  0  0  0  0  0  0  0
  146.3128  137.6700  153.3180 C   0  0  0  0  0  0  0  0  0  0  0  0
  146.3227  136.3083  152.7110 N   0  3  2  0  0  0  0  0  0  0  0  0
  145.3028  136.1938  151.6284 C   0  0  0  0  0  0  0  0  0  0  0  0
  145.3952  134.8531  150.8880 C   0  0  0  0  0  0  0  0  0  0  0  0
  145.2312  133.6919  151.8681 C   0  0  0  0  0  0  0  0  0  0  0  0
  146.2780  133.8159  152.9779 C   0  0  0  0  0  0  0  0  0  0  0  0
  146.2119  135.1829  153.6974 C   0  0  1  0  0  0  0  0  0  0  0  0
  147.3106  135.2105  154.7817 C   0  0  0  0  0  0  0  0  0  0  0  0
  150.5609  140.1793  154.4853 N   0  0  0  0  0  0  0  0  0  0  0  0
  151.3138  140.1791  155.6657 O   0  0  0  0  0  0  0  0  0  0  0  0
  150.8768  140.5230  158.6305 H   0  0  0  0  0  0  0  0  0  0  0  0
  151.3297  142.1835  158.2405 H   0  0  0  0  0  0  0  0  0  0  0  0
  152.4228  140.8565  157.8468 H   0  0  0  0  0  0  0  0  0  0  0  0
  148.9166  142.2716  156.4760 H   0  0  0  0  0  0  0  0  0  0  0  0
  148.2438  139.7972  151.9396 H   0  0  0  0  0  0  0  0  0  0  0  0
  145.4800  139.3473  152.1867 H   0  0  0  0  0  0  0  0  0  0  0  0
  146.6044  138.3490  151.2786 H   0  0  0  0  0  0  0  0  0  0  0  0
  147.1575  137.8123  153.9867 H   0  0  0  0  0  0  0  0  0  0  0  0
  145.4191  137.7945  153.9316 H   0  0  0  0  0  0  0  0  0  0  0  0
  144.3059  136.3127  152.0558 H   0  0  0  0  0  0  0  0  0  0  0  0
  145.4231  136.9915  150.8974 H   0  0  0  0  0  0  0  0  0  0  0  0
  144.6268  134.7996  150.1160 H   0  0  0  0  0  0  0  0  0  0  0  0
  146.3561  134.7776  150.3770 H   0  0  0  0  0  0  0  0  0  0  0  0
  144.2284  133.7029  152.2969 H   0  0  0  0  0  0  0  0  0  0  0  0
  145.3416  132.7395  151.3486 H   0  0  0  0  0  0  0  0  0  0  0  0
  146.1343  133.0070  153.6955 H   0  0  0  0  0  0  0  0  0  0  0  0
  147.2724  133.6730  152.5517 H   0  0  0  0  0  0  0  0  0  0  0  0
  145.2425  135.2625  154.1924 H   0  0  0  0  0  0  0  0  0  0  0  0
  147.3134  134.2834  155.3558 H   0  0  0  0  0  0  0  0  0  0  0  0
  147.1636  136.0074  155.5093 H   0  0  0  0  0  0  0  0  0  0  0  0
  148.3023  135.3248  154.3424 H   0  0  0  0  0  0  0  0  0  0  0  0
  147.2271  136.2034  152.2737 H   0  0  0  0  0  0  0  0  0  0  0  0
  1  2  1  0  0  0  0
  1 20  1  0  0  0  0
  1 21  1  0  0  0  0
  1 22  1  0  0  0  0
  2 19  1  0  0  0  0
  2  3  2  0  0  0  0
  3  4  1  0  0  0  0
  3 23  1  0  0  0  0
  4  5  1  0  0  0  0
  4 18  2  0  0  0  0
  5  6  1  0  0  0  0
  6  7  2  0  0  0  0
  6  8  1  0  0  0  0
  8  9  1  0  0  0  0
  8 24  1  0  0  0  0
  9 10  1  0  0  0  0
  9 25  1  0  0  0  0
  9 26  1  0  0  0  0
 10 11  1  0  0  0  0
 10 27  1  0  0  0  0
 10 28  1  0  0  0  0
 11 16  1  0  0  0  0
 11 12  1  0  0  0  0
 11 41  1  0  0  0  0
 12 13  1  0  0  0  0
 12 29  1  0  0  0  0
 12 30  1  0  0  0  0
 13 14  1  0  0  0  0
 13 31  1  0  0  0  0
 13 32  1  0  0  0  0
 14 15  1  0  0  0  0
 14 33  1  0  0  0  0
 14 34  1  0  0  0  0
 15 16  1  0  0  0  0
 15 35  1  0  0  0  0
 15 36  1  0  0  0  0
 16 17  1  0  0  0  0
 16 37  1  0  0  0  0
 17 38  1  0  0  0  0
 17 39  1  0  0  0  0
 17 40  1  0  0  0  0
 18 19  1  0  0  0  0
M  CHG  1   5  -1
M  CHG  1  11   1
M  END
> <s_m_source_file>
AV-unprocessed.smi

> <i_m_source_file_index>
2079

> <i_lp_mmshare_version>
43012

> <i_f3d_flags>
0

> <s_epik_input>
W0NIM11jMVtjSF1jKG5vMSlbTkhdQyg9TylbTkhdW0NIMl1bQ0gyXU4yW0NIMl1bQ0gyXVtDSDJdW0NIMl1bQ0BIXTJbQ0gzXQ==

> <s_epik_cmdline>
J2VwaWtfcHl0aG9uJywgJy1waCcsICc3LjAnLCAnLXRuJywgJzgnLCAnLW1hJywgJzIwMCcsICctbWV0YWxfYmluZGluZycsICctaW1hZScsICc8aW5maWxlLm1hZT4nLCAnLW9tYWUnLCAnPG91dGZpbGUubWFlPic=

> <r_epik_Ionization_Penalty>
6.22371

> <r_epik_Ionization_Penalty_Charging>
6.22362

> <r_epik_Ionization_Penalty_Neutral>
9.40454e-05

> <r_epik_State_Penalty>
6.22363

> <r_epik_Charging_Adjusted_Penalty>
12.4472

> <i_epik_Tot_Q>
0

> <i_epik_Tot_abs_Q>
2

> <r_epik_Metal_State_Penalty>
2.16675

> <b_epik_Metal_Only>
1

> <s_lp_Force_Field>
OPLS_2005

> <r_lp_Energy>
9.22117

> <b_lp_Chiralities_Consistent>
1

> <s_lp_Variant>
AV-unprocessed.smi:2079-5

> <Gold.Version>
5.8.1

> <Gold.Id.Protein>
6NUR|6NUR_protein|mol2

> <Gold.PLP.Fitness>
40.1700

> <Gold.PLP.PLP>
-30.2911

> <Gold.PLP.part.hbond>
-4.4842

> <Gold.PLP.part.metal>
0.0000

> <Gold.PLP.part.buried>
-4.0781

> <Gold.PLP.part.nonpolar>
-23.6262

> <Gold.PLP.part.repulsive>
1.0930

> <Gold.PLP.ligand.clash>
0.0000

> <Gold.PLP.ligand.torsion>
1.7730

> <Gold.PLP.Chemscore.Hbond>
4.4617

> <Gold.PLP.Chemscore.CHOScore>
0.0000

> <Gold.PLP.Chemscore.Metal>
0.0000

> <Gold.Chemscore.Hbonds>
donor molecule, donor type, donor heavy atom, donor atom, acceptor molecule, acceptor atom, score
      L1  H     8    24       P1  7957  1.00
      L1  H    11    41       P1  7948  2.00
      P1  H  7989  7998       L1    18  1.00
      P1  H  8011  8017       L1     5  0.49

> <Gold.PLP.Chemscore.Internal.Correction>
0.0398

> <Gold.Rescore>
     Score         DG    S(hbond)    S(metal)    S(lipo)     H(rot)  DE(clash)    DE(int)     intcor
     15.63     -17.73       2.97        0.00      53.75       1.54       0.36       1.74       ----

> <Gold.Chemscore.Fitness>
15.6262

> <Gold.Chemscore.DG>
-17.7270

> <Gold.Chemscore.ZeroCoef>
-5.4800

> <Gold.Chemscore.Hbond>
2.9651

> <Gold.Chemscore.Metal>
0.0000

> <Gold.Chemscore.Lipo>
53.7465

> <Gold.Chemscore.Internal_Hbond>
0.0000

> <Gold.Chemscore.DEClash>
0.3588

> <Gold.Chemscore.DEInternal>
1.7420

> <Gold.Chemscore.Rot>
1.5409

> <Gold.Chemscore.Internal.Correction>
   9.000000E+99

> <Gold.Chemscore.Hbonds>
donor molecule, donor type, donor heavy atom, donor atom, acceptor molecule, acceptor atom, score
      L1  H     8    24       P1  7957  0.97
      L1  H    11    41       P1  7948  1.00
      P1  H  7989  7998       L1    18  0.18
      P1  H  8011  8017       L1     5  0.15

> <Gold.Chemscore.Hbond.Weighted>
-9.9033

> <Gold.Chemscore.Metal.Weighted>
-0.0000

> <Gold.Chemscore.Lipo.Weighted>
-6.2883

> <Gold.Chemscore.Internal_Hbond.Weighted>
0.0000

> <Gold.Chemscore.DEClash.Weighted>
0.3588

> <Gold.Chemscore.DEInternal.Weighted>
1.7420

> <Gold.Chemscore.Rot.Weighted>
3.9446

> <Gold.Chemscore.Internal.Correction.Weighted>
   9.000000E+99

> <Gold.Protein.RotatedTorsions>
[ 6907 6896 6895 6894 ] final   10.23 input  -60.11 | X-H torsion
[ 7974 7965 7964 7962 ] final  -94.62 input  175.53 | X-H torsion
[ 8008 7997 7996 7995 ] final   93.98 input   59.86 | X-H torsion
[ 10167 10162 10161 10158 ] final  125.75 input  -65.29 | X-H torsion
[ 10718 10713 10712 10709 ] final  -38.96 input   66.30 | X-H torsion
[ 10763 10752 10751 10750 ] final  133.51 input  -60.55 | X-H torsion
[ 11005 11000 10999 10996 ] final -147.19 input  -57.11 | X-H torsion

> <Gold.Protein.ActiveResidues>
 VAL166  LYS551  ARG553  GLY616  TRP617  ASP618  TYR619  PRO620  LYS621  CYS622 
 ASP623  PHE694  ASN695  SER759  ASP760  ASP761  ALA762  ILE779  LEU786  VAL792 
 PHE793  MET794  SER795  GLU796  ALA797  LYS798  CYS799  TRP800  GLU811  SER814 

> <Gold.Protein.RotatedAtoms>
  151.7349  135.0867  160.0305 H   0  0  0  0  0  0  0  0  0  0  0  0  # atno 6907 bound_to 6896
  152.3517  133.6184  159.5958 H   0  0  0  0  0  0  0  0  0  0  0  0  # atno 6908 bound_to 6896
  150.7544  133.9479  159.3518 H   0  0  0  0  0  0  0  0  0  0  0  0  # atno 6909 bound_to 6896
  145.3709  140.9505  143.2448 H   0  0  0  0  0  0  0  0  0  0  0  0  # atno 7974 bound_to 7965
  156.0528  140.3306  155.7371 H   0  0  0  0  0  0  0  0  0  0  0  0  # atno 8008 bound_to 7997
  155.5575  140.0616  157.2854 H   0  0  0  0  0  0  0  0  0  0  0  0  # atno 8009 bound_to 7997
  154.4444  140.1883  156.0737 H   0  0  0  0  0  0  0  0  0  0  0  0  # atno 8010 bound_to 7997
  139.5668  144.6916  151.3887 H   0  0  0  0  0  0  0  0  0  0  0  0  # atno 10167 bound_to 10162
  156.2978  130.4236  149.8173 H   0  0  0  0  0  0  0  0  0  0  0  0  # atno 10718 bound_to 10713
  153.8083  135.3132  155.3398 H   0  0  0  0  0  0  0  0  0  0  0  0  # atno 10763 bound_to 10752
  154.8062  135.4696  154.0400 H   0  0  0  0  0  0  0  0  0  0  0  0  # atno 10764 bound_to 10752
  153.1770  135.6887  153.8617 H   0  0  0  0  0  0  0  0  0  0  0  0  # atno 10765 bound_to 10752
  140.7742  134.3154  157.5066 H   0  0  0  0  0  0  0  0  0  0  0  0  # atno 11005 bound_to 11000
  144.8577  139.5224  143.6827 LP  0  0  0  0  0  0  0  0  0  0  0  0  # atno 17320 bound_to 7965
  146.2886  139.7073  142.9178 LP  0  0  0  0  0  0  0  0  0  0  0  0  # atno 17321 bound_to 7965
  140.6952  143.7766  150.7316 LP  0  0  0  0  0  0  0  0  0  0  0  0  # atno 17342 bound_to 10162
  140.1260  143.4569  152.2284 LP  0  0  0  0  0  0  0  0  0  0  0  0  # atno 17343 bound_to 10162
  156.5562  130.8363  151.3315 LP  0  0  0  0  0  0  0  0  0  0  0  0  # atno 17370 bound_to 10713
  157.7360  130.9771  150.2112 LP  0  0  0  0  0  0  0  0  0  0  0  0  # atno 17371 bound_to 10713
  139.8751  134.9279  156.3437 LP  0  0  0  0  0  0  0  0  0  0  0  0  # atno 17394 bound_to 11000
  140.9545  133.7429  156.0317 LP  0  0  0  0  0  0  0  0  0  0  0  0  # atno 17395 bound_to 11000

$$$$
