AV-unprocessed.smi:1290|AV-procd|sdf|5389|dock8
  -GOLD-   22720 4543D 1   1.00000     0.00000
 Structure written by MMmdl.
 38 40  0  0  0  0  0  0  0  0  1 V2000
  151.9186  144.4677  160.7062 C   0  0  0  0  0  0  0  0  0  0  0  0
  152.1730  143.2076  159.9828 N   0  0  0  0  0  0  0  0  0  0  0  0
  151.5968  143.0402  158.7509 C   0  0  0  0  0  0  0  0  0  0  0  0
  150.8753  143.8660  158.1897 O   0  0  0  0  0  0  0  0  0  0  0  0
  151.9093  141.7545  158.1213 C   0  0  0  0  0  0  0  0  0  0  0  0
  152.6976  140.8193  158.7030 C   0  0  0  0  0  0  0  0  0  0  0  0
  152.8305  139.6953  157.8953 N   0  0  0  0  0  0  0  0  0  0  0  0
  152.0890  140.0251  156.8366 C   0  0  0  0  0  0  0  0  0  0  0  0
  151.5023  141.2385  156.8930 N   0  0  0  0  0  0  0  0  0  0  0  0
  150.6471  141.8346  155.8782 C   0  0  0  0  0  0  0  0  0  0  0  0
  149.5820  140.8551  155.3456 C   0  0  2  0  0  0  0  0  0  0  0  0
  149.9806  140.3468  154.0866 O   0  0  0  0  0  0  0  0  0  0  0  0
  148.2099  141.5090  155.2957 C   0  0  0  0  0  0  0  0  0  0  0  0
  147.5530  141.8576  156.4952 C   0  0  0  0  0  0  0  0  0  0  0  0
  146.2861  142.4722  156.4583 C   0  0  0  0  0  0  0  0  0  0  0  0
  145.6699  142.7444  155.2214 C   0  0  0  0  0  0  0  0  0  0  0  0
  144.1181  143.4975  155.1762 Cl  0  0  0  0  0  0  0  0  0  0  0  0
  146.3224  142.4028  154.0211 C   0  0  0  0  0  0  0  0  0  0  0  0
  147.5891  141.7882  154.0577 C   0  0  0  0  0  0  0  0  0  0  0  0
  153.2463  141.0930  159.9803 N   0  0  0  0  0  0  0  0  0  0  0  0
  154.0943  140.0581  160.5791 C   0  0  0  0  0  0  0  0  0  0  0  0
  152.9827  142.2809  160.6190 C   0  0  0  0  0  0  0  0  0  0  0  0
  153.4567  142.5152  161.7341 O   0  0  0  0  0  0  0  0  0  0  0  0
  151.3006  145.1886  160.1698 H   0  0  0  0  0  0  0  0  0  0  0  0
  152.8580  144.9753  160.9311 H   0  0  0  0  0  0  0  0  0  0  0  0
  151.4122  144.2658  161.6515 H   0  0  0  0  0  0  0  0  0  0  0  0
  151.9648  139.3613  155.9936 H   0  0  0  0  0  0  0  0  0  0  0  0
  150.1751  142.7215  156.3016 H   0  0  0  0  0  0  0  0  0  0  0  0
  151.2767  142.1877  155.0599 H   0  0  0  0  0  0  0  0  0  0  0  0
  149.5225  139.9972  156.0158 H   0  0  0  0  0  0  0  0  0  0  0  0
  149.2831  140.5009  153.4677 H   0  0  0  0  0  0  0  0  0  0  0  0
  148.0193  141.6564  157.4488 H   0  0  0  0  0  0  0  0  0  0  0  0
  145.7886  142.7352  157.3805 H   0  0  0  0  0  0  0  0  0  0  0  0
  145.8536  142.6123  153.0708 H   0  0  0  0  0  0  0  0  0  0  0  0
  148.0834  141.5341  153.1314 H   0  0  0  0  0  0  0  0  0  0  0  0
  154.4894  140.3117  161.5631 H   0  0  0  0  0  0  0  0  0  0  0  0
  154.9471  139.8555  159.9303 H   0  0  0  0  0  0  0  0  0  0  0  0
  153.5293  139.1316  160.6864 H   0  0  0  0  0  0  0  0  0  0  0  0
  1  2  1  0  0  0  0
  1 24  1  0  0  0  0
  1 25  1  0  0  0  0
  1 26  1  0  0  0  0
  2 22  1  0  0  0  0
  2  3  1  0  0  0  0
  3  4  2  0  0  0  0
  3  5  1  0  0  0  0
  5  9  1  0  0  0  0
  5  6  2  0  0  0  0
  6  7  1  0  0  0  0
  6 20  1  0  0  0  0
  7  8  2  0  0  0  0
  8  9  1  0  0  0  0
  8 27  1  0  0  0  0
  9 10  1  0  0  0  0
 10 11  1  0  0  0  0
 10 28  1  0  0  0  0
 10 29  1  0  0  0  0
 11 12  1  0  0  0  0
 11 13  1  0  0  0  0
 11 30  1  0  0  0  0
 12 31  1  0  0  0  0
 13 19  1  0  0  0  0
 13 14  2  0  0  0  0
 14 15  1  0  0  0  0
 14 32  1  0  0  0  0
 15 16  2  0  0  0  0
 15 33  1  0  0  0  0
 16 17  1  0  0  0  0
 16 18  1  0  0  0  0
 18 19  2  0  0  0  0
 18 34  1  0  0  0  0
 19 35  1  0  0  0  0
 20 21  1  0  0  0  0
 20 22  1  0  0  0  0
 21 36  1  0  0  0  0
 21 37  1  0  0  0  0
 21 38  1  0  0  0  0
 22 23  2  0  0  0  0
M  END
> <s_m_source_file>
AV-unprocessed.smi

> <i_m_source_file_index>
1290

> <i_lp_mmshare_version>
43012

> <i_f3d_flags>
0

> <s_epik_input>
Tz1jMW4oW0NIM10pYyg9TyluKFtDSDNdKWMoYzEyKW5bY0hdbjJbQ0gyXVtDQEhdKFtPSF0pYzNbY0hdW2NIXWMoQ2wpW2NIXVtjSF0z

> <s_epik_cmdline>
J2VwaWtfcHl0aG9uJywgJy1waCcsICc3LjAnLCAnLXRuJywgJzgnLCAnLW1hJywgJzIwMCcsICctbWV0YWxfYmluZGluZycsICctaW1hZScsICc8aW5maWxlLm1hZT4nLCAnLW9tYWUnLCAnPG91dGZpbGUubWFlPic=

> <r_lp_tautomer_probability>
1

> <r_epik_Ionization_Penalty>
1.48293e-06

> <r_epik_Ionization_Penalty_Charging>
3.74189e-09

> <r_epik_Ionization_Penalty_Neutral>
1.47919e-06

> <r_epik_State_Penalty>
-0

> <r_epik_Charging_Adjusted_Penalty>
3.74189e-09

> <i_epik_Tot_Q>
0

> <i_epik_Tot_abs_Q>
0

> <r_epik_Metal_State_Penalty>
-0

> <b_epik_Metal_Only>
0

> <s_lp_Force_Field>
OPLS_2005

> <r_lp_Energy>
35.4502

> <b_lp_Chiralities_Consistent>
1

> <s_lp_Variant>
AV-unprocessed.smi:1290-1

> <Gold.Version>
5.8.1

> <Gold.Id.Protein>
6NUR|6NUR_protein|mol2

> <Gold.PLP.Fitness>
52.8117

> <Gold.PLP.PLP>
-48.9311

> <Gold.PLP.part.hbond>
-3.0000

> <Gold.PLP.part.metal>
0.0000

> <Gold.PLP.part.buried>
-6.1936

> <Gold.PLP.part.nonpolar>
-38.7274

> <Gold.PLP.part.repulsive>
0.1922

> <Gold.PLP.ligand.clash>
0.0000

> <Gold.PLP.ligand.torsion>
0.9810

> <Gold.PLP.Chemscore.Hbond>
1.9394

> <Gold.PLP.Chemscore.CHOScore>
0.0000

> <Gold.PLP.Chemscore.Metal>
0.0000

> <Gold.Chemscore.Hbonds>
donor molecule, donor type, donor heavy atom, donor atom, acceptor molecule, acceptor atom, score
      L1  H    12    31       P1  7957  0.06
      P1  H  7989  7998       L1    12  0.82
      P1  H  7997  8010       L1     7  0.92

> <Gold.PLP.Chemscore.Internal.Correction>
0.0246

> <Gold.Rescore>
     Score         DG    S(hbond)    S(metal)    S(lipo)     H(rot)  DE(clash)    DE(int)     intcor
     11.84     -13.32       1.22        0.00      79.09       2.15       0.66       0.82       ----

> <Gold.Chemscore.Fitness>
11.8414

> <Gold.Chemscore.DG>
-13.3201

> <Gold.Chemscore.ZeroCoef>
-5.4800

> <Gold.Chemscore.Hbond>
1.2228

> <Gold.Chemscore.Metal>
0.0000

> <Gold.Chemscore.Lipo>
79.0894

> <Gold.Chemscore.Internal_Hbond>
0.0000

> <Gold.Chemscore.DEClash>
0.6623

> <Gold.Chemscore.DEInternal>
0.8164

> <Gold.Chemscore.Rot>
2.1474

> <Gold.Chemscore.Internal.Correction>
   9.000000E+99

> <Gold.Chemscore.Hbonds>
donor molecule, donor type, donor heavy atom, donor atom, acceptor molecule, acceptor atom, score
      L1  H    12    31       P1  7957  0.06
      P1  H  7989  7998       L1    12  0.66
      P1  H  7997  8010       L1     7  0.05

> <Gold.Chemscore.Hbond.Weighted>
-4.0840

> <Gold.Chemscore.Metal.Weighted>
-0.0000

> <Gold.Chemscore.Lipo.Weighted>
-9.2535

> <Gold.Chemscore.Internal_Hbond.Weighted>
0.0000

> <Gold.Chemscore.DEClash.Weighted>
0.6623

> <Gold.Chemscore.DEInternal.Weighted>
0.8164

> <Gold.Chemscore.Rot.Weighted>
5.4974

> <Gold.Chemscore.Internal.Correction.Weighted>
   9.000000E+99

> <Gold.Protein.RotatedTorsions>
[ 6907 6896 6895 6894 ] final   -0.32 input  -60.11 | X-H torsion
[ 7974 7965 7964 7962 ] final   59.23 input  175.53 | X-H torsion
[ 8008 7997 7996 7995 ] final   26.07 input   59.86 | X-H torsion
[ 10167 10162 10161 10158 ] final   41.21 input  -65.29 | X-H torsion
[ 10718 10713 10712 10709 ] final   22.11 input   66.30 | X-H torsion
[ 10763 10752 10751 10750 ] final -170.85 input  -60.55 | X-H torsion
[ 11005 11000 10999 10996 ] final  -35.22 input  -57.11 | X-H torsion

> <Gold.Protein.ActiveResidues>
 VAL166  LYS551  ARG553  GLY616  TRP617  ASP618  TYR619  PRO620  LYS621  CYS622 
 ASP623  PHE694  ASN695  SER759  ASP760  ASP761  ALA762  ILE779  LEU786  VAL792 
 PHE793  MET794  SER795  GLU796  ALA797  LYS798  CYS799  TRP800  GLU811  SER814 

> <Gold.Protein.RotatedAtoms>
  151.5642  135.1064  159.9979 H   0  0  0  0  0  0  0  0  0  0  0  0  # atno 6907 bound_to 6896
  152.4432  133.7483  159.6690 H   0  0  0  0  0  0  0  0  0  0  0  0  # atno 6908 bound_to 6896
  150.8342  133.7973  159.3110 H   0  0  0  0  0  0  0  0  0  0  0  0  # atno 6909 bound_to 6896
  145.9094  139.3642  143.0544 H   0  0  0  0  0  0  0  0  0  0  0  0  # atno 7974 bound_to 7965
  155.0215  140.3148  155.4791 H   0  0  0  0  0  0  0  0  0  0  0  0  # atno 8008 bound_to 7997
  156.2891  140.2196  156.5275 H   0  0  0  0  0  0  0  0  0  0  0  0  # atno 8009 bound_to 7997
  154.7448  140.0471  157.0830 H   0  0  0  0  0  0  0  0  0  0  0  0  # atno 8010 bound_to 7997
  140.3666  144.2159  150.6135 H   0  0  0  0  0  0  0  0  0  0  0  0  # atno 10167 bound_to 10162
  157.1478  130.6661  149.6002 H   0  0  0  0  0  0  0  0  0  0  0  0  # atno 10718 bound_to 10713
  154.6369  135.2893  155.0150 H   0  0  0  0  0  0  0  0  0  0  0  0  # atno 10763 bound_to 10752
  154.1290  135.6536  153.4922 H   0  0  0  0  0  0  0  0  0  0  0  0  # atno 10764 bound_to 10752
  153.0307  135.5306  154.7220 H   0  0  0  0  0  0  0  0  0  0  0  0  # atno 10765 bound_to 10752
  140.9778  133.7073  156.1633 H   0  0  0  0  0  0  0  0  0  0  0  0  # atno 11005 bound_to 11000
  145.8690  140.9431  143.0660 LP  0  0  0  0  0  0  0  0  0  0  0  0  # atno 17320 bound_to 7965
  144.6742  140.0630  143.7475 LP  0  0  0  0  0  0  0  0  0  0  0  0  # atno 17321 bound_to 7965
  140.5075  143.2300  151.8586 LP  0  0  0  0  0  0  0  0  0  0  0  0  # atno 17342 bound_to 10162
  139.4808  144.4989  151.9087 LP  0  0  0  0  0  0  0  0  0  0  0  0  # atno 17343 bound_to 10162
  155.9776  130.4755  150.6604 LP  0  0  0  0  0  0  0  0  0  0  0  0  # atno 17370 bound_to 10713
  157.4248  131.0841  151.1096 LP  0  0  0  0  0  0  0  0  0  0  0  0  # atno 17371 bound_to 10713
  140.7232  134.4336  157.5573 LP  0  0  0  0  0  0  0  0  0  0  0  0  # atno 17394 bound_to 11000
  139.8938  134.8722  156.2208 LP  0  0  0  0  0  0  0  0  0  0  0  0  # atno 17395 bound_to 11000

$$$$
