AV-unprocessed.smi:3214|AV-procd|sdf|12283|dock2
  -GOLD-   2272018123D 1   1.00000     0.00000
 Structure written by MMmdl.
 37 37  0  0  0  0  0  0  0  0  2 V2000
  146.9017  133.4601  151.7083 C   0  0  0  0  0  0  0  0  0  0  0  0
  145.8687  134.5486  152.0277 C   0  0  0  0  0  0  0  0  0  0  0  0
  146.3920  135.8808  151.7473 N   0  0  0  0  0  0  0  0  0  0  0  0
  145.7094  137.0262  151.8991 C   0  0  0  0  0  0  0  0  0  0  0  0
  144.5472  137.0714  152.3028 O   0  0  0  0  0  0  0  0  0  0  0  0
  146.4576  138.3118  151.5311 C   0  0  0  0  0  0  0  0  0  0  0  0
  146.9067  139.1239  152.7585 C   0  0  0  0  0  0  0  0  0  0  0  0
  148.3060  138.8067  153.1144 N   0  3  0  0  0  0  0  0  0  0  0  0
  148.7019  139.1385  154.5019 C   0  0  2  0  0  0  0  0  0  0  0  0
  147.9624  140.4117  154.9472 C   0  0  0  0  0  0  0  0  0  0  0  0
  150.2383  139.2713  154.6283 C   0  0  0  0  0  0  0  0  0  0  0  0
  150.6471  140.2502  155.6200 N   0  0  0  0  0  0  0  0  0  0  0  0
  151.2502  140.0353  156.8417 C   0  0  0  0  0  0  0  0  0  0  0  0
  151.4311  141.2563  157.4254 C   0  0  0  0  0  0  0  0  0  0  0  0
  150.8926  142.1687  156.4753 C   0  0  0  0  0  0  0  0  0  0  0  0
  150.4205  141.5628  155.3977 N   0  0  0  0  0  0  0  0  0  0  0  0
  146.5084  132.4720  151.9477 H   0  0  0  0  0  0  0  0  0  0  0  0
  147.8154  133.6017  152.2867 H   0  0  0  0  0  0  0  0  0  0  0  0
  147.1693  133.4625  150.6510 H   0  0  0  0  0  0  0  0  0  0  0  0
  144.9483  134.3745  151.4678 H   0  0  0  0  0  0  0  0  0  0  0  0
  145.6016  134.5029  153.0838 H   0  0  0  0  0  0  0  0  0  0  0  0
  147.3413  135.9330  151.4068 H   0  0  0  0  0  0  0  0  0  0  0  0
  147.3284  138.0522  150.9270 H   0  0  0  0  0  0  0  0  0  0  0  0
  145.8065  138.9179  150.9001 H   0  0  0  0  0  0  0  0  0  0  0  0
  146.8272  140.1925  152.5522 H   0  0  0  0  0  0  0  0  0  0  0  0
  146.2532  138.9070  153.6037 H   0  0  0  0  0  0  0  0  0  0  0  0
  148.4780  137.8250  152.9509 H   0  0  0  0  0  0  0  0  0  0  0  0
  148.3628  138.3265  155.1470 H   0  0  0  0  0  0  0  0  0  0  0  0
  148.1465  140.6383  155.9978 H   0  0  0  0  0  0  0  0  0  0  0  0
  146.8841  140.3002  154.8291 H   0  0  0  0  0  0  0  0  0  0  0  0
  148.2737  141.2768  154.3610 H   0  0  0  0  0  0  0  0  0  0  0  0
  150.6921  138.3183  154.9003 H   0  0  0  0  0  0  0  0  0  0  0  0
  150.6693  139.5584  153.6680 H   0  0  0  0  0  0  0  0  0  0  0  0
  151.4994  139.0439  157.1904 H   0  0  0  0  0  0  0  0  0  0  0  0
  151.8777  141.4660  158.3861 H   0  0  0  0  0  0  0  0  0  0  0  0
  150.8301  143.2451  156.5371 H   0  0  0  0  0  0  0  0  0  0  0  0
  148.8982  139.3418  152.4955 H   0  0  0  0  0  0  0  0  0  0  0  0
  1  2  1  0  0  0  0
  1 17  1  0  0  0  0
  1 18  1  0  0  0  0
  1 19  1  0  0  0  0
  2  3  1  0  0  0  0
  2 20  1  0  0  0  0
  2 21  1  0  0  0  0
  3  4  1  0  0  0  0
  3 22  1  0  0  0  0
  4  5  2  0  0  0  0
  4  6  1  0  0  0  0
  6  7  1  0  0  0  0
  6 23  1  0  0  0  0
  6 24  1  0  0  0  0
  7  8  1  0  0  0  0
  7 25  1  0  0  0  0
  7 26  1  0  0  0  0
  8  9  1  0  0  0  0
  8 27  1  0  0  0  0
  8 37  1  0  0  0  0
  9 10  1  0  0  0  0
  9 11  1  0  0  0  0
  9 28  1  0  0  0  0
 10 29  1  0  0  0  0
 10 30  1  0  0  0  0
 10 31  1  0  0  0  0
 11 12  1  0  0  0  0
 11 32  1  0  0  0  0
 11 33  1  0  0  0  0
 12 16  1  0  0  0  0
 12 13  1  0  0  0  0
 13 14  2  0  0  0  0
 13 34  1  0  0  0  0
 14 15  1  0  0  0  0
 14 35  1  0  0  0  0
 15 16  2  0  0  0  0
 15 36  1  0  0  0  0
M  CHG  1   8   1
M  END
> <s_m_source_file>
AV-unprocessed.smi

> <i_m_source_file_index>
3214

> <i_lp_mmshare_version>
43012

> <i_f3d_flags>
0

> <s_epik_input>
W0NIM11bQ0gyXVtOSF1DKD1PKVtDSDJdW0NIMl1bTkhdW0NASF0oW0NIM10pW0NIMl1uMVtjSF1bY0hdW2NIXW4x

> <s_epik_cmdline>
J2VwaWtfcHl0aG9uJywgJy1waCcsICc3LjAnLCAnLXRuJywgJzgnLCAnLW1hJywgJzIwMCcsICctbWV0YWxfYmluZGluZycsICctaW1hZScsICc8aW5maWxlLm1hZT4nLCAnLW9tYWUnLCAnPG91dGZpbGUubWFlPic=

> <r_lp_tautomer_probability>
1

> <r_epik_Ionization_Penalty>
0.00598156

> <r_epik_Ionization_Penalty_Charging>
0.00597743

> <r_epik_Ionization_Penalty_Neutral>
4.12922e-06

> <r_epik_State_Penalty>
0.00439883

> <r_epik_Charging_Adjusted_Penalty>
0.0103763

> <i_epik_Tot_Q>
1

> <i_epik_Tot_abs_Q>
1

> <r_epik_Metal_State_Penalty>
-0

> <b_epik_Metal_Only>
0

> <s_lp_Force_Field>
OPLS_2005

> <r_lp_Energy>
5.54296

> <b_lp_Chiralities_Consistent>
1

> <s_lp_Variant>
AV-unprocessed.smi:3214-1

> <Gold.Version>
5.8.1

> <Gold.Id.Protein>
6NUR|6NUR_protein|mol2

> <Gold.PLP.Fitness>
41.4779

> <Gold.PLP.PLP>
-29.2271

> <Gold.PLP.part.hbond>
-3.7868

> <Gold.PLP.part.metal>
0.0000

> <Gold.PLP.part.buried>
-0.9496

> <Gold.PLP.part.nonpolar>
-26.0093

> <Gold.PLP.part.repulsive>
0.7207

> <Gold.PLP.ligand.clash>
0.0000

> <Gold.PLP.ligand.torsion>
1.3031

> <Gold.PLP.Chemscore.Hbond>
3.9120

> <Gold.PLP.Chemscore.CHOScore>
0.9552

> <Gold.PLP.Chemscore.Metal>
0.0000

> <Gold.Chemscore.Hbonds>
donor molecule, donor type, donor heavy atom, donor atom, acceptor molecule, acceptor atom, score
      L1  H     3    22       P1  7948  0.93
      L1  H     8    27       P1  7948  2.00
      L1  H     8    37       P1  7957  1.00
      L1  C    15    36       P1  8028  0.82

> <Gold.PLP.Chemscore.Internal.Correction>
0.2554

> <Gold.Rescore>
     Score         DG    S(hbond)    S(metal)    S(lipo)     H(rot)  DE(clash)    DE(int)     intcor
     13.59     -16.42       2.91        0.00      62.79       2.39       0.13       2.71       ----

> <Gold.Chemscore.Fitness>
13.5879

> <Gold.Chemscore.DG>
-16.4232

> <Gold.Chemscore.ZeroCoef>
-5.4800

> <Gold.Chemscore.Hbond>
2.9124

> <Gold.Chemscore.Metal>
0.0000

> <Gold.Chemscore.Lipo>
62.7897

> <Gold.Chemscore.Internal_Hbond>
0.0000

> <Gold.Chemscore.DEClash>
0.1252

> <Gold.Chemscore.DEInternal>
2.7102

> <Gold.Chemscore.Rot>
2.3948

> <Gold.Chemscore.Internal.Correction>
   9.000000E+99

> <Gold.Chemscore.Hbonds>
donor molecule, donor type, donor heavy atom, donor atom, acceptor molecule, acceptor atom, score
      L1  H     3    22       P1  7948  0.89
      L1  H     8    27       P1  7948  0.96
      L1  H     8    37       P1  7957  1.00

> <Gold.Chemscore.Hbond.Weighted>
-9.7274

> <Gold.Chemscore.Metal.Weighted>
-0.0000

> <Gold.Chemscore.Lipo.Weighted>
-7.3464

> <Gold.Chemscore.Internal_Hbond.Weighted>
0.0000

> <Gold.Chemscore.DEClash.Weighted>
0.1252

> <Gold.Chemscore.DEInternal.Weighted>
2.7102

> <Gold.Chemscore.Rot.Weighted>
6.1306

> <Gold.Chemscore.Internal.Correction.Weighted>
   9.000000E+99

> <Gold.Protein.RotatedTorsions>
[ 6907 6896 6895 6894 ] final  132.62 input  -60.11 | X-H torsion
[ 7974 7965 7964 7962 ] final   -9.28 input  175.53 | X-H torsion
[ 8008 7997 7996 7995 ] final  -67.23 input   59.86 | X-H torsion
[ 10167 10162 10161 10158 ] final -163.54 input  -65.29 | X-H torsion
[ 10718 10713 10712 10709 ] final  -39.37 input   66.30 | X-H torsion
[ 10763 10752 10751 10750 ] final -129.64 input  -60.55 | X-H torsion
[ 11005 11000 10999 10996 ] final    5.67 input  -57.11 | X-H torsion

> <Gold.Protein.ActiveResidues>
 VAL166  LYS551  ARG553  GLY616  TRP617  ASP618  TYR619  PRO620  LYS621  CYS622 
 ASP623  PHE694  ASN695  SER759  ASP760  ASP761  ALA762  ILE779  LEU786  VAL792 
 PHE793  MET794  SER795  GLU796  ALA797  LYS798  CYS799  TRP800  GLU811  SER814 

> <Gold.Protein.RotatedAtoms>
  152.3305  133.5952  159.5805 H   0  0  0  0  0  0  0  0  0  0  0  0  # atno 6907 bound_to 6896
  150.7420  133.9875  159.3605 H   0  0  0  0  0  0  0  0  0  0  0  0  # atno 6908 bound_to 6896
  151.7751  135.0777  160.0416 H   0  0  0  0  0  0  0  0  0  0  0  0  # atno 6909 bound_to 6896
  146.2256  140.2592  142.8351 H   0  0  0  0  0  0  0  0  0  0  0  0  # atno 7974 bound_to 7965
  154.4786  140.0897  156.7323 H   0  0  0  0  0  0  0  0  0  0  0  0  # atno 8008 bound_to 7997
  155.4530  140.3458  155.4285 H   0  0  0  0  0  0  0  0  0  0  0  0  # atno 8009 bound_to 7997
  156.1156  140.1460  156.9266 H   0  0  0  0  0  0  0  0  0  0  0  0  # atno 8010 bound_to 7997
  139.6314  144.0433  152.2018 H   0  0  0  0  0  0  0  0  0  0  0  0  # atno 10167 bound_to 10162
  156.2933  130.4231  149.8217 H   0  0  0  0  0  0  0  0  0  0  0  0  # atno 10718 bound_to 10713
  154.8757  135.3888  154.3954 H   0  0  0  0  0  0  0  0  0  0  0  0  # atno 10763 bound_to 10752
  153.4684  135.7030  153.6013 H   0  0  0  0  0  0  0  0  0  0  0  0  # atno 10764 bound_to 10752
  153.4481  135.3840  155.2235 H   0  0  0  0  0  0  0  0  0  0  0  0  # atno 10765 bound_to 10752
  140.5680  134.0129  155.7997 H   0  0  0  0  0  0  0  0  0  0  0  0  # atno 11005 bound_to 11000
  144.9352  140.8019  143.5664 LP  0  0  0  0  0  0  0  0  0  0  0  0  # atno 17320 bound_to 7965
  145.2539  139.2020  143.4928 LP  0  0  0  0  0  0  0  0  0  0  0  0  # atno 17321 bound_to 7965
  140.0099  144.6231  150.7656 LP  0  0  0  0  0  0  0  0  0  0  0  0  # atno 17342 bound_to 10162
  140.7441  143.2855  151.3475 LP  0  0  0  0  0  0  0  0  0  0  0  0  # atno 17343 bound_to 10162
  156.5622  130.8388  151.3332 LP  0  0  0  0  0  0  0  0  0  0  0  0  # atno 17370 bound_to 10713
  157.7348  130.9752  150.2049 LP  0  0  0  0  0  0  0  0  0  0  0  0  # atno 17371 bound_to 10713
  141.1073  133.9672  157.2973 LP  0  0  0  0  0  0  0  0  0  0  0  0  # atno 17394 bound_to 11000
  139.9375  135.0195  156.8603 LP  0  0  0  0  0  0  0  0  0  0  0  0  # atno 17395 bound_to 11000

$$$$
