AV-unprocessed.smi:3142|AV-procd|sdf|11970|dock5
  -GOLD-   2272017373D 1   1.00000     0.00000
 Structure written by MMmdl.
 36 38  0  0  0  0  0  0  0  0  1 V2000
  151.5584  137.9426  158.7213 C   0  0  0  0  0  0  0  0  0  0  0  0
  152.1951  139.0945  157.9201 C   0  0  2  0  0  0  0  0  0  0  0  0
  151.8745  140.4819  158.4994 C   0  0  0  0  0  0  0  0  0  0  0  0
  150.7166  140.9002  158.5306 O   0  0  0  0  0  0  0  0  0  0  0  0
  152.9238  141.1856  158.9536 N   0  0  0  0  0  0  0  0  0  0  0  0
  152.8727  142.5294  159.5177 C   0  0  0  0  0  0  0  0  0  0  0  0
  152.2459  142.5250  160.8997 C   0  0  0  0  0  0  0  0  0  0  0  0
  152.4438  143.6736  161.8603 C   0  0  0  0  0  0  0  0  0  0  0  0
  153.0918  142.3349  162.1354 C   0  0  0  0  0  0  0  0  0  0  0  0
  152.1518  143.5132  158.6114 C   0  0  0  0  0  0  0  0  0  0  0  0
  152.8802  144.6714  157.9716 C   0  0  0  0  0  0  0  0  0  0  0  0
  151.8609  144.9267  159.0579 C   0  0  0  0  0  0  0  0  0  0  0  0
  151.8197  139.0330  156.5142 N   0  0  0  0  0  0  0  0  0  0  0  0
  152.0050  137.9606  155.6500 C   0  0  0  0  0  0  0  0  0  0  0  0
  151.5201  138.3523  154.4228 C   0  0  0  0  0  0  0  0  0  0  0  0
  151.0398  139.6566  154.5032 N   0  0  0  0  0  0  0  0  0  0  0  0
  151.2516  139.9940  155.7686 C   0  0  0  0  0  0  0  0  0  0  0  0
  151.8698  137.9691  159.7661 H   0  0  0  0  0  0  0  0  0  0  0  0
  151.8596  136.9759  158.3167 H   0  0  0  0  0  0  0  0  0  0  0  0
  150.4687  137.9841  158.6981 H   0  0  0  0  0  0  0  0  0  0  0  0
  153.2778  138.9694  157.9754 H   0  0  0  0  0  0  0  0  0  0  0  0
  153.8371  140.7604  158.8855 H   0  0  0  0  0  0  0  0  0  0  0  0
  153.8972  142.8873  159.6400 H   0  0  0  0  0  0  0  0  0  0  0  0
  151.2649  142.0539  160.9273 H   0  0  0  0  0  0  0  0  0  0  0  0
  153.0961  144.4895  161.5557 H   0  0  0  0  0  0  0  0  0  0  0  0
  151.5971  143.9603  162.4804 H   0  0  0  0  0  0  0  0  0  0  0  0
  152.6773  141.7292  162.9386 H   0  0  0  0  0  0  0  0  0  0  0  0
  154.1697  142.2615  162.0045 H   0  0  0  0  0  0  0  0  0  0  0  0
  151.3779  143.0495  158.0020 H   0  0  0  0  0  0  0  0  0  0  0  0
  153.9281  144.8175  158.2254 H   0  0  0  0  0  0  0  0  0  0  0  0
  152.6070  144.9333  156.9517 H   0  0  0  0  0  0  0  0  0  0  0  0
  150.9075  145.3601  158.7622 H   0  0  0  0  0  0  0  0  0  0  0  0
  152.2367  145.2448  160.0280 H   0  0  0  0  0  0  0  0  0  0  0  0
  152.4547  137.0322  155.9699 H   0  0  0  0  0  0  0  0  0  0  0  0
  151.4842  137.8012  153.4947 H   0  0  0  0  0  0  0  0  0  0  0  0
  150.9911  140.9659  156.1620 H   0  0  0  0  0  0  0  0  0  0  0  0
  1  2  1  0  0  0  0
  1 18  1  0  0  0  0
  1 19  1  0  0  0  0
  1 20  1  0  0  0  0
  2  3  1  0  0  0  0
  2 13  1  0  0  0  0
  2 21  1  0  0  0  0
  3  4  2  0  0  0  0
  3  5  1  0  0  0  0
  5  6  1  0  0  0  0
  5 22  1  0  0  0  0
  6  7  1  0  0  0  0
  6 10  1  0  0  0  0
  6 23  1  0  0  0  0
  7  9  1  0  0  0  0
  7  8  1  0  0  0  0
  7 24  1  0  0  0  0
  8  9  1  0  0  0  0
  8 25  1  0  0  0  0
  8 26  1  0  0  0  0
  9 27  1  0  0  0  0
  9 28  1  0  0  0  0
 10 12  1  0  0  0  0
 10 11  1  0  0  0  0
 10 29  1  0  0  0  0
 11 12  1  0  0  0  0
 11 30  1  0  0  0  0
 11 31  1  0  0  0  0
 12 32  1  0  0  0  0
 12 33  1  0  0  0  0
 13 17  1  0  0  0  0
 13 14  1  0  0  0  0
 14 15  2  0  0  0  0
 14 34  1  0  0  0  0
 15 16  1  0  0  0  0
 15 35  1  0  0  0  0
 16 17  2  0  0  0  0
 17 36  1  0  0  0  0
M  END
> <s_m_source_file>
AV-unprocessed.smi

> <i_m_source_file_index>
3142

> <i_lp_mmshare_version>
43012

> <i_f3d_flags>
0

> <s_epik_input>
W2NIXTFuW2NIXVtjSF1uMVtDQEhdKFtDSDNdKUMoPU8pW05IXVtDSF0oW0NIXTJbQ0gyXVtDSDJdMilbQ0hdM1tDSDJdW0NIMl0z

> <s_epik_cmdline>
J2VwaWtfcHl0aG9uJywgJy1waCcsICc3LjAnLCAnLXRuJywgJzgnLCAnLW1hJywgJzIwMCcsICctbWV0YWxfYmluZGluZycsICctaW1hZScsICc8aW5maWxlLm1hZT4nLCAnLW9tYWUnLCAnPG91dGZpbGUubWFlPic=

> <r_lp_tautomer_probability>
1

> <r_epik_Ionization_Penalty>
0.32285

> <r_epik_Ionization_Penalty_Charging>
0.32285

> <r_epik_Ionization_Penalty_Neutral>
3.37967e-08

> <r_epik_State_Penalty>
0.317502

> <r_epik_Charging_Adjusted_Penalty>
0.640352

> <i_epik_Tot_Q>
0

> <i_epik_Tot_abs_Q>
0

> <r_epik_Metal_State_Penalty>
0.20415

> <b_epik_Metal_Only>
0

> <s_lp_Force_Field>
OPLS_2005

> <r_lp_Energy>
29.0844

> <b_lp_Chiralities_Consistent>
1

> <s_lp_Variant>
AV-unprocessed.smi:3142-1

> <Gold.Version>
5.8.1

> <Gold.Id.Protein>
6NUR|6NUR_protein|mol2

> <Gold.PLP.Fitness>
49.2734

> <Gold.PLP.PLP>
-45.4637

> <Gold.PLP.part.hbond>
-1.0000

> <Gold.PLP.part.metal>
0.0000

> <Gold.PLP.part.buried>
-5.6800

> <Gold.PLP.part.nonpolar>
-38.8560

> <Gold.PLP.part.repulsive>
0.1975

> <Gold.PLP.ligand.clash>
0.0000

> <Gold.PLP.ligand.torsion>
1.4692

> <Gold.PLP.Chemscore.Hbond>
1.0000

> <Gold.PLP.Chemscore.CHOScore>
0.5138

> <Gold.PLP.Chemscore.Metal>
0.0000

> <Gold.Chemscore.Hbonds>
donor molecule, donor type, donor heavy atom, donor atom, acceptor molecule, acceptor atom, score
      P1  H  7989  7998       L1    16  1.00
      L1  C    15    35       P1  7949  0.53

> <Gold.PLP.Chemscore.Internal.Correction>
2.2067

> <Gold.Rescore>
     Score         DG    S(hbond)    S(metal)    S(lipo)     H(rot)  DE(clash)    DE(int)     intcor
     13.49     -17.06       0.89        0.00     114.00       1.85       0.02       3.55       ----

> <Gold.Chemscore.Fitness>
13.4892

> <Gold.Chemscore.DG>
-17.0606

> <Gold.Chemscore.ZeroCoef>
-5.4800

> <Gold.Chemscore.Hbond>
0.8923

> <Gold.Chemscore.Metal>
0.0000

> <Gold.Chemscore.Lipo>
113.9959

> <Gold.Chemscore.Internal_Hbond>
0.0000

> <Gold.Chemscore.DEClash>
0.0181

> <Gold.Chemscore.DEInternal>
3.5533

> <Gold.Chemscore.Rot>
1.8505

> <Gold.Chemscore.Internal.Correction>
   9.000000E+99

> <Gold.Chemscore.Hbonds>
donor molecule, donor type, donor heavy atom, donor atom, acceptor molecule, acceptor atom, score
      P1  H  7989  7998       L1    16  0.73

> <Gold.Chemscore.Hbond.Weighted>
-2.9804

> <Gold.Chemscore.Metal.Weighted>
-0.0000

> <Gold.Chemscore.Lipo.Weighted>
-13.3375

> <Gold.Chemscore.Internal_Hbond.Weighted>
0.0000

> <Gold.Chemscore.DEClash.Weighted>
0.0181

> <Gold.Chemscore.DEInternal.Weighted>
3.5533

> <Gold.Chemscore.Rot.Weighted>
4.7373

> <Gold.Chemscore.Internal.Correction.Weighted>
   9.000000E+99

> <Gold.Protein.RotatedTorsions>
[ 6907 6896 6895 6894 ] final  -59.89 input  -60.11 | X-H torsion
[ 7974 7965 7964 7962 ] final  -42.10 input  175.53 | X-H torsion
[ 8008 7997 7996 7995 ] final  176.99 input   59.86 | X-H torsion
[ 10167 10162 10161 10158 ] final  -61.04 input  -65.29 | X-H torsion
[ 10718 10713 10712 10709 ] final -166.07 input   66.30 | X-H torsion
[ 10763 10752 10751 10750 ] final -130.12 input  -60.55 | X-H torsion
[ 11005 11000 10999 10996 ] final   -0.20 input  -57.11 | X-H torsion

> <Gold.Protein.ActiveResidues>
 VAL166  LYS551  ARG553  GLY616  TRP617  ASP618  TYR619  PRO620  LYS621  CYS622 
 ASP623  PHE694  ASN695  SER759  ASP760  ASP761  ALA762  ILE779  LEU786  VAL792 
 PHE793  MET794  SER795  GLU796  ALA797  LYS798  CYS799  TRP800  GLU811  SER814 

> <Gold.Protein.RotatedAtoms>
  150.7896  134.6909  159.6495 H   0  0  0  0  0  0  0  0  0  0  0  0  # atno 6907 bound_to 6896
  152.3999  134.6300  160.0083 H   0  0  0  0  0  0  0  0  0  0  0  0  # atno 6908 bound_to 6896
  151.6574  133.3281  159.3202 H   0  0  0  0  0  0  0  0  0  0  0  0  # atno 6909 bound_to 6896
  146.0148  140.6921  142.9207 H   0  0  0  0  0  0  0  0  0  0  0  0  # atno 7974 bound_to 7965
  156.0705  140.1369  156.9834 H   0  0  0  0  0  0  0  0  0  0  0  0  # atno 8008 bound_to 7997
  154.4529  140.0973  156.6723 H   0  0  0  0  0  0  0  0  0  0  0  0  # atno 8009 bound_to 7997
  155.5236  140.3457  155.4414 H   0  0  0  0  0  0  0  0  0  0  0  0  # atno 8010 bound_to 7997
  140.6032  143.2366  151.5881 H   0  0  0  0  0  0  0  0  0  0  0  0  # atno 10167 bound_to 10162
  156.6626  130.9052  151.3031 H   0  0  0  0  0  0  0  0  0  0  0  0  # atno 10718 bound_to 10713
  154.8756  135.3873  154.4030 H   0  0  0  0  0  0  0  0  0  0  0  0  # atno 10763 bound_to 10752
  153.4753  135.7030  153.5975 H   0  0  0  0  0  0  0  0  0  0  0  0  # atno 10764 bound_to 10752
  153.4414  135.3855  155.2198 H   0  0  0  0  0  0  0  0  0  0  0  0  # atno 10765 bound_to 10752
  140.6337  133.9552  155.8288 H   0  0  0  0  0  0  0  0  0  0  0  0  # atno 11005 bound_to 11000
  144.6967  140.3462  143.7190 LP  0  0  0  0  0  0  0  0  0  0  0  0  # atno 17320 bound_to 7965
  145.7285  139.1729  143.2444 LP  0  0  0  0  0  0  0  0  0  0  0  0  # atno 17321 bound_to 7965
  139.5306  144.2928  152.1138 LP  0  0  0  0  0  0  0  0  0  0  0  0  # atno 17342 bound_to 10162
  140.2113  144.4560  150.6384 LP  0  0  0  0  0  0  0  0  0  0  0  0  # atno 17343 bound_to 10162
  157.7104  130.9434  150.1071 LP  0  0  0  0  0  0  0  0  0  0  0  0  # atno 17370 bound_to 10713
  156.1999  130.3659  149.8801 LP  0  0  0  0  0  0  0  0  0  0  0  0  # atno 17371 bound_to 10713
  141.0657  134.0280  157.3597 LP  0  0  0  0  0  0  0  0  0  0  0  0  # atno 17394 bound_to 11000
  139.9106  135.0189  156.7676 LP  0  0  0  0  0  0  0  0  0  0  0  0  # atno 17395 bound_to 11000

$$$$
