AV-unprocessed.smi:1240|AV-procd|sdf|5203|dock1
  -GOLD-   22720 4293D 1   1.00000     0.00000
 Structure written by MMmdl.
 48 50  0  0  0  0  0  0  0  0  2 V2000
  145.8802  137.5057  154.7351 O   0  0  0  0  0  0  0  0  0  0  0  0
  146.8371  137.2645  153.9997 C   0  0  0  0  0  0  0  0  0  0  0  0
  147.0896  136.0497  153.4911 N   0  0  0  0  0  0  0  0  0  0  0  0
  146.2908  134.8527  153.7363 C   0  0  0  0  0  0  0  0  0  0  0  0
  146.6366  133.6333  152.8141 C   0  0  2  0  0  0  0  0  0  0  0  0
  145.3036  132.9995  152.2681 C   0  0  2  0  0  0  0  0  0  0  0  0
  145.4117  131.8684  151.2566 C   0  0  0  0  0  0  0  0  0  0  0  0
  143.9909  131.7634  150.7225 C   0  0  0  0  0  0  0  0  0  0  0  0
  143.5338  133.1049  150.6615 O   0  0  0  0  0  0  0  0  0  0  0  0
  144.3552  133.9262  151.4856 C   0  0  0  0  0  0  0  0  0  0  0  0
  147.4953  132.6046  153.4723 N   0  0  0  0  0  0  0  0  0  0  0  0
  146.9273  131.9623  154.6646 C   0  0  0  0  0  0  0  0  0  0  0  0
  147.8588  130.8938  155.2651 C   0  0  0  0  0  0  0  0  0  0  0  0
  149.1163  131.4726  155.5855 O   0  0  0  0  0  0  0  0  0  0  0  0
  149.7355  132.0696  154.4545 C   0  0  0  0  0  0  0  0  0  0  0  0
  148.8041  133.1438  153.8688 C   0  0  0  0  0  0  0  0  0  0  0  0
  147.7716  138.1535  153.6205 N   0  0  0  0  0  0  0  0  0  0  0  0
  147.8805  139.5296  153.9609 C   0  0  0  0  0  0  0  0  0  0  0  0
  146.6826  140.2716  154.0631 C   0  0  0  0  0  0  0  0  0  0  0  0
  146.7361  141.6366  154.4116 C   0  0  0  0  0  0  0  0  0  0  0  0
  147.9281  142.2223  154.6538 N   0  3  0  0  0  0  0  0  0  0  0  0
  149.0984  141.5523  154.5822 C   0  0  0  0  0  0  0  0  0  0  0  0
  149.1077  140.1850  154.2383 C   0  0  0  0  0  0  0  0  0  0  0  0
  147.9000  135.9385  152.8992 H   0  0  0  0  0  0  0  0  0  0  0  0
  146.4532  134.6300  154.7904 H   0  0  0  0  0  0  0  0  0  0  0  0
  145.2365  135.1131  153.6372 H   0  0  0  0  0  0  0  0  0  0  0  0
  147.1936  134.0357  151.9668 H   0  0  0  0  0  0  0  0  0  0  0  0
  144.7505  132.6076  153.1236 H   0  0  0  0  0  0  0  0  0  0  0  0
  146.0797  132.1445  150.4395 H   0  0  0  0  0  0  0  0  0  0  0  0
  145.7474  130.9272  151.6930 H   0  0  0  0  0  0  0  0  0  0  0  0
  143.9412  131.2761  149.7485 H   0  0  0  0  0  0  0  0  0  0  0  0
  143.3613  131.2063  151.4176 H   0  0  0  0  0  0  0  0  0  0  0  0
  143.7244  134.5277  152.1399 H   0  0  0  0  0  0  0  0  0  0  0  0
  144.9168  134.5982  150.8354 H   0  0  0  0  0  0  0  0  0  0  0  0
  146.7010  132.7138  155.4227 H   0  0  0  0  0  0  0  0  0  0  0  0
  145.9943  131.4578  154.4152 H   0  0  0  0  0  0  0  0  0  0  0  0
  147.4202  130.4744  156.1705 H   0  0  0  0  0  0  0  0  0  0  0  0
  147.9992  130.0680  154.5658 H   0  0  0  0  0  0  0  0  0  0  0  0
  150.6810  132.5154  154.7631 H   0  0  0  0  0  0  0  0  0  0  0  0
  149.9676  131.3086  153.7077 H   0  0  0  0  0  0  0  0  0  0  0  0
  149.3240  133.6114  153.0422 H   0  0  0  0  0  0  0  0  0  0  0  0
  148.6623  133.9310  154.6111 H   0  0  0  0  0  0  0  0  0  0  0  0
  148.5342  137.7828  153.0723 H   0  0  0  0  0  0  0  0  0  0  0  0
  145.7279  139.8030  153.8717 H   0  0  0  0  0  0  0  0  0  0  0  0
  145.8674  142.2718  154.5051 H   0  0  0  0  0  0  0  0  0  0  0  0
  149.9868  142.1246  154.8069 H   0  0  0  0  0  0  0  0  0  0  0  0
  150.0537  139.6669  154.2068 H   0  0  0  0  0  0  0  0  0  0  0  0
  147.9456  143.2110  154.9060 H   0  0  0  0  0  0  0  0  0  0  0  0
  1  2  2  0  0  0  0
  2  3  1  0  0  0  0
  2 17  1  0  0  0  0
  3  4  1  0  0  0  0
  3 24  1  0  0  0  0
  4  5  1  0  0  0  0
  4 25  1  0  0  0  0
  4 26  1  0  0  0  0
  5  6  1  0  0  0  0
  5 11  1  0  0  0  0
  5 27  1  0  0  0  0
  6 10  1  0  0  0  0
  6  7  1  0  0  0  0
  6 28  1  0  0  0  0
  7  8  1  0  0  0  0
  7 29  1  0  0  0  0
  7 30  1  0  0  0  0
  8  9  1  0  0  0  0
  8 31  1  0  0  0  0
  8 32  1  0  0  0  0
  9 10  1  0  0  0  0
 10 33  1  0  0  0  0
 10 34  1  0  0  0  0
 11 16  1  0  0  0  0
 11 12  1  0  0  0  0
 12 13  1  0  0  0  0
 12 35  1  0  0  0  0
 12 36  1  0  0  0  0
 13 14  1  0  0  0  0
 13 37  1  0  0  0  0
 13 38  1  0  0  0  0
 14 15  1  0  0  0  0
 15 16  1  0  0  0  0
 15 39  1  0  0  0  0
 15 40  1  0  0  0  0
 16 41  1  0  0  0  0
 16 42  1  0  0  0  0
 17 18  1  0  0  0  0
 17 43  1  0  0  0  0
 18 23  1  0  0  0  0
 18 19  2  0  0  0  0
 19 20  1  0  0  0  0
 19 44  1  0  0  0  0
 20 21  2  0  0  0  0
 20 45  1  0  0  0  0
 21 22  1  0  0  0  0
 21 48  1  0  0  0  0
 22 23  2  0  0  0  0
 22 46  1  0  0  0  0
 23 47  1  0  0  0  0
M  CHG  1  21   1
M  END
> <s_m_source_file>
AV-unprocessed.smi

> <i_m_source_file_index>
1240

> <i_lp_mmshare_version>
43012

> <i_f3d_flags>
0

> <s_epik_input>
W2NIXTFbY0hdbltjSF1bY0hdYzFbTkhdQyg9TylbTkhdW0NIMl1bQ0BIXShbQ0BASF0yW0NIMl1bQ0gyXU9bQ0gyXTIpTjNbQ0gyXVtDSDJdT1tDSDJdW0NIMl0z

> <s_epik_cmdline>
J2VwaWtfcHl0aG9uJywgJy1waCcsICc3LjAnLCAnLXRuJywgJzgnLCAnLW1hJywgJzIwMCcsICctbWV0YWxfYmluZGluZycsICctaW1hZScsICc8aW5maWxlLm1hZT4nLCAnLW9tYWUnLCAnPG91dGZpbGUubWFlPic=

> <r_epik_Ionization_Penalty>
1.15944

> <r_epik_Ionization_Penalty_Charging>
1.0344

> <r_epik_Ionization_Penalty_Neutral>
0.125034

> <r_epik_State_Penalty>
1.2199

> <r_epik_Charging_Adjusted_Penalty>
2.25431

> <i_epik_Tot_Q>
1

> <i_epik_Tot_abs_Q>
1

> <r_epik_Metal_State_Penalty>
1.3155

> <b_epik_Metal_Only>
0

> <s_lp_Force_Field>
OPLS_2005

> <r_lp_Energy>
66.7815

> <b_lp_Chiralities_Consistent>
1

> <s_lp_Variant>
AV-unprocessed.smi:1240-9

> <Gold.Version>
5.8.1

> <Gold.Id.Protein>
6NUR|6NUR_protein|mol2

> <Gold.PLP.Fitness>
41.8941

> <Gold.PLP.PLP>
-32.0865

> <Gold.PLP.part.hbond>
-2.8747

> <Gold.PLP.part.metal>
0.0000

> <Gold.PLP.part.buried>
-6.8410

> <Gold.PLP.part.nonpolar>
-24.6357

> <Gold.PLP.part.repulsive>
0.9851

> <Gold.PLP.ligand.clash>
0.0000

> <Gold.PLP.ligand.torsion>
0.9824

> <Gold.PLP.Chemscore.Hbond>
3.8073

> <Gold.PLP.Chemscore.CHOScore>
0.0000

> <Gold.PLP.Chemscore.Metal>
0.0000

> <Gold.Chemscore.Hbonds>
donor molecule, donor type, donor heavy atom, donor atom, acceptor molecule, acceptor atom, score
      L1  H     3    24       P1  7948  0.93
      L1  H    17    43       P1  7948  0.83
      L1  H    21    48       P1  8028  2.00

> <Gold.PLP.Chemscore.Internal.Correction>
0.3507

> <Gold.Rescore>
     Score         DG    S(hbond)    S(metal)    S(lipo)     H(rot)  DE(clash)    DE(int)     intcor
     17.58     -19.74       2.74        0.00      80.69       1.69       0.04       2.11       ----

> <Gold.Chemscore.Fitness>
17.5846

> <Gold.Chemscore.DG>
-19.7362

> <Gold.Chemscore.ZeroCoef>
-5.4800

> <Gold.Chemscore.Hbond>
2.7382

> <Gold.Chemscore.Metal>
0.0000

> <Gold.Chemscore.Lipo>
80.6851

> <Gold.Chemscore.Internal_Hbond>
0.0000

> <Gold.Chemscore.DEClash>
0.0443

> <Gold.Chemscore.DEInternal>
2.1074

> <Gold.Chemscore.Rot>
1.6912

> <Gold.Chemscore.Internal.Correction>
   9.000000E+99

> <Gold.Chemscore.Hbonds>
donor molecule, donor type, donor heavy atom, donor atom, acceptor molecule, acceptor atom, score
      L1  H     3    24       P1  7948  0.88
      L1  H    17    43       P1  7948  0.79
      L1  H    21    48       P1  8028  0.78

> <Gold.Chemscore.Hbond.Weighted>
-9.1455

> <Gold.Chemscore.Metal.Weighted>
-0.0000

> <Gold.Chemscore.Lipo.Weighted>
-9.4402

> <Gold.Chemscore.Internal_Hbond.Weighted>
0.0000

> <Gold.Chemscore.DEClash.Weighted>
0.0443

> <Gold.Chemscore.DEInternal.Weighted>
2.1074

> <Gold.Chemscore.Rot.Weighted>
4.3295

> <Gold.Chemscore.Internal.Correction.Weighted>
   9.000000E+99

> <Gold.Protein.RotatedTorsions>
[ 6907 6896 6895 6894 ] final   28.51 input  -60.11 | X-H torsion
[ 7974 7965 7964 7962 ] final  -93.73 input  175.53 | X-H torsion
[ 8008 7997 7996 7995 ] final -165.52 input   59.86 | X-H torsion
[ 10167 10162 10161 10158 ] final -175.46 input  -65.29 | X-H torsion
[ 10718 10713 10712 10709 ] final  -32.86 input   66.30 | X-H torsion
[ 10763 10752 10751 10750 ] final -119.07 input  -60.55 | X-H torsion
[ 11005 11000 10999 10996 ] final  151.48 input  -57.11 | X-H torsion

> <Gold.Protein.ActiveResidues>
 VAL166  LYS551  ARG553  GLY616  TRP617  ASP618  TYR619  PRO620  LYS621  CYS622 
 ASP623  PHE694  ASN695  SER759  ASP760  ASP761  ALA762  ILE779  LEU786  VAL792 
 PHE793  MET794  SER795  GLU796  ALA797  LYS798  CYS799  TRP800  GLU811  SER814 

> <Gold.Protein.RotatedAtoms>
  152.0180  134.9839  160.0569 H   0  0  0  0  0  0  0  0  0  0  0  0  # atno 6907 bound_to 6896
  152.1365  133.4434  159.4754 H   0  0  0  0  0  0  0  0  0  0  0  0  # atno 6908 bound_to 6896
  150.6861  134.2275  159.4464 H   0  0  0  0  0  0  0  0  0  0  0  0  # atno 6909 bound_to 6896
  145.3827  140.9519  143.2385 H   0  0  0  0  0  0  0  0  0  0  0  0  # atno 7974 bound_to 7965
  155.8509  140.0963  157.1675 H   0  0  0  0  0  0  0  0  0  0  0  0  # atno 8008 bound_to 7997
  154.3985  140.1383  156.3905 H   0  0  0  0  0  0  0  0  0  0  0  0  # atno 8009 bound_to 7997
  155.7962  140.3454  155.5379 H   0  0  0  0  0  0  0  0  0  0  0  0  # atno 8010 bound_to 7997
  139.5580  144.1941  152.1192 H   0  0  0  0  0  0  0  0  0  0  0  0  # atno 10167 bound_to 10162
  156.3697  130.4337  149.7555 H   0  0  0  0  0  0  0  0  0  0  0  0  # atno 10718 bound_to 10713
  154.8606  135.4251  154.2240 H   0  0  0  0  0  0  0  0  0  0  0  0  # atno 10763 bound_to 10752
  153.3239  135.6984  153.7012 H   0  0  0  0  0  0  0  0  0  0  0  0  # atno 10764 bound_to 10752
  153.6055  135.3529  155.2934 H   0  0  0  0  0  0  0  0  0  0  0  0  # atno 10765 bound_to 10752
  140.1223  134.8856  157.2089 H   0  0  0  0  0  0  0  0  0  0  0  0  # atno 11005 bound_to 11000
  144.8496  139.5342  143.6862 LP  0  0  0  0  0  0  0  0  0  0  0  0  # atno 17320 bound_to 7965
  146.2835  139.6940  142.9212 LP  0  0  0  0  0  0  0  0  0  0  0  0  # atno 17321 bound_to 7965
  140.1449  144.5168  150.6722 LP  0  0  0  0  0  0  0  0  0  0  0  0  # atno 17342 bound_to 10162
  140.6856  143.2348  151.5270 LP  0  0  0  0  0  0  0  0  0  0  0  0  # atno 17343 bound_to 10162
  156.4687  130.7986  151.3005 LP  0  0  0  0  0  0  0  0  0  0  0  0  # atno 17370 bound_to 10713
  157.7482  131.0042  150.3069 LP  0  0  0  0  0  0  0  0  0  0  0  0  # atno 17371 bound_to 10713
  140.2950  134.3197  155.7305 LP  0  0  0  0  0  0  0  0  0  0  0  0  # atno 17394 bound_to 11000
  141.2154  133.7557  156.9558 LP  0  0  0  0  0  0  0  0  0  0  0  0  # atno 17395 bound_to 11000

$$$$
