AV-unprocessed.smi:1424|AV-procd|sdf|5801|dock5
  -GOLD-   22720 5453D 1   1.00000     0.00000
 Structure written by MMmdl.
 46 48  0  0  0  0  0  0  0  0  2 V2000
  145.4125  134.6005  154.2848 O   0  0  0  0  0  0  0  0  0  0  0  0
  146.3597  134.9721  153.5924 C   0  0  0  0  0  0  0  0  0  0  0  0
  147.3786  135.7053  154.0623 N   0  0  0  0  0  0  0  0  0  0  0  0
  147.5180  136.1598  155.4423 C   0  0  0  0  0  0  0  0  0  0  0  0
  148.7402  137.0852  155.6460 C   0  0  2  0  0  0  0  0  0  0  0  0
  150.0259  136.5304  154.9908 C   0  0  0  0  0  0  0  0  0  0  0  0
  150.6189  135.4345  155.8865 C   0  0  0  0  0  0  0  0  0  0  0  0
  150.1679  135.8924  157.6032 S   0  0  0  0  0  0  0  0  0  0  0  0
  149.3753  134.8026  158.1925 O   0  0  0  0  0  0  0  0  0  0  0  0
  151.3450  136.4350  158.2980 O   0  0  0  0  0  0  0  0  0  0  0  0
  149.0549  137.2735  157.1387 C   0  0  0  0  0  0  0  0  0  0  0  0
  146.5028  134.7237  152.2796 N   0  0  0  0  0  0  0  0  0  0  0  0
  145.6243  134.0056  151.4184 C   0  0  0  0  0  0  0  0  0  0  0  0
  146.1233  133.1225  150.4261 C   0  0  0  0  0  0  0  0  0  0  0  0
  145.2300  132.4104  149.6040 C   0  0  0  0  0  0  0  0  0  0  0  0
  143.8485  132.5941  149.7824 C   0  0  0  0  0  0  0  0  0  0  0  0
  143.4048  133.4558  150.7204 N   0  3  0  0  0  0  0  0  0  0  0  0
  144.2140  134.1819  151.5319 C   0  0  0  0  0  0  0  0  0  0  0  0
  143.6030  135.0570  152.4591 N   0  0  0  0  0  0  0  0  0  0  0  0
  142.2117  134.8635  152.8517 C   0  0  0  0  0  0  0  0  0  0  0  0
  141.8127  136.1611  153.5489 C   0  0  0  0  0  0  0  0  0  0  0  0
  142.5946  137.2091  152.7631 C   0  0  0  0  0  0  0  0  0  0  0  0
  143.8908  136.4858  152.3827 C   0  0  0  0  0  0  0  0  0  0  0  0
  148.1141  135.9682  153.4228 H   0  0  0  0  0  0  0  0  0  0  0  0
  146.6035  136.6708  155.7482 H   0  0  0  0  0  0  0  0  0  0  0  0
  147.5978  135.2779  156.0783 H   0  0  0  0  0  0  0  0  0  0  0  0
  148.5042  138.0577  155.2123 H   0  0  0  0  0  0  0  0  0  0  0  0
  149.8649  136.1746  153.9732 H   0  0  0  0  0  0  0  0  0  0  0  0
  150.7500  137.3428  154.9185 H   0  0  0  0  0  0  0  0  0  0  0  0
  150.1717  134.4650  155.6665 H   0  0  0  0  0  0  0  0  0  0  0  0
  151.7015  135.3484  155.7917 H   0  0  0  0  0  0  0  0  0  0  0  0
  149.5991  138.2046  157.2984 H   0  0  0  0  0  0  0  0  0  0  0  0
  148.1718  137.2804  157.7778 H   0  0  0  0  0  0  0  0  0  0  0  0
  147.2797  135.1804  151.8254 H   0  0  0  0  0  0  0  0  0  0  0  0
  147.1832  132.9826  150.2766 H   0  0  0  0  0  0  0  0  0  0  0  0
  145.6008  131.7320  148.8494 H   0  0  0  0  0  0  0  0  0  0  0  0
  143.0898  132.0886  149.2026 H   0  0  0  0  0  0  0  0  0  0  0  0
  141.5835  134.7132  151.9727 H   0  0  0  0  0  0  0  0  0  0  0  0
  142.0987  134.0000  153.5079 H   0  0  0  0  0  0  0  0  0  0  0  0
  140.7363  136.3350  153.5416 H   0  0  0  0  0  0  0  0  0  0  0  0
  142.1480  136.1472  154.5871 H   0  0  0  0  0  0  0  0  0  0  0  0
  142.0433  137.4743  151.8600 H   0  0  0  0  0  0  0  0  0  0  0  0
  142.7703  138.1240  153.3296 H   0  0  0  0  0  0  0  0  0  0  0  0
  144.6739  136.7242  153.1027 H   0  0  0  0  0  0  0  0  0  0  0  0
  144.2348  136.7840  151.3914 H   0  0  0  0  0  0  0  0  0  0  0  0
  142.3965  133.5749  150.8186 H   0  0  0  0  0  0  0  0  0  0  0  0
  1  2  2  0  0  0  0
  2  3  1  0  0  0  0
  2 12  1  0  0  0  0
  3  4  1  0  0  0  0
  3 24  1  0  0  0  0
  4  5  1  0  0  0  0
  4 25  1  0  0  0  0
  4 26  1  0  0  0  0
  5 11  1  0  0  0  0
  5  6  1  0  0  0  0
  5 27  1  0  0  0  0
  6  7  1  0  0  0  0
  6 28  1  0  0  0  0
  6 29  1  0  0  0  0
  7  8  1  0  0  0  0
  7 30  1  0  0  0  0
  7 31  1  0  0  0  0
  8  9  2  0  0  0  0
  8 10  2  0  0  0  0
  8 11  1  0  0  0  0
 11 32  1  0  0  0  0
 11 33  1  0  0  0  0
 12 13  1  0  0  0  0
 12 34  1  0  0  0  0
 13 18  1  0  0  0  0
 13 14  2  0  0  0  0
 14 15  1  0  0  0  0
 14 35  1  0  0  0  0
 15 16  2  0  0  0  0
 15 36  1  0  0  0  0
 16 17  1  0  0  0  0
 16 37  1  0  0  0  0
 17 18  2  0  0  0  0
 17 46  1  0  0  0  0
 18 19  1  0  0  0  0
 19 23  1  0  0  0  0
 19 20  1  0  0  0  0
 20 21  1  0  0  0  0
 20 38  1  0  0  0  0
 20 39  1  0  0  0  0
 21 22  1  0  0  0  0
 21 40  1  0  0  0  0
 21 41  1  0  0  0  0
 22 23  1  0  0  0  0
 22 42  1  0  0  0  0
 22 43  1  0  0  0  0
 23 44  1  0  0  0  0
 23 45  1  0  0  0  0
M  CHG  1  17   1
M  END
> <s_m_source_file>
AV-unprocessed.smi

> <i_m_source_file_index>
1424

> <i_lp_mmshare_version>
43012

> <i_f3d_flags>
0

> <s_epik_input>
Tz1TMSg9TylbQ0gyXVtDSDJdW0NASF0oW0NIMl0xKVtDSDJdW05IXUMoPU8pW05IXWMyW2NIXVtjSF1bY0hdbmMyTjNbQ0gyXVtDSDJdW0NIMl1bQ0gyXTM=

> <s_epik_cmdline>
J2VwaWtfcHl0aG9uJywgJy1waCcsICc3LjAnLCAnLXRuJywgJzgnLCAnLW1hJywgJzIwMCcsICctbWV0YWxfYmluZGluZycsICctaW1hZScsICc8aW5maWxlLm1hZT4nLCAnLW9tYWUnLCAnPG91dGZpbGUubWFlPic=

> <r_lp_tautomer_probability>
0.999994

> <r_epik_Ionization_Penalty>
1.12573

> <r_epik_Ionization_Penalty_Charging>
1.12571

> <r_epik_Ionization_Penalty_Neutral>
1.92863e-05

> <r_epik_State_Penalty>
1.18495

> <r_epik_Charging_Adjusted_Penalty>
2.31065

> <i_epik_Tot_Q>
1

> <i_epik_Tot_abs_Q>
1

> <r_epik_Metal_State_Penalty>
1.26881

> <b_epik_Metal_Only>
0

> <s_lp_Force_Field>
OPLS_2005

> <r_lp_Energy>
41.4787

> <b_lp_Chiralities_Consistent>
1

> <s_lp_Variant>
AV-unprocessed.smi:1424-3

> <Gold.Version>
5.8.1

> <Gold.Id.Protein>
6NUR|6NUR_protein|mol2

> <Gold.PLP.Fitness>
44.8035

> <Gold.PLP.PLP>
-32.5509

> <Gold.PLP.part.hbond>
-5.0000

> <Gold.PLP.part.metal>
0.0000

> <Gold.PLP.part.buried>
-5.4912

> <Gold.PLP.part.nonpolar>
-22.2666

> <Gold.PLP.part.repulsive>
0.2340

> <Gold.PLP.ligand.clash>
0.0000

> <Gold.PLP.ligand.torsion>
0.7096

> <Gold.PLP.Chemscore.Hbond>
4.4277

> <Gold.PLP.Chemscore.CHOScore>
0.0000

> <Gold.PLP.Chemscore.Metal>
0.0000

> <Gold.Chemscore.Hbonds>
donor molecule, donor type, donor heavy atom, donor atom, acceptor molecule, acceptor atom, score
      L1  H     3    24       P1  7948  1.00
      L1  H    12    34       P1  7948  1.00
      L1  H    17    46       P1 10186  1.21
      P1  H  6896  6907       L1    10  0.22
      P1  H  6896  6909       L1     9  1.00

> <Gold.PLP.Chemscore.Internal.Correction>
0.3888

> <Gold.Rescore>
     Score         DG    S(hbond)    S(metal)    S(lipo)     H(rot)  DE(clash)    DE(int)     intcor
     15.87     -20.65       3.39        0.00      65.50       1.50       0.26       4.51       ----

> <Gold.Chemscore.Fitness>
15.8737

> <Gold.Chemscore.DG>
-20.6493

> <Gold.Chemscore.ZeroCoef>
-5.4800

> <Gold.Chemscore.Hbond>
3.3939

> <Gold.Chemscore.Metal>
0.0000

> <Gold.Chemscore.Lipo>
65.5043

> <Gold.Chemscore.Internal_Hbond>
0.0000

> <Gold.Chemscore.DEClash>
0.2628

> <Gold.Chemscore.DEInternal>
4.5127

> <Gold.Chemscore.Rot>
1.4962

> <Gold.Chemscore.Internal.Correction>
   9.000000E+99

> <Gold.Chemscore.Hbonds>
donor molecule, donor type, donor heavy atom, donor atom, acceptor molecule, acceptor atom, score
      L1  H     3    24       P1  7948  0.99
      L1  H    12    34       P1  7948  0.94
      L1  H    17    46       P1 10186  0.51
      P1  H  6896  6907       L1    10  0.14
      P1  H  6896  6909       L1     9  0.24

> <Gold.Chemscore.Hbond.Weighted>
-11.3356

> <Gold.Chemscore.Metal.Weighted>
-0.0000

> <Gold.Chemscore.Lipo.Weighted>
-7.6640

> <Gold.Chemscore.Internal_Hbond.Weighted>
0.0000

> <Gold.Chemscore.DEClash.Weighted>
0.2628

> <Gold.Chemscore.DEInternal.Weighted>
4.5127

> <Gold.Chemscore.Rot.Weighted>
3.8303

> <Gold.Chemscore.Internal.Correction.Weighted>
   9.000000E+99

> <Gold.Protein.RotatedTorsions>
[ 6907 6896 6895 6894 ] final   14.85 input  -60.11 | X-H torsion
[ 7974 7965 7964 7962 ] final  160.23 input  175.53 | X-H torsion
[ 8008 7997 7996 7995 ] final  -99.13 input   59.86 | X-H torsion
[ 10167 10162 10161 10158 ] final  -44.55 input  -65.29 | X-H torsion
[ 10718 10713 10712 10709 ] final -112.95 input   66.30 | X-H torsion
[ 10763 10752 10751 10750 ] final  -52.00 input  -60.55 | X-H torsion
[ 11005 11000 10999 10996 ] final  170.99 input  -57.11 | X-H torsion

> <Gold.Protein.ActiveResidues>
 VAL166  LYS551  ARG553  GLY616  TRP617  ASP618  TYR619  PRO620  LYS621  CYS622 
 ASP623  PHE694  ASN695  SER759  ASP760  ASP761  ALA762  ILE779  LEU786  VAL792 
 PHE793  MET794  SER795  GLU796  ALA797  LYS798  CYS799  TRP800  GLU811  SER814 

> <Gold.Protein.RotatedAtoms>
  151.8087  135.0687  160.0409 H   0  0  0  0  0  0  0  0  0  0  0  0  # atno 6907 bound_to 6896
  152.3036  133.5676  159.5643 H   0  0  0  0  0  0  0  0  0  0  0  0  # atno 6908 bound_to 6896
  150.7285  134.0171  159.3731 H   0  0  0  0  0  0  0  0  0  0  0  0  # atno 6909 bound_to 6896
  144.7748  139.7729  143.6283 H   0  0  0  0  0  0  0  0  0  0  0  0  # atno 7974 bound_to 7965
  154.8106  140.0450  157.1340 H   0  0  0  0  0  0  0  0  0  0  0  0  # atno 8008 bound_to 7997
  154.9372  140.3048  155.5118 H   0  0  0  0  0  0  0  0  0  0  0  0  # atno 8009 bound_to 7997
  156.2971  140.2312  156.4438 H   0  0  0  0  0  0  0  0  0  0  0  0  # atno 8010 bound_to 7997
  140.6892  143.2924  151.3511 H   0  0  0  0  0  0  0  0  0  0  0  0  # atno 10167 bound_to 10162
  156.0736  130.5947  150.8577 H   0  0  0  0  0  0  0  0  0  0  0  0  # atno 10718 bound_to 10713
  154.1357  135.6513  153.4931 H   0  0  0  0  0  0  0  0  0  0  0  0  # atno 10763 bound_to 10752
  153.0181  135.5303  154.6955 H   0  0  0  0  0  0  0  0  0  0  0  0  # atno 10764 bound_to 10752
  154.6203  135.2964  155.0304 H   0  0  0  0  0  0  0  0  0  0  0  0  # atno 10765 bound_to 10752
  140.3143  134.7491  157.4015 H   0  0  0  0  0  0  0  0  0  0  0  0  # atno 11005 bound_to 11000
  146.1919  139.5164  142.9799 LP  0  0  0  0  0  0  0  0  0  0  0  0  # atno 17320 bound_to 7965
  145.6219  141.0321  143.1910 LP  0  0  0  0  0  0  0  0  0  0  0  0  # atno 17321 bound_to 7965
  139.6279  144.0778  152.2451 LP  0  0  0  0  0  0  0  0  0  0  0  0  # atno 17342 bound_to 10162
  140.0243  144.6129  150.7540 LP  0  0  0  0  0  0  0  0  0  0  0  0  # atno 17343 bound_to 10162
  157.5821  131.0946  150.9255 LP  0  0  0  0  0  0  0  0  0  0  0  0  # atno 17370 bound_to 10713
  156.9449  130.5398  149.5281 LP  0  0  0  0  0  0  0  0  0  0  0  0  # atno 17371 bound_to 10713
  140.0997  134.5489  155.8364 LP  0  0  0  0  0  0  0  0  0  0  0  0  # atno 17394 bound_to 11000
  141.2101  133.6691  156.6487 LP  0  0  0  0  0  0  0  0  0  0  0  0  # atno 17395 bound_to 11000

$$$$
