AV-unprocessed.smi:893|AV-procd|sdf|4069|dock4
  -GOLD-   22720 1553D 1   1.00000     0.00000
 Structure written by MMmdl.
 26 27  0  0  0  0  0  0  0  0  2 V2000
  151.1773  138.9015  158.7567 C   0  0  0  0  0  0  0  0  0  0  0  0
  150.0652  139.7051  158.0638 C   0  0  0  0  0  0  0  0  0  0  0  0
  150.5809  140.7988  157.0963 C   0  0  2  0  0  0  0  0  0  0  0  0
  151.3146  141.9150  157.8193 C   0  0  0  0  0  0  0  0  0  0  0  0
  152.4651  141.8244  158.6582 C   0  0  0  0  0  0  0  0  0  0  0  0
  152.8562  142.9953  159.1339 N   0  0  0  0  0  0  0  0  0  0  0  0
  151.9725  143.8750  158.6227 N   0  0  0  0  0  0  0  0  0  0  0  0
  152.0957  145.2800  158.9466 C   0  0  0  0  0  0  0  0  0  0  0  0
  151.0355  143.2547  157.8261 C   0  0  0  0  0  0  0  0  0  0  0  0
  149.5009  141.2969  156.2675 N   0  0  0  0  0  0  0  0  0  0  0  0
  149.7312  141.0713  154.9754 C   0  0  0  0  0  0  0  0  0  0  0  0
  148.9391  141.4280  154.1064 O   0  0  0  0  0  0  0  0  0  0  0  0
  150.9038  140.4265  154.8185 N   0  5  0  0  0  0  0  0  0  0  0  0
  151.4918  140.2031  156.0142 C   0  0  0  0  0  0  0  0  0  0  0  0
  152.5495  139.6329  156.2818 O   0  0  0  0  0  0  0  0  0  0  0  0
  150.7511  138.1468  159.4177 H   0  0  0  0  0  0  0  0  0  0  0  0
  151.8165  139.5451  159.3614 H   0  0  0  0  0  0  0  0  0  0  0  0
  151.8086  138.3859  158.0329 H   0  0  0  0  0  0  0  0  0  0  0  0
  149.4183  139.0125  157.5232 H   0  0  0  0  0  0  0  0  0  0  0  0
  149.4364  140.1590  158.8317 H   0  0  0  0  0  0  0  0  0  0  0  0
  153.0263  140.9437  158.9344 H   0  0  0  0  0  0  0  0  0  0  0  0
  151.2959  145.8458  158.4679 H   0  0  0  0  0  0  0  0  0  0  0  0
  153.0568  145.6567  158.5957 H   0  0  0  0  0  0  0  0  0  0  0  0
  152.0290  145.4168  160.0264 H   0  0  0  0  0  0  0  0  0  0  0  0
  150.2492  143.8091  157.3350 H   0  0  0  0  0  0  0  0  0  0  0  0
  148.6852  141.7627  156.6366 H   0  0  0  0  0  0  0  0  0  0  0  0
  1  2  1  0  0  0  0
  1 16  1  0  0  0  0
  1 17  1  0  0  0  0
  1 18  1  0  0  0  0
  2  3  1  0  0  0  0
  2 19  1  0  0  0  0
  2 20  1  0  0  0  0
  3 14  1  0  0  0  0
  3  4  1  0  0  0  0
  3 10  1  0  0  0  0
  4  9  2  0  0  0  0
  4  5  1  0  0  0  0
  5  6  2  0  0  0  0
  5 21  1  0  0  0  0
  6  7  1  0  0  0  0
  7  8  1  0  0  0  0
  7  9  1  0  0  0  0
  8 22  1  0  0  0  0
  8 23  1  0  0  0  0
  8 24  1  0  0  0  0
  9 25  1  0  0  0  0
 10 11  1  0  0  0  0
 10 26  1  0  0  0  0
 11 12  2  0  0  0  0
 11 13  1  0  0  0  0
 13 14  1  0  0  0  0
 14 15  2  0  0  0  0
M  CHG  1  13  -1
M  END
> <s_m_source_file>
AV-unprocessed.smi

> <i_m_source_file_index>
893

> <i_lp_mmshare_version>
43012

> <i_f3d_flags>
0

> <s_epik_input>
Tz1DMVtOSF1DKD1PKVtOSF1bQ0BAXTEoW0NIMl1bQ0gzXSljMltjSF1ubihbQ0gzXSlbY0hdMg==

> <s_epik_cmdline>
J2VwaWtfcHl0aG9uJywgJy1waCcsICc3LjAnLCAnLXRuJywgJzgnLCAnLW1hJywgJzIwMCcsICctbWV0YWxfYmluZGluZycsICctaW1hZScsICc8aW5maWxlLm1hZT4nLCAnLW9tYWUnLCAnPG91dGZpbGUubWFlPic=

> <r_lp_tautomer_probability>
1

> <r_epik_Ionization_Penalty>
1.92579

> <r_epik_Ionization_Penalty_Charging>
1.92573

> <r_epik_Ionization_Penalty_Neutral>
5.85665e-05

> <r_epik_State_Penalty>
2.04887

> <r_epik_Charging_Adjusted_Penalty>
3.97461

> <i_epik_Tot_Q>
-1

> <i_epik_Tot_abs_Q>
1

> <r_epik_Metal_State_Penalty>
0.530533

> <b_epik_Metal_Only>
0

> <s_lp_Force_Field>
OPLS_2005

> <r_lp_Energy>
5.94643

> <b_lp_Chiralities_Consistent>
1

> <s_lp_Variant>
AV-unprocessed.smi:893-4

> <Gold.Version>
5.8.1

> <Gold.Id.Protein>
6NUR|6NUR_protein|mol2

> <Gold.PLP.Fitness>
41.1377

> <Gold.PLP.PLP>
-30.1409

> <Gold.PLP.part.hbond>
-3.4347

> <Gold.PLP.part.metal>
0.0000

> <Gold.PLP.part.buried>
-4.0237

> <Gold.PLP.part.nonpolar>
-22.4217

> <Gold.PLP.part.repulsive>
0.3237

> <Gold.PLP.ligand.clash>
0.0000

> <Gold.PLP.ligand.torsion>
0.1110

> <Gold.PLP.Chemscore.Hbond>
2.6978

> <Gold.PLP.Chemscore.CHOScore>
1.0000

> <Gold.PLP.Chemscore.Metal>
0.0000

> <Gold.Chemscore.Hbonds>
donor molecule, donor type, donor heavy atom, donor atom, acceptor molecule, acceptor atom, score
      P1  H  7989  7998       L1    13  1.00
      P1  H  7997  8008       L1    15  1.00
      P1  H  8011  8017       L1    12  0.39
      L1  C     9    25       P1  8028  1.00

> <Gold.PLP.Chemscore.Internal.Correction>
0.1253

> <Gold.Rescore>
     Score         DG    S(hbond)    S(metal)    S(lipo)     H(rot)  DE(clash)    DE(int)     intcor
     14.51     -15.72       2.26        0.00      50.99       1.28       0.01       1.20       ----

> <Gold.Chemscore.Fitness>
14.5082

> <Gold.Chemscore.DG>
-15.7169

> <Gold.Chemscore.ZeroCoef>
-5.4800

> <Gold.Chemscore.Hbond>
2.2603

> <Gold.Chemscore.Metal>
0.0000

> <Gold.Chemscore.Lipo>
50.9877

> <Gold.Chemscore.Internal_Hbond>
0.0000

> <Gold.Chemscore.DEClash>
0.0060

> <Gold.Chemscore.DEInternal>
1.2027

> <Gold.Chemscore.Rot>
1.2805

> <Gold.Chemscore.Internal.Correction>
   9.000000E+99

> <Gold.Chemscore.Hbonds>
donor molecule, donor type, donor heavy atom, donor atom, acceptor molecule, acceptor atom, score
      P1  H  7989  7998       L1    13  0.75
      P1  H  7997  8008       L1    15  1.00
      P1  H  8011  8017       L1    12  0.37

> <Gold.Chemscore.Hbond.Weighted>
-7.5496

> <Gold.Chemscore.Metal.Weighted>
-0.0000

> <Gold.Chemscore.Lipo.Weighted>
-5.9656

> <Gold.Chemscore.Internal_Hbond.Weighted>
0.0000

> <Gold.Chemscore.DEClash.Weighted>
0.0060

> <Gold.Chemscore.DEInternal.Weighted>
1.2027

> <Gold.Chemscore.Rot.Weighted>
3.2782

> <Gold.Chemscore.Internal.Correction.Weighted>
   9.000000E+99

> <Gold.Protein.RotatedTorsions>
[ 6907 6896 6895 6894 ] final   27.68 input  -60.11 | X-H torsion
[ 7974 7965 7964 7962 ] final  107.15 input  175.53 | X-H torsion
[ 8008 7997 7996 7995 ] final  -37.22 input   59.86 | X-H torsion
[ 10167 10162 10161 10158 ] final   19.49 input  -65.29 | X-H torsion
[ 10718 10713 10712 10709 ] final -151.10 input   66.30 | X-H torsion
[ 10763 10752 10751 10750 ] final  123.21 input  -60.55 | X-H torsion
[ 11005 11000 10999 10996 ] final -131.67 input  -57.11 | X-H torsion

> <Gold.Protein.ActiveResidues>
 VAL166  LYS551  ARG553  GLY616  TRP617  ASP618  TYR619  PRO620  LYS621  CYS622 
 ASP623  PHE694  ASN695  SER759  ASP760  ASP761  ALA762  ILE779  LEU786  VAL792 
 PHE793  MET794  SER795  GLU796  ALA797  LYS798  CYS799  TRP800  GLU811  SER814 

> <Gold.Protein.RotatedAtoms>
  152.0059  134.9903  160.0566 H   0  0  0  0  0  0  0  0  0  0  0  0  # atno 6907 bound_to 6896
  152.1475  133.4497  159.4805 H   0  0  0  0  0  0  0  0  0  0  0  0  # atno 6908 bound_to 6896
  150.6872  134.2148  159.4416 H   0  0  0  0  0  0  0  0  0  0  0  0  # atno 6909 bound_to 6896
  145.2973  139.2580  143.3832 H   0  0  0  0  0  0  0  0  0  0  0  0  # atno 7974 bound_to 7965
  154.4057  140.1610  156.2501 H   0  0  0  0  0  0  0  0  0  0  0  0  # atno 8008 bound_to 7997
  155.9126  140.3426  155.6088 H   0  0  0  0  0  0  0  0  0  0  0  0  # atno 8009 bound_to 7997
  155.7317  140.0781  157.2276 H   0  0  0  0  0  0  0  0  0  0  0  0  # atno 8010 bound_to 7997
  140.5575  143.9397  150.6619 H   0  0  0  0  0  0  0  0  0  0  0  0  # atno 10167 bound_to 10162
  156.4548  130.8185  151.2416 H   0  0  0  0  0  0  0  0  0  0  0  0  # atno 10718 bound_to 10713
  153.6420  135.3377  155.3074 H   0  0  0  0  0  0  0  0  0  0  0  0  # atno 10763 bound_to 10752
  154.8557  135.4320  154.1994 H   0  0  0  0  0  0  0  0  0  0  0  0  # atno 10764 bound_to 10752
  153.2916  135.7017  153.7362 H   0  0  0  0  0  0  0  0  0  0  0  0  # atno 10765 bound_to 10752
  140.9238  134.1410  157.4292 H   0  0  0  0  0  0  0  0  0  0  0  0  # atno 11005 bound_to 11000
  146.3164  140.3479  142.8653 LP  0  0  0  0  0  0  0  0  0  0  0  0  # atno 17320 bound_to 7965
  144.9122  140.7771  143.5800 LP  0  0  0  0  0  0  0  0  0  0  0  0  # atno 17321 bound_to 7965
  140.2839  143.3370  152.1125 LP  0  0  0  0  0  0  0  0  0  0  0  0  # atno 17342 bound_to 10162
  139.5055  144.6795  151.6043 LP  0  0  0  0  0  0  0  0  0  0  0  0  # atno 17343 bound_to 10162
  157.7501  131.0126  150.3392 LP  0  0  0  0  0  0  0  0  0  0  0  0  # atno 17370 bound_to 10713
  156.3779  130.3875  149.7125 LP  0  0  0  0  0  0  0  0  0  0  0  0  # atno 17371 bound_to 10713
  139.8781  134.9981  156.5881 LP  0  0  0  0  0  0  0  0  0  0  0  0  # atno 17394 bound_to 11000
  140.7953  133.8549  155.8681 LP  0  0  0  0  0  0  0  0  0  0  0  0  # atno 17395 bound_to 11000

$$$$
