AV-unprocessed.smi:1005|AV-procd|sdf|4373|dock5
  -GOLD-   22720 2283D 1   1.00000     0.00000
 Structure written by MMmdl.
 57 59  0  0  0  0  0  0  0  0  3 V2000
  152.8613  143.0108  160.8870 C   0  0  0  0  0  0  0  0  0  0  0  0
  152.2604  142.5328  159.5769 C   0  0  0  0  0  0  0  0  0  0  0  0
  152.7860  141.3741  158.9621 C   0  0  0  0  0  0  0  0  0  0  0  0
  152.2538  140.8951  157.7454 C   0  0  0  0  0  0  0  0  0  0  0  0
  152.6065  139.7969  156.9800 N   0  0  0  0  0  0  0  0  0  0  0  0
  151.7444  139.8837  155.9718 C   0  0  0  0  0  0  0  0  0  0  0  0
  150.8629  140.9021  156.0006 N   0  0  0  0  0  0  0  0  0  0  0  0
  149.8229  141.1891  155.0291 C   0  0  0  0  0  0  0  0  0  0  0  0
  149.0451  139.9260  154.6081 C   0  0  1  0  0  0  0  0  0  0  0  0
  149.7996  139.2585  153.6169 O   0  0  0  0  0  0  0  0  0  0  0  0
  148.7854  138.9471  155.7744 C   0  0  0  0  0  0  0  0  0  0  0  0
  147.4561  138.2923  155.6815 N   0  3  2  0  0  0  0  0  0  0  0  0
  146.9026  137.8875  156.9973 C   0  0  0  0  0  0  0  0  0  0  0  0
  145.5146  137.2520  156.8205 C   0  0  0  0  0  0  0  0  0  0  0  0
  145.6087  136.1466  155.9302 O   0  0  0  0  0  0  0  0  0  0  0  0
  146.0442  136.5284  154.6297 C   0  0  2  0  0  0  0  0  0  0  0  0
  146.0180  135.2620  153.7499 C   0  0  0  0  0  0  0  0  0  0  0  0
  146.4256  135.5114  152.3427 N   0  3  0  0  0  0  0  0  0  0  0  0
  145.6899  136.6287  151.7062 C   0  0  0  0  0  0  0  0  0  0  0  0
  146.3601  134.2830  151.5202 C   0  0  0  0  0  0  0  0  0  0  0  0
  147.4557  137.1427  154.7453 C   0  0  0  0  0  0  0  0  0  0  0  0
  151.1711  141.6116  157.1565 C   0  0  0  0  0  0  0  0  0  0  0  0
  150.6430  142.7688  157.7558 C   0  0  0  0  0  0  0  0  0  0  0  0
  151.1865  143.2334  158.9716 C   0  0  0  0  0  0  0  0  0  0  0  0
  150.6074  144.4823  159.6125 C   0  0  0  0  0  0  0  0  0  0  0  0
  153.6849  142.3707  161.2048 H   0  0  0  0  0  0  0  0  0  0  0  0
  152.1092  143.0048  161.6765 H   0  0  0  0  0  0  0  0  0  0  0  0
  153.2476  144.0249  160.7836 H   0  0  0  0  0  0  0  0  0  0  0  0
  153.6055  140.8414  159.4219 H   0  0  0  0  0  0  0  0  0  0  0  0
  151.7459  139.1576  155.1719 H   0  0  0  0  0  0  0  0  0  0  0  0
  149.1466  141.9265  155.4636 H   0  0  0  0  0  0  0  0  0  0  0  0
  150.2824  141.6596  154.1584 H   0  0  0  0  0  0  0  0  0  0  0  0
  148.1035  140.2361  154.1571 H   0  0  0  0  0  0  0  0  0  0  0  0
  149.6149  139.6559  152.7788 H   0  0  0  0  0  0  0  0  0  0  0  0
  149.5728  138.1915  155.7710 H   0  0  0  0  0  0  0  0  0  0  0  0
  148.8561  139.4512  156.7391 H   0  0  0  0  0  0  0  0  0  0  0  0
  147.5772  137.1758  157.4764 H   0  0  0  0  0  0  0  0  0  0  0  0
  146.8231  138.7467  157.6624 H   0  0  0  0  0  0  0  0  0  0  0  0
  145.1385  136.9001  157.7813 H   0  0  0  0  0  0  0  0  0  0  0  0
  144.7952  137.9810  156.4443 H   0  0  0  0  0  0  0  0  0  0  0  0
  145.3455  137.2686  154.2384 H   0  0  0  0  0  0  0  0  0  0  0  0
  146.6846  134.5226  154.1964 H   0  0  0  0  0  0  0  0  0  0  0  0
  145.0223  134.8153  153.7595 H   0  0  0  0  0  0  0  0  0  0  0  0
  144.6206  136.4176  151.6603 H   0  0  0  0  0  0  0  0  0  0  0  0
  146.0463  136.7904  150.6883 H   0  0  0  0  0  0  0  0  0  0  0  0
  145.8311  137.5630  152.2479 H   0  0  0  0  0  0  0  0  0  0  0  0
  145.3384  133.9055  151.4609 H   0  0  0  0  0  0  0  0  0  0  0  0
  146.9913  133.4999  151.9420 H   0  0  0  0  0  0  0  0  0  0  0  0
  146.7124  134.4766  150.5065 H   0  0  0  0  0  0  0  0  0  0  0  0
  147.7940  137.4769  153.7637 H   0  0  0  0  0  0  0  0  0  0  0  0
  148.1687  136.3928  155.0927 H   0  0  0  0  0  0  0  0  0  0  0  0
  149.8270  143.2955  157.2842 H   0  0  0  0  0  0  0  0  0  0  0  0
  149.7950  144.8970  159.0149 H   0  0  0  0  0  0  0  0  0  0  0  0
  151.3742  145.2511  159.7127 H   0  0  0  0  0  0  0  0  0  0  0  0
  150.2123  144.2552  160.6030 H   0  0  0  0  0  0  0  0  0  0  0  0
  147.4000  135.7761  152.3631 H   0  0  0  0  0  0  0  0  0  0  0  0
  146.8279  138.9809  155.2912 H   0  0  0  0  0  0  0  0  0  0  0  0
  1  2  1  0  0  0  0
  1 26  1  0  0  0  0
  1 27  1  0  0  0  0
  1 28  1  0  0  0  0
  2 24  1  0  0  0  0
  2  3  2  0  0  0  0
  3  4  1  0  0  0  0
  3 29  1  0  0  0  0
  4 22  2  0  0  0  0
  4  5  1  0  0  0  0
  5  6  2  0  0  0  0
  6  7  1  0  0  0  0
  6 30  1  0  0  0  0
  7  8  1  0  0  0  0
  7 22  1  0  0  0  0
  8  9  1  0  0  0  0
  8 31  1  0  0  0  0
  8 32  1  0  0  0  0
  9 10  1  0  0  0  0
  9 11  1  0  0  0  0
  9 33  1  0  0  0  0
 10 34  1  0  0  0  0
 11 12  1  0  0  0  0
 11 35  1  0  0  0  0
 11 36  1  0  0  0  0
 12 21  1  0  0  0  0
 12 13  1  0  0  0  0
 12 57  1  0  0  0  0
 13 14  1  0  0  0  0
 13 37  1  0  0  0  0
 13 38  1  0  0  0  0
 14 15  1  0  0  0  0
 14 39  1  0  0  0  0
 14 40  1  0  0  0  0
 15 16  1  0  0  0  0
 16 17  1  0  0  0  0
 16 21  1  0  0  0  0
 16 41  1  0  0  0  0
 17 18  1  0  0  0  0
 17 42  1  0  0  0  0
 17 43  1  0  0  0  0
 18 19  1  0  0  0  0
 18 20  1  0  0  0  0
 18 56  1  0  0  0  0
 19 44  1  0  0  0  0
 19 45  1  0  0  0  0
 19 46  1  0  0  0  0
 20 47  1  0  0  0  0
 20 48  1  0  0  0  0
 20 49  1  0  0  0  0
 21 50  1  0  0  0  0
 21 51  1  0  0  0  0
 22 23  1  0  0  0  0
 23 24  2  0  0  0  0
 23 52  1  0  0  0  0
 24 25  1  0  0  0  0
 25 53  1  0  0  0  0
 25 54  1  0  0  0  0
 25 55  1  0  0  0  0
M  CHG  1  12   1
M  CHG  1  18   1
M  END
> <s_m_source_file>
AV-unprocessed.smi

> <i_m_source_file_index>
1005

> <i_lp_mmshare_version>
43012

> <i_f3d_flags>
0

> <s_epik_input>
W0NIM11jKFtjSF0xKWMoW0NIM10pW2NIXWMoYzEyKW4oW2NIXW4yKVtDSDJdW0NASF0oW09IXSlbQ0gyXU4zW0NIMl1bQ0gyXU9bQ0BIXShbQ0gyXTMpW0NIMl1OKFtDSDNdKVtDSDNd

> <s_epik_cmdline>
J2VwaWtfcHl0aG9uJywgJy1waCcsICc3LjAnLCAnLXRuJywgJzgnLCAnLW1hJywgJzIwMCcsICctbWV0YWxfYmluZGluZycsICctaW1hZScsICc8aW5maWxlLm1hZT4nLCAnLW9tYWUnLCAnPG91dGZpbGUubWFlPic=

> <r_epik_Ionization_Penalty>
1.0968

> <r_epik_Ionization_Penalty_Charging>
1.0096

> <r_epik_Ionization_Penalty_Neutral>
0.0871956

> <r_epik_State_Penalty>
1.31185

> <r_epik_Charging_Adjusted_Penalty>
2.32145

> <i_epik_Tot_Q>
2

> <i_epik_Tot_abs_Q>
2

> <r_epik_Metal_State_Penalty>
1.22442

> <b_epik_Metal_Only>
0

> <s_lp_Force_Field>
OPLS_2005

> <r_lp_Energy>
33.9928

> <b_lp_Chiralities_Consistent>
1

> <s_lp_Variant>
AV-unprocessed.smi:1005-12

> <Gold.Version>
5.8.1

> <Gold.Id.Protein>
6NUR|6NUR_protein|mol2

> <Gold.PLP.Fitness>
49.0688

> <Gold.PLP.PLP>
-39.3903

> <Gold.PLP.part.hbond>
-3.1892

> <Gold.PLP.part.metal>
0.0000

> <Gold.PLP.part.buried>
-3.8047

> <Gold.PLP.part.nonpolar>
-31.6847

> <Gold.PLP.part.repulsive>
0.0096

> <Gold.PLP.ligand.clash>
0.0000

> <Gold.PLP.ligand.torsion>
1.2021

> <Gold.PLP.Chemscore.Hbond>
4.0000

> <Gold.PLP.Chemscore.CHOScore>
0.0000

> <Gold.PLP.Chemscore.Metal>
0.0000

> <Gold.Chemscore.Hbonds>
donor molecule, donor type, donor heavy atom, donor atom, acceptor molecule, acceptor atom, score
      L1  H    10    34       P1  7957  1.00
      L1  H    18    56       P1  7948  2.00
      P1  H  7997  8009       L1     5  1.00

> <Gold.PLP.Chemscore.Internal.Correction>
0.0828

> <Gold.Rescore>
     Score         DG    S(hbond)    S(metal)    S(lipo)     H(rot)  DE(clash)    DE(int)     intcor
     18.99     -20.24       2.83        0.00      99.70       2.48       0.20       1.05       ----

> <Gold.Chemscore.Fitness>
18.9941

> <Gold.Chemscore.DG>
-20.2414

> <Gold.Chemscore.ZeroCoef>
-5.4800

> <Gold.Chemscore.Hbond>
2.8289

> <Gold.Chemscore.Metal>
0.0000

> <Gold.Chemscore.Lipo>
99.7029

> <Gold.Chemscore.Internal_Hbond>
0.0000

> <Gold.Chemscore.DEClash>
0.1958

> <Gold.Chemscore.DEInternal>
1.0515

> <Gold.Chemscore.Rot>
2.4814

> <Gold.Chemscore.Internal.Correction>
   9.000000E+99

> <Gold.Chemscore.Hbonds>
donor molecule, donor type, donor heavy atom, donor atom, acceptor molecule, acceptor atom, score
      L1  H    10    34       P1  7957  1.00
      L1  H    18    56       P1  7948  0.99
      P1  H  7997  8009       L1     5  0.41

> <Gold.Chemscore.Hbond.Weighted>
-9.4485

> <Gold.Chemscore.Metal.Weighted>
-0.0000

> <Gold.Chemscore.Lipo.Weighted>
-11.6652

> <Gold.Chemscore.Internal_Hbond.Weighted>
0.0000

> <Gold.Chemscore.DEClash.Weighted>
0.1958

> <Gold.Chemscore.DEInternal.Weighted>
1.0515

> <Gold.Chemscore.Rot.Weighted>
6.3524

> <Gold.Chemscore.Internal.Correction.Weighted>
   9.000000E+99

> <Gold.Protein.RotatedTorsions>
[ 6907 6896 6895 6894 ] final -157.63 input  -60.11 | X-H torsion
[ 7974 7965 7964 7962 ] final   28.23 input  175.53 | X-H torsion
[ 8008 7997 7996 7995 ] final -167.06 input   59.86 | X-H torsion
[ 10167 10162 10161 10158 ] final   37.86 input  -65.29 | X-H torsion
[ 10718 10713 10712 10709 ] final  103.17 input   66.30 | X-H torsion
[ 10763 10752 10751 10750 ] final  -29.91 input  -60.55 | X-H torsion
[ 11005 11000 10999 10996 ] final  -78.04 input  -57.11 | X-H torsion

> <Gold.Protein.ActiveResidues>
 VAL166  LYS551  ARG553  GLY616  TRP617  ASP618  TYR619  PRO620  LYS621  CYS622 
 ASP623  PHE694  ASN695  SER759  ASP760  ASP761  ALA762  ILE779  LEU786  VAL792 
 PHE793  MET794  SER795  GLU796  ALA797  LYS798  CYS799  TRP800  GLU811  SER814 

> <Gold.Protein.RotatedAtoms>
  151.3057  133.4102  159.2642 H   0  0  0  0  0  0  0  0  0  0  0  0  # atno 6907 bound_to 6896
  151.0157  134.9431  159.8042 H   0  0  0  0  0  0  0  0  0  0  0  0  # atno 6908 bound_to 6896
  152.5312  134.3021  159.9135 H   0  0  0  0  0  0  0  0  0  0  0  0  # atno 6909 bound_to 6896
  146.1740  139.7084  142.8947 H   0  0  0  0  0  0  0  0  0  0  0  0  # atno 7974 bound_to 7965
  155.8725  140.0995  157.1540 H   0  0  0  0  0  0  0  0  0  0  0  0  # atno 8008 bound_to 7997
  154.3998  140.1344  156.4159 H   0  0  0  0  0  0  0  0  0  0  0  0  # atno 8009 bound_to 7997
  155.7734  140.3460  155.5261 H   0  0  0  0  0  0  0  0  0  0  0  0  # atno 8010 bound_to 7997
  140.3992  144.1747  150.6133 H   0  0  0  0  0  0  0  0  0  0  0  0  # atno 10167 bound_to 10162
  157.6780  131.0772  150.5515 H   0  0  0  0  0  0  0  0  0  0  0  0  # atno 10718 bound_to 10713
  153.7723  135.6911  153.4904 H   0  0  0  0  0  0  0  0  0  0  0  0  # atno 10763 bound_to 10752
  153.1866  135.4486  155.0095 H   0  0  0  0  0  0  0  0  0  0  0  0  # atno 10764 bound_to 10752
  154.8113  135.3379  154.7232 H   0  0  0  0  0  0  0  0  0  0  0  0  # atno 10765 bound_to 10752
  141.1663  133.7047  156.7911 H   0  0  0  0  0  0  0  0  0  0  0  0  # atno 11005 bound_to 11000
  145.4261  141.0411  143.2936 LP  0  0  0  0  0  0  0  0  0  0  0  0  # atno 17320 bound_to 7965
  144.8208  139.5796  143.6988 LP  0  0  0  0  0  0  0  0  0  0  0  0  # atno 17321 bound_to 7965
  140.4758  143.2396  151.9025 LP  0  0  0  0  0  0  0  0  0  0  0  0  # atno 17342 bound_to 10162
  139.4785  144.5322  151.8650 LP  0  0  0  0  0  0  0  0  0  0  0  0  # atno 17343 bound_to 10162
  156.5820  130.4307  149.5973 LP  0  0  0  0  0  0  0  0  0  0  0  0  # atno 17370 bound_to 10713
  156.2654  130.6986  151.1767 LP  0  0  0  0  0  0  0  0  0  0  0  0  # atno 17371 bound_to 10713
  140.2324  134.8675  157.3491 LP  0  0  0  0  0  0  0  0  0  0  0  0  # atno 17394 bound_to 11000
  140.1877  134.4410  155.7734 LP  0  0  0  0  0  0  0  0  0  0  0  0  # atno 17395 bound_to 11000

$$$$
