AV-unprocessed.smi:317|AV-procd|sdf|2326|dock8
  -GOLD-   2262022233D 1   1.00000     0.00000
 Structure written by MMmdl.
 39 40  0  0  0  0  0  0  0  0  1 V2000
  145.4087  134.0983  152.8213 C   0  0  0  0  0  0  0  0  0  0  0  0
  145.2253  135.4378  152.0888 C   0  0  2  0  0  0  0  0  0  0  0  0
  145.1638  135.2343  150.5642 C   0  0  0  0  0  0  0  0  0  0  0  0
  145.4593  136.4426  149.8959 O   0  0  0  0  0  0  0  0  0  0  0  0
  146.3414  136.3216  152.4150 N   0  0  0  0  0  0  0  0  0  0  0  0
  146.2333  137.5244  152.9963 C   0  0  0  0  0  0  0  0  0  0  0  0
  145.1618  138.0237  153.3404 O   0  0  0  0  0  0  0  0  0  0  0  0
  147.4398  138.0889  153.1682 N   0  0  0  0  0  0  0  0  0  0  0  0
  147.7410  139.3321  153.7911 C   0  0  0  0  0  0  0  0  0  0  0  0
  146.7993  140.3894  153.8164 C   0  0  0  0  0  0  0  0  0  0  0  0
  147.1649  141.6250  154.3771 C   0  0  0  0  0  0  0  0  0  0  0  0
  148.4690  141.7662  154.8800 C   0  0  0  0  0  0  0  0  0  0  0  0
  149.3809  140.7739  154.8523 N   0  0  0  0  0  0  0  0  0  0  0  0
  149.0387  139.5710  154.3279 C   0  0  0  0  0  0  0  0  0  0  0  0
  150.0295  138.5621  154.3429 N   0  0  0  0  0  0  0  0  0  0  0  0
  151.4246  138.8970  154.6080 C   0  0  0  0  0  0  0  0  0  0  0  0
  152.0957  137.5661  154.9346 C   0  0  0  0  0  0  0  0  0  0  0  0
  150.9933  136.8204  155.6794 C   0  0  0  0  0  0  0  0  0  0  0  0
  149.7083  137.2939  154.9919 C   0  0  0  0  0  0  0  0  0  0  0  0
  144.5841  133.4180  152.6069 H   0  0  0  0  0  0  0  0  0  0  0  0
  145.4414  134.2385  153.9024 H   0  0  0  0  0  0  0  0  0  0  0  0
  146.3336  133.6044  152.5215 H   0  0  0  0  0  0  0  0  0  0  0  0
  144.2848  135.8791  152.4255 H   0  0  0  0  0  0  0  0  0  0  0  0
  145.8382  134.4434  150.2337 H   0  0  0  0  0  0  0  0  0  0  0  0
  144.1579  134.9407  150.2625 H   0  0  0  0  0  0  0  0  0  0  0  0
  144.7741  137.0657  150.0835 H   0  0  0  0  0  0  0  0  0  0  0  0
  147.2641  135.9963  152.1670 H   0  0  0  0  0  0  0  0  0  0  0  0
  148.2382  137.5196  152.9286 H   0  0  0  0  0  0  0  0  0  0  0  0
  145.8121  140.2790  153.3937 H   0  0  0  0  0  0  0  0  0  0  0  0
  146.4664  142.4478  154.4077 H   0  0  0  0  0  0  0  0  0  0  0  0
  148.7912  142.7026  155.3110 H   0  0  0  0  0  0  0  0  0  0  0  0
  151.8863  139.3836  153.7486 H   0  0  0  0  0  0  0  0  0  0  0  0
  151.5079  139.5642  155.4670 H   0  0  0  0  0  0  0  0  0  0  0  0
  152.3468  137.0379  154.0137 H   0  0  0  0  0  0  0  0  0  0  0  0
  153.0075  137.6815  155.5213 H   0  0  0  0  0  0  0  0  0  0  0  0
  151.1151  135.7376  155.6505 H   0  0  0  0  0  0  0  0  0  0  0  0
  150.9849  137.1303  156.7251 H   0  0  0  0  0  0  0  0  0  0  0  0
  148.8879  137.3911  155.7043 H   0  0  0  0  0  0  0  0  0  0  0  0
  149.4101  136.5748  154.2288 H   0  0  0  0  0  0  0  0  0  0  0  0
  1  2  1  0  0  0  0
  1 20  1  0  0  0  0
  1 21  1  0  0  0  0
  1 22  1  0  0  0  0
  2  3  1  0  0  0  0
  2  5  1  0  0  0  0
  2 23  1  0  0  0  0
  3  4  1  0  0  0  0
  3 24  1  0  0  0  0
  3 25  1  0  0  0  0
  4 26  1  0  0  0  0
  5  6  1  0  0  0  0
  5 27  1  0  0  0  0
  6  7  2  0  0  0  0
  6  8  1  0  0  0  0
  8  9  1  0  0  0  0
  8 28  1  0  0  0  0
  9 14  1  0  0  0  0
  9 10  2  0  0  0  0
 10 11  1  0  0  0  0
 10 29  1  0  0  0  0
 11 12  2  0  0  0  0
 11 30  1  0  0  0  0
 12 13  1  0  0  0  0
 12 31  1  0  0  0  0
 13 14  2  0  0  0  0
 14 15  1  0  0  0  0
 15 19  1  0  0  0  0
 15 16  1  0  0  0  0
 16 17  1  0  0  0  0
 16 32  1  0  0  0  0
 16 33  1  0  0  0  0
 17 18  1  0  0  0  0
 17 34  1  0  0  0  0
 17 35  1  0  0  0  0
 18 19  1  0  0  0  0
 18 36  1  0  0  0  0
 18 37  1  0  0  0  0
 19 38  1  0  0  0  0
 19 39  1  0  0  0  0
M  END
> <s_m_source_file>
AV-unprocessed.smi

> <i_m_source_file_index>
317

> <i_lp_mmshare_version>
43012

> <i_f3d_flags>
0

> <s_epik_input>
W09IXVtDSDJdW0NAQEhdKFtDSDNdKVtOSF1DKD1PKVtOSF1jMVtjSF1bY0hdW2NIXW5jMU4yW0NIMl1bQ0gyXVtDSDJdW0NIMl0y

> <s_epik_cmdline>
J2VwaWtfcHl0aG9uJywgJy1waCcsICc3LjAnLCAnLXRuJywgJzgnLCAnLW1hJywgJzIwMCcsICctbWV0YWxfYmluZGluZycsICctaW1hZScsICc8aW5maWxlLm1hZT4nLCAnLW9tYWUnLCAnPG91dGZpbGUubWFlPic=

> <r_lp_tautomer_probability>
1

> <r_epik_Ionization_Penalty>
0.098371

> <r_epik_Ionization_Penalty_Charging>
0

> <r_epik_Ionization_Penalty_Neutral>
0.098371

> <r_epik_State_Penalty>
0.0879016

> <r_epik_Charging_Adjusted_Penalty>
0.0879016

> <i_epik_Tot_Q>
0

> <i_epik_Tot_abs_Q>
0

> <r_epik_Metal_State_Penalty>
0.0753294

> <b_epik_Metal_Only>
0

> <s_lp_Force_Field>
OPLS_2005

> <r_lp_Energy>
32.6275

> <b_lp_Chiralities_Consistent>
1

> <s_lp_Variant>
AV-unprocessed.smi:317-1

> <Gold.Version>
5.8.1

> <Gold.Id.Protein>
6NUR|6NUR_protein|mol2

> <Gold.PLP.Fitness>
38.2948

> <Gold.PLP.PLP>
-27.0298

> <Gold.PLP.part.hbond>
-4.0000

> <Gold.PLP.part.metal>
0.0000

> <Gold.PLP.part.buried>
-2.1665

> <Gold.PLP.part.nonpolar>
-23.4406

> <Gold.PLP.part.repulsive>
1.8331

> <Gold.PLP.ligand.clash>
0.0000

> <Gold.PLP.ligand.torsion>
0.5247

> <Gold.PLP.Chemscore.Hbond>
3.0000

> <Gold.PLP.Chemscore.CHOScore>
0.9948

> <Gold.PLP.Chemscore.Metal>
0.0000

> <Gold.Chemscore.Hbonds>
donor molecule, donor type, donor heavy atom, donor atom, acceptor molecule, acceptor atom, score
      L1  H     4    26       P1 10171  1.00
      L1  H     5    27       P1  7948  1.00
      L1  H     8    28       P1  7948  0.98
      L1  C    12    31       P1  8028  1.00

> <Gold.PLP.Chemscore.Internal.Correction>
0.3298

> <Gold.Rescore>
     Score         DG    S(hbond)    S(metal)    S(lipo)     H(rot)  DE(clash)    DE(int)     intcor
     14.69     -16.72       2.90        0.00      58.76       2.08       0.16       1.87       ----

> <Gold.Chemscore.Fitness>
14.6894

> <Gold.Chemscore.DG>
-16.7167

> <Gold.Chemscore.ZeroCoef>
-5.4800

> <Gold.Chemscore.Hbond>
2.8980

> <Gold.Chemscore.Metal>
0.0000

> <Gold.Chemscore.Lipo>
58.7637

> <Gold.Chemscore.Internal_Hbond>
0.0000

> <Gold.Chemscore.DEClash>
0.1574

> <Gold.Chemscore.DEInternal>
1.8699

> <Gold.Chemscore.Rot>
2.0773

> <Gold.Chemscore.Internal.Correction>
   9.000000E+99

> <Gold.Chemscore.Hbonds>
donor molecule, donor type, donor heavy atom, donor atom, acceptor molecule, acceptor atom, score
      L1  H     4    26       P1 10171  0.97
      L1  H     5    27       P1  7948  0.98
      L1  H     8    28       P1  7948  0.92

> <Gold.Chemscore.Hbond.Weighted>
-9.6792

> <Gold.Chemscore.Metal.Weighted>
-0.0000

> <Gold.Chemscore.Lipo.Weighted>
-6.8754

> <Gold.Chemscore.Internal_Hbond.Weighted>
0.0000

> <Gold.Chemscore.DEClash.Weighted>
0.1574

> <Gold.Chemscore.DEInternal.Weighted>
1.8699

> <Gold.Chemscore.Rot.Weighted>
5.3178

> <Gold.Chemscore.Internal.Correction.Weighted>
   9.000000E+99

> <Gold.Protein.RotatedTorsions>
[ 6907 6896 6895 6894 ] final    2.83 input  -60.11 | X-H torsion
[ 7974 7965 7964 7962 ] final   -5.72 input  175.53 | X-H torsion
[ 8008 7997 7996 7995 ] final -119.24 input   59.86 | X-H torsion
[ 10167 10162 10161 10158 ] final  -83.17 input  -65.29 | X-H torsion
[ 10718 10713 10712 10709 ] final   54.71 input   66.30 | X-H torsion
[ 10763 10752 10751 10750 ] final  175.06 input  -60.55 | X-H torsion
[ 11005 11000 10999 10996 ] final  119.75 input  -57.11 | X-H torsion

> <Gold.Protein.ActiveResidues>
 VAL166  LYS551  ARG553  GLY616  TRP617  ASP618  TYR619  PRO620  LYS621  CYS622 
 ASP623  PHE694  ASN695  SER759  ASP760  ASP761  ALA762  ILE779  LEU786  VAL792 
 PHE793  MET794  SER795  GLU796  ALA797  LYS798  CYS799  TRP800  GLU811  SER814 

> <Gold.Protein.RotatedAtoms>
  151.6152  135.1037  160.0089 H   0  0  0  0  0  0  0  0  0  0  0  0  # atno 6907 bound_to 6896
  152.4187  133.7076  159.6471 H   0  0  0  0  0  0  0  0  0  0  0  0  # atno 6908 bound_to 6896
  150.8075  133.8410  159.3220 H   0  0  0  0  0  0  0  0  0  0  0  0  # atno 6909 bound_to 6896
  146.2347  140.2064  142.8334 H   0  0  0  0  0  0  0  0  0  0  0  0  # atno 7974 bound_to 7965
  155.1125  140.0397  157.2728 H   0  0  0  0  0  0  0  0  0  0  0  0  # atno 8008 bound_to 7997
  154.6674  140.2604  155.7018 H   0  0  0  0  0  0  0  0  0  0  0  0  # atno 8009 bound_to 7997
  156.2644  140.2804  156.1170 H   0  0  0  0  0  0  0  0  0  0  0  0  # atno 8010 bound_to 7997
  140.4251  143.2569  151.8836 H   0  0  0  0  0  0  0  0  0  0  0  0  # atno 10167 bound_to 10162
  157.5281  130.8611  149.8649 H   0  0  0  0  0  0  0  0  0  0  0  0  # atno 10718 bound_to 10713
  154.4624  135.2768  155.1703 H   0  0  0  0  0  0  0  0  0  0  0  0  # atno 10763 bound_to 10752
  154.3485  135.6155  153.5635 H   0  0  0  0  0  0  0  0  0  0  0  0  # atno 10764 bound_to 10752
  152.9856  135.5806  154.4989 H   0  0  0  0  0  0  0  0  0  0  0  0  # atno 10765 bound_to 10752
  139.9158  134.9630  156.7703 H   0  0  0  0  0  0  0  0  0  0  0  0  # atno 11005 bound_to 11000
  144.9741  140.8397  143.5437 LP  0  0  0  0  0  0  0  0  0  0  0  0  # atno 17320 bound_to 7965
  145.2049  139.2233  143.5173 LP  0  0  0  0  0  0  0  0  0  0  0  0  # atno 17321 bound_to 7965
  139.4783  144.5395  151.8549 LP  0  0  0  0  0  0  0  0  0  0  0  0  # atno 17342 bound_to 10162
  140.4490  144.1882  150.5896 LP  0  0  0  0  0  0  0  0  0  0  0  0  # atno 17343 bound_to 10162
  156.0402  130.3741  150.1456 LP  0  0  0  0  0  0  0  0  0  0  0  0  # atno 17370 bound_to 10713
  156.9642  130.9814  151.3473 LP  0  0  0  0  0  0  0  0  0  0  0  0  # atno 17371 bound_to 10713
  140.6626  133.9631  155.7813 LP  0  0  0  0  0  0  0  0  0  0  0  0  # atno 17394 bound_to 11000
  141.0633  134.0315  157.3629 LP  0  0  0  0  0  0  0  0  0  0  0  0  # atno 17395 bound_to 11000

$$$$
