AV-unprocessed.smi:2751|AV-procd|sdf|10602|dock9
  -GOLD-   2272015 53D 1   1.00000     0.00000
 Structure written by MMmdl.
 34 35  0  0  0  0  0  0  0  0  1 V2000
  150.6119  140.5167  155.0440 O   0  0  0  0  0  0  0  0  0  0  0  0
  149.7788  141.4107  155.2243 C   0  0  0  0  0  0  0  0  0  0  0  0
  150.0503  142.4762  155.9927 N   0  0  0  0  0  0  0  0  0  0  0  0
  151.3061  142.7148  156.6956 C   0  0  0  0  0  0  0  0  0  0  0  0
  151.3723  141.9279  158.0157 C   0  0  0  0  0  0  0  0  0  0  0  0
  152.1095  142.6889  159.1288 C   0  0  1  0  0  0  0  0  0  0  0  0
  151.4606  144.0568  159.4171 C   0  0  0  0  0  0  0  0  0  0  0  0
  152.1694  144.7563  160.5825 C   0  0  0  0  0  0  0  0  0  0  0  0
  152.2210  143.8185  161.7931 C   0  0  0  0  0  0  0  0  0  0  0  0
  152.8220  142.4617  161.3923 C   0  0  0  0  0  0  0  0  0  0  0  0
  152.0767  141.8993  160.3166 O   0  0  0  0  0  0  0  0  0  0  0  0
  148.4876  141.5032  154.7230 N   0  0  0  0  0  0  0  0  0  0  0  0
  147.9657  140.5044  154.0787 C   0  0  0  0  0  0  0  0  0  0  0  0
  148.4410  139.2409  153.7376 N   0  0  0  0  0  0  0  0  0  0  0  0
  147.4584  138.5870  153.0484 C   0  0  0  0  0  0  0  0  0  0  0  0
  146.4091  139.3984  152.9584 C   0  0  0  0  0  0  0  0  0  0  0  0
  146.6898  140.5785  153.5793 O   0  0  0  0  0  0  0  0  0  0  0  0
  149.3281  143.1737  156.1018 H   0  0  0  0  0  0  0  0  0  0  0  0
  152.1499  142.4623  156.0514 H   0  0  0  0  0  0  0  0  0  0  0  0
  151.3806  143.7837  156.8976 H   0  0  0  0  0  0  0  0  0  0  0  0
  150.3562  141.7069  158.3451 H   0  0  0  0  0  0  0  0  0  0  0  0
  151.8576  140.9646  157.8533 H   0  0  0  0  0  0  0  0  0  0  0  0
  153.1473  142.8381  158.8249 H   0  0  0  0  0  0  0  0  0  0  0  0
  151.4961  144.6877  158.5284 H   0  0  0  0  0  0  0  0  0  0  0  0
  150.4065  143.9201  159.6620 H   0  0  0  0  0  0  0  0  0  0  0  0
  153.1827  145.0297  160.2856 H   0  0  0  0  0  0  0  0  0  0  0  0
  151.6558  145.6829  160.8399 H   0  0  0  0  0  0  0  0  0  0  0  0
  152.8054  144.2689  162.5957 H   0  0  0  0  0  0  0  0  0  0  0  0
  151.2138  143.6692  162.1838 H   0  0  0  0  0  0  0  0  0  0  0  0
  153.8695  142.5681  161.1065 H   0  0  0  0  0  0  0  0  0  0  0  0
  152.7917  141.7749  162.2381 H   0  0  0  0  0  0  0  0  0  0  0  0
  149.3447  138.8376  153.9402 H   0  0  0  0  0  0  0  0  0  0  0  0
  147.6202  137.5826  152.6859 H   0  0  0  0  0  0  0  0  0  0  0  0
  145.4345  139.2899  152.5058 H   0  0  0  0  0  0  0  0  0  0  0  0
  1  2  2  0  0  0  0
  2 12  1  0  0  0  0
  2  3  1  0  0  0  0
  3  4  1  0  0  0  0
  3 18  1  0  0  0  0
  4  5  1  0  0  0  0
  4 19  1  0  0  0  0
  4 20  1  0  0  0  0
  5  6  1  0  0  0  0
  5 21  1  0  0  0  0
  5 22  1  0  0  0  0
  6 11  1  0  0  0  0
  6  7  1  0  0  0  0
  6 23  1  0  0  0  0
  7  8  1  0  0  0  0
  7 24  1  0  0  0  0
  7 25  1  0  0  0  0
  8  9  1  0  0  0  0
  8 26  1  0  0  0  0
  8 27  1  0  0  0  0
  9 10  1  0  0  0  0
  9 28  1  0  0  0  0
  9 29  1  0  0  0  0
 10 11  1  0  0  0  0
 10 30  1  0  0  0  0
 10 31  1  0  0  0  0
 12 13  2  0  0  0  0
 13 17  1  0  0  0  0
 13 14  1  0  0  0  0
 14 32  1  0  0  0  0
 14 15  1  0  0  0  0
 15 33  1  0  0  0  0
 15 16  2  0  0  0  0
 16 34  1  0  0  0  0
 16 17  1  0  0  0  0
M  END
> <s_m_source_file>
AV-unprocessed.smi

> <i_m_source_file_index>
2751

> <i_lp_mmshare_version>
43012

> <i_f3d_flags>
0

> <s_epik_input>
bzFbY0hdW2NIXW5jMVtOSF1DKD1PKVtOSF1bQ0gyXVtDSDJdW0NAQEhdMltDSDJdW0NIMl1bQ0gyXVtDSDJdTzI=

> <s_epik_cmdline>
J2VwaWtfcHl0aG9uJywgJy1waCcsICc3LjAnLCAnLXRuJywgJzgnLCAnLW1hJywgJzIwMCcsICctbWV0YWxfYmluZGluZycsICctaW1hZScsICc8aW5maWxlLm1hZT4nLCAnLW9tYWUnLCAnPG91dGZpbGUubWFlPic=

> <r_lp_tautomer_probability>
0.107061

> <r_epik_Ionization_Penalty>
1.421

> <r_epik_Ionization_Penalty_Charging>
1.42064

> <r_epik_Ionization_Penalty_Neutral>
0.0003614

> <r_epik_State_Penalty>
2.61489

> <r_epik_Charging_Adjusted_Penalty>
4.03553

> <i_epik_Tot_Q>
0

> <i_epik_Tot_abs_Q>
0

> <r_epik_Metal_State_Penalty>
3.57288

> <b_epik_Metal_Only>
0

> <s_lp_Force_Field>
OPLS_2005

> <r_lp_Energy>
32.5629

> <b_lp_Chiralities_Consistent>
1

> <s_lp_Variant>
AV-unprocessed.smi:2751-8

> <Gold.Version>
5.8.1

> <Gold.Id.Protein>
6NUR|6NUR_protein|mol2

> <Gold.PLP.Fitness>
43.0024

> <Gold.PLP.PLP>
-31.8163

> <Gold.PLP.part.hbond>
-3.2948

> <Gold.PLP.part.metal>
0.0000

> <Gold.PLP.part.buried>
-1.4269

> <Gold.PLP.part.nonpolar>
-27.3488

> <Gold.PLP.part.repulsive>
0.6073

> <Gold.PLP.ligand.clash>
0.0000

> <Gold.PLP.ligand.torsion>
0.4018

> <Gold.PLP.Chemscore.Hbond>
1.9920

> <Gold.PLP.Chemscore.CHOScore>
2.0000

> <Gold.PLP.Chemscore.Metal>
0.0000

> <Gold.Chemscore.Hbonds>
donor molecule, donor type, donor heavy atom, donor atom, acceptor molecule, acceptor atom, score
      L1  H     3    18       P1  8028  0.86
      P1  H  7989  7998       L1     1  1.00
      L1  C    15    33       P1  7948  1.00
      L1  C    16    34       P1 10175  1.00

> <Gold.PLP.Chemscore.Internal.Correction>
0.0138

> <Gold.Rescore>
     Score         DG    S(hbond)    S(metal)    S(lipo)     H(rot)  DE(clash)    DE(int)     intcor
     15.56     -16.45       1.53        0.00      85.78       1.63       0.44       0.45       ----

> <Gold.Chemscore.Fitness>
15.5628

> <Gold.Chemscore.DG>
-16.4518

> <Gold.Chemscore.ZeroCoef>
-5.4800

> <Gold.Chemscore.Hbond>
1.5317

> <Gold.Chemscore.Metal>
0.0000

> <Gold.Chemscore.Lipo>
85.7774

> <Gold.Chemscore.Internal_Hbond>
0.0000

> <Gold.Chemscore.DEClash>
0.4412

> <Gold.Chemscore.DEInternal>
0.4478

> <Gold.Chemscore.Rot>
1.6328

> <Gold.Chemscore.Internal.Correction>
   9.000000E+99

> <Gold.Chemscore.Hbonds>
donor molecule, donor type, donor heavy atom, donor atom, acceptor molecule, acceptor atom, score
      L1  H     3    18       P1  8028  0.85
      P1  H  7989  7998       L1     1  0.70

> <Gold.Chemscore.Hbond.Weighted>
-5.1157

> <Gold.Chemscore.Metal.Weighted>
-0.0000

> <Gold.Chemscore.Lipo.Weighted>
-10.0360

> <Gold.Chemscore.Internal_Hbond.Weighted>
0.0000

> <Gold.Chemscore.DEClash.Weighted>
0.4412

> <Gold.Chemscore.DEInternal.Weighted>
0.4478

> <Gold.Chemscore.Rot.Weighted>
4.1799

> <Gold.Chemscore.Internal.Correction.Weighted>
   9.000000E+99

> <Gold.Protein.RotatedTorsions>
[ 6907 6896 6895 6894 ] final   93.17 input  -60.11 | X-H torsion
[ 7974 7965 7964 7962 ] final  133.54 input  175.53 | X-H torsion
[ 8008 7997 7996 7995 ] final  -66.26 input   59.86 | X-H torsion
[ 10167 10162 10161 10158 ] final   79.21 input  -65.29 | X-H torsion
[ 10718 10713 10712 10709 ] final   51.89 input   66.30 | X-H torsion
[ 10763 10752 10751 10750 ] final -119.25 input  -60.55 | X-H torsion
[ 11005 11000 10999 10996 ] final   16.51 input  -57.11 | X-H torsion

> <Gold.Protein.ActiveResidues>
 VAL166  LYS551  ARG553  GLY616  TRP617  ASP618  TYR619  PRO620  LYS621  CYS622 
 ASP623  PHE694  ASN695  SER759  ASP760  ASP761  ALA762  ILE779  LEU786  VAL792 
 PHE793  MET794  SER795  GLU796  ALA797  LYS798  CYS799  TRP800  GLU811  SER814 

> <Gold.Protein.RotatedAtoms>
  152.5453  134.1390  159.8470 H   0  0  0  0  0  0  0  0  0  0  0  0  # atno 6907 bound_to 6896
  151.1428  133.4953  159.2604 H   0  0  0  0  0  0  0  0  0  0  0  0  # atno 6908 bound_to 6896
  151.1555  135.0258  159.8742 H   0  0  0  0  0  0  0  0  0  0  0  0  # atno 6909 bound_to 6896
  144.9854  139.4461  143.5365 H   0  0  0  0  0  0  0  0  0  0  0  0  # atno 7974 bound_to 7965
  154.4723  140.0916  156.7176 H   0  0  0  0  0  0  0  0  0  0  0  0  # atno 8008 bound_to 7997
  155.4690  140.3464  155.4305 H   0  0  0  0  0  0  0  0  0  0  0  0  # atno 8009 bound_to 7997
  156.1059  140.1435  156.9393 H   0  0  0  0  0  0  0  0  0  0  0  0  # atno 8010 bound_to 7997
  139.9628  144.5949  150.8057 H   0  0  0  0  0  0  0  0  0  0  0  0  # atno 10167 bound_to 10162
  157.5023  130.8446  149.8332 H   0  0  0  0  0  0  0  0  0  0  0  0  # atno 10718 bound_to 10713
  154.8612  135.4245  154.2269 H   0  0  0  0  0  0  0  0  0  0  0  0  # atno 10763 bound_to 10752
  153.3262  135.6985  153.6993 H   0  0  0  0  0  0  0  0  0  0  0  0  # atno 10764 bound_to 10752
  153.6028  135.3533  155.2925 H   0  0  0  0  0  0  0  0  0  0  0  0  # atno 10765 bound_to 10752
  140.4463  134.1270  155.7696 H   0  0  0  0  0  0  0  0  0  0  0  0  # atno 11005 bound_to 11000
  146.3419  139.9153  142.8774 LP  0  0  0  0  0  0  0  0  0  0  0  0  # atno 17320 bound_to 7965
  145.2361  140.9991  143.3963 LP  0  0  0  0  0  0  0  0  0  0  0  0  # atno 17321 bound_to 7965
  140.7548  143.3033  151.3025 LP  0  0  0  0  0  0  0  0  0  0  0  0  # atno 17342 bound_to 10162
  139.6541  144.0308  152.2647 LP  0  0  0  0  0  0  0  0  0  0  0  0  # atno 17343 bound_to 10162
  156.0237  130.3787  150.1886 LP  0  0  0  0  0  0  0  0  0  0  0  0  # atno 17370 bound_to 10713
  157.0076  130.9941  151.3374 LP  0  0  0  0  0  0  0  0  0  0  0  0  # atno 17371 bound_to 10713
  141.1684  133.8658  157.1646 LP  0  0  0  0  0  0  0  0  0  0  0  0  # atno 17394 bound_to 11000
  140.0036  135.0017  157.0244 LP  0  0  0  0  0  0  0  0  0  0  0  0  # atno 17395 bound_to 11000

$$$$
