AV-unprocessed.smi:234|AV-procd|sdf|1786|dock9
  -GOLD-   2262020343D 1   1.00000     0.00000
 Structure written by MMmdl.
 59 62  0  0  0  0  0  0  0  0  1 V2000
  151.6242  144.6369  160.6384 C   0  0  0  0  0  0  0  0  0  0  0  0
  152.2201  144.1390  159.3149 C   0  0  0  0  0  0  0  0  0  0  0  0
  153.2506  143.1848  159.5311 O   0  0  0  0  0  0  0  0  0  0  0  0
  152.8118  141.9719  160.1287 C   0  0  1  0  0  0  0  0  0  0  0  0
  152.3019  140.9238  159.1363 C   0  0  0  0  0  0  0  0  0  0  0  0
  152.9793  139.8975  160.0485 C   0  0  1  0  0  0  0  0  0  0  0  0
  153.5746  138.7711  159.3253 N   0  0  0  0  0  0  0  0  0  0  0  0
  152.6452  137.8053  158.7535 C   0  0  0  0  0  0  0  0  0  0  0  0
  154.5848  138.1345  159.9626 C   0  0  0  0  0  0  0  0  0  0  0  0
  155.8141  138.0508  159.3881 N   0  0  0  0  0  0  0  0  0  0  0  0
  156.8069  137.4209  160.0237 C   0  0  0  0  0  0  0  0  0  0  0  0
  156.7866  136.8196  161.2154 N   0  0  0  0  0  0  0  0  0  0  0  0
  155.5548  136.9067  161.7948 C   0  0  0  0  0  0  0  0  0  0  0  0
  154.4113  137.5497  161.2447 C   0  0  0  0  0  0  0  0  0  0  0  0
  153.3365  137.4434  162.1175 N   0  0  0  0  0  0  0  0  0  0  0  0
  153.8163  136.7700  163.1272 C   0  0  0  0  0  0  0  0  0  0  0  0
  155.1370  136.3958  163.0115 N   0  0  0  0  0  0  0  0  0  0  0  0
  155.9105  135.6319  163.9792 C   0  0  0  0  0  0  0  0  0  0  0  0
  155.2371  134.2950  164.3884 C   0  0  1  0  0  0  0  0  0  0  0  0
  154.1596  134.5973  165.2602 O   0  0  0  0  0  0  0  0  0  0  0  0
  154.6744  133.5057  163.2093 C   0  0  0  0  0  0  0  0  0  0  0  0
  154.7472  132.0660  163.6935 C   0  0  0  0  0  0  0  0  0  0  0  0
  155.9904  132.0389  164.3721 O   0  0  0  0  0  0  0  0  0  0  0  0
  156.1440  133.2531  165.1034 C   0  0  1  0  0  0  0  0  0  0  0  0
  157.6464  133.5701  165.1671 C   0  0  0  0  0  0  0  0  0  0  0  0
  153.9744  141.0125  160.4869 C   0  0  0  0  0  0  0  0  0  0  0  0
  155.2590  141.1936  159.6569 C   0  0  0  0  0  0  0  0  0  0  0  0
  154.3889  141.0122  161.9584 C   0  0  0  0  0  0  0  0  0  0  0  0
  150.9027  145.4345  160.4598 H   0  0  0  0  0  0  0  0  0  0  0  0
  152.4022  145.0333  161.2911 H   0  0  0  0  0  0  0  0  0  0  0  0
  151.1063  143.8430  161.1757 H   0  0  0  0  0  0  0  0  0  0  0  0
  151.4441  143.7409  158.6600 H   0  0  0  0  0  0  0  0  0  0  0  0
  152.6626  144.9856  158.7895 H   0  0  0  0  0  0  0  0  0  0  0  0
  152.1311  142.1181  160.9698 H   0  0  0  0  0  0  0  0  0  0  0  0
  151.2165  140.8389  159.0815 H   0  0  0  0  0  0  0  0  0  0  0  0
  152.7533  141.0084  158.1463 H   0  0  0  0  0  0  0  0  0  0  0  0
  152.3130  139.5965  160.8598 H   0  0  0  0  0  0  0  0  0  0  0  0
  153.1720  137.0257  158.2007 H   0  0  0  0  0  0  0  0  0  0  0  0
  151.9625  138.2957  158.0595 H   0  0  0  0  0  0  0  0  0  0  0  0
  152.0521  137.3310  159.5368 H   0  0  0  0  0  0  0  0  0  0  0  0
  157.7520  137.3933  159.5020 H   0  0  0  0  0  0  0  0  0  0  0  0
  153.2130  136.5168  163.9870 H   0  0  0  0  0  0  0  0  0  0  0  0
  156.8964  135.4507  163.5502 H   0  0  0  0  0  0  0  0  0  0  0  0
  156.0658  136.2613  164.8564 H   0  0  0  0  0  0  0  0  0  0  0  0
  154.4453  134.4531  166.1494 H   0  0  0  0  0  0  0  0  0  0  0  0
  153.6708  133.8108  162.9093 H   0  0  0  0  0  0  0  0  0  0  0  0
  155.3272  133.6102  162.3421 H   0  0  0  0  0  0  0  0  0  0  0  0
  153.9379  131.8413  164.3899 H   0  0  0  0  0  0  0  0  0  0  0  0
  154.7167  131.3429  162.8783 H   0  0  0  0  0  0  0  0  0  0  0  0
  155.7881  133.0728  166.1196 H   0  0  0  0  0  0  0  0  0  0  0  0
  157.8379  134.4824  165.7320 H   0  0  0  0  0  0  0  0  0  0  0  0
  158.0740  133.6871  164.1711 H   0  0  0  0  0  0  0  0  0  0  0  0
  158.1876  132.7631  165.6615 H   0  0  0  0  0  0  0  0  0  0  0  0
  155.9986  140.4253  159.8820 H   0  0  0  0  0  0  0  0  0  0  0  0
  155.7291  142.1564  159.8589 H   0  0  0  0  0  0  0  0  0  0  0  0
  155.0675  141.1504  158.5847 H   0  0  0  0  0  0  0  0  0  0  0  0
  155.1437  140.2529  162.1649 H   0  0  0  0  0  0  0  0  0  0  0  0
  153.5407  140.8098  162.6129 H   0  0  0  0  0  0  0  0  0  0  0  0
  154.8035  141.9764  162.2542 H   0  0  0  0  0  0  0  0  0  0  0  0
  1  2  1  0  0  0  0
  1 29  1  0  0  0  0
  1 30  1  0  0  0  0
  1 31  1  0  0  0  0
  2  3  1  0  0  0  0
  2 32  1  0  0  0  0
  2 33  1  0  0  0  0
  3  4  1  0  0  0  0
  4 26  1  0  0  0  0
  4  5  1  0  0  0  0
  4 34  1  0  0  0  0
  5  6  1  0  0  0  0
  5 35  1  0  0  0  0
  5 36  1  0  0  0  0
  6  7  1  0  0  0  0
  6 26  1  0  0  0  0
  6 37  1  0  0  0  0
  7  8  1  0  0  0  0
  7  9  1  0  0  0  0
  8 38  1  0  0  0  0
  8 39  1  0  0  0  0
  8 40  1  0  0  0  0
  9 14  1  0  0  0  0
  9 10  2  0  0  0  0
 10 11  1  0  0  0  0
 11 12  2  0  0  0  0
 11 41  1  0  0  0  0
 12 13  1  0  0  0  0
 13 17  1  0  0  0  0
 13 14  2  0  0  0  0
 14 15  1  0  0  0  0
 15 16  2  0  0  0  0
 16 17  1  0  0  0  0
 16 42  1  0  0  0  0
 17 18  1  0  0  0  0
 18 19  1  0  0  0  0
 18 43  1  0  0  0  0
 18 44  1  0  0  0  0
 19 24  1  0  0  0  0
 19 20  1  0  0  0  0
 19 21  1  0  0  0  0
 20 45  1  0  0  0  0
 21 22  1  0  0  0  0
 21 46  1  0  0  0  0
 21 47  1  0  0  0  0
 22 23  1  0  0  0  0
 22 48  1  0  0  0  0
 22 49  1  0  0  0  0
 23 24  1  0  0  0  0
 24 25  1  0  0  0  0
 24 50  1  0  0  0  0
 25 51  1  0  0  0  0
 25 52  1  0  0  0  0
 25 53  1  0  0  0  0
 26 27  1  0  0  0  0
 26 28  1  0  0  0  0
 27 54  1  0  0  0  0
 27 55  1  0  0  0  0
 27 56  1  0  0  0  0
 28 57  1  0  0  0  0
 28 58  1  0  0  0  0
 28 59  1  0  0  0  0
M  END
> <s_m_source_file>
AV-unprocessed.smi

> <i_m_source_file_index>
234

> <i_lp_mmshare_version>
43012

> <i_f3d_flags>
0

> <s_epik_input>
W0NIM11bQ0gyXU9bQ0BASF0oQzEoW0NIM10pW0NIM10pW0NIMl1bQ0BIXTFOKFtDSDNdKWMobltjSF1uMiljKGMyMyluW2NIXW4zW0NIMl1bQ0BAXTQoW09IXSlbQ0gyXVtDSDJdT1tDQEhdNFtDSDNd

> <s_epik_cmdline>
J2VwaWtfcHl0aG9uJywgJy1waCcsICc3LjAnLCAnLXRuJywgJzgnLCAnLW1hJywgJzIwMCcsICctbWV0YWxfYmluZGluZycsICctaW1hZScsICc8aW5maWxlLm1hZT4nLCAnLW9tYWUnLCAnPG91dGZpbGUubWFlPic=

> <r_lp_tautomer_probability>
1

> <r_epik_Ionization_Penalty>
0.00349132

> <r_epik_Ionization_Penalty_Charging>
0

> <r_epik_Ionization_Penalty_Neutral>
0.00349132

> <r_epik_State_Penalty>
0.00242418

> <r_epik_Charging_Adjusted_Penalty>
0.00242418

> <i_epik_Tot_Q>
0

> <i_epik_Tot_abs_Q>
0

> <r_epik_Metal_State_Penalty>
-0

> <b_epik_Metal_Only>
0

> <s_lp_Force_Field>
OPLS_2005

> <r_lp_Energy>
47.6345

> <b_lp_Chiralities_Consistent>
1

> <s_lp_Variant>
AV-unprocessed.smi:234-2

> <Gold.Version>
5.8.1

> <Gold.Id.Protein>
6NUR|6NUR_protein|mol2

> <Gold.PLP.Fitness>
41.4436

> <Gold.PLP.PLP>
-42.3337

> <Gold.PLP.part.hbond>
-1.0000

> <Gold.PLP.part.metal>
0.0000

> <Gold.PLP.part.buried>
-3.1444

> <Gold.PLP.part.nonpolar>
-38.0995

> <Gold.PLP.part.repulsive>
0.0106

> <Gold.PLP.ligand.clash>
0.0000

> <Gold.PLP.ligand.torsion>
0.7972

> <Gold.PLP.Chemscore.Hbond>
0.0000

> <Gold.PLP.Chemscore.CHOScore>
0.0000

> <Gold.PLP.Chemscore.Metal>
0.0000

> <Gold.PLP.Chemscore.Internal.Correction>
0.7044

> <Gold.Rescore>
     Score         DG    S(hbond)    S(metal)    S(lipo)     H(rot)  DE(clash)    DE(int)     intcor
     11.51     -12.83       0.00        0.00     120.20       2.62       0.57       0.75       ----

> <Gold.Chemscore.Fitness>
11.5119

> <Gold.Chemscore.DG>
-12.8307

> <Gold.Chemscore.ZeroCoef>
-5.4800

> <Gold.Chemscore.Hbond>
0.0000

> <Gold.Chemscore.Metal>
0.0000

> <Gold.Chemscore.Lipo>
120.1952

> <Gold.Chemscore.Internal_Hbond>
0.0000

> <Gold.Chemscore.DEClash>
0.5660

> <Gold.Chemscore.DEInternal>
0.7529

> <Gold.Chemscore.Rot>
2.6219

> <Gold.Chemscore.Internal.Correction>
   9.000000E+99

> <Gold.Chemscore.Hbond.Weighted>
-0.0000

> <Gold.Chemscore.Metal.Weighted>
-0.0000

> <Gold.Chemscore.Lipo.Weighted>
-14.0628

> <Gold.Chemscore.Internal_Hbond.Weighted>
0.0000

> <Gold.Chemscore.DEClash.Weighted>
0.5660

> <Gold.Chemscore.DEInternal.Weighted>
0.7529

> <Gold.Chemscore.Rot.Weighted>
6.7121

> <Gold.Chemscore.Internal.Correction.Weighted>
   9.000000E+99

> <Gold.Protein.RotatedTorsions>
[ 6907 6896 6895 6894 ] final -118.19 input  -60.11 | X-H torsion
[ 7974 7965 7964 7962 ] final -131.61 input  175.53 | X-H torsion
[ 8008 7997 7996 7995 ] final   23.88 input   59.86 | X-H torsion
[ 10167 10162 10161 10158 ] final -169.22 input  -65.29 | X-H torsion
[ 10718 10713 10712 10709 ] final   96.66 input   66.30 | X-H torsion
[ 10763 10752 10751 10750 ] final  -40.82 input  -60.55 | X-H torsion
[ 11005 11000 10999 10996 ] final  -16.36 input  -57.11 | X-H torsion

> <Gold.Protein.ActiveResidues>
 VAL166  LYS551  ARG553  GLY616  TRP617  ASP618  TYR619  PRO620  LYS621  CYS622 
 ASP623  PHE694  ASN695  SER759  ASP760  ASP761  ALA762  ILE779  LEU786  VAL792 
 PHE793  MET794  SER795  GLU796  ALA797  LYS798  CYS799  TRP800  GLU811  SER814 

> <Gold.Protein.RotatedAtoms>
  150.8199  133.8271  159.3143 H   0  0  0  0  0  0  0  0  0  0  0  0  # atno 6907 bound_to 6896
  151.6032  135.1044  160.0074 H   0  0  0  0  0  0  0  0  0  0  0  0  # atno 6908 bound_to 6896
  152.4288  133.7201  159.6585 H   0  0  0  0  0  0  0  0  0  0  0  0  # atno 6909 bound_to 6896
  144.9363  140.7187  143.4875 H   0  0  0  0  0  0  0  0  0  0  0  0  # atno 7974 bound_to 7965
  154.9877  140.3110  155.4919 H   0  0  0  0  0  0  0  0  0  0  0  0  # atno 8008 bound_to 7997
  156.2944  140.2255  156.4920 H   0  0  0  0  0  0  0  0  0  0  0  0  # atno 8009 bound_to 7997
  154.7732  140.0451  157.1056 H   0  0  0  0  0  0  0  0  0  0  0  0  # atno 8010 bound_to 7997
  139.5936  144.1160  152.1663 H   0  0  0  0  0  0  0  0  0  0  0  0  # atno 10167 bound_to 10162
  157.6924  131.0585  150.4524 H   0  0  0  0  0  0  0  0  0  0  0  0  # atno 10718 bound_to 10713
  153.9523  135.6749  153.4744 H   0  0  0  0  0  0  0  0  0  0  0  0  # atno 10763 bound_to 10752
  153.0878  135.4890  154.8628 H   0  0  0  0  0  0  0  0  0  0  0  0  # atno 10764 bound_to 10752
  154.7318  135.3140  154.8837 H   0  0  0  0  0  0  0  0  0  0  0  0  # atno 10765 bound_to 10752
  140.8060  133.8177  155.9516 H   0  0  0  0  0  0  0  0  0  0  0  0  # atno 11005 bound_to 11000
  145.3062  139.1834  143.4663 LP  0  0  0  0  0  0  0  0  0  0  0  0  # atno 17320 bound_to 7965
  146.3268  140.3060  142.8623 LP  0  0  0  0  0  0  0  0  0  0  0  0  # atno 17321 bound_to 7965
  140.0740  144.5756  150.7171 LP  0  0  0  0  0  0  0  0  0  0  0  0  # atno 17342 bound_to 10162
  140.7193  143.2574  151.4330 LP  0  0  0  0  0  0  0  0  0  0  0  0  # atno 17343 bound_to 10162
  156.4875  130.4087  149.6426 LP  0  0  0  0  0  0  0  0  0  0  0  0  # atno 17370 bound_to 10713
  156.3449  130.7401  151.2352 LP  0  0  0  0  0  0  0  0  0  0  0  0  # atno 17371 bound_to 10713
  140.9246  134.2098  157.4904 LP  0  0  0  0  0  0  0  0  0  0  0  0  # atno 17394 bound_to 11000
  139.8717  134.9807  156.5086 LP  0  0  0  0  0  0  0  0  0  0  0  0  # atno 17395 bound_to 11000

$$$$
