AV-unprocessed.smi:66|AV-procd|sdf|618|dock2
  -GOLD-   2262016513D 1   1.00000     0.00000
 Structure written by MMmdl.
 28 30  0  0  0  0  0  0  0  0  2 V2000
  152.7599  139.2769  155.4894 O   0  0  0  0  0  0  0  0  0  0  0  0
  151.5860  139.6830  155.6307 C   0  0  0  0  0  0  0  0  0  0  0  0
  150.8897  140.2144  154.7370 O   0  5  0  0  0  0  0  0  0  0  0  0
  150.9587  139.5158  157.0226 C   0  0  1  0  0  0  0  0  0  0  0  0
  150.9047  138.0408  157.4546 C   0  0  0  0  0  0  0  0  0  0  0  0
  150.9504  138.1234  158.9771 C   0  0  1  0  0  0  0  0  0  0  0  0
  151.3954  136.9247  159.5760 O   0  0  0  0  0  0  0  0  0  0  0  0
  151.9015  139.2920  159.2315 C   0  0  0  0  0  0  0  0  0  0  0  0
  151.7412  140.1680  158.0778 N   0  0  0  0  0  0  0  0  0  0  0  0
  151.7701  141.5173  158.2417 C   0  0  0  0  0  0  0  0  0  0  0  0
  151.4467  142.3241  157.1958 N   0  0  0  0  0  0  0  0  0  0  0  0
  151.4667  143.6532  157.3295 C   0  0  0  0  0  0  0  0  0  0  0  0
  151.7754  144.3799  158.4054 N   0  0  0  0  0  0  0  0  0  0  0  0
  152.1056  143.5781  159.4552 C   0  0  0  0  0  0  0  0  0  0  0  0
  152.4862  143.9572  160.7246 N   0  0  0  0  0  0  0  0  0  0  0  0
  152.7205  142.7932  161.4135 C   0  0  0  0  0  0  0  0  0  0  0  0
  152.5308  141.7025  160.7213 N   0  0  0  0  0  0  0  0  0  0  0  0
  152.1307  142.1540  159.4654 C   0  0  0  0  0  0  0  0  0  0  0  0
  152.5624  144.9177  161.0262 H   0  0  0  0  0  0  0  0  0  0  0  0
  149.9472  139.9248  157.0241 H   0  0  0  0  0  0  0  0  0  0  0  0
  150.0117  137.5319  157.0907 H   0  0  0  0  0  0  0  0  0  0  0  0
  151.7745  137.4928  157.0866 H   0  0  0  0  0  0  0  0  0  0  0  0
  149.9576  138.3706  159.3557 H   0  0  0  0  0  0  0  0  0  0  0  0
  152.3335  136.8723  159.4741 H   0  0  0  0  0  0  0  0  0  0  0  0
  151.6681  139.7809  160.1782 H   0  0  0  0  0  0  0  0  0  0  0  0
  152.9396  138.9590  159.2642 H   0  0  0  0  0  0  0  0  0  0  0  0
  151.1963  144.2136  156.4468 H   0  0  0  0  0  0  0  0  0  0  0  0
  153.0387  142.7792  162.4456 H   0  0  0  0  0  0  0  0  0  0  0  0
  1  2  2  0  0  0  0
  2  3  1  0  0  0  0
  2  4  1  0  0  0  0
  4  5  1  0  0  0  0
  4 20  1  0  0  0  0
  4  9  1  0  0  0  0
  5  6  1  0  0  0  0
  5 21  1  0  0  0  0
  5 22  1  0  0  0  0
  6  7  1  0  0  0  0
  6  8  1  0  0  0  0
  6 23  1  0  0  0  0
  7 24  1  0  0  0  0
  8 25  1  0  0  0  0
  8 26  1  0  0  0  0
  8  9  1  0  0  0  0
  9 10  1  0  0  0  0
 10 11  1  0  0  0  0
 10 18  2  0  0  0  0
 11 12  2  0  0  0  0
 12 27  1  0  0  0  0
 12 13  1  0  0  0  0
 13 14  2  0  0  0  0
 14 15  1  0  0  0  0
 14 18  1  0  0  0  0
 15 16  1  0  0  0  0
 15 19  1  0  0  0  0
 16 17  2  0  0  0  0
 16 28  1  0  0  0  0
 17 18  1  0  0  0  0
M  CHG  1   3  -1
M  END
> <s_m_source_file>
AV-unprocessed.smi

> <i_m_source_file_index>
66

> <i_lp_mmshare_version>
43012

> <i_f3d_flags>
0

> <s_epik_input>
Tz1DKFtPSF0pW0NAQEhdMVtDSDJdW0NAQEhdKFtPSF0pW0NIMl1OMWMobltjSF1uMiljKGMyMylbbkhdW2NIXW4z

> <s_epik_cmdline>
J2VwaWtfcHl0aG9uJywgJy1waCcsICc3LjAnLCAnLXRuJywgJzgnLCAnLW1hJywgJzIwMCcsICctbWV0YWxfYmluZGluZycsICctaW1hZScsICc8aW5maWxlLm1hZT4nLCAnLW9tYWUnLCAnPG91dGZpbGUubWFlPic=

> <r_lp_tautomer_probability>
0.955585

> <r_epik_Ionization_Penalty>
0.00455415

> <r_epik_Ionization_Penalty_Charging>
0.000248217

> <r_epik_Ionization_Penalty_Neutral>
0.00430593

> <r_epik_State_Penalty>
0.0207074

> <r_epik_Charging_Adjusted_Penalty>
0.0209557

> <i_epik_Tot_Q>
-1

> <i_epik_Tot_abs_Q>
1

> <r_epik_Metal_State_Penalty>
0.337372

> <b_epik_Metal_Only>
0

> <s_lp_Force_Field>
OPLS_2005

> <r_lp_Energy>
25.5493

> <b_lp_Chiralities_Consistent>
1

> <s_lp_Variant>
AV-unprocessed.smi:66-2

> <Gold.Version>
5.8.1

> <Gold.Id.Protein>
6NUR|6NUR_protein|mol2

> <Gold.PLP.Fitness>
46.2416

> <Gold.PLP.PLP>
-31.2816

> <Gold.PLP.part.hbond>
-3.0000

> <Gold.PLP.part.metal>
0.0000

> <Gold.PLP.part.buried>
-4.5681

> <Gold.PLP.part.nonpolar>
-22.9007

> <Gold.PLP.part.repulsive>
0.2722

> <Gold.PLP.ligand.clash>
0.0000

> <Gold.PLP.ligand.torsion>
0.1279

> <Gold.PLP.Chemscore.Hbond>
4.0000

> <Gold.PLP.Chemscore.CHOScore>
1.0000

> <Gold.PLP.Chemscore.Metal>
0.0000

> <Gold.Chemscore.Hbonds>
donor molecule, donor type, donor heavy atom, donor atom, acceptor molecule, acceptor atom, score
      P1  H  6896  6907       L1     7  0.30
      P1  H  7989  7998       L1     3  1.00
      P1  H  7997  8009       L1     1  2.00
      L1  C    12    27       P1  8028  0.95

> <Gold.PLP.Chemscore.Internal.Correction>
0.2158

> <Gold.Rescore>
     Score         DG    S(hbond)    S(metal)    S(lipo)     H(rot)  DE(clash)    DE(int)     intcor
     11.90     -13.95       2.91        0.00      28.41       1.78       0.00       2.04       ----

> <Gold.Chemscore.Fitness>
11.9049

> <Gold.Chemscore.DG>
-13.9497

> <Gold.Chemscore.ZeroCoef>
-5.4800

> <Gold.Chemscore.Hbond>
2.9080

> <Gold.Chemscore.Metal>
0.0000

> <Gold.Chemscore.Lipo>
28.4145

> <Gold.Chemscore.Internal_Hbond>
0.0000

> <Gold.Chemscore.DEClash>
0.0000

> <Gold.Chemscore.DEInternal>
2.0448

> <Gold.Chemscore.Rot>
1.7842

> <Gold.Chemscore.Internal.Correction>
   9.000000E+99

> <Gold.Chemscore.Hbonds>
donor molecule, donor type, donor heavy atom, donor atom, acceptor molecule, acceptor atom, score
      P1  H  7989  7998       L1     3  0.94
      P1  H  7997  8009       L1     1  0.95

> <Gold.Chemscore.Hbond.Weighted>
-9.7129

> <Gold.Chemscore.Metal.Weighted>
-0.0000

> <Gold.Chemscore.Lipo.Weighted>
-3.3245

> <Gold.Chemscore.Internal_Hbond.Weighted>
0.0000

> <Gold.Chemscore.DEClash.Weighted>
0.0000

> <Gold.Chemscore.DEInternal.Weighted>
2.0448

> <Gold.Chemscore.Rot.Weighted>
4.5676

> <Gold.Chemscore.Internal.Correction.Weighted>
   9.000000E+99

> <Gold.Protein.RotatedTorsions>
[ 6907 6896 6895 6894 ] final   -5.33 input  -60.11 | X-H torsion
[ 7974 7965 7964 7962 ] final  -16.59 input  175.53 | X-H torsion
[ 8008 7997 7996 7995 ] final -164.99 input   59.86 | X-H torsion
[ 10167 10162 10161 10158 ] final  -67.46 input  -65.29 | X-H torsion
[ 10718 10713 10712 10709 ] final -174.51 input   66.30 | X-H torsion
[ 10763 10752 10751 10750 ] final  -82.22 input  -60.55 | X-H torsion
[ 11005 11000 10999 10996 ] final -153.42 input  -57.11 | X-H torsion

> <Gold.Protein.ActiveResidues>
 VAL166  LYS551  ARG553  GLY616  TRP617  ASP618  TYR619  PRO620  LYS621  CYS622 
 ASP623  PHE694  ASN695  SER759  ASP760  ASP761  ALA762  ILE779  LEU786  VAL792 
 PHE793  MET794  SER795  GLU796  ALA797  LYS798  CYS799  TRP800  GLU811  SER814 

> <Gold.Protein.RotatedAtoms>
  151.4833  135.1053  159.9783 H   0  0  0  0  0  0  0  0  0  0  0  0  # atno 6907 bound_to 6896
  152.4770  133.8159  159.7038 H   0  0  0  0  0  0  0  0  0  0  0  0  # atno 6908 bound_to 6896
  150.8815  133.7303  159.2957 H   0  0  0  0  0  0  0  0  0  0  0  0  # atno 6909 bound_to 6896
  146.1980  140.3658  142.8433 H   0  0  0  0  0  0  0  0  0  0  0  0  # atno 7974 bound_to 7965
  155.8435  140.0952  157.1720 H   0  0  0  0  0  0  0  0  0  0  0  0  # atno 8008 bound_to 7997
  154.3982  140.1396  156.3819 H   0  0  0  0  0  0  0  0  0  0  0  0  # atno 8009 bound_to 7997
  155.8039  140.3452  155.5421 H   0  0  0  0  0  0  0  0  0  0  0  0  # atno 8010 bound_to 7997
  140.5581  143.2312  151.6782 H   0  0  0  0  0  0  0  0  0  0  0  0  # atno 10167 bound_to 10162
  156.7862  130.9501  151.3120 H   0  0  0  0  0  0  0  0  0  0  0  0  # atno 10718 bound_to 10713
  154.5731  135.5599  153.7114 H   0  0  0  0  0  0  0  0  0  0  0  0  # atno 10763 bound_to 10752
  153.0055  135.6302  154.2086 H   0  0  0  0  0  0  0  0  0  0  0  0  # atno 10764 bound_to 10752
  154.2026  135.2877  155.2965 H   0  0  0  0  0  0  0  0  0  0  0  0  # atno 10765 bound_to 10752
  140.7083  134.3861  157.5201 H   0  0  0  0  0  0  0  0  0  0  0  0  # atno 11005 bound_to 11000
  144.8622  140.7156  143.6100 LP  0  0  0  0  0  0  0  0  0  0  0  0  # atno 17320 bound_to 7965
  145.3578  139.1689  143.4400 LP  0  0  0  0  0  0  0  0  0  0  0  0  # atno 17321 bound_to 7965
  139.5057  144.3708  152.0472 LP  0  0  0  0  0  0  0  0  0  0  0  0  # atno 17342 bound_to 10162
  140.2831  144.3837  150.6112 LP  0  0  0  0  0  0  0  0  0  0  0  0  # atno 17343 bound_to 10162
  157.6623  130.8977  149.9856 LP  0  0  0  0  0  0  0  0  0  0  0  0  # atno 17370 bound_to 10713
  156.1187  130.3647  149.9923 LP  0  0  0  0  0  0  0  0  0  0  0  0  # atno 17371 bound_to 10713
  139.8878  134.8872  156.2507 LP  0  0  0  0  0  0  0  0  0  0  0  0  # atno 17394 bound_to 11000
  141.0106  133.7098  156.1105 LP  0  0  0  0  0  0  0  0  0  0  0  0  # atno 17395 bound_to 11000

$$$$
