AV-unprocessed.smi:1014|AV-procd|sdf|4430|dock8
  -GOLD-   22720 2383D 1   1.00000     0.00000
 Structure written by MMmdl.
 34 34  0  0  0  0  0  0  0  0  2 V2000
  146.8506  142.4551  154.2828 C   0  0  0  0  0  0  0  0  0  0  0  0
  147.8451  141.4034  153.7670 C   0  0  0  0  0  0  0  0  0  0  0  0
  148.7792  140.8171  154.8480 C   0  0  2  0  0  0  0  0  0  0  0  0
  149.6893  141.8806  155.3306 N   0  3  0  0  0  0  0  0  0  0  0  0
  150.1448  141.7400  156.7316 C   0  0  0  0  0  0  0  0  0  0  0  0
  151.3557  140.7993  156.8404 C   0  0  0  0  0  0  0  0  0  0  0  0
  152.0355  140.9218  158.1175 N   0  0  0  0  0  0  0  0  0  0  0  0
  151.8146  141.8412  159.1210 C   0  0  0  0  0  0  0  0  0  0  0  0
  152.6969  141.5706  160.1284 C   0  0  0  0  0  0  0  0  0  0  0  0
  152.8691  142.2777  161.4419 C   0  0  0  0  0  0  0  0  0  0  0  0
  153.4247  140.4493  159.6386 C   0  0  0  0  0  0  0  0  0  0  0  0
  153.0284  140.0644  158.4362 N   0  0  0  0  0  0  0  0  0  0  0  0
  149.5734  139.6144  154.3127 C   0  0  0  0  0  0  0  0  0  0  0  0
  148.8822  138.6433  153.7102 N   0  0  0  0  0  0  0  0  0  0  0  0
  150.7960  139.5666  154.4353 O   0  0  0  0  0  0  0  0  0  0  0  0
  146.2728  142.8741  153.4587 H   0  0  0  0  0  0  0  0  0  0  0  0
  147.3689  143.2783  154.7749 H   0  0  0  0  0  0  0  0  0  0  0  0
  146.1415  142.0297  154.9929 H   0  0  0  0  0  0  0  0  0  0  0  0
  147.2972  140.6010  153.2702 H   0  0  0  0  0  0  0  0  0  0  0  0
  148.4537  141.8711  152.9917 H   0  0  0  0  0  0  0  0  0  0  0  0
  148.1636  140.4965  155.6904 H   0  0  0  0  0  0  0  0  0  0  0  0
  150.4941  141.9183  154.7210 H   0  0  0  0  0  0  0  0  0  0  0  0
  150.3996  142.7200  157.1378 H   0  0  0  0  0  0  0  0  0  0  0  0
  149.3276  141.3467  157.3370 H   0  0  0  0  0  0  0  0  0  0  0  0
  151.0282  139.7647  156.7298 H   0  0  0  0  0  0  0  0  0  0  0  0
  152.0680  140.9876  156.0354 H   0  0  0  0  0  0  0  0  0  0  0  0
  151.0559  142.6054  159.0370 H   0  0  0  0  0  0  0  0  0  0  0  0
  153.2159  141.6005  162.2227 H   0  0  0  0  0  0  0  0  0  0  0  0
  151.9344  142.7168  161.7917 H   0  0  0  0  0  0  0  0  0  0  0  0
  153.5971  143.0858  161.3700 H   0  0  0  0  0  0  0  0  0  0  0  0
  154.2260  139.9072  160.1188 H   0  0  0  0  0  0  0  0  0  0  0  0
  149.3578  137.8291  153.3488 H   0  0  0  0  0  0  0  0  0  0  0  0
  147.8789  138.7232  153.6242 H   0  0  0  0  0  0  0  0  0  0  0  0
  149.1982  142.7611  155.2644 H   0  0  0  0  0  0  0  0  0  0  0  0
  1  2  1  0  0  0  0
  1 16  1  0  0  0  0
  1 17  1  0  0  0  0
  1 18  1  0  0  0  0
  2  3  1  0  0  0  0
  2 19  1  0  0  0  0
  2 20  1  0  0  0  0
  3  4  1  0  0  0  0
  3 13  1  0  0  0  0
  3 21  1  0  0  0  0
  4  5  1  0  0  0  0
  4 22  1  0  0  0  0
  4 34  1  0  0  0  0
  5  6  1  0  0  0  0
  5 23  1  0  0  0  0
  5 24  1  0  0  0  0
  6  7  1  0  0  0  0
  6 25  1  0  0  0  0
  6 26  1  0  0  0  0
  7 12  1  0  0  0  0
  7  8  1  0  0  0  0
  8  9  2  0  0  0  0
  8 27  1  0  0  0  0
  9 10  1  0  0  0  0
  9 11  1  0  0  0  0
 10 28  1  0  0  0  0
 10 29  1  0  0  0  0
 10 30  1  0  0  0  0
 11 12  2  0  0  0  0
 11 31  1  0  0  0  0
 13 14  1  0  0  0  0
 13 15  2  0  0  0  0
 14 32  1  0  0  0  0
 14 33  1  0  0  0  0
M  CHG  1   4   1
M  END
> <s_m_source_file>
AV-unprocessed.smi

> <i_m_source_file_index>
1014

> <i_lp_mmshare_version>
43012

> <i_f3d_flags>
0

> <s_epik_input>
W0NIM11bQ0gyXVtDQEBIXShDKD1PKVtOSDJdKVtOSF1bQ0gyXVtDSDJdbjFbY0hdYyhbQ0gzXSlbY0hdbjE=

> <s_epik_cmdline>
J2VwaWtfcHl0aG9uJywgJy1waCcsICc3LjAnLCAnLXRuJywgJzgnLCAnLW1hJywgJzIwMCcsICctbWV0YWxfYmluZGluZycsICctaW1hZScsICc8aW5maWxlLm1hZT4nLCAnLW9tYWUnLCAnPG91dGZpbGUubWFlPic=

> <r_lp_tautomer_probability>
1

> <r_epik_Ionization_Penalty>
0.19042

> <r_epik_Ionization_Penalty_Charging>
0.190412

> <r_epik_Ionization_Penalty_Neutral>
7.5834e-06

> <r_epik_State_Penalty>
0.180404

> <r_epik_Charging_Adjusted_Penalty>
0.370816

> <i_epik_Tot_Q>
1

> <i_epik_Tot_abs_Q>
1

> <r_epik_Metal_State_Penalty>
0.180563

> <b_epik_Metal_Only>
0

> <s_lp_Force_Field>
OPLS_2005

> <r_lp_Energy>
2.67467

> <b_lp_Chiralities_Consistent>
1

> <s_lp_Variant>
AV-unprocessed.smi:1014-1

> <Gold.Version>
5.8.1

> <Gold.Id.Protein>
6NUR|6NUR_protein|mol2

> <Gold.PLP.Fitness>
46.6753

> <Gold.PLP.PLP>
-34.7453

> <Gold.PLP.part.hbond>
-4.9992

> <Gold.PLP.part.metal>
0.0000

> <Gold.PLP.part.buried>
-3.6816

> <Gold.PLP.part.nonpolar>
-26.5674

> <Gold.PLP.part.repulsive>
0.3672

> <Gold.PLP.ligand.clash>
0.0000

> <Gold.PLP.ligand.torsion>
0.7239

> <Gold.PLP.Chemscore.Hbond>
4.4288

> <Gold.PLP.Chemscore.CHOScore>
0.0000

> <Gold.PLP.Chemscore.Metal>
0.0000

> <Gold.Chemscore.Hbonds>
donor molecule, donor type, donor heavy atom, donor atom, acceptor molecule, acceptor atom, score
      L1  H     4    34       P1  8028  2.00
      L1  H    14    32       P1  7948  0.46
      P1  H  7989  7998       L1    15  1.00
      P1  H  7997  8009       L1    12  0.83

> <Gold.PLP.Chemscore.Internal.Correction>
0.0913

> <Gold.Rescore>
     Score         DG    S(hbond)    S(metal)    S(lipo)     H(rot)  DE(clash)    DE(int)     intcor
     16.27     -18.86       3.57        0.00      69.07       2.59       0.56       2.03       ----

> <Gold.Chemscore.Fitness>
16.2722

> <Gold.Chemscore.DG>
-18.8560

> <Gold.Chemscore.ZeroCoef>
-5.4800

> <Gold.Chemscore.Hbond>
3.5687

> <Gold.Chemscore.Metal>
0.0000

> <Gold.Chemscore.Lipo>
69.0718

> <Gold.Chemscore.Internal_Hbond>
0.0000

> <Gold.Chemscore.DEClash>
0.5554

> <Gold.Chemscore.DEInternal>
2.0284

> <Gold.Chemscore.Rot>
2.5878

> <Gold.Chemscore.Internal.Correction>
   9.000000E+99

> <Gold.Chemscore.Hbonds>
donor molecule, donor type, donor heavy atom, donor atom, acceptor molecule, acceptor atom, score
      L1  H     4    34       P1  8028  0.93
      L1  H    14    32       P1  7948  0.44
      P1  H  7989  7998       L1    15  0.82
      P1  H  7997  8009       L1    12  0.58

> <Gold.Chemscore.Hbond.Weighted>
-11.9193

> <Gold.Chemscore.Metal.Weighted>
-0.0000

> <Gold.Chemscore.Lipo.Weighted>
-8.0814

> <Gold.Chemscore.Internal_Hbond.Weighted>
0.0000

> <Gold.Chemscore.DEClash.Weighted>
0.5554

> <Gold.Chemscore.DEInternal.Weighted>
2.0284

> <Gold.Chemscore.Rot.Weighted>
6.6247

> <Gold.Chemscore.Internal.Correction.Weighted>
   9.000000E+99

> <Gold.Protein.RotatedTorsions>
[ 6907 6896 6895 6894 ] final  -18.19 input  -60.11 | X-H torsion
[ 7974 7965 7964 7962 ] final  -30.34 input  175.53 | X-H torsion
[ 8008 7997 7996 7995 ] final  154.30 input   59.86 | X-H torsion
[ 10167 10162 10161 10158 ] final -125.68 input  -65.29 | X-H torsion
[ 10718 10713 10712 10709 ] final  121.48 input   66.30 | X-H torsion
[ 10763 10752 10751 10750 ] final -144.47 input  -60.55 | X-H torsion
[ 11005 11000 10999 10996 ] final  -26.55 input  -57.11 | X-H torsion

> <Gold.Protein.ActiveResidues>
 VAL166  LYS551  ARG553  GLY616  TRP617  ASP618  TYR619  PRO620  LYS621  CYS622 
 ASP623  PHE694  ASN695  SER759  ASP760  ASP761  ALA762  ILE779  LEU786  VAL792 
 PHE793  MET794  SER795  GLU796  ALA797  LYS798  CYS799  TRP800  GLU811  SER814 

> <Gold.Protein.RotatedAtoms>
  151.2818  135.0716  159.9172 H   0  0  0  0  0  0  0  0  0  0  0  0  # atno 6907 bound_to 6896
  152.5332  134.0022  159.7910 H   0  0  0  0  0  0  0  0  0  0  0  0  # atno 6908 bound_to 6896
  151.0278  133.5767  159.2695 H   0  0  0  0  0  0  0  0  0  0  0  0  # atno 6909 bound_to 6896
  146.1150  140.5527  142.8761 H   0  0  0  0  0  0  0  0  0  0  0  0  # atno 7974 bound_to 7965
  156.2538  140.1970  156.6625 H   0  0  0  0  0  0  0  0  0  0  0  0  # atno 8008 bound_to 7997
  154.6454  140.0578  156.9919 H   0  0  0  0  0  0  0  0  0  0  0  0  # atno 8009 bound_to 7997
  155.1499  140.3250  155.4436 H   0  0  0  0  0  0  0  0  0  0  0  0  # atno 8010 bound_to 7997
  139.9795  143.5758  152.2383 H   0  0  0  0  0  0  0  0  0  0  0  0  # atno 10167 bound_to 10162
  157.5814  131.1074  150.8179 H   0  0  0  0  0  0  0  0  0  0  0  0  # atno 10718 bound_to 10713
  154.8426  135.3439  154.6352 H   0  0  0  0  0  0  0  0  0  0  0  0  # atno 10763 bound_to 10752
  153.6962  135.6972  153.5080 H   0  0  0  0  0  0  0  0  0  0  0  0  # atno 10764 bound_to 10752
  153.2557  135.4339  155.0798 H   0  0  0  0  0  0  0  0  0  0  0  0  # atno 10765 bound_to 10752
  140.9039  133.7506  156.0580 H   0  0  0  0  0  0  0  0  0  0  0  0  # atno 11005 bound_to 11000
  144.7545  140.5273  143.6778 LP  0  0  0  0  0  0  0  0  0  0  0  0  # atno 17320 bound_to 7965
  145.5585  139.1478  143.3354 LP  0  0  0  0  0  0  0  0  0  0  0  0  # atno 17321 bound_to 7965
  139.6420  144.7655  151.2319 LP  0  0  0  0  0  0  0  0  0  0  0  0  # atno 17342 bound_to 10162
  140.7494  143.6301  150.8431 LP  0  0  0  0  0  0  0  0  0  0  0  0  # atno 17343 bound_to 10162
  156.8624  130.5118  149.5302 LP  0  0  0  0  0  0  0  0  0  0  0  0  # atno 17370 bound_to 10713
  156.0860  130.5859  150.9650 LP  0  0  0  0  0  0  0  0  0  0  0  0  # atno 17371 bound_to 10713
  140.8195  134.3305  157.5386 LP  0  0  0  0  0  0  0  0  0  0  0  0  # atno 17394 bound_to 11000
  139.8746  134.9301  156.3494 LP  0  0  0  0  0  0  0  0  0  0  0  0  # atno 17395 bound_to 11000

$$$$
