AV-unprocessed.smi:702|AV-procd|sdf|3417|dock4
  -GOLD-   22720 0403D 1   1.00000     0.00000
 Structure written by MMmdl.
 50 52  0  0  0  0  0  0  0  0  2 V2000
  145.4060  138.8574  153.4524 C   0  0  0  0  0  0  0  0  0  0  0  0
  146.5803  138.0695  154.0648 C   0  0  1  0  0  0  0  0  0  0  0  0
  146.8400  136.8965  153.2210 N   0  0  0  0  0  0  0  0  0  0  0  0
  145.9330  136.0187  152.7655 C   0  0  0  0  0  0  0  0  0  0  0  0
  144.7277  136.1033  152.9975 O   0  0  0  0  0  0  0  0  0  0  0  0
  146.5214  135.0593  152.0298 N   0  0  0  0  0  0  0  0  0  0  0  0
  145.9338  133.9360  151.3859 C   0  0  0  0  0  0  0  0  0  0  0  0
  144.5268  133.8995  151.2949 C   0  0  0  0  0  0  0  0  0  0  0  0
  143.9148  132.8061  150.6503 C   0  0  0  0  0  0  0  0  0  0  0  0
  144.6074  131.7855  150.1031 N   0  0  0  0  0  0  0  0  0  0  0  0
  145.9543  131.8278  150.1788 C   0  0  0  0  0  0  0  0  0  0  0  0
  146.6654  132.8741  150.8004 C   0  0  0  0  0  0  0  0  0  0  0  0
  147.8711  138.9404  154.2906 C   0  0  0  0  0  0  0  0  0  0  0  0
  149.1051  138.0638  154.3072 N   0  3  0  0  0  0  0  0  0  0  0  0
  150.4083  138.7900  154.3568 C   0  0  0  0  0  0  0  0  0  0  0  0
  151.5883  137.8149  154.2058 C   0  0  0  0  0  0  0  0  0  0  0  0
  151.5275  136.8207  155.2169 O   0  0  0  0  0  0  0  0  0  0  0  0
  150.3398  136.0505  155.1165 C   0  0  0  0  0  0  0  0  0  0  0  0
  149.1181  136.9614  155.3169 C   0  0  0  0  0  0  0  0  0  0  0  0
  147.9851  140.0444  153.1947 C   0  0  0  0  0  0  0  0  0  0  0  0
  147.6177  141.3729  153.8581 C   0  0  0  0  0  0  0  0  0  0  0  0
  148.0722  141.2011  155.3017 C   0  0  0  0  0  0  0  0  0  0  0  0
  147.7246  139.7466  155.6224 C   0  0  0  0  0  0  0  0  0  0  0  0
  145.1117  139.6975  154.0811 H   0  0  0  0  0  0  0  0  0  0  0  0
  144.5278  138.2202  153.3411 H   0  0  0  0  0  0  0  0  0  0  0  0
  145.6507  139.2510  152.4658 H   0  0  0  0  0  0  0  0  0  0  0  0
  146.2357  137.6923  155.0254 H   0  0  0  0  0  0  0  0  0  0  0  0
  147.8045  136.7364  152.9691 H   0  0  0  0  0  0  0  0  0  0  0  0
  147.5132  135.1678  151.8764 H   0  0  0  0  0  0  0  0  0  0  0  0
  143.9217  134.6903  151.7138 H   0  0  0  0  0  0  0  0  0  0  0  0
  142.8391  132.7516  150.5708 H   0  0  0  0  0  0  0  0  0  0  0  0
  146.4839  131.0037  149.7243 H   0  0  0  0  0  0  0  0  0  0  0  0
  147.7435  132.8420  150.8024 H   0  0  0  0  0  0  0  0  0  0  0  0
  150.4990  139.5194  153.5562 H   0  0  0  0  0  0  0  0  0  0  0  0
  150.5017  139.3350  155.2967 H   0  0  0  0  0  0  0  0  0  0  0  0
  151.5844  137.3490  153.2188 H   0  0  0  0  0  0  0  0  0  0  0  0
  152.5325  138.3518  154.2983 H   0  0  0  0  0  0  0  0  0  0  0  0
  150.2962  135.5425  154.1515 H   0  0  0  0  0  0  0  0  0  0  0  0
  150.3588  135.2755  155.8830 H   0  0  0  0  0  0  0  0  0  0  0  0
  149.1417  137.3647  156.3286 H   0  0  0  0  0  0  0  0  0  0  0  0
  148.2338  136.3322  155.2557 H   0  0  0  0  0  0  0  0  0  0  0  0
  148.9986  140.1360  152.8092 H   0  0  0  0  0  0  0  0  0  0  0  0
  147.3621  139.8454  152.3225 H   0  0  0  0  0  0  0  0  0  0  0  0
  148.0859  142.2283  153.3702 H   0  0  0  0  0  0  0  0  0  0  0  0
  146.5376  141.5215  153.8241 H   0  0  0  0  0  0  0  0  0  0  0  0
  149.1490  141.3577  155.3719 H   0  0  0  0  0  0  0  0  0  0  0  0
  147.5888  141.9062  155.9786 H   0  0  0  0  0  0  0  0  0  0  0  0
  146.6976  139.7425  155.9849 H   0  0  0  0  0  0  0  0  0  0  0  0
  148.2975  139.3442  156.4567 H   0  0  0  0  0  0  0  0  0  0  0  0
  149.0952  137.5965  153.4117 H   0  0  0  0  0  0  0  0  0  0  0  0
  1  2  1  0  0  0  0
  1 24  1  0  0  0  0
  1 25  1  0  0  0  0
  1 26  1  0  0  0  0
  2  3  1  0  0  0  0
  2 13  1  0  0  0  0
  2 27  1  0  0  0  0
  3  4  1  0  0  0  0
  3 28  1  0  0  0  0
  4  5  2  0  0  0  0
  4  6  1  0  0  0  0
  6  7  1  0  0  0  0
  6 29  1  0  0  0  0
  7 12  1  0  0  0  0
  7  8  2  0  0  0  0
  8  9  1  0  0  0  0
  8 30  1  0  0  0  0
  9 10  2  0  0  0  0
  9 31  1  0  0  0  0
 10 11  1  0  0  0  0
 11 12  2  0  0  0  0
 11 32  1  0  0  0  0
 12 33  1  0  0  0  0
 13 23  1  0  0  0  0
 13 14  1  0  0  0  0
 13 20  1  0  0  0  0
 14 19  1  0  0  0  0
 14 15  1  0  0  0  0
 14 50  1  0  0  0  0
 15 16  1  0  0  0  0
 15 34  1  0  0  0  0
 15 35  1  0  0  0  0
 16 17  1  0  0  0  0
 16 36  1  0  0  0  0
 16 37  1  0  0  0  0
 17 18  1  0  0  0  0
 18 19  1  0  0  0  0
 18 38  1  0  0  0  0
 18 39  1  0  0  0  0
 19 40  1  0  0  0  0
 19 41  1  0  0  0  0
 20 21  1  0  0  0  0
 20 42  1  0  0  0  0
 20 43  1  0  0  0  0
 21 22  1  0  0  0  0
 21 44  1  0  0  0  0
 21 45  1  0  0  0  0
 22 23  1  0  0  0  0
 22 46  1  0  0  0  0
 22 47  1  0  0  0  0
 23 48  1  0  0  0  0
 23 49  1  0  0  0  0
M  CHG  1  14   1
M  END
> <s_m_source_file>
AV-unprocessed.smi

> <i_m_source_file_index>
702

> <i_lp_mmshare_version>
43012

> <i_f3d_flags>
0

> <s_epik_input>
W0NIMl0xW0NIMl1PW0NIMl1bQ0gyXU4xQzIoW0NIMl1bQ0gyXVtDSDJdW0NIMl0yKVtDQEhdKFtDSDNdKVtOSF1DKD1PKVtOSF1jM1tjSF1bY0hdbltjSF1bY0hdMw==

> <s_epik_cmdline>
J2VwaWtfcHl0aG9uJywgJy1waCcsICc3LjAnLCAnLXRuJywgJzgnLCAnLW1hJywgJzIwMCcsICctbWV0YWxfYmluZGluZycsICctaW1hZScsICc8aW5maWxlLm1hZT4nLCAnLW9tYWUnLCAnPG91dGZpbGUubWFlPic=

> <r_epik_Ionization_Penalty>
0.42559

> <r_epik_Ionization_Penalty_Charging>
0.324387

> <r_epik_Ionization_Penalty_Neutral>
0.101203

> <r_epik_State_Penalty>
0.407162

> <r_epik_Charging_Adjusted_Penalty>
0.731549

> <i_epik_Tot_Q>
1

> <i_epik_Tot_abs_Q>
1

> <r_epik_Metal_State_Penalty>
0.398289

> <b_epik_Metal_Only>
0

> <s_lp_Force_Field>
OPLS_2005

> <r_lp_Energy>
55.6583

> <b_lp_Chiralities_Consistent>
1

> <s_lp_Variant>
AV-unprocessed.smi:702-2

> <Gold.Version>
5.8.1

> <Gold.Id.Protein>
6NUR|6NUR_protein|mol2

> <Gold.PLP.Fitness>
48.5811

> <Gold.PLP.PLP>
-31.0803

> <Gold.PLP.part.hbond>
-4.3385

> <Gold.PLP.part.metal>
0.0000

> <Gold.PLP.part.buried>
3.1608

> <Gold.PLP.part.nonpolar>
-30.3583

> <Gold.PLP.part.repulsive>
0.4513

> <Gold.PLP.ligand.clash>
0.0000

> <Gold.PLP.ligand.torsion>
1.0562

> <Gold.PLP.Chemscore.Hbond>
5.0000

> <Gold.PLP.Chemscore.CHOScore>
1.4901

> <Gold.PLP.Chemscore.Metal>
0.0000

> <Gold.Chemscore.Hbonds>
donor molecule, donor type, donor heavy atom, donor atom, acceptor molecule, acceptor atom, score
      L1  H     3    28       P1  7948  1.00
      L1  H     6    29       P1  7948  1.00
      L1  H    14    50       P1  7948  1.92
      P1  H 10752 10765       L1    17  0.95
      L1  C     9    31       P1 10186  0.63
      L1  C    11    32       P1 10747  0.72

> <Gold.PLP.Chemscore.Internal.Correction>
0.1428

> <Gold.Rescore>
     Score         DG    S(hbond)    S(metal)    S(lipo)     H(rot)  DE(clash)    DE(int)     intcor
     17.66     -24.64       3.31        0.00     100.98       1.45       3.29       3.70       ----

> <Gold.Chemscore.Fitness>
17.6570

> <Gold.Chemscore.DG>
-24.6435

> <Gold.Chemscore.ZeroCoef>
-5.4800

> <Gold.Chemscore.Hbond>
3.3121

> <Gold.Chemscore.Metal>
0.0000

> <Gold.Chemscore.Lipo>
100.9750

> <Gold.Chemscore.Internal_Hbond>
0.0000

> <Gold.Chemscore.DEClash>
3.2855

> <Gold.Chemscore.DEInternal>
3.7010

> <Gold.Chemscore.Rot>
1.4504

> <Gold.Chemscore.Internal.Correction>
   9.000000E+99

> <Gold.Chemscore.Hbonds>
donor molecule, donor type, donor heavy atom, donor atom, acceptor molecule, acceptor atom, score
      L1  H     3    28       P1  7948  0.94
      L1  H     6    29       P1  7948  0.88
      L1  H    14    50       P1  7948  0.91
      P1  H 10752 10765       L1    17  0.09

> <Gold.Chemscore.Hbond.Weighted>
-11.0623

> <Gold.Chemscore.Metal.Weighted>
-0.0000

> <Gold.Chemscore.Lipo.Weighted>
-11.8141

> <Gold.Chemscore.Internal_Hbond.Weighted>
0.0000

> <Gold.Chemscore.DEClash.Weighted>
3.2855

> <Gold.Chemscore.DEInternal.Weighted>
3.7010

> <Gold.Chemscore.Rot.Weighted>
3.7129

> <Gold.Chemscore.Internal.Correction.Weighted>
   9.000000E+99

> <Gold.Protein.RotatedTorsions>
[ 6907 6896 6895 6894 ] final   84.65 input  -60.11 | X-H torsion
[ 7974 7965 7964 7962 ] final  118.55 input  175.53 | X-H torsion
[ 8008 7997 7996 7995 ] final  124.83 input   59.86 | X-H torsion
[ 10167 10162 10161 10158 ] final   81.84 input  -65.29 | X-H torsion
[ 10718 10713 10712 10709 ] final  173.38 input   66.30 | X-H torsion
[ 10763 10752 10751 10750 ] final  177.54 input  -60.55 | X-H torsion
[ 11005 11000 10999 10996 ] final   56.60 input  -57.11 | X-H torsion

> <Gold.Protein.ActiveResidues>
 VAL166  LYS551  ARG553  GLY616  TRP617  ASP618  TYR619  PRO620  LYS621  CYS622 
 ASP623  PHE694  ASN695  SER759  ASP760  ASP761  ALA762  ILE779  LEU786  VAL792 
 PHE793  MET794  SER795  GLU796  ALA797  LYS798  CYS799  TRP800  GLU811  SER814 

> <Gold.Protein.RotatedAtoms>
  152.5357  134.2707  159.8970 H   0  0  0  0  0  0  0  0  0  0  0  0  # atno 6907 bound_to 6896
  151.2664  133.4270  159.2626 H   0  0  0  0  0  0  0  0  0  0  0  0  # atno 6908 bound_to 6896
  151.0407  134.9619  159.8216 H   0  0  0  0  0  0  0  0  0  0  0  0  # atno 6909 bound_to 6896
  145.1538  139.3194  143.4552 H   0  0  0  0  0  0  0  0  0  0  0  0  # atno 7974 bound_to 7965
  156.2814  140.2730  156.1851 H   0  0  0  0  0  0  0  0  0  0  0  0  # atno 8008 bound_to 7997
  155.0516  140.0386  157.2564 H   0  0  0  0  0  0  0  0  0  0  0  0  # atno 8009 bound_to 7997
  154.7190  140.2684  155.6564 H   0  0  0  0  0  0  0  0  0  0  0  0  # atno 8010 bound_to 7997
  139.9350  144.6127  150.8307 H   0  0  0  0  0  0  0  0  0  0  0  0  # atno 10167 bound_to 10162
  156.9651  131.0072  151.2918 H   0  0  0  0  0  0  0  0  0  0  0  0  # atno 10718 bound_to 10713
  154.4958  135.2781  155.1460 H   0  0  0  0  0  0  0  0  0  0  0  0  # atno 10763 bound_to 10752
  154.3113  135.6228  153.5470 H   0  0  0  0  0  0  0  0  0  0  0  0  # atno 10764 bound_to 10752
  152.9895  135.5720  154.5390 H   0  0  0  0  0  0  0  0  0  0  0  0  # atno 10765 bound_to 10752
  140.0516  134.5728  155.9256 H   0  0  0  0  0  0  0  0  0  0  0  0  # atno 11005 bound_to 11000
  146.3491  140.1623  142.8590 LP  0  0  0  0  0  0  0  0  0  0  0  0  # atno 17320 bound_to 7965
  145.0402  140.8939  143.5057 LP  0  0  0  0  0  0  0  0  0  0  0  0  # atno 17321 bound_to 7965
  140.7627  143.3204  151.2635 LP  0  0  0  0  0  0  0  0  0  0  0  0  # atno 17342 bound_to 10162
  139.6751  143.9952  152.2776 LP  0  0  0  0  0  0  0  0  0  0  0  0  # atno 17343 bound_to 10162
  157.5631  130.8259  149.8292 LP  0  0  0  0  0  0  0  0  0  0  0  0  # atno 17370 bound_to 10713
  156.0306  130.3766  150.1698 LP  0  0  0  0  0  0  0  0  0  0  0  0  # atno 17371 bound_to 10713
  141.1933  133.6578  156.5542 LP  0  0  0  0  0  0  0  0  0  0  0  0  # atno 17394 bound_to 11000
  140.3908  134.7442  157.4720 LP  0  0  0  0  0  0  0  0  0  0  0  0  # atno 17395 bound_to 11000

$$$$
