AV-unprocessed.smi:3228|AV-procd|sdf|12319|dock1
  -GOLD-   2272018163D 1   1.00000     0.00000
 Structure written by MMmdl.
 31 32  0  0  0  0  0  0  0  0  1 V2000
  144.7534  137.3304  152.3089 O   0  0  0  0  0  0  0  0  0  0  0  0
  145.9299  137.0381  152.0923 C   0  0  0  0  0  0  0  0  0  0  0  0
  146.9410  137.9115  152.2040 N   0  0  0  0  0  0  0  0  0  0  0  0
  146.8001  139.3113  152.5914 C   0  0  0  0  0  0  0  0  0  0  0  0
  147.6640  139.6653  153.8187 C   0  0  2  0  0  0  0  0  0  0  0  0
  147.9205  141.1705  153.9937 C   0  0  0  0  0  0  0  0  0  0  0  0
  149.2757  141.3000  154.7077 C   0  0  0  0  0  0  0  0  0  0  0  0
  149.8496  139.8816  154.8093 C   0  0  0  0  0  0  0  0  0  0  0  0
  149.0723  139.0643  153.7765 C   0  0  1  0  0  0  0  0  0  0  0  0
  149.0781  137.6881  154.0944 O   0  0  0  0  0  0  0  0  0  0  0  0
  146.3740  135.8259  151.7166 N   0  0  0  0  0  0  0  0  0  0  0  0
  145.6192  134.6447  151.4922 C   0  0  0  0  0  0  0  0  0  0  0  0
  144.2952  134.6198  151.2978 N   0  0  0  0  0  0  0  0  0  0  0  0
  143.8181  133.3210  151.1031 C   0  0  0  0  0  0  0  0  0  0  0  0
  144.7996  132.3626  151.1530 C   0  0  0  0  0  0  0  0  0  0  0  0
  146.3716  133.0571  151.4471 S   0  0  0  0  0  0  0  0  0  0  0  0
  147.8763  137.5865  152.0070 H   0  0  0  0  0  0  0  0  0  0  0  0
  147.0572  139.9554  151.7488 H   0  0  0  0  0  0  0  0  0  0  0  0
  145.7478  139.4964  152.8084 H   0  0  0  0  0  0  0  0  0  0  0  0
  147.1693  139.3051  154.7227 H   0  0  0  0  0  0  0  0  0  0  0  0
  147.9796  141.6600  153.0206 H   0  0  0  0  0  0  0  0  0  0  0  0
  147.1165  141.6534  154.5501 H   0  0  0  0  0  0  0  0  0  0  0  0
  149.9414  141.9415  154.1291 H   0  0  0  0  0  0  0  0  0  0  0  0
  149.1689  141.7489  155.6959 H   0  0  0  0  0  0  0  0  0  0  0  0
  150.9267  139.8518  154.6415 H   0  0  0  0  0  0  0  0  0  0  0  0
  149.6618  139.4927  155.8115 H   0  0  0  0  0  0  0  0  0  0  0  0
  149.5134  139.2089  152.7892 H   0  0  0  0  0  0  0  0  0  0  0  0
  148.7887  137.2031  153.3364 H   0  0  0  0  0  0  0  0  0  0  0  0
  147.3695  135.7369  151.5751 H   0  0  0  0  0  0  0  0  0  0  0  0
  142.7621  133.1690  150.9350 H   0  0  0  0  0  0  0  0  0  0  0  0
  144.6934  131.2945  151.0345 H   0  0  0  0  0  0  0  0  0  0  0  0
  1  2  2  0  0  0  0
  2  3  1  0  0  0  0
  2 11  1  0  0  0  0
  3  4  1  0  0  0  0
  3 17  1  0  0  0  0
  4  5  1  0  0  0  0
  4 18  1  0  0  0  0
  4 19  1  0  0  0  0
  5  9  1  0  0  0  0
  5  6  1  0  0  0  0
  5 20  1  0  0  0  0
  6  7  1  0  0  0  0
  6 21  1  0  0  0  0
  6 22  1  0  0  0  0
  7  8  1  0  0  0  0
  7 23  1  0  0  0  0
  7 24  1  0  0  0  0
  8  9  1  0  0  0  0
  8 25  1  0  0  0  0
  8 26  1  0  0  0  0
  9 10  1  0  0  0  0
  9 27  1  0  0  0  0
 10 28  1  0  0  0  0
 11 12  1  0  0  0  0
 11 29  1  0  0  0  0
 12 16  1  0  0  0  0
 12 13  2  0  0  0  0
 13 14  1  0  0  0  0
 14 15  2  0  0  0  0
 14 30  1  0  0  0  0
 15 16  1  0  0  0  0
 15 31  1  0  0  0  0
M  END
> <s_m_source_file>
AV-unprocessed.smi

> <i_m_source_file_index>
3228

> <i_lp_mmshare_version>
43012

> <i_f3d_flags>
0

> <s_epik_input>
czFbY0hdW2NIXW5jMVtOSF1DKD1PKVtOSF1bQ0gyXVtDQEBIXTJbQ0gyXVtDSDJdW0NIMl1bQ0BIXTJbT0hd

> <s_epik_cmdline>
J2VwaWtfcHl0aG9uJywgJy1waCcsICc3LjAnLCAnLXRuJywgJzgnLCAnLW1hJywgJzIwMCcsICctbWV0YWxfYmluZGluZycsICctaW1hZScsICc8aW5maWxlLm1hZT4nLCAnLW9tYWUnLCAnPG91dGZpbGUubWFlPic=

> <r_lp_tautomer_probability>
0.999

> <r_epik_Ionization_Penalty>
0.000399498

> <r_epik_Ionization_Penalty_Charging>
0

> <r_epik_Ionization_Penalty_Neutral>
0.000399498

> <r_epik_State_Penalty>
0.000177984

> <r_epik_Charging_Adjusted_Penalty>
0.000177984

> <i_epik_Tot_Q>
0

> <i_epik_Tot_abs_Q>
0

> <r_epik_Metal_State_Penalty>
0.0060793

> <b_epik_Metal_Only>
0

> <s_lp_Force_Field>
OPLS_2005

> <r_lp_Energy>
20.7116

> <b_lp_Chiralities_Consistent>
1

> <s_lp_Variant>
AV-unprocessed.smi:3228-1

> <Gold.Version>
5.8.1

> <Gold.Id.Protein>
6NUR|6NUR_protein|mol2

> <Gold.PLP.Fitness>
40.0291

> <Gold.PLP.PLP>
-28.4878

> <Gold.PLP.part.hbond>
-3.0000

> <Gold.PLP.part.metal>
0.0000

> <Gold.PLP.part.buried>
-2.5650

> <Gold.PLP.part.nonpolar>
-24.9214

> <Gold.PLP.part.repulsive>
1.7978

> <Gold.PLP.ligand.clash>
0.0000

> <Gold.PLP.ligand.torsion>
0.2340

> <Gold.PLP.Chemscore.Hbond>
3.0000

> <Gold.PLP.Chemscore.CHOScore>
1.0000

> <Gold.PLP.Chemscore.Metal>
0.0000

> <Gold.Chemscore.Hbonds>
donor molecule, donor type, donor heavy atom, donor atom, acceptor molecule, acceptor atom, score
      L1  H     3    17       P1  7948  0.98
      L1  H    10    28       P1  7948  1.00
      L1  H    11    29       P1  7948  1.00
      L1  C    14    30       P1 10186  0.93

> <Gold.PLP.Chemscore.Internal.Correction>
0.0092

> <Gold.Rescore>
     Score         DG    S(hbond)    S(metal)    S(lipo)     H(rot)  DE(clash)    DE(int)     intcor
     14.56     -17.61       2.94        0.00      60.79       1.88       0.42       2.63       ----

> <Gold.Chemscore.Fitness>
14.5564

> <Gold.Chemscore.DG>
-17.6105

> <Gold.Chemscore.ZeroCoef>
-5.4800

> <Gold.Chemscore.Hbond>
2.9424

> <Gold.Chemscore.Metal>
0.0000

> <Gold.Chemscore.Lipo>
60.7869

> <Gold.Chemscore.Internal_Hbond>
0.0000

> <Gold.Chemscore.DEClash>
0.4225

> <Gold.Chemscore.DEInternal>
2.6316

> <Gold.Chemscore.Rot>
1.8786

> <Gold.Chemscore.Internal.Correction>
   9.000000E+99

> <Gold.Chemscore.Hbonds>
donor molecule, donor type, donor heavy atom, donor atom, acceptor molecule, acceptor atom, score
      L1  H     3    17       P1  7948  0.92
      L1  H    10    28       P1  7948  0.99
      L1  H    11    29       P1  7948  0.96

> <Gold.Chemscore.Hbond.Weighted>
-9.8275

> <Gold.Chemscore.Metal.Weighted>
-0.0000

> <Gold.Chemscore.Lipo.Weighted>
-7.1121

> <Gold.Chemscore.Internal_Hbond.Weighted>
0.0000

> <Gold.Chemscore.DEClash.Weighted>
0.4225

> <Gold.Chemscore.DEInternal.Weighted>
2.6316

> <Gold.Chemscore.Rot.Weighted>
4.8091

> <Gold.Chemscore.Internal.Correction.Weighted>
   9.000000E+99

> <Gold.Protein.RotatedTorsions>
[ 6907 6896 6895 6894 ] final  -39.40 input  -60.11 | X-H torsion
[ 7974 7965 7964 7962 ] final   40.43 input  175.53 | X-H torsion
[ 8008 7997 7996 7995 ] final -131.25 input   59.86 | X-H torsion
[ 10167 10162 10161 10158 ] final -143.49 input  -65.29 | X-H torsion
[ 10718 10713 10712 10709 ] final  134.78 input   66.30 | X-H torsion
[ 10763 10752 10751 10750 ] final   84.56 input  -60.55 | X-H torsion
[ 11005 11000 10999 10996 ] final -136.87 input  -57.11 | X-H torsion

> <Gold.Protein.ActiveResidues>
 VAL166  LYS551  ARG553  GLY616  TRP617  ASP618  TYR619  PRO620  LYS621  CYS622 
 ASP623  PHE694  ASN695  SER759  ASP760  ASP761  ALA762  ILE779  LEU786  VAL792 
 PHE793  MET794  SER795  GLU796  ALA797  LYS798  CYS799  TRP800  GLU811  SER814 

> <Gold.Protein.RotatedAtoms>
  150.9908  134.9243  159.7897 H   0  0  0  0  0  0  0  0  0  0  0  0  # atno 6907 bound_to 6896
  152.5250  134.3285  159.9184 H   0  0  0  0  0  0  0  0  0  0  0  0  # atno 6908 bound_to 6896
  151.3291  133.3967  159.2695 H   0  0  0  0  0  0  0  0  0  0  0  0  # atno 6909 bound_to 6896
  146.0905  139.5533  142.9479 H   0  0  0  0  0  0  0  0  0  0  0  0  # atno 7974 bound_to 7965
  155.3093  140.0456  157.3034 H   0  0  0  0  0  0  0  0  0  0  0  0  # atno 8008 bound_to 7997
  154.5442  140.2297  155.8557 H   0  0  0  0  0  0  0  0  0  0  0  0  # atno 8009 bound_to 7997
  156.1909  140.3051  155.9337 H   0  0  0  0  0  0  0  0  0  0  0  0  # atno 8010 bound_to 7997
  139.7988  143.7863  152.2656 H   0  0  0  0  0  0  0  0  0  0  0  0  # atno 10167 bound_to 10162
  157.4637  131.1075  150.9888 H   0  0  0  0  0  0  0  0  0  0  0  0  # atno 10718 bound_to 10713
  153.1393  135.4650  154.9470 H   0  0  0  0  0  0  0  0  0  0  0  0  # atno 10763 bound_to 10752
  154.7733  135.3165  154.8147 H   0  0  0  0  0  0  0  0  0  0  0  0  # atno 10764 bound_to 10752
  153.8673  135.6907  153.4831 H   0  0  0  0  0  0  0  0  0  0  0  0  # atno 10765 bound_to 10752
  140.8765  134.1986  157.4618 H   0  0  0  0  0  0  0  0  0  0  0  0  # atno 11005 bound_to 11000
  145.6048  141.0349  143.1999 LP  0  0  0  0  0  0  0  0  0  0  0  0  # atno 17320 bound_to 7965
  144.7357  139.7594  143.7330 LP  0  0  0  0  0  0  0  0  0  0  0  0  # atno 17321 bound_to 7965
  139.7976  144.7386  150.9868 LP  0  0  0  0  0  0  0  0  0  0  0  0  # atno 17342 bound_to 10162
  140.7820  143.4378  151.0598 LP  0  0  0  0  0  0  0  0  0  0  0  0  # atno 17343 bound_to 10162
  157.0676  130.5851  149.5397 LP  0  0  0  0  0  0  0  0  0  0  0  0  # atno 17370 bound_to 10713
  156.0040  130.5124  150.7766 LP  0  0  0  0  0  0  0  0  0  0  0  0  # atno 17371 bound_to 10713
  139.8716  134.9798  156.5050 LP  0  0  0  0  0  0  0  0  0  0  0  0  # atno 17394 bound_to 11000
  140.8512  133.8130  155.9170 LP  0  0  0  0  0  0  0  0  0  0  0  0  # atno 17395 bound_to 11000

$$$$
