AV-unprocessed.smi:2389|AV-procd|sdf|9472|dock1
  -GOLD-   2272013103D 1   1.00000     0.00000
 Structure written by MMmdl.
 34 35  0  0  0  0  0  0  0  0  1 V2000
  152.0420  138.4343  156.3562 C   0  0  0  0  0  0  0  0  0  0  0  0
  151.9681  138.1831  154.8483 C   0  0  0  0  0  0  0  0  0  0  0  0
  150.5988  138.0956  154.4646 O   0  0  0  0  0  0  0  0  0  0  0  0
  149.8162  139.2282  154.5591 C   0  0  0  0  0  0  0  0  0  0  0  0
  148.5389  139.2191  153.9676 C   0  0  0  0  0  0  0  0  0  0  0  0
  147.7471  140.3774  154.0626 C   0  0  0  0  0  0  0  0  0  0  0  0
  148.2601  141.4979  154.7433 C   0  0  0  0  0  0  0  0  0  0  0  0
  149.5508  141.4319  155.3130 C   0  0  0  0  0  0  0  0  0  0  0  0
  149.9797  142.6113  155.9783 N   0  0  0  0  0  0  0  0  0  0  0  0
  150.8795  142.7233  156.9716 C   0  0  0  0  0  0  0  0  0  0  0  0
  151.5005  141.7885  157.4790 O   0  0  0  0  0  0  0  0  0  0  0  0
  151.0223  143.9999  157.3553 N   0  0  0  0  0  0  0  0  0  0  0  0
  151.9176  144.4587  158.4093 C   0  0  0  0  0  0  0  0  0  0  0  0
  151.3886  144.2859  159.8203 C   0  0  0  0  0  0  0  0  0  0  0  0
  150.1564  145.0247  160.2902 C   0  0  0  0  0  0  0  0  0  0  0  0
  151.5148  145.4089  160.8232 C   0  0  0  0  0  0  0  0  0  0  0  0
  150.3046  140.3094  155.2149 N   0  0  0  0  0  0  0  0  0  0  0  0
  153.0777  138.5117  156.6874 H   0  0  0  0  0  0  0  0  0  0  0  0
  151.5736  137.6214  156.9114 H   0  0  0  0  0  0  0  0  0  0  0  0
  151.5341  139.3609  156.6246 H   0  0  0  0  0  0  0  0  0  0  0  0
  152.4608  138.9983  154.3157 H   0  0  0  0  0  0  0  0  0  0  0  0
  152.4924  137.2568  154.6072 H   0  0  0  0  0  0  0  0  0  0  0  0
  148.1755  138.3430  153.4510 H   0  0  0  0  0  0  0  0  0  0  0  0
  146.7624  140.4069  153.6200 H   0  0  0  0  0  0  0  0  0  0  0  0
  147.6649  142.3958  154.8249 H   0  0  0  0  0  0  0  0  0  0  0  0
  149.5478  143.4679  155.6652 H   0  0  0  0  0  0  0  0  0  0  0  0
  150.4728  144.7046  156.8857 H   0  0  0  0  0  0  0  0  0  0  0  0
  152.8433  143.8893  158.3235 H   0  0  0  0  0  0  0  0  0  0  0  0
  152.1858  145.5034  158.2423 H   0  0  0  0  0  0  0  0  0  0  0  0
  151.5332  143.2849  160.2228 H   0  0  0  0  0  0  0  0  0  0  0  0
  149.6781  145.7091  159.5922 H   0  0  0  0  0  0  0  0  0  0  0  0
  149.4814  144.4970  160.9608 H   0  0  0  0  0  0  0  0  0  0  0  0
  151.7459  145.1402  161.8518 H   0  0  0  0  0  0  0  0  0  0  0  0
  151.9393  146.3506  160.4803 H   0  0  0  0  0  0  0  0  0  0  0  0
  1  2  1  0  0  0  0
  1 18  1  0  0  0  0
  1 19  1  0  0  0  0
  1 20  1  0  0  0  0
  2  3  1  0  0  0  0
  2 21  1  0  0  0  0
  2 22  1  0  0  0  0
  3  4  1  0  0  0  0
  4 17  1  0  0  0  0
  4  5  2  0  0  0  0
  5  6  1  0  0  0  0
  5 23  1  0  0  0  0
  6  7  2  0  0  0  0
  6 24  1  0  0  0  0
  7  8  1  0  0  0  0
  7 25  1  0  0  0  0
  8  9  1  0  0  0  0
  8 17  2  0  0  0  0
  9 10  1  0  0  0  0
  9 26  1  0  0  0  0
 10 11  2  0  0  0  0
 10 12  1  0  0  0  0
 12 13  1  0  0  0  0
 12 27  1  0  0  0  0
 13 14  1  0  0  0  0
 13 28  1  0  0  0  0
 13 29  1  0  0  0  0
 14 16  1  0  0  0  0
 14 15  1  0  0  0  0
 14 30  1  0  0  0  0
 15 16  1  0  0  0  0
 15 31  1  0  0  0  0
 15 32  1  0  0  0  0
 16 33  1  0  0  0  0
 16 34  1  0  0  0  0
M  END
> <s_m_source_file>
AV-unprocessed.smi

> <i_m_source_file_index>
2389

> <i_lp_mmshare_version>
43012

> <i_f3d_flags>
0

> <s_epik_input>
W0NIM11bQ0gyXU9jMVtjSF1bY0hdW2NIXWMobjEpW05IXUMoPU8pW05IXVtDSDJdW0NIXTJbQ0gyXVtDSDJdMg==

> <s_epik_cmdline>
J2VwaWtfcHl0aG9uJywgJy1waCcsICc3LjAnLCAnLXRuJywgJzgnLCAnLW1hJywgJzIwMCcsICctbWV0YWxfYmluZGluZycsICctaW1hZScsICc8aW5maWxlLm1hZT4nLCAnLW9tYWUnLCAnPG91dGZpbGUubWFlPic=

> <r_lp_tautomer_probability>
1

> <r_epik_Ionization_Penalty>
4.07356e-05

> <r_epik_Ionization_Penalty_Charging>
0

> <r_epik_Ionization_Penalty_Neutral>
4.07356e-05

> <r_epik_State_Penalty>
-0

> <r_epik_Charging_Adjusted_Penalty>
0

> <i_epik_Tot_Q>
0

> <i_epik_Tot_abs_Q>
0

> <r_epik_Metal_State_Penalty>
-0

> <b_epik_Metal_Only>
0

> <s_lp_Force_Field>
OPLS_2005

> <r_lp_Energy>
13.6513

> <b_lp_Chiralities_Consistent>
1

> <s_lp_Variant>
AV-unprocessed.smi:2389-1

> <Gold.Version>
5.8.1

> <Gold.Id.Protein>
6NUR|6NUR_protein|mol2

> <Gold.PLP.Fitness>
45.2314

> <Gold.PLP.PLP>
-37.5240

> <Gold.PLP.part.hbond>
-2.8454

> <Gold.PLP.part.metal>
0.0000

> <Gold.PLP.part.buried>
-2.4162

> <Gold.PLP.part.nonpolar>
-32.7233

> <Gold.PLP.part.repulsive>
0.5396

> <Gold.PLP.ligand.clash>
0.0000

> <Gold.PLP.ligand.torsion>
0.7316

> <Gold.PLP.Chemscore.Hbond>
2.8320

> <Gold.PLP.Chemscore.CHOScore>
0.0000

> <Gold.PLP.Chemscore.Metal>
0.0000

> <Gold.Chemscore.Hbonds>
donor molecule, donor type, donor heavy atom, donor atom, acceptor molecule, acceptor atom, score
      L1  H     9    26       P1  8028  0.71
      L1  H    12    27       P1  8028  0.75
      P1  H  7989  7998       L1    17  0.32

> <Gold.PLP.Chemscore.Internal.Correction>
0.6746

> <Gold.Rescore>
     Score         DG    S(hbond)    S(metal)    S(lipo)     H(rot)  DE(clash)    DE(int)     intcor
     14.72     -16.46       1.84        0.00      76.82       1.62       0.03       1.72       ----

> <Gold.Chemscore.Fitness>
14.7152

> <Gold.Chemscore.DG>
-16.4575

> <Gold.Chemscore.ZeroCoef>
-5.4800

> <Gold.Chemscore.Hbond>
1.8396

> <Gold.Chemscore.Metal>
0.0000

> <Gold.Chemscore.Lipo>
76.8177

> <Gold.Chemscore.Internal_Hbond>
0.0000

> <Gold.Chemscore.DEClash>
0.0272

> <Gold.Chemscore.DEInternal>
1.7151

> <Gold.Chemscore.Rot>
1.6228

> <Gold.Chemscore.Internal.Correction>
   9.000000E+99

> <Gold.Chemscore.Hbonds>
donor molecule, donor type, donor heavy atom, donor atom, acceptor molecule, acceptor atom, score
      L1  H     9    26       P1  8028  0.71
      L1  H    12    27       P1  8028  0.55
      P1  H  7989  7998       L1    17  0.01

> <Gold.Chemscore.Hbond.Weighted>
-6.1443

> <Gold.Chemscore.Metal.Weighted>
-0.0000

> <Gold.Chemscore.Lipo.Weighted>
-8.9877

> <Gold.Chemscore.Internal_Hbond.Weighted>
0.0000

> <Gold.Chemscore.DEClash.Weighted>
0.0272

> <Gold.Chemscore.DEInternal.Weighted>
1.7151

> <Gold.Chemscore.Rot.Weighted>
4.1545

> <Gold.Chemscore.Internal.Correction.Weighted>
   9.000000E+99

> <Gold.Protein.RotatedTorsions>
[ 6907 6896 6895 6894 ] final -122.52 input  -60.11 | X-H torsion
[ 7974 7965 7964 7962 ] final   83.95 input  175.53 | X-H torsion
[ 8008 7997 7996 7995 ] final -118.23 input   59.86 | X-H torsion
[ 10167 10162 10161 10158 ] final -144.58 input  -65.29 | X-H torsion
[ 10718 10713 10712 10709 ] final  -48.09 input   66.30 | X-H torsion
[ 10763 10752 10751 10750 ] final  -99.59 input  -60.55 | X-H torsion
[ 11005 11000 10999 10996 ] final  -58.54 input  -57.11 | X-H torsion

> <Gold.Protein.ActiveResidues>
 VAL166  LYS551  ARG553  GLY616  TRP617  ASP618  TYR619  PRO620  LYS621  CYS622 
 ASP623  PHE694  ASN695  SER759  ASP760  ASP761  ALA762  ILE779  LEU786  VAL792 
 PHE793  MET794  SER795  GLU796  ALA797  LYS798  CYS799  TRP800  GLU811  SER814 

> <Gold.Protein.RotatedAtoms>
  150.8584  133.7680  159.3000 H   0  0  0  0  0  0  0  0  0  0  0  0  # atno 6907 bound_to 6896
  151.5330  135.1067  159.9917 H   0  0  0  0  0  0  0  0  0  0  0  0  # atno 6908 bound_to 6896
  152.4607  133.7773  159.6887 H   0  0  0  0  0  0  0  0  0  0  0  0  # atno 6909 bound_to 6896
  145.6051  139.2359  143.2223 H   0  0  0  0  0  0  0  0  0  0  0  0  # atno 7974 bound_to 7965
  155.0963  140.0395  157.2684 H   0  0  0  0  0  0  0  0  0  0  0  0  # atno 8008 bound_to 7997
  154.6792  140.2629  155.6900 H   0  0  0  0  0  0  0  0  0  0  0  0  # atno 8009 bound_to 7997
  156.2688  140.2782  156.1331 H   0  0  0  0  0  0  0  0  0  0  0  0  # atno 8010 bound_to 7997
  139.7886  143.7999  152.2647 H   0  0  0  0  0  0  0  0  0  0  0  0  # atno 10167 bound_to 10162
  156.2021  130.4156  149.9227 H   0  0  0  0  0  0  0  0  0  0  0  0  # atno 10718 bound_to 10713
  154.7510  135.4967  153.9289 H   0  0  0  0  0  0  0  0  0  0  0  0  # atno 10763 bound_to 10752
  153.1143  135.6717  153.9453 H   0  0  0  0  0  0  0  0  0  0  0  0  # atno 10764 bound_to 10752
  153.9203  135.3089  155.3426 H   0  0  0  0  0  0  0  0  0  0  0  0  # atno 10765 bound_to 10752
  141.1211  133.6612  156.4935 H   0  0  0  0  0  0  0  0  0  0  0  0  # atno 11005 bound_to 11000
  146.1547  140.6875  142.9306 LP  0  0  0  0  0  0  0  0  0  0  0  0  # atno 17320 bound_to 7965
  144.7293  140.4623  143.6949 LP  0  0  0  0  0  0  0  0  0  0  0  0  # atno 17321 bound_to 7965
  139.8083  144.7346  150.9731 LP  0  0  0  0  0  0  0  0  0  0  0  0  # atno 17342 bound_to 10162
  140.7820  143.4276  151.0744 LP  0  0  0  0  0  0  0  0  0  0  0  0  # atno 17343 bound_to 10162
  156.6933  130.8904  151.3591 LP  0  0  0  0  0  0  0  0  0  0  0  0  # atno 17370 bound_to 10713
  157.6991  130.9314  150.0733 LP  0  0  0  0  0  0  0  0  0  0  0  0  # atno 17371 bound_to 10713
  140.4504  134.6934  157.5036 LP  0  0  0  0  0  0  0  0  0  0  0  0  # atno 17394 bound_to 11000
  140.0170  134.6605  155.9296 LP  0  0  0  0  0  0  0  0  0  0  0  0  # atno 17395 bound_to 11000

$$$$
