AV-unprocessed.smi:550|AV-procd|sdf|2895|dock5
  -GOLD-   2262023393D 1   1.00000     0.00000
 Structure written by MMmdl.
 45 47  0  0  0  0  0  0  0  0  1 V2000
  146.4557  139.4817  153.6314 O   0  0  0  0  0  0  0  0  0  0  0  0
  147.2862  138.7029  153.1633 C   0  0  0  0  0  0  0  0  0  0  0  0
  146.9750  137.7206  152.3073 N   0  0  0  0  0  0  0  0  0  0  0  0
  145.6254  137.4395  151.8316 C   0  0  0  0  0  0  0  0  0  0  0  0
  145.1911  136.0086  152.1926 C   0  0  1  0  0  0  0  0  0  0  0  0
  143.7266  135.7262  151.8036 C   0  0  0  0  0  0  0  0  0  0  0  0
  143.4652  134.2240  151.9455 C   0  0  0  0  0  0  0  0  0  0  0  0
  145.0301  133.4082  151.4592 S   0  0  0  0  0  0  0  0  0  0  0  0
  145.4303  132.4673  152.5165 O   0  0  0  0  0  0  0  0  0  0  0  0
  144.9418  132.9776  150.0558 O   0  0  0  0  0  0  0  0  0  0  0  0
  146.0686  134.9178  151.5520 C   0  0  0  0  0  0  0  0  0  0  0  0
  148.6061  138.7340  153.4158 N   0  0  0  0  0  0  0  0  0  0  0  0
  149.3046  139.5796  154.3193 C   0  0  0  0  0  0  0  0  0  0  0  0
  148.9214  140.9082  154.6147 C   0  0  0  0  0  0  0  0  0  0  0  0
  149.6752  141.6442  155.5484 C   0  0  0  0  0  0  0  0  0  0  0  0
  150.7885  141.0332  156.1724 C   0  0  0  0  0  0  0  0  0  0  0  0
  151.5705  141.7394  157.1078 N   0  0  0  0  0  0  0  0  0  0  0  0
  152.2165  141.0736  158.2280 C   0  0  0  0  0  0  0  0  0  0  0  0
  152.8302  142.2074  159.0481 C   0  0  0  0  0  0  0  0  0  0  0  0
  151.8505  143.3608  158.8318 C   0  0  0  0  0  0  0  0  0  0  0  0
  151.3209  143.1422  157.4095 C   0  0  0  0  0  0  0  0  0  0  0  0
  151.1499  139.7581  155.8925 N   0  0  0  0  0  0  0  0  0  0  0  0
  150.4222  139.0555  154.9992 C   0  0  0  0  0  0  0  0  0  0  0  0
  147.7168  137.1287  151.9633 H   0  0  0  0  0  0  0  0  0  0  0  0
  144.9238  138.1521  152.2686 H   0  0  0  0  0  0  0  0  0  0  0  0
  145.5948  137.5857  150.7509 H   0  0  0  0  0  0  0  0  0  0  0  0
  145.2615  135.8910  153.2752 H   0  0  0  0  0  0  0  0  0  0  0  0
  143.0287  136.3096  152.4047 H   0  0  0  0  0  0  0  0  0  0  0  0
  143.5691  136.0138  150.7632 H   0  0  0  0  0  0  0  0  0  0  0  0
  143.2568  133.9647  152.9838 H   0  0  0  0  0  0  0  0  0  0  0  0
  142.6432  133.8700  151.3234 H   0  0  0  0  0  0  0  0  0  0  0  0
  146.3521  135.1880  150.5344 H   0  0  0  0  0  0  0  0  0  0  0  0
  146.9752  134.7128  152.1213 H   0  0  0  0  0  0  0  0  0  0  0  0
  149.1821  138.1062  152.8740 H   0  0  0  0  0  0  0  0  0  0  0  0
  148.0604  141.3702  154.1569 H   0  0  0  0  0  0  0  0  0  0  0  0
  149.3911  142.6621  155.7696 H   0  0  0  0  0  0  0  0  0  0  0  0
  151.4690  140.5358  158.8127 H   0  0  0  0  0  0  0  0  0  0  0  0
  152.9725  140.3626  157.8929 H   0  0  0  0  0  0  0  0  0  0  0  0
  152.9619  141.9483  160.0990 H   0  0  0  0  0  0  0  0  0  0  0  0
  153.8066  142.4725  158.6402 H   0  0  0  0  0  0  0  0  0  0  0  0
  151.0288  143.2771  159.5443 H   0  0  0  0  0  0  0  0  0  0  0  0
  152.3100  144.3404  158.9654 H   0  0  0  0  0  0  0  0  0  0  0  0
  151.8655  143.7589  156.6941 H   0  0  0  0  0  0  0  0  0  0  0  0
  150.2617  143.3947  157.3461 H   0  0  0  0  0  0  0  0  0  0  0  0
  150.7488  138.0418  154.8182 H   0  0  0  0  0  0  0  0  0  0  0  0
  1  2  2  0  0  0  0
  2  3  1  0  0  0  0
  2 12  1  0  0  0  0
  3  4  1  0  0  0  0
  3 24  1  0  0  0  0
  4  5  1  0  0  0  0
  4 25  1  0  0  0  0
  4 26  1  0  0  0  0
  5 11  1  0  0  0  0
  5  6  1  0  0  0  0
  5 27  1  0  0  0  0
  6  7  1  0  0  0  0
  6 28  1  0  0  0  0
  6 29  1  0  0  0  0
  7  8  1  0  0  0  0
  7 30  1  0  0  0  0
  7 31  1  0  0  0  0
  8  9  2  0  0  0  0
  8 10  2  0  0  0  0
  8 11  1  0  0  0  0
 11 32  1  0  0  0  0
 11 33  1  0  0  0  0
 12 13  1  0  0  0  0
 12 34  1  0  0  0  0
 13 23  1  0  0  0  0
 13 14  2  0  0  0  0
 14 15  1  0  0  0  0
 14 35  1  0  0  0  0
 15 16  2  0  0  0  0
 15 36  1  0  0  0  0
 16 17  1  0  0  0  0
 16 22  1  0  0  0  0
 17 21  1  0  0  0  0
 17 18  1  0  0  0  0
 18 19  1  0  0  0  0
 18 37  1  0  0  0  0
 18 38  1  0  0  0  0
 19 20  1  0  0  0  0
 19 39  1  0  0  0  0
 19 40  1  0  0  0  0
 20 21  1  0  0  0  0
 20 41  1  0  0  0  0
 20 42  1  0  0  0  0
 21 43  1  0  0  0  0
 21 44  1  0  0  0  0
 22 23  2  0  0  0  0
 23 45  1  0  0  0  0
M  END
> <s_m_source_file>
AV-unprocessed.smi

> <i_m_source_file_index>
550

> <i_lp_mmshare_version>
43012

> <i_f3d_flags>
0

> <s_epik_input>
Tz1TMSg9TylbQ0gyXVtDSDJdW0NASF0oW0NIMl0xKVtDSDJdW05IXUMoPU8pW05IXWMyW2NIXVtjSF1jKG5bY0hdMilOM1tDSDJdW0NIMl1bQ0gyXVtDSDJdMw==

> <s_epik_cmdline>
J2VwaWtfcHl0aG9uJywgJy1waCcsICc3LjAnLCAnLXRuJywgJzgnLCAnLW1hJywgJzIwMCcsICctbWV0YWxfYmluZGluZycsICctaW1hZScsICc8aW5maWxlLm1hZT4nLCAnLW9tYWUnLCAnPG91dGZpbGUubWFlPic=

> <r_lp_tautomer_probability>
1

> <r_epik_Ionization_Penalty>
0.0965651

> <r_epik_Ionization_Penalty_Charging>
0

> <r_epik_Ionization_Penalty_Neutral>
0.0965651

> <r_epik_State_Penalty>
0.0861592

> <r_epik_Charging_Adjusted_Penalty>
0.0861592

> <i_epik_Tot_Q>
0

> <i_epik_Tot_abs_Q>
0

> <r_epik_Metal_State_Penalty>
0.0740405

> <b_epik_Metal_Only>
0

> <s_lp_Force_Field>
OPLS_2005

> <r_lp_Energy>
33.1318

> <b_lp_Chiralities_Consistent>
1

> <s_lp_Variant>
AV-unprocessed.smi:550-2

> <Gold.Version>
5.8.1

> <Gold.Id.Protein>
6NUR|6NUR_protein|mol2

> <Gold.PLP.Fitness>
43.4091

> <Gold.PLP.PLP>
-39.4536

> <Gold.PLP.part.hbond>
-2.8419

> <Gold.PLP.part.metal>
0.0000

> <Gold.PLP.part.buried>
-3.2361

> <Gold.PLP.part.nonpolar>
-35.0741

> <Gold.PLP.part.repulsive>
0.6109

> <Gold.PLP.ligand.clash>
0.0000

> <Gold.PLP.ligand.torsion>
0.4617

> <Gold.PLP.Chemscore.Hbond>
1.5597

> <Gold.PLP.Chemscore.CHOScore>
0.0000

> <Gold.PLP.Chemscore.Metal>
0.0000

> <Gold.Chemscore.Hbonds>
donor molecule, donor type, donor heavy atom, donor atom, acceptor molecule, acceptor atom, score
      L1  H     3    24       P1  7948  0.94
      L1  H    12    34       P1  7948  0.64

> <Gold.PLP.Chemscore.Internal.Correction>
0.1998

> <Gold.Rescore>
     Score         DG    S(hbond)    S(metal)    S(lipo)     H(rot)  DE(clash)    DE(int)     intcor
     16.34     -17.89       1.74        0.00      83.69       1.25       0.09       1.46       ----

> <Gold.Chemscore.Fitness>
16.3424

> <Gold.Chemscore.DG>
-17.8930

> <Gold.Chemscore.ZeroCoef>
-5.4800

> <Gold.Chemscore.Hbond>
1.7434

> <Gold.Chemscore.Metal>
0.0000

> <Gold.Chemscore.Lipo>
83.6899

> <Gold.Chemscore.Internal_Hbond>
0.0000

> <Gold.Chemscore.DEClash>
0.0911

> <Gold.Chemscore.DEInternal>
1.4595

> <Gold.Chemscore.Rot>
1.2506

> <Gold.Chemscore.Internal.Correction>
   9.000000E+99

> <Gold.Chemscore.Hbonds>
donor molecule, donor type, donor heavy atom, donor atom, acceptor molecule, acceptor atom, score
      L1  H     3    24       P1  7948  0.90
      L1  H    12    34       P1  7948  0.60

> <Gold.Chemscore.Hbond.Weighted>
-5.8229

> <Gold.Chemscore.Metal.Weighted>
-0.0000

> <Gold.Chemscore.Lipo.Weighted>
-9.7917

> <Gold.Chemscore.Internal_Hbond.Weighted>
0.0000

> <Gold.Chemscore.DEClash.Weighted>
0.0911

> <Gold.Chemscore.DEInternal.Weighted>
1.4595

> <Gold.Chemscore.Rot.Weighted>
3.2016

> <Gold.Chemscore.Internal.Correction.Weighted>
   9.000000E+99

> <Gold.Protein.RotatedTorsions>
[ 6907 6896 6895 6894 ] final   -8.93 input  -60.11 | X-H torsion
[ 7974 7965 7964 7962 ] final -160.77 input  175.53 | X-H torsion
[ 8008 7997 7996 7995 ] final  164.88 input   59.86 | X-H torsion
[ 10167 10162 10161 10158 ] final    2.83 input  -65.29 | X-H torsion
[ 10718 10713 10712 10709 ] final    2.12 input   66.30 | X-H torsion
[ 10763 10752 10751 10750 ] final  126.19 input  -60.55 | X-H torsion
[ 11005 11000 10999 10996 ] final   93.82 input  -57.11 | X-H torsion

> <Gold.Protein.ActiveResidues>
 VAL166  LYS551  ARG553  GLY616  TRP617  ASP618  TYR619  PRO620  LYS621  CYS622 
 ASP623  PHE694  ASN695  SER759  ASP760  ASP761  ALA762  ILE779  LEU786  VAL792 
 PHE793  MET794  SER795  GLU796  ALA797  LYS798  CYS799  TRP800  GLU811  SER814 

> <Gold.Protein.RotatedAtoms>
  151.4258  135.1003  159.9627 H   0  0  0  0  0  0  0  0  0  0  0  0  # atno 6907 bound_to 6896
  152.4973  133.8664  159.7287 H   0  0  0  0  0  0  0  0  0  0  0  0  # atno 6908 bound_to 6896
  150.9190  133.6845  159.2864 H   0  0  0  0  0  0  0  0  0  0  0  0  # atno 6909 bound_to 6896
  144.7415  140.3494  143.6119 H   0  0  0  0  0  0  0  0  0  0  0  0  # atno 7974 bound_to 7965
  156.1845  140.1685  156.8212 H   0  0  0  0  0  0  0  0  0  0  0  0  # atno 8008 bound_to 7997
  154.5398  140.0739  156.8522 H   0  0  0  0  0  0  0  0  0  0  0  0  # atno 8009 bound_to 7997
  155.3238  140.3375  155.4243 H   0  0  0  0  0  0  0  0  0  0  0  0  # atno 8010 bound_to 7997
  140.6616  143.7289  150.7749 H   0  0  0  0  0  0  0  0  0  0  0  0  # atno 10167 bound_to 10162
  156.8583  130.5578  149.5664 H   0  0  0  0  0  0  0  0  0  0  0  0  # atno 10718 bound_to 10713
  153.6893  135.3301  155.3198 H   0  0  0  0  0  0  0  0  0  0  0  0  # atno 10763 bound_to 10752
  154.8444  135.4428  154.1525 H   0  0  0  0  0  0  0  0  0  0  0  0  # atno 10764 bound_to 10752
  153.2562  135.6986  153.7704 H   0  0  0  0  0  0  0  0  0  0  0  0  # atno 10765 bound_to 10752
  139.8805  134.8811  156.3773 H   0  0  0  0  0  0  0  0  0  0  0  0  # atno 11005 bound_to 11000
  145.7292  139.1731  143.2440 LP  0  0  0  0  0  0  0  0  0  0  0  0  # atno 17320 bound_to 7965
  146.1219  140.7298  142.9453 LP  0  0  0  0  0  0  0  0  0  0  0  0  # atno 17321 bound_to 7965
  140.0959  143.4833  152.2452 LP  0  0  0  0  0  0  0  0  0  0  0  0  # atno 17342 bound_to 10162
  139.5851  144.7527  151.3540 LP  0  0  0  0  0  0  0  0  0  0  0  0  # atno 17343 bound_to 10162
  156.0790  130.5805  150.9528 LP  0  0  0  0  0  0  0  0  0  0  0  0  # atno 17370 bound_to 10713
  157.6264  131.0925  150.8525 LP  0  0  0  0  0  0  0  0  0  0  0  0  # atno 17371 bound_to 10713
  140.9423  133.7506  156.0162 LP  0  0  0  0  0  0  0  0  0  0  0  0  # atno 17394 bound_to 11000
  140.8205  134.3295  157.5383 LP  0  0  0  0  0  0  0  0  0  0  0  0  # atno 17395 bound_to 11000

$$$$
