AV-unprocessed.smi:2041|AV-procd|sdf|8292|dock7
  -GOLD-   2272010553D 1   1.00000     0.00000
 Structure written by MMmdl.
 30 31  0  0  0  0  0  0  0  0  2 V2000
  151.0261  138.9660  157.1847 O   0  0  0  0  0  0  0  0  0  0  0  0
  151.6471  140.0206  157.3379 C   0  0  0  0  0  0  0  0  0  0  0  0
  152.8302  140.1690  157.9768 N   0  5  0  0  0  0  0  0  0  0  0  0
  152.9271  140.9986  159.0284 C   0  0  0  0  0  0  0  0  0  0  0  0
  153.3407  140.5991  160.2366 N   0  0  0  0  0  0  0  0  0  0  0  0
  153.3744  141.6277  161.1800 C   0  0  0  0  0  0  0  0  0  0  0  0
  152.9844  142.8403  160.6766 C   0  0  0  0  0  0  0  0  0  0  0  0
  152.5607  142.7257  158.9922 S   0  0  0  0  0  0  0  0  0  0  0  0
  151.1531  141.1666  156.8445 N   0  0  0  0  0  0  0  0  0  0  0  0
  149.8935  141.3257  156.1141 C   0  0  2  0  0  0  0  0  0  0  0  0
  148.7665  140.6761  156.9561 C   0  0  0  0  0  0  0  0  0  0  0  0
  147.4425  140.3737  156.2186 C   0  0  0  0  0  0  0  0  0  0  0  0
  146.9329  141.4993  155.2955 C   0  0  0  0  0  0  0  0  0  0  0  0
  147.8596  141.9111  154.1219 C   0  0  0  0  0  0  0  0  0  0  0  0
  148.9596  140.9850  153.8527 N   0  0  0  0  0  0  0  0  0  0  0  0
  149.9449  140.6755  154.7131 C   0  0  0  0  0  0  0  0  0  0  0  0
  150.8349  139.8827  154.4077 O   0  0  0  0  0  0  0  0  0  0  0  0
  153.6907  141.4065  162.1886 H   0  0  0  0  0  0  0  0  0  0  0  0
  152.9218  143.7883  161.1887 H   0  0  0  0  0  0  0  0  0  0  0  0
  151.6943  142.0039  157.0009 H   0  0  0  0  0  0  0  0  0  0  0  0
  149.6947  142.3933  156.0113 H   0  0  0  0  0  0  0  0  0  0  0  0
  149.1231  139.7431  157.3956 H   0  0  0  0  0  0  0  0  0  0  0  0
  148.5545  141.3337  157.7999 H   0  0  0  0  0  0  0  0  0  0  0  0
  147.5488  139.4560  155.6385 H   0  0  0  0  0  0  0  0  0  0  0  0
  146.6760  140.1493  156.9607 H   0  0  0  0  0  0  0  0  0  0  0  0
  145.9786  141.1767  154.8778 H   0  0  0  0  0  0  0  0  0  0  0  0
  146.7022  142.3814  155.8937 H   0  0  0  0  0  0  0  0  0  0  0  0
  147.2697  142.0106  153.2104 H   0  0  0  0  0  0  0  0  0  0  0  0
  148.2749  142.9029  154.3051 H   0  0  0  0  0  0  0  0  0  0  0  0
  148.9817  140.5541  152.9399 H   0  0  0  0  0  0  0  0  0  0  0  0
  1  2  2  0  0  0  0
  2  3  1  0  0  0  0
  2  9  1  0  0  0  0
  3  4  1  0  0  0  0
  4  8  1  0  0  0  0
  4  5  2  0  0  0  0
  5  6  1  0  0  0  0
  6  7  2  0  0  0  0
  6 18  1  0  0  0  0
  7  8  1  0  0  0  0
  7 19  1  0  0  0  0
  9 10  1  0  0  0  0
  9 20  1  0  0  0  0
 10 16  1  0  0  0  0
 10 11  1  0  0  0  0
 10 21  1  0  0  0  0
 11 12  1  0  0  0  0
 11 22  1  0  0  0  0
 11 23  1  0  0  0  0
 12 13  1  0  0  0  0
 12 24  1  0  0  0  0
 12 25  1  0  0  0  0
 13 14  1  0  0  0  0
 13 26  1  0  0  0  0
 13 27  1  0  0  0  0
 14 15  1  0  0  0  0
 14 28  1  0  0  0  0
 14 29  1  0  0  0  0
 15 16  1  0  0  0  0
 15 30  1  0  0  0  0
 16 17  2  0  0  0  0
M  CHG  1   3  -1
M  END
> <s_m_source_file>
AV-unprocessed.smi

> <i_m_source_file_index>
2041

> <i_lp_mmshare_version>
43012

> <i_f3d_flags>
0

> <s_epik_input>
czFbY0hdW2NIXW5jMVtOSF1DKD1PKVtOSF1bQ0BASF0yW0NIMl1bQ0gyXVtDSDJdW0NIMl1bTkhdQzI9Tw==

> <s_epik_cmdline>
J2VwaWtfcHl0aG9uJywgJy1waCcsICc3LjAnLCAnLXRuJywgJzgnLCAnLW1hJywgJzIwMCcsICctbWV0YWxfYmluZGluZycsICctaW1hZScsICc8aW5maWxlLm1hZT4nLCAnLW9tYWUnLCAnPG91dGZpbGUubWFlPic=

> <r_lp_tautomer_probability>
1

> <r_epik_Ionization_Penalty>
7.83857

> <r_epik_Ionization_Penalty_Charging>
6.39911

> <r_epik_Ionization_Penalty_Neutral>
1.43945

> <r_epik_State_Penalty>
6.3991

> <r_epik_Charging_Adjusted_Penalty>
12.7982

> <i_epik_Tot_Q>
-1

> <i_epik_Tot_abs_Q>
1

> <r_epik_Metal_State_Penalty>
2.33024

> <b_epik_Metal_Only>
1

> <s_lp_Force_Field>
OPLS_2005

> <r_lp_Energy>
11.6521

> <b_lp_Chiralities_Consistent>
1

> <s_lp_Variant>
AV-unprocessed.smi:2041-3

> <Gold.Version>
5.8.1

> <Gold.Id.Protein>
6NUR|6NUR_protein|mol2

> <Gold.PLP.Fitness>
38.3779

> <Gold.PLP.PLP>
-29.8148

> <Gold.PLP.part.hbond>
-3.0000

> <Gold.PLP.part.metal>
0.0000

> <Gold.PLP.part.buried>
-3.0500

> <Gold.PLP.part.nonpolar>
-23.3957

> <Gold.PLP.part.repulsive>
0.4090

> <Gold.PLP.ligand.clash>
0.0000

> <Gold.PLP.ligand.torsion>
1.1563

> <Gold.PLP.Chemscore.Hbond>
3.6240

> <Gold.PLP.Chemscore.CHOScore>
0.0000

> <Gold.PLP.Chemscore.Metal>
0.0000

> <Gold.Chemscore.Hbonds>
donor molecule, donor type, donor heavy atom, donor atom, acceptor molecule, acceptor atom, score
      L1  H    15    30       P1  7957  1.00
      P1  H  7989  7998       L1    17  0.80
      P1  H  7997  8010       L1     3  1.86

> <Gold.PLP.Chemscore.Internal.Correction>
0.0037

> <Gold.Rescore>
     Score         DG    S(hbond)    S(metal)    S(lipo)     H(rot)  DE(clash)    DE(int)     intcor
     12.80     -15.74       2.21        0.00      46.47       1.00       0.02       2.92       ----

> <Gold.Chemscore.Fitness>
12.7990

> <Gold.Chemscore.DG>
-15.7447

> <Gold.Chemscore.ZeroCoef>
-5.4800

> <Gold.Chemscore.Hbond>
2.2120

> <Gold.Chemscore.Metal>
0.0000

> <Gold.Chemscore.Lipo>
46.4662

> <Gold.Chemscore.Internal_Hbond>
0.0000

> <Gold.Chemscore.DEClash>
0.0249

> <Gold.Chemscore.DEInternal>
2.9209

> <Gold.Chemscore.Rot>
1.0000

> <Gold.Chemscore.Internal.Correction>
   9.000000E+99

> <Gold.Chemscore.Hbonds>
donor molecule, donor type, donor heavy atom, donor atom, acceptor molecule, acceptor atom, score
      L1  H    15    30       P1  7957  0.98
      P1  H  7989  7998       L1    17  0.11
      P1  H  7997  8010       L1     3  0.65

> <Gold.Chemscore.Hbond.Weighted>
-7.3882

> <Gold.Chemscore.Metal.Weighted>
-0.0000

> <Gold.Chemscore.Lipo.Weighted>
-5.4365

> <Gold.Chemscore.Internal_Hbond.Weighted>
0.0000

> <Gold.Chemscore.DEClash.Weighted>
0.0249

> <Gold.Chemscore.DEInternal.Weighted>
2.9209

> <Gold.Chemscore.Rot.Weighted>
2.5600

> <Gold.Chemscore.Internal.Correction.Weighted>
   9.000000E+99

> <Gold.Protein.RotatedTorsions>
[ 6907 6896 6895 6894 ] final  158.39 input  -60.11 | X-H torsion
[ 7974 7965 7964 7962 ] final -121.30 input  175.53 | X-H torsion
[ 8008 7997 7996 7995 ] final   33.24 input   59.86 | X-H torsion
[ 10167 10162 10161 10158 ] final  -48.69 input  -65.29 | X-H torsion
[ 10718 10713 10712 10709 ] final   75.78 input   66.30 | X-H torsion
[ 10763 10752 10751 10750 ] final -120.88 input  -60.55 | X-H torsion
[ 11005 11000 10999 10996 ] final   50.58 input  -57.11 | X-H torsion

> <Gold.Protein.ActiveResidues>
 VAL166  LYS551  ARG553  GLY616  TRP617  ASP618  TYR619  PRO620  LYS621  CYS622 
 ASP623  PHE694  ASN695  SER759  ASP760  ASP761  ALA762  ILE779  LEU786  VAL792 
 PHE793  MET794  SER795  GLU796  ALA797  LYS798  CYS799  TRP800  GLU811  SER814 

> <Gold.Protein.RotatedAtoms>
  152.0012  133.3826  159.4182 H   0  0  0  0  0  0  0  0  0  0  0  0  # atno 6907 bound_to 6896
  150.6910  134.3832  159.5052 H   0  0  0  0  0  0  0  0  0  0  0  0  # atno 6908 bound_to 6896
  152.1580  134.8935  160.0594 H   0  0  0  0  0  0  0  0  0  0  0  0  # atno 6909 bound_to 6896
  145.0418  140.8150  143.4261 H   0  0  0  0  0  0  0  0  0  0  0  0  # atno 7974 bound_to 7965
  155.1354  140.3261  155.4464 H   0  0  0  0  0  0  0  0  0  0  0  0  # atno 8008 bound_to 7997
  156.2621  140.2003  156.6421 H   0  0  0  0  0  0  0  0  0  0  0  0  # atno 8009 bound_to 7997
  154.6582  140.0550  157.0019 H   0  0  0  0  0  0  0  0  0  0  0  0  # atno 8010 bound_to 7997
  140.6719  143.2729  151.4107 H   0  0  0  0  0  0  0  0  0  0  0  0  # atno 10167 bound_to 10162
  157.6648  130.9743  150.1402 H   0  0  0  0  0  0  0  0  0  0  0  0  # atno 10718 bound_to 10713
  154.8655  135.4187  154.2531 H   0  0  0  0  0  0  0  0  0  0  0  0  # atno 10763 bound_to 10752
  153.3474  135.6997  153.6823 H   0  0  0  0  0  0  0  0  0  0  0  0  # atno 10764 bound_to 10752
  153.5776  135.3579  155.2835 H   0  0  0  0  0  0  0  0  0  0  0  0  # atno 10765 bound_to 10752
  140.1006  134.5087  155.8766 H   0  0  0  0  0  0  0  0  0  0  0  0  # atno 11005 bound_to 11000
  145.1638  139.2443  143.5378 LP  0  0  0  0  0  0  0  0  0  0  0  0  # atno 17320 bound_to 7965
  146.3510  140.1371  142.8595 LP  0  0  0  0  0  0  0  0  0  0  0  0  # atno 17321 bound_to 7965
  139.5992  144.1331  152.2179 LP  0  0  0  0  0  0  0  0  0  0  0  0  # atno 17342 bound_to 10162
  140.0710  144.5779  150.7191 LP  0  0  0  0  0  0  0  0  0  0  0  0  # atno 17343 bound_to 10162
  156.2227  130.3675  149.8537 LP  0  0  0  0  0  0  0  0  0  0  0  0  # atno 17370 bound_to 10713
  156.6385  130.8695  151.3509 LP  0  0  0  0  0  0  0  0  0  0  0  0  # atno 17371 bound_to 10713
  141.2104  133.6695  156.6509 LP  0  0  0  0  0  0  0  0  0  0  0  0  # atno 17394 bound_to 11000
  140.3226  134.7995  157.4264 LP  0  0  0  0  0  0  0  0  0  0  0  0  # atno 17395 bound_to 11000

$$$$
