AV-unprocessed.smi:148|AV-procd|sdf|1220|dock10
  -GOLD-   2262018413D 1   1.00000     0.00000
 Structure written by MMmdl.
 63 67  0  0  0  0  0  0  0  0  1 V2000
  143.5437  138.0673  152.4562 O   0  0  0  0  0  0  0  0  0  0  0  0
  144.3950  137.4117  153.3730 C   0  0  0  0  0  0  0  0  0  0  0  0
  144.0385  135.9108  153.5012 C   0  0  2  0  0  0  0  0  0  0  0  0
  144.9260  135.1971  154.5547 C   0  0  0  0  0  0  0  0  0  0  0  0
  144.4585  135.3931  155.9156 N   0  0  0  0  0  0  0  0  0  0  0  0
  143.4610  134.6865  156.5489 C   0  0  0  0  0  0  0  0  0  0  0  0
  143.2238  135.0419  157.7821 N   0  0  0  0  0  0  0  0  0  0  0  0
  144.1262  136.0720  158.0140 C   0  0  0  0  0  0  0  0  0  0  0  0
  144.4051  136.9054  159.1291 C   0  0  0  0  0  0  0  0  0  0  0  0
  143.7424  136.7729  160.3032 N   0  0  0  0  0  0  0  0  0  0  0  0
  142.3182  137.0187  160.0651 C   0  0  0  0  0  0  0  0  0  0  0  0
  141.5248  137.0980  161.3744 C   0  0  0  0  0  0  0  0  0  0  0  0
  141.7527  135.8337  162.2063 C   0  0  0  0  0  0  0  0  0  0  0  0
  143.2537  135.6555  162.4621 C   0  0  0  0  0  0  0  0  0  0  0  0
  144.0657  135.5997  161.1400 C   0  0  2  0  0  0  0  0  0  0  0  0
  145.6009  135.4127  161.3812 C   0  0  2  0  0  0  0  0  0  0  0  0
  145.9870  134.0972  162.0848 C   0  0  0  0  0  0  0  0  0  0  0  0
  147.2900  134.3767  162.8519 C   0  0  0  0  0  0  0  0  0  0  0  0
  147.6568  135.8344  162.5595 C   0  0  0  0  0  0  0  0  0  0  0  0
  146.3298  136.4978  162.1935 C   0  0  1  0  0  0  0  0  0  0  0  0
  146.5472  137.6843  161.4592 O   0  0  0  0  0  0  0  0  0  0  0  0
  145.3986  137.8254  159.0004 N   0  0  0  0  0  0  0  0  0  0  0  0
  146.0597  137.9376  157.8442 C   0  0  0  0  0  0  0  0  0  0  0  0
  145.8994  137.2376  156.7187 N   0  0  0  0  0  0  0  0  0  0  0  0
  144.9140  136.3038  156.8528 C   0  0  0  0  0  0  0  0  0  0  0  0
  144.0311  135.2047  152.1159 C   0  0  1  0  0  0  0  0  0  0  0  0
  145.3744  135.0791  151.3969 C   0  0  0  0  0  0  0  0  0  0  0  0
  145.3307  133.6855  150.7633 C   0  0  0  0  0  0  0  0  0  0  0  0
  143.9721  133.2817  150.8531 O   0  0  0  0  0  0  0  0  0  0  0  0
  143.4759  133.7779  152.0843 C   0  0  0  0  0  0  0  0  0  0  0  0
  143.5457  138.9918  152.6525 H   0  0  0  0  0  0  0  0  0  0  0  0
  145.4314  137.5400  153.0599 H   0  0  0  0  0  0  0  0  0  0  0  0
  144.2865  137.9272  154.3265 H   0  0  0  0  0  0  0  0  0  0  0  0
  143.0147  135.8626  153.8760 H   0  0  0  0  0  0  0  0  0  0  0  0
  144.9556  134.1226  154.3835 H   0  0  0  0  0  0  0  0  0  0  0  0
  145.9570  135.5445  154.4963 H   0  0  0  0  0  0  0  0  0  0  0  0
  142.9116  133.8929  156.0632 H   0  0  0  0  0  0  0  0  0  0  0  0
  142.1843  137.9488  159.5106 H   0  0  0  0  0  0  0  0  0  0  0  0
  141.9164  136.2186  159.4412 H   0  0  0  0  0  0  0  0  0  0  0  0
  141.8361  137.9765  161.9413 H   0  0  0  0  0  0  0  0  0  0  0  0
  140.4628  137.2232  161.1617 H   0  0  0  0  0  0  0  0  0  0  0  0
  141.2148  135.9041  163.1520 H   0  0  0  0  0  0  0  0  0  0  0  0
  141.3572  134.9631  161.6817 H   0  0  0  0  0  0  0  0  0  0  0  0
  143.5871  136.4897  163.0783 H   0  0  0  0  0  0  0  0  0  0  0  0
  143.4029  134.7549  163.0552 H   0  0  0  0  0  0  0  0  0  0  0  0
  143.7185  134.7237  160.5898 H   0  0  0  0  0  0  0  0  0  0  0  0
  146.1090  135.3565  160.4185 H   0  0  0  0  0  0  0  0  0  0  0  0
  145.2242  133.7646  162.7867 H   0  0  0  0  0  0  0  0  0  0  0  0
  146.1153  133.2932  161.3591 H   0  0  0  0  0  0  0  0  0  0  0  0
  147.1213  134.2434  163.9213 H   0  0  0  0  0  0  0  0  0  0  0  0
  148.0913  133.6966  162.5616 H   0  0  0  0  0  0  0  0  0  0  0  0
  148.1526  136.3201  163.4006 H   0  0  0  0  0  0  0  0  0  0  0  0
  148.3394  135.8684  161.7085 H   0  0  0  0  0  0  0  0  0  0  0  0
  145.7968  136.7350  163.1130 H   0  0  0  0  0  0  0  0  0  0  0  0
  145.7112  138.0908  161.2898 H   0  0  0  0  0  0  0  0  0  0  0  0
  146.8281  138.6962  157.8180 H   0  0  0  0  0  0  0  0  0  0  0  0
  143.3787  135.7746  151.4528 H   0  0  0  0  0  0  0  0  0  0  0  0
  145.4686  135.8551  150.6363 H   0  0  0  0  0  0  0  0  0  0  0  0
  146.2345  135.1684  152.0587 H   0  0  0  0  0  0  0  0  0  0  0  0
  145.6781  133.6824  149.7299 H   0  0  0  0  0  0  0  0  0  0  0  0
  145.9478  132.9885  151.3320 H   0  0  0  0  0  0  0  0  0  0  0  0
  143.8570  133.1528  152.8906 H   0  0  0  0  0  0  0  0  0  0  0  0
  142.3865  133.7513  152.1167 H   0  0  0  0  0  0  0  0  0  0  0  0
  1  2  1  0  0  0  0
  1 31  1  0  0  0  0
  2  3  1  0  0  0  0
  2 32  1  0  0  0  0
  2 33  1  0  0  0  0
  3  4  1  0  0  0  0
  3 26  1  0  0  0  0
  3 34  1  0  0  0  0
  4  5  1  0  0  0  0
  4 35  1  0  0  0  0
  4 36  1  0  0  0  0
  5 25  1  0  0  0  0
  5  6  1  0  0  0  0
  6  7  2  0  0  0  0
  6 37  1  0  0  0  0
  7  8  1  0  0  0  0
  8 25  2  0  0  0  0
  8  9  1  0  0  0  0
  9 10  1  0  0  0  0
  9 22  2  0  0  0  0
 10 15  1  0  0  0  0
 10 11  1  0  0  0  0
 11 12  1  0  0  0  0
 11 38  1  0  0  0  0
 11 39  1  0  0  0  0
 12 13  1  0  0  0  0
 12 40  1  0  0  0  0
 12 41  1  0  0  0  0
 13 14  1  0  0  0  0
 13 42  1  0  0  0  0
 13 43  1  0  0  0  0
 14 15  1  0  0  0  0
 14 44  1  0  0  0  0
 14 45  1  0  0  0  0
 15 16  1  0  0  0  0
 15 46  1  0  0  0  0
 16 20  1  0  0  0  0
 16 17  1  0  0  0  0
 16 47  1  0  0  0  0
 17 18  1  0  0  0  0
 17 48  1  0  0  0  0
 17 49  1  0  0  0  0
 18 19  1  0  0  0  0
 18 50  1  0  0  0  0
 18 51  1  0  0  0  0
 19 20  1  0  0  0  0
 19 52  1  0  0  0  0
 19 53  1  0  0  0  0
 20 21  1  0  0  0  0
 20 54  1  0  0  0  0
 21 55  1  0  0  0  0
 22 23  1  0  0  0  0
 23 24  2  0  0  0  0
 23 56  1  0  0  0  0
 24 25  1  0  0  0  0
 26 30  1  0  0  0  0
 26 27  1  0  0  0  0
 26 57  1  0  0  0  0
 27 28  1  0  0  0  0
 27 58  1  0  0  0  0
 27 59  1  0  0  0  0
 28 29  1  0  0  0  0
 28 60  1  0  0  0  0
 28 61  1  0  0  0  0
 29 30  1  0  0  0  0
 30 62  1  0  0  0  0
 30 63  1  0  0  0  0
M  END
> <s_m_source_file>
AV-unprocessed.smi

> <i_m_source_file_index>
148

> <i_lp_mmshare_version>
43012

> <i_f3d_flags>
0

> <s_epik_input>
W0NIMl0xT1tDSDJdW0NIMl1bQ0BIXTFbQ0BIXShbQ0gyXVtPSF0pW0NIMl1uKFtjSF1uMiljKGMyMyluW2NIXW5jM040W0NIMl1bQ0gyXVtDSDJdW0NIMl1bQ0BIXTRbQ0BASF01W0NIMl1bQ0gyXVtDSDJdW0NASF01W09IXQ==

> <s_epik_cmdline>
J2VwaWtfcHl0aG9uJywgJy1waCcsICc3LjAnLCAnLXRuJywgJzgnLCAnLW1hJywgJzIwMCcsICctbWV0YWxfYmluZGluZycsICctaW1hZScsICc8aW5maWxlLm1hZT4nLCAnLW9tYWUnLCAnPG91dGZpbGUubWFlPic=

> <r_lp_tautomer_probability>
1

> <r_epik_Ionization_Penalty>
0.00556303

> <r_epik_Ionization_Penalty_Charging>
0

> <r_epik_Ionization_Penalty_Neutral>
0.00556303

> <r_epik_State_Penalty>
0.00401767

> <r_epik_Charging_Adjusted_Penalty>
0.00401767

> <i_epik_Tot_Q>
0

> <i_epik_Tot_abs_Q>
0

> <r_epik_Metal_State_Penalty>
-0

> <b_epik_Metal_Only>
0

> <s_lp_Force_Field>
OPLS_2005

> <r_lp_Energy>
68.7494

> <b_lp_Chiralities_Consistent>
1

> <s_lp_Variant>
AV-unprocessed.smi:148-19

> <Gold.Version>
5.8.1

> <Gold.Id.Protein>
6NUR|6NUR_protein|mol2

> <Gold.PLP.Fitness>
42.7801

> <Gold.PLP.PLP>
-34.6557

> <Gold.PLP.part.hbond>
-3.5697

> <Gold.PLP.part.metal>
0.0000

> <Gold.PLP.part.buried>
-5.8226

> <Gold.PLP.part.nonpolar>
-25.9931

> <Gold.PLP.part.repulsive>
0.2058

> <Gold.PLP.ligand.clash>
0.0000

> <Gold.PLP.ligand.torsion>
0.8359

> <Gold.PLP.Chemscore.Hbond>
2.0000

> <Gold.PLP.Chemscore.CHOScore>
1.1585

> <Gold.PLP.Chemscore.Metal>
0.0000

> <Gold.Chemscore.Hbonds>
donor molecule, donor type, donor heavy atom, donor atom, acceptor molecule, acceptor atom, score
      L1  H     1    31       P1 10175  0.81
      P1  H  6934  6947       L1    21  0.25
      L1  C     6    37       P1 10957  1.00
      L1  C     6    37       P1 11000  0.46

> <Gold.PLP.Chemscore.Internal.Correction>
0.3207

> <Gold.Rescore>
     Score         DG    S(hbond)    S(metal)    S(lipo)     H(rot)  DE(clash)    DE(int)     intcor
     10.90     -13.50       1.86        0.00      88.04       3.32       0.01       2.59       ----

> <Gold.Chemscore.Fitness>
10.8984

> <Gold.Chemscore.DG>
-13.4985

> <Gold.Chemscore.ZeroCoef>
-5.4800

> <Gold.Chemscore.Hbond>
1.8615

> <Gold.Chemscore.Metal>
0.0000

> <Gold.Chemscore.Lipo>
88.0440

> <Gold.Chemscore.Internal_Hbond>
0.0000

> <Gold.Chemscore.DEClash>
0.0073

> <Gold.Chemscore.DEInternal>
2.5927

> <Gold.Chemscore.Rot>
3.3203

> <Gold.Chemscore.Internal.Correction>
   9.000000E+99

> <Gold.Chemscore.Hbonds>
donor molecule, donor type, donor heavy atom, donor atom, acceptor molecule, acceptor atom, score
      L1  H     1    31       P1 10175  0.80

> <Gold.Chemscore.Hbond.Weighted>
-6.2173

> <Gold.Chemscore.Metal.Weighted>
-0.0000

> <Gold.Chemscore.Lipo.Weighted>
-10.3011

> <Gold.Chemscore.Internal_Hbond.Weighted>
0.0000

> <Gold.Chemscore.DEClash.Weighted>
0.0073

> <Gold.Chemscore.DEInternal.Weighted>
2.5927

> <Gold.Chemscore.Rot.Weighted>
8.5000

> <Gold.Chemscore.Internal.Correction.Weighted>
   9.000000E+99

> <Gold.Protein.RotatedTorsions>
[ 6907 6896 6895 6894 ] final   -4.35 input  -60.11 | X-H torsion
[ 7974 7965 7964 7962 ] final  -26.32 input  175.53 | X-H torsion
[ 8008 7997 7996 7995 ] final   95.80 input   59.86 | X-H torsion
[ 10167 10162 10161 10158 ] final  -30.24 input  -65.29 | X-H torsion
[ 10718 10713 10712 10709 ] final -159.74 input   66.30 | X-H torsion
[ 10763 10752 10751 10750 ] final -135.90 input  -60.55 | X-H torsion
[ 11005 11000 10999 10996 ] final  141.05 input  -57.11 | X-H torsion

> <Gold.Protein.ActiveResidues>
 VAL166  LYS551  ARG553  GLY616  TRP617  ASP618  TYR619  PRO620  LYS621  CYS622 
 ASP623  PHE694  ASN695  SER759  ASP760  ASP761  ALA762  ILE779  LEU786  VAL792 
 PHE793  MET794  SER795  GLU796  ALA797  LYS798  CYS799  TRP800  GLU811  SER814 

> <Gold.Protein.RotatedAtoms>
  151.4990  135.1061  159.9823 H   0  0  0  0  0  0  0  0  0  0  0  0  # atno 6907 bound_to 6896
  152.4709  133.8025  159.6971 H   0  0  0  0  0  0  0  0  0  0  0  0  # atno 6908 bound_to 6896
  150.8718  133.7431  159.2984 H   0  0  0  0  0  0  0  0  0  0  0  0  # atno 6909 bound_to 6896
  146.1433  140.5004  142.8642 H   0  0  0  0  0  0  0  0  0  0  0  0  # atno 7974 bound_to 7965
  156.0728  140.3281  155.7597 H   0  0  0  0  0  0  0  0  0  0  0  0  # atno 8008 bound_to 7997
  155.5278  140.0590  157.2912 H   0  0  0  0  0  0  0  0  0  0  0  0  # atno 8009 bound_to 7997
  154.4539  140.1932  156.0454 H   0  0  0  0  0  0  0  0  0  0  0  0  # atno 8010 bound_to 7997
  140.7251  143.3864  151.1507 H   0  0  0  0  0  0  0  0  0  0  0  0  # atno 10167 bound_to 10162
  156.5724  130.8694  151.2841 H   0  0  0  0  0  0  0  0  0  0  0  0  # atno 10718 bound_to 10713
  154.8694  135.3689  154.4974 H   0  0  0  0  0  0  0  0  0  0  0  0  # atno 10763 bound_to 10752
  153.5616  135.7023  153.5549 H   0  0  0  0  0  0  0  0  0  0  0  0  # atno 10764 bound_to 10752
  153.3622  135.4043  155.1690 H   0  0  0  0  0  0  0  0  0  0  0  0  # atno 10765 bound_to 10752
  140.0372  134.9323  157.0775 H   0  0  0  0  0  0  0  0  0  0  0  0  # atno 11005 bound_to 11000
  144.7817  140.5854  143.6601 LP  0  0  0  0  0  0  0  0  0  0  0  0  # atno 17320 bound_to 7965
  145.4996  139.1484  143.3664 LP  0  0  0  0  0  0  0  0  0  0  0  0  # atno 17321 bound_to 7965
  139.7462  143.8848  152.3064 LP  0  0  0  0  0  0  0  0  0  0  0  0  # atno 17342 bound_to 10162
  139.8686  144.7080  150.9014 LP  0  0  0  0  0  0  0  0  0  0  0  0  # atno 17343 bound_to 10162
  157.7345  130.9747  150.2033 LP  0  0  0  0  0  0  0  0  0  0  0  0  # atno 17370 bound_to 10713
  156.2703  130.3721  149.8038 LP  0  0  0  0  0  0  0  0  0  0  0  0  # atno 17371 bound_to 10713
  140.4128  134.1963  155.7163 LP  0  0  0  0  0  0  0  0  0  0  0  0  # atno 17394 bound_to 11000
  141.1864  133.8303  157.1071 LP  0  0  0  0  0  0  0  0  0  0  0  0  # atno 17395 bound_to 11000

$$$$
