AV-unprocessed.smi:34|AV-procd|sdf|215|dock7
  -GOLD-   2262015523D 1   1.00000     0.00000
 Structure written by MMmdl.
 55 59  0  0  0  0  0  0  0  0  1 V2000
  153.3121  139.4623  158.0826 O   0  0  0  0  0  0  0  0  0  0  0  0
  152.4549  140.3205  157.8703 C   0  0  0  0  0  0  0  0  0  0  0  0
  151.4172  140.1460  156.8696 N   0  0  0  0  0  0  0  0  0  0  0  0
  151.1971  139.0766  156.0697 C   0  0  0  0  0  0  0  0  0  0  0  0
  151.4751  139.0898  154.7397 N   0  0  0  0  0  0  0  0  0  0  0  0
  151.2223  138.0138  153.9899 C   0  0  0  0  0  0  0  0  0  0  0  0
  150.6997  136.8436  154.3618 N   0  0  0  0  0  0  0  0  0  0  0  0
  150.4245  136.8170  155.6975 C   0  0  0  0  0  0  0  0  0  0  0  0
  150.6483  137.8853  156.6109 C   0  0  0  0  0  0  0  0  0  0  0  0
  150.2551  137.5049  157.8867 N   0  0  0  0  0  0  0  0  0  0  0  0
  149.8191  136.2844  157.7304 C   0  0  0  0  0  0  0  0  0  0  0  0
  149.8726  135.7941  156.4443 N   0  0  0  0  0  0  0  0  0  0  0  0
  149.4257  134.4441  155.9783 C   0  0  2  0  0  0  0  0  0  0  0  0
  150.2962  133.4790  156.4988 O   0  0  0  0  0  0  0  0  0  0  0  0
  150.9513  132.7874  155.4363 C   0  0  1  0  0  0  0  0  0  0  0  0
  151.2967  131.3493  155.8435 C   0  0  0  0  0  0  0  0  0  0  0  0
  152.6730  131.1140  155.5930 O   0  0  0  0  0  0  0  0  0  0  0  0
  153.0934  129.8908  155.2178 C   0  0  0  0  0  0  0  0  0  0  0  0
  152.3628  128.8985  155.1857 O   0  0  0  0  0  0  0  0  0  0  0  0
  154.5365  129.8645  154.8411 C   0  0  0  0  0  0  0  0  0  0  0  0
  155.1686  128.6217  154.6032 C   0  0  0  0  0  0  0  0  0  0  0  0
  156.5295  128.5656  154.2441 C   0  0  0  0  0  0  0  0  0  0  0  0
  157.2754  129.7520  154.1187 C   0  0  0  0  0  0  0  0  0  0  0  0
  156.6584  130.9949  154.3519 C   0  0  0  0  0  0  0  0  0  0  0  0
  155.2974  131.0530  154.7107 C   0  0  0  0  0  0  0  0  0  0  0  0
  149.9740  132.9137  154.2684 C   0  0  1  0  0  0  0  0  0  0  0  0
  148.9744  132.0424  154.4387 F   0  0  0  0  0  0  0  0  0  0  0  0
  149.4817  134.3391  154.4476 C   0  0  1  0  0  0  0  0  0  0  0  0
  148.2285  134.5137  153.8176 O   0  0  0  0  0  0  0  0  0  0  0  0
  152.4726  141.6456  158.5756 C   0  0  0  0  0  0  0  0  0  0  0  0
  153.1128  141.7697  159.8293 C   0  0  0  0  0  0  0  0  0  0  0  0
  153.1281  143.0065  160.5033 C   0  0  0  0  0  0  0  0  0  0  0  0
  152.4962  144.1277  159.9335 C   0  0  0  0  0  0  0  0  0  0  0  0
  151.8452  144.0103  158.6909 C   0  0  0  0  0  0  0  0  0  0  0  0
  151.8293  142.7740  158.0157 C   0  0  0  0  0  0  0  0  0  0  0  0
  150.7853  140.9241  156.7490 H   0  0  0  0  0  0  0  0  0  0  0  0
  151.4717  138.1048  152.9430 H   0  0  0  0  0  0  0  0  0  0  0  0
  149.4324  135.7062  158.5572 H   0  0  0  0  0  0  0  0  0  0  0  0
  148.4278  134.3053  156.3964 H   0  0  0  0  0  0  0  0  0  0  0  0
  151.8715  133.3163  155.1909 H   0  0  0  0  0  0  0  0  0  0  0  0
  151.0918  131.2019  156.9045 H   0  0  0  0  0  0  0  0  0  0  0  0
  150.6820  130.6375  155.2905 H   0  0  0  0  0  0  0  0  0  0  0  0
  154.6162  127.6971  154.6928 H   0  0  0  0  0  0  0  0  0  0  0  0
  157.0010  127.6107  154.0644 H   0  0  0  0  0  0  0  0  0  0  0  0
  158.3191  129.7085  153.8436 H   0  0  0  0  0  0  0  0  0  0  0  0
  157.2292  131.9067  154.2549 H   0  0  0  0  0  0  0  0  0  0  0  0
  154.8551  132.0236  154.8816 H   0  0  0  0  0  0  0  0  0  0  0  0
  150.4283  132.7248  153.2952 H   0  0  0  0  0  0  0  0  0  0  0  0
  150.2117  135.0424  154.0448 H   0  0  0  0  0  0  0  0  0  0  0  0
  148.3748  134.8774  152.9576 H   0  0  0  0  0  0  0  0  0  0  0  0
  153.6033  140.9185  160.2798 H   0  0  0  0  0  0  0  0  0  0  0  0
  153.6257  143.0945  161.4581 H   0  0  0  0  0  0  0  0  0  0  0  0
  152.5085  145.0761  160.4499 H   0  0  0  0  0  0  0  0  0  0  0  0
  151.3563  144.8694  158.2558 H   0  0  0  0  0  0  0  0  0  0  0  0
  151.3180  142.7046  157.0665 H   0  0  0  0  0  0  0  0  0  0  0  0
  1  2  2  0  0  0  0
  2  3  1  0  0  0  0
  2 30  1  0  0  0  0
  3  4  1  0  0  0  0
  3 36  1  0  0  0  0
  4  9  1  0  0  0  0
  4  5  2  0  0  0  0
  5  6  1  0  0  0  0
  6  7  2  0  0  0  0
  6 37  1  0  0  0  0
  7  8  1  0  0  0  0
  8 12  1  0  0  0  0
  8  9  2  0  0  0  0
  9 10  1  0  0  0  0
 10 11  2  0  0  0  0
 11 12  1  0  0  0  0
 11 38  1  0  0  0  0
 12 13  1  0  0  0  0
 13 28  1  0  0  0  0
 13 14  1  0  0  0  0
 13 39  1  0  0  0  0
 14 15  1  0  0  0  0
 15 16  1  0  0  0  0
 15 26  1  0  0  0  0
 15 40  1  0  0  0  0
 16 17  1  0  0  0  0
 16 41  1  0  0  0  0
 16 42  1  0  0  0  0
 17 18  1  0  0  0  0
 18 19  2  0  0  0  0
 18 20  1  0  0  0  0
 20 25  1  0  0  0  0
 20 21  2  0  0  0  0
 21 22  1  0  0  0  0
 21 43  1  0  0  0  0
 22 23  2  0  0  0  0
 22 44  1  0  0  0  0
 23 24  1  0  0  0  0
 23 45  1  0  0  0  0
 24 25  2  0  0  0  0
 24 46  1  0  0  0  0
 25 47  1  0  0  0  0
 26 27  1  0  0  0  0
 26 28  1  0  0  0  0
 26 48  1  0  0  0  0
 28 29  1  0  0  0  0
 28 49  1  0  0  0  0
 29 50  1  0  0  0  0
 30 35  1  0  0  0  0
 30 31  2  0  0  0  0
 31 32  1  0  0  0  0
 31 51  1  0  0  0  0
 32 33  2  0  0  0  0
 32 52  1  0  0  0  0
 33 34  1  0  0  0  0
 33 53  1  0  0  0  0
 34 35  2  0  0  0  0
 34 54  1  0  0  0  0
 35 55  1  0  0  0  0
M  END
> <s_m_source_file>
AV-unprocessed.smi

> <i_m_source_file_index>
34

> <i_lp_mmshare_version>
43012

> <i_f3d_flags>
0

> <s_epik_input>
W2NIXTFbY0hdW2NIXVtjSF1bY0hdYzFDKD1PKVtOSF1jKG5bY0hdbjIpYyhjMjMpbltjSF1uM1tDQEBIXTRPW0NASF0oW0NAQEhdKEYpW0NASF00W09IXSlbQ0gyXU9DKD1PKWM1W2NIXVtjSF1bY0hdW2NIXVtjSF01

> <s_epik_cmdline>
J2VwaWtfcHl0aG9uJywgJy1waCcsICc3LjAnLCAnLXRuJywgJzgnLCAnLW1hJywgJzIwMCcsICctbWV0YWxfYmluZGluZycsICctaW1hZScsICc8aW5maWxlLm1hZT4nLCAnLW9tYWUnLCAnPG91dGZpbGUubWFlPic=

> <r_lp_tautomer_probability>
1

> <r_epik_Ionization_Penalty>
0.00257489

> <r_epik_Ionization_Penalty_Charging>
0

> <r_epik_Ionization_Penalty_Neutral>
0.00257489

> <r_epik_State_Penalty>
0.00519398

> <r_epik_Charging_Adjusted_Penalty>
0.00519398

> <i_epik_Tot_Q>
0

> <i_epik_Tot_abs_Q>
0

> <r_epik_Metal_State_Penalty>
0.335891

> <b_epik_Metal_Only>
0

> <s_epik_Chemistry_Notes>
This compound has an ester and may undergo hydrolysis at high or low pH. This compound contains an acetal/aminal-like group ( X-CH(R)-Y where X, Y are N, S, or O) that may be acid/base labile, releasing an aldehyde.

> <s_lp_Force_Field>
OPLS_2005

> <r_lp_Energy>
46.7099

> <b_lp_Chiralities_Consistent>
1

> <s_lp_Variant>
AV-unprocessed.smi:34-1

> <Gold.Version>
5.8.1

> <Gold.Id.Protein>
6NUR|6NUR_protein|mol2

> <Gold.PLP.Fitness>
57.8641

> <Gold.PLP.PLP>
-51.8654

> <Gold.PLP.part.hbond>
-2.4942

> <Gold.PLP.part.metal>
0.0000

> <Gold.PLP.part.buried>
-7.2643

> <Gold.PLP.part.nonpolar>
-42.2082

> <Gold.PLP.part.repulsive>
1.2484

> <Gold.PLP.ligand.clash>
0.0000

> <Gold.PLP.ligand.torsion>
2.0613

> <Gold.PLP.Chemscore.Hbond>
2.5363

> <Gold.PLP.Chemscore.CHOScore>
0.7262

> <Gold.PLP.Chemscore.Metal>
0.0000

> <Gold.Chemscore.Hbonds>
donor molecule, donor type, donor heavy atom, donor atom, acceptor molecule, acceptor atom, score
      L1  H    29    50       P1  7948  1.00
      P1  H  7989  7998       L1     5  0.67
      P1  H  7997  8009       L1     1  1.00
      L1  C     6    37       P1  7949  0.66

> <Gold.PLP.Chemscore.Internal.Correction>
0.3340

> <Gold.Rescore>
     Score         DG    S(hbond)    S(metal)    S(lipo)     H(rot)  DE(clash)    DE(int)     intcor
     17.74     -21.47       2.52        0.00     124.15       2.72       0.38       3.35       ----

> <Gold.Chemscore.Fitness>
17.7392

> <Gold.Chemscore.DG>
-21.4693

> <Gold.Chemscore.ZeroCoef>
-5.4800

> <Gold.Chemscore.Hbond>
2.5242

> <Gold.Chemscore.Metal>
0.0000

> <Gold.Chemscore.Lipo>
124.1490

> <Gold.Chemscore.Internal_Hbond>
0.0000

> <Gold.Chemscore.DEClash>
0.3761

> <Gold.Chemscore.DEInternal>
3.3540

> <Gold.Chemscore.Rot>
2.7215

> <Gold.Chemscore.Internal.Correction>
   9.000000E+99

> <Gold.Chemscore.Hbonds>
donor molecule, donor type, donor heavy atom, donor atom, acceptor molecule, acceptor atom, score
      L1  H    29    50       P1  7948  0.63
      P1  H  7989  7998       L1     5  0.49
      P1  H  7997  8009       L1     1  0.40

> <Gold.Chemscore.Hbond.Weighted>
-8.4309

> <Gold.Chemscore.Metal.Weighted>
-0.0000

> <Gold.Chemscore.Lipo.Weighted>
-14.5254

> <Gold.Chemscore.Internal_Hbond.Weighted>
0.0000

> <Gold.Chemscore.DEClash.Weighted>
0.3761

> <Gold.Chemscore.DEInternal.Weighted>
3.3540

> <Gold.Chemscore.Rot.Weighted>
6.9670

> <Gold.Chemscore.Internal.Correction.Weighted>
   9.000000E+99

> <Gold.Protein.RotatedTorsions>
[ 6907 6896 6895 6894 ] final  141.87 input  -60.11 | X-H torsion
[ 7974 7965 7964 7962 ] final  -60.26 input  175.53 | X-H torsion
[ 8008 7997 7996 7995 ] final  146.06 input   59.86 | X-H torsion
[ 10167 10162 10161 10158 ] final -162.33 input  -65.29 | X-H torsion
[ 10718 10713 10712 10709 ] final  -56.45 input   66.30 | X-H torsion
[ 10763 10752 10751 10750 ] final  -38.35 input  -60.55 | X-H torsion
[ 11005 11000 10999 10996 ] final -120.93 input  -57.11 | X-H torsion

> <Gold.Protein.ActiveResidues>
 VAL166  LYS551  ARG553  GLY616  TRP617  ASP618  TYR619  PRO620  LYS621  CYS622 
 ASP623  PHE694  ASN695  SER759  ASP760  ASP761  ALA762  ILE779  LEU786  VAL792 
 PHE793  MET794  SER795  GLU796  ALA797  LYS798  CYS799  TRP800  GLU811  SER814 

> <Gold.Protein.RotatedAtoms>
  152.2257  133.5018  159.5187 H   0  0  0  0  0  0  0  0  0  0  0  0  # atno 6907 bound_to 6896
  150.7024  134.1283  159.4069 H   0  0  0  0  0  0  0  0  0  0  0  0  # atno 6908 bound_to 6896
  151.9204  135.0300  160.0572 H   0  0  0  0  0  0  0  0  0  0  0  0  # atno 6909 bound_to 6896
  145.8177  140.8560  143.0149 H   0  0  0  0  0  0  0  0  0  0  0  0  # atno 7974 bound_to 7965
  156.2866  140.2192  156.5316 H   0  0  0  0  0  0  0  0  0  0  0  0  # atno 8008 bound_to 7997
  154.7444  140.0485  157.0861 H   0  0  0  0  0  0  0  0  0  0  0  0  # atno 8009 bound_to 7997
  155.0189  140.3122  155.4804 H   0  0  0  0  0  0  0  0  0  0  0  0  # atno 8010 bound_to 7997
  139.6400  144.0278  152.2084 H   0  0  0  0  0  0  0  0  0  0  0  0  # atno 10167 bound_to 10162
  156.1287  130.4161  150.0307 H   0  0  0  0  0  0  0  0  0  0  0  0  # atno 10718 bound_to 10713
  153.9114  135.6792  153.4751 H   0  0  0  0  0  0  0  0  0  0  0  0  # atno 10763 bound_to 10752
  153.1076  135.4798  154.8976 H   0  0  0  0  0  0  0  0  0  0  0  0  # atno 10764 bound_to 10752
  154.7525  135.3188  154.8487 H   0  0  0  0  0  0  0  0  0  0  0  0  # atno 10765 bound_to 10752
  141.0107  134.0268  157.3417 H   0  0  0  0  0  0  0  0  0  0  0  0  # atno 11005 bound_to 11000
  144.6751  140.0487  143.7479 LP  0  0  0  0  0  0  0  0  0  0  0  0  # atno 17320 bound_to 7965
  145.9709  139.2869  143.1099 LP  0  0  0  0  0  0  0  0  0  0  0  0  # atno 17321 bound_to 7965
  139.9965  144.6324  150.7768 LP  0  0  0  0  0  0  0  0  0  0  0  0  # atno 17342 bound_to 10162
  140.7485  143.2924  151.3295 LP  0  0  0  0  0  0  0  0  0  0  0  0  # atno 17343 bound_to 10162
  156.8225  130.9364  151.3640 LP  0  0  0  0  0  0  0  0  0  0  0  0  # atno 17370 bound_to 10713
  157.6467  130.8850  149.9552 LP  0  0  0  0  0  0  0  0  0  0  0  0  # atno 17371 bound_to 10713
  139.9088  135.0186  156.7604 LP  0  0  0  0  0  0  0  0  0  0  0  0  # atno 17394 bound_to 11000
  140.6738  133.9536  155.7871 LP  0  0  0  0  0  0  0  0  0  0  0  0  # atno 17395 bound_to 11000

$$$$
