AV-unprocessed.smi:1335|AV-procd|sdf|5495|dock8
  -GOLD-   22720 5 73D 1   1.00000     0.00000
 Structure written by MMmdl.
 47 49  0  0  0  0  0  0  0  0  1 V2000
  145.0483  144.7890  152.6082 C   0  0  0  0  0  0  0  0  0  0  0  0
  145.8824  143.7865  153.1702 O   0  0  0  0  0  0  0  0  0  0  0  0
  145.6417  143.3824  154.4676 C   0  0  0  0  0  0  0  0  0  0  0  0
  144.6446  143.9629  155.2935 C   0  0  0  0  0  0  0  0  0  0  0  0
  144.4553  143.5143  156.6143 C   0  0  0  0  0  0  0  0  0  0  0  0
  145.2587  142.4832  157.1310 C   0  0  0  0  0  0  0  0  0  0  0  0
  146.2492  141.8984  156.3223 C   0  0  0  0  0  0  0  0  0  0  0  0
  146.4414  142.3388  154.9962 C   0  0  0  0  0  0  0  0  0  0  0  0
  147.5249  141.6732  154.1601 C   0  0  0  0  0  0  0  0  0  0  0  0
  148.7953  141.7001  154.7921 O   0  0  0  0  0  0  0  0  0  0  0  0
  149.4214  140.4280  154.8799 C   0  0  0  0  0  0  0  0  0  0  0  0
  150.5820  140.5255  155.8803 C   0  0  1  0  0  0  0  0  0  0  0  0
  151.7133  139.9310  155.2770 O   0  0  0  0  0  0  0  0  0  0  0  0
  150.9188  141.9890  156.2365 C   0  0  0  0  0  0  0  0  0  0  0  0
  151.6061  142.0793  157.5217 N   0  0  0  0  0  0  0  0  0  0  0  0
  152.3982  141.1338  158.0788 C   0  0  0  0  0  0  0  0  0  0  0  0
  152.6731  140.0405  157.5847 O   0  0  0  0  0  0  0  0  0  0  0  0
  152.8179  141.5944  159.2804 N   0  0  0  0  0  0  0  0  0  0  0  0
  153.6857  140.9068  160.2288 C   0  0  0  0  0  0  0  0  0  0  0  0
  152.2562  142.8568  159.5106 C   0  0  0  0  0  0  0  0  0  0  0  0
  152.3647  143.7291  160.6069 C   0  0  0  0  0  0  0  0  0  0  0  0
  151.6526  144.9494  160.5338 C   0  0  0  0  0  0  0  0  0  0  0  0
  150.8647  145.2647  159.3960 C   0  0  0  0  0  0  0  0  0  0  0  0
  150.7720  144.3668  158.3066 C   0  0  0  0  0  0  0  0  0  0  0  0
  151.4919  143.1631  158.4043 C   0  0  0  0  0  0  0  0  0  0  0  0
  145.3839  145.0083  151.5948 H   0  0  0  0  0  0  0  0  0  0  0  0
  145.0996  145.7169  153.1796 H   0  0  0  0  0  0  0  0  0  0  0  0
  144.0112  144.4572  152.5466 H   0  0  0  0  0  0  0  0  0  0  0  0
  144.0086  144.7587  154.9376 H   0  0  0  0  0  0  0  0  0  0  0  0
  143.6925  143.9644  157.2323 H   0  0  0  0  0  0  0  0  0  0  0  0
  145.1154  142.1409  158.1455 H   0  0  0  0  0  0  0  0  0  0  0  0
  146.8660  141.1071  156.7230 H   0  0  0  0  0  0  0  0  0  0  0  0
  147.2466  140.6272  154.0282 H   0  0  0  0  0  0  0  0  0  0  0  0
  147.5863  142.0909  153.1547 H   0  0  0  0  0  0  0  0  0  0  0  0
  148.6865  139.6960  155.2189 H   0  0  0  0  0  0  0  0  0  0  0  0
  149.7898  140.0957  153.9082 H   0  0  0  0  0  0  0  0  0  0  0  0
  150.3264  139.9524  156.7730 H   0  0  0  0  0  0  0  0  0  0  0  0
  151.9533  139.1660  155.7775 H   0  0  0  0  0  0  0  0  0  0  0  0
  151.5032  142.4676  155.4484 H   0  0  0  0  0  0  0  0  0  0  0  0
  150.0048  142.5793  156.3091 H   0  0  0  0  0  0  0  0  0  0  0  0
  153.1059  140.5610  161.0852 H   0  0  0  0  0  0  0  0  0  0  0  0
  154.4626  141.5811  160.5907 H   0  0  0  0  0  0  0  0  0  0  0  0
  154.1775  140.0427  159.7800 H   0  0  0  0  0  0  0  0  0  0  0  0
  152.9633  143.4801  161.4705 H   0  0  0  0  0  0  0  0  0  0  0  0
  151.7082  145.6486  161.3552 H   0  0  0  0  0  0  0  0  0  0  0  0
  150.3278  146.2011  159.3615 H   0  0  0  0  0  0  0  0  0  0  0  0
  150.1709  144.6010  157.4405 H   0  0  0  0  0  0  0  0  0  0  0  0
  1  2  1  0  0  0  0
  1 26  1  0  0  0  0
  1 27  1  0  0  0  0
  1 28  1  0  0  0  0
  2  3  1  0  0  0  0
  3  8  1  0  0  0  0
  3  4  2  0  0  0  0
  4  5  1  0  0  0  0
  4 29  1  0  0  0  0
  5  6  2  0  0  0  0
  5 30  1  0  0  0  0
  6  7  1  0  0  0  0
  6 31  1  0  0  0  0
  7  8  2  0  0  0  0
  7 32  1  0  0  0  0
  8  9  1  0  0  0  0
  9 10  1  0  0  0  0
  9 33  1  0  0  0  0
  9 34  1  0  0  0  0
 10 11  1  0  0  0  0
 11 12  1  0  0  0  0
 11 35  1  0  0  0  0
 11 36  1  0  0  0  0
 12 13  1  0  0  0  0
 12 14  1  0  0  0  0
 12 37  1  0  0  0  0
 13 38  1  0  0  0  0
 14 15  1  0  0  0  0
 14 39  1  0  0  0  0
 14 40  1  0  0  0  0
 15 25  1  0  0  0  0
 15 16  1  0  0  0  0
 16 17  2  0  0  0  0
 16 18  1  0  0  0  0
 18 19  1  0  0  0  0
 18 20  1  0  0  0  0
 19 41  1  0  0  0  0
 19 42  1  0  0  0  0
 19 43  1  0  0  0  0
 20 25  2  0  0  0  0
 20 21  1  0  0  0  0
 21 22  2  0  0  0  0
 21 44  1  0  0  0  0
 22 23  1  0  0  0  0
 22 45  1  0  0  0  0
 23 24  2  0  0  0  0
 23 46  1  0  0  0  0
 24 25  1  0  0  0  0
 24 47  1  0  0  0  0
M  END
> <s_m_source_file>
AV-unprocessed.smi

> <i_m_source_file_index>
1335

> <i_lp_mmshare_version>
43012

> <i_f3d_flags>
0

> <s_epik_input>
W0NIM11PYzFbY0hdW2NIXVtjSF1bY0hdYzFbQ0gyXU9bQ0gyXVtDQEhdKFtPSF0pW0NIMl1uKGMoPU8pbjJbQ0gzXSljKGMyMylbY0hdW2NIXVtjSF1bY0hdMw==

> <s_epik_cmdline>
J2VwaWtfcHl0aG9uJywgJy1waCcsICc3LjAnLCAnLXRuJywgJzgnLCAnLW1hJywgJzIwMCcsICctbWV0YWxfYmluZGluZycsICctaW1hZScsICc8aW5maWxlLm1hZT4nLCAnLW9tYWUnLCAnPG91dGZpbGUubWFlPic=

> <r_lp_tautomer_probability>
1

> <r_epik_Ionization_Penalty>
1.07897e-06

> <r_epik_Ionization_Penalty_Charging>
2.2947e-09

> <r_epik_Ionization_Penalty_Neutral>
1.07667e-06

> <r_epik_State_Penalty>
-0

> <r_epik_Charging_Adjusted_Penalty>
2.2947e-09

> <i_epik_Tot_Q>
0

> <i_epik_Tot_abs_Q>
0

> <r_epik_Metal_State_Penalty>
-0

> <b_epik_Metal_Only>
0

> <s_lp_Force_Field>
OPLS_2005

> <r_lp_Energy>
49.5291

> <b_lp_Chiralities_Consistent>
1

> <s_lp_Variant>
AV-unprocessed.smi:1335-2

> <Gold.Version>
5.8.1

> <Gold.Id.Protein>
6NUR|6NUR_protein|mol2

> <Gold.PLP.Fitness>
57.8769

> <Gold.PLP.PLP>
-55.4943

> <Gold.PLP.part.hbond>
-3.0000

> <Gold.PLP.part.metal>
0.0000

> <Gold.PLP.part.buried>
-8.2478

> <Gold.PLP.part.nonpolar>
-45.9030

> <Gold.PLP.part.repulsive>
0.6269

> <Gold.PLP.ligand.clash>
0.3278

> <Gold.PLP.ligand.torsion>
1.7451

> <Gold.PLP.Chemscore.Hbond>
2.0000

> <Gold.PLP.Chemscore.CHOScore>
0.0000

> <Gold.PLP.Chemscore.Metal>
0.0000

> <Gold.Chemscore.Hbonds>
donor molecule, donor type, donor heavy atom, donor atom, acceptor molecule, acceptor atom, score
      P1  H  7989  7998       L1    13  0.93
      P1  H  7997  8008       L1    17  1.00

> <Gold.PLP.Chemscore.Internal.Correction>
0.2006

> <Gold.Rescore>
     Score         DG    S(hbond)    S(metal)    S(lipo)     H(rot)  DE(clash)    DE(int)     intcor
     14.06     -19.15       1.51        0.00     128.49       2.50       0.28       4.81       ----

> <Gold.Chemscore.Fitness>
14.0617

> <Gold.Chemscore.DG>
-19.1519

> <Gold.Chemscore.ZeroCoef>
-5.4800

> <Gold.Chemscore.Hbond>
1.5113

> <Gold.Chemscore.Metal>
0.0000

> <Gold.Chemscore.Lipo>
128.4938

> <Gold.Chemscore.Internal_Hbond>
0.0000

> <Gold.Chemscore.DEClash>
0.2763

> <Gold.Chemscore.DEInternal>
4.8139

> <Gold.Chemscore.Rot>
2.5038

> <Gold.Chemscore.Internal.Correction>
   9.000000E+99

> <Gold.Chemscore.Hbonds>
donor molecule, donor type, donor heavy atom, donor atom, acceptor molecule, acceptor atom, score
      P1  H  7989  7998       L1    13  0.19
      P1  H  7997  8008       L1    17  0.75

> <Gold.Chemscore.Hbond.Weighted>
-5.0479

> <Gold.Chemscore.Metal.Weighted>
-0.0000

> <Gold.Chemscore.Lipo.Weighted>
-15.0338

> <Gold.Chemscore.Internal_Hbond.Weighted>
0.0000

> <Gold.Chemscore.DEClash.Weighted>
0.2763

> <Gold.Chemscore.DEInternal.Weighted>
4.8139

> <Gold.Chemscore.Rot.Weighted>
6.4098

> <Gold.Chemscore.Internal.Correction.Weighted>
   9.000000E+99

> <Gold.Protein.RotatedTorsions>
[ 6907 6896 6895 6894 ] final -107.89 input  -60.11 | X-H torsion
[ 7974 7965 7964 7962 ] final  -45.48 input  175.53 | X-H torsion
[ 8008 7997 7996 7995 ] final  -58.68 input   59.86 | X-H torsion
[ 10167 10162 10161 10158 ] final   55.74 input  -65.29 | X-H torsion
[ 10718 10713 10712 10709 ] final   37.72 input   66.30 | X-H torsion
[ 10763 10752 10751 10750 ] final  -83.85 input  -60.55 | X-H torsion
[ 11005 11000 10999 10996 ] final   51.83 input  -57.11 | X-H torsion

> <Gold.Protein.ActiveResidues>
 VAL166  LYS551  ARG553  GLY616  TRP617  ASP618  TYR619  PRO620  LYS621  CYS622 
 ASP623  PHE694  ASN695  SER759  ASP760  ASP761  ALA762  ILE779  LEU786  VAL792 
 PHE793  MET794  SER795  GLU796  ALA797  LYS798  CYS799  TRP800  GLU811  SER814 

> <Gold.Protein.RotatedAtoms>
  150.7470  133.9759  159.3560 H   0  0  0  0  0  0  0  0  0  0  0  0  # atno 6907 bound_to 6896
  151.7696  135.0787  160.0367 H   0  0  0  0  0  0  0  0  0  0  0  0  # atno 6908 bound_to 6896
  152.3348  133.5962  159.5871 H   0  0  0  0  0  0  0  0  0  0  0  0  # atno 6909 bound_to 6896
  145.9816  140.7277  142.9360 H   0  0  0  0  0  0  0  0  0  0  0  0  # atno 7974 bound_to 7965
  154.4319  140.1078  156.5995 H   0  0  0  0  0  0  0  0  0  0  0  0  # atno 8008 bound_to 7997
  155.5926  140.3492  155.4552 H   0  0  0  0  0  0  0  0  0  0  0  0  # atno 8009 bound_to 7997
  156.0235  140.1245  157.0322 H   0  0  0  0  0  0  0  0  0  0  0  0  # atno 8010 bound_to 7997
  140.2162  144.3837  150.6469 H   0  0  0  0  0  0  0  0  0  0  0  0  # atno 10167 bound_to 10162
  157.3503  130.7595  149.6974 H   0  0  0  0  0  0  0  0  0  0  0  0  # atno 10718 bound_to 10713
  154.5926  135.5541  153.7293 H   0  0  0  0  0  0  0  0  0  0  0  0  # atno 10763 bound_to 10752
  153.0123  135.6347  154.1828 H   0  0  0  0  0  0  0  0  0  0  0  0  # atno 10764 bound_to 10752
  154.1768  135.2889  155.3044 H   0  0  0  0  0  0  0  0  0  0  0  0  # atno 10765 bound_to 10752
  140.0900  134.5222  155.8861 H   0  0  0  0  0  0  0  0  0  0  0  0  # atno 11005 bound_to 11000
  144.6863  140.2919  143.7277 LP  0  0  0  0  0  0  0  0  0  0  0  0  # atno 17320 bound_to 7965
  145.7760  139.1874  143.2185 LP  0  0  0  0  0  0  0  0  0  0  0  0  # atno 17321 bound_to 7965
  140.6288  143.2184  151.6540 LP  0  0  0  0  0  0  0  0  0  0  0  0  # atno 17342 bound_to 10162
  139.5161  144.3357  152.0786 LP  0  0  0  0  0  0  0  0  0  0  0  0  # atno 17343 bound_to 10162
  155.9720  130.4142  150.4122 LP  0  0  0  0  0  0  0  0  0  0  0  0  # atno 17370 bound_to 10713
  157.2184  131.0477  151.2560 LP  0  0  0  0  0  0  0  0  0  0  0  0  # atno 17371 bound_to 10713
  141.2075  133.6664  156.6308 LP  0  0  0  0  0  0  0  0  0  0  0  0  # atno 17394 bound_to 11000
  140.3366  134.7884  157.4366 LP  0  0  0  0  0  0  0  0  0  0  0  0  # atno 17395 bound_to 11000

$$$$
