AV-unprocessed.smi:1750|AV-procd|sdf|7055|dock3
  -GOLD-   22720 8273D 1   1.00000     0.00000
 Structure written by MMmdl.
 35 36  0  0  0  0  0  0  0  0  2 V2000
  149.1140  133.4770  154.4494 C   0  0  0  0  0  0  0  0  0  0  0  0
  150.1450  134.5963  154.6307 C   0  0  0  0  0  0  0  0  0  0  0  0
  149.7589  135.5783  155.7458 C   0  0  0  0  0  0  0  0  0  0  0  0
  150.7632  136.6680  155.9218 C   0  0  0  0  0  0  0  0  0  0  0  0
  151.8770  136.7537  155.1899 N   0  0  0  0  0  0  0  0  0  0  0  0
  152.6634  137.8351  155.5597 N   0  0  0  0  0  0  0  0  0  0  0  0
  152.1481  138.5354  156.5803 C   0  0  0  0  0  0  0  0  0  0  0  0
  152.7543  139.6203  157.0899 N   0  5  0  0  0  0  0  0  0  0  0  0
  152.1904  140.2871  158.1227 C   0  0  0  0  0  0  0  0  0  0  0  0
  150.9837  140.3832  158.3588 O   0  0  0  0  0  0  0  0  0  0  0  0
  153.0773  140.8827  158.9306 N   0  0  0  0  0  0  0  0  0  0  0  0
  152.7445  141.6704  160.1104 C   0  0  0  0  0  0  0  0  0  0  0  0
  152.8555  143.1707  159.8067 C   0  0  1  0  0  0  0  0  0  0  0  0
  152.2733  143.5726  158.4521 C   0  0  0  0  0  0  0  0  0  0  0  0
  151.8628  145.0247  158.6493 C   0  0  0  0  0  0  0  0  0  0  0  0
  151.9573  145.2397  160.1621 C   0  0  0  0  0  0  0  0  0  0  0  0
  152.0724  143.9349  160.7101 O   0  0  0  0  0  0  0  0  0  0  0  0
  150.6058  137.9051  157.1572 S   0  0  0  0  0  0  0  0  0  0  0  0
  149.4106  132.8026  153.6460 H   0  0  0  0  0  0  0  0  0  0  0  0
  148.1330  133.8819  154.1993 H   0  0  0  0  0  0  0  0  0  0  0  0
  149.0117  132.8858  155.3599 H   0  0  0  0  0  0  0  0  0  0  0  0
  151.1174  134.1550  154.8531 H   0  0  0  0  0  0  0  0  0  0  0  0
  150.2587  135.1376  153.6907 H   0  0  0  0  0  0  0  0  0  0  0  0
  148.7881  136.0271  155.5315 H   0  0  0  0  0  0  0  0  0  0  0  0
  149.6551  135.0481  156.6929 H   0  0  0  0  0  0  0  0  0  0  0  0
  154.0569  140.7779  158.7106 H   0  0  0  0  0  0  0  0  0  0  0  0
  151.7257  141.4389  160.4251 H   0  0  0  0  0  0  0  0  0  0  0  0
  153.4077  141.3941  160.9313 H   0  0  0  0  0  0  0  0  0  0  0  0
  153.8957  143.4969  159.8714 H   0  0  0  0  0  0  0  0  0  0  0  0
  152.9846  143.4391  157.6365 H   0  0  0  0  0  0  0  0  0  0  0  0
  151.3900  142.9730  158.2277 H   0  0  0  0  0  0  0  0  0  0  0  0
  152.5243  145.7095  158.1178 H   0  0  0  0  0  0  0  0  0  0  0  0
  150.8478  145.1885  158.2861 H   0  0  0  0  0  0  0  0  0  0  0  0
  152.8511  145.8128  160.4130 H   0  0  0  0  0  0  0  0  0  0  0  0
  151.0917  145.7644  160.5669 H   0  0  0  0  0  0  0  0  0  0  0  0
  1  2  1  0  0  0  0
  1 19  1  0  0  0  0
  1 20  1  0  0  0  0
  1 21  1  0  0  0  0
  2  3  1  0  0  0  0
  2 22  1  0  0  0  0
  2 23  1  0  0  0  0
  3  4  1  0  0  0  0
  3 24  1  0  0  0  0
  3 25  1  0  0  0  0
  4 18  1  0  0  0  0
  4  5  2  0  0  0  0
  5  6  1  0  0  0  0
  6  7  2  0  0  0  0
  7  8  1  0  0  0  0
  7 18  1  0  0  0  0
  8  9  1  0  0  0  0
  9 10  2  0  0  0  0
  9 11  1  0  0  0  0
 11 12  1  0  0  0  0
 11 26  1  0  0  0  0
 12 13  1  0  0  0  0
 12 27  1  0  0  0  0
 12 28  1  0  0  0  0
 13 17  1  0  0  0  0
 13 14  1  0  0  0  0
 13 29  1  0  0  0  0
 14 15  1  0  0  0  0
 14 30  1  0  0  0  0
 14 31  1  0  0  0  0
 15 16  1  0  0  0  0
 15 32  1  0  0  0  0
 15 33  1  0  0  0  0
 16 17  1  0  0  0  0
 16 34  1  0  0  0  0
 16 35  1  0  0  0  0
M  CHG  1   8  -1
M  END
> <s_m_source_file>
AV-unprocessed.smi

> <i_m_source_file_index>
1750

> <i_lp_mmshare_version>
43012

> <i_f3d_flags>
0

> <s_epik_input>
W0NIM11bQ0gyXVtDSDJdYzFubmMoczEpW05IXUMoPU8pW05IXVtDSDJdW0NAQEhdMltDSDJdW0NIMl1bQ0gyXU8y

> <s_epik_cmdline>
J2VwaWtfcHl0aG9uJywgJy1waCcsICc3LjAnLCAnLXRuJywgJzgnLCAnLW1hJywgJzIwMCcsICctbWV0YWxfYmluZGluZycsICctaW1hZScsICc8aW5maWxlLm1hZT4nLCAnLW9tYWUnLCAnPG91dGZpbGUubWFlPic=

> <r_lp_tautomer_probability>
1

> <r_epik_Ionization_Penalty>
4.22484

> <r_epik_Ionization_Penalty_Charging>
4.21437

> <r_epik_Ionization_Penalty_Neutral>
0.0104685

> <r_epik_State_Penalty>
4.21389

> <r_epik_Charging_Adjusted_Penalty>
8.42826

> <i_epik_Tot_Q>
-1

> <i_epik_Tot_abs_Q>
1

> <r_epik_Metal_State_Penalty>
0.69377

> <b_epik_Metal_Only>
1

> <s_lp_Force_Field>
OPLS_2005

> <r_lp_Energy>
10.9062

> <b_lp_Chiralities_Consistent>
1

> <s_lp_Variant>
AV-unprocessed.smi:1750-4

> <Gold.Version>
5.8.1

> <Gold.Id.Protein>
6NUR|6NUR_protein|mol2

> <Gold.PLP.Fitness>
43.3741

> <Gold.PLP.PLP>
-35.3266

> <Gold.PLP.part.hbond>
-2.7963

> <Gold.PLP.part.metal>
0.0000

> <Gold.PLP.part.buried>
-6.3287

> <Gold.PLP.part.nonpolar>
-26.6681

> <Gold.PLP.part.repulsive>
0.2874

> <Gold.PLP.ligand.clash>
0.0000

> <Gold.PLP.ligand.torsion>
0.5030

> <Gold.PLP.Chemscore.Hbond>
2.9920

> <Gold.PLP.Chemscore.CHOScore>
0.0000

> <Gold.PLP.Chemscore.Metal>
0.0000

> <Gold.Chemscore.Hbonds>
donor molecule, donor type, donor heavy atom, donor atom, acceptor molecule, acceptor atom, score
      P1  H  7997  8008       L1     8  2.00
      P1  H 10752 10763       L1     5  0.98

> <Gold.PLP.Chemscore.Internal.Correction>
0.0776

> <Gold.Rescore>
     Score         DG    S(hbond)    S(metal)    S(lipo)     H(rot)  DE(clash)    DE(int)     intcor
     15.01     -16.95       1.76        0.00      82.70       1.59       0.03       1.91       ----

> <Gold.Chemscore.Fitness>
15.0095

> <Gold.Chemscore.DG>
-16.9483

> <Gold.Chemscore.ZeroCoef>
-5.4800

> <Gold.Chemscore.Hbond>
1.7572

> <Gold.Chemscore.Metal>
0.0000

> <Gold.Chemscore.Lipo>
82.6952

> <Gold.Chemscore.Internal_Hbond>
0.0000

> <Gold.Chemscore.DEClash>
0.0310

> <Gold.Chemscore.DEInternal>
1.9079

> <Gold.Chemscore.Rot>
1.5922

> <Gold.Chemscore.Internal.Correction>
   9.000000E+99

> <Gold.Chemscore.Hbonds>
donor molecule, donor type, donor heavy atom, donor atom, acceptor molecule, acceptor atom, score
      P1  H  7997  8008       L1     8  0.95
      P1  H 10752 10763       L1     5  0.32

> <Gold.Chemscore.Hbond.Weighted>
-5.8690

> <Gold.Chemscore.Metal.Weighted>
-0.0000

> <Gold.Chemscore.Lipo.Weighted>
-9.6753

> <Gold.Chemscore.Internal_Hbond.Weighted>
0.0000

> <Gold.Chemscore.DEClash.Weighted>
0.0310

> <Gold.Chemscore.DEInternal.Weighted>
1.9079

> <Gold.Chemscore.Rot.Weighted>
4.0761

> <Gold.Chemscore.Internal.Correction.Weighted>
   9.000000E+99

> <Gold.Protein.RotatedTorsions>
[ 6907 6896 6895 6894 ] final  -22.11 input  -60.11 | X-H torsion
[ 7974 7965 7964 7962 ] final  -78.44 input  175.53 | X-H torsion
[ 8008 7997 7996 7995 ] final  -52.48 input   59.86 | X-H torsion
[ 10167 10162 10161 10158 ] final  104.52 input  -65.29 | X-H torsion
[ 10718 10713 10712 10709 ] final  115.14 input   66.30 | X-H torsion
[ 10763 10752 10751 10750 ] final   78.99 input  -60.55 | X-H torsion
[ 11005 11000 10999 10996 ] final  112.86 input  -57.11 | X-H torsion

> <Gold.Protein.ActiveResidues>
 VAL166  LYS551  ARG553  GLY616  TRP617  ASP618  TYR619  PRO620  LYS621  CYS622 
 ASP623  PHE694  ASN695  SER759  ASP760  ASP761  ALA762  ILE779  LEU786  VAL792 
 PHE793  MET794  SER795  GLU796  ALA797  LYS798  CYS799  TRP800  GLU811  SER814 

> <Gold.Protein.RotatedAtoms>
  151.2234  135.0527  159.8958 H   0  0  0  0  0  0  0  0  0  0  0  0  # atno 6907 bound_to 6896
  152.5413  134.0616  159.8164 H   0  0  0  0  0  0  0  0  0  0  0  0  # atno 6908 bound_to 6896
  151.0785  133.5361  159.2654 H   0  0  0  0  0  0  0  0  0  0  0  0  # atno 6909 bound_to 6896
  145.5864  140.9438  143.1316 H   0  0  0  0  0  0  0  0  0  0  0  0  # atno 7974 bound_to 7965
  154.4108  140.1223  156.4998 H   0  0  0  0  0  0  0  0  0  0  0  0  # atno 8008 bound_to 7997
  155.6907  140.3495  155.4873 H   0  0  0  0  0  0  0  0  0  0  0  0  # atno 8009 bound_to 7997
  155.9472  140.1098  157.0997 H   0  0  0  0  0  0  0  0  0  0  0  0  # atno 8010 bound_to 7997
  139.7170  144.7066  151.0934 H   0  0  0  0  0  0  0  0  0  0  0  0  # atno 10167 bound_to 10162
  157.6240  131.1008  150.7286 H   0  0  0  0  0  0  0  0  0  0  0  0  # atno 10718 bound_to 10713
  153.0917  135.4856  154.8702 H   0  0  0  0  0  0  0  0  0  0  0  0  # atno 10763 bound_to 10752
  154.7277  135.3053  154.8946 H   0  0  0  0  0  0  0  0  0  0  0  0  # atno 10764 bound_to 10752
  153.9591  135.6814  153.4798 H   0  0  0  0  0  0  0  0  0  0  0  0  # atno 10765 bound_to 10752
  139.8938  134.9538  156.6650 H   0  0  0  0  0  0  0  0  0  0  0  0  # atno 11005 bound_to 11000
  144.7371  139.7555  143.7325 LP  0  0  0  0  0  0  0  0  0  0  0  0  # atno 17320 bound_to 7965
  146.1679  139.4817  142.9946 LP  0  0  0  0  0  0  0  0  0  0  0  0  # atno 17321 bound_to 7965
  140.7746  143.5216  150.9529 LP  0  0  0  0  0  0  0  0  0  0  0  0  # atno 17342 bound_to 10162
  139.8902  143.6962  152.3146 LP  0  0  0  0  0  0  0  0  0  0  0  0  # atno 17343 bound_to 10162
  156.7638  130.4807  149.5431 LP  0  0  0  0  0  0  0  0  0  0  0  0  # atno 17370 bound_to 10713
  156.1401  130.6238  151.0455 LP  0  0  0  0  0  0  0  0  0  0  0  0  # atno 17371 bound_to 10713
  140.7417  133.8972  155.8283 LP  0  0  0  0  0  0  0  0  0  0  0  0  # atno 17394 bound_to 11000
  141.0072  134.1070  157.4258 LP  0  0  0  0  0  0  0  0  0  0  0  0  # atno 17395 bound_to 11000

$$$$
