AV-unprocessed.smi:3010|AV-procd|sdf|11456|dock3
  -GOLD-   2272016393D 1   1.00000     0.00000
 Structure written by MMmdl.
 38 40  0  0  0  0  0  0  0  0  1 V2000
  152.7487  143.3220  162.0599 C   0  0  0  0  0  0  0  0  0  0  0  0
  152.8173  142.3524  160.9503 N   0  0  0  0  0  0  0  0  0  0  0  0
  151.8842  142.4441  159.9509 C   0  0  0  0  0  0  0  0  0  0  0  0
  150.9748  143.2738  159.9124 O   0  0  0  0  0  0  0  0  0  0  0  0
  152.0523  141.4466  158.8887 C   0  0  0  0  0  0  0  0  0  0  0  0
  153.0307  140.5094  158.9073 C   0  0  0  0  0  0  0  0  0  0  0  0
  152.9649  139.6845  157.7901 N   0  0  0  0  0  0  0  0  0  0  0  0
  151.9160  140.1859  157.1368 C   0  0  0  0  0  0  0  0  0  0  0  0
  151.3129  141.2393  157.7243 N   0  0  0  0  0  0  0  0  0  0  0  0
  150.1538  141.9563  157.2130 C   0  0  0  0  0  0  0  0  0  0  0  0
  148.9170  141.0506  157.0461 C   0  0  1  0  0  0  0  0  0  0  0  0
  148.3067  140.8071  158.2993 O   0  0  0  0  0  0  0  0  0  0  0  0
  147.9427  141.6355  156.0354 C   0  0  0  0  0  0  0  0  0  0  0  0
  148.2660  141.6677  154.6604 C   0  0  0  0  0  0  0  0  0  0  0  0
  147.3547  142.2026  153.7293 C   0  0  0  0  0  0  0  0  0  0  0  0
  146.1142  142.7051  154.1663 C   0  0  0  0  0  0  0  0  0  0  0  0
  145.7847  142.6710  155.5349 C   0  0  0  0  0  0  0  0  0  0  0  0
  146.6960  142.1369  156.4668 C   0  0  0  0  0  0  0  0  0  0  0  0
  153.9370  140.4932  159.9962 N   0  0  0  0  0  0  0  0  0  0  0  0
  154.9754  139.4584  159.9869 C   0  0  0  0  0  0  0  0  0  0  0  0
  153.8333  141.4133  161.0115 C   0  0  0  0  0  0  0  0  0  0  0  0
  154.6282  141.4015  161.9555 O   0  0  0  0  0  0  0  0  0  0  0  0
  151.9501  144.0600  161.9777 H   0  0  0  0  0  0  0  0  0  0  0  0
  153.6810  143.8849  162.1311 H   0  0  0  0  0  0  0  0  0  0  0  0
  152.5967  142.8041  163.0082 H   0  0  0  0  0  0  0  0  0  0  0  0
  151.5727  139.7724  156.1998 H   0  0  0  0  0  0  0  0  0  0  0  0
  149.9350  142.8034  157.8615 H   0  0  0  0  0  0  0  0  0  0  0  0
  150.4238  142.3859  156.2475 H   0  0  0  0  0  0  0  0  0  0  0  0
  149.2479  140.0792  156.6755 H   0  0  0  0  0  0  0  0  0  0  0  0
  148.9089  141.0654  158.9802 H   0  0  0  0  0  0  0  0  0  0  0  0
  149.2132  141.2799  154.3146 H   0  0  0  0  0  0  0  0  0  0  0  0
  147.6072  142.2258  152.6792 H   0  0  0  0  0  0  0  0  0  0  0  0
  145.4149  143.1145  153.4521 H   0  0  0  0  0  0  0  0  0  0  0  0
  144.8320  143.0536  155.8704 H   0  0  0  0  0  0  0  0  0  0  0  0
  146.4322  142.1123  157.5141 H   0  0  0  0  0  0  0  0  0  0  0  0
  155.6680  139.5063  160.8275 H   0  0  0  0  0  0  0  0  0  0  0  0
  155.5695  139.5348  159.0758 H   0  0  0  0  0  0  0  0  0  0  0  0
  154.5138  138.4706  160.0027 H   0  0  0  0  0  0  0  0  0  0  0  0
  1  2  1  0  0  0  0
  1 23  1  0  0  0  0
  1 24  1  0  0  0  0
  1 25  1  0  0  0  0
  2 21  1  0  0  0  0
  2  3  1  0  0  0  0
  3  4  2  0  0  0  0
  3  5  1  0  0  0  0
  5  9  1  0  0  0  0
  5  6  2  0  0  0  0
  6  7  1  0  0  0  0
  6 19  1  0  0  0  0
  7  8  2  0  0  0  0
  8  9  1  0  0  0  0
  8 26  1  0  0  0  0
  9 10  1  0  0  0  0
 10 11  1  0  0  0  0
 10 27  1  0  0  0  0
 10 28  1  0  0  0  0
 11 12  1  0  0  0  0
 11 13  1  0  0  0  0
 11 29  1  0  0  0  0
 12 30  1  0  0  0  0
 13 18  1  0  0  0  0
 13 14  2  0  0  0  0
 14 15  1  0  0  0  0
 14 31  1  0  0  0  0
 15 16  2  0  0  0  0
 15 32  1  0  0  0  0
 16 17  1  0  0  0  0
 16 33  1  0  0  0  0
 17 18  2  0  0  0  0
 17 34  1  0  0  0  0
 18 35  1  0  0  0  0
 19 20  1  0  0  0  0
 19 21  1  0  0  0  0
 20 36  1  0  0  0  0
 20 37  1  0  0  0  0
 20 38  1  0  0  0  0
 21 22  2  0  0  0  0
M  END
> <s_m_source_file>
AV-unprocessed.smi

> <i_m_source_file_index>
3010

> <i_lp_mmshare_version>
43012

> <i_f3d_flags>
0

> <s_epik_input>
Tz1jMW4oW0NIM10pYyg9TyluKFtDSDNdKWMoYzEyKW5bY0hdbjJbQ0gyXVtDQEhdKFtPSF0pYzNbY0hdW2NIXVtjSF1bY0hdW2NIXTM=

> <s_epik_cmdline>
J2VwaWtfcHl0aG9uJywgJy1waCcsICc3LjAnLCAnLXRuJywgJzgnLCAnLW1hJywgJzIwMCcsICctbWV0YWxfYmluZGluZycsICctaW1hZScsICc8aW5maWxlLm1hZT4nLCAnLW9tYWUnLCAnPG91dGZpbGUubWFlPic=

> <r_lp_tautomer_probability>
1

> <r_epik_Ionization_Penalty>
1.43747e-06

> <r_epik_Ionization_Penalty_Charging>
3.74189e-09

> <r_epik_Ionization_Penalty_Neutral>
1.43373e-06

> <r_epik_State_Penalty>
-0

> <r_epik_Charging_Adjusted_Penalty>
3.74189e-09

> <i_epik_Tot_Q>
0

> <i_epik_Tot_abs_Q>
0

> <r_epik_Metal_State_Penalty>
-0

> <b_epik_Metal_Only>
0

> <s_lp_Force_Field>
OPLS_2005

> <r_lp_Energy>
36.4427

> <b_lp_Chiralities_Consistent>
1

> <s_lp_Variant>
AV-unprocessed.smi:3010-2

> <Gold.Version>
5.8.1

> <Gold.Id.Protein>
6NUR|6NUR_protein|mol2

> <Gold.PLP.Fitness>
46.7895

> <Gold.PLP.PLP>
-44.6403

> <Gold.PLP.part.hbond>
-3.7743

> <Gold.PLP.part.metal>
0.0000

> <Gold.PLP.part.buried>
-5.4127

> <Gold.PLP.part.nonpolar>
-35.6493

> <Gold.PLP.part.repulsive>
0.0395

> <Gold.PLP.ligand.clash>
0.0000

> <Gold.PLP.ligand.torsion>
0.4427

> <Gold.PLP.Chemscore.Hbond>
1.0000

> <Gold.PLP.Chemscore.CHOScore>
0.0000

> <Gold.PLP.Chemscore.Metal>
0.0000

> <Gold.Chemscore.Hbonds>
donor molecule, donor type, donor heavy atom, donor atom, acceptor molecule, acceptor atom, score
      P1  H  7997  8010       L1     7  1.00

> <Gold.PLP.Chemscore.Internal.Correction>
0.0346

> <Gold.Rescore>
     Score         DG    S(hbond)    S(metal)    S(lipo)     H(rot)  DE(clash)    DE(int)     intcor
      8.81      -9.77       0.77        0.00      61.64       2.15       0.30       0.66       ----

> <Gold.Chemscore.Fitness>
8.8086

> <Gold.Chemscore.DG>
-9.7691

> <Gold.Chemscore.ZeroCoef>
-5.4800

> <Gold.Chemscore.Hbond>
0.7708

> <Gold.Chemscore.Metal>
0.0000

> <Gold.Chemscore.Lipo>
61.6409

> <Gold.Chemscore.Internal_Hbond>
0.0000

> <Gold.Chemscore.DEClash>
0.2961

> <Gold.Chemscore.DEInternal>
0.6643

> <Gold.Chemscore.Rot>
2.1474

> <Gold.Chemscore.Internal.Correction>
   9.000000E+99

> <Gold.Chemscore.Hbonds>
donor molecule, donor type, donor heavy atom, donor atom, acceptor molecule, acceptor atom, score
      P1  H  7997  8010       L1     7  0.25

> <Gold.Chemscore.Hbond.Weighted>
-2.5744

> <Gold.Chemscore.Metal.Weighted>
-0.0000

> <Gold.Chemscore.Lipo.Weighted>
-7.2120

> <Gold.Chemscore.Internal_Hbond.Weighted>
0.0000

> <Gold.Chemscore.DEClash.Weighted>
0.2961

> <Gold.Chemscore.DEInternal.Weighted>
0.6643

> <Gold.Chemscore.Rot.Weighted>
5.4974

> <Gold.Chemscore.Internal.Correction.Weighted>
   9.000000E+99

> <Gold.Protein.RotatedTorsions>
[ 6907 6896 6895 6894 ] final -137.90 input  -60.11 | X-H torsion
[ 7974 7965 7964 7962 ] final -169.71 input  175.53 | X-H torsion
[ 8008 7997 7996 7995 ] final   58.85 input   59.86 | X-H torsion
[ 10167 10162 10161 10158 ] final  -43.86 input  -65.29 | X-H torsion
[ 10718 10713 10712 10709 ] final  113.35 input   66.30 | X-H torsion
[ 10763 10752 10751 10750 ] final -168.54 input  -60.55 | X-H torsion
[ 11005 11000 10999 10996 ] final -135.41 input  -57.11 | X-H torsion

> <Gold.Protein.ActiveResidues>
 VAL166  LYS551  ARG553  GLY616  TRP617  ASP618  TYR619  PRO620  LYS621  CYS622 
 ASP623  PHE694  ASN695  SER759  ASP760  ASP761  ALA762  ILE779  LEU786  VAL792 
 PHE793  MET794  SER795  GLU796  ALA797  LYS798  CYS799  TRP800  GLU811  SER814 

> <Gold.Protein.RotatedAtoms>
  151.0282  133.5814  159.2663 H   0  0  0  0  0  0  0  0  0  0  0  0  # atno 6907 bound_to 6896
  151.2906  135.0740  159.9212 H   0  0  0  0  0  0  0  0  0  0  0  0  # atno 6908 bound_to 6896
  152.5339  133.9981  159.7936 H   0  0  0  0  0  0  0  0  0  0  0  0  # atno 6909 bound_to 6896
  144.7181  140.2181  143.6319 H   0  0  0  0  0  0  0  0  0  0  0  0  # atno 7974 bound_to 7965
  155.5567  140.3487  155.4481 H   0  0  0  0  0  0  0  0  0  0  0  0  # atno 8008 bound_to 7997
  156.0544  140.1325  157.0039 H   0  0  0  0  0  0  0  0  0  0  0  0  # atno 8009 bound_to 7997
  154.4449  140.0998  156.6409 H   0  0  0  0  0  0  0  0  0  0  0  0  # atno 8010 bound_to 7997
  140.6918  143.2960  151.3412 H   0  0  0  0  0  0  0  0  0  0  0  0  # atno 10167 bound_to 10162
  157.6343  131.0982  150.7028 H   0  0  0  0  0  0  0  0  0  0  0  0  # atno 10718 bound_to 10713
  154.6618  135.2926  154.9856 H   0  0  0  0  0  0  0  0  0  0  0  0  # atno 10763 bound_to 10752
  154.0913  135.6590  153.4857 H   0  0  0  0  0  0  0  0  0  0  0  0  # atno 10764 bound_to 10752
  153.0434  135.5220  154.7573 H   0  0  0  0  0  0  0  0  0  0  0  0  # atno 10765 bound_to 10752
  140.8901  134.1823  157.4534 H   0  0  0  0  0  0  0  0  0  0  0  0  # atno 11005 bound_to 11000
  145.8527  139.2183  143.1762 LP  0  0  0  0  0  0  0  0  0  0  0  0  # atno 17320 bound_to 7965
  146.0245  140.8316  142.9906 LP  0  0  0  0  0  0  0  0  0  0  0  0  # atno 17321 bound_to 7965
  139.6330  144.0685  152.2492 LP  0  0  0  0  0  0  0  0  0  0  0  0  # atno 17342 bound_to 10162
  140.0166  144.6184  150.7602 LP  0  0  0  0  0  0  0  0  0  0  0  0  # atno 17343 bound_to 10162
  156.7362  130.4725  149.5488 LP  0  0  0  0  0  0  0  0  0  0  0  0  # atno 17370 bound_to 10713
  156.1569  130.6348  151.0669 LP  0  0  0  0  0  0  0  0  0  0  0  0  # atno 17371 bound_to 10713
  139.8728  134.9854  156.5282 LP  0  0  0  0  0  0  0  0  0  0  0  0  # atno 17394 bound_to 11000
  140.8358  133.8244  155.9027 LP  0  0  0  0  0  0  0  0  0  0  0  0  # atno 17395 bound_to 11000

$$$$
