AV-unprocessed.smi:2614|AV-procd|sdf|10214|dock2
  -GOLD-   2272014223D 1   1.00000     0.00000
 Structure written by MMmdl.
 24 25  0  0  0  0  0  0  0  0  2 V2000
  154.0877  139.8935  160.0027 C   0  0  0  0  0  0  0  0  0  0  0  0
  153.5156  141.2247  160.3526 C   0  0  0  0  0  0  0  0  0  0  0  0
  153.5315  141.7306  161.6202 N   0  0  0  0  0  0  0  0  0  0  0  0
  152.9229  142.8938  161.4170 C   0  0  0  0  0  0  0  0  0  0  0  0
  152.6450  143.9000  162.4853 C   0  0  0  0  0  0  0  0  0  0  0  0
  152.5736  143.0831  160.1370 N   0  0  0  0  0  0  0  0  0  0  0  0
  151.8956  144.1819  159.5077 C   0  0  0  0  0  0  0  0  0  0  0  0
  150.3860  144.1728  159.2550 C   0  0  0  0  0  0  0  0  0  0  0  0
  150.6482  144.9303  158.0383 N   0  3  0  0  0  0  0  0  0  0  0  0
  152.0052  144.3983  158.0001 C   0  0  0  0  0  0  0  0  0  0  0  0
  152.9494  141.9939  159.4258 N   0  0  0  0  0  0  0  0  0  0  0  0
  154.5786  139.4446  160.8668 H   0  0  0  0  0  0  0  0  0  0  0  0
  154.8226  139.9953  159.2038 H   0  0  0  0  0  0  0  0  0  0  0  0
  153.2985  139.2211  159.6657 H   0  0  0  0  0  0  0  0  0  0  0  0
  153.0138  143.5454  163.4482 H   0  0  0  0  0  0  0  0  0  0  0  0
  151.5719  144.0737  162.5682 H   0  0  0  0  0  0  0  0  0  0  0  0
  153.1385  144.8433  162.2514 H   0  0  0  0  0  0  0  0  0  0  0  0
  152.1872  145.0815  160.0548 H   0  0  0  0  0  0  0  0  0  0  0  0
  149.9728  143.1865  159.0342 H   0  0  0  0  0  0  0  0  0  0  0  0
  149.7925  144.7110  159.9945 H   0  0  0  0  0  0  0  0  0  0  0  0
  150.0761  144.6562  157.2521 H   0  0  0  0  0  0  0  0  0  0  0  0
  152.7592  145.1233  157.6922 H   0  0  0  0  0  0  0  0  0  0  0  0
  152.0686  143.4697  157.4293 H   0  0  0  0  0  0  0  0  0  0  0  0
  150.6444  145.9248  158.2148 H   0  0  0  0  0  0  0  0  0  0  0  0
  1  2  1  0  0  0  0
  1 12  1  0  0  0  0
  1 13  1  0  0  0  0
  1 14  1  0  0  0  0
  2 11  2  0  0  0  0
  2  3  1  0  0  0  0
  3  4  2  0  0  0  0
  4  5  1  0  0  0  0
  4  6  1  0  0  0  0
  5 15  1  0  0  0  0
  5 16  1  0  0  0  0
  5 17  1  0  0  0  0
  6  7  1  0  0  0  0
  6 11  1  0  0  0  0
  7 10  1  0  0  0  0
  7  8  1  0  0  0  0
  7 18  1  0  0  0  0
  8  9  1  0  0  0  0
  8 19  1  0  0  0  0
  8 20  1  0  0  0  0
  9 10  1  0  0  0  0
  9 21  1  0  0  0  0
  9 24  1  0  0  0  0
 10 22  1  0  0  0  0
 10 23  1  0  0  0  0
M  CHG  1   9   1
M  END
> <s_m_source_file>
AV-unprocessed.smi

> <i_m_source_file_index>
2614

> <i_lp_mmshare_version>
43012

> <i_f3d_flags>
0

> <s_epik_input>
W0NIM11jMW5jKFtDSDNdKW4objEpW0NIXTJbQ0gyXVtOSF1bQ0gyXTI=

> <s_epik_cmdline>
J2VwaWtfcHl0aG9uJywgJy1waCcsICc3LjAnLCAnLXRuJywgJzgnLCAnLW1hJywgJzIwMCcsICctbWV0YWxfYmluZGluZycsICctaW1hZScsICc8aW5maWxlLm1hZT4nLCAnLW9tYWUnLCAnPG91dGZpbGUubWFlPic=

> <r_lp_tautomer_probability>
1

> <r_epik_Ionization_Penalty>
0.00796611

> <r_epik_Ionization_Penalty_Charging>
0.00792139

> <r_epik_Ionization_Penalty_Neutral>
4.47227e-05

> <r_epik_State_Penalty>
0.00594323

> <r_epik_Charging_Adjusted_Penalty>
0.0138646

> <i_epik_Tot_Q>
1

> <i_epik_Tot_abs_Q>
1

> <r_epik_Metal_State_Penalty>
-0

> <b_epik_Metal_Only>
0

> <s_lp_Force_Field>
OPLS_2005

> <r_lp_Energy>
14.7939

> <b_lp_Chiralities_Consistent>
1

> <s_lp_Variant>
AV-unprocessed.smi:2614-1

> <Gold.Version>
5.8.1

> <Gold.Id.Protein>
6NUR|6NUR_protein|mol2

> <Gold.PLP.Fitness>
35.8515

> <Gold.PLP.PLP>
-30.8614

> <Gold.PLP.part.hbond>
-1.9492

> <Gold.PLP.part.metal>
0.0000

> <Gold.PLP.part.buried>
-3.5554

> <Gold.PLP.part.nonpolar>
-25.6029

> <Gold.PLP.part.repulsive>
0.1698

> <Gold.PLP.ligand.clash>
0.0000

> <Gold.PLP.ligand.torsion>
0.6265

> <Gold.PLP.Chemscore.Hbond>
2.0000

> <Gold.PLP.Chemscore.CHOScore>
0.0000

> <Gold.PLP.Chemscore.Metal>
0.0000

> <Gold.Chemscore.Hbonds>
donor molecule, donor type, donor heavy atom, donor atom, acceptor molecule, acceptor atom, score
      L1  H     9    21       P1  8028  2.00

> <Gold.PLP.Chemscore.Internal.Correction>
0.2431

> <Gold.Rescore>
     Score         DG    S(hbond)    S(metal)    S(lipo)     H(rot)  DE(clash)    DE(int)     intcor
     11.32     -11.93       0.77        0.00      55.00       1.00       0.01       0.59       ----

> <Gold.Chemscore.Fitness>
11.3210

> <Gold.Chemscore.DG>
-11.9283

> <Gold.Chemscore.ZeroCoef>
-5.4800

> <Gold.Chemscore.Hbond>
0.7706

> <Gold.Chemscore.Metal>
0.0000

> <Gold.Chemscore.Lipo>
54.9963

> <Gold.Chemscore.Internal_Hbond>
0.0000

> <Gold.Chemscore.DEClash>
0.0125

> <Gold.Chemscore.DEInternal>
0.5949

> <Gold.Chemscore.Rot>
1.0000

> <Gold.Chemscore.Internal.Correction>
   9.000000E+99

> <Gold.Chemscore.Hbonds>
donor molecule, donor type, donor heavy atom, donor atom, acceptor molecule, acceptor atom, score
      L1  H     9    21       P1  8028  0.30

> <Gold.Chemscore.Hbond.Weighted>
-2.5738

> <Gold.Chemscore.Metal.Weighted>
-0.0000

> <Gold.Chemscore.Lipo.Weighted>
-6.4346

> <Gold.Chemscore.Internal_Hbond.Weighted>
0.0000

> <Gold.Chemscore.DEClash.Weighted>
0.0125

> <Gold.Chemscore.DEInternal.Weighted>
0.5949

> <Gold.Chemscore.Rot.Weighted>
2.5600

> <Gold.Chemscore.Internal.Correction.Weighted>
   9.000000E+99

> <Gold.Protein.RotatedTorsions>
[ 6907 6896 6895 6894 ] final  112.90 input  -60.11 | X-H torsion
[ 7974 7965 7964 7962 ] final  -87.33 input  175.53 | X-H torsion
[ 8008 7997 7996 7995 ] final -123.55 input   59.86 | X-H torsion
[ 10167 10162 10161 10158 ] final  130.05 input  -65.29 | X-H torsion
[ 10718 10713 10712 10709 ] final   11.21 input   66.30 | X-H torsion
[ 10763 10752 10751 10750 ] final  166.22 input  -60.55 | X-H torsion
[ 11005 11000 10999 10996 ] final  142.99 input  -57.11 | X-H torsion

> <Gold.Protein.ActiveResidues>
 VAL166  LYS551  ARG553  GLY616  TRP617  ASP618  TYR619  PRO620  LYS621  CYS622 
 ASP623  PHE694  ASN695  SER759  ASP760  ASP761  ALA762  ILE779  LEU786  VAL792 
 PHE793  MET794  SER795  GLU796  ALA797  LYS798  CYS799  TRP800  GLU811  SER814 

> <Gold.Protein.RotatedAtoms>
  152.4891  133.8451  159.7172 H   0  0  0  0  0  0  0  0  0  0  0  0  # atno 6907 bound_to 6896
  150.9003  133.7118  159.2887 H   0  0  0  0  0  0  0  0  0  0  0  0  # atno 6908 bound_to 6896
  151.4561  135.1038  159.9764 H   0  0  0  0  0  0  0  0  0  0  0  0  # atno 6909 bound_to 6896
  145.4679  140.9560  143.1933 H   0  0  0  0  0  0  0  0  0  0  0  0  # atno 7974 bound_to 7965
  155.1824  140.0411  157.2885 H   0  0  0  0  0  0  0  0  0  0  0  0  # atno 8008 bound_to 7997
  154.6194  140.2497  155.7540 H   0  0  0  0  0  0  0  0  0  0  0  0  # atno 8009 bound_to 7997
  156.2425  140.2898  156.0495 H   0  0  0  0  0  0  0  0  0  0  0  0  # atno 8010 bound_to 7997
  139.5448  144.6764  151.4507 H   0  0  0  0  0  0  0  0  0  0  0  0  # atno 10167 bound_to 10162
  156.9922  130.6047  149.5687 H   0  0  0  0  0  0  0  0  0  0  0  0  # atno 10718 bound_to 10713
  154.3357  135.2754  155.2449 H   0  0  0  0  0  0  0  0  0  0  0  0  # atno 10763 bound_to 10752
  154.4741  135.5875  153.6346 H   0  0  0  0  0  0  0  0  0  0  0  0  # atno 10764 bound_to 10752
  152.9862  135.6095  154.3553 H   0  0  0  0  0  0  0  0  0  0  0  0  # atno 10765 bound_to 10752
  140.0519  134.9251  157.1032 H   0  0  0  0  0  0  0  0  0  0  0  0  # atno 11005 bound_to 11000
  144.7963  139.6228  143.7091 LP  0  0  0  0  0  0  0  0  0  0  0  0  # atno 17320 bound_to 7965
  146.2413  139.6008  142.9489 LP  0  0  0  0  0  0  0  0  0  0  0  0  # atno 17321 bound_to 7965
  140.6692  143.8330  150.6979 LP  0  0  0  0  0  0  0  0  0  0  0  0  # atno 17342 bound_to 10162
  140.1749  143.4163  152.1974 LP  0  0  0  0  0  0  0  0  0  0  0  0  # atno 17343 bound_to 10162
  156.0203  130.5297  150.8255 LP  0  0  0  0  0  0  0  0  0  0  0  0  # atno 17370 bound_to 10713
  157.5451  131.0942  150.9774 LP  0  0  0  0  0  0  0  0  0  0  0  0  # atno 17371 bound_to 10713
  140.3904  134.2190  155.7166 LP  0  0  0  0  0  0  0  0  0  0  0  0  # atno 17394 bound_to 11000
  141.1934  133.8151  157.0800 LP  0  0  0  0  0  0  0  0  0  0  0  0  # atno 17395 bound_to 11000

$$$$
