AV-unprocessed.smi:505|AV-procd|sdf|2748|dock7
  -GOLD-   2262023213D 1   1.00000     0.00000
 Structure written by MMmdl.
 37 38  0  0  0  0  0  0  0  0  1 V2000
  150.5540  138.7479  154.0302 C   0  0  0  0  0  0  0  0  0  0  0  0
  151.3586  139.8153  154.4978 O   0  0  0  0  0  0  0  0  0  0  0  0
  152.3974  139.3786  155.3592 C   0  0  0  0  0  0  0  0  0  0  0  0
  151.8040  138.9572  156.7106 C   0  0  0  0  0  0  0  0  0  0  0  0
  152.0721  139.9373  157.7586 N   0  0  0  0  0  0  0  0  0  0  0  0
  152.8346  139.7839  158.8696 C   0  0  0  0  0  0  0  0  0  0  0  0
  153.4602  138.5726  159.1313 N   0  0  0  0  0  0  0  0  0  0  0  0
  154.3147  138.1391  160.2197 C   0  0  0  0  0  0  0  0  0  0  0  0
  153.6298  137.0791  161.0916 C   0  0  0  0  0  0  0  0  0  0  0  0
  153.8607  135.7922  160.5588 O   0  0  0  0  0  0  0  0  0  0  0  0
  152.9089  140.8601  159.6568 N   0  0  0  0  0  0  0  0  0  0  0  0
  152.1097  141.7802  158.9918 C   0  0  0  0  0  0  0  0  0  0  0  0
  151.5931  141.2424  157.8568 C   0  0  0  0  0  0  0  0  0  0  0  0
  150.6940  141.9864  156.9669 C   0  0  0  0  0  0  0  0  0  0  0  0
  150.2111  141.5112  155.9412 O   0  0  0  0  0  0  0  0  0  0  0  0
  150.4473  143.2478  157.3966 N   0  0  0  0  0  0  0  0  0  0  0  0
  150.9346  143.8524  158.5235 C   0  0  0  0  0  0  0  0  0  0  0  0
  150.6153  145.0118  158.7859 O   0  0  0  0  0  0  0  0  0  0  0  0
  151.7740  143.1232  159.3271 N   0  0  0  0  0  0  0  0  0  0  0  0
  152.3273  143.7223  160.5431 C   0  0  0  0  0  0  0  0  0  0  0  0
  149.8315  143.8041  156.8217 H   0  0  0  0  0  0  0  0  0  0  0  0
  149.7764  139.1369  153.3727 H   0  0  0  0  0  0  0  0  0  0  0  0
  150.0676  138.2295  154.8574 H   0  0  0  0  0  0  0  0  0  0  0  0
  151.1451  138.0274  153.4634 H   0  0  0  0  0  0  0  0  0  0  0  0
  152.9244  138.5357  154.9098 H   0  0  0  0  0  0  0  0  0  0  0  0
  153.1251  140.1788  155.5029 H   0  0  0  0  0  0  0  0  0  0  0  0
  150.7274  138.8130  156.6172 H   0  0  0  0  0  0  0  0  0  0  0  0
  152.2031  137.9909  157.0172 H   0  0  0  0  0  0  0  0  0  0  0  0
  153.2394  137.8368  158.4759 H   0  0  0  0  0  0  0  0  0  0  0  0
  155.2155  137.7146  159.7759 H   0  0  0  0  0  0  0  0  0  0  0  0
  154.6300  138.9963  160.8158 H   0  0  0  0  0  0  0  0  0  0  0  0
  153.9642  137.1301  162.1285 H   0  0  0  0  0  0  0  0  0  0  0  0
  152.5525  137.2468  161.0927 H   0  0  0  0  0  0  0  0  0  0  0  0
  154.6580  135.4498  160.9332 H   0  0  0  0  0  0  0  0  0  0  0  0
  152.8519  144.6504  160.3109 H   0  0  0  0  0  0  0  0  0  0  0  0
  153.0389  143.0675  161.0461 H   0  0  0  0  0  0  0  0  0  0  0  0
  151.5304  143.9482  161.2529 H   0  0  0  0  0  0  0  0  0  0  0  0
  1  2  1  0  0  0  0
  1 22  1  0  0  0  0
  1 23  1  0  0  0  0
  1 24  1  0  0  0  0
  2  3  1  0  0  0  0
  3  4  1  0  0  0  0
  3 25  1  0  0  0  0
  3 26  1  0  0  0  0
  4  5  1  0  0  0  0
  4 27  1  0  0  0  0
  4 28  1  0  0  0  0
  5 13  1  0  0  0  0
  5  6  1  0  0  0  0
  6  7  1  0  0  0  0
  6 11  2  0  0  0  0
  7  8  1  0  0  0  0
  7 29  1  0  0  0  0
  8  9  1  0  0  0  0
  8 30  1  0  0  0  0
  8 31  1  0  0  0  0
  9 10  1  0  0  0  0
  9 32  1  0  0  0  0
  9 33  1  0  0  0  0
 10 34  1  0  0  0  0
 11 12  1  0  0  0  0
 12 19  1  0  0  0  0
 12 13  2  0  0  0  0
 13 14  1  0  0  0  0
 14 15  2  0  0  0  0
 14 16  1  0  0  0  0
 16 21  1  0  0  0  0
 16 17  1  0  0  0  0
 17 18  2  0  0  0  0
 17 19  1  0  0  0  0
 19 20  1  0  0  0  0
 20 35  1  0  0  0  0
 20 36  1  0  0  0  0
 20 37  1  0  0  0  0
M  END
> <s_m_source_file>
AV-unprocessed.smi

> <i_m_source_file_index>
505

> <i_lp_mmshare_version>
43012

> <i_f3d_flags>
0

> <s_epik_input>
W09IXVtDSDJdW0NIMl1bTkhdYyhuMSluKFtDSDJdW0NIMl1PW0NIM10pYyhjMTIpYyg9TylbbkhdYyg9TyluMltDSDNd

> <s_epik_cmdline>
J2VwaWtfcHl0aG9uJywgJy1waCcsICc3LjAnLCAnLXRuJywgJzgnLCAnLW1hJywgJzIwMCcsICctbWV0YWxfYmluZGluZycsICctaW1hZScsICc8aW5maWxlLm1hZT4nLCAnLW9tYWUnLCAnPG91dGZpbGUubWFlPic=

> <r_lp_tautomer_probability>
1

> <r_epik_Ionization_Penalty>
7.89905e-05

> <r_epik_Ionization_Penalty_Charging>
2.6983e-05

> <r_epik_Ionization_Penalty_Neutral>
5.20075e-05

> <r_epik_State_Penalty>
-0

> <r_epik_Charging_Adjusted_Penalty>
2.6983e-05

> <i_epik_Tot_Q>
0

> <i_epik_Tot_abs_Q>
0

> <r_epik_Metal_State_Penalty>
0.02526

> <b_epik_Metal_Only>
0

> <s_lp_Force_Field>
OPLS_2005

> <r_lp_Energy>
22.7063

> <b_lp_Chiralities_Consistent>
1

> <s_lp_Variant>
AV-unprocessed.smi:505-1

> <Gold.Version>
5.8.1

> <Gold.Id.Protein>
6NUR|6NUR_protein|mol2

> <Gold.PLP.Fitness>
42.9180

> <Gold.PLP.PLP>
-35.0781

> <Gold.PLP.part.hbond>
-3.0000

> <Gold.PLP.part.metal>
0.0000

> <Gold.PLP.part.buried>
-6.4637

> <Gold.PLP.part.nonpolar>
-26.3761

> <Gold.PLP.part.repulsive>
0.4260

> <Gold.PLP.ligand.clash>
0.0000

> <Gold.PLP.ligand.torsion>
0.5870

> <Gold.PLP.Chemscore.Hbond>
3.0000

> <Gold.PLP.Chemscore.CHOScore>
0.0000

> <Gold.PLP.Chemscore.Metal>
0.0000

> <Gold.Chemscore.Hbonds>
donor molecule, donor type, donor heavy atom, donor atom, acceptor molecule, acceptor atom, score
      L1  H    16    21       P1  8028  1.00
      P1  H  6896  6909       L1    10  1.00
      P1  H  7989  7998       L1     2  0.86

> <Gold.PLP.Chemscore.Internal.Correction>
0.0140

> <Gold.Rescore>
     Score         DG    S(hbond)    S(metal)    S(lipo)     H(rot)  DE(clash)    DE(int)     intcor
     11.51     -13.63       2.96        0.00      52.28       3.06       0.00       2.12       ----

> <Gold.Chemscore.Fitness>
11.5128

> <Gold.Chemscore.DG>
-13.6320

> <Gold.Chemscore.ZeroCoef>
-5.4800

> <Gold.Chemscore.Hbond>
2.9562

> <Gold.Chemscore.Metal>
0.0000

> <Gold.Chemscore.Lipo>
52.2838

> <Gold.Chemscore.Internal_Hbond>
0.0000

> <Gold.Chemscore.DEClash>
0.0000

> <Gold.Chemscore.DEInternal>
2.1191

> <Gold.Chemscore.Rot>
3.0621

> <Gold.Chemscore.Internal.Correction>
   9.000000E+99

> <Gold.Chemscore.Hbonds>
donor molecule, donor type, donor heavy atom, donor atom, acceptor molecule, acceptor atom, score
      L1  H    16    21       P1  8028  0.98
      P1  H  6896  6909       L1    10  0.93
      P1  H  7989  7998       L1     2  0.74

> <Gold.Chemscore.Hbond.Weighted>
-9.8738

> <Gold.Chemscore.Metal.Weighted>
-0.0000

> <Gold.Chemscore.Lipo.Weighted>
-6.1172

> <Gold.Chemscore.Internal_Hbond.Weighted>
0.0000

> <Gold.Chemscore.DEClash.Weighted>
0.0000

> <Gold.Chemscore.DEInternal.Weighted>
2.1191

> <Gold.Chemscore.Rot.Weighted>
7.8390

> <Gold.Chemscore.Internal.Correction.Weighted>
   9.000000E+99

> <Gold.Protein.RotatedTorsions>
[ 6907 6896 6895 6894 ] final  168.08 input  -60.11 | X-H torsion
[ 7974 7965 7964 7962 ] final  -53.71 input  175.53 | X-H torsion
[ 8008 7997 7996 7995 ] final -148.15 input   59.86 | X-H torsion
[ 10167 10162 10161 10158 ] final -129.18 input  -65.29 | X-H torsion
[ 10718 10713 10712 10709 ] final  173.37 input   66.30 | X-H torsion
[ 10763 10752 10751 10750 ] final  106.08 input  -60.55 | X-H torsion
[ 11005 11000 10999 10996 ] final  175.35 input  -57.11 | X-H torsion

> <Gold.Protein.ActiveResidues>
 VAL166  LYS551  ARG553  GLY616  TRP617  ASP618  TYR619  PRO620  LYS621  CYS622 
 ASP623  PHE694  ASN695  SER759  ASP760  ASP761  ALA762  ILE779  LEU786  VAL792 
 PHE793  MET794  SER795  GLU796  ALA797  LYS798  CYS799  TRP800  GLU811  SER814 

> <Gold.Protein.RotatedAtoms>
  151.8533  133.3444  159.3679 H   0  0  0  0  0  0  0  0  0  0  0  0  # atno 6907 bound_to 6896
  150.7200  134.5278  159.5694 H   0  0  0  0  0  0  0  0  0  0  0  0  # atno 6908 bound_to 6896
  152.2776  134.7865  160.0454 H   0  0  0  0  0  0  0  0  0  0  0  0  # atno 6909 bound_to 6896
  145.8938  140.8049  142.9778 H   0  0  0  0  0  0  0  0  0  0  0  0  # atno 7974 bound_to 7965
  155.5870  140.0649  157.2768 H   0  0  0  0  0  0  0  0  0  0  0  0  # atno 8008 bound_to 7997
  154.4316  140.1842  156.1081 H   0  0  0  0  0  0  0  0  0  0  0  0  # atno 8009 bound_to 7997
  156.0262  140.3311  155.7094 H   0  0  0  0  0  0  0  0  0  0  0  0  # atno 8010 bound_to 7997
  139.9425  143.6147  152.2499 H   0  0  0  0  0  0  0  0  0  0  0  0  # atno 10167 bound_to 10162
  156.9653  131.0073  151.2918 H   0  0  0  0  0  0  0  0  0  0  0  0  # atno 10718 bound_to 10713
  153.3881  135.3889  155.1904 H   0  0  0  0  0  0  0  0  0  0  0  0  # atno 10763 bound_to 10752
  154.8716  135.3741  154.4772 H   0  0  0  0  0  0  0  0  0  0  0  0  # atno 10764 bound_to 10752
  153.5256  135.7086  153.5770 H   0  0  0  0  0  0  0  0  0  0  0  0  # atno 10765 bound_to 10752
  140.3612  134.7111  157.4332 H   0  0  0  0  0  0  0  0  0  0  0  0  # atno 11005 bound_to 11000
  144.6732  140.1571  143.7425 LP  0  0  0  0  0  0  0  0  0  0  0  0  # atno 17320 bound_to 7965
  145.8876  139.2357  143.1569 LP  0  0  0  0  0  0  0  0  0  0  0  0  # atno 17321 bound_to 7965
  139.6693  144.7661  151.1813 LP  0  0  0  0  0  0  0  0  0  0  0  0  # atno 17342 bound_to 10162
  140.7607  143.5889  150.8817 LP  0  0  0  0  0  0  0  0  0  0  0  0  # atno 17343 bound_to 10162
  157.5630  130.8258  149.8290 LP  0  0  0  0  0  0  0  0  0  0  0  0  # atno 17370 bound_to 10713
  156.0305  130.3766  150.1701 LP  0  0  0  0  0  0  0  0  0  0  0  0  # atno 17371 bound_to 10713
  140.0625  134.5976  155.8733 LP  0  0  0  0  0  0  0  0  0  0  0  0  # atno 17394 bound_to 11000
  141.1983  133.6601  156.5787 LP  0  0  0  0  0  0  0  0  0  0  0  0  # atno 17395 bound_to 11000

$$$$
