AV-unprocessed.smi:1667|AV-procd|sdf|6676|dock10
  -GOLD-   22720 7393D 1   1.00000     0.00000
 Structure written by MMmdl.
 45 47  0  0  0  0  0  0  0  0  1 V2000
  147.5081  134.9116  161.2645 C   0  0  0  0  0  0  0  0  0  0  0  0
  147.7120  136.3737  160.8838 C   0  0  0  0  0  0  0  0  0  0  0  0
  147.4011  137.2622  161.6753 O   0  0  0  0  0  0  0  0  0  0  0  0
  148.2357  136.5949  159.6663 N   0  0  0  0  0  0  0  0  0  0  0  0
  148.5294  137.8814  159.0296 C   0  0  2  0  0  0  0  0  0  0  0  0
  147.8406  138.0640  157.6632 C   0  0  0  0  0  0  0  0  0  0  0  0
  150.0220  138.1131  159.0082 C   0  0  0  0  0  0  0  0  0  0  0  0
  150.8883  137.1595  159.3583 N   0  0  0  0  0  0  0  0  0  0  0  0
  152.1072  137.7977  159.2712 C   0  0  0  0  0  0  0  0  0  0  0  0
  153.4128  137.3167  159.5181 C   0  0  0  0  0  0  0  0  0  0  0  0
  154.5263  138.1693  159.3736 C   0  0  0  0  0  0  0  0  0  0  0  0
  154.3497  139.5122  158.9828 C   0  0  0  0  0  0  0  0  0  0  0  0
  153.0565  140.0104  158.7330 C   0  0  0  0  0  0  0  0  0  0  0  0
  151.9472  139.1540  158.8737 C   0  0  0  0  0  0  0  0  0  0  0  0
  150.5737  139.3215  158.7102 N   0  0  0  0  0  0  0  0  0  0  0  0
  149.9049  140.5637  158.3278 C   0  0  0  0  0  0  0  0  0  0  0  0
  150.7653  141.5052  157.4517 C   0  0  1  0  0  0  0  0  0  0  0  0
  150.0429  141.9120  156.3065 O   0  0  0  0  0  0  0  0  0  0  0  0
  151.3460  142.6795  158.2289 C   0  0  0  0  0  0  0  0  0  0  0  0
  151.5597  143.9304  157.6065 C   0  0  0  0  0  0  0  0  0  0  0  0
  152.0822  145.0107  158.3435 C   0  0  0  0  0  0  0  0  0  0  0  0
  152.3906  144.8497  159.7077 C   0  0  0  0  0  0  0  0  0  0  0  0
  152.1791  143.6065  160.3338 C   0  0  0  0  0  0  0  0  0  0  0  0
  152.4716  143.4514  161.6466 F   0  0  0  0  0  0  0  0  0  0  0  0
  151.6608  142.5244  159.5961 C   0  0  0  0  0  0  0  0  0  0  0  0
  148.0758  138.6281  159.6758 H   0  0  0  0  0  0  0  0  0  0  0  0
  148.4676  134.3967  161.3212 H   0  0  0  0  0  0  0  0  0  0  0  0
  146.8871  134.4071  160.5237 H   0  0  0  0  0  0  0  0  0  0  0  0
  147.0171  134.8279  162.2346 H   0  0  0  0  0  0  0  0  0  0  0  0
  148.4479  135.7784  159.1121 H   0  0  0  0  0  0  0  0  0  0  0  0
  148.0020  139.0716  157.2804 H   0  0  0  0  0  0  0  0  0  0  0  0
  146.7640  137.9131  157.7455 H   0  0  0  0  0  0  0  0  0  0  0  0
  148.2161  137.3680  156.9134 H   0  0  0  0  0  0  0  0  0  0  0  0
  153.5570  136.2905  159.8228 H   0  0  0  0  0  0  0  0  0  0  0  0
  155.5198  137.7917  159.5657 H   0  0  0  0  0  0  0  0  0  0  0  0
  155.2074  140.1599  158.8753 H   0  0  0  0  0  0  0  0  0  0  0  0
  152.9200  141.0388  158.4339 H   0  0  0  0  0  0  0  0  0  0  0  0
  148.9627  140.3337  157.8314 H   0  0  0  0  0  0  0  0  0  0  0  0
  149.6228  141.0835  159.2443 H   0  0  0  0  0  0  0  0  0  0  0  0
  151.6065  140.9230  157.0733 H   0  0  0  0  0  0  0  0  0  0  0  0
  149.4827  141.2000  156.0373 H   0  0  0  0  0  0  0  0  0  0  0  0
  151.3140  144.0713  156.5641 H   0  0  0  0  0  0  0  0  0  0  0  0
  152.2403  145.9652  157.8635 H   0  0  0  0  0  0  0  0  0  0  0  0
  152.7874  145.6796  160.2736 H   0  0  0  0  0  0  0  0  0  0  0  0
  151.4973  141.5759  160.0862 H   0  0  0  0  0  0  0  0  0  0  0  0
  1  2  1  0  0  0  0
  1 27  1  0  0  0  0
  1 28  1  0  0  0  0
  1 29  1  0  0  0  0
  2  3  2  0  0  0  0
  2  4  1  0  0  0  0
  4  5  1  0  0  0  0
  4 30  1  0  0  0  0
  5 26  1  0  0  0  0
  5  6  1  0  0  0  0
  5  7  1  0  0  0  0
  6 31  1  0  0  0  0
  6 32  1  0  0  0  0
  6 33  1  0  0  0  0
  7 15  1  0  0  0  0
  7  8  2  0  0  0  0
  8  9  1  0  0  0  0
  9 14  2  0  0  0  0
  9 10  1  0  0  0  0
 10 11  2  0  0  0  0
 10 34  1  0  0  0  0
 11 12  1  0  0  0  0
 11 35  1  0  0  0  0
 12 13  2  0  0  0  0
 12 36  1  0  0  0  0
 13 14  1  0  0  0  0
 13 37  1  0  0  0  0
 14 15  1  0  0  0  0
 15 16  1  0  0  0  0
 16 17  1  0  0  0  0
 16 38  1  0  0  0  0
 16 39  1  0  0  0  0
 17 18  1  0  0  0  0
 17 19  1  0  0  0  0
 17 40  1  0  0  0  0
 18 41  1  0  0  0  0
 19 25  1  0  0  0  0
 19 20  2  0  0  0  0
 20 21  1  0  0  0  0
 20 42  1  0  0  0  0
 21 22  2  0  0  0  0
 21 43  1  0  0  0  0
 22 23  1  0  0  0  0
 22 44  1  0  0  0  0
 23 24  1  0  0  0  0
 23 25  2  0  0  0  0
 25 45  1  0  0  0  0
M  END
> <s_m_source_file>
AV-unprocessed.smi

> <i_m_source_file_index>
1667

> <i_lp_mmshare_version>
43012

> <i_f3d_flags>
0

> <s_epik_input>
W0NIM11DKD1PKVtOSF1bQ0BASF0oW0NIM10pYyhuMSluKGMoYzEyKVtjSF1bY0hdW2NIXVtjSF0yKVtDSDJdW0NASF0oW09IXSljM1tjSF1bY0hdW2NIXWMoRilbY0hdMw==

> <s_epik_cmdline>
J2VwaWtfcHl0aG9uJywgJy1waCcsICc3LjAnLCAnLXRuJywgJzgnLCAnLW1hJywgJzIwMCcsICctbWV0YWxfYmluZGluZycsICctaW1hZScsICc8aW5maWxlLm1hZT4nLCAnLW9tYWUnLCAnPG91dGZpbGUubWFlPic=

> <r_epik_Ionization_Penalty>
0.133011

> <r_epik_Ionization_Penalty_Charging>
0

> <r_epik_Ionization_Penalty_Neutral>
0.133011

> <r_epik_State_Penalty>
0.122384

> <r_epik_Charging_Adjusted_Penalty>
0.122384

> <i_epik_Tot_Q>
0

> <i_epik_Tot_abs_Q>
0

> <r_epik_Metal_State_Penalty>
0.0997374

> <b_epik_Metal_Only>
0

> <s_lp_Force_Field>
OPLS_2005

> <r_lp_Energy>
8.29393

> <b_lp_Chiralities_Consistent>
1

> <s_lp_Variant>
AV-unprocessed.smi:1667-4

> <Gold.Version>
5.8.1

> <Gold.Id.Protein>
6NUR|6NUR_protein|mol2

> <Gold.PLP.Fitness>
51.3894

> <Gold.PLP.PLP>
-46.4453

> <Gold.PLP.part.hbond>
-3.0000

> <Gold.PLP.part.metal>
0.0000

> <Gold.PLP.part.buried>
-6.0374

> <Gold.PLP.part.nonpolar>
-36.8618

> <Gold.PLP.part.repulsive>
0.1789

> <Gold.PLP.ligand.clash>
0.0000

> <Gold.PLP.ligand.torsion>
1.9166

> <Gold.PLP.Chemscore.Hbond>
2.8560

> <Gold.PLP.Chemscore.CHOScore>
0.0000

> <Gold.PLP.Chemscore.Metal>
0.0000

> <Gold.Chemscore.Hbonds>
donor molecule, donor type, donor heavy atom, donor atom, acceptor molecule, acceptor atom, score
      P1  H  6896  6908       L1     8  0.75
      P1  H  6931  6943       L1     3  0.88
      P1  H  6934  6947       L1     3  0.82

> <Gold.PLP.Chemscore.Internal.Correction>
0.2093

> <Gold.Rescore>
     Score         DG    S(hbond)    S(metal)    S(lipo)     H(rot)  DE(clash)    DE(int)     intcor
     18.14     -22.31       2.65        0.00     122.28       2.48       0.01       4.15       ----

> <Gold.Chemscore.Fitness>
18.1423

> <Gold.Chemscore.DG>
-22.3064

> <Gold.Chemscore.ZeroCoef>
-5.4800

> <Gold.Chemscore.Hbond>
2.6520

> <Gold.Chemscore.Metal>
0.0000

> <Gold.Chemscore.Lipo>
122.2836

> <Gold.Chemscore.Internal_Hbond>
0.0000

> <Gold.Chemscore.DEClash>
0.0128

> <Gold.Chemscore.DEInternal>
4.1513

> <Gold.Chemscore.Rot>
2.4760

> <Gold.Chemscore.Internal.Correction>
   9.000000E+99

> <Gold.Chemscore.Hbonds>
donor molecule, donor type, donor heavy atom, donor atom, acceptor molecule, acceptor atom, score
      P1  H  6896  6908       L1     8  0.37
      P1  H  6931  6943       L1     3  0.39
      P1  H  6934  6947       L1     3  0.77

> <Gold.Chemscore.Hbond.Weighted>
-8.8577

> <Gold.Chemscore.Metal.Weighted>
-0.0000

> <Gold.Chemscore.Lipo.Weighted>
-14.3072

> <Gold.Chemscore.Internal_Hbond.Weighted>
0.0000

> <Gold.Chemscore.DEClash.Weighted>
0.0128

> <Gold.Chemscore.DEInternal.Weighted>
4.1513

> <Gold.Chemscore.Rot.Weighted>
6.3385

> <Gold.Chemscore.Internal.Correction.Weighted>
   9.000000E+99

> <Gold.Protein.RotatedTorsions>
[ 6907 6896 6895 6894 ] final -133.05 input  -60.11 | X-H torsion
[ 7974 7965 7964 7962 ] final -177.08 input  175.53 | X-H torsion
[ 8008 7997 7996 7995 ] final   -3.31 input   59.86 | X-H torsion
[ 10167 10162 10161 10158 ] final -132.82 input  -65.29 | X-H torsion
[ 10718 10713 10712 10709 ] final  -46.84 input   66.30 | X-H torsion
[ 10763 10752 10751 10750 ] final   96.58 input  -60.55 | X-H torsion
[ 11005 11000 10999 10996 ] final -106.00 input  -57.11 | X-H torsion

> <Gold.Protein.ActiveResidues>
 VAL166  LYS551  ARG553  GLY616  TRP617  ASP618  TYR619  PRO620  LYS621  CYS622 
 ASP623  PHE694  ASN695  SER759  ASP760  ASP761  ALA762  ILE779  LEU786  VAL792 
 PHE793  MET794  SER795  GLU796  ALA797  LYS798  CYS799  TRP800  GLU811  SER814 

> <Gold.Protein.RotatedAtoms>
  150.9695  133.6359  159.2740 H   0  0  0  0  0  0  0  0  0  0  0  0  # atno 6907 bound_to 6896
  151.3653  135.0911  159.9457 H   0  0  0  0  0  0  0  0  0  0  0  0  # atno 6908 bound_to 6896
  152.5178  133.9261  159.7612 H   0  0  0  0  0  0  0  0  0  0  0  0  # atno 6909 bound_to 6896
  144.7127  140.1073  143.6413 H   0  0  0  0  0  0  0  0  0  0  0  0  # atno 7974 bound_to 7965
  154.6263  140.2512  155.7488 H   0  0  0  0  0  0  0  0  0  0  0  0  # atno 8008 bound_to 7997
  156.2455  140.2916  156.0514 H   0  0  0  0  0  0  0  0  0  0  0  0  # atno 8009 bound_to 7997
  155.1816  140.0389  157.2873 H   0  0  0  0  0  0  0  0  0  0  0  0  # atno 8010 bound_to 7997
  139.9046  143.6566  152.2588 H   0  0  0  0  0  0  0  0  0  0  0  0  # atno 10167 bound_to 10162
  156.2143  130.4162  149.9074 H   0  0  0  0  0  0  0  0  0  0  0  0  # atno 10718 bound_to 10713
  153.2667  135.4213  155.0947 H   0  0  0  0  0  0  0  0  0  0  0  0  # atno 10763 bound_to 10752
  154.8441  135.3462  154.6302 H   0  0  0  0  0  0  0  0  0  0  0  0  # atno 10764 bound_to 10752
  153.6721  135.7043  153.5201 H   0  0  0  0  0  0  0  0  0  0  0  0  # atno 10765 bound_to 10752
  141.1026  133.8855  157.1802 H   0  0  0  0  0  0  0  0  0  0  0  0  # atno 11005 bound_to 11000
  145.9485  139.2717  143.1226 LP  0  0  0  0  0  0  0  0  0  0  0  0  # atno 17320 bound_to 7965
  145.9348  140.9022  143.0338 LP  0  0  0  0  0  0  0  0  0  0  0  0  # atno 17321 bound_to 7965
  139.6995  144.7637  151.1297 LP  0  0  0  0  0  0  0  0  0  0  0  0  # atno 17342 bound_to 10162
  140.7699  143.5477  150.9240 LP  0  0  0  0  0  0  0  0  0  0  0  0  # atno 17343 bound_to 10162
  156.6742  130.8832  151.3566 LP  0  0  0  0  0  0  0  0  0  0  0  0  # atno 17370 bound_to 10713
  157.7055  130.9380  150.0917 LP  0  0  0  0  0  0  0  0  0  0  0  0  # atno 17371 bound_to 10713
  139.9884  135.0074  156.9916 LP  0  0  0  0  0  0  0  0  0  0  0  0  # atno 17394 bound_to 11000
  140.4983  134.1123  155.7245 LP  0  0  0  0  0  0  0  0  0  0  0  0  # atno 17395 bound_to 11000

$$$$
