AV-unprocessed.smi:273|AV-procd|sdf|2057|dock9
  -GOLD-   2262021303D 1   1.00000     0.00000
 Structure written by MMmdl.
 59 62  0  0  0  0  0  0  0  0  1 V2000
  144.1698  145.2773  153.7921 C   0  0  0  0  0  0  0  0  0  0  0  0
  145.4533  144.8917  153.0452 C   0  0  0  0  0  0  0  0  0  0  0  0
  145.7103  143.4590  153.1315 N   0  0  0  0  0  0  0  0  0  0  0  0
  146.0109  142.7934  154.2576 C   0  0  0  0  0  0  0  0  0  0  0  0
  146.1172  143.3478  155.3515 O   0  0  0  0  0  0  0  0  0  0  0  0
  146.2149  141.2732  154.1158 C   0  0  0  0  0  0  0  0  0  0  0  0
  146.4357  140.5737  155.4760 C   0  0  0  0  0  0  0  0  0  0  0  0
  147.8513  140.7875  156.0440 C   0  0  0  0  0  0  0  0  0  0  0  0
  148.8709  140.4260  155.0601 N   0  0  0  0  0  0  0  0  0  0  0  0
  150.1154  140.2504  155.5748 C   0  0  0  0  0  0  0  0  0  0  0  0
  150.9816  139.3881  154.9771 N   0  0  0  0  0  0  0  0  0  0  0  0
  152.2112  139.2133  155.4697 C   0  0  0  0  0  0  0  0  0  0  0  0
  152.7725  139.7878  156.5349 N   0  0  0  0  0  0  0  0  0  0  0  0
  151.9089  140.6504  157.1423 C   0  0  0  0  0  0  0  0  0  0  0  0
  150.5749  140.9368  156.7349 C   0  0  0  0  0  0  0  0  0  0  0  0
  150.0012  141.8510  157.6116 N   0  0  0  0  0  0  0  0  0  0  0  0
  150.9442  142.0986  158.4791 C   0  0  0  0  0  0  0  0  0  0  0  0
  152.1267  141.4270  158.2665 N   0  0  0  0  0  0  0  0  0  0  0  0
  153.3327  141.5070  159.0736 C   0  0  0  0  0  0  0  0  0  0  0  0
  153.1076  141.1551  160.5672 C   0  0  1  0  0  0  0  0  0  0  0  0
  154.0039  139.9678  161.0052 C   0  0  0  0  0  0  0  0  0  0  0  0
  155.3553  140.3518  161.1460 O   0  0  0  0  0  0  0  0  0  0  0  0
  153.3199  142.4119  161.4562 C   0  0  1  0  0  0  0  0  0  0  0  0
  152.1591  143.3933  161.4657 C   0  0  0  0  0  0  0  0  0  0  0  0
  152.4458  144.2314  162.7065 C   0  0  0  0  0  0  0  0  0  0  0  0
  153.0951  143.3555  163.6196 O   0  0  0  0  0  0  0  0  0  0  0  0
  153.4528  142.1452  162.9604 C   0  0  0  0  0  0  0  0  0  0  0  0
  148.7622  141.1122  153.7714 C   0  0  0  0  0  0  0  0  0  0  0  0
  147.3667  140.9103  153.1517 C   0  0  0  0  0  0  0  0  0  0  0  0
  143.9710  146.3448  153.6954 H   0  0  0  0  0  0  0  0  0  0  0  0
  144.2453  145.0504  154.8559 H   0  0  0  0  0  0  0  0  0  0  0  0
  143.3073  144.7416  153.3949 H   0  0  0  0  0  0  0  0  0  0  0  0
  145.3595  145.1581  151.9922 H   0  0  0  0  0  0  0  0  0  0  0  0
  146.3033  145.4555  153.4331 H   0  0  0  0  0  0  0  0  0  0  0  0
  145.6431  142.9310  152.2734 H   0  0  0  0  0  0  0  0  0  0  0  0
  145.2956  140.8692  153.6884 H   0  0  0  0  0  0  0  0  0  0  0  0
  145.6945  140.9109  156.2019 H   0  0  0  0  0  0  0  0  0  0  0  0
  146.2658  139.5035  155.3522 H   0  0  0  0  0  0  0  0  0  0  0  0
  147.9946  141.8288  156.3327 H   0  0  0  0  0  0  0  0  0  0  0  0
  147.9556  140.2034  156.9575 H   0  0  0  0  0  0  0  0  0  0  0  0
  152.8347  138.5142  154.9323 H   0  0  0  0  0  0  0  0  0  0  0  0
  150.8026  142.7860  159.3004 H   0  0  0  0  0  0  0  0  0  0  0  0
  154.0835  140.8436  158.6426 H   0  0  0  0  0  0  0  0  0  0  0  0
  153.7175  142.5210  158.9677 H   0  0  0  0  0  0  0  0  0  0  0  0
  152.0674  140.8416  160.6691 H   0  0  0  0  0  0  0  0  0  0  0  0
  153.7028  139.5734  161.9747 H   0  0  0  0  0  0  0  0  0  0  0  0
  153.9296  139.1438  160.2949 H   0  0  0  0  0  0  0  0  0  0  0  0
  155.5380  141.0439  160.5290 H   0  0  0  0  0  0  0  0  0  0  0  0
  154.2120  142.9431  161.1200 H   0  0  0  0  0  0  0  0  0  0  0  0
  152.0995  144.0038  160.5646 H   0  0  0  0  0  0  0  0  0  0  0  0
  151.2130  142.8625  161.5830 H   0  0  0  0  0  0  0  0  0  0  0  0
  153.1281  145.0474  162.4652 H   0  0  0  0  0  0  0  0  0  0  0  0
  151.5415  144.6614  163.1382 H   0  0  0  0  0  0  0  0  0  0  0  0
  152.7569  141.3678  163.2786 H   0  0  0  0  0  0  0  0  0  0  0  0
  154.4591  141.8358  163.2432 H   0  0  0  0  0  0  0  0  0  0  0  0
  148.9710  142.1737  153.9062 H   0  0  0  0  0  0  0  0  0  0  0  0
  149.5154  140.7273  153.0825 H   0  0  0  0  0  0  0  0  0  0  0  0
  147.2617  139.8650  152.8590 H   0  0  0  0  0  0  0  0  0  0  0  0
  147.2878  141.4865  152.2291 H   0  0  0  0  0  0  0  0  0  0  0  0
  1  2  1  0  0  0  0
  1 30  1  0  0  0  0
  1 31  1  0  0  0  0
  1 32  1  0  0  0  0
  2  3  1  0  0  0  0
  2 33  1  0  0  0  0
  2 34  1  0  0  0  0
  3  4  1  0  0  0  0
  3 35  1  0  0  0  0
  4  5  2  0  0  0  0
  4  6  1  0  0  0  0
  6 29  1  0  0  0  0
  6  7  1  0  0  0  0
  6 36  1  0  0  0  0
  7  8  1  0  0  0  0
  7 37  1  0  0  0  0
  7 38  1  0  0  0  0
  8  9  1  0  0  0  0
  8 39  1  0  0  0  0
  8 40  1  0  0  0  0
  9 10  1  0  0  0  0
  9 28  1  0  0  0  0
 10 15  1  0  0  0  0
 10 11  2  0  0  0  0
 11 12  1  0  0  0  0
 12 13  2  0  0  0  0
 12 41  1  0  0  0  0
 13 14  1  0  0  0  0
 14 18  1  0  0  0  0
 14 15  2  0  0  0  0
 15 16  1  0  0  0  0
 16 17  2  0  0  0  0
 17 18  1  0  0  0  0
 17 42  1  0  0  0  0
 18 19  1  0  0  0  0
 19 20  1  0  0  0  0
 19 43  1  0  0  0  0
 19 44  1  0  0  0  0
 20 21  1  0  0  0  0
 20 23  1  0  0  0  0
 20 45  1  0  0  0  0
 21 22  1  0  0  0  0
 21 46  1  0  0  0  0
 21 47  1  0  0  0  0
 22 48  1  0  0  0  0
 23 27  1  0  0  0  0
 23 24  1  0  0  0  0
 23 49  1  0  0  0  0
 24 25  1  0  0  0  0
 24 50  1  0  0  0  0
 24 51  1  0  0  0  0
 25 26  1  0  0  0  0
 25 52  1  0  0  0  0
 25 53  1  0  0  0  0
 26 27  1  0  0  0  0
 27 54  1  0  0  0  0
 27 55  1  0  0  0  0
 28 29  1  0  0  0  0
 28 56  1  0  0  0  0
 28 57  1  0  0  0  0
 29 58  1  0  0  0  0
 29 59  1  0  0  0  0
M  END
> <s_m_source_file>
AV-unprocessed.smi

> <i_m_source_file_index>
273

> <i_lp_mmshare_version>
43012

> <i_f3d_flags>
0

> <s_epik_input>
W0NIM11bQ0gyXVtOSF1DKD1PKVtDSF0xW0NIMl1bQ0gyXU4oW0NIMl1bQ0gyXTEpYyhuW2NIXW4yKWMoYzIzKW5bY0hdbjNbQ0gyXVtDQEhdKFtDSDJdW09IXSlbQ0BASF00W0NIMl1bQ0gyXU9bQ0gyXTQ=

> <s_epik_cmdline>
J2VwaWtfcHl0aG9uJywgJy1waCcsICc3LjAnLCAnLXRuJywgJzgnLCAnLW1hJywgJzIwMCcsICctbWV0YWxfYmluZGluZycsICctaW1hZScsICc8aW5maWxlLm1hZT4nLCAnLW9tYWUnLCAnPG91dGZpbGUubWFlPic=

> <r_lp_tautomer_probability>
1

> <r_epik_Ionization_Penalty>
0.00226556

> <r_epik_Ionization_Penalty_Charging>
0

> <r_epik_Ionization_Penalty_Neutral>
0.00226556

> <r_epik_State_Penalty>
0.00139883

> <r_epik_Charging_Adjusted_Penalty>
0.00139883

> <i_epik_Tot_Q>
0

> <i_epik_Tot_abs_Q>
0

> <r_epik_Metal_State_Penalty>
-0

> <b_epik_Metal_Only>
0

> <s_lp_Force_Field>
OPLS_2005

> <r_lp_Energy>
41.2023

> <b_lp_Chiralities_Consistent>
1

> <s_lp_Variant>
AV-unprocessed.smi:273-4

> <Gold.Version>
5.8.1

> <Gold.Id.Protein>
6NUR|6NUR_protein|mol2

> <Gold.PLP.Fitness>
48.9864

> <Gold.PLP.PLP>
-47.8391

> <Gold.PLP.part.hbond>
-3.3789

> <Gold.PLP.part.metal>
0.0000

> <Gold.PLP.part.buried>
0.3696

> <Gold.PLP.part.nonpolar>
-43.3644

> <Gold.PLP.part.repulsive>
0.6491

> <Gold.PLP.ligand.clash>
0.0000

> <Gold.PLP.ligand.torsion>
1.6328

> <Gold.PLP.Chemscore.Hbond>
1.2717

> <Gold.PLP.Chemscore.CHOScore>
0.0000

> <Gold.PLP.Chemscore.Metal>
0.0000

> <Gold.Chemscore.Hbonds>
donor molecule, donor type, donor heavy atom, donor atom, acceptor molecule, acceptor atom, score
      P1  H  7989  7998       L1    11  0.27
      P1  H  7997  8010       L1    13  1.00

> <Gold.PLP.Chemscore.Internal.Correction>
0.5978

> <Gold.Rescore>
     Score         DG    S(hbond)    S(metal)    S(lipo)     H(rot)  DE(clash)    DE(int)     intcor
      8.06     -14.75       0.95        0.00     122.65       3.22       3.30       3.39       ----

> <Gold.Chemscore.Fitness>
8.0612

> <Gold.Chemscore.DG>
-14.7536

> <Gold.Chemscore.ZeroCoef>
-5.4800

> <Gold.Chemscore.Hbond>
0.9515

> <Gold.Chemscore.Metal>
0.0000

> <Gold.Chemscore.Lipo>
122.6511

> <Gold.Chemscore.Internal_Hbond>
0.0000

> <Gold.Chemscore.DEClash>
3.2987

> <Gold.Chemscore.DEInternal>
3.3937

> <Gold.Chemscore.Rot>
3.2244

> <Gold.Chemscore.Internal.Correction>
   9.000000E+99

> <Gold.Chemscore.Hbonds>
donor molecule, donor type, donor heavy atom, donor atom, acceptor molecule, acceptor atom, score
      P1  H  7997  8010       L1    13  0.94

> <Gold.Chemscore.Hbond.Weighted>
-3.1779

> <Gold.Chemscore.Metal.Weighted>
-0.0000

> <Gold.Chemscore.Lipo.Weighted>
-14.3502

> <Gold.Chemscore.Internal_Hbond.Weighted>
0.0000

> <Gold.Chemscore.DEClash.Weighted>
3.2987

> <Gold.Chemscore.DEInternal.Weighted>
3.3937

> <Gold.Chemscore.Rot.Weighted>
8.2545

> <Gold.Chemscore.Internal.Correction.Weighted>
   9.000000E+99

> <Gold.Protein.RotatedTorsions>
[ 6907 6896 6895 6894 ] final -132.07 input  -60.11 | X-H torsion
[ 7974 7965 7964 7962 ] final   93.50 input  175.53 | X-H torsion
[ 8008 7997 7996 7995 ] final   65.16 input   59.86 | X-H torsion
[ 10167 10162 10161 10158 ] final  -20.02 input  -65.29 | X-H torsion
[ 10718 10713 10712 10709 ] final -174.61 input   66.30 | X-H torsion
[ 10763 10752 10751 10750 ] final -120.94 input  -60.55 | X-H torsion
[ 11005 11000 10999 10996 ] final   48.16 input  -57.11 | X-H torsion

> <Gold.Protein.ActiveResidues>
 VAL166  LYS551  ARG553  GLY616  TRP617  ASP618  TYR619  PRO620  LYS621  CYS622 
 ASP623  PHE694  ASN695  SER759  ASP760  ASP761  ALA762  ILE779  LEU786  VAL792 
 PHE793  MET794  SER795  GLU796  ALA797  LYS798  CYS799  TRP800  GLU811  SER814 

> <Gold.Protein.RotatedAtoms>
  150.9581  133.6475  159.2759 H   0  0  0  0  0  0  0  0  0  0  0  0  # atno 6907 bound_to 6896
  151.3807  135.0938  159.9505 H   0  0  0  0  0  0  0  0  0  0  0  0  # atno 6908 bound_to 6896
  152.5137  133.9116  159.7545 H   0  0  0  0  0  0  0  0  0  0  0  0  # atno 6909 bound_to 6896
  145.4781  139.2279  143.2898 H   0  0  0  0  0  0  0  0  0  0  0  0  # atno 7974 bound_to 7965
  155.6573  140.3497  155.4770 H   0  0  0  0  0  0  0  0  0  0  0  0  # atno 8008 bound_to 7997
  155.9798  140.1172  157.0760 H   0  0  0  0  0  0  0  0  0  0  0  0  # atno 8009 bound_to 7997
  154.4188  140.1140  156.5405 H   0  0  0  0  0  0  0  0  0  0  0  0  # atno 8010 bound_to 7997
  140.7273  143.4763  151.0178 H   0  0  0  0  0  0  0  0  0  0  0  0  # atno 10167 bound_to 10162
  156.7876  130.9506  151.3120 H   0  0  0  0  0  0  0  0  0  0  0  0  # atno 10718 bound_to 10713
  154.8656  135.4185  154.2541 H   0  0  0  0  0  0  0  0  0  0  0  0  # atno 10763 bound_to 10752
  153.3482  135.6997  153.6816 H   0  0  0  0  0  0  0  0  0  0  0  0  # atno 10764 bound_to 10752
  153.5767  135.3581  155.2832 H   0  0  0  0  0  0  0  0  0  0  0  0  # atno 10765 bound_to 10752
  140.1215  134.4823  155.8593 H   0  0  0  0  0  0  0  0  0  0  0  0  # atno 11005 bound_to 11000
  146.2357  140.5565  142.8956 LP  0  0  0  0  0  0  0  0  0  0  0  0  # atno 17320 bound_to 7965
  144.7905  140.6022  143.6545 LP  0  0  0  0  0  0  0  0  0  0  0  0  # atno 17321 bound_to 7965
  139.8458  143.7503  152.3179 LP  0  0  0  0  0  0  0  0  0  0  0  0  # atno 17342 bound_to 10162
  139.7668  144.7489  151.0283 LP  0  0  0  0  0  0  0  0  0  0  0  0  # atno 17343 bound_to 10162
  157.6616  130.8971  149.9842 LP  0  0  0  0  0  0  0  0  0  0  0  0  # atno 17370 bound_to 10713
  156.1179  130.3647  149.9937 LP  0  0  0  0  0  0  0  0  0  0  0  0  # atno 17371 bound_to 10713
  141.2152  133.6762  156.6898 LP  0  0  0  0  0  0  0  0  0  0  0  0  # atno 17394 bound_to 11000
  140.2959  134.8203  157.4056 LP  0  0  0  0  0  0  0  0  0  0  0  0  # atno 17395 bound_to 11000

$$$$
