AV-unprocessed.smi:3312|AV-procd|sdf|12727|dock4
  -GOLD-   2272019 73D 1   1.00000     0.00000
 Structure written by MMmdl.
 39 40  0  0  0  0  0  0  0  0  2 V2000
  154.1762  140.6997  161.9945 C   0  0  0  0  0  0  0  0  0  0  0  0
  153.4812  141.7952  161.2385 C   0  0  0  0  0  0  0  0  0  0  0  0
  152.6463  142.8232  161.7610 C   0  0  0  0  0  0  0  0  0  0  0  0
  152.1833  143.6341  160.8243 N   0  0  0  0  0  0  0  0  0  0  0  0
  152.7112  143.1611  159.6756 N   0  0  0  0  0  0  0  0  0  0  0  0
  152.4088  143.8195  158.4168 C   0  0  0  0  0  0  0  0  0  0  0  0
  150.9048  143.8070  158.0993 C   0  0  0  0  0  0  0  0  0  0  0  0
  150.6356  143.1565  156.7988 N   0  3  0  0  0  0  0  0  0  0  0  0
  150.1987  141.7465  156.8918 C   0  0  0  0  0  0  0  0  0  0  0  0
  149.8548  141.1327  155.5232 C   0  0  0  0  0  0  0  0  0  0  0  0
  150.7071  140.4544  154.9465 O   0  0  0  0  0  0  0  0  0  0  0  0
  148.6267  141.3483  154.9952 N   0  0  0  0  0  0  0  0  0  0  0  0
  148.1291  140.8221  153.7203 C   0  0  0  0  0  0  0  0  0  0  0  0
  146.9644  139.8612  154.0181 C   0  0  0  0  0  0  0  0  0  0  0  0
  145.9462  140.5542  154.7360 O   0  0  0  0  0  0  0  0  0  0  0  0
  146.4049  141.1101  155.9664 C   0  0  0  0  0  0  0  0  0  0  0  0
  147.5689  142.0810  155.6968 C   0  0  0  0  0  0  0  0  0  0  0  0
  153.4918  142.0459  159.8955 C   0  0  0  0  0  0  0  0  0  0  0  0
  153.7352  140.5456  162.9797 H   0  0  0  0  0  0  0  0  0  0  0  0
  155.2323  140.9233  162.1466 H   0  0  0  0  0  0  0  0  0  0  0  0
  154.1213  139.7472  161.4670 H   0  0  0  0  0  0  0  0  0  0  0  0
  152.3632  143.0019  162.7879 H   0  0  0  0  0  0  0  0  0  0  0  0
  152.7829  144.8436  158.4545 H   0  0  0  0  0  0  0  0  0  0  0  0
  152.9622  143.3115  157.6260 H   0  0  0  0  0  0  0  0  0  0  0  0
  150.3642  143.2699  158.8791 H   0  0  0  0  0  0  0  0  0  0  0  0
  150.5179  144.8268  158.0969 H   0  0  0  0  0  0  0  0  0  0  0  0
  149.9096  143.6734  156.3223 H   0  0  0  0  0  0  0  0  0  0  0  0
  151.0186  141.1723  157.3246 H   0  0  0  0  0  0  0  0  0  0  0  0
  149.3511  141.6762  157.5748 H   0  0  0  0  0  0  0  0  0  0  0  0
  147.7781  141.6513  153.1041 H   0  0  0  0  0  0  0  0  0  0  0  0
  148.8858  140.3140  153.1251 H   0  0  0  0  0  0  0  0  0  0  0  0
  146.5428  139.4786  153.0885 H   0  0  0  0  0  0  0  0  0  0  0  0
  147.3077  138.9998  154.5936 H   0  0  0  0  0  0  0  0  0  0  0  0
  145.5791  141.6349  156.4467 H   0  0  0  0  0  0  0  0  0  0  0  0
  146.7138  140.3117  156.6432 H   0  0  0  0  0  0  0  0  0  0  0  0
  147.9045  142.5208  156.6368 H   0  0  0  0  0  0  0  0  0  0  0  0
  147.2308  142.9130  155.0774 H   0  0  0  0  0  0  0  0  0  0  0  0
  153.9890  141.5287  159.0877 H   0  0  0  0  0  0  0  0  0  0  0  0
  151.4803  143.2000  156.2476 H   0  0  0  0  0  0  0  0  0  0  0  0
  1  2  1  0  0  0  0
  1 19  1  0  0  0  0
  1 20  1  0  0  0  0
  1 21  1  0  0  0  0
  2 18  2  0  0  0  0
  2  3  1  0  0  0  0
  3  4  2  0  0  0  0
  3 22  1  0  0  0  0
  4  5  1  0  0  0  0
  5  6  1  0  0  0  0
  5 18  1  0  0  0  0
  6  7  1  0  0  0  0
  6 23  1  0  0  0  0
  6 24  1  0  0  0  0
  7  8  1  0  0  0  0
  7 25  1  0  0  0  0
  7 26  1  0  0  0  0
  8  9  1  0  0  0  0
  8 27  1  0  0  0  0
  8 39  1  0  0  0  0
  9 10  1  0  0  0  0
  9 28  1  0  0  0  0
  9 29  1  0  0  0  0
 10 11  2  0  0  0  0
 10 12  1  0  0  0  0
 12 17  1  0  0  0  0
 12 13  1  0  0  0  0
 13 14  1  0  0  0  0
 13 30  1  0  0  0  0
 13 31  1  0  0  0  0
 14 15  1  0  0  0  0
 14 32  1  0  0  0  0
 14 33  1  0  0  0  0
 15 16  1  0  0  0  0
 16 17  1  0  0  0  0
 16 34  1  0  0  0  0
 16 35  1  0  0  0  0
 17 36  1  0  0  0  0
 17 37  1  0  0  0  0
 18 38  1  0  0  0  0
M  CHG  1   8   1
M  END
> <s_m_source_file>
AV-unprocessed.smi

> <i_m_source_file_index>
3312

> <i_lp_mmshare_version>
43012

> <i_f3d_flags>
0

> <s_epik_input>
W0NIM11jMVtjSF1ubihbY0hdMSlbQ0gyXVtDSDJdW05IXVtDSDJdQyg9TylOMltDSDJdW0NIMl1PW0NIMl1bQ0gyXTI=

> <s_epik_cmdline>
J2VwaWtfcHl0aG9uJywgJy1waCcsICc3LjAnLCAnLXRuJywgJzgnLCAnLW1hJywgJzIwMCcsICctbWV0YWxfYmluZGluZycsICctaW1hZScsICc8aW5maWxlLm1hZT4nLCAnLW9tYWUnLCAnPG91dGZpbGUubWFlPic=

> <r_lp_tautomer_probability>
1

> <r_epik_Ionization_Penalty>
0.325402

> <r_epik_Ionization_Penalty_Charging>
0.325398

> <r_epik_Ionization_Penalty_Neutral>
4.45308e-06

> <r_epik_State_Penalty>
0.321221

> <r_epik_Charging_Adjusted_Penalty>
0.646619

> <i_epik_Tot_Q>
1

> <i_epik_Tot_abs_Q>
1

> <r_epik_Metal_State_Penalty>
0.321643

> <b_epik_Metal_Only>
0

> <s_lp_Force_Field>
OPLS_2005

> <r_lp_Energy>
21.6744

> <b_lp_Chiralities_Consistent>
1

> <s_lp_Variant>
AV-unprocessed.smi:3312-1

> <Gold.Version>
5.8.1

> <Gold.Id.Protein>
6NUR|6NUR_protein|mol2

> <Gold.PLP.Fitness>
46.8813

> <Gold.PLP.PLP>
-39.8046

> <Gold.PLP.part.hbond>
-2.0000

> <Gold.PLP.part.metal>
0.0000

> <Gold.PLP.part.buried>
-1.9193

> <Gold.PLP.part.nonpolar>
-36.0553

> <Gold.PLP.part.repulsive>
0.3067

> <Gold.PLP.ligand.clash>
0.0000

> <Gold.PLP.ligand.torsion>
0.9781

> <Gold.PLP.Chemscore.Hbond>
3.0000

> <Gold.PLP.Chemscore.CHOScore>
0.0000

> <Gold.PLP.Chemscore.Metal>
0.0000

> <Gold.Chemscore.Hbonds>
donor molecule, donor type, donor heavy atom, donor atom, acceptor molecule, acceptor atom, score
      L1  H     8    27       P1  8028  2.00
      P1  H  7989  7998       L1    11  1.00

> <Gold.PLP.Chemscore.Internal.Correction>
0.0329

> <Gold.Rescore>
     Score         DG    S(hbond)    S(metal)    S(lipo)     H(rot)  DE(clash)    DE(int)     intcor
     17.05     -18.21       1.98        0.00      93.74       1.89       0.12       1.05       ----

> <Gold.Chemscore.Fitness>
17.0512

> <Gold.Chemscore.DG>
-18.2145

> <Gold.Chemscore.ZeroCoef>
-5.4800

> <Gold.Chemscore.Hbond>
1.9758

> <Gold.Chemscore.Metal>
0.0000

> <Gold.Chemscore.Lipo>
93.7352

> <Gold.Chemscore.Internal_Hbond>
0.0000

> <Gold.Chemscore.DEClash>
0.1156

> <Gold.Chemscore.DEInternal>
1.0477

> <Gold.Chemscore.Rot>
1.8874

> <Gold.Chemscore.Internal.Correction>
   9.000000E+99

> <Gold.Chemscore.Hbonds>
donor molecule, donor type, donor heavy atom, donor atom, acceptor molecule, acceptor atom, score
      L1  H     8    27       P1  8028  0.99
      P1  H  7989  7998       L1    11  0.97

> <Gold.Chemscore.Hbond.Weighted>
-6.5991

> <Gold.Chemscore.Metal.Weighted>
-0.0000

> <Gold.Chemscore.Lipo.Weighted>
-10.9670

> <Gold.Chemscore.Internal_Hbond.Weighted>
0.0000

> <Gold.Chemscore.DEClash.Weighted>
0.1156

> <Gold.Chemscore.DEInternal.Weighted>
1.0477

> <Gold.Chemscore.Rot.Weighted>
4.8317

> <Gold.Chemscore.Internal.Correction.Weighted>
   9.000000E+99

> <Gold.Protein.RotatedTorsions>
[ 6907 6896 6895 6894 ] final   31.35 input  -60.11 | X-H torsion
[ 7974 7965 7964 7962 ] final    7.75 input  175.53 | X-H torsion
[ 8008 7997 7996 7995 ] final   19.80 input   59.86 | X-H torsion
[ 10167 10162 10161 10158 ] final -151.59 input  -65.29 | X-H torsion
[ 10718 10713 10712 10709 ] final  -65.38 input   66.30 | X-H torsion
[ 10763 10752 10751 10750 ] final -161.96 input  -60.55 | X-H torsion
[ 11005 11000 10999 10996 ] final   23.38 input  -57.11 | X-H torsion

> <Gold.Protein.ActiveResidues>
 VAL166  LYS551  ARG553  GLY616  TRP617  ASP618  TYR619  PRO620  LYS621  CYS622 
 ASP623  PHE694  ASN695  SER759  ASP760  ASP761  ALA762  ILE779  LEU786  VAL792 
 PHE793  MET794  SER795  GLU796  ALA797  LYS798  CYS799  TRP800  GLU811  SER814 

> <Gold.Protein.RotatedAtoms>
  152.0591  134.9606  160.0574 H   0  0  0  0  0  0  0  0  0  0  0  0  # atno 6907 bound_to 6896
  152.0976  133.4228  159.4580 H   0  0  0  0  0  0  0  0  0  0  0  0  # atno 6908 bound_to 6896
  150.6838  134.2717  159.4634 H   0  0  0  0  0  0  0  0  0  0  0  0  # atno 6909 bound_to 6896
  146.2423  140.0036  142.8413 H   0  0  0  0  0  0  0  0  0  0  0  0  # atno 7974 bound_to 7965
  154.9261  140.3034  155.5191 H   0  0  0  0  0  0  0  0  0  0  0  0  # atno 8008 bound_to 7997
  156.3007  140.2362  156.4252 H   0  0  0  0  0  0  0  0  0  0  0  0  # atno 8009 bound_to 7997
  154.8283  140.0419  157.1448 H   0  0  0  0  0  0  0  0  0  0  0  0  # atno 8010 bound_to 7997
  139.7254  143.8891  152.2517 H   0  0  0  0  0  0  0  0  0  0  0  0  # atno 10167 bound_to 10162
  156.0673  130.4246  150.1555 H   0  0  0  0  0  0  0  0  0  0  0  0  # atno 10718 bound_to 10713
  154.7257  135.3035  154.8975 H   0  0  0  0  0  0  0  0  0  0  0  0  # atno 10763 bound_to 10752
  153.9833  135.6727  153.4755 H   0  0  0  0  0  0  0  0  0  0  0  0  # atno 10764 bound_to 10752
  153.0873  135.4977  154.8540 H   0  0  0  0  0  0  0  0  0  0  0  0  # atno 10765 bound_to 10752
  140.3703  134.2030  155.7667 H   0  0  0  0  0  0  0  0  0  0  0  0  # atno 11005 bound_to 11000
  145.1392  140.9562  143.4498 LP  0  0  0  0  0  0  0  0  0  0  0  0  # atno 17320 bound_to 7965
  145.0312  139.3339  143.6024 LP  0  0  0  0  0  0  0  0  0  0  0  0  # atno 17321 bound_to 7965
  139.8799  144.7023  150.8889 LP  0  0  0  0  0  0  0  0  0  0  0  0  # atno 17342 bound_to 10162
  140.7761  143.3669  151.1721 LP  0  0  0  0  0  0  0  0  0  0  0  0  # atno 17343 bound_to 10162
  156.9613  130.9806  151.3478 LP  0  0  0  0  0  0  0  0  0  0  0  0  # atno 17370 bound_to 10713
  157.5723  130.8319  149.8408 LP  0  0  0  0  0  0  0  0  0  0  0  0  # atno 17371 bound_to 10713
  141.1957  133.8100  157.0705 LP  0  0  0  0  0  0  0  0  0  0  0  0  # atno 17394 bound_to 11000
  140.0557  134.9782  157.1216 LP  0  0  0  0  0  0  0  0  0  0  0  0  # atno 17395 bound_to 11000

$$$$
