AV-unprocessed.smi:114|AV-procd|sdf|1119|dock3
  -GOLD-   2262018243D 1   1.00000     0.00000
 Structure written by MMmdl.
 32 34  0  0  0  0  0  0  0  0  1 V2000
  152.5957  140.3136  158.9076 N   0  0  0  0  0  0  0  0  0  0  0  0
  152.1839  140.1312  157.6453 C   0  0  0  0  0  0  0  0  0  0  0  0
  152.9238  139.3399  156.8339 N   0  0  0  0  0  0  0  0  0  0  0  0
  152.5503  139.1353  155.5646 C   0  0  0  0  0  0  0  0  0  0  0  0
  153.3500  138.3326  154.8240 F   0  0  0  0  0  0  0  0  0  0  0  0
  151.4745  139.6338  154.9453 N   0  0  0  0  0  0  0  0  0  0  0  0
  150.7226  140.4267  155.7632 C   0  0  0  0  0  0  0  0  0  0  0  0
  151.0129  140.7296  157.1197 C   0  0  0  0  0  0  0  0  0  0  0  0
  150.0444  141.5820  157.6314 N   0  0  0  0  0  0  0  0  0  0  0  0
  149.2333  141.7749  156.6257 C   0  0  0  0  0  0  0  0  0  0  0  0
  149.5495  141.0901  155.4696 N   0  0  0  0  0  0  0  0  0  0  0  0
  148.8548  141.1067  154.1414 C   0  0  2  0  0  0  0  0  0  0  0  0
  148.0804  142.2690  154.0617 O   0  0  0  0  0  0  0  0  0  0  0  0
  146.6913  141.9782  154.2064 C   0  0  2  0  0  0  0  0  0  0  0  0
  146.2790  142.0498  155.6947 C   0  0  0  0  0  0  0  0  0  0  0  0
  144.9628  141.5644  155.8513 O   0  0  0  0  0  0  0  0  0  0  0  0
  146.5991  140.5855  153.5688 C   0  0  2  0  0  0  0  0  0  0  0  0
  145.4640  139.8543  153.9893 O   0  0  0  0  0  0  0  0  0  0  0  0
  147.8941  139.9104  153.9987 C   0  0  1  0  0  0  0  0  0  0  0  0
  148.3177  139.0125  152.9929 O   0  0  0  0  0  0  0  0  0  0  0  0
  149.6642  141.1314  153.4104 H   0  0  0  0  0  0  0  0  0  0  0  0
  146.0975  142.6902  153.6313 H   0  0  0  0  0  0  0  0  0  0  0  0
  146.5726  140.6998  152.4836 H   0  0  0  0  0  0  0  0  0  0  0  0
  147.7740  139.4022  154.9572 H   0  0  0  0  0  0  0  0  0  0  0  0
  152.0605  140.9018  159.5304 H   0  0  0  0  0  0  0  0  0  0  0  0
  153.4387  139.8631  159.2339 H   0  0  0  0  0  0  0  0  0  0  0  0
  148.3721  142.4223  156.7079 H   0  0  0  0  0  0  0  0  0  0  0  0
  146.9173  141.4063  156.3001 H   0  0  0  0  0  0  0  0  0  0  0  0
  146.3675  143.0537  156.1067 H   0  0  0  0  0  0  0  0  0  0  0  0
  144.7991  141.4333  156.7728 H   0  0  0  0  0  0  0  0  0  0  0  0
  144.6941  140.2671  153.6281 H   0  0  0  0  0  0  0  0  0  0  0  0
  148.9793  139.4415  152.4711 H   0  0  0  0  0  0  0  0  0  0  0  0
  1  2  1  0  0  0  0
  1 25  1  0  0  0  0
  1 26  1  0  0  0  0
  2  8  1  0  0  0  0
  2  3  2  0  0  0  0
  3  4  1  0  0  0  0
  4  5  1  0  0  0  0
  4  6  2  0  0  0  0
  6  7  1  0  0  0  0
  7 11  1  0  0  0  0
  7  8  2  0  0  0  0
  8  9  1  0  0  0  0
  9 10  2  0  0  0  0
 10 11  1  0  0  0  0
 10 27  1  0  0  0  0
 11 12  1  0  0  0  0
 12 21  1  0  0  0  0
 12 19  1  0  0  0  0
 12 13  1  0  0  0  0
 13 14  1  0  0  0  0
 14 22  1  0  0  0  0
 14 15  1  0  0  0  0
 14 17  1  0  0  0  0
 15 16  1  0  0  0  0
 15 28  1  0  0  0  0
 15 29  1  0  0  0  0
 16 30  1  0  0  0  0
 17 23  1  0  0  0  0
 17 18  1  0  0  0  0
 17 19  1  0  0  0  0
 18 31  1  0  0  0  0
 19 24  1  0  0  0  0
 19 20  1  0  0  0  0
 20 32  1  0  0  0  0
M  END
> <s_m_source_file>
AV-unprocessed.smi

> <i_m_source_file_index>
114

> <i_lp_mmshare_version>
43012

> <i_f3d_flags>
0

> <s_epik_input>
RmMobjEpbmMoW05IMl0pYyhjMTIpbltjSF1uMltDQEBIXTNPW0NASF0oW0NIMl1bT0hdKVtDQEBIXShbT0hdKVtDQEBIXTNbT0hd

> <s_epik_cmdline>
J2VwaWtfcHl0aG9uJywgJy1waCcsICc3LjAnLCAnLXRuJywgJzgnLCAnLW1hJywgJzIwMCcsICctbWV0YWxfYmluZGluZycsICctaW1hZScsICc8aW5maWxlLm1hZT4nLCAnLW9tYWUnLCAnPG91dGZpbGUubWFlPic=

> <r_lp_tautomer_probability>
1

> <r_epik_Ionization_Penalty>
1.13199e-05

> <r_epik_Ionization_Penalty_Charging>
0

> <r_epik_Ionization_Penalty_Neutral>
1.13199e-05

> <r_epik_State_Penalty>
-0

> <r_epik_Charging_Adjusted_Penalty>
0

> <i_epik_Tot_Q>
0

> <i_epik_Tot_abs_Q>
0

> <r_epik_Metal_State_Penalty>
-0

> <b_epik_Metal_Only>
0

> <s_epik_Chemistry_Notes>
This compound contains an acetal/aminal-like group ( X-CH(R)-Y where X, Y are N, S, or O) that may be acid/base labile, releasing an aldehyde.

> <s_lp_Force_Field>
OPLS_2005

> <r_lp_Energy>
35.5551

> <b_lp_Chiralities_Consistent>
1

> <s_lp_Variant>
AV-unprocessed.smi:114-13

> <Gold.Version>
5.8.1

> <Gold.Id.Protein>
6NUR|6NUR_protein|mol2

> <Gold.PLP.Fitness>
42.9499

> <Gold.PLP.PLP>
-30.7501

> <Gold.PLP.part.hbond>
-5.3627

> <Gold.PLP.part.metal>
0.0000

> <Gold.PLP.part.buried>
0.2972

> <Gold.PLP.part.nonpolar>
-26.8548

> <Gold.PLP.part.repulsive>
1.0745

> <Gold.PLP.ligand.clash>
0.0000

> <Gold.PLP.ligand.torsion>
0.6863

> <Gold.PLP.Chemscore.Hbond>
3.9000

> <Gold.PLP.Chemscore.CHOScore>
0.6126

> <Gold.PLP.Chemscore.Metal>
0.0000

> <Gold.Chemscore.Hbonds>
donor molecule, donor type, donor heavy atom, donor atom, acceptor molecule, acceptor atom, score
      L1  H    18    31       P1 10175  1.00
      L1  H    20    32       P1  7957  1.00
      P1  H  7989  7998       L1     6  0.90
      P1  H  7997  8009       L1     3  1.00
      L1  C    10    27       P1  8028  0.56

> <Gold.PLP.Chemscore.Internal.Correction>
0.0348

> <Gold.Rescore>
     Score         DG    S(hbond)    S(metal)    S(lipo)     H(rot)  DE(clash)    DE(int)     intcor
      4.80      -5.63       2.18        0.00      27.22       4.03       0.16       0.67       ----

> <Gold.Chemscore.Fitness>
4.8045

> <Gold.Chemscore.DG>
-5.6343

> <Gold.Chemscore.ZeroCoef>
-5.4800

> <Gold.Chemscore.Hbond>
2.1797

> <Gold.Chemscore.Metal>
0.0000

> <Gold.Chemscore.Lipo>
27.2220

> <Gold.Chemscore.Internal_Hbond>
0.0000

> <Gold.Chemscore.DEClash>
0.1553

> <Gold.Chemscore.DEInternal>
0.6745

> <Gold.Chemscore.Rot>
4.0277

> <Gold.Chemscore.Internal.Correction>
   9.000000E+99

> <Gold.Chemscore.Hbonds>
donor molecule, donor type, donor heavy atom, donor atom, acceptor molecule, acceptor atom, score
      L1  H    18    31       P1 10175  0.91
      L1  H    20    32       P1  7957  0.95
      P1  H  7989  7998       L1     6  0.18
      P1  H  7997  8009       L1     3  0.25

> <Gold.Chemscore.Hbond.Weighted>
-7.2803

> <Gold.Chemscore.Metal.Weighted>
-0.0000

> <Gold.Chemscore.Lipo.Weighted>
-3.1850

> <Gold.Chemscore.Internal_Hbond.Weighted>
0.0000

> <Gold.Chemscore.DEClash.Weighted>
0.1553

> <Gold.Chemscore.DEInternal.Weighted>
0.6745

> <Gold.Chemscore.Rot.Weighted>
10.3110

> <Gold.Chemscore.Internal.Correction.Weighted>
   9.000000E+99

> <Gold.Protein.RotatedTorsions>
[ 6907 6896 6895 6894 ] final -114.31 input  -60.11 | X-H torsion
[ 7974 7965 7964 7962 ] final  -82.24 input  175.53 | X-H torsion
[ 8008 7997 7996 7995 ] final  176.13 input   59.86 | X-H torsion
[ 10167 10162 10161 10158 ] final  -51.87 input  -65.29 | X-H torsion
[ 10718 10713 10712 10709 ] final  -93.88 input   66.30 | X-H torsion
[ 10763 10752 10751 10750 ] final  145.78 input  -60.55 | X-H torsion
[ 11005 11000 10999 10996 ] final -114.22 input  -57.11 | X-H torsion

> <Gold.Protein.ActiveResidues>
 VAL166  LYS551  ARG553  GLY616  TRP617  ASP618  TYR619  PRO620  LYS621  CYS622 
 ASP623  PHE694  ASN695  SER759  ASP760  ASP761  ALA762  ILE779  LEU786  VAL792 
 PHE793  MET794  SER795  GLU796  ALA797  LYS798  CYS799  TRP800  GLU811  SER814 

> <Gold.Protein.RotatedAtoms>
  150.7892  133.8820  159.3288 H   0  0  0  0  0  0  0  0  0  0  0  0  # atno 6907 bound_to 6896
  151.6662  135.0980  160.0198 H   0  0  0  0  0  0  0  0  0  0  0  0  # atno 6908 bound_to 6896
  152.3963  133.6713  159.6314 H   0  0  0  0  0  0  0  0  0  0  0  0  # atno 6909 bound_to 6896
  145.5359  140.9515  143.1577 H   0  0  0  0  0  0  0  0  0  0  0  0  # atno 7974 bound_to 7965
  156.0797  140.1391  156.9727 H   0  0  0  0  0  0  0  0  0  0  0  0  # atno 8008 bound_to 7997
  154.4578  140.0954  156.6857 H   0  0  0  0  0  0  0  0  0  0  0  0  # atno 8009 bound_to 7997
  155.5095  140.3453  155.4388 H   0  0  0  0  0  0  0  0  0  0  0  0  # atno 8010 bound_to 7997
  140.6566  143.2604  151.4566 H   0  0  0  0  0  0  0  0  0  0  0  0  # atno 10167 bound_to 10162
  156.0019  130.5045  150.5842 H   0  0  0  0  0  0  0  0  0  0  0  0  # atno 10718 bound_to 10713
  154.0110  135.2914  155.3392 H   0  0  0  0  0  0  0  0  0  0  0  0  # atno 10763 bound_to 10752
  154.7103  135.5152  153.8660 H   0  0  0  0  0  0  0  0  0  0  0  0  # atno 10764 bound_to 10752
  153.0723  135.6652  154.0341 H   0  0  0  0  0  0  0  0  0  0  0  0  # atno 10765 bound_to 10752
  141.0566  133.9603  157.2743 H   0  0  0  0  0  0  0  0  0  0  0  0  # atno 11005 bound_to 11000
  144.7601  139.6977  143.7238 LP  0  0  0  0  0  0  0  0  0  0  0  0  # atno 17320 bound_to 7965
  146.2013  139.5309  142.9741 LP  0  0  0  0  0  0  0  0  0  0  0  0  # atno 17321 bound_to 7965
  139.5790  144.1752  152.1943 LP  0  0  0  0  0  0  0  0  0  0  0  0  # atno 17342 bound_to 10162
  140.1071  144.5489  150.6949 LP  0  0  0  0  0  0  0  0  0  0  0  0  # atno 17343 bound_to 10162
  157.3717  131.0766  151.1552 LP  0  0  0  0  0  0  0  0  0  0  0  0  # atno 17370 bound_to 10713
  157.2303  130.6522  149.5847 LP  0  0  0  0  0  0  0  0  0  0  0  0  # atno 17371 bound_to 10713
  139.9395  135.0193  156.8663 LP  0  0  0  0  0  0  0  0  0  0  0  0  # atno 17394 bound_to 11000
  140.5952  134.0223  155.7515 LP  0  0  0  0  0  0  0  0  0  0  0  0  # atno 17395 bound_to 11000

$$$$
