AV-unprocessed.smi:290|AV-procd|sdf|2234|dock6
  -GOLD-   2262022103D 1   1.00000     0.00000
 Structure written by MMmdl.
 59 62  0  0  0  0  0  0  0  0  2 V2000
  149.9152  141.5854  157.0399 C   0  0  0  0  0  0  0  0  0  0  0  0
  150.5641  140.9837  155.7839 C   0  0  1  0  0  0  0  0  0  0  0  0
  151.5291  140.0239  156.2053 O   0  0  0  0  0  0  0  0  0  0  0  0
  151.6604  139.0421  155.1934 C   0  0  0  0  0  0  0  0  0  0  0  0
  150.2168  138.8215  154.7687 C   0  0  0  0  0  0  0  0  0  0  0  0
  149.6265  140.2301  154.7973 C   0  0  2  0  0  0  0  0  0  0  0  0
  149.8075  140.8015  153.5125 O   0  0  0  0  0  0  0  0  0  0  0  0
  148.1109  140.2587  155.1283 C   0  0  0  0  0  0  0  0  0  0  0  0
  147.3147  139.3906  154.2731 N   0  0  0  0  0  0  0  0  0  0  0  0
  147.1805  139.4790  152.9074 C   0  0  0  0  0  0  0  0  0  0  0  0
  146.4020  138.5823  152.3684 N   0  0  0  0  0  0  0  0  0  0  0  0
  145.9741  137.8009  153.4374 C   0  0  0  0  0  0  0  0  0  0  0  0
  145.1182  136.6658  153.5777 C   0  0  0  0  0  0  0  0  0  0  0  0
  144.4745  136.0265  152.5641 N   0  0  0  0  0  0  0  0  0  0  0  0
  144.8114  136.3317  151.1833 C   0  0  0  0  0  0  0  0  0  0  0  0
  144.6699  135.0086  150.4427 C   0  0  0  0  0  0  0  0  0  0  0  0
  143.5854  134.2498  151.2247 C   0  0  1  0  0  0  0  0  0  0  0  0
  143.6783  132.7733  151.0071 N   0  3  1  0  0  0  0  0  0  0  0  0
  143.6783  132.3541  149.5843 C   0  0  0  0  0  0  0  0  0  0  0  0
  144.7996  132.1422  151.7554 C   0  0  0  0  0  0  0  0  0  0  0  0
  146.1573  132.4187  151.0891 C   0  0  0  0  0  0  0  0  0  0  0  0
  147.1887  131.8038  151.8320 O   0  0  0  0  0  0  0  0  0  0  0  0
  143.8326  134.7199  152.6825 C   0  0  2  0  0  0  0  0  0  0  0  0
  142.5384  134.8391  153.5169 C   0  0  0  0  0  0  0  0  0  0  0  0
  144.9321  136.1824  154.8342 N   0  0  0  0  0  0  0  0  0  0  0  0
  145.5357  136.7515  155.8806 C   0  0  0  0  0  0  0  0  0  0  0  0
  146.3547  137.8028  155.8980 N   0  0  0  0  0  0  0  0  0  0  0  0
  146.5448  138.3020  154.6442 C   0  0  0  0  0  0  0  0  0  0  0  0
  142.6053  134.6016  150.8970 H   0  0  0  0  0  0  0  0  0  0  0  0
  144.5374  134.0361  153.1535 H   0  0  0  0  0  0  0  0  0  0  0  0
  149.1696  142.3374  156.7812 H   0  0  0  0  0  0  0  0  0  0  0  0
  150.6657  142.0727  157.6628 H   0  0  0  0  0  0  0  0  0  0  0  0
  149.4343  140.8205  157.6497 H   0  0  0  0  0  0  0  0  0  0  0  0
  151.1018  141.7783  155.2628 H   0  0  0  0  0  0  0  0  0  0  0  0
  152.2598  139.4341  154.3701 H   0  0  0  0  0  0  0  0  0  0  0  0
  152.1341  138.1353  155.5693 H   0  0  0  0  0  0  0  0  0  0  0  0
  150.1246  138.3210  153.8038 H   0  0  0  0  0  0  0  0  0  0  0  0
  149.7280  138.1947  155.5155 H   0  0  0  0  0  0  0  0  0  0  0  0
  149.6620  140.1316  152.8620 H   0  0  0  0  0  0  0  0  0  0  0  0
  147.9407  139.9462  156.1587 H   0  0  0  0  0  0  0  0  0  0  0  0
  147.7201  141.2735  155.0445 H   0  0  0  0  0  0  0  0  0  0  0  0
  147.6761  140.2380  152.3194 H   0  0  0  0  0  0  0  0  0  0  0  0
  144.1030  137.0681  150.8026 H   0  0  0  0  0  0  0  0  0  0  0  0
  145.8189  136.7352  151.0724 H   0  0  0  0  0  0  0  0  0  0  0  0
  144.4288  135.1619  149.3910 H   0  0  0  0  0  0  0  0  0  0  0  0
  145.6155  134.4663  150.4936 H   0  0  0  0  0  0  0  0  0  0  0  0
  144.5059  132.8135  149.0423 H   0  0  0  0  0  0  0  0  0  0  0  0
  142.7433  132.6166  149.0907 H   0  0  0  0  0  0  0  0  0  0  0  0
  143.7814  131.2734  149.4915 H   0  0  0  0  0  0  0  0  0  0  0  0
  144.8021  132.5080  152.7835 H   0  0  0  0  0  0  0  0  0  0  0  0
  144.6753  131.0632  151.8353 H   0  0  0  0  0  0  0  0  0  0  0  0
  146.1875  132.0661  150.0585 H   0  0  0  0  0  0  0  0  0  0  0  0
  146.3466  133.4922  151.0640 H   0  0  0  0  0  0  0  0  0  0  0  0
  147.9463  131.7066  151.2746 H   0  0  0  0  0  0  0  0  0  0  0  0
  142.0354  133.8838  153.6486 H   0  0  0  0  0  0  0  0  0  0  0  0
  141.8292  135.5183  153.0429 H   0  0  0  0  0  0  0  0  0  0  0  0
  142.7360  135.2292  154.5148 H   0  0  0  0  0  0  0  0  0  0  0  0
  145.3335  136.2998  156.8408 H   0  0  0  0  0  0  0  0  0  0  0  0
  142.8337  132.3932  151.4110 H   0  0  0  0  0  0  0  0  0  0  0  0
  1  2  1  0  0  0  0
  1 31  1  0  0  0  0
  1 32  1  0  0  0  0
  1 33  1  0  0  0  0
  2  6  1  0  0  0  0
  2  3  1  0  0  0  0
  2 34  1  0  0  0  0
  3  4  1  0  0  0  0
  4  5  1  0  0  0  0
  4 35  1  0  0  0  0
  4 36  1  0  0  0  0
  5  6  1  0  0  0  0
  5 37  1  0  0  0  0
  5 38  1  0  0  0  0
  6  7  1  0  0  0  0
  6  8  1  0  0  0  0
  7 39  1  0  0  0  0
  8  9  1  0  0  0  0
  8 40  1  0  0  0  0
  8 41  1  0  0  0  0
  9 28  1  0  0  0  0
  9 10  1  0  0  0  0
 10 11  2  0  0  0  0
 10 42  1  0  0  0  0
 11 12  1  0  0  0  0
 12 28  2  0  0  0  0
 12 13  1  0  0  0  0
 13 14  1  0  0  0  0
 13 25  2  0  0  0  0
 14 23  1  0  0  0  0
 14 15  1  0  0  0  0
 15 16  1  0  0  0  0
 15 43  1  0  0  0  0
 15 44  1  0  0  0  0
 16 17  1  0  0  0  0
 16 45  1  0  0  0  0
 16 46  1  0  0  0  0
 17 29  1  0  0  0  0
 17 18  1  0  0  0  0
 17 23  1  0  0  0  0
 18 19  1  0  0  0  0
 18 20  1  0  0  0  0
 18 59  1  0  0  0  0
 19 47  1  0  0  0  0
 19 48  1  0  0  0  0
 19 49  1  0  0  0  0
 20 21  1  0  0  0  0
 20 50  1  0  0  0  0
 20 51  1  0  0  0  0
 21 22  1  0  0  0  0
 21 52  1  0  0  0  0
 21 53  1  0  0  0  0
 22 54  1  0  0  0  0
 23 30  1  0  0  0  0
 23 24  1  0  0  0  0
 24 55  1  0  0  0  0
 24 56  1  0  0  0  0
 24 57  1  0  0  0  0
 25 26  1  0  0  0  0
 26 27  2  0  0  0  0
 26 58  1  0  0  0  0
 27 28  1  0  0  0  0
M  CHG  1  18   1
M  END
> <s_m_source_file>
AV-unprocessed.smi

> <i_m_source_file_index>
290

> <i_lp_mmshare_version>
43012

> <i_f3d_flags>
0

> <s_epik_input>
W0NIMl0xW0NIMl1PW0NAQEhdKFtDSDNdKVtDQEBdMShbT0hdKVtDSDJdbihbY0hdbjIpYyhjMjMpbltjSF1uYzNONFtDSDJdW0NIMl1bQ0BIXShbQ0BIXTRbQ0gzXSlOKFtDSDNdKVtDSDJdW0NIMl1bT0hd

> <s_epik_cmdline>
J2VwaWtfcHl0aG9uJywgJy1waCcsICc3LjAnLCAnLXRuJywgJzgnLCAnLW1hJywgJzIwMCcsICctbWV0YWxfYmluZGluZycsICctaW1hZScsICc8aW5maWxlLm1hZT4nLCAnLW9tYWUnLCAnPG91dGZpbGUubWFlPic=

> <r_lp_tautomer_probability>
1

> <r_epik_Ionization_Penalty>
0.0036983

> <r_epik_Ionization_Penalty_Charging>
0.0032725

> <r_epik_Ionization_Penalty_Neutral>
0.000425798

> <r_epik_State_Penalty>
-0

> <r_epik_Charging_Adjusted_Penalty>
0.0032725

> <i_epik_Tot_Q>
1

> <i_epik_Tot_abs_Q>
1

> <r_epik_Metal_State_Penalty>
-0

> <b_epik_Metal_Only>
0

> <s_lp_Force_Field>
OPLS_2005

> <r_lp_Energy>
60.3603

> <b_lp_Chiralities_Consistent>
1

> <s_lp_Variant>
AV-unprocessed.smi:290-20

> <Gold.Version>
5.8.1

> <Gold.Id.Protein>
6NUR|6NUR_protein|mol2

> <Gold.PLP.Fitness>
51.8881

> <Gold.PLP.PLP>
-40.0896

> <Gold.PLP.part.hbond>
-3.4379

> <Gold.PLP.part.metal>
0.0000

> <Gold.PLP.part.buried>
-2.1942

> <Gold.PLP.part.nonpolar>
-35.7033

> <Gold.PLP.part.repulsive>
0.3419

> <Gold.PLP.ligand.clash>
0.0000

> <Gold.PLP.ligand.torsion>
0.3610

> <Gold.PLP.Chemscore.Hbond>
3.0880

> <Gold.PLP.Chemscore.CHOScore>
0.9559

> <Gold.PLP.Chemscore.Metal>
0.0000

> <Gold.Chemscore.Hbonds>
donor molecule, donor type, donor heavy atom, donor atom, acceptor molecule, acceptor atom, score
      L1  H     7    39       P1  7957  0.74
      L1  H    22    54       P1 10747  1.00
      P1  H  7989  7998       L1     7  0.35
      P1  H  8011  8017       L1     7  0.95
      L1  C    10    42       P1  7957  0.96

> <Gold.PLP.Chemscore.Internal.Correction>
0.3889

> <Gold.Rescore>
     Score         DG    S(hbond)    S(metal)    S(lipo)     H(rot)  DE(clash)    DE(int)     intcor
     11.21     -15.93       2.29        0.00      97.38       3.35       1.30       3.42       ----

> <Gold.Chemscore.Fitness>
11.2121

> <Gold.Chemscore.DG>
-15.9323

> <Gold.Chemscore.ZeroCoef>
-5.4800

> <Gold.Chemscore.Hbond>
2.2873

> <Gold.Chemscore.Metal>
0.0000

> <Gold.Chemscore.Lipo>
97.3778

> <Gold.Chemscore.Internal_Hbond>
0.0000

> <Gold.Chemscore.DEClash>
1.2999

> <Gold.Chemscore.DEInternal>
3.4203

> <Gold.Chemscore.Rot>
3.3518

> <Gold.Chemscore.Internal.Correction>
   9.000000E+99

> <Gold.Chemscore.Hbonds>
donor molecule, donor type, donor heavy atom, donor atom, acceptor molecule, acceptor atom, score
      L1  H     7    39       P1  7957  0.74
      L1  H    22    54       P1 10747  0.98
      P1  H  7989  7998       L1     7  0.02
      P1  H  8011  8017       L1     7  0.20

> <Gold.Chemscore.Hbond.Weighted>
-7.6396

> <Gold.Chemscore.Metal.Weighted>
-0.0000

> <Gold.Chemscore.Lipo.Weighted>
-11.3932

> <Gold.Chemscore.Internal_Hbond.Weighted>
0.0000

> <Gold.Chemscore.DEClash.Weighted>
1.2999

> <Gold.Chemscore.DEInternal.Weighted>
3.4203

> <Gold.Chemscore.Rot.Weighted>
8.5806

> <Gold.Chemscore.Internal.Correction.Weighted>
   9.000000E+99

> <Gold.Protein.RotatedTorsions>
[ 6907 6896 6895 6894 ] final  101.60 input  -60.11 | X-H torsion
[ 7974 7965 7964 7962 ] final   54.80 input  175.53 | X-H torsion
[ 8008 7997 7996 7995 ] final -115.77 input   59.86 | X-H torsion
[ 10167 10162 10161 10158 ] final   77.61 input  -65.29 | X-H torsion
[ 10718 10713 10712 10709 ] final -135.13 input   66.30 | X-H torsion
[ 10763 10752 10751 10750 ] final  113.39 input  -60.55 | X-H torsion
[ 11005 11000 10999 10996 ] final  -40.48 input  -57.11 | X-H torsion

> <Gold.Protein.ActiveResidues>
 VAL166  LYS551  ARG553  GLY616  TRP617  ASP618  TYR619  PRO620  LYS621  CYS622 
 ASP623  PHE694  ASN695  SER759  ASP760  ASP761  ALA762  ILE779  LEU786  VAL792 
 PHE793  MET794  SER795  GLU796  ALA797  LYS798  CYS799  TRP800  GLU811  SER814 

> <Gold.Protein.RotatedAtoms>
  152.5345  134.0101  159.7934 H   0  0  0  0  0  0  0  0  0  0  0  0  # atno 6907 bound_to 6896
  151.0305  133.5787  159.2668 H   0  0  0  0  0  0  0  0  0  0  0  0  # atno 6908 bound_to 6896
  151.2794  135.0716  159.9217 H   0  0  0  0  0  0  0  0  0  0  0  0  # atno 6909 bound_to 6896
  145.9571  139.4025  143.0271 H   0  0  0  0  0  0  0  0  0  0  0  0  # atno 7974 bound_to 7965
  155.0573  140.0393  157.2564 H   0  0  0  0  0  0  0  0  0  0  0  0  # atno 8008 bound_to 7997
  154.7088  140.2688  155.6625 H   0  0  0  0  0  0  0  0  0  0  0  0  # atno 8009 bound_to 7997
  156.2783  140.2726  156.1723 H   0  0  0  0  0  0  0  0  0  0  0  0  # atno 8010 bound_to 7997
  139.9797  144.5835  150.7911 H   0  0  0  0  0  0  0  0  0  0  0  0  # atno 10167 bound_to 10162
  156.2628  130.7220  151.1160 H   0  0  0  0  0  0  0  0  0  0  0  0  # atno 10718 bound_to 10713
  153.4917  135.3657  155.2495 H   0  0  0  0  0  0  0  0  0  0  0  0  # atno 10763 bound_to 10752
  154.8752  135.3979  154.3581 H   0  0  0  0  0  0  0  0  0  0  0  0  # atno 10764 bound_to 10752
  153.4201  135.7080  153.6365 H   0  0  0  0  0  0  0  0  0  0  0  0  # atno 10765 bound_to 10752
  141.0178  133.6877  156.2327 H   0  0  0  0  0  0  0  0  0  0  0  0  # atno 11005 bound_to 11000
  145.8091  140.9734  143.0958 LP  0  0  0  0  0  0  0  0  0  0  0  0  # atno 17320 bound_to 7965
  144.6807  139.9898  143.7484 LP  0  0  0  0  0  0  0  0  0  0  0  0  # atno 17321 bound_to 7965
  140.7493  143.2937  151.3262 LP  0  0  0  0  0  0  0  0  0  0  0  0  # atno 17342 bound_to 10162
  139.6419  144.0524  152.2561 LP  0  0  0  0  0  0  0  0  0  0  0  0  # atno 17343 bound_to 10162
  157.7257  131.0651  150.5943 LP  0  0  0  0  0  0  0  0  0  0  0  0  # atno 17370 bound_to 10713
  156.6032  130.4360  149.5888 LP  0  0  0  0  0  0  0  0  0  0  0  0  # atno 17371 bound_to 10713
  140.6625  134.4952  157.5584 LP  0  0  0  0  0  0  0  0  0  0  0  0  # atno 17394 bound_to 11000
  139.9127  134.8310  156.1471 LP  0  0  0  0  0  0  0  0  0  0  0  0  # atno 17395 bound_to 11000

$$$$
