AV-unprocessed.smi:110|AV-procd|sdf|1077|dock9
  -GOLD-   2262018163D 1   1.00000     0.00000
 Structure written by MMmdl.
 46 50  0  0  0  0  0  0  0  0  1 V2000
  147.7832  135.6300  154.3263 O   0  0  0  0  0  0  0  0  0  0  0  0
  146.6722  136.4359  153.9962 C   0  0  0  0  0  0  0  0  0  0  0  0
  146.8543  137.8523  154.5710 C   0  0  1  0  0  0  0  0  0  0  0  0
  148.1706  138.3434  154.3195 O   0  0  0  0  0  0  0  0  0  0  0  0
  148.1675  139.7359  154.2016 C   0  0  2  0  0  0  0  0  0  0  0  0
  149.0091  140.3046  155.3021 N   0  0  0  0  0  0  0  0  0  0  0  0
  148.6101  141.2014  156.2674 C   0  0  0  0  0  0  0  0  0  0  0  0
  149.5309  141.5524  157.1222 N   0  0  0  0  0  0  0  0  0  0  0  0
  150.6644  140.8651  156.7057 C   0  0  0  0  0  0  0  0  0  0  0  0
  152.0066  140.7779  157.1748 C   0  0  0  0  0  0  0  0  0  0  0  0
  152.4891  141.4326  158.2563 N   0  0  0  0  0  0  0  0  0  0  0  0
  153.0364  140.6374  159.3653 C   0  0  0  0  0  0  0  0  0  0  0  0
  152.9984  141.5113  160.6334 C   0  0  0  0  0  0  0  0  0  0  0  0
  152.4673  142.7936  160.0802 C   0  0  0  0  0  0  0  0  0  0  0  0
  152.2533  143.9977  160.7733 C   0  0  0  0  0  0  0  0  0  0  0  0
  151.7594  145.1033  160.0482 C   0  0  0  0  0  0  0  0  0  0  0  0
  151.4995  144.9913  158.6624 C   0  0  0  0  0  0  0  0  0  0  0  0
  151.7238  143.7716  157.9867 C   0  0  0  0  0  0  0  0  0  0  0  0
  152.1991  142.6658  158.7212 C   0  0  0  0  0  0  0  0  0  0  0  0
  152.8485  139.9366  156.5233 N   0  0  0  0  0  0  0  0  0  0  0  0
  152.4213  139.2539  155.4583 C   0  0  0  0  0  0  0  0  0  0  0  0
  151.2091  139.2508  154.9022 N   0  0  0  0  0  0  0  0  0  0  0  0
  150.3458  140.0722  155.5659 C   0  0  0  0  0  0  0  0  0  0  0  0
  146.7104  140.2114  154.2957 C   0  0  1  0  0  0  0  0  0  0  0  0
  146.3974  141.2548  153.3918 O   0  0  0  0  0  0  0  0  0  0  0  0
  145.9446  138.9330  153.9723 C   0  0  1  0  0  0  0  0  0  0  0  0
  145.7862  138.7355  152.5757 O   0  0  0  0  0  0  0  0  0  0  0  0
  146.6821  137.8319  155.6471 H   0  0  0  0  0  0  0  0  0  0  0  0
  148.6658  140.0247  153.2751 H   0  0  0  0  0  0  0  0  0  0  0  0
  146.4826  140.5272  155.3139 H   0  0  0  0  0  0  0  0  0  0  0  0
  144.9556  138.9293  154.4316 H   0  0  0  0  0  0  0  0  0  0  0  0
  148.3947  135.6519  153.6061 H   0  0  0  0  0  0  0  0  0  0  0  0
  146.5300  136.4596  152.9154 H   0  0  0  0  0  0  0  0  0  0  0  0
  145.7898  135.9653  154.4308 H   0  0  0  0  0  0  0  0  0  0  0  0
  147.6022  141.5863  156.3241 H   0  0  0  0  0  0  0  0  0  0  0  0
  152.4554  139.7249  159.5073 H   0  0  0  0  0  0  0  0  0  0  0  0
  154.0607  140.3461  159.1307 H   0  0  0  0  0  0  0  0  0  0  0  0
  152.3219  141.1096  161.3881 H   0  0  0  0  0  0  0  0  0  0  0  0
  153.9878  141.6505  161.0692 H   0  0  0  0  0  0  0  0  0  0  0  0
  152.4644  144.0760  161.8296 H   0  0  0  0  0  0  0  0  0  0  0  0
  151.5857  146.0422  160.5530 H   0  0  0  0  0  0  0  0  0  0  0  0
  151.1306  145.8460  158.1152 H   0  0  0  0  0  0  0  0  0  0  0  0
  151.5354  143.6953  156.9259 H   0  0  0  0  0  0  0  0  0  0  0  0
  153.1545  138.6173  154.9855 H   0  0  0  0  0  0  0  0  0  0  0  0
  145.5490  141.0781  153.0144 H   0  0  0  0  0  0  0  0  0  0  0  0
  145.0446  139.2459  152.2871 H   0  0  0  0  0  0  0  0  0  0  0  0
  1  2  1  0  0  0  0
  1 32  1  0  0  0  0
  2  3  1  0  0  0  0
  2 33  1  0  0  0  0
  2 34  1  0  0  0  0
  3 28  1  0  0  0  0
  3 26  1  0  0  0  0
  3  4  1  0  0  0  0
  4  5  1  0  0  0  0
  5 29  1  0  0  0  0
  5  6  1  0  0  0  0
  5 24  1  0  0  0  0
  6 23  1  0  0  0  0
  6  7  1  0  0  0  0
  7  8  2  0  0  0  0
  7 35  1  0  0  0  0
  8  9  1  0  0  0  0
  9 23  2  0  0  0  0
  9 10  1  0  0  0  0
 10 11  1  0  0  0  0
 10 20  2  0  0  0  0
 11 19  1  0  0  0  0
 11 12  1  0  0  0  0
 12 13  1  0  0  0  0
 12 36  1  0  0  0  0
 12 37  1  0  0  0  0
 13 14  1  0  0  0  0
 13 38  1  0  0  0  0
 13 39  1  0  0  0  0
 14 19  2  0  0  0  0
 14 15  1  0  0  0  0
 15 16  2  0  0  0  0
 15 40  1  0  0  0  0
 16 17  1  0  0  0  0
 16 41  1  0  0  0  0
 17 18  2  0  0  0  0
 17 42  1  0  0  0  0
 18 19  1  0  0  0  0
 18 43  1  0  0  0  0
 20 21  1  0  0  0  0
 21 22  2  0  0  0  0
 21 44  1  0  0  0  0
 22 23  1  0  0  0  0
 24 30  1  0  0  0  0
 24 25  1  0  0  0  0
 24 26  1  0  0  0  0
 25 45  1  0  0  0  0
 26 31  1  0  0  0  0
 26 27  1  0  0  0  0
 27 46  1  0  0  0  0
M  END
> <s_m_source_file>
AV-unprocessed.smi

> <i_m_source_file_index>
110

> <i_lp_mmshare_version>
43012

> <i_f3d_flags>
0

> <s_epik_input>
W09IXVtDSDJdW0NASF0xT1tDQEhdKFtDQEhdKFtPSF0pW0NAQEhdMVtPSF0pbihbY0hdbjIpYyhjMjMpbltjSF1uYzNOKFtDSDJdW0NIMl00KWMoYzQ1KVtjSF1bY0hdW2NIXVtjSF01

> <s_epik_cmdline>
J2VwaWtfcHl0aG9uJywgJy1waCcsICc3LjAnLCAnLXRuJywgJzgnLCAnLW1hJywgJzIwMCcsICctbWV0YWxfYmluZGluZycsICctaW1hZScsICc8aW5maWxlLm1hZT4nLCAnLW9tYWUnLCAnPG91dGZpbGUubWFlPic=

> <r_lp_tautomer_probability>
1

> <r_epik_Ionization_Penalty>
0.00068475

> <r_epik_Ionization_Penalty_Charging>
0

> <r_epik_Ionization_Penalty_Neutral>
0.00068475

> <r_epik_State_Penalty>
0.000417442

> <r_epik_Charging_Adjusted_Penalty>
0.000417442

> <i_epik_Tot_Q>
0

> <i_epik_Tot_abs_Q>
0

> <r_epik_Metal_State_Penalty>
-0

> <b_epik_Metal_Only>
0

> <s_epik_Chemistry_Notes>
This compound contains an acetal/aminal-like group ( X-CH(R)-Y where X, Y are N, S, or O) that may be acid/base labile, releasing an aldehyde.

> <s_lp_Force_Field>
OPLS_2005

> <r_lp_Energy>
64.5887

> <b_lp_Chiralities_Consistent>
1

> <s_lp_Variant>
AV-unprocessed.smi:110-15

> <Gold.Version>
5.8.1

> <Gold.Id.Protein>
6NUR|6NUR_protein|mol2

> <Gold.PLP.Fitness>
56.8852

> <Gold.PLP.PLP>
-46.0973

> <Gold.PLP.part.hbond>
-4.2342

> <Gold.PLP.part.metal>
0.0000

> <Gold.PLP.part.buried>
-4.0948

> <Gold.PLP.part.nonpolar>
-37.2995

> <Gold.PLP.part.repulsive>
0.3059

> <Gold.PLP.ligand.clash>
0.0000

> <Gold.PLP.ligand.torsion>
0.9150

> <Gold.PLP.Chemscore.Hbond>
4.1609

> <Gold.PLP.Chemscore.CHOScore>
0.0000

> <Gold.PLP.Chemscore.Metal>
0.0000

> <Gold.Chemscore.Hbonds>
donor molecule, donor type, donor heavy atom, donor atom, acceptor molecule, acceptor atom, score
      L1  H     1    32       P1  7948  1.00
      L1  H    25    45       P1 10175  0.95
      L1  H    27    46       P1 10175  1.00
      P1  H  7989  7998       L1    22  0.24
      P1  H  7997  8008       L1    20  1.00

> <Gold.PLP.Chemscore.Internal.Correction>
0.1352

> <Gold.Rescore>
     Score         DG    S(hbond)    S(metal)    S(lipo)     H(rot)  DE(clash)    DE(int)     intcor
     19.64     -20.99       3.67        0.00     101.70       3.38       0.21       1.14       ----

> <Gold.Chemscore.Fitness>
19.6361

> <Gold.Chemscore.DG>
-20.9909

> <Gold.Chemscore.ZeroCoef>
-5.4800

> <Gold.Chemscore.Hbond>
3.6749

> <Gold.Chemscore.Metal>
0.0000

> <Gold.Chemscore.Lipo>
101.7011

> <Gold.Chemscore.Internal_Hbond>
0.0000

> <Gold.Chemscore.DEClash>
0.2103

> <Gold.Chemscore.DEInternal>
1.1445

> <Gold.Chemscore.Rot>
3.3837

> <Gold.Chemscore.Internal.Correction>
   9.000000E+99

> <Gold.Chemscore.Hbonds>
donor molecule, donor type, donor heavy atom, donor atom, acceptor molecule, acceptor atom, score
      L1  H     1    32       P1  7948  0.97
      L1  H    25    45       P1 10175  0.20
      L1  H    27    46       P1 10175  0.99
      P1  H  7997  8008       L1    20  0.36

> <Gold.Chemscore.Hbond.Weighted>
-12.2741

> <Gold.Chemscore.Metal.Weighted>
-0.0000

> <Gold.Chemscore.Lipo.Weighted>
-11.8990

> <Gold.Chemscore.Internal_Hbond.Weighted>
0.0000

> <Gold.Chemscore.DEClash.Weighted>
0.2103

> <Gold.Chemscore.DEInternal.Weighted>
1.1445

> <Gold.Chemscore.Rot.Weighted>
8.6622

> <Gold.Chemscore.Internal.Correction.Weighted>
   9.000000E+99

> <Gold.Protein.RotatedTorsions>
[ 6907 6896 6895 6894 ] final  -84.48 input  -60.11 | X-H torsion
[ 7974 7965 7964 7962 ] final   21.96 input  175.53 | X-H torsion
[ 8008 7997 7996 7995 ] final  -33.37 input   59.86 | X-H torsion
[ 10167 10162 10161 10158 ] final   24.51 input  -65.29 | X-H torsion
[ 10718 10713 10712 10709 ] final  -25.68 input   66.30 | X-H torsion
[ 10763 10752 10751 10750 ] final -101.68 input  -60.55 | X-H torsion
[ 11005 11000 10999 10996 ] final    7.75 input  -57.11 | X-H torsion

> <Gold.Protein.ActiveResidues>
 VAL166  LYS551  ARG553  GLY616  TRP617  ASP618  TYR619  PRO620  LYS621  CYS622 
 ASP623  PHE694  ASN695  SER759  ASP760  ASP761  ALA762  ILE779  LEU786  VAL792 
 PHE793  MET794  SER795  GLU796  ALA797  LYS798  CYS799  TRP800  GLU811  SER814 

> <Gold.Protein.RotatedAtoms>
  150.6876  134.3352  159.4843 H   0  0  0  0  0  0  0  0  0  0  0  0  # atno 6907 bound_to 6896
  152.1212  134.9201  160.0572 H   0  0  0  0  0  0  0  0  0  0  0  0  # atno 6908 bound_to 6896
  152.0407  133.3941  159.4372 H   0  0  0  0  0  0  0  0  0  0  0  0  # atno 6909 bound_to 6896
  146.2049  139.7953  142.8733 H   0  0  0  0  0  0  0  0  0  0  0  0  # atno 7974 bound_to 7965
  154.4151  140.1712  156.1878 H   0  0  0  0  0  0  0  0  0  0  0  0  # atno 8008 bound_to 7997
  155.9629  140.3392  155.6482 H   0  0  0  0  0  0  0  0  0  0  0  0  # atno 8009 bound_to 7997
  155.6726  140.0713  157.2505 H   0  0  0  0  0  0  0  0  0  0  0  0  # atno 8010 bound_to 7997
  140.5182  144.0046  150.6404 H   0  0  0  0  0  0  0  0  0  0  0  0  # atno 10167 bound_to 10162
  156.4612  130.4504  149.6927 H   0  0  0  0  0  0  0  0  0  0  0  0  # atno 10718 bound_to 10713
  154.7676  135.4889  153.9585 H   0  0  0  0  0  0  0  0  0  0  0  0  # atno 10763 bound_to 10752
  153.1327  135.6756  153.9160 H   0  0  0  0  0  0  0  0  0  0  0  0  # atno 10764 bound_to 10752
  153.8859  135.3126  155.3425 H   0  0  0  0  0  0  0  0  0  0  0  0  # atno 10765 bound_to 10752
  140.5448  134.0340  155.7916 H   0  0  0  0  0  0  0  0  0  0  0  0  # atno 11005 bound_to 11000
  145.3354  141.0276  143.3423 LP  0  0  0  0  0  0  0  0  0  0  0  0  # atno 17320 bound_to 7965
  144.8769  139.4958  143.6741 LP  0  0  0  0  0  0  0  0  0  0  0  0  # atno 17321 bound_to 7965
  140.3388  143.3032  152.0610 LP  0  0  0  0  0  0  0  0  0  0  0  0  # atno 17342 bound_to 10162
  139.4915  144.6457  151.6783 LP  0  0  0  0  0  0  0  0  0  0  0  0  # atno 17343 bound_to 10162
  156.3715  130.7533  151.2516 LP  0  0  0  0  0  0  0  0  0  0  0  0  # atno 17370 bound_to 10713
  157.7497  131.0322  150.4215 LP  0  0  0  0  0  0  0  0  0  0  0  0  # atno 17371 bound_to 10713
  141.1206  133.9467  157.2736 LP  0  0  0  0  0  0  0  0  0  0  0  0  # atno 17394 bound_to 11000
  139.9485  135.0180  156.8925 LP  0  0  0  0  0  0  0  0  0  0  0  0  # atno 17395 bound_to 11000

$$$$
