AV-unprocessed.smi:1535|AV-procd|sdf|6178|dock3
  -GOLD-   22720 6333D 1   1.00000     0.00000
 Structure written by MMmdl.
 47 48  0  0  0  0  0  0  0  0  2 V2000
  153.0509  142.4709  161.8994 C   0  0  0  0  0  0  0  0  0  0  0  0
  152.5297  142.2780  160.4861 C   0  0  0  0  0  0  0  0  0  0  0  0
  152.8642  141.0971  159.7863 C   0  0  0  0  0  0  0  0  0  0  0  0
  152.3990  140.8781  158.4714 C   0  0  0  0  0  0  0  0  0  0  0  0
  152.6028  139.8118  157.6131 N   0  0  0  0  0  0  0  0  0  0  0  0
  151.9148  140.1941  156.5420 C   0  0  0  0  0  0  0  0  0  0  0  0
  151.2988  141.3910  156.5988 N   0  0  0  0  0  0  0  0  0  0  0  0
  150.5040  142.0138  155.5546 C   0  0  0  0  0  0  0  0  0  0  0  0
  149.5068  141.0369  154.8998 C   0  0  2  0  0  0  0  0  0  0  0  0
  150.2344  140.1693  154.0550 O   0  0  0  0  0  0  0  0  0  0  0  0
  148.4076  141.7316  154.0644 C   0  0  0  0  0  0  0  0  0  0  0  0
  147.3261  142.2733  154.9237 N   0  3  2  0  0  0  0  0  0  0  0  0
  147.0345  141.3944  156.0786 C   0  0  0  0  0  0  0  0  0  0  0  0
  146.1008  142.6373  154.1646 C   0  0  0  0  0  0  0  0  0  0  0  0
  145.2523  143.6795  154.9136 C   0  0  2  0  0  0  0  0  0  0  0  0
  144.3446  143.0198  155.9593 C   0  0  0  0  0  0  0  0  0  0  0  0
  144.4604  144.4906  153.9744 C   0  0  0  0  0  0  0  0  0  0  0  0
  143.8407  145.1316  153.2379 N   0  0  0  0  0  0  0  0  0  0  0  0
  151.5821  141.8803  157.8703 C   0  0  0  0  0  0  0  0  0  0  0  0
  151.2381  143.0570  158.5592 C   0  0  0  0  0  0  0  0  0  0  0  0
  151.7150  143.2618  159.8707 C   0  0  0  0  0  0  0  0  0  0  0  0
  151.3408  144.5377  160.6041 C   0  0  0  0  0  0  0  0  0  0  0  0
  153.6326  141.6101  162.2308 H   0  0  0  0  0  0  0  0  0  0  0  0
  152.2236  142.6032  162.5968 H   0  0  0  0  0  0  0  0  0  0  0  0
  153.6940  143.3497  161.9535 H   0  0  0  0  0  0  0  0  0  0  0  0
  153.4828  140.3461  160.2558 H   0  0  0  0  0  0  0  0  0  0  0  0
  151.8635  139.5711  155.6607 H   0  0  0  0  0  0  0  0  0  0  0  0
  149.9708  142.8617  155.9874 H   0  0  0  0  0  0  0  0  0  0  0  0
  151.1847  142.4213  154.8059 H   0  0  0  0  0  0  0  0  0  0  0  0
  149.0572  140.4255  155.6808 H   0  0  0  0  0  0  0  0  0  0  0  0
  149.7216  139.3885  153.9083 H   0  0  0  0  0  0  0  0  0  0  0  0
  148.8114  142.5486  153.4652 H   0  0  0  0  0  0  0  0  0  0  0  0
  148.0023  141.0089  153.3539 H   0  0  0  0  0  0  0  0  0  0  0  0
  146.6732  140.4201  155.7466 H   0  0  0  0  0  0  0  0  0  0  0  0
  146.2783  141.8365  156.7271 H   0  0  0  0  0  0  0  0  0  0  0  0
  147.9308  141.2396  156.6800 H   0  0  0  0  0  0  0  0  0  0  0  0
  146.3636  143.0492  153.1896 H   0  0  0  0  0  0  0  0  0  0  0  0
  145.5171  141.7392  153.9565 H   0  0  0  0  0  0  0  0  0  0  0  0
  145.9118  144.3743  155.4336 H   0  0  0  0  0  0  0  0  0  0  0  0
  143.7689  143.7690  156.5037 H   0  0  0  0  0  0  0  0  0  0  0  0
  144.9277  142.4571  156.6888 H   0  0  0  0  0  0  0  0  0  0  0  0
  143.6383  142.3325  155.4925 H   0  0  0  0  0  0  0  0  0  0  0  0
  150.6107  143.7968  158.0852 H   0  0  0  0  0  0  0  0  0  0  0  0
  150.7641  145.2088  159.9671 H   0  0  0  0  0  0  0  0  0  0  0  0
  152.2346  145.0716  160.9268 H   0  0  0  0  0  0  0  0  0  0  0  0
  150.7376  144.3085  161.4829 H   0  0  0  0  0  0  0  0  0  0  0  0
  147.6982  143.1308  155.3075 H   0  0  0  0  0  0  0  0  0  0  0  0
  1  2  1  0  0  0  0
  1 23  1  0  0  0  0
  1 24  1  0  0  0  0
  1 25  1  0  0  0  0
  2 21  1  0  0  0  0
  2  3  2  0  0  0  0
  3  4  1  0  0  0  0
  3 26  1  0  0  0  0
  4 19  2  0  0  0  0
  4  5  1  0  0  0  0
  5  6  2  0  0  0  0
  6  7  1  0  0  0  0
  6 27  1  0  0  0  0
  7  8  1  0  0  0  0
  7 19  1  0  0  0  0
  8  9  1  0  0  0  0
  8 28  1  0  0  0  0
  8 29  1  0  0  0  0
  9 10  1  0  0  0  0
  9 11  1  0  0  0  0
  9 30  1  0  0  0  0
 10 31  1  0  0  0  0
 11 12  1  0  0  0  0
 11 32  1  0  0  0  0
 11 33  1  0  0  0  0
 12 13  1  0  0  0  0
 12 14  1  0  0  0  0
 12 47  1  0  0  0  0
 13 34  1  0  0  0  0
 13 35  1  0  0  0  0
 13 36  1  0  0  0  0
 14 15  1  0  0  0  0
 14 37  1  0  0  0  0
 14 38  1  0  0  0  0
 15 16  1  0  0  0  0
 15 17  1  0  0  0  0
 15 39  1  0  0  0  0
 16 40  1  0  0  0  0
 16 41  1  0  0  0  0
 16 42  1  0  0  0  0
 17 18  3  0  0  0  0
 19 20  1  0  0  0  0
 20 21  2  0  0  0  0
 20 43  1  0  0  0  0
 21 22  1  0  0  0  0
 22 44  1  0  0  0  0
 22 45  1  0  0  0  0
 22 46  1  0  0  0  0
M  CHG  1  12   1
M  END
> <s_m_source_file>
AV-unprocessed.smi

> <i_m_source_file_index>
1535

> <i_lp_mmshare_version>
43012

> <i_f3d_flags>
0

> <s_epik_input>
W0NIM11jKFtjSF0xKWMoW0NIM10pW2NIXWMoYzEyKW4oW2NIXW4yKVtDSDJdW0NASF0oW09IXSlbQ0gyXU4oW0NIM10pW0NIMl1bQ0BIXShbQ0gzXSlDI04=

> <s_epik_cmdline>
J2VwaWtfcHl0aG9uJywgJy1waCcsICc3LjAnLCAnLXRuJywgJzgnLCAnLW1hJywgJzIwMCcsICctbWV0YWxfYmluZGluZycsICctaW1hZScsICc8aW5maWxlLm1hZT4nLCAnLW9tYWUnLCAnPG91dGZpbGUubWFlPic=

> <r_epik_Ionization_Penalty>
2.21058

> <r_epik_Ionization_Penalty_Charging>
2.12381

> <r_epik_Ionization_Penalty_Neutral>
0.0867699

> <r_epik_State_Penalty>
2.36208

> <r_epik_Charging_Adjusted_Penalty>
4.48589

> <i_epik_Tot_Q>
1

> <i_epik_Tot_abs_Q>
1

> <r_epik_Metal_State_Penalty>
2.2818

> <b_epik_Metal_Only>
0

> <s_lp_Force_Field>
OPLS_2005

> <r_lp_Energy>
15.029

> <b_lp_Chiralities_Consistent>
1

> <s_lp_Variant>
AV-unprocessed.smi:1535-9

> <Gold.Version>
5.8.1

> <Gold.Id.Protein>
6NUR|6NUR_protein|mol2

> <Gold.PLP.Fitness>
59.1145

> <Gold.PLP.PLP>
-49.6578

> <Gold.PLP.part.hbond>
-5.0000

> <Gold.PLP.part.metal>
0.0000

> <Gold.PLP.part.buried>
-5.8851

> <Gold.PLP.part.nonpolar>
-37.4267

> <Gold.PLP.part.repulsive>
0.2349

> <Gold.PLP.ligand.clash>
0.0000

> <Gold.PLP.ligand.torsion>
1.0904

> <Gold.PLP.Chemscore.Hbond>
3.8302

> <Gold.PLP.Chemscore.CHOScore>
0.0000

> <Gold.PLP.Chemscore.Metal>
0.0000

> <Gold.Chemscore.Hbonds>
donor molecule, donor type, donor heavy atom, donor atom, acceptor molecule, acceptor atom, score
      L1  H    12    47       P1  8028  2.00
      P1  H  7989  7998       L1    10  0.96
      P1  H  7997  8008       L1     5  0.84

> <Gold.PLP.Chemscore.Internal.Correction>
0.1468

> <Gold.Rescore>
     Score         DG    S(hbond)    S(metal)    S(lipo)     H(rot)  DE(clash)    DE(int)     intcor
     14.66     -16.54       1.16        0.00     118.48       2.60       0.71       1.17       ----

> <Gold.Chemscore.Fitness>
14.6597

> <Gold.Chemscore.DG>
-16.5405

> <Gold.Chemscore.ZeroCoef>
-5.4800

> <Gold.Chemscore.Hbond>
1.1563

> <Gold.Chemscore.Metal>
0.0000

> <Gold.Chemscore.Lipo>
118.4835

> <Gold.Chemscore.Internal_Hbond>
0.0000

> <Gold.Chemscore.DEClash>
0.7089

> <Gold.Chemscore.DEInternal>
1.1719

> <Gold.Chemscore.Rot>
2.6031

> <Gold.Chemscore.Internal.Correction>
   9.000000E+99

> <Gold.Chemscore.Hbonds>
donor molecule, donor type, donor heavy atom, donor atom, acceptor molecule, acceptor atom, score
      L1  H    12    47       P1  8028  0.49
      P1  H  7989  7998       L1    10  0.76
      P1  H  7997  8008       L1     5  0.12

> <Gold.Chemscore.Hbond.Weighted>
-3.8619

> <Gold.Chemscore.Metal.Weighted>
-0.0000

> <Gold.Chemscore.Lipo.Weighted>
-13.8626

> <Gold.Chemscore.Internal_Hbond.Weighted>
0.0000

> <Gold.Chemscore.DEClash.Weighted>
0.7089

> <Gold.Chemscore.DEInternal.Weighted>
1.1719

> <Gold.Chemscore.Rot.Weighted>
6.6640

> <Gold.Chemscore.Internal.Correction.Weighted>
   9.000000E+99

> <Gold.Protein.RotatedTorsions>
[ 6907 6896 6895 6894 ] final  153.38 input  -60.11 | X-H torsion
[ 7974 7965 7964 7962 ] final  -55.91 input  175.53 | X-H torsion
[ 8008 7997 7996 7995 ] final  -86.72 input   59.86 | X-H torsion
[ 10167 10162 10161 10158 ] final   16.49 input  -65.29 | X-H torsion
[ 10718 10713 10712 10709 ] final   88.76 input   66.30 | X-H torsion
[ 10763 10752 10751 10750 ] final  138.16 input  -60.55 | X-H torsion
[ 11005 11000 10999 10996 ] final   64.19 input  -57.11 | X-H torsion

> <Gold.Protein.ActiveResidues>
 VAL166  LYS551  ARG553  GLY616  TRP617  ASP618  TYR619  PRO620  LYS621  CYS622 
 ASP623  PHE694  ASN695  SER759  ASP760  ASP761  ALA762  ILE779  LEU786  VAL792 
 PHE793  MET794  SER795  GLU796  ALA797  LYS798  CYS799  TRP800  GLU811  SER814 

> <Gold.Protein.RotatedAtoms>
  152.0735  133.4118  159.4469 H   0  0  0  0  0  0  0  0  0  0  0  0  # atno 6907 bound_to 6896
  150.6863  134.3064  159.4737 H   0  0  0  0  0  0  0  0  0  0  0  0  # atno 6908 bound_to 6896
  152.0898  134.9414  160.0622 H   0  0  0  0  0  0  0  0  0  0  0  0  # atno 6909 bound_to 6896
  145.8687  140.8232  142.9899 H   0  0  0  0  0  0  0  0  0  0  0  0  # atno 7974 bound_to 7965
  154.6551  140.0575  156.9999 H   0  0  0  0  0  0  0  0  0  0  0  0  # atno 8008 bound_to 7997
  155.1313  140.3257  155.4455 H   0  0  0  0  0  0  0  0  0  0  0  0  # atno 8009 bound_to 7997
  156.2593  140.1980  156.6432 H   0  0  0  0  0  0  0  0  0  0  0  0  # atno 8010 bound_to 7997
  140.5793  143.9011  150.6776 H   0  0  0  0  0  0  0  0  0  0  0  0  # atno 10167 bound_to 10162
  157.6951  131.0307  150.3324 H   0  0  0  0  0  0  0  0  0  0  0  0  # atno 10718 bound_to 10713
  153.8850  135.3040  155.3446 H   0  0  0  0  0  0  0  0  0  0  0  0  # atno 10763 bound_to 10752
  154.7743  135.4869  153.9716 H   0  0  0  0  0  0  0  0  0  0  0  0  # atno 10764 bound_to 10752
  153.1330  135.6808  153.9246 H   0  0  0  0  0  0  0  0  0  0  0  0  # atno 10765 bound_to 10752
  139.9975  134.6494  155.9986 H   0  0  0  0  0  0  0  0  0  0  0  0  # atno 11005 bound_to 11000
  144.6726  140.1206  143.7450 LP  0  0  0  0  0  0  0  0  0  0  0  0  # atno 17320 bound_to 7965
  145.9162  139.2517  143.1408 LP  0  0  0  0  0  0  0  0  0  0  0  0  # atno 17321 bound_to 7965
  140.2506  143.3596  152.1408 LP  0  0  0  0  0  0  0  0  0  0  0  0  # atno 17342 bound_to 10162
  139.5161  144.6972  151.5597 LP  0  0  0  0  0  0  0  0  0  0  0  0  # atno 17343 bound_to 10162
  156.3796  130.3878  149.7112 LP  0  0  0  0  0  0  0  0  0  0  0  0  # atno 17370 bound_to 10713
  156.4499  130.7901  151.2923 LP  0  0  0  0  0  0  0  0  0  0  0  0  # atno 17371 bound_to 10713
  141.1616  133.6538  156.4337 LP  0  0  0  0  0  0  0  0  0  0  0  0  # atno 17394 bound_to 11000
  140.4791  134.6682  157.5163 LP  0  0  0  0  0  0  0  0  0  0  0  0  # atno 17395 bound_to 11000

$$$$
