AV-unprocessed.smi:2822|AV-procd|sdf|10882|dock5
  -GOLD-   2272015323D 1   1.00000     0.00000
 Structure written by MMmdl.
 39 41  0  0  0  0  0  0  0  0  1 V2000
  149.2636  142.8841  153.5624 Cl  0  0  0  0  0  0  0  0  0  0  0  0
  150.5640  141.9362  154.1958 C   0  0  0  0  0  0  0  0  0  0  0  0
  151.0182  140.8083  153.4821 C   0  0  0  0  0  0  0  0  0  0  0  0
  152.0248  140.0150  153.9056 N   0  0  0  0  0  0  0  0  0  0  0  0
  152.6212  140.3285  155.0744 C   0  0  0  0  0  0  0  0  0  0  0  0
  152.2472  141.4332  155.8651 C   0  0  0  0  0  0  0  0  0  0  0  0
  151.1903  142.2625  155.4211 C   0  0  0  0  0  0  0  0  0  0  0  0
  150.7532  143.3815  156.1459 N   0  0  0  0  0  0  0  0  0  0  0  0
  150.8596  143.4223  157.5962 C   0  0  0  0  0  0  0  0  0  0  0  0
  152.1339  144.1615  158.0465 C   0  0  2  0  0  0  0  0  0  0  0  0
  153.1895  143.2208  158.6585 C   0  0  0  0  0  0  0  0  0  0  0  0
  152.8112  142.7282  159.9779 N   0  0  0  0  0  0  0  0  0  0  0  0
  153.8502  141.8608  160.5319 C   0  0  0  0  0  0  0  0  0  0  0  0
  153.4743  141.2973  161.9113 C   0  0  0  0  0  0  0  0  0  0  0  0
  153.1598  142.4408  162.8861 C   0  0  0  0  0  0  0  0  0  0  0  0
  152.1038  143.3755  162.2769 C   0  0  0  0  0  0  0  0  0  0  0  0
  152.5313  143.8540  160.8737 C   0  0  2  0  0  0  0  0  0  0  0  0
  151.4593  144.7850  160.2736 C   0  0  0  0  0  0  0  0  0  0  0  0
  151.8449  145.2133  158.9699 O   0  0  0  0  0  0  0  0  0  0  0  0
  150.5596  140.5341  152.5434 H   0  0  0  0  0  0  0  0  0  0  0  0
  153.4234  139.6782  155.3911 H   0  0  0  0  0  0  0  0  0  0  0  0
  152.7731  141.6236  156.7885 H   0  0  0  0  0  0  0  0  0  0  0  0
  150.1630  144.0627  155.6894 H   0  0  0  0  0  0  0  0  0  0  0  0
  149.9697  143.8839  158.0237 H   0  0  0  0  0  0  0  0  0  0  0  0
  150.8903  142.3966  157.9654 H   0  0  0  0  0  0  0  0  0  0  0  0
  152.5771  144.6259  157.1647 H   0  0  0  0  0  0  0  0  0  0  0  0
  153.3669  142.3817  157.9847 H   0  0  0  0  0  0  0  0  0  0  0  0
  154.1358  143.7591  158.7324 H   0  0  0  0  0  0  0  0  0  0  0  0
  154.0366  141.0313  159.8490 H   0  0  0  0  0  0  0  0  0  0  0  0
  154.7890  142.4114  160.6105 H   0  0  0  0  0  0  0  0  0  0  0  0
  152.6064  140.6436  161.8164 H   0  0  0  0  0  0  0  0  0  0  0  0
  154.2869  140.6839  162.3014 H   0  0  0  0  0  0  0  0  0  0  0  0
  152.8104  142.0423  163.8389 H   0  0  0  0  0  0  0  0  0  0  0  0
  154.0698  143.0044  163.0960 H   0  0  0  0  0  0  0  0  0  0  0  0
  151.1493  142.8512  162.2128 H   0  0  0  0  0  0  0  0  0  0  0  0
  151.9447  144.2301  162.9354 H   0  0  0  0  0  0  0  0  0  0  0  0
  153.4457  144.4393  160.9870 H   0  0  0  0  0  0  0  0  0  0  0  0
  150.4878  144.2915  160.2355 H   0  0  0  0  0  0  0  0  0  0  0  0
  151.3329  145.6676  160.9011 H   0  0  0  0  0  0  0  0  0  0  0  0
  1  2  1  0  0  0  0
  2  7  1  0  0  0  0
  2  3  2  0  0  0  0
  3  4  1  0  0  0  0
  3 20  1  0  0  0  0
  4  5  2  0  0  0  0
  5  6  1  0  0  0  0
  5 21  1  0  0  0  0
  6  7  2  0  0  0  0
  6 22  1  0  0  0  0
  7  8  1  0  0  0  0
  8  9  1  0  0  0  0
  8 23  1  0  0  0  0
  9 10  1  0  0  0  0
  9 24  1  0  0  0  0
  9 25  1  0  0  0  0
 10 19  1  0  0  0  0
 10 11  1  0  0  0  0
 10 26  1  0  0  0  0
 11 12  1  0  0  0  0
 11 27  1  0  0  0  0
 11 28  1  0  0  0  0
 12 17  1  0  0  0  0
 12 13  1  0  0  0  0
 13 14  1  0  0  0  0
 13 29  1  0  0  0  0
 13 30  1  0  0  0  0
 14 15  1  0  0  0  0
 14 31  1  0  0  0  0
 14 32  1  0  0  0  0
 15 16  1  0  0  0  0
 15 33  1  0  0  0  0
 15 34  1  0  0  0  0
 16 17  1  0  0  0  0
 16 35  1  0  0  0  0
 16 36  1  0  0  0  0
 17 18  1  0  0  0  0
 17 37  1  0  0  0  0
 18 19  1  0  0  0  0
 18 38  1  0  0  0  0
 18 39  1  0  0  0  0
M  END
> <s_m_source_file>
AV-unprocessed.smi

> <i_m_source_file_index>
2822

> <i_lp_mmshare_version>
43012

> <i_f3d_flags>
0

> <s_epik_input>
Q2xjMVtjSF1uW2NIXVtjSF1jMVtOSF1bQ0gyXVtDQEhdKFtDSDJdMilPW0NIMl1bQ0BASF0oTjIzKVtDSDJdW0NIMl1bQ0gyXVtDSDJdMw==

> <s_epik_cmdline>
J2VwaWtfcHl0aG9uJywgJy1waCcsICc3LjAnLCAnLXRuJywgJzgnLCAnLW1hJywgJzIwMCcsICctbWV0YWxfYmluZGluZycsICctaW1hZScsICc8aW5maWxlLm1hZT4nLCAnLW9tYWUnLCAnPG91dGZpbGUubWFlPic=

> <r_lp_tautomer_probability>
0.999999

> <r_epik_Ionization_Penalty>
2.10064

> <r_epik_Ionization_Penalty_Charging>
0

> <r_epik_Ionization_Penalty_Neutral>
2.10064

> <r_epik_State_Penalty>
2.1757

> <r_epik_Charging_Adjusted_Penalty>
2.1757

> <i_epik_Tot_Q>
0

> <i_epik_Tot_abs_Q>
0

> <r_epik_Metal_State_Penalty>
1.25425

> <b_epik_Metal_Only>
0

> <s_lp_Force_Field>
OPLS_2005

> <r_lp_Energy>
40.8538

> <b_lp_Chiralities_Consistent>
1

> <s_lp_Variant>
AV-unprocessed.smi:2822-23

> <Gold.Version>
5.8.1

> <Gold.Id.Protein>
6NUR|6NUR_protein|mol2

> <Gold.PLP.Fitness>
51.4172

> <Gold.PLP.PLP>
-47.8634

> <Gold.PLP.part.hbond>
-1.2409

> <Gold.PLP.part.metal>
0.0000

> <Gold.PLP.part.buried>
-3.2762

> <Gold.PLP.part.nonpolar>
-43.1238

> <Gold.PLP.part.repulsive>
0.2595

> <Gold.PLP.ligand.clash>
0.0000

> <Gold.PLP.ligand.torsion>
1.0622

> <Gold.PLP.Chemscore.Hbond>
0.9920

> <Gold.PLP.Chemscore.CHOScore>
0.8985

> <Gold.PLP.Chemscore.Metal>
0.0000

> <Gold.Chemscore.Hbonds>
donor molecule, donor type, donor heavy atom, donor atom, acceptor molecule, acceptor atom, score
      L1  H     8    23       P1  8028  0.69
      L1  C     3    20       P1  7957  0.24

> <Gold.PLP.Chemscore.Internal.Correction>
0.0066

> <Gold.Rescore>
     Score         DG    S(hbond)    S(metal)    S(lipo)     H(rot)  DE(clash)    DE(int)     intcor
     20.13     -21.13       0.79        0.00     136.36       1.15       0.06       0.94       ----

> <Gold.Chemscore.Fitness>
20.1263

> <Gold.Chemscore.DG>
-21.1264

> <Gold.Chemscore.ZeroCoef>
-5.4800

> <Gold.Chemscore.Hbond>
0.7906

> <Gold.Chemscore.Metal>
0.0000

> <Gold.Chemscore.Lipo>
136.3642

> <Gold.Chemscore.Internal_Hbond>
0.0000

> <Gold.Chemscore.DEClash>
0.0558

> <Gold.Chemscore.DEInternal>
0.9443

> <Gold.Chemscore.Rot>
1.1519

> <Gold.Chemscore.Internal.Correction>
   9.000000E+99

> <Gold.Chemscore.Hbonds>
donor molecule, donor type, donor heavy atom, donor atom, acceptor molecule, acceptor atom, score
      L1  H     8    23       P1  8028  0.65

> <Gold.Chemscore.Hbond.Weighted>
-2.6405

> <Gold.Chemscore.Metal.Weighted>
-0.0000

> <Gold.Chemscore.Lipo.Weighted>
-15.9546

> <Gold.Chemscore.Internal_Hbond.Weighted>
0.0000

> <Gold.Chemscore.DEClash.Weighted>
0.0558

> <Gold.Chemscore.DEInternal.Weighted>
0.9443

> <Gold.Chemscore.Rot.Weighted>
2.9487

> <Gold.Chemscore.Internal.Correction.Weighted>
   9.000000E+99

> <Gold.Protein.RotatedTorsions>
[ 6907 6896 6895 6894 ] final  -73.67 input  -60.11 | X-H torsion
[ 7974 7965 7964 7962 ] final  104.08 input  175.53 | X-H torsion
[ 8008 7997 7996 7995 ] final   34.01 input   59.86 | X-H torsion
[ 10167 10162 10161 10158 ] final -138.44 input  -65.29 | X-H torsion
[ 10718 10713 10712 10709 ] final  152.51 input   66.30 | X-H torsion
[ 10763 10752 10751 10750 ] final   -4.90 input  -60.55 | X-H torsion
[ 11005 11000 10999 10996 ] final  -63.56 input  -57.11 | X-H torsion

> <Gold.Protein.ActiveResidues>
 VAL166  LYS551  ARG553  GLY616  TRP617  ASP618  TYR619  PRO620  LYS621  CYS622 
 ASP623  PHE694  ASN695  SER759  ASP760  ASP761  ALA762  ILE779  LEU786  VAL792 
 PHE793  MET794  SER795  GLU796  ALA797  LYS798  CYS799  TRP800  GLU811  SER814 

> <Gold.Protein.RotatedAtoms>
  150.7121  134.4982  159.5548 H   0  0  0  0  0  0  0  0  0  0  0  0  # atno 6907 bound_to 6896
  152.2585  134.8056  160.0443 H   0  0  0  0  0  0  0  0  0  0  0  0  # atno 6908 bound_to 6896
  151.8778  133.3453  159.3793 H   0  0  0  0  0  0  0  0  0  0  0  0  # atno 6909 bound_to 6896
  145.3374  139.2471  143.3628 H   0  0  0  0  0  0  0  0  0  0  0  0  # atno 7974 bound_to 7965
  155.1480  140.3272  155.4437 H   0  0  0  0  0  0  0  0  0  0  0  0  # atno 8008 bound_to 7997
  156.2583  140.1982  156.6542 H   0  0  0  0  0  0  0  0  0  0  0  0  # atno 8009 bound_to 7997
  154.6494  140.0560  156.9925 H   0  0  0  0  0  0  0  0  0  0  0  0  # atno 8010 bound_to 7997
  139.8477  143.7238  152.2660 H   0  0  0  0  0  0  0  0  0  0  0  0  # atno 10167 bound_to 10162
  157.2569  131.0790  151.1692 H   0  0  0  0  0  0  0  0  0  0  0  0  # atno 10718 bound_to 10713
  153.3912  135.7002  153.6493 H   0  0  0  0  0  0  0  0  0  0  0  0  # atno 10763 bound_to 10752
  153.5065  135.3641  155.2566 H   0  0  0  0  0  0  0  0  0  0  0  0  # atno 10764 bound_to 10752
  154.8702  135.4124  154.3229 H   0  0  0  0  0  0  0  0  0  0  0  0  # atno 10765 bound_to 10752
  141.1397  133.6653  156.5698 H   0  0  0  0  0  0  0  0  0  0  0  0  # atno 11005 bound_to 11000
  146.3021  140.3965  142.8700 LP  0  0  0  0  0  0  0  0  0  0  0  0  # atno 17320 bound_to 7965
  144.8816  140.7408  143.5983 LP  0  0  0  0  0  0  0  0  0  0  0  0  # atno 17321 bound_to 7965
  139.7496  144.7538  151.0527 LP  0  0  0  0  0  0  0  0  0  0  0  0  # atno 17342 bound_to 10162
  140.7791  143.4876  150.9935 LP  0  0  0  0  0  0  0  0  0  0  0  0  # atno 17343 bound_to 10162
  157.3218  130.6941  149.6273 LP  0  0  0  0  0  0  0  0  0  0  0  0  # atno 17370 bound_to 10713
  155.9665  130.4333  150.5001 LP  0  0  0  0  0  0  0  0  0  0  0  0  # atno 17371 bound_to 10713
  140.3922  134.7431  157.4728 LP  0  0  0  0  0  0  0  0  0  0  0  0  # atno 17394 bound_to 11000
  140.0558  134.6066  155.8807 LP  0  0  0  0  0  0  0  0  0  0  0  0  # atno 17395 bound_to 11000

$$$$
