AV-unprocessed.smi:1443|AV-procd|sdf|5879|dock1
  -GOLD-   22720 5553D 1   1.00000     0.00000
 Structure written by MMmdl.
 27 28  0  0  0  0  0  0  0  0  1 V2000
  148.9749  125.1228  150.9548 C   0  0  0  0  0  0  0  0  0  0  0  0
  148.6941  126.8576  150.5119 S   0  0  0  0  0  0  0  0  0  0  0  0
  147.6781  127.5336  151.7858 C   0  0  0  0  0  0  0  0  0  0  0  0
  147.4131  126.8171  152.8931 N   0  0  0  0  0  0  0  0  0  0  0  0
  146.4138  127.7332  153.9016 S   0  0  0  0  0  0  0  0  0  0  0  0
  146.4069  129.0419  152.7567 C   0  0  0  0  0  0  0  0  0  0  0  0
  145.6799  130.2459  152.9850 N   0  0  0  0  0  0  0  0  0  0  0  0
  145.7063  131.4380  152.3518 C   0  0  0  0  0  0  0  0  0  0  0  0
  146.4541  131.6289  151.3943 O   0  0  0  0  0  0  0  0  0  0  0  0
  144.8784  132.3805  152.8286 N   0  0  0  0  0  0  0  0  0  0  0  0
  144.7593  133.7149  152.3357 C   0  0  2  0  0  0  0  0  0  0  0  0
  143.3648  134.2103  152.0189 C   0  0  0  0  0  0  0  0  0  0  0  0
  144.3291  133.9331  150.8966 C   0  0  2  0  0  0  0  0  0  0  0  0
  144.0956  132.7787  149.9424 C   0  0  0  0  0  0  0  0  0  0  0  0
  147.1423  128.7634  151.6796 N   0  0  0  0  0  0  0  0  0  0  0  0
  149.6443  124.6545  150.2334 H   0  0  0  0  0  0  0  0  0  0  0  0
  148.0319  124.5772  150.9537 H   0  0  0  0  0  0  0  0  0  0  0  0
  149.4248  125.0463  151.9447 H   0  0  0  0  0  0  0  0  0  0  0  0
  145.0050  130.1877  153.7338 H   0  0  0  0  0  0  0  0  0  0  0  0
  144.2954  132.1344  153.6159 H   0  0  0  0  0  0  0  0  0  0  0  0
  145.4409  134.4574  152.7485 H   0  0  0  0  0  0  0  0  0  0  0  0
  142.5366  133.5175  152.1583 H   0  0  0  0  0  0  0  0  0  0  0  0
  143.1403  135.2515  152.2415 H   0  0  0  0  0  0  0  0  0  0  0  0
  144.7574  134.8082  150.4115 H   0  0  0  0  0  0  0  0  0  0  0  0
  143.6124  131.9434  150.4481 H   0  0  0  0  0  0  0  0  0  0  0  0
  145.0454  132.4344  149.5332 H   0  0  0  0  0  0  0  0  0  0  0  0
  143.4573  133.0987  149.1188 H   0  0  0  0  0  0  0  0  0  0  0  0
  1  2  1  0  0  0  0
  1 16  1  0  0  0  0
  1 17  1  0  0  0  0
  1 18  1  0  0  0  0
  2  3  1  0  0  0  0
  3 15  1  0  0  0  0
  3  4  2  0  0  0  0
  4  5  1  0  0  0  0
  5  6  1  0  0  0  0
  6  7  1  0  0  0  0
  6 15  2  0  0  0  0
  7  8  1  0  0  0  0
  7 19  1  0  0  0  0
  8  9  2  0  0  0  0
  8 10  1  0  0  0  0
 10 11  1  0  0  0  0
 10 20  1  0  0  0  0
 11 13  1  0  0  0  0
 11 12  1  0  0  0  0
 11 21  1  0  0  0  0
 12 13  1  0  0  0  0
 12 22  1  0  0  0  0
 12 23  1  0  0  0  0
 13 14  1  0  0  0  0
 13 24  1  0  0  0  0
 14 25  1  0  0  0  0
 14 26  1  0  0  0  0
 14 27  1  0  0  0  0
M  END
> <s_m_source_file>
AV-unprocessed.smi

> <i_m_source_file_index>
1443

> <i_lp_mmshare_version>
43012

> <i_f3d_flags>
0

> <s_epik_input>
W0NIM11TYzFuc2MobjEpW05IXUMoPU8pW05IXVtDQEBIXTJbQ0gyXVtDQEhdMltDSDNd

> <s_epik_cmdline>
J2VwaWtfcHl0aG9uJywgJy1waCcsICc3LjAnLCAnLXRuJywgJzgnLCAnLW1hJywgJzIwMCcsICctbWV0YWxfYmluZGluZycsICctaW1hZScsICc8aW5maWxlLm1hZT4nLCAnLW9tYWUnLCAnPG91dGZpbGUubWFlPic=

> <r_lp_tautomer_probability>
1

> <r_epik_Ionization_Penalty>
2.74658e-05

> <r_epik_Ionization_Penalty_Charging>
0

> <r_epik_Ionization_Penalty_Neutral>
2.74658e-05

> <r_epik_State_Penalty>
-0

> <r_epik_Charging_Adjusted_Penalty>
0

> <i_epik_Tot_Q>
0

> <i_epik_Tot_abs_Q>
0

> <r_epik_Metal_State_Penalty>
-0

> <b_epik_Metal_Only>
0

> <s_lp_Force_Field>
OPLS_2005

> <r_lp_Energy>
21.2108

> <b_lp_Chiralities_Consistent>
1

> <s_lp_Variant>
AV-unprocessed.smi:1443-3

> <Gold.Version>
5.8.1

> <Gold.Id.Protein>
6NUR|6NUR_protein|mol2

> <Gold.PLP.Fitness>
30.1330

> <Gold.PLP.PLP>
-26.8297

> <Gold.PLP.part.hbond>
-2.4077

> <Gold.PLP.part.metal>
0.0000

> <Gold.PLP.part.buried>
-6.1164

> <Gold.PLP.part.nonpolar>
-21.6724

> <Gold.PLP.part.repulsive>
2.1724

> <Gold.PLP.ligand.clash>
0.0000

> <Gold.PLP.ligand.torsion>
0.1400

> <Gold.PLP.Chemscore.Hbond>
1.1781

> <Gold.PLP.Chemscore.CHOScore>
0.0000

> <Gold.PLP.Chemscore.Metal>
0.0000

> <Gold.Chemscore.Hbonds>
donor molecule, donor type, donor heavy atom, donor atom, acceptor molecule, acceptor atom, score
      L1  H     7    19       P1 10956  0.53
      L1  H    10    20       P1 10957  0.65

> <Gold.PLP.Chemscore.Internal.Correction>
0.0489

> <Gold.Rescore>
     Score         DG    S(hbond)    S(metal)    S(lipo)     H(rot)  DE(clash)    DE(int)     intcor
      7.97      -9.25       0.60        0.00      42.89       1.27       0.01       1.27       ----

> <Gold.Chemscore.Fitness>
7.9652

> <Gold.Chemscore.DG>
-9.2485

> <Gold.Chemscore.ZeroCoef>
-5.4800

> <Gold.Chemscore.Hbond>
0.5992

> <Gold.Chemscore.Metal>
0.0000

> <Gold.Chemscore.Lipo>
42.8888

> <Gold.Chemscore.Internal_Hbond>
0.0000

> <Gold.Chemscore.DEClash>
0.0148

> <Gold.Chemscore.DEInternal>
1.2685

> <Gold.Chemscore.Rot>
1.2699

> <Gold.Chemscore.Internal.Correction>
   9.000000E+99

> <Gold.Chemscore.Hbonds>
donor molecule, donor type, donor heavy atom, donor atom, acceptor molecule, acceptor atom, score
      L1  H     7    19       P1 10956  0.04
      L1  H    10    20       P1 10957  0.05

> <Gold.Chemscore.Hbond.Weighted>
-2.0015

> <Gold.Chemscore.Metal.Weighted>
-0.0000

> <Gold.Chemscore.Lipo.Weighted>
-5.0180

> <Gold.Chemscore.Internal_Hbond.Weighted>
0.0000

> <Gold.Chemscore.DEClash.Weighted>
0.0148

> <Gold.Chemscore.DEInternal.Weighted>
1.2685

> <Gold.Chemscore.Rot.Weighted>
3.2509

> <Gold.Chemscore.Internal.Correction.Weighted>
   9.000000E+99

> <Gold.Protein.RotatedTorsions>
[ 6907 6896 6895 6894 ] final -136.76 input  -60.11 | X-H torsion
[ 7974 7965 7964 7962 ] final   10.63 input  175.53 | X-H torsion
[ 8008 7997 7996 7995 ] final   20.43 input   59.86 | X-H torsion
[ 10167 10162 10161 10158 ] final  113.97 input  -65.29 | X-H torsion
[ 10718 10713 10712 10709 ] final   72.81 input   66.30 | X-H torsion
[ 10763 10752 10751 10750 ] final  -69.09 input  -60.55 | X-H torsion
[ 11005 11000 10999 10996 ] final   12.29 input  -57.11 | X-H torsion

> <Gold.Protein.ActiveResidues>
 VAL166  LYS551  ARG553  GLY616  TRP617  ASP618  TYR619  PRO620  LYS621  CYS622 
 ASP623  PHE694  ASN695  SER759  ASP760  ASP761  ALA762  ILE779  LEU786  VAL792 
 PHE793  MET794  SER795  GLU796  ALA797  LYS798  CYS799  TRP800  GLU811  SER814 

> <Gold.Protein.RotatedAtoms>
  151.0141  133.5938  159.2678 H   0  0  0  0  0  0  0  0  0  0  0  0  # atno 6907 bound_to 6896
  151.3079  135.0785  159.9271 H   0  0  0  0  0  0  0  0  0  0  0  0  # atno 6908 bound_to 6896
  152.5307  133.9811  159.7861 H   0  0  0  0  0  0  0  0  0  0  0  0  # atno 6909 bound_to 6896
  146.2385  139.9606  142.8459 H   0  0  0  0  0  0  0  0  0  0  0  0  # atno 7974 bound_to 7965
  154.9355  140.3046  155.5146 H   0  0  0  0  0  0  0  0  0  0  0  0  # atno 8008 bound_to 7997
  156.3000  140.2346  156.4356 H   0  0  0  0  0  0  0  0  0  0  0  0  # atno 8009 bound_to 7997
  154.8196  140.0424  157.1390 H   0  0  0  0  0  0  0  0  0  0  0  0  # atno 8010 bound_to 7997
  139.6422  144.7124  151.2214 H   0  0  0  0  0  0  0  0  0  0  0  0  # atno 10167 bound_to 10162
  157.6519  130.9597  150.0981 H   0  0  0  0  0  0  0  0  0  0  0  0  # atno 10718 bound_to 10713
  154.3984  135.6036  153.5883 H   0  0  0  0  0  0  0  0  0  0  0  0  # atno 10763 bound_to 10752
  152.9788  135.5900  154.4213 H   0  0  0  0  0  0  0  0  0  0  0  0  # atno 10764 bound_to 10752
  154.4008  135.2843  155.2076 H   0  0  0  0  0  0  0  0  0  0  0  0  # atno 10765 bound_to 10752
  140.4936  134.0816  155.7777 H   0  0  0  0  0  0  0  0  0  0  0  0  # atno 11005 bound_to 11000
  145.1775  140.9751  143.4286 LP  0  0  0  0  0  0  0  0  0  0  0  0  # atno 17320 bound_to 7965
  144.9972  139.3632  143.6185 LP  0  0  0  0  0  0  0  0  0  0  0  0  # atno 17321 bound_to 7965
  140.7497  143.6292  150.8439 LP  0  0  0  0  0  0  0  0  0  0  0  0  # atno 17342 bound_to 10162
  139.9930  143.5826  152.2903 LP  0  0  0  0  0  0  0  0  0  0  0  0  # atno 17343 bound_to 10162
  156.1911  130.3655  149.8908 LP  0  0  0  0  0  0  0  0  0  0  0  0  # atno 17370 bound_to 10713
  156.6836  130.8868  151.3579 LP  0  0  0  0  0  0  0  0  0  0  0  0  # atno 17371 bound_to 10713
  141.1471  133.9035  157.2188 LP  0  0  0  0  0  0  0  0  0  0  0  0  # atno 17394 bound_to 11000
  139.9754  135.0115  156.9619 LP  0  0  0  0  0  0  0  0  0  0  0  0  # atno 17395 bound_to 11000

$$$$
