AV-unprocessed.smi:1727|AV-procd|sdf|6965|dock1
  -GOLD-   22720 8173D 1   1.00000     0.00000
 Structure written by MMmdl.
 49 51  0  0  0  0  0  0  0  0  1 V2000
  151.9859  139.1083  159.2116 C   0  0  0  0  0  0  0  0  0  0  0  0
  152.6404  139.0965  157.8282 C   0  0  0  0  0  0  0  0  0  0  0  0
  153.8520  138.8885  157.7641 O   0  0  0  0  0  0  0  0  0  0  0  0
  151.8748  139.3095  156.7309 N   0  0  0  0  0  0  0  0  0  0  0  0
  152.4103  139.2468  155.3658 C   0  0  0  0  0  0  0  0  0  0  0  0
  151.8602  137.9871  154.6732 C   0  0  0  0  0  0  0  0  0  0  0  0
  150.3169  137.9656  154.6909 C   0  0  0  0  0  0  0  0  0  0  0  0
  149.8388  136.6802  154.1918 N   0  0  0  0  0  0  0  0  0  0  0  0
  150.1416  135.4853  154.7181 C   0  0  0  0  0  0  0  0  0  0  0  0
  150.8683  135.3364  155.7008 O   0  0  0  0  0  0  0  0  0  0  0  0
  149.5699  134.4894  154.0213 N   0  0  0  0  0  0  0  0  0  0  0  0
  149.6986  133.0890  154.2378 C   0  0  0  0  0  0  0  0  0  0  0  0
  150.7913  132.5547  154.9634 C   0  0  0  0  0  0  0  0  0  0  0  0
  150.8417  131.1734  155.2168 C   0  0  0  0  0  0  0  0  0  0  0  0
  149.7863  130.3736  154.7486 C   0  0  0  0  0  0  0  0  0  0  0  0
  148.7330  130.8682  154.0681 N   0  0  0  0  0  0  0  0  0  0  0  0
  148.6767  132.1968  153.8026 C   0  0  0  0  0  0  0  0  0  0  0  0
  147.5574  132.6547  153.0697 N   0  0  0  0  0  0  0  0  0  0  0  0
  146.3586  131.8303  152.9555 C   0  0  0  0  0  0  0  0  0  0  0  0
  145.5630  132.4454  151.8078 C   0  0  0  0  0  0  0  0  0  0  0  0
  146.6647  132.9068  150.8591 C   0  0  0  0  0  0  0  0  0  0  0  0
  147.7971  133.3329  151.7989 C   0  0  0  0  0  0  0  0  0  0  0  0
  149.7655  138.2375  156.1096 C   0  0  0  0  0  0  0  0  0  0  0  0
  150.4171  139.4850  156.7323 C   0  0  0  0  0  0  0  0  0  0  0  0
  151.2087  138.3466  159.2787 H   0  0  0  0  0  0  0  0  0  0  0  0
  151.5474  140.0838  159.4235 H   0  0  0  0  0  0  0  0  0  0  0  0
  152.7236  138.8999  159.9873 H   0  0  0  0  0  0  0  0  0  0  0  0
  152.1077  140.1396  154.8169 H   0  0  0  0  0  0  0  0  0  0  0  0
  153.5008  139.2380  155.3393 H   0  0  0  0  0  0  0  0  0  0  0  0
  152.2239  137.9386  153.6463 H   0  0  0  0  0  0  0  0  0  0  0  0
  152.2496  137.1032  155.1813 H   0  0  0  0  0  0  0  0  0  0  0  0
  149.9689  138.7599  154.0278 H   0  0  0  0  0  0  0  0  0  0  0  0
  149.2365  136.7034  153.3821 H   0  0  0  0  0  0  0  0  0  0  0  0
  149.0829  134.7550  153.1776 H   0  0  0  0  0  0  0  0  0  0  0  0
  151.5774  133.1863  155.3488 H   0  0  0  0  0  0  0  0  0  0  0  0
  151.6631  130.7404  155.7683 H   0  0  0  0  0  0  0  0  0  0  0  0
  149.7838  129.3089  154.9295 H   0  0  0  0  0  0  0  0  0  0  0  0
  146.6177  130.8007  152.7049 H   0  0  0  0  0  0  0  0  0  0  0  0
  145.7896  131.8254  153.8857 H   0  0  0  0  0  0  0  0  0  0  0  0
  144.8671  131.7435  151.3478 H   0  0  0  0  0  0  0  0  0  0  0  0
  144.9943  133.3049  152.1652 H   0  0  0  0  0  0  0  0  0  0  0  0
  146.9938  132.0672  150.2454 H   0  0  0  0  0  0  0  0  0  0  0  0
  146.3451  133.7066  150.1910 H   0  0  0  0  0  0  0  0  0  0  0  0
  147.7565  134.4101  151.9627 H   0  0  0  0  0  0  0  0  0  0  0  0
  148.7749  133.0905  151.3803 H   0  0  0  0  0  0  0  0  0  0  0  0
  148.6828  138.3643  156.0751 H   0  0  0  0  0  0  0  0  0  0  0  0
  149.9553  137.3765  156.7525 H   0  0  0  0  0  0  0  0  0  0  0  0
  149.9989  139.6660  157.7212 H   0  0  0  0  0  0  0  0  0  0  0  0
  150.1627  140.3682  156.1448 H   0  0  0  0  0  0  0  0  0  0  0  0
  1  2  1  0  0  0  0
  1 25  1  0  0  0  0
  1 26  1  0  0  0  0
  1 27  1  0  0  0  0
  2  3  2  0  0  0  0
  2  4  1  0  0  0  0
  4 24  1  0  0  0  0
  4  5  1  0  0  0  0
  5  6  1  0  0  0  0
  5 28  1  0  0  0  0
  5 29  1  0  0  0  0
  6  7  1  0  0  0  0
  6 30  1  0  0  0  0
  6 31  1  0  0  0  0
  7  8  1  0  0  0  0
  7 23  1  0  0  0  0
  7 32  1  0  0  0  0
  8  9  1  0  0  0  0
  8 33  1  0  0  0  0
  9 10  2  0  0  0  0
  9 11  1  0  0  0  0
 11 12  1  0  0  0  0
 11 34  1  0  0  0  0
 12 17  1  0  0  0  0
 12 13  2  0  0  0  0
 13 14  1  0  0  0  0
 13 35  1  0  0  0  0
 14 15  2  0  0  0  0
 14 36  1  0  0  0  0
 15 16  1  0  0  0  0
 15 37  1  0  0  0  0
 16 17  2  0  0  0  0
 17 18  1  0  0  0  0
 18 22  1  0  0  0  0
 18 19  1  0  0  0  0
 19 20  1  0  0  0  0
 19 38  1  0  0  0  0
 19 39  1  0  0  0  0
 20 21  1  0  0  0  0
 20 40  1  0  0  0  0
 20 41  1  0  0  0  0
 21 22  1  0  0  0  0
 21 42  1  0  0  0  0
 21 43  1  0  0  0  0
 22 44  1  0  0  0  0
 22 45  1  0  0  0  0
 23 24  1  0  0  0  0
 23 46  1  0  0  0  0
 23 47  1  0  0  0  0
 24 48  1  0  0  0  0
 24 49  1  0  0  0  0
M  END
> <s_m_source_file>
AV-unprocessed.smi

> <i_m_source_file_index>
1727

> <i_lp_mmshare_version>
43012

> <i_f3d_flags>
0

> <s_epik_input>
W0NIM11DKD1PKU4xW0NIMl1bQ0gyXVtDSF0oW0NIMl1bQ0gyXTEpW05IXUMoPU8pW05IXWMyW2NIXVtjSF1bY0hdbmMyTjNbQ0gyXVtDSDJdW0NIMl1bQ0gyXTM=

> <s_epik_cmdline>
J2VwaWtfcHl0aG9uJywgJy1waCcsICc3LjAnLCAnLXRuJywgJzgnLCAnLW1hJywgJzIwMCcsICctbWV0YWxfYmluZGluZycsICctaW1hZScsICc8aW5maWxlLm1hZT4nLCAnLW9tYWUnLCAnPG91dGZpbGUubWFlPic=

> <r_lp_tautomer_probability>
1

> <r_epik_Ionization_Penalty>
0.102256

> <r_epik_Ionization_Penalty_Charging>
0

> <r_epik_Ionization_Penalty_Neutral>
0.102256

> <r_epik_State_Penalty>
0.0916633

> <r_epik_Charging_Adjusted_Penalty>
0.0916633

> <i_epik_Tot_Q>
0

> <i_epik_Tot_abs_Q>
0

> <r_epik_Metal_State_Penalty>
0.0781079

> <b_epik_Metal_Only>
0

> <s_lp_Force_Field>
OPLS_2005

> <r_lp_Energy>
49.5361

> <b_lp_Chiralities_Consistent>
1

> <s_lp_Variant>
AV-unprocessed.smi:1727-1

> <Gold.Version>
5.8.1

> <Gold.Id.Protein>
6NUR|6NUR_protein|mol2

> <Gold.PLP.Fitness>
42.8784

> <Gold.PLP.PLP>
-35.2813

> <Gold.PLP.part.hbond>
-3.4719

> <Gold.PLP.part.metal>
0.0000

> <Gold.PLP.part.buried>
-2.1686

> <Gold.PLP.part.nonpolar>
-29.5690

> <Gold.PLP.part.repulsive>
0.2689

> <Gold.PLP.ligand.clash>
0.0000

> <Gold.PLP.ligand.torsion>
0.3636

> <Gold.PLP.Chemscore.Hbond>
2.6600

> <Gold.PLP.Chemscore.CHOScore>
0.0000

> <Gold.PLP.Chemscore.Metal>
0.0000

> <Gold.Chemscore.Hbonds>
donor molecule, donor type, donor heavy atom, donor atom, acceptor molecule, acceptor atom, score
      L1  H     8    33       P1  7948  0.94
      L1  H    11    34       P1  7948  0.54
      P1  H  7997  8008       L1     3  1.00
      P1  H 10752 10765       L1    10  0.31

> <Gold.PLP.Chemscore.Internal.Correction>
0.3443

> <Gold.Rescore>
     Score         DG    S(hbond)    S(metal)    S(lipo)     H(rot)  DE(clash)    DE(int)     intcor
     15.34     -18.16       2.00        0.00      77.89       1.21       0.09       2.73       ----

> <Gold.Chemscore.Fitness>
15.3366

> <Gold.Chemscore.DG>
-18.1626

> <Gold.Chemscore.ZeroCoef>
-5.4800

> <Gold.Chemscore.Hbond>
1.9973

> <Gold.Chemscore.Metal>
0.0000

> <Gold.Chemscore.Lipo>
77.8943

> <Gold.Chemscore.Internal_Hbond>
0.0000

> <Gold.Chemscore.DEClash>
0.0941

> <Gold.Chemscore.DEInternal>
2.7319

> <Gold.Chemscore.Rot>
1.2117

> <Gold.Chemscore.Internal.Correction>
   9.000000E+99

> <Gold.Chemscore.Hbonds>
donor molecule, donor type, donor heavy atom, donor atom, acceptor molecule, acceptor atom, score
      L1  H     8    33       P1  7948  0.87
      L1  H    11    34       P1  7948  0.05
      P1  H  7997  8008       L1     3  0.90
      P1  H 10752 10765       L1    10  0.14

> <Gold.Chemscore.Hbond.Weighted>
-6.6709

> <Gold.Chemscore.Metal.Weighted>
-0.0000

> <Gold.Chemscore.Lipo.Weighted>
-9.1136

> <Gold.Chemscore.Internal_Hbond.Weighted>
0.0000

> <Gold.Chemscore.DEClash.Weighted>
0.0941

> <Gold.Chemscore.DEInternal.Weighted>
2.7319

> <Gold.Chemscore.Rot.Weighted>
3.1019

> <Gold.Chemscore.Internal.Correction.Weighted>
   9.000000E+99

> <Gold.Protein.RotatedTorsions>
[ 6907 6896 6895 6894 ] final  174.05 input  -60.11 | X-H torsion
[ 7974 7965 7964 7962 ] final   -1.95 input  175.53 | X-H torsion
[ 8008 7997 7996 7995 ] final  -96.83 input   59.86 | X-H torsion
[ 10167 10162 10161 10158 ] final -164.75 input  -65.29 | X-H torsion
[ 10718 10713 10712 10709 ] final  -30.12 input   66.30 | X-H torsion
[ 10763 10752 10751 10750 ] final -163.21 input  -60.55 | X-H torsion
[ 11005 11000 10999 10996 ] final  155.89 input  -57.11 | X-H torsion

> <Gold.Protein.ActiveResidues>
 VAL166  LYS551  ARG553  GLY616  TRP617  ASP618  TYR619  PRO620  LYS621  CYS622 
 ASP623  PHE694  ASN695  SER759  ASP760  ASP761  ALA762  ILE779  LEU786  VAL792 
 PHE793  MET794  SER795  GLU796  ALA797  LYS798  CYS799  TRP800  GLU811  SER814 

> <Gold.Protein.RotatedAtoms>
  151.7585  133.3332  159.3410 H   0  0  0  0  0  0  0  0  0  0  0  0  # atno 6907 bound_to 6896
  150.7507  134.6127  159.6104 H   0  0  0  0  0  0  0  0  0  0  0  0  # atno 6908 bound_to 6896
  152.3421  134.7122  160.0312 H   0  0  0  0  0  0  0  0  0  0  0  0  # atno 6909 bound_to 6896
  146.2411  140.1498  142.8334 H   0  0  0  0  0  0  0  0  0  0  0  0  # atno 7974 bound_to 7965
  154.7797  140.0468  157.1117 H   0  0  0  0  0  0  0  0  0  0  0  0  # atno 8008 bound_to 7997
  154.9720  140.3091  155.4964 H   0  0  0  0  0  0  0  0  0  0  0  0  # atno 8009 bound_to 7997
  156.2934  140.2251  156.4813 H   0  0  0  0  0  0  0  0  0  0  0  0  # atno 8010 bound_to 7997
  139.6229  144.0589  152.1949 H   0  0  0  0  0  0  0  0  0  0  0  0  # atno 10167 bound_to 10162
  156.4038  130.4395  149.7302 H   0  0  0  0  0  0  0  0  0  0  0  0  # atno 10718 bound_to 10713
  154.7143  135.3012  154.9148 H   0  0  0  0  0  0  0  0  0  0  0  0  # atno 10763 bound_to 10752
  154.0040  135.6703  153.4765 H   0  0  0  0  0  0  0  0  0  0  0  0  # atno 10764 bound_to 10752
  153.0780  135.5024  154.8360 H   0  0  0  0  0  0  0  0  0  0  0  0  # atno 10765 bound_to 10752
  140.1623  134.8601  157.2589 H   0  0  0  0  0  0  0  0  0  0  0  0  # atno 11005 bound_to 11000
  145.0177  140.8768  143.5185 LP  0  0  0  0  0  0  0  0  0  0  0  0  # atno 17320 bound_to 7965
  145.1541  139.2497  143.5425 LP  0  0  0  0  0  0  0  0  0  0  0  0  # atno 17321 bound_to 7965
  140.0236  144.6134  150.7546 LP  0  0  0  0  0  0  0  0  0  0  0  0  # atno 17342 bound_to 10162
  140.7393  143.2789  151.3657 LP  0  0  0  0  0  0  0  0  0  0  0  0  # atno 17343 bound_to 10162
  156.4308  130.7814  151.2834 LP  0  0  0  0  0  0  0  0  0  0  0  0  # atno 17370 bound_to 10713
  157.7505  131.0154  150.3505 LP  0  0  0  0  0  0  0  0  0  0  0  0  # atno 17371 bound_to 10713
  140.2475  134.3722  155.7455 LP  0  0  0  0  0  0  0  0  0  0  0  0  # atno 17394 bound_to 11000
  141.2210  133.7298  156.8884 LP  0  0  0  0  0  0  0  0  0  0  0  0  # atno 17395 bound_to 11000

$$$$
