AV-unprocessed.smi:2160|AV-procd|sdf|8799|dock2
  -GOLD-   2272011583D 1   1.00000     0.00000
 Structure written by MMmdl.
 44 46  0  0  0  0  0  0  0  0  2 V2000
  148.5149  130.3484  154.5268 C   0  0  0  0  0  0  0  0  0  0  0  0
  149.5183  130.8140  155.4174 O   0  0  0  0  0  0  0  0  0  0  0  0
  149.7561  132.1706  155.4748 C   0  0  0  0  0  0  0  0  0  0  0  0
  149.0560  133.1361  154.7083 C   0  0  0  0  0  0  0  0  0  0  0  0
  149.3661  134.5048  154.8295 C   0  0  0  0  0  0  0  0  0  0  0  0
  150.3713  134.9322  155.7200 C   0  0  0  0  0  0  0  0  0  0  0  0
  150.7093  136.4074  155.8289 C   0  0  0  0  0  0  0  0  0  0  0  0
  152.0668  136.6710  155.5128 O   0  0  0  0  0  0  0  0  0  0  0  0
  152.6596  137.6230  156.3802 C   0  0  0  0  0  0  0  0  0  0  0  0
  151.9677  138.9781  156.1776 C   0  0  2  0  0  0  0  0  0  0  0  0
  152.8034  139.8019  155.3894 O   0  0  0  0  0  0  0  0  0  0  0  0
  151.6551  139.6839  157.5120 C   0  0  0  0  0  0  0  0  0  0  0  0
  151.2783  141.0917  157.3338 N   0  0  0  0  0  0  0  0  0  0  0  0
  150.4572  141.6715  156.4168 C   0  0  0  0  0  0  0  0  0  0  0  0
  150.4315  143.0085  156.6757 N   0  3  0  0  0  0  0  0  0  0  0  0
  151.2479  143.2867  157.7742 C   0  0  0  0  0  0  0  0  0  0  0  0
  151.5417  144.4881  158.4117 C   0  0  0  0  0  0  0  0  0  0  0  0
  152.4184  144.4211  159.5148 C   0  0  0  0  0  0  0  0  0  0  0  0
  152.9666  143.1949  159.9449 C   0  0  0  0  0  0  0  0  0  0  0  0
  152.6625  141.9829  159.2904 C   0  0  0  0  0  0  0  0  0  0  0  0
  151.7951  142.0587  158.2016 C   0  0  0  0  0  0  0  0  0  0  0  0
  151.0776  133.9750  156.4769 C   0  0  0  0  0  0  0  0  0  0  0  0
  150.7670  132.6071  156.3553 C   0  0  0  0  0  0  0  0  0  0  0  0
  148.4461  129.2631  154.5990 H   0  0  0  0  0  0  0  0  0  0  0  0
  148.7545  130.5955  153.4916 H   0  0  0  0  0  0  0  0  0  0  0  0
  147.5365  130.7590  154.7800 H   0  0  0  0  0  0  0  0  0  0  0  0
  148.2769  132.8523  154.0173 H   0  0  0  0  0  0  0  0  0  0  0  0
  148.8268  135.2274  154.2347 H   0  0  0  0  0  0  0  0  0  0  0  0
  150.0553  136.9596  155.1526 H   0  0  0  0  0  0  0  0  0  0  0  0
  150.4968  136.7519  156.8423 H   0  0  0  0  0  0  0  0  0  0  0  0
  152.5733  137.3022  157.4197 H   0  0  0  0  0  0  0  0  0  0  0  0
  153.7229  137.7065  156.1487 H   0  0  0  0  0  0  0  0  0  0  0  0
  151.0450  138.8211  155.6181 H   0  0  0  0  0  0  0  0  0  0  0  0
  152.3529  140.6162  155.2252 H   0  0  0  0  0  0  0  0  0  0  0  0
  150.8479  139.1790  158.0444 H   0  0  0  0  0  0  0  0  0  0  0  0
  152.5244  139.6564  158.1707 H   0  0  0  0  0  0  0  0  0  0  0  0
  149.9200  141.1630  155.6293 H   0  0  0  0  0  0  0  0  0  0  0  0
  151.1229  145.4287  158.0844 H   0  0  0  0  0  0  0  0  0  0  0  0
  152.6751  145.3287  160.0417 H   0  0  0  0  0  0  0  0  0  0  0  0
  153.6341  143.1830  160.7943 H   0  0  0  0  0  0  0  0  0  0  0  0
  153.0854  141.0477  159.6272 H   0  0  0  0  0  0  0  0  0  0  0  0
  151.8608  134.2832  157.1539 H   0  0  0  0  0  0  0  0  0  0  0  0
  151.3129  131.8837  156.9429 H   0  0  0  0  0  0  0  0  0  0  0  0
  149.8937  143.6789  156.1418 H   0  0  0  0  0  0  0  0  0  0  0  0
  1  2  1  0  0  0  0
  1 24  1  0  0  0  0
  1 25  1  0  0  0  0
  1 26  1  0  0  0  0
  2  3  1  0  0  0  0
  3 23  1  0  0  0  0
  3  4  2  0  0  0  0
  4  5  1  0  0  0  0
  4 27  1  0  0  0  0
  5  6  2  0  0  0  0
  5 28  1  0  0  0  0
  6  7  1  0  0  0  0
  6 22  1  0  0  0  0
  7  8  1  0  0  0  0
  7 29  1  0  0  0  0
  7 30  1  0  0  0  0
  8  9  1  0  0  0  0
  9 10  1  0  0  0  0
  9 31  1  0  0  0  0
  9 32  1  0  0  0  0
 10 11  1  0  0  0  0
 10 12  1  0  0  0  0
 10 33  1  0  0  0  0
 11 34  1  0  0  0  0
 12 13  1  0  0  0  0
 12 35  1  0  0  0  0
 12 36  1  0  0  0  0
 13 21  1  0  0  0  0
 13 14  1  0  0  0  0
 14 15  2  0  0  0  0
 14 37  1  0  0  0  0
 15 16  1  0  0  0  0
 15 44  1  0  0  0  0
 16 21  2  0  0  0  0
 16 17  1  0  0  0  0
 17 18  2  0  0  0  0
 17 38  1  0  0  0  0
 18 19  1  0  0  0  0
 18 39  1  0  0  0  0
 19 20  2  0  0  0  0
 19 40  1  0  0  0  0
 20 21  1  0  0  0  0
 20 41  1  0  0  0  0
 22 23  2  0  0  0  0
 22 42  1  0  0  0  0
 23 43  1  0  0  0  0
M  CHG  1  15   1
M  END
> <s_m_source_file>
AV-unprocessed.smi

> <i_m_source_file_index>
2160

> <i_lp_mmshare_version>
43012

> <i_f3d_flags>
0

> <s_epik_input>
W0NIM11PYzFbY0hdW2NIXWMoW2NIXVtjSF0xKVtDSDJdT1tDSDJdW0NASF0oW09IXSlbQ0gyXW4oW2NIXW4yKWMoYzIzKVtjSF1bY0hdW2NIXVtjSF0z

> <s_epik_cmdline>
J2VwaWtfcHl0aG9uJywgJy1waCcsICc3LjAnLCAnLXRuJywgJzgnLCAnLW1hJywgJzIwMCcsICctbWV0YWxfYmluZGluZycsICctaW1hZScsICc8aW5maWxlLm1hZT4nLCAnLW9tYWUnLCAnPG91dGZpbGUubWFlPic=

> <r_lp_tautomer_probability>
1

> <r_epik_Ionization_Penalty>
1.28975

> <r_epik_Ionization_Penalty_Charging>
1.28975

> <r_epik_Ionization_Penalty_Neutral>
9.74819e-07

> <r_epik_State_Penalty>
1.36276

> <r_epik_Charging_Adjusted_Penalty>
2.65251

> <i_epik_Tot_Q>
1

> <i_epik_Tot_abs_Q>
1

> <r_epik_Metal_State_Penalty>
5.39298

> <b_epik_Metal_Only>
0

> <s_lp_Force_Field>
OPLS_2005

> <r_lp_Energy>
21.665

> <b_lp_Chiralities_Consistent>
1

> <s_lp_Variant>
AV-unprocessed.smi:2160-3

> <Gold.Version>
5.8.1

> <Gold.Id.Protein>
6NUR|6NUR_protein|mol2

> <Gold.PLP.Fitness>
57.4489

> <Gold.PLP.PLP>
-47.6707

> <Gold.PLP.part.hbond>
-3.7154

> <Gold.PLP.part.metal>
0.0000

> <Gold.PLP.part.buried>
-4.7165

> <Gold.PLP.part.nonpolar>
-40.1256

> <Gold.PLP.part.repulsive>
0.1244

> <Gold.PLP.ligand.clash>
0.0000

> <Gold.PLP.ligand.torsion>
1.2371

> <Gold.PLP.Chemscore.Hbond>
3.9745

> <Gold.PLP.Chemscore.CHOScore>
0.0000

> <Gold.PLP.Chemscore.Metal>
0.0000

> <Gold.Chemscore.Hbonds>
donor molecule, donor type, donor heavy atom, donor atom, acceptor molecule, acceptor atom, score
      L1  H    15    44       P1  8028  1.95
      P1  H  7997  8008       L1    11  1.00
      P1  H 10752 10765       L1     8  1.00

> <Gold.PLP.Chemscore.Internal.Correction>
0.3289

> <Gold.Rescore>
     Score         DG    S(hbond)    S(metal)    S(lipo)     H(rot)  DE(clash)    DE(int)     intcor
     20.60     -21.83       2.65        0.00     124.14       2.74       0.12       1.11       ----

> <Gold.Chemscore.Fitness>
20.5969

> <Gold.Chemscore.DG>
-21.8324

> <Gold.Chemscore.ZeroCoef>
-5.4800

> <Gold.Chemscore.Hbond>
2.6466

> <Gold.Chemscore.Metal>
0.0000

> <Gold.Chemscore.Lipo>
124.1421

> <Gold.Chemscore.Internal_Hbond>
0.0000

> <Gold.Chemscore.DEClash>
0.1230

> <Gold.Chemscore.DEInternal>
1.1125

> <Gold.Chemscore.Rot>
2.7390

> <Gold.Chemscore.Internal.Correction>
   9.000000E+99

> <Gold.Chemscore.Hbonds>
donor molecule, donor type, donor heavy atom, donor atom, acceptor molecule, acceptor atom, score
      L1  H    15    44       P1  8028  0.92
      P1  H  7997  8008       L1    11  0.59
      P1  H 10752 10765       L1     8  0.91

> <Gold.Chemscore.Hbond.Weighted>
-8.8396

> <Gold.Chemscore.Metal.Weighted>
-0.0000

> <Gold.Chemscore.Lipo.Weighted>
-14.5246

> <Gold.Chemscore.Internal_Hbond.Weighted>
0.0000

> <Gold.Chemscore.DEClash.Weighted>
0.1230

> <Gold.Chemscore.DEInternal.Weighted>
1.1125

> <Gold.Chemscore.Rot.Weighted>
7.0118

> <Gold.Chemscore.Internal.Correction.Weighted>
   9.000000E+99

> <Gold.Protein.RotatedTorsions>
[ 6907 6896 6895 6894 ] final  129.62 input  -60.11 | X-H torsion
[ 7974 7965 7964 7962 ] final  170.76 input  175.53 | X-H torsion
[ 8008 7997 7996 7995 ] final  -17.93 input   59.86 | X-H torsion
[ 10167 10162 10161 10158 ] final   63.98 input  -65.29 | X-H torsion
[ 10718 10713 10712 10709 ] final  114.32 input   66.30 | X-H torsion
[ 10763 10752 10751 10750 ] final -162.48 input  -60.55 | X-H torsion
[ 11005 11000 10999 10996 ] final  -58.18 input  -57.11 | X-H torsion

> <Gold.Protein.ActiveResidues>
 VAL166  LYS551  ARG553  GLY616  TRP617  ASP618  TYR619  PRO620  LYS621  CYS622 
 ASP623  PHE694  ASN695  SER759  ASP760  ASP761  ALA762  ILE779  LEU786  VAL792 
 PHE793  MET794  SER795  GLU796  ALA797  LYS798  CYS799  TRP800  GLU811  SER814 

> <Gold.Protein.RotatedAtoms>
  152.3606  133.6292  159.6011 H   0  0  0  0  0  0  0  0  0  0  0  0  # atno 6907 bound_to 6896
  150.7598  133.9430  159.3471 H   0  0  0  0  0  0  0  0  0  0  0  0  # atno 6908 bound_to 6896
  151.7268  135.0884  160.0344 H   0  0  0  0  0  0  0  0  0  0  0  0  # atno 6909 bound_to 6896
  144.7314  139.9249  143.6422 H   0  0  0  0  0  0  0  0  0  0  0  0  # atno 7974 bound_to 7965
  154.4943  140.2129  155.9482 H   0  0  0  0  0  0  0  0  0  0  0  0  # atno 8008 bound_to 7997
  156.1348  140.3190  155.8372 H   0  0  0  0  0  0  0  0  0  0  0  0  # atno 8009 bound_to 7997
  155.4230  140.0498  157.3015 H   0  0  0  0  0  0  0  0  0  0  0  0  # atno 8010 bound_to 7997
  140.1271  144.4677  150.6886 H   0  0  0  0  0  0  0  0  0  0  0  0  # atno 10167 bound_to 10162
  157.6288  131.0997  150.7168 H   0  0  0  0  0  0  0  0  0  0  0  0  # atno 10718 bound_to 10713
  154.7210  135.3026  154.9047 H   0  0  0  0  0  0  0  0  0  0  0  0  # atno 10763 bound_to 10752
  153.9918  135.6717  153.4758 H   0  0  0  0  0  0  0  0  0  0  0  0  # atno 10764 bound_to 10752
  153.0834  135.4997  154.8466 H   0  0  0  0  0  0  0  0  0  0  0  0  # atno 10765 bound_to 10752
  141.1196  133.6611  156.4882 H   0  0  0  0  0  0  0  0  0  0  0  0  # atno 11005 bound_to 11000
  146.0901  139.3891  143.0411 LP  0  0  0  0  0  0  0  0  0  0  0  0  # atno 17320 bound_to 7965
  145.7722  140.9891  143.1143 LP  0  0  0  0  0  0  0  0  0  0  0  0  # atno 17321 bound_to 7965
  140.6838  143.2340  151.5314 LP  0  0  0  0  0  0  0  0  0  0  0  0  # atno 17342 bound_to 10162
  139.5538  144.2327  152.1577 LP  0  0  0  0  0  0  0  0  0  0  0  0  # atno 17343 bound_to 10162
  156.7511  130.4769  149.5456 LP  0  0  0  0  0  0  0  0  0  0  0  0  # atno 17370 bound_to 10713
  156.1478  130.6289  151.0554 LP  0  0  0  0  0  0  0  0  0  0  0  0  # atno 17371 bound_to 10713
  140.4545  134.6898  157.5056 LP  0  0  0  0  0  0  0  0  0  0  0  0  # atno 17394 bound_to 11000
  140.0144  134.6642  155.9332 LP  0  0  0  0  0  0  0  0  0  0  0  0  # atno 17395 bound_to 11000

$$$$
