AV-unprocessed.smi:209|AV-procd|sdf|1607|dock8
  -GOLD-   2262019523D 1   1.00000     0.00000
 Structure written by MMmdl.
 48 52  0  0  0  0  0  0  0  0  1 V2000
  151.9571  144.7146  161.1940 O   0  0  0  0  0  0  0  0  0  0  0  0
  152.4828  143.6491  160.8791 C   0  0  0  0  0  0  0  0  0  0  0  0
  152.7026  142.6153  161.6896 N   0  0  0  0  0  0  0  0  0  0  0  0
  153.2595  141.4615  161.0040 C   0  0  0  0  0  0  0  0  0  0  0  0
  153.0952  141.7849  159.4981 C   0  0  2  0  0  0  0  0  0  0  0  0
  153.0155  143.3314  159.4889 C   0  0  1  0  0  0  0  0  0  0  0  0
  152.2496  143.9533  158.3019 C   0  0  0  0  0  0  0  0  0  0  0  0
  150.9735  143.1773  157.9653 C   0  0  0  0  0  0  0  0  0  0  0  0
  151.3095  141.6993  157.7464 C   0  0  0  0  0  0  0  0  0  0  0  0
  151.8895  141.1283  158.9587 N   0  0  0  0  0  0  0  0  0  0  0  0
  151.8560  139.7708  158.9500 C   0  0  0  0  0  0  0  0  0  0  0  0
  152.9472  139.0578  159.3382 N   0  0  0  0  0  0  0  0  0  0  0  0
  152.9194  137.7219  159.3237 C   0  0  0  0  0  0  0  0  0  0  0  0
  151.9221  136.9118  158.9637 N   0  0  0  0  0  0  0  0  0  0  0  0
  150.8244  137.6214  158.5748 C   0  0  0  0  0  0  0  0  0  0  0  0
  150.7075  139.0392  158.5375 C   0  0  0  0  0  0  0  0  0  0  0  0
  149.4395  139.3984  158.0974 N   0  0  0  0  0  0  0  0  0  0  0  0
  148.8428  138.2579  157.8809 C   0  0  0  0  0  0  0  0  0  0  0  0
  149.6041  137.1387  158.1338 N   0  0  0  0  0  0  0  0  0  0  0  0
  149.1936  135.7504  157.9854 C   0  0  0  0  0  0  0  0  0  0  0  0
  149.8544  135.0269  156.7970 C   0  0  0  0  0  0  0  0  0  0  0  0
  149.3003  133.5896  156.7250 C   0  0  0  0  0  0  0  0  0  0  0  0
  149.8603  132.8466  155.6602 O   0  0  0  0  0  0  0  0  0  0  0  0
  149.8600  135.8199  155.4822 C   0  0  0  0  0  0  0  0  0  0  0  0
  151.2896  135.6767  155.3312 O   0  0  0  0  0  0  0  0  0  0  0  0
  151.3788  135.1676  156.6804 C   0  0  0  0  0  0  0  0  0  0  0  0
  153.9684  141.4573  158.9325 H   0  0  0  0  0  0  0  0  0  0  0  0
  154.0308  143.7308  159.4774 H   0  0  0  0  0  0  0  0  0  0  0  0
  152.4421  142.5959  162.6651 H   0  0  0  0  0  0  0  0  0  0  0  0
  154.3154  141.3826  161.2648 H   0  0  0  0  0  0  0  0  0  0  0  0
  152.7693  140.5419  161.3251 H   0  0  0  0  0  0  0  0  0  0  0  0
  152.0108  144.9991  158.4996 H   0  0  0  0  0  0  0  0  0  0  0  0
  152.9014  143.9564  157.4275 H   0  0  0  0  0  0  0  0  0  0  0  0
  150.2446  143.2804  158.7702 H   0  0  0  0  0  0  0  0  0  0  0  0
  150.5114  143.5923  157.0693 H   0  0  0  0  0  0  0  0  0  0  0  0
  150.4039  141.1674  157.4537 H   0  0  0  0  0  0  0  0  0  0  0  0
  152.0180  141.5904  156.9241 H   0  0  0  0  0  0  0  0  0  0  0  0
  153.8268  137.2323  159.6451 H   0  0  0  0  0  0  0  0  0  0  0  0
  147.8225  138.2040  157.5303 H   0  0  0  0  0  0  0  0  0  0  0  0
  149.4062  135.2253  158.9174 H   0  0  0  0  0  0  0  0  0  0  0  0
  148.1076  135.7389  157.8848 H   0  0  0  0  0  0  0  0  0  0  0  0
  149.5094  133.0404  157.6430 H   0  0  0  0  0  0  0  0  0  0  0  0
  148.2172  133.5972  156.5994 H   0  0  0  0  0  0  0  0  0  0  0  0
  150.4632  132.2135  156.0191 H   0  0  0  0  0  0  0  0  0  0  0  0
  149.3021  135.3522  154.6704 H   0  0  0  0  0  0  0  0  0  0  0  0
  149.5700  136.8658  155.5939 H   0  0  0  0  0  0  0  0  0  0  0  0
  151.8124  135.9048  157.3568 H   0  0  0  0  0  0  0  0  0  0  0  0
  151.9212  134.2231  156.7374 H   0  0  0  0  0  0  0  0  0  0  0  0
  1  2  2  0  0  0  0
  2  6  1  0  0  0  0
  2  3  1  0  0  0  0
  3  4  1  0  0  0  0
  3 29  1  0  0  0  0
  4  5  1  0  0  0  0
  4 30  1  0  0  0  0
  4 31  1  0  0  0  0
  5 27  1  0  0  0  0
  5 10  1  0  0  0  0
  5  6  1  0  0  0  0
  6 28  1  0  0  0  0
  6  7  1  0  0  0  0
  7  8  1  0  0  0  0
  7 32  1  0  0  0  0
  7 33  1  0  0  0  0
  8  9  1  0  0  0  0
  8 34  1  0  0  0  0
  8 35  1  0  0  0  0
  9 10  1  0  0  0  0
  9 36  1  0  0  0  0
  9 37  1  0  0  0  0
 10 11  1  0  0  0  0
 11 16  1  0  0  0  0
 11 12  2  0  0  0  0
 12 13  1  0  0  0  0
 13 14  2  0  0  0  0
 13 38  1  0  0  0  0
 14 15  1  0  0  0  0
 15 19  1  0  0  0  0
 15 16  2  0  0  0  0
 16 17  1  0  0  0  0
 17 18  2  0  0  0  0
 18 19  1  0  0  0  0
 18 39  1  0  0  0  0
 19 20  1  0  0  0  0
 20 21  1  0  0  0  0
 20 40  1  0  0  0  0
 20 41  1  0  0  0  0
 21 26  1  0  0  0  0
 21 22  1  0  0  0  0
 21 24  1  0  0  0  0
 22 23  1  0  0  0  0
 22 42  1  0  0  0  0
 22 43  1  0  0  0  0
 23 44  1  0  0  0  0
 24 25  1  0  0  0  0
 24 45  1  0  0  0  0
 24 46  1  0  0  0  0
 25 26  1  0  0  0  0
 26 47  1  0  0  0  0
 26 48  1  0  0  0  0
M  END
> <s_m_source_file>
AV-unprocessed.smi

> <i_m_source_file_index>
209

> <i_lp_mmshare_version>
43012

> <i_f3d_flags>
0

> <s_epik_input>
W0NIMl0xW05IXUMoPU8pW0NAQEhdKFtDQEBIXTEyKVtDSDJdW0NIMl1bQ0gyXU4yYyhuW2NIXW4zKWMoYzM0KW5bY0hdbjRbQ0gyXUM1KFtDSDJdW09IXSlbQ0gyXU9bQ0gyXTU=

> <s_epik_cmdline>
J2VwaWtfcHl0aG9uJywgJy1waCcsICc3LjAnLCAnLXRuJywgJzgnLCAnLW1hJywgJzIwMCcsICctbWV0YWxfYmluZGluZycsICctaW1hZScsICc8aW5maWxlLm1hZT4nLCAnLW9tYWUnLCAnPG91dGZpbGUubWFlPic=

> <r_lp_tautomer_probability>
1

> <r_epik_Ionization_Penalty>
0.00113306

> <r_epik_Ionization_Penalty_Charging>
0

> <r_epik_Ionization_Penalty_Neutral>
0.00113306

> <r_epik_State_Penalty>
0.000624042

> <r_epik_Charging_Adjusted_Penalty>
0.000624042

> <i_epik_Tot_Q>
0

> <i_epik_Tot_abs_Q>
0

> <r_epik_Metal_State_Penalty>
-0

> <b_epik_Metal_Only>
0

> <s_lp_Force_Field>
OPLS_2005

> <r_lp_Energy>
50.3938

> <b_lp_Chiralities_Consistent>
1

> <s_lp_Variant>
AV-unprocessed.smi:209-1

> <Gold.Version>
5.8.1

> <Gold.Id.Protein>
6NUR|6NUR_protein|mol2

> <Gold.PLP.Fitness>
44.6540

> <Gold.PLP.PLP>
-39.1151

> <Gold.PLP.part.hbond>
-2.0000

> <Gold.PLP.part.metal>
0.0000

> <Gold.PLP.part.buried>
-8.2119

> <Gold.PLP.part.nonpolar>
-31.2036

> <Gold.PLP.part.repulsive>
0.7228

> <Gold.PLP.ligand.clash>
0.0000

> <Gold.PLP.ligand.torsion>
0.5059

> <Gold.PLP.Chemscore.Hbond>
1.9516

> <Gold.PLP.Chemscore.CHOScore>
0.0000

> <Gold.PLP.Chemscore.Metal>
0.0000

> <Gold.Chemscore.Hbonds>
donor molecule, donor type, donor heavy atom, donor atom, acceptor molecule, acceptor atom, score
      P1  H  6896  6907       L1    14  0.92
      P1  H 10752 10763       L1    25  1.00

> <Gold.PLP.Chemscore.Internal.Correction>
0.6958

> <Gold.Rescore>
     Score         DG    S(hbond)    S(metal)    S(lipo)     H(rot)  DE(clash)    DE(int)     intcor
     10.86     -15.20       1.94        0.00      85.98       2.66       0.28       4.06       ----

> <Gold.Chemscore.Fitness>
10.8586

> <Gold.Chemscore.DG>
-15.2022

> <Gold.Chemscore.ZeroCoef>
-5.4800

> <Gold.Chemscore.Hbond>
1.9392

> <Gold.Chemscore.Metal>
0.0000

> <Gold.Chemscore.Lipo>
85.9832

> <Gold.Chemscore.Internal_Hbond>
0.0000

> <Gold.Chemscore.DEClash>
0.2809

> <Gold.Chemscore.DEInternal>
4.0627

> <Gold.Chemscore.Rot>
2.6620

> <Gold.Chemscore.Internal.Correction>
   9.000000E+99

> <Gold.Chemscore.Hbonds>
donor molecule, donor type, donor heavy atom, donor atom, acceptor molecule, acceptor atom, score
      P1  H  6896  6907       L1    14  0.77
      P1  H 10752 10763       L1    25  0.26

> <Gold.Chemscore.Hbond.Weighted>
-6.4770

> <Gold.Chemscore.Metal.Weighted>
-0.0000

> <Gold.Chemscore.Lipo.Weighted>
-10.0600

> <Gold.Chemscore.Internal_Hbond.Weighted>
0.0000

> <Gold.Chemscore.DEClash.Weighted>
0.2809

> <Gold.Chemscore.DEInternal.Weighted>
4.0627

> <Gold.Chemscore.Rot.Weighted>
6.8148

> <Gold.Chemscore.Internal.Correction.Weighted>
   9.000000E+99

> <Gold.Protein.RotatedTorsions>
[ 6907 6896 6895 6894 ] final    0.63 input  -60.11 | X-H torsion
[ 7974 7965 7964 7962 ] final -105.81 input  175.53 | X-H torsion
[ 8008 7997 7996 7995 ] final   17.65 input   59.86 | X-H torsion
[ 10167 10162 10161 10158 ] final  126.94 input  -65.29 | X-H torsion
[ 10718 10713 10712 10709 ] final   25.26 input   66.30 | X-H torsion
[ 10763 10752 10751 10750 ] final   74.27 input  -60.55 | X-H torsion
[ 11005 11000 10999 10996 ] final -116.67 input  -57.11 | X-H torsion

> <Gold.Protein.ActiveResidues>
 VAL166  LYS551  ARG553  GLY616  TRP617  ASP618  TYR619  PRO620  LYS621  CYS622 
 ASP623  PHE694  ASN695  SER759  ASP760  ASP761  ALA762  ILE779  LEU786  VAL792 
 PHE793  MET794  SER795  GLU796  ALA797  LYS798  CYS799  TRP800  GLU811  SER814 

> <Gold.Protein.RotatedAtoms>
  151.5796  135.1059  160.0013 H   0  0  0  0  0  0  0  0  0  0  0  0  # atno 6907 bound_to 6896
  152.4361  133.7359  159.6624 H   0  0  0  0  0  0  0  0  0  0  0  0  # atno 6908 bound_to 6896
  150.8259  133.8103  159.3142 H   0  0  0  0  0  0  0  0  0  0  0  0  # atno 6909 bound_to 6896
  145.2258  140.9152  143.3233 H   0  0  0  0  0  0  0  0  0  0  0  0  # atno 7974 bound_to 7965
  154.8946  140.2992  155.5351 H   0  0  0  0  0  0  0  0  0  0  0  0  # atno 8008 bound_to 7997
  156.3020  140.2418  156.3900 H   0  0  0  0  0  0  0  0  0  0  0  0  # atno 8009 bound_to 7997
  154.8584  140.0406  157.1638 H   0  0  0  0  0  0  0  0  0  0  0  0  # atno 8010 bound_to 7997
  139.5605  144.6878  151.4058 H   0  0  0  0  0  0  0  0  0  0  0  0  # atno 10167 bound_to 10162
  157.1909  130.6846  149.6150 H   0  0  0  0  0  0  0  0  0  0  0  0  # atno 10718 bound_to 10713
  153.0576  135.5032  154.8018 H   0  0  0  0  0  0  0  0  0  0  0  0  # atno 10763 bound_to 10752
  154.6832  135.2971  154.9587 H   0  0  0  0  0  0  0  0  0  0  0  0  # atno 10764 bound_to 10752
  154.0366  135.6722  153.4838 H   0  0  0  0  0  0  0  0  0  0  0  0  # atno 10765 bound_to 10752
  141.0406  133.9841  157.3000 H   0  0  0  0  0  0  0  0  0  0  0  0  # atno 11005 bound_to 11000
  144.9723  139.3868  143.6303 LP  0  0  0  0  0  0  0  0  0  0  0  0  # atno 17320 bound_to 7965
  146.3365  139.8826  142.8822 LP  0  0  0  0  0  0  0  0  0  0  0  0  # atno 17321 bound_to 7965
  140.6884  143.7920  150.7219 LP  0  0  0  0  0  0  0  0  0  0  0  0  # atno 17342 bound_to 10162
  140.1395  143.4454  152.2203 LP  0  0  0  0  0  0  0  0  0  0  0  0  # atno 17343 bound_to 10162
  155.9712  130.4615  150.6111 LP  0  0  0  0  0  0  0  0  0  0  0  0  # atno 17370 bound_to 10713
  157.3861  131.0788  151.1434 LP  0  0  0  0  0  0  0  0  0  0  0  0  # atno 17371 bound_to 10713
  139.9273  135.0201  156.8279 LP  0  0  0  0  0  0  0  0  0  0  0  0  # atno 17394 bound_to 11000
  140.6241  133.9967  155.7631 LP  0  0  0  0  0  0  0  0  0  0  0  0  # atno 17395 bound_to 11000

$$$$
