AV-unprocessed.smi:794|AV-procd|sdf|3761|dock10
  -GOLD-   22720 1193D 1   1.00000     0.00000
 Structure written by MMmdl.
 41 43  0  0  0  0  0  0  0  0  1 V2000
  138.0384  136.8528  155.1223 C   0  0  0  0  0  0  0  0  0  0  0  0
  139.3668  136.8834  154.4307 C   0  0  0  0  0  0  0  0  0  0  0  0
  139.9966  135.6820  154.0936 N   0  0  0  0  0  0  0  0  0  0  0  0
  141.1710  135.8783  153.4862 C   0  0  0  0  0  0  0  0  0  0  0  0
  142.0260  134.8372  153.0387 N   0  0  0  0  0  0  0  0  0  0  0  0
  142.9456  134.8811  152.0588 C   0  0  0  0  0  0  0  0  0  0  0  0
  143.2157  135.8717  151.3789 O   0  0  0  0  0  0  0  0  0  0  0  0
  143.5474  133.6935  151.9041 N   0  0  0  0  0  0  0  0  0  0  0  0
  144.5855  133.4088  150.9158 C   0  0  1  0  0  0  0  0  0  0  0  0
  145.9599  133.0715  151.5463 C   0  0  1  0  0  0  0  0  0  0  0  0
  145.8390  131.9554  152.6064 C   0  0  0  0  0  0  0  0  0  0  0  0
  145.5257  130.7125  151.7525 C   0  0  0  0  0  0  0  0  0  0  0  0
  145.5321  131.2743  150.3176 C   0  0  2  0  0  0  0  0  0  0  0  0
  146.6375  132.3208  150.4074 C   0  0  0  0  0  0  0  0  0  0  0  0
  144.2618  132.1314  150.0982 C   0  0  2  0  0  0  0  0  0  0  0  0
  143.9668  132.4353  148.6163 C   0  0  0  0  0  0  0  0  0  0  0  0
  142.7818  131.7858  148.2059 O   0  0  0  0  0  0  0  0  0  0  0  0
  141.5839  137.5722  153.2838 S   0  0  0  0  0  0  0  0  0  0  0  0
  140.0848  138.0006  154.0707 C   0  0  0  0  0  0  0  0  0  0  0  0
  139.7112  139.4300  154.2828 C   0  0  0  0  0  0  0  0  0  0  0  0
  137.3341  137.5405  154.6541 H   0  0  0  0  0  0  0  0  0  0  0  0
  138.1365  137.1406  156.1692 H   0  0  0  0  0  0  0  0  0  0  0  0
  137.5916  135.8583  155.0939 H   0  0  0  0  0  0  0  0  0  0  0  0
  141.9150  133.9525  153.5114 H   0  0  0  0  0  0  0  0  0  0  0  0
  143.2705  132.9332  152.5075 H   0  0  0  0  0  0  0  0  0  0  0  0
  144.6953  134.2636  150.2449 H   0  0  0  0  0  0  0  0  0  0  0  0
  146.5033  133.9485  151.8994 H   0  0  0  0  0  0  0  0  0  0  0  0
  146.7867  131.8235  153.1299 H   0  0  0  0  0  0  0  0  0  0  0  0
  145.0767  132.1506  153.3609 H   0  0  0  0  0  0  0  0  0  0  0  0
  146.3030  129.9575  151.8769 H   0  0  0  0  0  0  0  0  0  0  0  0
  144.5718  130.2543  152.0160 H   0  0  0  0  0  0  0  0  0  0  0  0
  145.6877  130.5069  149.5588 H   0  0  0  0  0  0  0  0  0  0  0  0
  146.7514  132.9190  149.5022 H   0  0  0  0  0  0  0  0  0  0  0  0
  147.6086  131.9032  150.6796 H   0  0  0  0  0  0  0  0  0  0  0  0
  143.3947  131.6152  150.5149 H   0  0  0  0  0  0  0  0  0  0  0  0
  143.8349  133.5081  148.4727 H   0  0  0  0  0  0  0  0  0  0  0  0
  144.7892  132.1238  147.9724 H   0  0  0  0  0  0  0  0  0  0  0  0
  142.5271  132.1293  147.3630 H   0  0  0  0  0  0  0  0  0  0  0  0
  139.4303  139.6067  155.3213 H   0  0  0  0  0  0  0  0  0  0  0  0
  138.8651  139.7048  153.6529 H   0  0  0  0  0  0  0  0  0  0  0  0
  140.5403  140.0960  154.0433 H   0  0  0  0  0  0  0  0  0  0  0  0
  1  2  1  0  0  0  0
  1 21  1  0  0  0  0
  1 22  1  0  0  0  0
  1 23  1  0  0  0  0
  2 19  2  0  0  0  0
  2  3  1  0  0  0  0
  3  4  2  0  0  0  0
  4  5  1  0  0  0  0
  4 18  1  0  0  0  0
  5  6  1  0  0  0  0
  5 24  1  0  0  0  0
  6  7  2  0  0  0  0
  6  8  1  0  0  0  0
  8  9  1  0  0  0  0
  8 25  1  0  0  0  0
  9 15  1  0  0  0  0
  9 10  1  0  0  0  0
  9 26  1  0  0  0  0
 10 14  1  0  0  0  0
 10 11  1  0  0  0  0
 10 27  1  0  0  0  0
 11 12  1  0  0  0  0
 11 28  1  0  0  0  0
 11 29  1  0  0  0  0
 12 13  1  0  0  0  0
 12 30  1  0  0  0  0
 12 31  1  0  0  0  0
 13 14  1  0  0  0  0
 13 15  1  0  0  0  0
 13 32  1  0  0  0  0
 14 33  1  0  0  0  0
 14 34  1  0  0  0  0
 15 16  1  0  0  0  0
 15 35  1  0  0  0  0
 16 17  1  0  0  0  0
 16 36  1  0  0  0  0
 16 37  1  0  0  0  0
 17 38  1  0  0  0  0
 18 19  1  0  0  0  0
 19 20  1  0  0  0  0
 20 39  1  0  0  0  0
 20 40  1  0  0  0  0
 20 41  1  0  0  0  0
M  END
> <s_m_source_file>
AV-unprocessed.smi

> <i_m_source_file_index>
794

> <i_lp_mmshare_version>
43012

> <i_f3d_flags>
0

> <s_epik_input>
W0NIM11jMW5jKHNjMVtDSDNdKVtOSF1DKD1PKVtOSF1bQ0BIXShbQ0BASF0yMylbQ0BIXShbQ0gyXVtPSF0pW0NAQEhdKFtDSDJdMylbQ0gyXVtDSDJdMg==

> <s_epik_cmdline>
J2VwaWtfcHl0aG9uJywgJy1waCcsICc3LjAnLCAnLXRuJywgJzgnLCAnLW1hJywgJzIwMCcsICctbWV0YWxfYmluZGluZycsICctaW1hZScsICc8aW5maWxlLm1hZT4nLCAnLW9tYWUnLCAnPG91dGZpbGUubWFlPic=

> <r_lp_tautomer_probability>
0.999

> <r_epik_Ionization_Penalty>
0.000713029

> <r_epik_Ionization_Penalty_Charging>
0

> <r_epik_Ionization_Penalty_Neutral>
0.000713029

> <r_epik_State_Penalty>
0.000177984

> <r_epik_Charging_Adjusted_Penalty>
0.000177984

> <i_epik_Tot_Q>
0

> <i_epik_Tot_abs_Q>
0

> <r_epik_Metal_State_Penalty>
-0

> <b_epik_Metal_Only>
0

> <s_lp_Force_Field>
OPLS_2005

> <r_lp_Energy>
47.7468

> <b_lp_Chiralities_Consistent>
1

> <s_lp_Variant>
AV-unprocessed.smi:794-6

> <Gold.Version>
5.8.1

> <Gold.Id.Protein>
6NUR|6NUR_protein|mol2

> <Gold.PLP.Fitness>
42.6547

> <Gold.PLP.PLP>
-37.1108

> <Gold.PLP.part.hbond>
-4.3947

> <Gold.PLP.part.metal>
0.0000

> <Gold.PLP.part.buried>
-4.0615

> <Gold.PLP.part.nonpolar>
-29.2076

> <Gold.PLP.part.repulsive>
0.3679

> <Gold.PLP.ligand.clash>
0.0000

> <Gold.PLP.ligand.torsion>
0.8944

> <Gold.PLP.Chemscore.Hbond>
2.4386

> <Gold.PLP.Chemscore.CHOScore>
0.0000

> <Gold.PLP.Chemscore.Metal>
0.0000

> <Gold.Chemscore.Hbonds>
donor molecule, donor type, donor heavy atom, donor atom, acceptor molecule, acceptor atom, score
      L1  H    17    38       P1 10195  0.50
      P1  H 10785 10796       L1    17  0.70
      P1  H 11000 11005       L1     3  0.89

> <Gold.PLP.Chemscore.Internal.Correction>
0.0169

> <Gold.Rescore>
     Score         DG    S(hbond)    S(metal)    S(lipo)     H(rot)  DE(clash)    DE(int)     intcor
     16.16     -18.93       2.54        0.00      81.38       1.78       0.86       1.91       ----

> <Gold.Chemscore.Fitness>
16.1631

> <Gold.Chemscore.DG>
-18.9270

> <Gold.Chemscore.ZeroCoef>
-5.4800

> <Gold.Chemscore.Hbond>
2.5396

> <Gold.Chemscore.Metal>
0.0000

> <Gold.Chemscore.Lipo>
81.3763

> <Gold.Chemscore.Internal_Hbond>
0.0000

> <Gold.Chemscore.DEClash>
0.8556

> <Gold.Chemscore.DEInternal>
1.9083

> <Gold.Chemscore.Rot>
1.7798

> <Gold.Chemscore.Internal.Correction>
   9.000000E+99

> <Gold.Chemscore.Hbonds>
donor molecule, donor type, donor heavy atom, donor atom, acceptor molecule, acceptor atom, score
      L1  H    17    38       P1 10195  0.50
      P1  H 10785 10796       L1    17  0.15
      P1  H 11000 11005       L1     3  0.36

> <Gold.Chemscore.Hbond.Weighted>
-8.4822

> <Gold.Chemscore.Metal.Weighted>
-0.0000

> <Gold.Chemscore.Lipo.Weighted>
-9.5210

> <Gold.Chemscore.Internal_Hbond.Weighted>
0.0000

> <Gold.Chemscore.DEClash.Weighted>
0.8556

> <Gold.Chemscore.DEInternal.Weighted>
1.9083

> <Gold.Chemscore.Rot.Weighted>
4.5562

> <Gold.Chemscore.Internal.Correction.Weighted>
   9.000000E+99

> <Gold.Protein.RotatedTorsions>
[ 6907 6896 6895 6894 ] final   78.66 input  -60.11 | X-H torsion
[ 7974 7965 7964 7962 ] final  -50.02 input  175.53 | X-H torsion
[ 8008 7997 7996 7995 ] final   55.33 input   59.86 | X-H torsion
[ 10167 10162 10161 10158 ] final   44.89 input  -65.29 | X-H torsion
[ 10718 10713 10712 10709 ] final   46.90 input   66.30 | X-H torsion
[ 10763 10752 10751 10750 ] final  142.66 input  -60.55 | X-H torsion
[ 11005 11000 10999 10996 ] final   56.68 input  -57.11 | X-H torsion

> <Gold.Protein.ActiveResidues>
 VAL166  LYS551  ARG553  GLY616  TRP617  ASP618  TYR619  PRO620  LYS621  CYS622 
 ASP623  PHE694  ASN695  SER759  ASP760  ASP761  ALA762  ILE779  LEU786  VAL792 
 PHE793  MET794  SER795  GLU796  ALA797  LYS798  CYS799  TRP800  GLU811  SER814 

> <Gold.Protein.RotatedAtoms>
  152.5168  134.3629  159.9290 H   0  0  0  0  0  0  0  0  0  0  0  0  # atno 6907 bound_to 6896
  151.3582  133.3893  159.2695 H   0  0  0  0  0  0  0  0  0  0  0  0  # atno 6908 bound_to 6896
  150.9673  134.9070  159.7825 H   0  0  0  0  0  0  0  0  0  0  0  0  # atno 6909 bound_to 6896
  145.9344  140.7720  142.9583 H   0  0  0  0  0  0  0  0  0  0  0  0  # atno 7974 bound_to 7965
  155.4994  140.3474  155.4368 H   0  0  0  0  0  0  0  0  0  0  0  0  # atno 8008 bound_to 7997
  156.0924  140.1414  156.9603 H   0  0  0  0  0  0  0  0  0  0  0  0  # atno 8009 bound_to 7997
  154.4643  140.0923  156.6954 H   0  0  0  0  0  0  0  0  0  0  0  0  # atno 8010 bound_to 7997
  140.3297  144.2603  150.6170 H   0  0  0  0  0  0  0  0  0  0  0  0  # atno 10167 bound_to 10162
  157.4530  130.8150  149.7807 H   0  0  0  0  0  0  0  0  0  0  0  0  # atno 10718 bound_to 10713
  153.9595  135.2961  155.3434 H   0  0  0  0  0  0  0  0  0  0  0  0  # atno 10763 bound_to 10752
  154.7382  135.5037  153.9081 H   0  0  0  0  0  0  0  0  0  0  0  0  # atno 10764 bound_to 10752
  153.0953  135.6719  153.9884 H   0  0  0  0  0  0  0  0  0  0  0  0  # atno 10765 bound_to 10752
  140.0511  134.5736  155.9263 H   0  0  0  0  0  0  0  0  0  0  0  0  # atno 11005 bound_to 11000
  144.6769  140.2179  143.7370 LP  0  0  0  0  0  0  0  0  0  0  0  0  # atno 17320 bound_to 7965
  145.8384  139.2118  143.1842 LP  0  0  0  0  0  0  0  0  0  0  0  0  # atno 17321 bound_to 7965
  140.5408  143.2224  151.8088 LP  0  0  0  0  0  0  0  0  0  0  0  0  # atno 17342 bound_to 10162
  139.4858  144.4603  151.9549 LP  0  0  0  0  0  0  0  0  0  0  0  0  # atno 17343 bound_to 10162
  155.9995  130.3888  150.2662 LP  0  0  0  0  0  0  0  0  0  0  0  0  # atno 17370 bound_to 10713
  157.0835  131.0150  151.3148 LP  0  0  0  0  0  0  0  0  0  0  0  0  # atno 17371 bound_to 10713
  141.1930  133.6577  156.5530 LP  0  0  0  0  0  0  0  0  0  0  0  0  # atno 17394 bound_to 11000
  140.3916  134.7435  157.4725 LP  0  0  0  0  0  0  0  0  0  0  0  0  # atno 17395 bound_to 11000

$$$$
