AV-unprocessed.smi:1793|AV-procd|sdf|7224|dock8
  -GOLD-   22720 8463D 1   1.00000     0.00000
 Structure written by MMmdl.
 46 48  0  0  0  0  0  0  0  0  1 V2000
  144.4110  135.5965  150.4681 C   0  0  0  0  0  0  0  0  0  0  0  0
  144.9311  135.2772  151.8818 C   0  0  2  0  0  0  0  0  0  0  0  0
  146.0917  136.1117  152.1816 N   0  0  0  0  0  0  0  0  0  0  0  0
  146.0509  137.3302  152.7381 C   0  0  0  0  0  0  0  0  0  0  0  0
  145.0069  137.9013  153.0534 O   0  0  0  0  0  0  0  0  0  0  0  0
  147.2863  137.8371  152.8816 N   0  0  0  0  0  0  0  0  0  0  0  0
  147.6553  139.1360  153.3318 C   0  0  0  0  0  0  0  0  0  0  0  0
  146.7952  140.2489  153.1658 C   0  0  0  0  0  0  0  0  0  0  0  0
  147.1752  141.4981  153.6862 C   0  0  0  0  0  0  0  0  0  0  0  0
  148.3976  141.5879  154.3718 C   0  0  0  0  0  0  0  0  0  0  0  0
  149.2204  140.5357  154.5515 N   0  0  0  0  0  0  0  0  0  0  0  0
  148.8755  139.3271  154.0423 C   0  0  0  0  0  0  0  0  0  0  0  0
  149.7860  138.2650  154.2485 N   0  0  0  0  0  0  0  0  0  0  0  0
  149.4126  137.1179  155.0691 C   0  0  0  0  0  0  0  0  0  0  0  0
  150.7269  136.4023  155.3676 C   0  0  0  0  0  0  0  0  0  0  0  0
  151.7052  137.5652  155.5029 C   0  0  0  0  0  0  0  0  0  0  0  0
  151.1874  138.5945  154.4924 C   0  0  0  0  0  0  0  0  0  0  0  0
  145.3244  133.7952  152.0362 C   0  0  2  0  0  0  0  0  0  0  0  0
  146.2290  133.2546  150.9283 C   0  0  0  0  0  0  0  0  0  0  0  0
  145.9709  131.7683  151.0219 C   0  0  0  0  0  0  0  0  0  0  0  0
  144.4791  131.7229  151.3416 C   0  0  0  0  0  0  0  0  0  0  0  0
  144.1690  132.9614  151.9765 O   0  0  0  0  0  0  0  0  0  0  0  0
  143.5180  135.0177  150.2330 H   0  0  0  0  0  0  0  0  0  0  0  0
  145.1620  135.3728  149.7098 H   0  0  0  0  0  0  0  0  0  0  0  0
  144.1446  136.6494  150.3712 H   0  0  0  0  0  0  0  0  0  0  0  0
  144.1427  135.4988  152.6038 H   0  0  0  0  0  0  0  0  0  0  0  0
  146.9961  135.7220  151.9595 H   0  0  0  0  0  0  0  0  0  0  0  0
  148.0397  137.2821  152.5029 H   0  0  0  0  0  0  0  0  0  0  0  0
  145.8414  140.1602  152.6687 H   0  0  0  0  0  0  0  0  0  0  0  0
  146.5381  142.3628  153.5736 H   0  0  0  0  0  0  0  0  0  0  0  0
  148.7216  142.5282  154.7930 H   0  0  0  0  0  0  0  0  0  0  0  0
  148.9574  137.4441  156.0052 H   0  0  0  0  0  0  0  0  0  0  0  0
  148.7059  136.4701  154.5498 H   0  0  0  0  0  0  0  0  0  0  0  0
  150.6777  135.7765  156.2590 H   0  0  0  0  0  0  0  0  0  0  0  0
  151.0103  135.7722  154.5233 H   0  0  0  0  0  0  0  0  0  0  0  0
  151.6443  137.9780  156.5110 H   0  0  0  0  0  0  0  0  0  0  0  0
  152.7406  137.2763  155.3201 H   0  0  0  0  0  0  0  0  0  0  0  0
  151.7384  138.5027  153.5562 H   0  0  0  0  0  0  0  0  0  0  0  0
  151.3131  139.6137  154.8611 H   0  0  0  0  0  0  0  0  0  0  0  0
  145.8050  133.6298  153.0023 H   0  0  0  0  0  0  0  0  0  0  0  0
  145.9113  133.6288  149.9536 H   0  0  0  0  0  0  0  0  0  0  0  0
  147.2792  133.5117  151.0698 H   0  0  0  0  0  0  0  0  0  0  0  0
  146.2288  131.2282  150.1105 H   0  0  0  0  0  0  0  0  0  0  0  0
  146.5445  131.3422  151.8462 H   0  0  0  0  0  0  0  0  0  0  0  0
  143.8919  131.6476  150.4257 H   0  0  0  0  0  0  0  0  0  0  0  0
  144.2219  130.8762  151.9784 H   0  0  0  0  0  0  0  0  0  0  0  0
  1  2  1  0  0  0  0
  1 23  1  0  0  0  0
  1 24  1  0  0  0  0
  1 25  1  0  0  0  0
  2  3  1  0  0  0  0
  2 18  1  0  0  0  0
  2 26  1  0  0  0  0
  3  4  1  0  0  0  0
  3 27  1  0  0  0  0
  4  5  2  0  0  0  0
  4  6  1  0  0  0  0
  6  7  1  0  0  0  0
  6 28  1  0  0  0  0
  7 12  1  0  0  0  0
  7  8  2  0  0  0  0
  8  9  1  0  0  0  0
  8 29  1  0  0  0  0
  9 10  2  0  0  0  0
  9 30  1  0  0  0  0
 10 11  1  0  0  0  0
 10 31  1  0  0  0  0
 11 12  2  0  0  0  0
 12 13  1  0  0  0  0
 13 17  1  0  0  0  0
 13 14  1  0  0  0  0
 14 15  1  0  0  0  0
 14 32  1  0  0  0  0
 14 33  1  0  0  0  0
 15 16  1  0  0  0  0
 15 34  1  0  0  0  0
 15 35  1  0  0  0  0
 16 17  1  0  0  0  0
 16 36  1  0  0  0  0
 16 37  1  0  0  0  0
 17 38  1  0  0  0  0
 17 39  1  0  0  0  0
 18 22  1  0  0  0  0
 18 19  1  0  0  0  0
 18 40  1  0  0  0  0
 19 20  1  0  0  0  0
 19 41  1  0  0  0  0
 19 42  1  0  0  0  0
 20 21  1  0  0  0  0
 20 43  1  0  0  0  0
 20 44  1  0  0  0  0
 21 22  1  0  0  0  0
 21 45  1  0  0  0  0
 21 46  1  0  0  0  0
M  END
> <s_m_source_file>
AV-unprocessed.smi

> <i_m_source_file_index>
1793

> <i_lp_mmshare_version>
43012

> <i_f3d_flags>
0

> <s_epik_input>
TzFbQ0gyXVtDSDJdW0NIMl1bQ0BIXTFbQ0BIXShbQ0gzXSlbTkhdQyg9TylbTkhdYzJbY0hdW2NIXVtjSF1uYzJOM1tDSDJdW0NIMl1bQ0gyXVtDSDJdMw==

> <s_epik_cmdline>
J2VwaWtfcHl0aG9uJywgJy1waCcsICc3LjAnLCAnLXRuJywgJzgnLCAnLW1hJywgJzIwMCcsICctbWV0YWxfYmluZGluZycsICctaW1hZScsICc8aW5maWxlLm1hZT4nLCAnLW9tYWUnLCAnPG91dGZpbGUubWFlPic=

> <r_lp_tautomer_probability>
1

> <r_epik_Ionization_Penalty>
0.0992086

> <r_epik_Ionization_Penalty_Charging>
0

> <r_epik_Ionization_Penalty_Neutral>
0.0992086

> <r_epik_State_Penalty>
0.0887141

> <r_epik_Charging_Adjusted_Penalty>
0.0887141

> <i_epik_Tot_Q>
0

> <i_epik_Tot_abs_Q>
0

> <r_epik_Metal_State_Penalty>
0.075945

> <b_epik_Metal_Only>
0

> <s_lp_Force_Field>
OPLS_2005

> <r_lp_Energy>
46.4352

> <b_lp_Chiralities_Consistent>
1

> <s_lp_Variant>
AV-unprocessed.smi:1793-1

> <Gold.Version>
5.8.1

> <Gold.Id.Protein>
6NUR|6NUR_protein|mol2

> <Gold.PLP.Fitness>
40.6967

> <Gold.PLP.PLP>
-33.8686

> <Gold.PLP.part.hbond>
-1.9864

> <Gold.PLP.part.metal>
0.0000

> <Gold.PLP.part.buried>
-3.0914

> <Gold.PLP.part.nonpolar>
-31.6800

> <Gold.PLP.part.repulsive>
2.0057

> <Gold.PLP.ligand.clash>
0.0000

> <Gold.PLP.ligand.torsion>
1.0215

> <Gold.PLP.Chemscore.Hbond>
1.8393

> <Gold.PLP.Chemscore.CHOScore>
1.0000

> <Gold.PLP.Chemscore.Metal>
0.0000

> <Gold.Chemscore.Hbonds>
donor molecule, donor type, donor heavy atom, donor atom, acceptor molecule, acceptor atom, score
      L1  H     3    27       P1  7948  0.85
      L1  H     6    28       P1  7948  0.98
      L1  C    10    31       P1  8028  1.00

> <Gold.PLP.Chemscore.Internal.Correction>
0.3533

> <Gold.Rescore>
     Score         DG    S(hbond)    S(metal)    S(lipo)     H(rot)  DE(clash)    DE(int)     intcor
     16.29     -19.03       1.87        0.00      92.13       1.36       0.58       2.16       ----

> <Gold.Chemscore.Fitness>
16.2885

> <Gold.Chemscore.DG>
-19.0344

> <Gold.Chemscore.ZeroCoef>
-5.4800

> <Gold.Chemscore.Hbond>
1.8721

> <Gold.Chemscore.Metal>
0.0000

> <Gold.Chemscore.Lipo>
92.1260

> <Gold.Chemscore.Internal_Hbond>
0.0000

> <Gold.Chemscore.DEClash>
0.5841

> <Gold.Chemscore.DEInternal>
2.1618

> <Gold.Chemscore.Rot>
1.3582

> <Gold.Chemscore.Internal.Correction>
   9.000000E+99

> <Gold.Chemscore.Hbonds>
donor molecule, donor type, donor heavy atom, donor atom, acceptor molecule, acceptor atom, score
      L1  H     3    27       P1  7948  0.80
      L1  H     6    28       P1  7948  0.92

> <Gold.Chemscore.Hbond.Weighted>
-6.2527

> <Gold.Chemscore.Metal.Weighted>
-0.0000

> <Gold.Chemscore.Lipo.Weighted>
-10.7787

> <Gold.Chemscore.Internal_Hbond.Weighted>
0.0000

> <Gold.Chemscore.DEClash.Weighted>
0.5841

> <Gold.Chemscore.DEInternal.Weighted>
2.1618

> <Gold.Chemscore.Rot.Weighted>
3.4771

> <Gold.Chemscore.Internal.Correction.Weighted>
   9.000000E+99

> <Gold.Protein.RotatedTorsions>
[ 6907 6896 6895 6894 ] final -101.03 input  -60.11 | X-H torsion
[ 7974 7965 7964 7962 ] final  -24.32 input  175.53 | X-H torsion
[ 8008 7997 7996 7995 ] final  -73.05 input   59.86 | X-H torsion
[ 10167 10162 10161 10158 ] final   79.76 input  -65.29 | X-H torsion
[ 10718 10713 10712 10709 ] final   -9.24 input   66.30 | X-H torsion
[ 10763 10752 10751 10750 ] final   71.50 input  -60.55 | X-H torsion
[ 11005 11000 10999 10996 ] final  -30.59 input  -57.11 | X-H torsion

> <Gold.Protein.ActiveResidues>
 VAL166  LYS551  ARG553  GLY616  TRP617  ASP618  TYR619  PRO620  LYS621  CYS622 
 ASP623  PHE694  ASN695  SER759  ASP760  ASP761  ALA762  ILE779  LEU786  VAL792 
 PHE793  MET794  SER795  GLU796  ALA797  LYS798  CYS799  TRP800  GLU811  SER814 

> <Gold.Protein.RotatedAtoms>
  150.7138  134.0797  159.3893 H   0  0  0  0  0  0  0  0  0  0  0  0  # atno 6907 bound_to 6896
  151.8781  135.0462  160.0495 H   0  0  0  0  0  0  0  0  0  0  0  0  # atno 6908 bound_to 6896
  152.2590  133.5245  159.5407 H   0  0  0  0  0  0  0  0  0  0  0  0  # atno 6909 bound_to 6896
  146.1562  140.4736  142.8590 H   0  0  0  0  0  0  0  0  0  0  0  0  # atno 7974 bound_to 7965
  154.5216  140.0786  156.8182 H   0  0  0  0  0  0  0  0  0  0  0  0  # atno 8008 bound_to 7997
  155.3564  140.3415  155.4222 H   0  0  0  0  0  0  0  0  0  0  0  0  # atno 8009 bound_to 7997
  156.1687  140.1612  156.8473 H   0  0  0  0  0  0  0  0  0  0  0  0  # atno 8010 bound_to 7997
  139.9569  144.5988  150.8108 H   0  0  0  0  0  0  0  0  0  0  0  0  # atno 10167 bound_to 10162
  156.6909  130.5064  149.5944 H   0  0  0  0  0  0  0  0  0  0  0  0  # atno 10718 bound_to 10713
  153.0402  135.5135  154.7602 H   0  0  0  0  0  0  0  0  0  0  0  0  # atno 10763 bound_to 10752
  154.6545  135.2930  154.9947 H   0  0  0  0  0  0  0  0  0  0  0  0  # atno 10764 bound_to 10752
  154.0819  135.6662  153.4892 H   0  0  0  0  0  0  0  0  0  0  0  0  # atno 10765 bound_to 10752
  140.9396  133.7287  156.1056 H   0  0  0  0  0  0  0  0  0  0  0  0  # atno 11005 bound_to 11000
  144.7966  140.6135  143.6506 LP  0  0  0  0  0  0  0  0  0  0  0  0  # atno 17320 bound_to 7965
  145.4703  139.1504  143.3818 LP  0  0  0  0  0  0  0  0  0  0  0  0  # atno 17321 bound_to 7965
  140.7565  143.3068  151.2942 LP  0  0  0  0  0  0  0  0  0  0  0  0  # atno 17342 bound_to 10162
  139.6584  144.0233  152.2676 LP  0  0  0  0  0  0  0  0  0  0  0  0  # atno 17343 bound_to 10162
  156.1799  130.6492  151.0938 LP  0  0  0  0  0  0  0  0  0  0  0  0  # atno 17370 bound_to 10713
  157.7009  131.0776  150.6822 LP  0  0  0  0  0  0  0  0  0  0  0  0  # atno 17371 bound_to 10713
  140.7752  134.3787  157.5499 LP  0  0  0  0  0  0  0  0  0  0  0  0  # atno 17394 bound_to 11000
  139.8817  134.9047  156.2884 LP  0  0  0  0  0  0  0  0  0  0  0  0  # atno 17395 bound_to 11000

$$$$
