AV-unprocessed.smi:2653|AV-procd|sdf|10296|dock3
  -GOLD-   2272014313D 1   1.00000     0.00000
 Structure written by MMmdl.
 31 32  0  0  0  0  0  0  0  0  1 V2000
  152.2875  144.3409  161.6747 C   0  0  0  0  0  0  0  0  0  0  0  0
  152.1112  145.1061  160.3582 C   0  0  0  0  0  0  0  0  0  0  0  0
  151.6889  144.2012  159.2334 C   0  0  0  0  0  0  0  0  0  0  0  0
  150.8615  144.6700  158.3030 N   0  0  0  0  0  0  0  0  0  0  0  0
  150.6841  143.6370  157.4596 N   0  0  0  0  0  0  0  0  0  0  0  0
  151.4122  142.5367  157.8508 C   0  0  0  0  0  0  0  0  0  0  0  0
  151.4452  141.3168  157.2460 N   0  0  0  0  0  0  0  0  0  0  0  0
  150.7200  140.8199  156.2214 C   0  0  0  0  0  0  0  0  0  0  0  0
  149.8436  141.4916  155.6799 O   0  0  0  0  0  0  0  0  0  0  0  0
  151.0028  139.5577  155.8576 N   0  0  0  0  0  0  0  0  0  0  0  0
  150.3608  138.8268  154.8141 C   0  0  0  0  0  0  0  0  0  0  0  0
  149.4388  137.6964  155.2173 C   0  0  0  0  0  0  0  0  0  0  0  0
  150.7777  137.3869  154.6066 C   0  0  0  0  0  0  0  0  0  0  0  0
  152.0726  142.8421  159.0064 C   0  0  0  0  0  0  0  0  0  0  0  0
  152.9835  141.9871  159.8454 C   0  0  0  0  0  0  0  0  0  0  0  0
  150.0779  143.6987  156.6543 H   0  0  0  0  0  0  0  0  0  0  0  0
  152.5897  145.0134  162.4776 H   0  0  0  0  0  0  0  0  0  0  0  0
  153.0511  143.5679  161.5825 H   0  0  0  0  0  0  0  0  0  0  0  0
  151.3568  143.8590  161.9759 H   0  0  0  0  0  0  0  0  0  0  0  0
  151.3747  145.8981  160.4971 H   0  0  0  0  0  0  0  0  0  0  0  0
  153.0454  145.6084  160.1038 H   0  0  0  0  0  0  0  0  0  0  0  0
  152.0819  140.6580  157.6703 H   0  0  0  0  0  0  0  0  0  0  0  0
  151.7201  139.0702  156.3738 H   0  0  0  0  0  0  0  0  0  0  0  0
  150.0770  139.3771  153.9181 H   0  0  0  0  0  0  0  0  0  0  0  0
  149.3134  137.4948  156.2796 H   0  0  0  0  0  0  0  0  0  0  0  0
  148.5556  137.5270  154.6047 H   0  0  0  0  0  0  0  0  0  0  0  0
  150.7894  137.0106  153.5856 H   0  0  0  0  0  0  0  0  0  0  0  0
  151.5460  136.9793  155.2612 H   0  0  0  0  0  0  0  0  0  0  0  0
  153.3427  141.1118  159.3038 H   0  0  0  0  0  0  0  0  0  0  0  0
  152.4793  141.6261  160.7416 H   0  0  0  0  0  0  0  0  0  0  0  0
  153.8641  142.5400  160.1726 H   0  0  0  0  0  0  0  0  0  0  0  0
  1  2  1  0  0  0  0
  1 17  1  0  0  0  0
  1 18  1  0  0  0  0
  1 19  1  0  0  0  0
  2 20  1  0  0  0  0
  2 21  1  0  0  0  0
  2  3  1  0  0  0  0
  3  4  2  0  0  0  0
  3 14  1  0  0  0  0
  4  5  1  0  0  0  0
  5 16  1  0  0  0  0
  5  6  1  0  0  0  0
  6  7  1  0  0  0  0
  6 14  2  0  0  0  0
  7  8  1  0  0  0  0
  7 22  1  0  0  0  0
  8  9  2  0  0  0  0
  8 10  1  0  0  0  0
 10 11  1  0  0  0  0
 10 23  1  0  0  0  0
 11 13  1  0  0  0  0
 11 12  1  0  0  0  0
 11 24  1  0  0  0  0
 12 13  1  0  0  0  0
 12 25  1  0  0  0  0
 12 26  1  0  0  0  0
 13 27  1  0  0  0  0
 13 28  1  0  0  0  0
 14 15  1  0  0  0  0
 15 29  1  0  0  0  0
 15 30  1  0  0  0  0
 15 31  1  0  0  0  0
M  END
> <s_m_source_file>
AV-unprocessed.smi

> <i_m_source_file_index>
2653

> <i_lp_mmshare_version>
43012

> <i_f3d_flags>
0

> <s_epik_input>
W0NIM11bQ0gyXWMxW25IXW5jKGMxW0NIM10pW05IXUMoPU8pW05IXVtDSF0yW0NIMl1bQ0gyXTI=

> <s_epik_cmdline>
J2VwaWtfcHl0aG9uJywgJy1waCcsICc3LjAnLCAnLXRuJywgJzgnLCAnLW1hJywgJzIwMCcsICctbWV0YWxfYmluZGluZycsICctaW1hZScsICc8aW5maWxlLm1hZT4nLCAnLW9tYWUnLCAnPG91dGZpbGUubWFlPic=

> <r_lp_tautomer_probability>
0.5

> <r_epik_Ionization_Penalty>
6.45879e-05

> <r_epik_Ionization_Penalty_Charging>
0

> <r_epik_Ionization_Penalty_Neutral>
6.45879e-05

> <r_epik_State_Penalty>
0.41068

> <r_epik_Charging_Adjusted_Penalty>
0.41068

> <i_epik_Tot_Q>
0

> <i_epik_Tot_abs_Q>
0

> <r_epik_Metal_State_Penalty>
0.410665

> <b_epik_Metal_Only>
0

> <s_lp_Force_Field>
OPLS_2005

> <r_lp_Energy>
17.9348

> <b_lp_Chiralities_Consistent>
1

> <s_lp_Variant>
AV-unprocessed.smi:2653-2

> <Gold.Version>
5.8.1

> <Gold.Id.Protein>
6NUR|6NUR_protein|mol2

> <Gold.PLP.Fitness>
35.2333

> <Gold.PLP.PLP>
-33.1276

> <Gold.PLP.part.hbond>
-1.0379

> <Gold.PLP.part.metal>
0.0000

> <Gold.PLP.part.buried>
-2.3800

> <Gold.PLP.part.nonpolar>
-29.0119

> <Gold.PLP.part.repulsive>
0.5470

> <Gold.PLP.ligand.clash>
0.0000

> <Gold.PLP.ligand.torsion>
0.4300

> <Gold.PLP.Chemscore.Hbond>
0.9760

> <Gold.PLP.Chemscore.CHOScore>
0.0000

> <Gold.PLP.Chemscore.Metal>
0.0000

> <Gold.Chemscore.Hbonds>
donor molecule, donor type, donor heavy atom, donor atom, acceptor molecule, acceptor atom, score
      L1  H     5    16       P1  8028  0.93

> <Gold.PLP.Chemscore.Internal.Correction>
0.0377

> <Gold.Rescore>
     Score         DG    S(hbond)    S(metal)    S(lipo)     H(rot)  DE(clash)    DE(int)     intcor
     13.22     -15.00       0.98        0.00      79.92       1.21       0.26       1.52       ----

> <Gold.Chemscore.Fitness>
13.2174

> <Gold.Chemscore.DG>
-14.9992

> <Gold.Chemscore.ZeroCoef>
-5.4800

> <Gold.Chemscore.Hbond>
0.9802

> <Gold.Chemscore.Metal>
0.0000

> <Gold.Chemscore.Lipo>
79.9163

> <Gold.Chemscore.Internal_Hbond>
0.0000

> <Gold.Chemscore.DEClash>
0.2590

> <Gold.Chemscore.DEInternal>
1.5228

> <Gold.Chemscore.Rot>
1.2129

> <Gold.Chemscore.Internal.Correction>
   9.000000E+99

> <Gold.Chemscore.Hbonds>
donor molecule, donor type, donor heavy atom, donor atom, acceptor molecule, acceptor atom, score
      L1  H     5    16       P1  8028  0.91

> <Gold.Chemscore.Hbond.Weighted>
-3.2739

> <Gold.Chemscore.Metal.Weighted>
-0.0000

> <Gold.Chemscore.Lipo.Weighted>
-9.3502

> <Gold.Chemscore.Internal_Hbond.Weighted>
0.0000

> <Gold.Chemscore.DEClash.Weighted>
0.2590

> <Gold.Chemscore.DEInternal.Weighted>
1.5228

> <Gold.Chemscore.Rot.Weighted>
3.1049

> <Gold.Chemscore.Internal.Correction.Weighted>
   9.000000E+99

> <Gold.Protein.RotatedTorsions>
[ 6907 6896 6895 6894 ] final  -50.69 input  -60.11 | X-H torsion
[ 7974 7965 7964 7962 ] final   -1.29 input  175.53 | X-H torsion
[ 8008 7997 7996 7995 ] final  149.82 input   59.86 | X-H torsion
[ 10167 10162 10161 10158 ] final  -14.81 input  -65.29 | X-H torsion
[ 10718 10713 10712 10709 ] final  114.33 input   66.30 | X-H torsion
[ 10763 10752 10751 10750 ] final  170.05 input  -60.55 | X-H torsion
[ 11005 11000 10999 10996 ] final -151.20 input  -57.11 | X-H torsion

> <Gold.Protein.ActiveResidues>
 VAL166  LYS551  ARG553  GLY616  TRP617  ASP618  TYR619  PRO620  LYS621  CYS622 
 ASP623  PHE694  ASN695  SER759  ASP760  ASP761  ALA762  ILE779  LEU786  VAL792 
 PHE793  MET794  SER795  GLU796  ALA797  LYS798  CYS799  TRP800  GLU811  SER814 

> <Gold.Protein.RotatedAtoms>
  150.8682  134.8050  159.7134 H   0  0  0  0  0  0  0  0  0  0  0  0  # atno 6907 bound_to 6896
  152.4696  134.4989  159.9728 H   0  0  0  0  0  0  0  0  0  0  0  0  # atno 6908 bound_to 6896
  151.5081  133.3452  159.2916 H   0  0  0  0  0  0  0  0  0  0  0  0  # atno 6909 bound_to 6896
  146.2418  140.1399  142.8336 H   0  0  0  0  0  0  0  0  0  0  0  0  # atno 7974 bound_to 7965
  156.2740  140.2091  156.5919 H   0  0  0  0  0  0  0  0  0  0  0  0  # atno 8008 bound_to 7997
  154.6975  140.0524  157.0449 H   0  0  0  0  0  0  0  0  0  0  0  0  # atno 8009 bound_to 7997
  155.0780  140.3183  155.4613 H   0  0  0  0  0  0  0  0  0  0  0  0  # atno 8010 bound_to 7997
  140.7208  143.5283  150.9550 H   0  0  0  0  0  0  0  0  0  0  0  0  # atno 10167 bound_to 10162
  157.6287  131.0997  150.7170 H   0  0  0  0  0  0  0  0  0  0  0  0  # atno 10718 bound_to 10713
  154.3921  135.2754  155.2148 H   0  0  0  0  0  0  0  0  0  0  0  0  # atno 10763 bound_to 10752
  154.4210  135.6000  153.6014 H   0  0  0  0  0  0  0  0  0  0  0  0  # atno 10764 bound_to 10752
  152.9832  135.5972  154.4177 H   0  0  0  0  0  0  0  0  0  0  0  0  # atno 10765 bound_to 10752
  140.7321  134.3609  157.5164 H   0  0  0  0  0  0  0  0  0  0  0  0  # atno 11005 bound_to 11000
  145.0256  140.8829  143.5140 LP  0  0  0  0  0  0  0  0  0  0  0  0  # atno 17320 bound_to 7965
  145.1454  139.2546  143.5468 LP  0  0  0  0  0  0  0  0  0  0  0  0  # atno 17321 bound_to 7965
  139.9003  143.6844  152.3132 LP  0  0  0  0  0  0  0  0  0  0  0  0  # atno 17342 bound_to 10162
  139.7191  144.7606  151.0984 LP  0  0  0  0  0  0  0  0  0  0  0  0  # atno 17343 bound_to 10162
  156.7514  130.4770  149.5456 LP  0  0  0  0  0  0  0  0  0  0  0  0  # atno 17370 bound_to 10713
  156.1476  130.6288  151.0552 LP  0  0  0  0  0  0  0  0  0  0  0  0  # atno 17371 bound_to 10713
  139.8824  134.9025  156.2835 LP  0  0  0  0  0  0  0  0  0  0  0  0  # atno 17394 bound_to 11000
  140.9911  133.7208  156.0816 LP  0  0  0  0  0  0  0  0  0  0  0  0  # atno 17395 bound_to 11000

$$$$
