AV-unprocessed.smi:1901|AV-procd|sdf|7719|dock5
  -GOLD-   22720 9463D 1   1.00000     0.00000
 Structure written by MMmdl.
 27 28  0  0  0  0  0  0  0  0  2 V2000
  149.6651  136.0644  158.9846 O   0  0  0  0  0  0  0  0  0  0  0  0
  149.1964  137.1367  159.3743 C   0  0  0  0  0  0  0  0  0  0  0  0
  149.6329  138.2864  158.8433 N   0  0  0  0  0  0  0  0  0  0  0  0
  150.6523  138.3976  157.8073 C   0  0  0  0  0  0  0  0  0  0  0  0
  150.0580  138.9560  156.5039 C   0  0  1  0  0  0  0  0  0  0  0  0
  149.6355  140.4076  156.5948 C   0  0  0  0  0  0  0  0  0  0  0  0
  149.5493  140.8002  155.1235 C   0  0  0  0  0  0  0  0  0  0  0  0
  150.5493  140.0326  154.4603 O   0  0  0  0  0  0  0  0  0  0  0  0
  151.0300  139.0044  155.3230 C   0  0  0  0  0  0  0  0  0  0  0  0
  148.2469  137.2997  160.3239 N   0  5  0  0  0  0  0  0  0  0  0  0
  147.6959  136.2257  160.9130 C   0  0  0  0  0  0  0  0  0  0  0  0
  147.0850  136.2777  162.1024 N   0  0  0  0  0  0  0  0  0  0  0  0
  146.5902  135.0432  162.5269 C   0  0  0  0  0  0  0  0  0  0  0  0
  146.8394  134.0252  161.6451 C   0  0  0  0  0  0  0  0  0  0  0  0
  147.7065  134.5908  160.2460 S   0  0  0  0  0  0  0  0  0  0  0  0
  149.2268  139.1443  159.1869 H   0  0  0  0  0  0  0  0  0  0  0  0
  151.4508  139.0530  158.1579 H   0  0  0  0  0  0  0  0  0  0  0  0
  151.0964  137.4162  157.6326 H   0  0  0  0  0  0  0  0  0  0  0  0
  149.1881  138.3617  156.2181 H   0  0  0  0  0  0  0  0  0  0  0  0
  148.6945  140.5478  157.1274 H   0  0  0  0  0  0  0  0  0  0  0  0
  150.4042  140.9986  157.0953 H   0  0  0  0  0  0  0  0  0  0  0  0
  148.5752  140.5285  154.7148 H   0  0  0  0  0  0  0  0  0  0  0  0
  149.6963  141.8691  154.9670 H   0  0  0  0  0  0  0  0  0  0  0  0
  152.0320  139.2783  155.6562 H   0  0  0  0  0  0  0  0  0  0  0  0
  151.0983  138.0494  154.8016 H   0  0  0  0  0  0  0  0  0  0  0  0
  146.0744  134.9804  163.4734 H   0  0  0  0  0  0  0  0  0  0  0  0
  146.5685  132.9840  161.7319 H   0  0  0  0  0  0  0  0  0  0  0  0
  1  2  2  0  0  0  0
  2  3  1  0  0  0  0
  2 10  1  0  0  0  0
  3  4  1  0  0  0  0
  3 16  1  0  0  0  0
  4  5  1  0  0  0  0
  4 17  1  0  0  0  0
  4 18  1  0  0  0  0
  5  9  1  0  0  0  0
  5  6  1  0  0  0  0
  5 19  1  0  0  0  0
  6  7  1  0  0  0  0
  6 20  1  0  0  0  0
  6 21  1  0  0  0  0
  7  8  1  0  0  0  0
  7 22  1  0  0  0  0
  7 23  1  0  0  0  0
  8  9  1  0  0  0  0
  9 24  1  0  0  0  0
  9 25  1  0  0  0  0
 10 11  1  0  0  0  0
 11 15  1  0  0  0  0
 11 12  2  0  0  0  0
 12 13  1  0  0  0  0
 13 14  2  0  0  0  0
 13 26  1  0  0  0  0
 14 15  1  0  0  0  0
 14 27  1  0  0  0  0
M  CHG  1  10  -1
M  END
> <s_m_source_file>
AV-unprocessed.smi

> <i_m_source_file_index>
1901

> <i_lp_mmshare_version>
43012

> <i_f3d_flags>
0

> <s_epik_input>
czFbY0hdW2NIXW5jMVtOSF1DKD1PKVtOSF1bQ0gyXVtDQEBIXTJbQ0gyXVtDSDJdT1tDSDJdMg==

> <s_epik_cmdline>
J2VwaWtfcHl0aG9uJywgJy1waCcsICc3LjAnLCAnLXRuJywgJzgnLCAnLW1hJywgJzIwMCcsICctbWV0YWxfYmluZGluZycsICctaW1hZScsICc8aW5maWxlLm1hZT4nLCAnLW9tYWUnLCAnPG91dGZpbGUubWFlPic=

> <r_lp_tautomer_probability>
0.999

> <r_epik_Ionization_Penalty>
8.4411

> <r_epik_Ionization_Penalty_Charging>
6.72681

> <r_epik_Ionization_Penalty_Neutral>
1.71429

> <r_epik_State_Penalty>
6.72698

> <r_epik_Charging_Adjusted_Penalty>
13.4538

> <i_epik_Tot_Q>
-1

> <i_epik_Tot_abs_Q>
1

> <r_epik_Metal_State_Penalty>
2.64812

> <b_epik_Metal_Only>
1

> <s_lp_Force_Field>
OPLS_2005

> <r_lp_Energy>
14.3262

> <b_lp_Chiralities_Consistent>
1

> <s_lp_Variant>
AV-unprocessed.smi:1901-4

> <Gold.Version>
5.8.1

> <Gold.Id.Protein>
6NUR|6NUR_protein|mol2

> <Gold.PLP.Fitness>
36.6519

> <Gold.PLP.PLP>
-23.8734

> <Gold.PLP.part.hbond>
-4.0000

> <Gold.PLP.part.metal>
0.0000

> <Gold.PLP.part.buried>
-3.8609

> <Gold.PLP.part.nonpolar>
-17.3037

> <Gold.PLP.part.repulsive>
0.3330

> <Gold.PLP.ligand.clash>
0.0000

> <Gold.PLP.ligand.torsion>
0.1344

> <Gold.PLP.Chemscore.Hbond>
4.3470

> <Gold.PLP.Chemscore.CHOScore>
0.0000

> <Gold.PLP.Chemscore.Metal>
0.0000

> <Gold.Chemscore.Hbonds>
donor molecule, donor type, donor heavy atom, donor atom, acceptor molecule, acceptor atom, score
      P1  H  6896  6908       L1     1  1.00
      P1  H  6931  6943       L1    10  1.28
      P1  H  6934  6947       L1    10  1.01
      P1  H  7989  7998       L1     8  1.00

> <Gold.PLP.Chemscore.Internal.Correction>
0.0063

> <Gold.Rescore>
     Score         DG    S(hbond)    S(metal)    S(lipo)     H(rot)  DE(clash)    DE(int)     intcor
     14.22     -15.77       2.51        0.00      44.62       1.30       0.00       1.55       ----

> <Gold.Chemscore.Fitness>
14.2234

> <Gold.Chemscore.DG>
-15.7719

> <Gold.Chemscore.ZeroCoef>
-5.4800

> <Gold.Chemscore.Hbond>
2.5146

> <Gold.Chemscore.Metal>
0.0000

> <Gold.Chemscore.Lipo>
44.6237

> <Gold.Chemscore.Internal_Hbond>
0.0000

> <Gold.Chemscore.DEClash>
0.0000

> <Gold.Chemscore.DEInternal>
1.5485

> <Gold.Chemscore.Rot>
1.3000

> <Gold.Chemscore.Internal.Correction>
   9.000000E+99

> <Gold.Chemscore.Hbonds>
donor molecule, donor type, donor heavy atom, donor atom, acceptor molecule, acceptor atom, score
      P1  H  6896  6908       L1     1  1.00
      P1  H  6931  6943       L1    10  0.15
      P1  H  6934  6947       L1    10  0.37
      P1  H  7989  7998       L1     8  0.92

> <Gold.Chemscore.Hbond.Weighted>
-8.3989

> <Gold.Chemscore.Metal.Weighted>
-0.0000

> <Gold.Chemscore.Lipo.Weighted>
-5.2210

> <Gold.Chemscore.Internal_Hbond.Weighted>
0.0000

> <Gold.Chemscore.DEClash.Weighted>
0.0000

> <Gold.Chemscore.DEInternal.Weighted>
1.5485

> <Gold.Chemscore.Rot.Weighted>
3.3280

> <Gold.Chemscore.Internal.Correction.Weighted>
   9.000000E+99

> <Gold.Protein.RotatedTorsions>
[ 6907 6896 6895 6894 ] final -174.31 input  -60.11 | X-H torsion
[ 7974 7965 7964 7962 ] final -151.66 input  175.53 | X-H torsion
[ 8008 7997 7996 7995 ] final   -8.06 input   59.86 | X-H torsion
[ 10167 10162 10161 10158 ] final -105.13 input  -65.29 | X-H torsion
[ 10718 10713 10712 10709 ] final -133.96 input   66.30 | X-H torsion
[ 10763 10752 10751 10750 ] final   83.07 input  -60.55 | X-H torsion
[ 11005 11000 10999 10996 ] final  153.79 input  -57.11 | X-H torsion

> <Gold.Protein.ActiveResidues>
 VAL166  LYS551  ARG553  GLY616  TRP617  ASP618  TYR619  PRO620  LYS621  CYS622 
 ASP623  PHE694  ASN695  SER759  ASP760  ASP761  ALA762  ILE779  LEU786  VAL792 
 PHE793  MET794  SER795  GLU796  ALA797  LYS798  CYS799  TRP800  GLU811  SER814 

> <Gold.Protein.RotatedAtoms>
  151.5703  133.3391  159.2987 H   0  0  0  0  0  0  0  0  0  0  0  0  # atno 6907 bound_to 6896
  150.8371  134.7652  159.6913 H   0  0  0  0  0  0  0  0  0  0  0  0  # atno 6908 bound_to 6896
  152.4446  134.5528  159.9923 H   0  0  0  0  0  0  0  0  0  0  0  0  # atno 6909 bound_to 6896
  144.7837  140.4767  143.5821 H   0  0  0  0  0  0  0  0  0  0  0  0  # atno 7974 bound_to 7965
  154.5778  140.2391  155.8097 H   0  0  0  0  0  0  0  0  0  0  0  0  # atno 8008 bound_to 7997
  156.2156  140.3013  155.9789 H   0  0  0  0  0  0  0  0  0  0  0  0  # atno 8009 bound_to 7997
  155.2596  140.0414  157.2986 H   0  0  0  0  0  0  0  0  0  0  0  0  # atno 8010 bound_to 7997
  140.2018  143.3812  152.1123 H   0  0  0  0  0  0  0  0  0  0  0  0  # atno 10167 bound_to 10162
  156.2504  130.7150  151.1046 H   0  0  0  0  0  0  0  0  0  0  0  0  # atno 10718 bound_to 10713
  153.1258  135.4705  154.9269 H   0  0  0  0  0  0  0  0  0  0  0  0  # atno 10763 bound_to 10752
  154.7618  135.3134  154.8365 H   0  0  0  0  0  0  0  0  0  0  0  0  # atno 10764 bound_to 10752
  153.8919  135.6884  153.4814 H   0  0  0  0  0  0  0  0  0  0  0  0  # atno 10765 bound_to 10752
  140.1430  134.8726  157.2356 H   0  0  0  0  0  0  0  0  0  0  0  0  # atno 11005 bound_to 11000
  145.5980  139.1501  143.3145 LP  0  0  0  0  0  0  0  0  0  0  0  0  # atno 17320 bound_to 7965
  146.2058  140.6102  142.9081 LP  0  0  0  0  0  0  0  0  0  0  0  0  # atno 17321 bound_to 7965
  139.5214  144.7045  151.5394 LP  0  0  0  0  0  0  0  0  0  0  0  0  # atno 17342 bound_to 10162
  140.6385  143.8937  150.6669 LP  0  0  0  0  0  0  0  0  0  0  0  0  # atno 17343 bound_to 10162
  157.7212  131.0680  150.6127 LP  0  0  0  0  0  0  0  0  0  0  0  0  # atno 17370 bound_to 10713
  156.6207  130.4405  149.5823 LP  0  0  0  0  0  0  0  0  0  0  0  0  # atno 17371 bound_to 10713
  140.2698  134.3473  155.7377 LP  0  0  0  0  0  0  0  0  0  0  0  0  # atno 17394 bound_to 11000
  141.2188  133.7417  156.9206 LP  0  0  0  0  0  0  0  0  0  0  0  0  # atno 17395 bound_to 11000

$$$$
