AV-unprocessed.smi:2046|AV-procd|sdf|8312|dock6
  -GOLD-   2272010583D 1   1.00000     0.00000
 Structure written by MMmdl.
 30 31  0  0  0  0  0  0  0  0  1 V2000
  149.9755  140.6879  157.4083 O   0  0  0  0  0  0  0  0  0  0  0  0
  149.8662  141.8048  156.9017 C   0  0  0  0  0  0  0  0  0  0  0  0
  150.3773  142.9419  157.4057 N   0  0  0  0  0  0  0  0  0  0  0  0
  151.1334  143.1165  158.5948 C   0  0  0  0  0  0  0  0  0  0  0  0
  151.2249  142.1900  159.5619 N   0  0  0  0  0  0  0  0  0  0  0  0
  152.0264  142.6143  160.6139 N   0  0  0  0  0  0  0  0  0  0  0  0
  152.5071  143.8422  160.3992 C   0  0  0  0  0  0  0  0  0  0  0  0
  152.0268  144.6012  158.8912 S   0  0  0  0  0  0  0  0  0  0  0  0
  149.2081  142.0365  155.7565 N   0  0  0  0  0  0  0  0  0  0  0  0
  148.5567  141.0232  154.9246 C   0  0  1  0  0  0  0  0  0  0  0  0
  147.7404  141.7000  153.8003 C   0  0  0  0  0  0  0  0  0  0  0  0
  146.6155  140.8215  153.2292 C   0  0  0  0  0  0  0  0  0  0  0  0
  147.0885  139.5318  152.5420 C   0  0  0  0  0  0  0  0  0  0  0  0
  147.7605  138.5327  153.4997 C   0  0  0  0  0  0  0  0  0  0  0  0
  149.1431  138.8858  153.7973 N   0  0  0  0  0  0  0  0  0  0  0  0
  149.5816  139.9875  154.4252 C   0  0  0  0  0  0  0  0  0  0  0  0
  150.7869  140.1724  154.5936 O   0  0  0  0  0  0  0  0  0  0  0  0
  150.2081  143.7826  156.8739 H   0  0  0  0  0  0  0  0  0  0  0  0
  153.1488  144.3043  161.1347 H   0  0  0  0  0  0  0  0  0  0  0  0
  149.1729  142.9849  155.4120 H   0  0  0  0  0  0  0  0  0  0  0  0
  147.8663  140.4799  155.5729 H   0  0  0  0  0  0  0  0  0  0  0  0
  147.2755  142.6090  154.1837 H   0  0  0  0  0  0  0  0  0  0  0  0
  148.4045  142.0260  152.9986 H   0  0  0  0  0  0  0  0  0  0  0  0
  145.9104  140.5734  154.0234 H   0  0  0  0  0  0  0  0  0  0  0  0
  146.0506  141.4112  152.5065 H   0  0  0  0  0  0  0  0  0  0  0  0
  146.2166  139.0483  152.0999 H   0  0  0  0  0  0  0  0  0  0  0  0
  147.7531  139.7659  151.7092 H   0  0  0  0  0  0  0  0  0  0  0  0
  147.1881  138.4230  154.4219 H   0  0  0  0  0  0  0  0  0  0  0  0
  147.7781  137.5476  153.0330 H   0  0  0  0  0  0  0  0  0  0  0  0
  149.8445  138.2299  153.4850 H   0  0  0  0  0  0  0  0  0  0  0  0
  1  2  2  0  0  0  0
  2  3  1  0  0  0  0
  2  9  1  0  0  0  0
  3  4  1  0  0  0  0
  3 18  1  0  0  0  0
  4  8  1  0  0  0  0
  4  5  2  0  0  0  0
  5  6  1  0  0  0  0
  6  7  2  0  0  0  0
  7  8  1  0  0  0  0
  7 19  1  0  0  0  0
  9 10  1  0  0  0  0
  9 20  1  0  0  0  0
 10 16  1  0  0  0  0
 10 11  1  0  0  0  0
 10 21  1  0  0  0  0
 11 12  1  0  0  0  0
 11 22  1  0  0  0  0
 11 23  1  0  0  0  0
 12 13  1  0  0  0  0
 12 24  1  0  0  0  0
 12 25  1  0  0  0  0
 13 14  1  0  0  0  0
 13 26  1  0  0  0  0
 13 27  1  0  0  0  0
 14 15  1  0  0  0  0
 14 28  1  0  0  0  0
 14 29  1  0  0  0  0
 15 16  1  0  0  0  0
 15 30  1  0  0  0  0
 16 17  2  0  0  0  0
M  END
> <s_m_source_file>
AV-unprocessed.smi

> <i_m_source_file_index>
2046

> <i_lp_mmshare_version>
43012

> <i_f3d_flags>
0

> <s_epik_input>
czFbY0hdbm5jMVtOSF1DKD1PKVtOSF1bQ0BASF0yW0NIMl1bQ0gyXVtDSDJdW0NIMl1bTkhdQzI9Tw==

> <s_epik_cmdline>
J2VwaWtfcHl0aG9uJywgJy1waCcsICc3LjAnLCAnLXRuJywgJzgnLCAnLW1hJywgJzIwMCcsICctbWV0YWxfYmluZGluZycsICctaW1hZScsICc8aW5maWxlLm1hZT4nLCAnLW9tYWUnLCAnPG91dGZpbGUubWFlPic=

> <r_lp_tautomer_probability>
1

> <r_epik_Ionization_Penalty>
0.000691558

> <r_epik_Ionization_Penalty_Charging>
0

> <r_epik_Ionization_Penalty_Neutral>
0.000691558

> <r_epik_State_Penalty>
-0

> <r_epik_Charging_Adjusted_Penalty>
0

> <i_epik_Tot_Q>
0

> <i_epik_Tot_abs_Q>
0

> <r_epik_Metal_State_Penalty>
0.252698

> <b_epik_Metal_Only>
0

> <s_lp_Force_Field>
OPLS_2005

> <r_lp_Energy>
9.05746

> <b_lp_Chiralities_Consistent>
1

> <s_lp_Variant>
AV-unprocessed.smi:2046-2

> <Gold.Version>
5.8.1

> <Gold.Id.Protein>
6NUR|6NUR_protein|mol2

> <Gold.PLP.Fitness>
39.6949

> <Gold.PLP.PLP>
-31.0862

> <Gold.PLP.part.hbond>
-5.3214

> <Gold.PLP.part.metal>
0.0000

> <Gold.PLP.part.buried>
-0.8029

> <Gold.PLP.part.nonpolar>
-24.7759

> <Gold.PLP.part.repulsive>
0.3429

> <Gold.PLP.ligand.clash>
0.0000

> <Gold.PLP.ligand.torsion>
0.0773

> <Gold.PLP.Chemscore.Hbond>
2.9120

> <Gold.PLP.Chemscore.CHOScore>
0.0000

> <Gold.PLP.Chemscore.Metal>
0.0000

> <Gold.Chemscore.Hbonds>
donor molecule, donor type, donor heavy atom, donor atom, acceptor molecule, acceptor atom, score
      L1  H     3    18       P1  8028  0.91
      L1  H     9    20       P1  8028  1.00
      P1  H  7989  7998       L1    17  1.00

> <Gold.PLP.Chemscore.Internal.Correction>
0.0274

> <Gold.Rescore>
     Score         DG    S(hbond)    S(metal)    S(lipo)     H(rot)  DE(clash)    DE(int)     intcor
     15.83     -18.96       2.82        0.00      56.48       1.00       0.09       3.04       ----

> <Gold.Chemscore.Fitness>
15.8315

> <Gold.Chemscore.DG>
-18.9577

> <Gold.Chemscore.ZeroCoef>
-5.4800

> <Gold.Chemscore.Hbond>
2.8233

> <Gold.Chemscore.Metal>
0.0000

> <Gold.Chemscore.Lipo>
56.4768

> <Gold.Chemscore.Internal_Hbond>
0.0000

> <Gold.Chemscore.DEClash>
0.0901

> <Gold.Chemscore.DEInternal>
3.0361

> <Gold.Chemscore.Rot>
1.0000

> <Gold.Chemscore.Internal.Correction>
   9.000000E+99

> <Gold.Chemscore.Hbonds>
donor molecule, donor type, donor heavy atom, donor atom, acceptor molecule, acceptor atom, score
      L1  H     3    18       P1  8028  0.84
      L1  H     9    20       P1  8028  0.96
      P1  H  7989  7998       L1    17  0.93

> <Gold.Chemscore.Hbond.Weighted>
-9.4299

> <Gold.Chemscore.Metal.Weighted>
-0.0000

> <Gold.Chemscore.Lipo.Weighted>
-6.6078

> <Gold.Chemscore.Internal_Hbond.Weighted>
0.0000

> <Gold.Chemscore.DEClash.Weighted>
0.0901

> <Gold.Chemscore.DEInternal.Weighted>
3.0361

> <Gold.Chemscore.Rot.Weighted>
2.5600

> <Gold.Chemscore.Internal.Correction.Weighted>
   9.000000E+99

> <Gold.Protein.RotatedTorsions>
[ 6907 6896 6895 6894 ] final   73.66 input  -60.11 | X-H torsion
[ 7974 7965 7964 7962 ] final  -75.58 input  175.53 | X-H torsion
[ 8008 7997 7996 7995 ] final -111.20 input   59.86 | X-H torsion
[ 10167 10162 10161 10158 ] final  -91.66 input  -65.29 | X-H torsion
[ 10718 10713 10712 10709 ] final   27.57 input   66.30 | X-H torsion
[ 10763 10752 10751 10750 ] final  158.08 input  -60.55 | X-H torsion
[ 11005 11000 10999 10996 ] final -148.77 input  -57.11 | X-H torsion

> <Gold.Protein.ActiveResidues>
 VAL166  LYS551  ARG553  GLY616  TRP617  ASP618  TYR619  PRO620  LYS621  CYS622 
 ASP623  PHE694  ASN695  SER759  ASP760  ASP761  ALA762  ILE779  LEU786  VAL792 
 PHE793  MET794  SER795  GLU796  ALA797  LYS798  CYS799  TRP800  GLU811  SER814 

> <Gold.Protein.RotatedAtoms>
  152.4935  134.4388  159.9536 H   0  0  0  0  0  0  0  0  0  0  0  0  # atno 6907 bound_to 6896
  151.4370  133.3648  159.2784 H   0  0  0  0  0  0  0  0  0  0  0  0  # atno 6908 bound_to 6896
  150.9114  134.8554  159.7487 H   0  0  0  0  0  0  0  0  0  0  0  0  # atno 6909 bound_to 6896
  145.6241  140.9355  143.1122 H   0  0  0  0  0  0  0  0  0  0  0  0  # atno 7974 bound_to 7965
  154.9861  140.0395  157.2299 H   0  0  0  0  0  0  0  0  0  0  0  0  # atno 8008 bound_to 7997
  154.7670  140.2795  155.6146 H   0  0  0  0  0  0  0  0  0  0  0  0  # atno 8009 bound_to 7997
  156.2914  140.2617  156.2463 H   0  0  0  0  0  0  0  0  0  0  0  0  # atno 8010 bound_to 7997
  140.3427  143.2933  151.9817 H   0  0  0  0  0  0  0  0  0  0  0  0  # atno 10167 bound_to 10162
  157.2220  130.6983  149.6274 H   0  0  0  0  0  0  0  0  0  0  0  0  # atno 10718 bound_to 10713
  154.2104  135.2786  155.2960 H   0  0  0  0  0  0  0  0  0  0  0  0  # atno 10763 bound_to 10752
  154.5783  135.5597  153.7164 H   0  0  0  0  0  0  0  0  0  0  0  0  # atno 10764 bound_to 10752
  153.0065  135.6338  154.2243 H   0  0  0  0  0  0  0  0  0  0  0  0  # atno 10765 bound_to 10752
  140.7577  134.3334  157.5110 H   0  0  0  0  0  0  0  0  0  0  0  0  # atno 11005 bound_to 11000
  144.7219  139.8001  143.7379 LP  0  0  0  0  0  0  0  0  0  0  0  0  # atno 17320 bound_to 7965
  146.1408  139.4464  143.0110 LP  0  0  0  0  0  0  0  0  0  0  0  0  # atno 17321 bound_to 7965
  139.4838  144.6143  151.7375 LP  0  0  0  0  0  0  0  0  0  0  0  0  # atno 17342 bound_to 10162
  140.5294  144.0755  150.6048 LP  0  0  0  0  0  0  0  0  0  0  0  0  # atno 17343 bound_to 10162
  155.9681  130.4517  150.5745 LP  0  0  0  0  0  0  0  0  0  0  0  0  # atno 17370 bound_to 10713
  157.3566  131.0742  151.1670 LP  0  0  0  0  0  0  0  0  0  0  0  0  # atno 17371 bound_to 10713
  139.8776  134.9182  156.3198 LP  0  0  0  0  0  0  0  0  0  0  0  0  # atno 17394 bound_to 11000
  140.9692  133.7338  156.0510 LP  0  0  0  0  0  0  0  0  0  0  0  0  # atno 17395 bound_to 11000

$$$$
