AV-unprocessed.smi:3201|AV-procd|sdf|12240|dock7
  -GOLD-   2272018 73D 1   1.00000     0.00000
 Structure written by MMmdl.
 41 43  0  0  0  0  0  0  0  0  2 V2000
  149.7730  138.9631  154.1193 C   0  0  0  0  0  0  0  0  0  0  0  0
  150.6468  139.5677  155.1713 C   0  0  0  0  0  0  0  0  0  0  0  0
  150.3502  140.4577  156.1692 C   0  0  0  0  0  0  0  0  0  0  0  0
  149.0340  141.1035  156.5058 C   0  0  0  0  0  0  0  0  0  0  0  0
  149.1152  141.8981  157.8154 C   0  0  0  0  0  0  0  0  0  0  0  0
  150.0002  143.0708  157.6669 N   0  3  0  0  0  0  0  0  0  0  0  0
  150.3940  143.7142  158.9395 C   0  0  1  0  0  0  0  0  0  0  0  0
  151.2533  142.8207  159.8606 C   0  0  0  0  0  0  0  0  0  0  0  0
  152.4687  143.7185  160.1653 C   0  0  1  0  0  0  0  0  0  0  0  0
  153.3796  143.7619  158.9262 C   0  0  0  0  0  0  0  0  0  0  0  0
  152.5642  144.6189  157.9408 C   0  0  0  0  0  0  0  0  0  0  0  0
  151.2899  144.9570  158.7455 C   0  0  2  0  0  0  0  0  0  0  0  0
  151.8594  145.1177  160.1516 C   0  0  0  0  0  0  0  0  0  0  0  0
  151.5930  140.6417  156.8381 C   0  0  0  0  0  0  0  0  0  0  0  0
  152.5717  139.9335  156.3053 N   0  0  0  0  0  0  0  0  0  0  0  0
  151.9951  139.2744  155.2800 N   0  0  0  0  0  0  0  0  0  0  0  0
  152.8173  138.3919  154.4740 C   0  0  0  0  0  0  0  0  0  0  0  0
  148.7360  139.2768  154.2358 H   0  0  0  0  0  0  0  0  0  0  0  0
  149.7978  137.8745  154.1728 H   0  0  0  0  0  0  0  0  0  0  0  0
  150.1022  139.2622  153.1240 H   0  0  0  0  0  0  0  0  0  0  0  0
  148.7222  141.7697  155.7004 H   0  0  0  0  0  0  0  0  0  0  0  0
  148.2471  140.3527  156.5849 H   0  0  0  0  0  0  0  0  0  0  0  0
  148.1205  142.2358  158.1097 H   0  0  0  0  0  0  0  0  0  0  0  0
  149.4882  141.2569  158.6150 H   0  0  0  0  0  0  0  0  0  0  0  0
  150.8371  142.7923  157.1746 H   0  0  0  0  0  0  0  0  0  0  0  0
  149.4879  144.0191  159.4666 H   0  0  0  0  0  0  0  0  0  0  0  0
  150.7072  142.5788  160.7732 H   0  0  0  0  0  0  0  0  0  0  0  0
  151.5534  141.8807  159.3955 H   0  0  0  0  0  0  0  0  0  0  0  0
  152.9936  143.4507  161.0829 H   0  0  0  0  0  0  0  0  0  0  0  0
  154.3297  144.2450  159.1588 H   0  0  0  0  0  0  0  0  0  0  0  0
  153.5981  142.7678  158.5341 H   0  0  0  0  0  0  0  0  0  0  0  0
  153.1110  145.5290  157.6905 H   0  0  0  0  0  0  0  0  0  0  0  0
  152.3565  144.0974  157.0066 H   0  0  0  0  0  0  0  0  0  0  0  0
  150.7533  145.8285  158.3692 H   0  0  0  0  0  0  0  0  0  0  0  0
  151.0964  145.2649  160.9179 H   0  0  0  0  0  0  0  0  0  0  0  0
  152.6024  145.9137  160.2306 H   0  0  0  0  0  0  0  0  0  0  0  0
  151.8101  141.2659  157.6923 H   0  0  0  0  0  0  0  0  0  0  0  0
  152.2559  138.0054  153.6237 H   0  0  0  0  0  0  0  0  0  0  0  0
  153.1586  137.5533  155.0812 H   0  0  0  0  0  0  0  0  0  0  0  0
  153.6848  138.9364  154.0995 H   0  0  0  0  0  0  0  0  0  0  0  0
  149.5125  143.7566  157.1085 H   0  0  0  0  0  0  0  0  0  0  0  0
  1  2  1  0  0  0  0
  1 18  1  0  0  0  0
  1 19  1  0  0  0  0
  1 20  1  0  0  0  0
  2 16  1  0  0  0  0
  2  3  2  0  0  0  0
  3  4  1  0  0  0  0
  3 14  1  0  0  0  0
  4  5  1  0  0  0  0
  4 21  1  0  0  0  0
  4 22  1  0  0  0  0
  5  6  1  0  0  0  0
  5 23  1  0  0  0  0
  5 24  1  0  0  0  0
  6  7  1  0  0  0  0
  6 25  1  0  0  0  0
  6 41  1  0  0  0  0
  7 12  1  0  0  0  0
  7  8  1  0  0  0  0
  7 26  1  0  0  0  0
  8  9  1  0  0  0  0
  8 27  1  0  0  0  0
  8 28  1  0  0  0  0
  9 13  1  0  0  0  0
  9 10  1  0  0  0  0
  9 29  1  0  0  0  0
 10 11  1  0  0  0  0
 10 30  1  0  0  0  0
 10 31  1  0  0  0  0
 11 12  1  0  0  0  0
 11 32  1  0  0  0  0
 11 33  1  0  0  0  0
 12 13  1  0  0  0  0
 12 34  1  0  0  0  0
 13 35  1  0  0  0  0
 13 36  1  0  0  0  0
 14 15  2  0  0  0  0
 14 37  1  0  0  0  0
 15 16  1  0  0  0  0
 16 17  1  0  0  0  0
 17 38  1  0  0  0  0
 17 39  1  0  0  0  0
 17 40  1  0  0  0  0
M  CHG  1   6   1
M  END
> <s_m_source_file>
AV-unprocessed.smi

> <i_m_source_file_index>
3201

> <i_lp_mmshare_version>
43012

> <i_f3d_flags>
0

> <s_epik_input>
W0NIM11uMW5bY0hdYyhjMVtDSDNdKVtDSDJdW0NIMl1bTkhdW0NASF0oW0NIMl1bQ0BIXTIzKVtDQEhdKFtDSDJdMylbQ0gyXVtDSDJdMg==

> <s_epik_cmdline>
J2VwaWtfcHl0aG9uJywgJy1waCcsICc3LjAnLCAnLXRuJywgJzgnLCAnLW1hJywgJzIwMCcsICctbWV0YWxfYmluZGluZycsICctaW1hZScsICc8aW5maWxlLm1hZT4nLCAnLW9tYWUnLCAnPG91dGZpbGUubWFlPic=

> <r_lp_tautomer_probability>
1

> <r_epik_Ionization_Penalty>
0.000331174

> <r_epik_Ionization_Penalty_Charging>
0.000242709

> <r_epik_Ionization_Penalty_Neutral>
8.84659e-05

> <r_epik_State_Penalty>
-0

> <r_epik_Charging_Adjusted_Penalty>
0.000242709

> <i_epik_Tot_Q>
1

> <i_epik_Tot_abs_Q>
1

> <r_epik_Metal_State_Penalty>
-0

> <b_epik_Metal_Only>
0

> <s_lp_Force_Field>
OPLS_2005

> <r_lp_Energy>
51.1066

> <b_lp_Chiralities_Consistent>
1

> <s_lp_Variant>
AV-unprocessed.smi:3201-4

> <Gold.Version>
5.8.1

> <Gold.Id.Protein>
6NUR|6NUR_protein|mol2

> <Gold.PLP.Fitness>
49.3225

> <Gold.PLP.PLP>
-40.5403

> <Gold.PLP.part.hbond>
-2.0000

> <Gold.PLP.part.metal>
0.0000

> <Gold.PLP.part.buried>
-2.4383

> <Gold.PLP.part.nonpolar>
-35.2232

> <Gold.PLP.part.repulsive>
0.0286

> <Gold.PLP.ligand.clash>
0.0000

> <Gold.PLP.ligand.torsion>
0.1164

> <Gold.PLP.Chemscore.Hbond>
3.0000

> <Gold.PLP.Chemscore.CHOScore>
0.0000

> <Gold.PLP.Chemscore.Metal>
0.0000

> <Gold.Chemscore.Hbonds>
donor molecule, donor type, donor heavy atom, donor atom, acceptor molecule, acceptor atom, score
      L1  H     6    41       P1  8028  2.00
      P1  H  7997  8010       L1    15  1.00

> <Gold.PLP.Chemscore.Internal.Correction>
0.0151

> <Gold.Rescore>
     Score         DG    S(hbond)    S(metal)    S(lipo)     H(rot)  DE(clash)    DE(int)     intcor
     22.70     -23.17       1.94        0.00     125.64       1.36       0.32       0.14       ----

> <Gold.Chemscore.Fitness>
22.7024

> <Gold.Chemscore.DG>
-23.1680

> <Gold.Chemscore.ZeroCoef>
-5.4800

> <Gold.Chemscore.Hbond>
1.9363

> <Gold.Chemscore.Metal>
0.0000

> <Gold.Chemscore.Lipo>
125.6352

> <Gold.Chemscore.Internal_Hbond>
0.0000

> <Gold.Chemscore.DEClash>
0.3241

> <Gold.Chemscore.DEInternal>
0.1415

> <Gold.Chemscore.Rot>
1.3588

> <Gold.Chemscore.Internal.Correction>
   9.000000E+99

> <Gold.Chemscore.Hbonds>
donor molecule, donor type, donor heavy atom, donor atom, acceptor molecule, acceptor atom, score
      L1  H     6    41       P1  8028  0.78
      P1  H  7997  8010       L1    15  0.96

> <Gold.Chemscore.Hbond.Weighted>
-6.4673

> <Gold.Chemscore.Metal.Weighted>
-0.0000

> <Gold.Chemscore.Lipo.Weighted>
-14.6993

> <Gold.Chemscore.Internal_Hbond.Weighted>
0.0000

> <Gold.Chemscore.DEClash.Weighted>
0.3241

> <Gold.Chemscore.DEInternal.Weighted>
0.1415

> <Gold.Chemscore.Rot.Weighted>
3.4786

> <Gold.Chemscore.Internal.Correction.Weighted>
   9.000000E+99

> <Gold.Protein.RotatedTorsions>
[ 6907 6896 6895 6894 ] final   55.24 input  -60.11 | X-H torsion
[ 7974 7965 7964 7962 ] final   24.92 input  175.53 | X-H torsion
[ 8008 7997 7996 7995 ] final   80.97 input   59.86 | X-H torsion
[ 10167 10162 10161 10158 ] final  158.86 input  -65.29 | X-H torsion
[ 10718 10713 10712 10709 ] final  174.25 input   66.30 | X-H torsion
[ 10763 10752 10751 10750 ] final -175.79 input  -60.55 | X-H torsion
[ 11005 11000 10999 10996 ] final  131.00 input  -57.11 | X-H torsion

> <Gold.Protein.ActiveResidues>
 VAL166  LYS551  ARG553  GLY616  TRP617  ASP618  TYR619  PRO620  LYS621  CYS622 
 ASP623  PHE694  ASN695  SER759  ASP760  ASP761  ALA762  ILE779  LEU786  VAL792 
 PHE793  MET794  SER795  GLU796  ALA797  LYS798  CYS799  TRP800  GLU811  SER814 

> <Gold.Protein.RotatedAtoms>
  152.3519  134.6994  160.0233 H   0  0  0  0  0  0  0  0  0  0  0  0  # atno 6907 bound_to 6896
  151.7345  133.3314  159.3357 H   0  0  0  0  0  0  0  0  0  0  0  0  # atno 6908 bound_to 6896
  150.7545  134.6267  159.6209 H   0  0  0  0  0  0  0  0  0  0  0  0  # atno 6909 bound_to 6896
  146.1914  139.7538  142.8829 H   0  0  0  0  0  0  0  0  0  0  0  0  # atno 7974 bound_to 7965
  155.8908  140.3439  155.5954 H   0  0  0  0  0  0  0  0  0  0  0  0  # atno 8008 bound_to 7997
  155.7613  140.0833  157.2173 H   0  0  0  0  0  0  0  0  0  0  0  0  # atno 8009 bound_to 7997
  154.4033  140.1535  156.2823 H   0  0  0  0  0  0  0  0  0  0  0  0  # atno 8010 bound_to 7997
  139.4829  144.4784  151.8478 H   0  0  0  0  0  0  0  0  0  0  0  0  # atno 10167 bound_to 10162
  156.9523  131.0035  151.2946 H   0  0  0  0  0  0  0  0  0  0  0  0  # atno 10718 bound_to 10713
  154.5802  135.2835  155.0740 H   0  0  0  0  0  0  0  0  0  0  0  0  # atno 10763 bound_to 10752
  154.2079  135.6413  153.5110 H   0  0  0  0  0  0  0  0  0  0  0  0  # atno 10764 bound_to 10752
  153.0086  135.5485  154.6453 H   0  0  0  0  0  0  0  0  0  0  0  0  # atno 10765 bound_to 10752
  139.9704  134.9579  156.9375 H   0  0  0  0  0  0  0  0  0  0  0  0  # atno 11005 bound_to 11000
  145.3780  141.0354  143.3193 LP  0  0  0  0  0  0  0  0  0  0  0  0  # atno 17320 bound_to 7965
  144.8494  139.5345  143.6863 LP  0  0  0  0  0  0  0  0  0  0  0  0  # atno 17321 bound_to 7965
  140.4258  144.2182  150.5887 LP  0  0  0  0  0  0  0  0  0  0  0  0  # atno 17342 bound_to 10162
  140.4828  143.2373  151.8930 LP  0  0  0  0  0  0  0  0  0  0  0  0  # atno 17343 bound_to 10162
  157.5714  130.8313  149.8396 LP  0  0  0  0  0  0  0  0  0  0  0  0  # atno 17370 bound_to 10713
  156.0357  130.3752  150.1566 LP  0  0  0  0  0  0  0  0  0  0  0  0  # atno 17371 bound_to 10713
  140.5305  134.0818  155.7314 LP  0  0  0  0  0  0  0  0  0  0  0  0  # atno 17394 bound_to 11000
  141.1384  133.9181  157.2382 LP  0  0  0  0  0  0  0  0  0  0  0  0  # atno 17395 bound_to 11000

$$$$
