AV-unprocessed.smi:3014|AV-procd|sdf|11468|dock4
  -GOLD-   2272016403D 1   1.00000     0.00000
 Structure written by MMmdl.
 45 46  0  0  0  0  0  0  0  0  1 V2000
  153.6472  142.4674  161.6252 C   0  0  0  0  0  0  0  0  0  0  0  0
  153.2486  142.4952  160.1427 C   0  0  2  0  0  0  0  0  0  0  0  0
  152.2853  143.6597  159.8409 C   0  0  0  0  0  0  0  0  0  0  0  0
  151.8768  143.6843  158.3595 C   0  0  0  0  0  0  0  0  0  0  0  0
  151.2648  142.3422  157.9313 C   0  0  0  0  0  0  0  0  0  0  0  0
  152.2288  141.1773  158.2100 C   0  0  2  0  0  0  0  0  0  0  0  0
  151.5544  139.9722  157.8539 O   0  0  0  0  0  0  0  0  0  0  0  0
  152.3325  138.7778  157.8842 C   0  0  0  0  0  0  0  0  0  0  0  0
  151.4567  137.5605  158.2009 C   0  0  0  0  0  0  0  0  0  0  0  0
  151.5828  136.5322  157.5356 O   0  0  0  0  0  0  0  0  0  0  0  0
  150.5911  137.7138  159.2201 N   0  0  0  0  0  0  0  0  0  0  0  0
  149.6721  136.7645  159.7391 C   0  0  0  0  0  0  0  0  0  0  0  0
  149.0414  135.9343  158.7878 C   0  0  0  0  0  0  0  0  0  0  0  0
  148.1257  134.9818  159.2747 C   0  0  0  0  0  0  0  0  0  0  0  0
  147.8574  134.8620  160.5909 N   0  0  0  0  0  0  0  0  0  0  0  0
  148.4972  135.6893  161.4265 C   0  0  0  0  0  0  0  0  0  0  0  0
  148.2223  135.5694  162.7918 N   0  0  0  0  0  0  0  0  0  0  0  0
  148.7956  136.4994  163.7610 C   0  0  0  0  0  0  0  0  0  0  0  0
  147.3584  134.5073  163.2991 C   0  0  0  0  0  0  0  0  0  0  0  0
  149.3822  136.6237  161.0558 N   0  0  0  0  0  0  0  0  0  0  0  0
  152.6315  141.1538  159.6991 C   0  0  0  0  0  0  0  0  0  0  0  0
  152.7782  142.3183  162.2671 H   0  0  0  0  0  0  0  0  0  0  0  0
  154.1227  143.4027  161.9213 H   0  0  0  0  0  0  0  0  0  0  0  0
  154.3528  141.6612  161.8276 H   0  0  0  0  0  0  0  0  0  0  0  0
  154.1584  142.6531  159.5613 H   0  0  0  0  0  0  0  0  0  0  0  0
  151.3925  143.5708  160.4615 H   0  0  0  0  0  0  0  0  0  0  0  0
  152.7521  144.6089  160.1067 H   0  0  0  0  0  0  0  0  0  0  0  0
  151.1644  144.4907  158.1831 H   0  0  0  0  0  0  0  0  0  0  0  0
  152.7494  143.9012  157.7422 H   0  0  0  0  0  0  0  0  0  0  0  0
  150.3276  142.1823  158.4662 H   0  0  0  0  0  0  0  0  0  0  0  0
  151.0147  142.3710  156.8702 H   0  0  0  0  0  0  0  0  0  0  0  0
  153.1187  141.3232  157.5961 H   0  0  0  0  0  0  0  0  0  0  0  0
  152.8830  138.6399  156.9530 H   0  0  0  0  0  0  0  0  0  0  0  0
  153.0749  138.8752  158.6763 H   0  0  0  0  0  0  0  0  0  0  0  0
  150.5926  138.6139  159.6769 H   0  0  0  0  0  0  0  0  0  0  0  0
  149.2473  136.0193  157.7307 H   0  0  0  0  0  0  0  0  0  0  0  0
  147.6062  134.3131  158.6044 H   0  0  0  0  0  0  0  0  0  0  0  0
  148.4715  137.5184  163.5469 H   0  0  0  0  0  0  0  0  0  0  0  0
  149.8849  136.4695  163.7192 H   0  0  0  0  0  0  0  0  0  0  0  0
  148.4958  136.2620  164.7816 H   0  0  0  0  0  0  0  0  0  0  0  0
  147.7798  133.5300  163.0621 H   0  0  0  0  0  0  0  0  0  0  0  0
  146.3680  134.5739  162.8479 H   0  0  0  0  0  0  0  0  0  0  0  0
  147.2345  134.5634  164.3806 H   0  0  0  0  0  0  0  0  0  0  0  0
  153.3447  140.3506  159.8845 H   0  0  0  0  0  0  0  0  0  0  0  0
  151.7547  140.9333  160.3098 H   0  0  0  0  0  0  0  0  0  0  0  0
  1  2  1  0  0  0  0
  1 22  1  0  0  0  0
  1 23  1  0  0  0  0
  1 24  1  0  0  0  0
  2 21  1  0  0  0  0
  2  3  1  0  0  0  0
  2 25  1  0  0  0  0
  3  4  1  0  0  0  0
  3 26  1  0  0  0  0
  3 27  1  0  0  0  0
  4  5  1  0  0  0  0
  4 28  1  0  0  0  0
  4 29  1  0  0  0  0
  5  6  1  0  0  0  0
  5 30  1  0  0  0  0
  5 31  1  0  0  0  0
  6  7  1  0  0  0  0
  6 21  1  0  0  0  0
  6 32  1  0  0  0  0
  7  8  1  0  0  0  0
  8  9  1  0  0  0  0
  8 33  1  0  0  0  0
  8 34  1  0  0  0  0
  9 10  2  0  0  0  0
  9 11  1  0  0  0  0
 11 12  1  0  0  0  0
 11 35  1  0  0  0  0
 12 20  1  0  0  0  0
 12 13  2  0  0  0  0
 13 14  1  0  0  0  0
 13 36  1  0  0  0  0
 14 15  2  0  0  0  0
 14 37  1  0  0  0  0
 15 16  1  0  0  0  0
 16 17  1  0  0  0  0
 16 20  2  0  0  0  0
 17 18  1  0  0  0  0
 17 19  1  0  0  0  0
 18 38  1  0  0  0  0
 18 39  1  0  0  0  0
 18 40  1  0  0  0  0
 19 41  1  0  0  0  0
 19 42  1  0  0  0  0
 19 43  1  0  0  0  0
 21 44  1  0  0  0  0
 21 45  1  0  0  0  0
M  END
> <s_m_source_file>
AV-unprocessed.smi

> <i_m_source_file_index>
3014

> <i_lp_mmshare_version>
43012

> <i_f3d_flags>
0

> <s_epik_input>
W0NIM11bQ0BASF0xW0NIMl1bQ0gyXVtDSDJdW0NASF0oW0NIMl0xKU9bQ0gyXUMoPU8pW05IXWMyW2NIXVtjSF1uYyhuMilOKFtDSDNdKVtDSDNd

> <s_epik_cmdline>
J2VwaWtfcHl0aG9uJywgJy1waCcsICc3LjAnLCAnLXRuJywgJzgnLCAnLW1hJywgJzIwMCcsICctbWV0YWxfYmluZGluZycsICctaW1hZScsICc8aW5maWxlLm1hZT4nLCAnLW9tYWUnLCAnPG91dGZpbGUubWFlPic=

> <r_lp_tautomer_probability>
1

> <r_epik_Ionization_Penalty>
0.000308195

> <r_epik_Ionization_Penalty_Charging>
0

> <r_epik_Ionization_Penalty_Neutral>
0.000308195

> <r_epik_State_Penalty>
-0

> <r_epik_Charging_Adjusted_Penalty>
0

> <i_epik_Tot_Q>
0

> <i_epik_Tot_abs_Q>
0

> <r_epik_Metal_State_Penalty>
-0

> <b_epik_Metal_Only>
0

> <s_lp_Force_Field>
OPLS_2005

> <r_lp_Energy>
8.92974

> <b_lp_Chiralities_Consistent>
1

> <s_lp_Variant>
AV-unprocessed.smi:3014-3

> <Gold.Version>
5.8.1

> <Gold.Id.Protein>
6NUR|6NUR_protein|mol2

> <Gold.PLP.Fitness>
46.4858

> <Gold.PLP.PLP>
-44.9195

> <Gold.PLP.part.hbond>
-1.4208

> <Gold.PLP.part.metal>
0.0000

> <Gold.PLP.part.buried>
-5.7683

> <Gold.PLP.part.nonpolar>
-38.1731

> <Gold.PLP.part.repulsive>
0.2169

> <Gold.PLP.ligand.clash>
0.0000

> <Gold.PLP.ligand.torsion>
0.6665

> <Gold.PLP.Chemscore.Hbond>
0.9600

> <Gold.PLP.Chemscore.CHOScore>
0.0000

> <Gold.PLP.Chemscore.Metal>
0.0000

> <Gold.Chemscore.Hbonds>
donor molecule, donor type, donor heavy atom, donor atom, acceptor molecule, acceptor atom, score
      P1  H  6931  6943       L1    20  0.85

> <Gold.PLP.Chemscore.Internal.Correction>
0.0193

> <Gold.Rescore>
     Score         DG    S(hbond)    S(metal)    S(lipo)     H(rot)  DE(clash)    DE(int)     intcor
     14.90     -16.94       0.97        0.00     101.62       1.43       0.09       1.94       ----

> <Gold.Chemscore.Fitness>
14.9012

> <Gold.Chemscore.DG>
-16.9367

> <Gold.Chemscore.ZeroCoef>
-5.4800

> <Gold.Chemscore.Hbond>
0.9671

> <Gold.Chemscore.Metal>
0.0000

> <Gold.Chemscore.Lipo>
101.6210

> <Gold.Chemscore.Internal_Hbond>
0.0000

> <Gold.Chemscore.DEClash>
0.0914

> <Gold.Chemscore.DEInternal>
1.9441

> <Gold.Chemscore.Rot>
1.4310

> <Gold.Chemscore.Internal.Correction>
   9.000000E+99

> <Gold.Chemscore.Hbonds>
donor molecule, donor type, donor heavy atom, donor atom, acceptor molecule, acceptor atom, score
      P1  H  6931  6943       L1    20  0.58

> <Gold.Chemscore.Hbond.Weighted>
-3.2302

> <Gold.Chemscore.Metal.Weighted>
-0.0000

> <Gold.Chemscore.Lipo.Weighted>
-11.8897

> <Gold.Chemscore.Internal_Hbond.Weighted>
0.0000

> <Gold.Chemscore.DEClash.Weighted>
0.0914

> <Gold.Chemscore.DEInternal.Weighted>
1.9441

> <Gold.Chemscore.Rot.Weighted>
3.6632

> <Gold.Chemscore.Internal.Correction.Weighted>
   9.000000E+99

> <Gold.Protein.RotatedTorsions>
[ 6907 6896 6895 6894 ] final -160.25 input  -60.11 | X-H torsion
[ 7974 7965 7964 7962 ] final  174.60 input  175.53 | X-H torsion
[ 8008 7997 7996 7995 ] final -129.23 input   59.86 | X-H torsion
[ 10167 10162 10161 10158 ] final  -47.39 input  -65.29 | X-H torsion
[ 10718 10713 10712 10709 ] final   12.73 input   66.30 | X-H torsion
[ 10763 10752 10751 10750 ] final  -87.66 input  -60.55 | X-H torsion
[ 11005 11000 10999 10996 ] final    1.17 input  -57.11 | X-H torsion

> <Gold.Protein.ActiveResidues>
 VAL166  LYS551  ARG553  GLY616  TRP617  ASP618  TYR619  PRO620  LYS621  CYS622 
 ASP623  PHE694  ASN695  SER759  ASP760  ASP761  ALA762  ILE779  LEU786  VAL792 
 PHE793  MET794  SER795  GLU796  ALA797  LYS798  CYS799  TRP800  GLU811  SER814 

> <Gold.Protein.RotatedAtoms>
  151.3462  133.3943  159.2675 H   0  0  0  0  0  0  0  0  0  0  0  0  # atno 6907 bound_to 6896
  150.9838  134.9188  159.7870 H   0  0  0  0  0  0  0  0  0  0  0  0  # atno 6908 bound_to 6896
  152.5225  134.3426  159.9275 H   0  0  0  0  0  0  0  0  0  0  0  0  # atno 6909 bound_to 6896
  144.7218  139.9821  143.6439 H   0  0  0  0  0  0  0  0  0  0  0  0  # atno 7974 bound_to 7965
  155.2758  140.0442  157.3011 H   0  0  0  0  0  0  0  0  0  0  0  0  # atno 8008 bound_to 7997
  154.5626  140.2350  155.8280 H   0  0  0  0  0  0  0  0  0  0  0  0  # atno 8009 bound_to 7997
  156.2060  140.3012  155.9634 H   0  0  0  0  0  0  0  0  0  0  0  0  # atno 8010 bound_to 7997
  140.6777  143.2786  151.3920 H   0  0  0  0  0  0  0  0  0  0  0  0  # atno 10167 bound_to 10162
  157.0144  130.6129  149.5712 H   0  0  0  0  0  0  0  0  0  0  0  0  # atno 10718 bound_to 10713
  154.6360  135.5405  153.7735 H   0  0  0  0  0  0  0  0  0  0  0  0  # atno 10763 bound_to 10752
  153.0309  135.6447  154.1230 H   0  0  0  0  0  0  0  0  0  0  0  0  # atno 10764 bound_to 10752
  154.1157  135.2923  155.3200 H   0  0  0  0  0  0  0  0  0  0  0  0  # atno 10765 bound_to 10752
  140.6184  133.9684  155.8212 H   0  0  0  0  0  0  0  0  0  0  0  0  # atno 11005 bound_to 11000
  146.0479  139.3483  143.0657 LP  0  0  0  0  0  0  0  0  0  0  0  0  # atno 17320 bound_to 7965
  145.8252  140.9659  143.0878 LP  0  0  0  0  0  0  0  0  0  0  0  0  # atno 17321 bound_to 7965
  139.6079  144.1159  152.2268 LP  0  0  0  0  0  0  0  0  0  0  0  0  # atno 17342 bound_to 10162
  140.0564  144.5892  150.7297 LP  0  0  0  0  0  0  0  0  0  0  0  0  # atno 17343 bound_to 10162
  156.0125  130.5217  150.8032 LP  0  0  0  0  0  0  0  0  0  0  0  0  # atno 17370 bound_to 10713
  157.5297  131.0936  150.9971 LP  0  0  0  0  0  0  0  0  0  0  0  0  # atno 17371 bound_to 10713
  141.0760  134.0135  157.3458 LP  0  0  0  0  0  0  0  0  0  0  0  0  # atno 17394 bound_to 11000
  139.9163  135.0197  156.7895 LP  0  0  0  0  0  0  0  0  0  0  0  0  # atno 17395 bound_to 11000

$$$$
