AV-unprocessed.smi:2692|AV-procd|sdf|10395|dock2
  -GOLD-   2272014433D 1   1.00000     0.00000
 Structure written by MMmdl.
 21 21  0  0  0  0  0  0  0  0  2 V2000
  142.3111  132.4838  148.4021 N   0  3  0  0  0  0  0  0  0  0  0  0
  143.6216  132.3665  149.0627 C   0  0  0  0  0  0  0  0  0  0  0  0
  143.4964  132.5255  150.5842 C   0  0  0  0  0  0  0  0  0  0  0  0
  144.3585  133.6550  151.1128 C   0  0  0  0  0  0  0  0  0  0  0  0
  144.7784  133.6748  152.4602 C   0  0  0  0  0  0  0  0  0  0  0  0
  145.5499  134.6513  152.9833 N   0  0  0  0  0  0  0  0  0  0  0  0
  145.9345  135.6584  152.1698 C   0  0  0  0  0  0  0  0  0  0  0  0
  145.5705  135.7343  150.8097 C   0  0  0  0  0  0  0  0  0  0  0  0
  145.9894  136.7751  150.0328 O   0  0  0  0  0  0  0  0  0  0  0  0
  144.7654  134.7113  150.2714 C   0  0  0  0  0  0  0  0  0  0  0  0
  142.4420  132.5412  147.4021 H   0  0  0  0  0  0  0  0  0  0  0  0
  141.8422  133.3171  148.7277 H   0  0  0  0  0  0  0  0  0  0  0  0
  144.0511  131.3949  148.8163 H   0  0  0  0  0  0  0  0  0  0  0  0
  144.2881  133.1269  148.6541 H   0  0  0  0  0  0  0  0  0  0  0  0
  142.4576  132.7147  150.8588 H   0  0  0  0  0  0  0  0  0  0  0  0
  143.7832  131.5987  151.0833 H   0  0  0  0  0  0  0  0  0  0  0  0
  144.4902  132.8837  153.1368 H   0  0  0  0  0  0  0  0  0  0  0  0
  146.5497  136.4249  152.6175 H   0  0  0  0  0  0  0  0  0  0  0  0
  145.2793  137.2819  149.6700 H   0  0  0  0  0  0  0  0  0  0  0  0
  144.4676  134.7355  149.2332 H   0  0  0  0  0  0  0  0  0  0  0  0
  141.7487  131.6737  148.6208 H   0  0  0  0  0  0  0  0  0  0  0  0
  1  2  1  0  0  0  0
  1 11  1  0  0  0  0
  1 12  1  0  0  0  0
  1 21  1  0  0  0  0
  2  3  1  0  0  0  0
  2 13  1  0  0  0  0
  2 14  1  0  0  0  0
  3  4  1  0  0  0  0
  3 15  1  0  0  0  0
  3 16  1  0  0  0  0
  4 10  1  0  0  0  0
  4  5  2  0  0  0  0
  5  6  1  0  0  0  0
  5 17  1  0  0  0  0
  6  7  2  0  0  0  0
  7  8  1  0  0  0  0
  7 18  1  0  0  0  0
  8  9  1  0  0  0  0
  8 10  2  0  0  0  0
  9 19  1  0  0  0  0
 10 20  1  0  0  0  0
M  CHG  1   1   1
M  END
> <s_m_source_file>
AV-unprocessed.smi

> <i_m_source_file_index>
2692

> <i_lp_mmshare_version>
43012

> <i_f3d_flags>
0

> <s_epik_input>
W05IMl1bQ0gyXVtDSDJdYzFbY0hdbltjSF1jKFtPSF0pW2NIXTE=

> <s_epik_cmdline>
J2VwaWtfcHl0aG9uJywgJy1waCcsICc3LjAnLCAnLXRuJywgJzgnLCAnLW1hJywgJzIwMCcsICctbWV0YWxfYmluZGluZycsICctaW1hZScsICc8aW5maWxlLm1hZT4nLCAnLW9tYWUnLCAnPG91dGZpbGUubWFlPic=

> <r_lp_tautomer_probability>
0.43658

> <r_epik_Ionization_Penalty>
0.0422097

> <r_epik_Ionization_Penalty_Charging>
0.00146569

> <r_epik_Ionization_Penalty_Neutral>
0.040744

> <r_epik_State_Penalty>
0.484136

> <r_epik_Charging_Adjusted_Penalty>
0.485601

> <i_epik_Tot_Q>
1

> <i_epik_Tot_abs_Q>
1

> <r_epik_Metal_State_Penalty>
0.40611

> <b_epik_Metal_Only>
0

> <s_lp_Force_Field>
OPLS_2005

> <r_lp_Energy>
4.65602

> <b_lp_Chiralities_Consistent>
1

> <s_lp_Variant>
AV-unprocessed.smi:2692-2

> <Gold.Version>
5.8.1

> <Gold.Id.Protein>
6NUR|6NUR_protein|mol2

> <Gold.PLP.Fitness>
39.7015

> <Gold.PLP.PLP>
-22.8365

> <Gold.PLP.part.hbond>
-4.0000

> <Gold.PLP.part.metal>
0.0000

> <Gold.PLP.part.buried>
-3.6998

> <Gold.PLP.part.nonpolar>
-16.8533

> <Gold.PLP.part.repulsive>
0.2844

> <Gold.PLP.ligand.clash>
0.0000

> <Gold.PLP.ligand.torsion>
0.7037

> <Gold.PLP.Chemscore.Hbond>
4.9913

> <Gold.PLP.Chemscore.CHOScore>
1.0995

> <Gold.PLP.Chemscore.Metal>
0.0000

> <Gold.Chemscore.Hbonds>
donor molecule, donor type, donor heavy atom, donor atom, acceptor molecule, acceptor atom, score
      L1  H     1    11       P1 10195  0.89
      L1  H     1    12       P1 10186  2.00
      L1  H     1    21       P1 10952  1.00
      L1  H     9    19       P1 10171  1.00
      P1  H  7954  7966       L1     9  0.02
      L1  C     5    17       P1 10957  0.61
      L1  C     7    18       P1  7948  0.61

> <Gold.PLP.Chemscore.Internal.Correction>
0.0000

> <Gold.Rescore>
     Score         DG    S(hbond)    S(metal)    S(lipo)     H(rot)  DE(clash)    DE(int)     intcor
     19.18     -19.95       3.96        0.00      52.33       1.91       0.09       0.69       ----

> <Gold.Chemscore.Fitness>
19.1795

> <Gold.Chemscore.DG>
-19.9543

> <Gold.Chemscore.ZeroCoef>
-5.4800

> <Gold.Chemscore.Hbond>
3.9623

> <Gold.Chemscore.Metal>
0.0000

> <Gold.Chemscore.Lipo>
52.3311

> <Gold.Chemscore.Internal_Hbond>
0.0000

> <Gold.Chemscore.DEClash>
0.0882

> <Gold.Chemscore.DEInternal>
0.6866

> <Gold.Chemscore.Rot>
1.9072

> <Gold.Chemscore.Internal.Correction>
   9.000000E+99

> <Gold.Chemscore.Hbonds>
donor molecule, donor type, donor heavy atom, donor atom, acceptor molecule, acceptor atom, score
      L1  H     1    11       P1 10195  0.81
      L1  H     1    12       P1 10186  0.98
      L1  H     1    21       P1 10952  1.00
      L1  H     9    19       P1 10171  0.97
      P1  H  7954  7966       L1     9  0.04

> <Gold.Chemscore.Hbond.Weighted>
-13.2340

> <Gold.Chemscore.Metal.Weighted>
-0.0000

> <Gold.Chemscore.Lipo.Weighted>
-6.1227

> <Gold.Chemscore.Internal_Hbond.Weighted>
0.0000

> <Gold.Chemscore.DEClash.Weighted>
0.0882

> <Gold.Chemscore.DEInternal.Weighted>
0.6866

> <Gold.Chemscore.Rot.Weighted>
4.8824

> <Gold.Chemscore.Internal.Correction.Weighted>
   9.000000E+99

> <Gold.Protein.RotatedTorsions>
[ 6907 6896 6895 6894 ] final -100.57 input  -60.11 | X-H torsion
[ 7974 7965 7964 7962 ] final -164.84 input  175.53 | X-H torsion
[ 8008 7997 7996 7995 ] final  -20.61 input   59.86 | X-H torsion
[ 10167 10162 10161 10158 ] final   87.88 input  -65.29 | X-H torsion
[ 10718 10713 10712 10709 ] final   -8.52 input   66.30 | X-H torsion
[ 10763 10752 10751 10750 ] final   33.09 input  -60.55 | X-H torsion
[ 11005 11000 10999 10996 ] final  -59.88 input  -57.11 | X-H torsion

> <Gold.Protein.ActiveResidues>
 VAL166  LYS551  ARG553  GLY616  TRP617  ASP618  TYR619  PRO620  LYS621  CYS622 
 ASP623  PHE694  ASN695  SER759  ASP760  ASP761  ALA762  ILE779  LEU786  VAL792 
 PHE793  MET794  SER795  GLU796  ALA797  LYS798  CYS799  TRP800  GLU811  SER814 

> <Gold.Protein.RotatedAtoms>
  150.7121  134.0867  159.3917 H   0  0  0  0  0  0  0  0  0  0  0  0  # atno 6907 bound_to 6896
  151.8852  135.0436  160.0502 H   0  0  0  0  0  0  0  0  0  0  0  0  # atno 6908 bound_to 6896
  152.2536  133.5200  159.5376 H   0  0  0  0  0  0  0  0  0  0  0  0  # atno 6909 bound_to 6896
  144.7286  140.2902  143.6221 H   0  0  0  0  0  0  0  0  0  0  0  0  # atno 7974 bound_to 7965
  154.4759  140.2057  155.9881 H   0  0  0  0  0  0  0  0  0  0  0  0  # atno 8008 bound_to 7997
  156.1087  140.3232  155.8013 H   0  0  0  0  0  0  0  0  0  0  0  0  # atno 8009 bound_to 7997
  155.4672  140.0528  157.2974 H   0  0  0  0  0  0  0  0  0  0  0  0  # atno 8010 bound_to 7997
  139.8729  144.6483  150.8929 H   0  0  0  0  0  0  0  0  0  0  0  0  # atno 10167 bound_to 10162
  156.7014  130.5094  149.5916 H   0  0  0  0  0  0  0  0  0  0  0  0  # atno 10718 bound_to 10713
  153.0229  135.6396  154.1457 H   0  0  0  0  0  0  0  0  0  0  0  0  # atno 10763 bound_to 10752
  154.1189  135.2848  155.3214 H   0  0  0  0  0  0  0  0  0  0  0  0  # atno 10764 bound_to 10752
  154.6277  135.5503  153.7708 H   0  0  0  0  0  0  0  0  0  0  0  0  # atno 10765 bound_to 10752
  141.1265  133.6619  156.5139 H   0  0  0  0  0  0  0  0  0  0  0  0  # atno 11005 bound_to 11000
  145.7863  139.1910  143.2129 LP  0  0  0  0  0  0  0  0  0  0  0  0  # atno 17320 bound_to 7965
  146.0793  140.7782  142.9649 LP  0  0  0  0  0  0  0  0  0  0  0  0  # atno 17321 bound_to 7965
  140.7757  143.3649  151.1758 LP  0  0  0  0  0  0  0  0  0  0  0  0  # atno 17342 bound_to 10162
  139.7267  143.9137  152.3005 LP  0  0  0  0  0  0  0  0  0  0  0  0  # atno 17343 bound_to 10162
  156.1726  130.6447  151.0855 LP  0  0  0  0  0  0  0  0  0  0  0  0  # atno 17370 bound_to 10713
  157.6971  131.0790  150.6935 LP  0  0  0  0  0  0  0  0  0  0  0  0  # atno 17371 bound_to 10713
  140.4347  134.7070  157.4960 LP  0  0  0  0  0  0  0  0  0  0  0  0  # atno 17394 bound_to 11000
  140.0270  134.6463  155.9159 LP  0  0  0  0  0  0  0  0  0  0  0  0  # atno 17395 bound_to 11000

$$$$
