AV-unprocessed.smi:1712|AV-procd|sdf|6901|dock7
  -GOLD-   22720 8103D 1   1.00000     0.00000
 Structure written by MMmdl.
 37 38  0  0  0  0  0  0  0  0  1 V2000
  146.9079  141.1885  153.6729 C   0  0  0  0  0  0  0  0  0  0  0  0
  147.6826  139.8570  153.7968 C   0  0  2  0  0  0  0  0  0  0  0  0
  146.6751  138.7363  154.1636 C   0  0  0  0  0  0  0  0  0  0  0  0
  146.7850  137.5804  153.2755 N   0  0  0  0  0  0  0  0  0  0  0  0
  145.7794  137.0297  152.5811 C   0  0  0  0  0  0  0  0  0  0  0  0
  144.6239  137.4549  152.5968 O   0  0  0  0  0  0  0  0  0  0  0  0
  146.1980  135.9613  151.8835 N   0  0  0  0  0  0  0  0  0  0  0  0
  145.4267  135.1364  151.0264 C   0  0  0  0  0  0  0  0  0  0  0  0
  145.8004  133.8302  150.6093 C   0  0  0  0  0  0  0  0  0  0  0  0
  144.8892  133.2993  149.8063 N   0  0  0  0  0  0  0  0  0  0  0  0
  143.9377  134.2550  149.7062 N   0  0  0  0  0  0  0  0  0  0  0  0
  144.2223  135.3905  150.4323 C   0  0  0  0  0  0  0  0  0  0  0  0
  148.8511  139.9370  154.7009 N   0  0  0  0  0  0  0  0  0  0  0  0
  149.9244  139.0142  154.3194 C   0  0  0  0  0  0  0  0  0  0  0  0
  151.1440  139.1090  155.2522 C   0  0  0  0  0  0  0  0  0  0  0  0
  151.6295  140.4448  155.2709 O   0  0  0  0  0  0  0  0  0  0  0  0
  150.6391  141.3700  155.6999 C   0  0  0  0  0  0  0  0  0  0  0  0
  149.4157  141.2881  154.7706 C   0  0  0  0  0  0  0  0  0  0  0  0
  143.1093  134.1195  149.1441 H   0  0  0  0  0  0  0  0  0  0  0  0
  145.9904  141.0596  153.0983 H   0  0  0  0  0  0  0  0  0  0  0  0
  147.4859  141.9521  153.1535 H   0  0  0  0  0  0  0  0  0  0  0  0
  146.6306  141.5838  154.6507 H   0  0  0  0  0  0  0  0  0  0  0  0
  148.0491  139.6213  152.7966 H   0  0  0  0  0  0  0  0  0  0  0  0
  146.8115  138.4410  155.2053 H   0  0  0  0  0  0  0  0  0  0  0  0
  145.6501  139.1029  154.1216 H   0  0  0  0  0  0  0  0  0  0  0  0
  147.6974  137.1543  153.2048 H   0  0  0  0  0  0  0  0  0  0  0  0
  147.1715  135.7103  151.9757 H   0  0  0  0  0  0  0  0  0  0  0  0
  146.6847  133.2616  150.8574 H   0  0  0  0  0  0  0  0  0  0  0  0
  143.5614  136.2441  150.4541 H   0  0  0  0  0  0  0  0  0  0  0  0
  149.5726  137.9842  154.3466 H   0  0  0  0  0  0  0  0  0  0  0  0
  150.2372  139.2143  153.2935 H   0  0  0  0  0  0  0  0  0  0  0  0
  150.8819  138.7944  156.2638 H   0  0  0  0  0  0  0  0  0  0  0  0
  151.9380  138.4469  154.9068 H   0  0  0  0  0  0  0  0  0  0  0  0
  150.3551  141.1584  156.7321 H   0  0  0  0  0  0  0  0  0  0  0  0
  151.0602  142.3755  155.6833 H   0  0  0  0  0  0  0  0  0  0  0  0
  149.6976  141.6228  153.7710 H   0  0  0  0  0  0  0  0  0  0  0  0
  148.6747  141.9939  155.1426 H   0  0  0  0  0  0  0  0  0  0  0  0
  1  2  1  0  0  0  0
  1 20  1  0  0  0  0
  1 21  1  0  0  0  0
  1 22  1  0  0  0  0
  2  3  1  0  0  0  0
  2 13  1  0  0  0  0
  2 23  1  0  0  0  0
  3  4  1  0  0  0  0
  3 24  1  0  0  0  0
  3 25  1  0  0  0  0
  4  5  1  0  0  0  0
  4 26  1  0  0  0  0
  5  6  2  0  0  0  0
  5  7  1  0  0  0  0
  7  8  1  0  0  0  0
  7 27  1  0  0  0  0
  8 12  2  0  0  0  0
  8  9  1  0  0  0  0
  9 10  2  0  0  0  0
  9 28  1  0  0  0  0
 10 11  1  0  0  0  0
 11 19  1  0  0  0  0
 11 12  1  0  0  0  0
 12 29  1  0  0  0  0
 13 18  1  0  0  0  0
 13 14  1  0  0  0  0
 14 15  1  0  0  0  0
 14 30  1  0  0  0  0
 14 31  1  0  0  0  0
 15 16  1  0  0  0  0
 15 32  1  0  0  0  0
 15 33  1  0  0  0  0
 16 17  1  0  0  0  0
 17 18  1  0  0  0  0
 17 34  1  0  0  0  0
 17 35  1  0  0  0  0
 18 36  1  0  0  0  0
 18 37  1  0  0  0  0
M  END
> <s_m_source_file>
AV-unprocessed.smi

> <i_m_source_file_index>
1712

> <i_lp_mmshare_version>
43012

> <i_f3d_flags>
0

> <s_epik_input>
W0NIMl0xW0NIMl1PW0NIMl1bQ0gyXU4xW0NASF0oW0NIM10pW0NIMl1bTkhdQyg9TylbTkhdYzJbY0hdbltuSF1bY0hdMg==

> <s_epik_cmdline>
J2VwaWtfcHl0aG9uJywgJy1waCcsICc3LjAnLCAnLXRuJywgJzgnLCAnLW1hJywgJzIwMCcsICctbWV0YWxfYmluZGluZycsICctaW1hZScsICc8aW5maWxlLm1hZT4nLCAnLW9tYWUnLCAnPG91dGZpbGUubWFlPic=

> <r_lp_tautomer_probability>
0.5

> <r_epik_Ionization_Penalty>
0.242772

> <r_epik_Ionization_Penalty_Charging>
0

> <r_epik_Ionization_Penalty_Neutral>
0.242772

> <r_epik_State_Penalty>
0.233765

> <r_epik_Charging_Adjusted_Penalty>
0.233765

> <i_epik_Tot_Q>
0

> <i_epik_Tot_abs_Q>
0

> <r_epik_Metal_State_Penalty>
0.233764

> <b_epik_Metal_Only>
0

> <s_lp_Force_Field>
OPLS_2005

> <r_lp_Energy>
36.7302

> <b_lp_Chiralities_Consistent>
1

> <s_lp_Variant>
AV-unprocessed.smi:1712-1

> <Gold.Version>
5.8.1

> <Gold.Id.Protein>
6NUR|6NUR_protein|mol2

> <Gold.PLP.Fitness>
38.9473

> <Gold.PLP.PLP>
-29.5227

> <Gold.PLP.part.hbond>
-4.6064

> <Gold.PLP.part.metal>
0.0000

> <Gold.PLP.part.buried>
-3.4534

> <Gold.PLP.part.nonpolar>
-22.5117

> <Gold.PLP.part.repulsive>
1.6270

> <Gold.PLP.ligand.clash>
0.3879

> <Gold.PLP.ligand.torsion>
1.4504

> <Gold.PLP.Chemscore.Hbond>
3.2254

> <Gold.PLP.Chemscore.CHOScore>
1.0000

> <Gold.PLP.Chemscore.Metal>
0.0000

> <Gold.Chemscore.Hbonds>
donor molecule, donor type, donor heavy atom, donor atom, acceptor molecule, acceptor atom, score
      L1  H     4    26       P1  7948  0.78
      L1  H     7    27       P1  7948  0.96
      L1  H    11    19       P1 10186  0.46
      P1  H  7989  7998       L1    16  0.75
      L1  C    12    29       P1 10171  1.00

> <Gold.PLP.Chemscore.Internal.Correction>
0.0370

> <Gold.Rescore>
     Score         DG    S(hbond)    S(metal)    S(lipo)     H(rot)  DE(clash)    DE(int)     intcor
     15.77     -18.38       2.88        0.00      63.66       1.63       0.03       2.59       ----

> <Gold.Chemscore.Fitness>
15.7678

> <Gold.Chemscore.DG>
-18.3831

> <Gold.Chemscore.ZeroCoef>
-5.4800

> <Gold.Chemscore.Hbond>
2.8832

> <Gold.Chemscore.Metal>
0.0000

> <Gold.Chemscore.Lipo>
63.6643

> <Gold.Chemscore.Internal_Hbond>
0.0000

> <Gold.Chemscore.DEClash>
0.0270

> <Gold.Chemscore.DEInternal>
2.5883

> <Gold.Chemscore.Rot>
1.6311

> <Gold.Chemscore.Internal.Correction>
   9.000000E+99

> <Gold.Chemscore.Hbonds>
donor molecule, donor type, donor heavy atom, donor atom, acceptor molecule, acceptor atom, score
      L1  H     4    26       P1  7948  0.75
      L1  H     7    27       P1  7948  0.92
      L1  H    11    19       P1 10186  0.45
      P1  H  7989  7998       L1    16  0.06

> <Gold.Chemscore.Hbond.Weighted>
-9.6301

> <Gold.Chemscore.Metal.Weighted>
-0.0000

> <Gold.Chemscore.Lipo.Weighted>
-7.4487

> <Gold.Chemscore.Internal_Hbond.Weighted>
0.0000

> <Gold.Chemscore.DEClash.Weighted>
0.0270

> <Gold.Chemscore.DEInternal.Weighted>
2.5883

> <Gold.Chemscore.Rot.Weighted>
4.1757

> <Gold.Chemscore.Internal.Correction.Weighted>
   9.000000E+99

> <Gold.Protein.RotatedTorsions>
[ 6907 6896 6895 6894 ] final -123.44 input  -60.11 | X-H torsion
[ 7974 7965 7964 7962 ] final   56.52 input  175.53 | X-H torsion
[ 8008 7997 7996 7995 ] final  170.88 input   59.86 | X-H torsion
[ 10167 10162 10161 10158 ] final   98.59 input  -65.29 | X-H torsion
[ 10718 10713 10712 10709 ] final  123.01 input   66.30 | X-H torsion
[ 10763 10752 10751 10750 ] final  -30.79 input  -60.55 | X-H torsion
[ 11005 11000 10999 10996 ] final   84.45 input  -57.11 | X-H torsion

> <Gold.Protein.ActiveResidues>
 VAL166  LYS551  ARG553  GLY616  TRP617  ASP618  TYR619  PRO620  LYS621  CYS622 
 ASP623  PHE694  ASN695  SER759  ASP760  ASP761  ALA762  ILE779  LEU786  VAL792 
 PHE793  MET794  SER795  GLU796  ALA797  LYS798  CYS799  TRP800  GLU811  SER814 

> <Gold.Protein.RotatedAtoms>
  150.8671  133.7559  159.2973 H   0  0  0  0  0  0  0  0  0  0  0  0  # atno 6907 bound_to 6896
  151.5183  135.1065  159.9881 H   0  0  0  0  0  0  0  0  0  0  0  0  # atno 6908 bound_to 6896
  152.4669  133.7897  159.6951 H   0  0  0  0  0  0  0  0  0  0  0  0  # atno 6909 bound_to 6896
  145.9389  139.3871  143.0375 H   0  0  0  0  0  0  0  0  0  0  0  0  # atno 7974 bound_to 7965
  156.1324  140.1526  156.9045 H   0  0  0  0  0  0  0  0  0  0  0  0  # atno 8008 bound_to 7997
  154.4920  140.0849  156.7654 H   0  0  0  0  0  0  0  0  0  0  0  0  # atno 8009 bound_to 7997
  155.4231  140.3424  155.4275 H   0  0  0  0  0  0  0  0  0  0  0  0  # atno 8010 bound_to 7997
  139.7695  144.6927  151.0176 H   0  0  0  0  0  0  0  0  0  0  0  0  # atno 10167 bound_to 10162
  157.5698  131.1084  150.8388 H   0  0  0  0  0  0  0  0  0  0  0  0  # atno 10718 bound_to 10713
  153.7867  135.6901  153.4879 H   0  0  0  0  0  0  0  0  0  0  0  0  # atno 10763 bound_to 10752
  153.1776  135.4518  154.9984 H   0  0  0  0  0  0  0  0  0  0  0  0  # atno 10764 bound_to 10752
  154.8060  135.3357  154.7366 H   0  0  0  0  0  0  0  0  0  0  0  0  # atno 10765 bound_to 10752
  139.9000  134.8217  156.2446 H   0  0  0  0  0  0  0  0  0  0  0  0  # atno 11005 bound_to 11000
  145.8326  140.9623  143.0841 LP  0  0  0  0  0  0  0  0  0  0  0  0  # atno 17320 bound_to 7965
  144.6776  140.0182  143.7484 LP  0  0  0  0  0  0  0  0  0  0  0  0  # atno 17321 bound_to 7965
  140.7813  143.4605  151.0285 LP  0  0  0  0  0  0  0  0  0  0  0  0  # atno 17342 bound_to 10162
  139.8289  143.7718  152.3179 LP  0  0  0  0  0  0  0  0  0  0  0  0  # atno 17343 bound_to 10162
  156.8863  130.5197  149.5288 LP  0  0  0  0  0  0  0  0  0  0  0  0  # atno 17370 bound_to 10713
  156.0744  130.5769  150.9445 LP  0  0  0  0  0  0  0  0  0  0  0  0  # atno 17371 bound_to 10713
  141.0263  133.7013  156.1353 LP  0  0  0  0  0  0  0  0  0  0  0  0  # atno 17394 bound_to 11000
  140.7162  134.4408  157.5578 LP  0  0  0  0  0  0  0  0  0  0  0  0  # atno 17395 bound_to 11000

$$$$
