AV-unprocessed.smi:1644|AV-procd|sdf|6584|dock6
  -GOLD-   22720 7273D 1   1.00000     0.00000
 Structure written by MMmdl.
 49 51  0  0  0  0  0  0  0  0  1 V2000
  147.6723  134.7518  162.7594 C   0  0  0  0  0  0  0  0  0  0  0  0
  147.1050  133.7070  161.7922 C   0  0  0  0  0  0  0  0  0  0  0  0
  147.7210  133.8097  160.3877 C   0  0  0  0  0  0  0  0  0  0  0  0
  147.4996  135.1835  159.7245 C   0  0  2  0  0  0  0  0  0  0  0  0
  147.5471  135.1211  158.2770 N   0  0  0  0  0  0  0  0  0  0  0  0
  148.5166  135.8864  157.7601 C   0  0  0  0  0  0  0  0  0  0  0  0
  148.7661  136.0003  156.5609 O   0  0  0  0  0  0  0  0  0  0  0  0
  149.1632  136.4928  158.7720 N   0  0  0  0  0  0  0  0  0  0  0  0
  150.3104  137.3902  158.6005 C   0  0  0  0  0  0  0  0  0  0  0  0
  151.2647  136.9012  157.4916 C   0  0  2  0  0  0  0  0  0  0  0  0
  151.8595  135.6873  157.9083 O   0  0  0  0  0  0  0  0  0  0  0  0
  152.3814  137.9253  157.2117 C   0  0  0  0  0  0  0  0  0  0  0  0
  151.8617  139.2519  156.9305 N   0  0  0  0  0  0  0  0  0  0  0  0
  151.1854  139.6403  155.8324 C   0  0  0  0  0  0  0  0  0  0  0  0
  150.8001  140.9118  155.7724 N   0  0  0  0  0  0  0  0  0  0  0  0
  151.2823  141.4063  156.9722 C   0  0  0  0  0  0  0  0  0  0  0  0
  151.2100  142.7038  157.5244 C   0  0  0  0  0  0  0  0  0  0  0  0
  151.7853  142.9890  158.7833 C   0  0  0  0  0  0  0  0  0  0  0  0
  151.6871  144.3990  159.3383 C   0  0  0  0  0  0  0  0  0  0  0  0
  152.4446  141.9662  159.5112 C   0  0  0  0  0  0  0  0  0  0  0  0
  153.0710  142.2491  160.8653 C   0  0  0  0  0  0  0  0  0  0  0  0
  152.5250  140.6642  158.9746 C   0  0  0  0  0  0  0  0  0  0  0  0
  151.9498  140.3931  157.7206 C   0  0  0  0  0  0  0  0  0  0  0  0
  148.6530  136.1409  159.9594 C   0  0  0  0  0  0  0  0  0  0  0  0
  149.0287  136.5061  161.0733 O   0  0  0  0  0  0  0  0  0  0  0  0
  147.2250  134.6497  163.7484 H   0  0  0  0  0  0  0  0  0  0  0  0
  147.4733  135.7644  162.4075 H   0  0  0  0  0  0  0  0  0  0  0  0
  148.7514  134.6411  162.8698 H   0  0  0  0  0  0  0  0  0  0  0  0
  147.2789  132.7119  162.2029 H   0  0  0  0  0  0  0  0  0  0  0  0
  146.0233  133.8288  161.7258 H   0  0  0  0  0  0  0  0  0  0  0  0
  148.7926  133.6163  160.4577 H   0  0  0  0  0  0  0  0  0  0  0  0
  147.3114  133.0206  159.7543 H   0  0  0  0  0  0  0  0  0  0  0  0
  146.5641  135.6396  160.0509 H   0  0  0  0  0  0  0  0  0  0  0  0
  146.9137  134.5551  157.7311 H   0  0  0  0  0  0  0  0  0  0  0  0
  149.9270  138.3786  158.3414 H   0  0  0  0  0  0  0  0  0  0  0  0
  150.8490  137.5298  159.5399 H   0  0  0  0  0  0  0  0  0  0  0  0
  150.7122  136.7221  156.5680 H   0  0  0  0  0  0  0  0  0  0  0  0
  151.9847  135.1384  157.1490 H   0  0  0  0  0  0  0  0  0  0  0  0
  153.0478  137.9981  158.0724 H   0  0  0  0  0  0  0  0  0  0  0  0
  152.9961  137.6037  156.3698 H   0  0  0  0  0  0  0  0  0  0  0  0
  150.9650  138.9503  155.0310 H   0  0  0  0  0  0  0  0  0  0  0  0
  150.7079  143.4825  156.9695 H   0  0  0  0  0  0  0  0  0  0  0  0
  151.1377  144.4011  160.2800 H   0  0  0  0  0  0  0  0  0  0  0  0
  151.1687  145.0640  158.6467 H   0  0  0  0  0  0  0  0  0  0  0  0
  152.6811  144.8106  159.5152 H   0  0  0  0  0  0  0  0  0  0  0  0
  153.5176  141.3508  161.2926 H   0  0  0  0  0  0  0  0  0  0  0  0
  152.3194  142.6144  161.5656 H   0  0  0  0  0  0  0  0  0  0  0  0
  153.8545  143.0016  160.7732 H   0  0  0  0  0  0  0  0  0  0  0  0
  153.0272  139.8761  159.5162 H   0  0  0  0  0  0  0  0  0  0  0  0
  1  2  1  0  0  0  0
  1 26  1  0  0  0  0
  1 27  1  0  0  0  0
  1 28  1  0  0  0  0
  2  3  1  0  0  0  0
  2 29  1  0  0  0  0
  2 30  1  0  0  0  0
  3  4  1  0  0  0  0
  3 31  1  0  0  0  0
  3 32  1  0  0  0  0
  4 24  1  0  0  0  0
  4  5  1  0  0  0  0
  4 33  1  0  0  0  0
  5  6  1  0  0  0  0
  5 34  1  0  0  0  0
  6  7  2  0  0  0  0
  6  8  1  0  0  0  0
  8  9  1  0  0  0  0
  8 24  1  0  0  0  0
  9 10  1  0  0  0  0
  9 35  1  0  0  0  0
  9 36  1  0  0  0  0
 10 11  1  0  0  0  0
 10 12  1  0  0  0  0
 10 37  1  0  0  0  0
 11 38  1  0  0  0  0
 12 13  1  0  0  0  0
 12 39  1  0  0  0  0
 12 40  1  0  0  0  0
 13 23  1  0  0  0  0
 13 14  1  0  0  0  0
 14 15  2  0  0  0  0
 14 41  1  0  0  0  0
 15 16  1  0  0  0  0
 16 23  2  0  0  0  0
 16 17  1  0  0  0  0
 17 18  2  0  0  0  0
 17 42  1  0  0  0  0
 18 19  1  0  0  0  0
 18 20  1  0  0  0  0
 19 43  1  0  0  0  0
 19 44  1  0  0  0  0
 19 45  1  0  0  0  0
 20 21  1  0  0  0  0
 20 22  2  0  0  0  0
 21 46  1  0  0  0  0
 21 47  1  0  0  0  0
 21 48  1  0  0  0  0
 22 23  1  0  0  0  0
 22 49  1  0  0  0  0
 24 25  2  0  0  0  0
M  END
> <s_m_source_file>
AV-unprocessed.smi

> <i_m_source_file_index>
1644

> <i_lp_mmshare_version>
43012

> <i_f3d_flags>
0

> <s_epik_input>
W0NIM11bQ0gyXVtDSDJdW0NAQEhdMVtOSF1DKD1PKU4oQzE9TylbQ0gyXVtDQEhdKFtPSF0pW0NIMl1uKFtjSF1uMiljKGMyMylbY0hdYyhbQ0gzXSljKFtjSF0zKVtDSDNd

> <s_epik_cmdline>
J2VwaWtfcHl0aG9uJywgJy1waCcsICc3LjAnLCAnLXRuJywgJzgnLCAnLW1hJywgJzIwMCcsICctbWV0YWxfYmluZGluZycsICctaW1hZScsICc8aW5maWxlLm1hZT4nLCAnLW9tYWUnLCAnPG91dGZpbGUubWFlPic=

> <r_lp_tautomer_probability>
1

> <r_epik_Ionization_Penalty>
0.10693

> <r_epik_Ionization_Penalty_Charging>
0

> <r_epik_Ionization_Penalty_Neutral>
0.10693

> <r_epik_State_Penalty>
0.096713

> <r_epik_Charging_Adjusted_Penalty>
0.096713

> <i_epik_Tot_Q>
0

> <i_epik_Tot_abs_Q>
0

> <r_epik_Metal_State_Penalty>
0.102757

> <b_epik_Metal_Only>
0

> <s_lp_Force_Field>
OPLS_2005

> <r_lp_Energy>
24.4016

> <b_lp_Chiralities_Consistent>
1

> <s_lp_Variant>
AV-unprocessed.smi:1644-1

> <Gold.Version>
5.8.1

> <Gold.Id.Protein>
6NUR|6NUR_protein|mol2

> <Gold.PLP.Fitness>
50.7062

> <Gold.PLP.PLP>
-45.9358

> <Gold.PLP.part.hbond>
-2.6397

> <Gold.PLP.part.metal>
0.0000

> <Gold.PLP.part.buried>
-6.1726

> <Gold.PLP.part.nonpolar>
-38.5553

> <Gold.PLP.part.repulsive>
0.0961

> <Gold.PLP.ligand.clash>
0.0000

> <Gold.PLP.ligand.torsion>
0.7776

> <Gold.PLP.Chemscore.Hbond>
2.0720

> <Gold.PLP.Chemscore.CHOScore>
0.0000

> <Gold.PLP.Chemscore.Metal>
0.0000

> <Gold.Chemscore.Hbonds>
donor molecule, donor type, donor heavy atom, donor atom, acceptor molecule, acceptor atom, score
      P1  H  6896  6908       L1    11  0.06
      P1  H  6931  6943       L1    25  1.00
      P1  H  7989  7998       L1    15  0.01

> <Gold.PLP.Chemscore.Internal.Correction>
0.1095

> <Gold.Rescore>
     Score         DG    S(hbond)    S(metal)    S(lipo)     H(rot)  DE(clash)    DE(int)     intcor
     14.21     -16.21       1.18        0.00     117.44       2.72       0.05       1.95       ----

> <Gold.Chemscore.Fitness>
14.2053

> <Gold.Chemscore.DG>
-16.2059

> <Gold.Chemscore.ZeroCoef>
-5.4800

> <Gold.Chemscore.Hbond>
1.1831

> <Gold.Chemscore.Metal>
0.0000

> <Gold.Chemscore.Lipo>
117.4402

> <Gold.Chemscore.Internal_Hbond>
0.0000

> <Gold.Chemscore.DEClash>
0.0515

> <Gold.Chemscore.DEInternal>
1.9491

> <Gold.Chemscore.Rot>
2.7212

> <Gold.Chemscore.Internal.Correction>
   9.000000E+99

> <Gold.Chemscore.Hbonds>
donor molecule, donor type, donor heavy atom, donor atom, acceptor molecule, acceptor atom, score
      P1  H  6896  6908       L1    11  0.07
      P1  H  6931  6943       L1    25  0.96

> <Gold.Chemscore.Hbond.Weighted>
-3.9517

> <Gold.Chemscore.Metal.Weighted>
-0.0000

> <Gold.Chemscore.Lipo.Weighted>
-13.7405

> <Gold.Chemscore.Internal_Hbond.Weighted>
0.0000

> <Gold.Chemscore.DEClash.Weighted>
0.0515

> <Gold.Chemscore.DEInternal.Weighted>
1.9491

> <Gold.Chemscore.Rot.Weighted>
6.9663

> <Gold.Chemscore.Internal.Correction.Weighted>
   9.000000E+99

> <Gold.Protein.RotatedTorsions>
[ 6907 6896 6895 6894 ] final -142.89 input  -60.11 | X-H torsion
[ 7974 7965 7964 7962 ] final  -29.85 input  175.53 | X-H torsion
[ 8008 7997 7996 7995 ] final  -76.65 input   59.86 | X-H torsion
[ 10167 10162 10161 10158 ] final   93.56 input  -65.29 | X-H torsion
[ 10718 10713 10712 10709 ] final  122.64 input   66.30 | X-H torsion
[ 10763 10752 10751 10750 ] final  -94.48 input  -60.55 | X-H torsion
[ 11005 11000 10999 10996 ] final  139.91 input  -57.11 | X-H torsion

> <Gold.Protein.ActiveResidues>
 VAL166  LYS551  ARG553  GLY616  TRP617  ASP618  TYR619  PRO620  LYS621  CYS622 
 ASP623  PHE694  ASN695  SER759  ASP760  ASP761  ALA762  ILE779  LEU786  VAL792 
 PHE793  MET794  SER795  GLU796  ALA797  LYS798  CYS799  TRP800  GLU811  SER814 

> <Gold.Protein.RotatedAtoms>
  151.0931  133.5300  159.2613 H   0  0  0  0  0  0  0  0  0  0  0  0  # atno 6907 bound_to 6896
  151.2159  135.0499  159.8940 H   0  0  0  0  0  0  0  0  0  0  0  0  # atno 6908 bound_to 6896
  152.5436  134.0741  159.8260 H   0  0  0  0  0  0  0  0  0  0  0  0  # atno 6909 bound_to 6896
  146.1186  140.5465  142.8745 H   0  0  0  0  0  0  0  0  0  0  0  0  # atno 7974 bound_to 7965
  154.5524  140.0723  156.8689 H   0  0  0  0  0  0  0  0  0  0  0  0  # atno 8008 bound_to 7997
  155.2967  140.3381  155.4231 H   0  0  0  0  0  0  0  0  0  0  0  0  # atno 8009 bound_to 7997
  156.1973  140.1708  156.7958 H   0  0  0  0  0  0  0  0  0  0  0  0  # atno 8010 bound_to 7997
  139.8168  144.6749  150.9570 H   0  0  0  0  0  0  0  0  0  0  0  0  # atno 10167 bound_to 10162
  157.5727  131.1082  150.8337 H   0  0  0  0  0  0  0  0  0  0  0  0  # atno 10718 bound_to 10713
  154.7059  135.5156  153.8595 H   0  0  0  0  0  0  0  0  0  0  0  0  # atno 10763 bound_to 10752
  153.0741  135.6610  154.0193 H   0  0  0  0  0  0  0  0  0  0  0  0  # atno 10764 bound_to 10752
  154.0043  135.3008  155.3379 H   0  0  0  0  0  0  0  0  0  0  0  0  # atno 10765 bound_to 10752
  140.0289  134.9361  157.0623 H   0  0  0  0  0  0  0  0  0  0  0  0  # atno 11005 bound_to 11000
  144.7576  140.5345  143.6758 LP  0  0  0  0  0  0  0  0  0  0  0  0  # atno 17320 bound_to 7965
  145.5514  139.1477  143.3392 LP  0  0  0  0  0  0  0  0  0  0  0  0  # atno 17321 bound_to 7965
  140.7815  143.4131  151.0961 LP  0  0  0  0  0  0  0  0  0  0  0  0  # atno 17342 bound_to 10162
  139.7794  143.8377  152.3135 LP  0  0  0  0  0  0  0  0  0  0  0  0  # atno 17343 bound_to 10162
  156.8804  130.5177  149.5291 LP  0  0  0  0  0  0  0  0  0  0  0  0  # atno 17370 bound_to 10713
  156.0772  130.5791  150.9495 LP  0  0  0  0  0  0  0  0  0  0  0  0  # atno 17371 bound_to 10713
  140.4259  134.1831  155.7166 LP  0  0  0  0  0  0  0  0  0  0  0  0  # atno 17394 bound_to 11000
  141.1819  133.8395  157.1227 LP  0  0  0  0  0  0  0  0  0  0  0  0  # atno 17395 bound_to 11000

$$$$
