AV-unprocessed.smi:1034|AV-procd|sdf|4514|dock7
  -GOLD-   22720 2523D 1   1.00000     0.00000
 Structure written by MMmdl.
 39 40  0  0  0  0  0  0  0  0  1 V2000
  147.4910  133.0163  154.7772 O   0  0  0  0  0  0  0  0  0  0  0  0
  147.8112  133.8939  153.9751 C   0  0  0  0  0  0  0  0  0  0  0  0
  148.6614  134.8879  154.2690 N   0  0  0  0  0  0  0  0  0  0  0  0
  149.3327  135.0649  155.5511 C   0  0  0  0  0  0  0  0  0  0  0  0
  150.7024  135.7435  155.3846 C   0  0  0  0  0  0  0  0  0  0  0  0
  151.4842  136.1192  157.0167 S   0  0  0  0  0  0  0  0  0  0  0  0
  150.4522  136.0000  158.0581 O   0  0  0  0  0  0  0  0  0  0  0  0
  152.7322  135.3486  157.1337 O   0  0  0  0  0  0  0  0  0  0  0  0
  151.9193  137.8032  156.9031 N   0  0  0  0  0  0  0  0  0  0  0  0
  151.2438  138.8166  157.7416 C   0  0  0  0  0  0  0  0  0  0  0  0
  150.1445  139.5819  156.9870 C   0  0  0  0  0  0  0  0  0  0  0  0
  150.8086  140.4476  155.5422 S   0  0  0  0  0  0  0  0  0  0  0  0
  151.5802  139.0199  154.7417 C   0  0  0  0  0  0  0  0  0  0  0  0
  152.5720  138.3143  155.6820 C   0  0  0  0  0  0  0  0  0  0  0  0
  147.3698  133.9913  152.7086 N   0  0  0  0  0  0  0  0  0  0  0  0
  146.4764  133.1275  152.0209 C   0  0  0  0  0  0  0  0  0  0  0  0
  145.9512  133.6473  150.8162 C   0  0  0  0  0  0  0  0  0  0  0  0
  145.0585  132.8672  150.0561 C   0  0  0  0  0  0  0  0  0  0  0  0
  144.7119  131.5864  150.5216 C   0  0  0  0  0  0  0  0  0  0  0  0
  145.2779  131.1453  151.7320 C   0  0  0  0  0  0  0  0  0  0  0  0
  146.1348  131.8908  152.4614 N   0  0  0  0  0  0  0  0  0  0  0  0
  148.8681  135.5657  153.5498 H   0  0  0  0  0  0  0  0  0  0  0  0
  148.7010  135.6395  156.2308 H   0  0  0  0  0  0  0  0  0  0  0  0
  149.4525  134.0801  156.0013 H   0  0  0  0  0  0  0  0  0  0  0  0
  151.3843  135.1415  154.7900 H   0  0  0  0  0  0  0  0  0  0  0  0
  150.5761  136.6911  154.8605 H   0  0  0  0  0  0  0  0  0  0  0  0
  150.8254  138.3503  158.6325 H   0  0  0  0  0  0  0  0  0  0  0  0
  151.9945  139.5222  158.0994 H   0  0  0  0  0  0  0  0  0  0  0  0
  149.3446  138.9139  156.6738 H   0  0  0  0  0  0  0  0  0  0  0  0
  149.6889  140.3199  157.6473 H   0  0  0  0  0  0  0  0  0  0  0  0
  150.7989  138.3379  154.4107 H   0  0  0  0  0  0  0  0  0  0  0  0
  152.0966  139.3641  153.8456 H   0  0  0  0  0  0  0  0  0  0  0  0
  153.3607  139.0092  155.9722 H   0  0  0  0  0  0  0  0  0  0  0  0
  153.0654  137.4970  155.1564 H   0  0  0  0  0  0  0  0  0  0  0  0
  147.7215  134.7690  152.1700 H   0  0  0  0  0  0  0  0  0  0  0  0
  146.2284  134.6332  150.4720 H   0  0  0  0  0  0  0  0  0  0  0  0
  144.6481  133.2454  149.1316 H   0  0  0  0  0  0  0  0  0  0  0  0
  144.0308  130.9584  149.9665 H   0  0  0  0  0  0  0  0  0  0  0  0
  145.0376  130.1682  152.1244 H   0  0  0  0  0  0  0  0  0  0  0  0
  1  2  2  0  0  0  0
  2  3  1  0  0  0  0
  2 15  1  0  0  0  0
  3  4  1  0  0  0  0
  3 22  1  0  0  0  0
  4  5  1  0  0  0  0
  4 23  1  0  0  0  0
  4 24  1  0  0  0  0
  5  6  1  0  0  0  0
  5 25  1  0  0  0  0
  5 26  1  0  0  0  0
  6  7  2  0  0  0  0
  6  8  2  0  0  0  0
  6  9  1  0  0  0  0
  9 14  1  0  0  0  0
  9 10  1  0  0  0  0
 10 11  1  0  0  0  0
 10 27  1  0  0  0  0
 10 28  1  0  0  0  0
 11 12  1  0  0  0  0
 11 29  1  0  0  0  0
 11 30  1  0  0  0  0
 12 13  1  0  0  0  0
 13 14  1  0  0  0  0
 13 31  1  0  0  0  0
 13 32  1  0  0  0  0
 14 33  1  0  0  0  0
 14 34  1  0  0  0  0
 15 16  1  0  0  0  0
 15 35  1  0  0  0  0
 16 21  1  0  0  0  0
 16 17  2  0  0  0  0
 17 18  1  0  0  0  0
 17 36  1  0  0  0  0
 18 19  2  0  0  0  0
 18 37  1  0  0  0  0
 19 20  1  0  0  0  0
 19 38  1  0  0  0  0
 20 21  2  0  0  0  0
 20 39  1  0  0  0  0
M  END
> <s_m_source_file>
AV-unprocessed.smi

> <i_m_source_file_index>
1034

> <i_lp_mmshare_version>
43012

> <i_f3d_flags>
0

> <s_epik_input>
bjFbY0hdW2NIXVtjSF1bY0hdYzFbTkhdQyg9TylbTkhdW0NIMl1bQ0gyXVMoPU8pKD1PKU4yW0NIMl1bQ0gyXVNbQ0gyXVtDSDJdMg==

> <s_epik_cmdline>
J2VwaWtfcHl0aG9uJywgJy1waCcsICc3LjAnLCAnLXRuJywgJzgnLCAnLW1hJywgJzIwMCcsICctbWV0YWxfYmluZGluZycsICctaW1hZScsICc8aW5maWxlLm1hZT4nLCAnLW9tYWUnLCAnPG91dGZpbGUubWFlPic=

> <r_lp_tautomer_probability>
1

> <r_epik_Ionization_Penalty>
3.90463e-05

> <r_epik_Ionization_Penalty_Charging>
0

> <r_epik_Ionization_Penalty_Neutral>
3.90463e-05

> <r_epik_State_Penalty>
-0

> <r_epik_Charging_Adjusted_Penalty>
0

> <i_epik_Tot_Q>
0

> <i_epik_Tot_abs_Q>
0

> <r_epik_Metal_State_Penalty>
-0

> <b_epik_Metal_Only>
0

> <s_lp_Force_Field>
OPLS_2005

> <r_lp_Energy>
-0.604615

> <b_lp_Chiralities_Consistent>
1

> <s_lp_Variant>
AV-unprocessed.smi:1034-1

> <Gold.Version>
5.8.1

> <Gold.Id.Protein>
6NUR|6NUR_protein|mol2

> <Gold.PLP.Fitness>
43.4541

> <Gold.PLP.PLP>
-33.2542

> <Gold.PLP.part.hbond>
-4.1631

> <Gold.PLP.part.metal>
0.0000

> <Gold.PLP.part.buried>
-4.5792

> <Gold.PLP.part.nonpolar>
-24.6568

> <Gold.PLP.part.repulsive>
0.1656

> <Gold.PLP.ligand.clash>
0.0000

> <Gold.PLP.ligand.torsion>
1.4699

> <Gold.PLP.Chemscore.Hbond>
3.6720

> <Gold.PLP.Chemscore.CHOScore>
0.0000

> <Gold.PLP.Chemscore.Metal>
0.0000

> <Gold.Chemscore.Hbonds>
donor molecule, donor type, donor heavy atom, donor atom, acceptor molecule, acceptor atom, score
      L1  H     3    22       P1  7948  1.00
      L1  H    15    35       P1  7948  1.00
      P1  H  6896  6908       L1     7  0.70
      P1  H 10752 10763       L1     8  1.00

> <Gold.PLP.Chemscore.Internal.Correction>
2.1237

> <Gold.Rescore>
     Score         DG    S(hbond)    S(metal)    S(lipo)     H(rot)  DE(clash)    DE(int)     intcor
     18.38     -20.98       3.35        0.00      72.66       1.63       0.01       2.59       ----

> <Gold.Chemscore.Fitness>
18.3816

> <Gold.Chemscore.DG>
-20.9774

> <Gold.Chemscore.ZeroCoef>
-5.4800

> <Gold.Chemscore.Hbond>
3.3450

> <Gold.Chemscore.Metal>
0.0000

> <Gold.Chemscore.Lipo>
72.6600

> <Gold.Chemscore.Internal_Hbond>
0.0000

> <Gold.Chemscore.DEClash>
0.0058

> <Gold.Chemscore.DEInternal>
2.5900

> <Gold.Chemscore.Rot>
1.6313

> <Gold.Chemscore.Internal.Correction>
   9.000000E+99

> <Gold.Chemscore.Hbonds>
donor molecule, donor type, donor heavy atom, donor atom, acceptor molecule, acceptor atom, score
      L1  H     3    22       P1  7948  0.87
      L1  H    15    35       P1  7948  0.68
      P1  H  6896  6908       L1     7  0.62
      P1  H 10752 10763       L1     8  0.72

> <Gold.Chemscore.Hbond.Weighted>
-11.1723

> <Gold.Chemscore.Metal.Weighted>
-0.0000

> <Gold.Chemscore.Lipo.Weighted>
-8.5012

> <Gold.Chemscore.Internal_Hbond.Weighted>
0.0000

> <Gold.Chemscore.DEClash.Weighted>
0.0058

> <Gold.Chemscore.DEInternal.Weighted>
2.5900

> <Gold.Chemscore.Rot.Weighted>
4.1761

> <Gold.Chemscore.Internal.Correction.Weighted>
   9.000000E+99

> <Gold.Protein.RotatedTorsions>
[ 6907 6896 6895 6894 ] final  174.14 input  -60.11 | X-H torsion
[ 7974 7965 7964 7962 ] final  -84.98 input  175.53 | X-H torsion
[ 8008 7997 7996 7995 ] final  -76.11 input   59.86 | X-H torsion
[ 10167 10162 10161 10158 ] final -169.78 input  -65.29 | X-H torsion
[ 10718 10713 10712 10709 ] final  176.70 input   66.30 | X-H torsion
[ 10763 10752 10751 10750 ] final  128.56 input  -60.55 | X-H torsion
[ 11005 11000 10999 10996 ] final  146.05 input  -57.11 | X-H torsion

> <Gold.Protein.ActiveResidues>
 VAL166  LYS551  ARG553  GLY616  TRP617  ASP618  TYR619  PRO620  LYS621  CYS622 
 ASP623  PHE694  ASN695  SER759  ASP760  ASP761  ALA762  ILE779  LEU786  VAL792 
 PHE793  MET794  SER795  GLU796  ALA797  LYS798  CYS799  TRP800  GLU811  SER814 

> <Gold.Protein.RotatedAtoms>
  151.7571  133.3331  159.3407 H   0  0  0  0  0  0  0  0  0  0  0  0  # atno 6907 bound_to 6896
  150.7512  134.6139  159.6110 H   0  0  0  0  0  0  0  0  0  0  0  0  # atno 6908 bound_to 6896
  152.3430  134.7111  160.0310 H   0  0  0  0  0  0  0  0  0  0  0  0  # atno 6909 bound_to 6896
  145.4993  140.9548  143.1768 H   0  0  0  0  0  0  0  0  0  0  0  0  # atno 7974 bound_to 7965
  154.5476  140.0732  156.8615 H   0  0  0  0  0  0  0  0  0  0  0  0  # atno 8008 bound_to 7997
  155.3056  140.3387  155.4227 H   0  0  0  0  0  0  0  0  0  0  0  0  # atno 8009 bound_to 7997
  156.1932  140.1694  156.8036 H   0  0  0  0  0  0  0  0  0  0  0  0  # atno 8010 bound_to 7997
  139.5902  144.1231  152.1624 H   0  0  0  0  0  0  0  0  0  0  0  0  # atno 10167 bound_to 10162
  156.9163  130.9926  151.3012 H   0  0  0  0  0  0  0  0  0  0  0  0  # atno 10718 bound_to 10713
  153.7275  135.3244  155.3279 H   0  0  0  0  0  0  0  0  0  0  0  0  # atno 10763 bound_to 10752
  154.8336  135.4514  154.1155 H   0  0  0  0  0  0  0  0  0  0  0  0  # atno 10764 bound_to 10752
  153.2293  135.6958  153.7989 H   0  0  0  0  0  0  0  0  0  0  0  0  # atno 10765 bound_to 10752
  140.0762  134.9124  157.1426 H   0  0  0  0  0  0  0  0  0  0  0  0  # atno 11005 bound_to 11000
  144.7789  139.6569  143.7163 LP  0  0  0  0  0  0  0  0  0  0  0  0  # atno 17320 bound_to 7965
  146.2236  139.5681  142.9602 LP  0  0  0  0  0  0  0  0  0  0  0  0  # atno 17321 bound_to 7965
  140.0803  144.5706  150.7127 LP  0  0  0  0  0  0  0  0  0  0  0  0  # atno 17342 bound_to 10162
  140.7166  143.2550  151.4414 LP  0  0  0  0  0  0  0  0  0  0  0  0  # atno 17343 bound_to 10162
  157.5936  130.8461  149.8696 LP  0  0  0  0  0  0  0  0  0  0  0  0  # atno 17370 bound_to 10713
  156.0512  130.3717  150.1197 LP  0  0  0  0  0  0  0  0  0  0  0  0  # atno 17371 bound_to 10713
  140.3555  134.2552  155.7193 LP  0  0  0  0  0  0  0  0  0  0  0  0  # atno 17394 bound_to 11000
  141.2030  133.7923  157.0361 LP  0  0  0  0  0  0  0  0  0  0  0  0  # atno 17395 bound_to 11000

$$$$
