AV-unprocessed.smi:2309|AV-procd|sdf|9254|dock9
  -GOLD-   2272012473D 1   1.00000     0.00000
 Structure written by MMmdl.
 34 35  0  0  0  0  0  0  0  0  1 V2000
  151.0110  137.9360  154.1561 C   0  0  0  0  0  0  0  0  0  0  0  0
  150.6297  138.9925  155.1778 C   0  0  0  0  0  0  0  0  0  0  0  0
  151.3039  140.2120  155.0667 N   0  0  0  0  0  0  0  0  0  0  0  0
  151.0461  141.1694  155.8966 C   0  0  0  0  0  0  0  0  0  0  0  0
  150.0950  141.0233  156.9199 N   0  0  0  0  0  0  0  0  0  0  0  0
  149.9015  142.1876  157.8015 C   0  0  0  0  0  0  0  0  0  0  0  0
  151.1585  143.0832  157.8775 C   0  0  1  0  0  0  0  0  0  0  0  0
  150.7503  144.4358  157.7940 O   0  0  0  0  0  0  0  0  0  0  0  0
  151.9414  142.8089  159.1604 C   0  0  0  0  0  0  0  0  0  0  0  0
  152.6660  141.6012  159.2912 C   0  0  0  0  0  0  0  0  0  0  0  0
  153.4025  141.3273  160.4592 C   0  0  0  0  0  0  0  0  0  0  0  0
  154.2766  139.8468  160.6002 Cl  0  0  0  0  0  0  0  0  0  0  0  0
  153.4271  142.2624  161.5095 C   0  0  0  0  0  0  0  0  0  0  0  0
  152.7195  143.4718  161.3865 C   0  0  0  0  0  0  0  0  0  0  0  0
  151.9813  143.7524  160.2191 C   0  0  0  0  0  0  0  0  0  0  0  0
  151.1509  145.2660  160.1221 Cl  0  0  0  0  0  0  0  0  0  0  0  0
  149.3934  139.8668  157.0994 C   0  0  0  0  0  0  0  0  0  0  0  0
  148.5646  139.7464  158.0033 O   0  0  0  0  0  0  0  0  0  0  0  0
  149.6976  138.7860  156.1478 C   0  0  0  0  0  0  0  0  0  0  0  0
  148.9340  137.4789  156.3197 C   0  0  0  0  0  0  0  0  0  0  0  0
  150.1428  137.6466  153.5635 H   0  0  0  0  0  0  0  0  0  0  0  0
  151.4063  137.0495  154.6528 H   0  0  0  0  0  0  0  0  0  0  0  0
  151.7754  138.3037  153.4703 H   0  0  0  0  0  0  0  0  0  0  0  0
  151.5486  142.1373  155.8567 H   0  0  0  0  0  0  0  0  0  0  0  0
  149.0270  142.7791  157.5220 H   0  0  0  0  0  0  0  0  0  0  0  0
  149.6650  141.8178  158.8013 H   0  0  0  0  0  0  0  0  0  0  0  0
  151.8012  142.9077  157.0161 H   0  0  0  0  0  0  0  0  0  0  0  0
  150.1551  144.5246  157.0652 H   0  0  0  0  0  0  0  0  0  0  0  0
  152.6641  140.8762  158.4904 H   0  0  0  0  0  0  0  0  0  0  0  0
  153.9914  142.0564  162.4072 H   0  0  0  0  0  0  0  0  0  0  0  0
  152.7471  144.1905  162.1923 H   0  0  0  0  0  0  0  0  0  0  0  0
  149.1347  137.0537  157.3036 H   0  0  0  0  0  0  0  0  0  0  0  0
  149.1968  136.7266  155.5779 H   0  0  0  0  0  0  0  0  0  0  0  0
  147.8611  137.6563  156.2396 H   0  0  0  0  0  0  0  0  0  0  0  0
  1  2  1  0  0  0  0
  1 21  1  0  0  0  0
  1 22  1  0  0  0  0
  1 23  1  0  0  0  0
  2 19  2  0  0  0  0
  2  3  1  0  0  0  0
  3  4  2  0  0  0  0
  4  5  1  0  0  0  0
  4 24  1  0  0  0  0
  5  6  1  0  0  0  0
  5 17  1  0  0  0  0
  6  7  1  0  0  0  0
  6 25  1  0  0  0  0
  6 26  1  0  0  0  0
  7  8  1  0  0  0  0
  7  9  1  0  0  0  0
  7 27  1  0  0  0  0
  8 28  1  0  0  0  0
  9 15  1  0  0  0  0
  9 10  2  0  0  0  0
 10 11  1  0  0  0  0
 10 29  1  0  0  0  0
 11 12  1  0  0  0  0
 11 13  2  0  0  0  0
 13 14  1  0  0  0  0
 13 30  1  0  0  0  0
 14 15  2  0  0  0  0
 14 31  1  0  0  0  0
 15 16  1  0  0  0  0
 17 18  2  0  0  0  0
 17 19  1  0  0  0  0
 19 20  1  0  0  0  0
 20 32  1  0  0  0  0
 20 33  1  0  0  0  0
 20 34  1  0  0  0  0
M  END
> <s_m_source_file>
AV-unprocessed.smi

> <i_m_source_file_index>
2309

> <i_lp_mmshare_version>
43012

> <i_f3d_flags>
0

> <s_epik_input>
W0NIM11jMW5bY0hdbihjKD1PKWMxW0NIM10pW0NIMl1bQ0BIXShbT0hdKWMyW2NIXWMoQ2wpW2NIXVtjSF1jMkNs

> <s_epik_cmdline>
J2VwaWtfcHl0aG9uJywgJy1waCcsICc3LjAnLCAnLXRuJywgJzgnLCAnLW1hJywgJzIwMCcsICctbWV0YWxfYmluZGluZycsICctaW1hZScsICc8aW5maWxlLm1hZT4nLCAnLW9tYWUnLCAnPG91dGZpbGUubWFlPic=

> <r_lp_tautomer_probability>
1

> <r_epik_Ionization_Penalty>
5.09224e-05

> <r_epik_Ionization_Penalty_Charging>
7.56727e-08

> <r_epik_Ionization_Penalty_Neutral>
5.08468e-05

> <r_epik_State_Penalty>
-0

> <r_epik_Charging_Adjusted_Penalty>
7.56727e-08

> <i_epik_Tot_Q>
0

> <i_epik_Tot_abs_Q>
0

> <r_epik_Metal_State_Penalty>
-0

> <b_epik_Metal_Only>
0

> <s_lp_Force_Field>
OPLS_2005

> <r_lp_Energy>
18.7705

> <b_lp_Chiralities_Consistent>
1

> <s_lp_Variant>
AV-unprocessed.smi:2309-2

> <Gold.Version>
5.8.1

> <Gold.Id.Protein>
6NUR|6NUR_protein|mol2

> <Gold.PLP.Fitness>
47.9753

> <Gold.PLP.PLP>
-44.4001

> <Gold.PLP.part.hbond>
-2.8117

> <Gold.PLP.part.metal>
0.0000

> <Gold.PLP.part.buried>
-6.7089

> <Gold.PLP.part.nonpolar>
-34.6075

> <Gold.PLP.part.repulsive>
0.0413

> <Gold.PLP.ligand.clash>
0.0000

> <Gold.PLP.ligand.torsion>
1.2168

> <Gold.PLP.Chemscore.Hbond>
2.0000

> <Gold.PLP.Chemscore.CHOScore>
0.0000

> <Gold.PLP.Chemscore.Metal>
0.0000

> <Gold.Chemscore.Hbonds>
donor molecule, donor type, donor heavy atom, donor atom, acceptor molecule, acceptor atom, score
      L1  H     8    28       P1  8028  1.00
      P1  H  7989  7998       L1     3  1.00

> <Gold.PLP.Chemscore.Internal.Correction>
0.0088

> <Gold.Rescore>
     Score         DG    S(hbond)    S(metal)    S(lipo)     H(rot)  DE(clash)    DE(int)     intcor
     17.30     -20.55       1.79        0.00     119.78       1.93       0.06       3.19       ----

> <Gold.Chemscore.Fitness>
17.3024

> <Gold.Chemscore.DG>
-20.5539

> <Gold.Chemscore.ZeroCoef>
-5.4800

> <Gold.Chemscore.Hbond>
1.7938

> <Gold.Chemscore.Metal>
0.0000

> <Gold.Chemscore.Lipo>
119.7791

> <Gold.Chemscore.Internal_Hbond>
0.0000

> <Gold.Chemscore.DEClash>
0.0596

> <Gold.Chemscore.DEInternal>
3.1919

> <Gold.Chemscore.Rot>
1.9265

> <Gold.Chemscore.Internal.Correction>
   9.000000E+99

> <Gold.Chemscore.Hbonds>
donor molecule, donor type, donor heavy atom, donor atom, acceptor molecule, acceptor atom, score
      L1  H     8    28       P1  8028  0.60
      P1  H  7989  7998       L1     3  0.67

> <Gold.Chemscore.Hbond.Weighted>
-5.9914

> <Gold.Chemscore.Metal.Weighted>
-0.0000

> <Gold.Chemscore.Lipo.Weighted>
-14.0141

> <Gold.Chemscore.Internal_Hbond.Weighted>
0.0000

> <Gold.Chemscore.DEClash.Weighted>
0.0596

> <Gold.Chemscore.DEInternal.Weighted>
3.1919

> <Gold.Chemscore.Rot.Weighted>
4.9317

> <Gold.Chemscore.Internal.Correction.Weighted>
   9.000000E+99

> <Gold.Protein.RotatedTorsions>
[ 6907 6896 6895 6894 ] final -101.70 input  -60.11 | X-H torsion
[ 7974 7965 7964 7962 ] final  177.92 input  175.53 | X-H torsion
[ 8008 7997 7996 7995 ] final  159.02 input   59.86 | X-H torsion
[ 10167 10162 10161 10158 ] final  -78.87 input  -65.29 | X-H torsion
[ 10718 10713 10712 10709 ] final   84.59 input   66.30 | X-H torsion
[ 10763 10752 10751 10750 ] final  -56.17 input  -60.55 | X-H torsion
[ 11005 11000 10999 10996 ] final   -4.07 input  -57.11 | X-H torsion

> <Gold.Protein.ActiveResidues>
 VAL166  LYS551  ARG553  GLY616  TRP617  ASP618  TYR619  PRO620  LYS621  CYS622 
 ASP623  PHE694  ASN695  SER759  ASP760  ASP761  ALA762  ILE779  LEU786  VAL792 
 PHE793  MET794  SER795  GLU796  ALA797  LYS798  CYS799  TRP800  GLU811  SER814 

> <Gold.Protein.RotatedAtoms>
  150.7165  134.0694  159.3858 H   0  0  0  0  0  0  0  0  0  0  0  0  # atno 6907 bound_to 6896
  151.8675  135.0499  160.0485 H   0  0  0  0  0  0  0  0  0  0  0  0  # atno 6908 bound_to 6896
  152.2669  133.5311  159.5452 H   0  0  0  0  0  0  0  0  0  0  0  0  # atno 6909 bound_to 6896
  144.7162  140.0319  143.6439 H   0  0  0  0  0  0  0  0  0  0  0  0  # atno 7974 bound_to 7965
  156.2266  140.1842  156.7349 H   0  0  0  0  0  0  0  0  0  0  0  0  # atno 8008 bound_to 7997
  154.5951  140.0644  156.9320 H   0  0  0  0  0  0  0  0  0  0  0  0  # atno 8009 bound_to 7997
  155.2270  140.3312  155.4310 H   0  0  0  0  0  0  0  0  0  0  0  0  # atno 8010 bound_to 7997
  140.4644  143.2444  151.8300 H   0  0  0  0  0  0  0  0  0  0  0  0  # atno 10167 bound_to 10162
  157.6900  131.0139  150.2695 H   0  0  0  0  0  0  0  0  0  0  0  0  # atno 10718 bound_to 10713
  154.2024  135.6409  153.5091 H   0  0  0  0  0  0  0  0  0  0  0  0  # atno 10763 bound_to 10752
  153.0009  135.5454  154.6302 H   0  0  0  0  0  0  0  0  0  0  0  0  # atno 10764 bound_to 10752
  154.5718  135.2917  155.0793 H   0  0  0  0  0  0  0  0  0  0  0  0  # atno 10765 bound_to 10752
  140.6762  133.9193  155.8526 H   0  0  0  0  0  0  0  0  0  0  0  0  # atno 11005 bound_to 11000
  146.0095  139.3158  143.0879 LP  0  0  0  0  0  0  0  0  0  0  0  0  # atno 17320 bound_to 7965
  145.8699  140.9426  143.0656 LP  0  0  0  0  0  0  0  0  0  0  0  0  # atno 17321 bound_to 7965
  139.4810  144.4968  151.9112 LP  0  0  0  0  0  0  0  0  0  0  0  0  # atno 17342 bound_to 10162
  140.4054  144.2439  150.5891 LP  0  0  0  0  0  0  0  0  0  0  0  0  # atno 17343 bound_to 10162
  156.3260  130.3793  149.7532 LP  0  0  0  0  0  0  0  0  0  0  0  0  # atno 17370 bound_to 10713
  156.5087  130.8162  151.3160 LP  0  0  0  0  0  0  0  0  0  0  0  0  # atno 17371 bound_to 10713
  141.0353  134.0698  157.3966 LP  0  0  0  0  0  0  0  0  0  0  0  0  # atno 17394 bound_to 11000
  139.8966  135.0146  156.7059 LP  0  0  0  0  0  0  0  0  0  0  0  0  # atno 17395 bound_to 11000

$$$$
