AV-unprocessed.smi:202|AV-procd|sdf|1581|dock3
  -GOLD-   2262019473D 1   1.00000     0.00000
 Structure written by MMmdl.
 49 52  0  0  0  0  0  0  0  0  1 V2000
  146.9189  135.4768  163.0095 C   0  0  0  0  0  0  0  0  0  0  0  0
  146.7267  135.0929  161.5352 C   0  0  0  0  0  0  0  0  0  0  0  0
  145.4855  134.1852  161.4211 C   0  0  0  0  0  0  0  0  0  0  0  0
  144.1748  134.7292  162.0294 C   0  0  0  0  0  0  0  0  0  0  0  0
  143.1514  134.2306  161.3369 F   0  0  0  0  0  0  0  0  0  0  0  0
  144.0401  134.3522  163.3002 F   0  0  0  0  0  0  0  0  0  0  0  0
  144.1098  136.0577  161.9563 F   0  0  0  0  0  0  0  0  0  0  0  0
  146.7579  136.2761  160.5525 C   0  0  0  0  0  0  0  0  0  0  0  0
  148.1692  135.9933  160.3453 N   0  0  0  0  0  0  0  0  0  0  0  0
  148.6016  136.1654  159.0021 C   0  0  0  0  0  0  0  0  0  0  0  0
  149.2720  135.1835  158.3390 N   0  0  0  0  0  0  0  0  0  0  0  0
  149.6671  135.3572  157.0744 C   0  0  0  0  0  0  0  0  0  0  0  0
  149.4959  136.4192  156.2865 N   0  0  0  0  0  0  0  0  0  0  0  0
  148.8183  137.4072  156.9361 C   0  0  0  0  0  0  0  0  0  0  0  0
  148.3435  137.3603  158.2774 C   0  0  0  0  0  0  0  0  0  0  0  0
  147.7019  138.5503  158.5950 N   0  0  0  0  0  0  0  0  0  0  0  0
  147.7906  139.2603  157.5034 C   0  0  0  0  0  0  0  0  0  0  0  0
  148.4385  138.6478  156.4539 N   0  0  0  0  0  0  0  0  0  0  0  0
  148.6777  139.2080  155.1318 C   0  0  0  0  0  0  0  0  0  0  0  0
  150.0525  139.9150  154.9803 C   0  0  0  0  0  0  0  0  0  0  0  0
  149.9653  140.7837  153.8654 O   0  0  0  0  0  0  0  0  0  0  0  0
  150.3856  140.7829  156.2103 C   0  0  0  0  0  0  0  0  0  0  0  0
  150.8133  139.9221  157.4131 C   0  0  0  0  0  0  0  0  0  0  0  0
  151.9164  139.0975  157.0537 O   0  0  0  0  0  0  0  0  0  0  0  0
  151.6108  138.1817  156.0078 C   0  0  0  0  0  0  0  0  0  0  0  0
  151.2330  138.9518  154.7298 C   0  0  0  0  0  0  0  0  0  0  0  0
  147.9928  134.6205  160.7998 C   0  0  0  0  0  0  0  0  0  0  0  0
  145.9826  135.7801  163.4791 H   0  0  0  0  0  0  0  0  0  0  0  0
  147.6125  136.3115  163.1168 H   0  0  0  0  0  0  0  0  0  0  0  0
  147.3357  134.6549  163.5906 H   0  0  0  0  0  0  0  0  0  0  0  0
  145.3094  133.9270  160.3760 H   0  0  0  0  0  0  0  0  0  0  0  0
  145.7002  133.2343  161.9106 H   0  0  0  0  0  0  0  0  0  0  0  0
  146.1474  136.1206  159.6610 H   0  0  0  0  0  0  0  0  0  0  0  0
  146.5705  137.2486  161.0083 H   0  0  0  0  0  0  0  0  0  0  0  0
  150.1941  134.5257  156.6301 H   0  0  0  0  0  0  0  0  0  0  0  0
  147.3788  140.2565  157.4314 H   0  0  0  0  0  0  0  0  0  0  0  0
  148.5921  138.3986  154.4056 H   0  0  0  0  0  0  0  0  0  0  0  0
  147.8621  139.8945  154.9063 H   0  0  0  0  0  0  0  0  0  0  0  0
  149.6640  140.2866  153.1204 H   0  0  0  0  0  0  0  0  0  0  0  0
  151.2054  141.4618  155.9698 H   0  0  0  0  0  0  0  0  0  0  0  0
  149.5368  141.4128  156.4796 H   0  0  0  0  0  0  0  0  0  0  0  0
  151.1140  140.5643  158.2409 H   0  0  0  0  0  0  0  0  0  0  0  0
  149.9892  139.3083  157.7784 H   0  0  0  0  0  0  0  0  0  0  0  0
  152.4864  137.5597  155.8215 H   0  0  0  0  0  0  0  0  0  0  0  0
  150.8106  137.5112  156.3213 H   0  0  0  0  0  0  0  0  0  0  0  0
  151.0179  138.2582  153.9169 H   0  0  0  0  0  0  0  0  0  0  0  0
  152.1063  139.5223  154.4097 H   0  0  0  0  0  0  0  0  0  0  0  0
  148.7902  134.2751  161.4583 H   0  0  0  0  0  0  0  0  0  0  0  0
  147.7837  133.9015  160.0069 H   0  0  0  0  0  0  0  0  0  0  0  0
  1  2  1  0  0  0  0
  1 28  1  0  0  0  0
  1 29  1  0  0  0  0
  1 30  1  0  0  0  0
  2 27  1  0  0  0  0
  2  3  1  0  0  0  0
  2  8  1  0  0  0  0
  3  4  1  0  0  0  0
  3 31  1  0  0  0  0
  3 32  1  0  0  0  0
  4  5  1  0  0  0  0
  4  6  1  0  0  0  0
  4  7  1  0  0  0  0
  8  9  1  0  0  0  0
  8 33  1  0  0  0  0
  8 34  1  0  0  0  0
  9 10  1  0  0  0  0
  9 27  1  0  0  0  0
 10 15  1  0  0  0  0
 10 11  2  0  0  0  0
 11 12  1  0  0  0  0
 12 13  2  0  0  0  0
 12 35  1  0  0  0  0
 13 14  1  0  0  0  0
 14 18  1  0  0  0  0
 14 15  2  0  0  0  0
 15 16  1  0  0  0  0
 16 17  2  0  0  0  0
 17 18  1  0  0  0  0
 17 36  1  0  0  0  0
 18 19  1  0  0  0  0
 19 20  1  0  0  0  0
 19 37  1  0  0  0  0
 19 38  1  0  0  0  0
 20 26  1  0  0  0  0
 20 21  1  0  0  0  0
 20 22  1  0  0  0  0
 21 39  1  0  0  0  0
 22 23  1  0  0  0  0
 22 40  1  0  0  0  0
 22 41  1  0  0  0  0
 23 24  1  0  0  0  0
 23 42  1  0  0  0  0
 23 43  1  0  0  0  0
 24 25  1  0  0  0  0
 25 26  1  0  0  0  0
 25 44  1  0  0  0  0
 25 45  1  0  0  0  0
 26 46  1  0  0  0  0
 26 47  1  0  0  0  0
 27 48  1  0  0  0  0
 27 49  1  0  0  0  0
M  END
> <s_m_source_file>
AV-unprocessed.smi

> <i_m_source_file_index>
202

> <i_lp_mmshare_version>
43012

> <i_f3d_flags>
0

> <s_epik_input>
RkMoRikoRilbQ0gyXUMxKFtDSDNdKVtDSDJdTihbQ0gyXTEpYyhuW2NIXW4yKWMoYzIzKW5bY0hdbjNbQ0gyXUM0KFtPSF0pW0NIMl1bQ0gyXU9bQ0gyXVtDSDJdNA==

> <s_epik_cmdline>
J2VwaWtfcHl0aG9uJywgJy1waCcsICc3LjAnLCAnLXRuJywgJzgnLCAnLW1hJywgJzIwMCcsICctbWV0YWxfYmluZGluZycsICctaW1hZScsICc8aW5maWxlLm1hZT4nLCAnLW9tYWUnLCAnPG91dGZpbGUubWFlPic=

> <r_lp_tautomer_probability>
1

> <r_epik_Ionization_Penalty>
0.00132063

> <r_epik_Ionization_Penalty_Charging>
0

> <r_epik_Ionization_Penalty_Neutral>
0.00132063

> <r_epik_State_Penalty>
0.000845314

> <r_epik_Charging_Adjusted_Penalty>
0.000845314

> <i_epik_Tot_Q>
0

> <i_epik_Tot_abs_Q>
0

> <r_epik_Metal_State_Penalty>
-0

> <b_epik_Metal_Only>
0

> <s_lp_Force_Field>
OPLS_2005

> <r_lp_Energy>
42.0456

> <b_lp_Chiralities_Consistent>
1

> <s_lp_Variant>
AV-unprocessed.smi:202-1

> <Gold.Version>
5.8.1

> <Gold.Id.Protein>
6NUR|6NUR_protein|mol2

> <Gold.PLP.Fitness>
39.5322

> <Gold.PLP.PLP>
-33.7768

> <Gold.PLP.part.hbond>
-3.6789

> <Gold.PLP.part.metal>
0.0000

> <Gold.PLP.part.buried>
-5.4245

> <Gold.PLP.part.nonpolar>
-24.1615

> <Gold.PLP.part.repulsive>
0.0276

> <Gold.PLP.ligand.clash>
0.0000

> <Gold.PLP.ligand.torsion>
1.6640

> <Gold.PLP.Chemscore.Hbond>
2.5528

> <Gold.PLP.Chemscore.CHOScore>
0.0000

> <Gold.PLP.Chemscore.Metal>
0.0000

> <Gold.Chemscore.Hbonds>
donor molecule, donor type, donor heavy atom, donor atom, acceptor molecule, acceptor atom, score
      L1  H    21    39       P1  7957  0.98
      P1  H  6896  6909       L1    11  0.98
      P1  H  6934  6947       L1    16  0.01
      P1  H  7989  7998       L1    21  0.50

> <Gold.PLP.Chemscore.Internal.Correction>
1.4251

> <Gold.Rescore>
     Score         DG    S(hbond)    S(metal)    S(lipo)     H(rot)  DE(clash)    DE(int)     intcor
      8.10     -13.95       1.77        0.00      78.52       2.58       0.11       5.74       ----

> <Gold.Chemscore.Fitness>
8.1043

> <Gold.Chemscore.DG>
-13.9512

> <Gold.Chemscore.ZeroCoef>
-5.4800

> <Gold.Chemscore.Hbond>
1.7668

> <Gold.Chemscore.Metal>
0.0000

> <Gold.Chemscore.Lipo>
78.5159

> <Gold.Chemscore.Internal_Hbond>
0.0000

> <Gold.Chemscore.DEClash>
0.1105

> <Gold.Chemscore.DEInternal>
5.7364

> <Gold.Chemscore.Rot>
2.5845

> <Gold.Chemscore.Internal.Correction>
   9.000000E+99

> <Gold.Chemscore.Hbonds>
donor molecule, donor type, donor heavy atom, donor atom, acceptor molecule, acceptor atom, score
      L1  H    21    39       P1  7957  0.90
      P1  H  6896  6909       L1    11  0.62
      P1  H  6934  6947       L1    16  0.02
      P1  H  7989  7998       L1    21  0.03

> <Gold.Chemscore.Hbond.Weighted>
-5.9011

> <Gold.Chemscore.Metal.Weighted>
-0.0000

> <Gold.Chemscore.Lipo.Weighted>
-9.1864

> <Gold.Chemscore.Internal_Hbond.Weighted>
0.0000

> <Gold.Chemscore.DEClash.Weighted>
0.1105

> <Gold.Chemscore.DEInternal.Weighted>
5.7364

> <Gold.Chemscore.Rot.Weighted>
6.6163

> <Gold.Chemscore.Internal.Correction.Weighted>
   9.000000E+99

> <Gold.Protein.RotatedTorsions>
[ 6907 6896 6895 6894 ] final   19.96 input  -60.11 | X-H torsion
[ 7974 7965 7964 7962 ] final  -43.35 input  175.53 | X-H torsion
[ 8008 7997 7996 7995 ] final    2.14 input   59.86 | X-H torsion
[ 10167 10162 10161 10158 ] final -139.97 input  -65.29 | X-H torsion
[ 10718 10713 10712 10709 ] final  -30.46 input   66.30 | X-H torsion
[ 10763 10752 10751 10750 ] final  133.10 input  -60.55 | X-H torsion
[ 11005 11000 10999 10996 ] final  141.85 input  -57.11 | X-H torsion

> <Gold.Protein.ActiveResidues>
 VAL166  LYS551  ARG553  GLY616  TRP617  ASP618  TYR619  PRO620  LYS621  CYS622 
 ASP623  PHE694  ASN695  SER759  ASP760  ASP761  ALA762  ILE779  LEU786  VAL792 
 PHE793  MET794  SER795  GLU796  ALA797  LYS798  CYS799  TRP800  GLU811  SER814 

> <Gold.Protein.RotatedAtoms>
  151.8889  135.0424  160.0495 H   0  0  0  0  0  0  0  0  0  0  0  0  # atno 6907 bound_to 6896
  152.2452  133.5164  159.5301 H   0  0  0  0  0  0  0  0  0  0  0  0  # atno 6908 bound_to 6896
  150.7066  134.0951  159.3988 H   0  0  0  0  0  0  0  0  0  0  0  0  # atno 6909 bound_to 6896
  146.0028  140.7055  142.9262 H   0  0  0  0  0  0  0  0  0  0  0  0  # atno 7974 bound_to 7965
  154.6880  140.2647  155.6841 H   0  0  0  0  0  0  0  0  0  0  0  0  # atno 8008 bound_to 7997
  156.2722  140.2797  156.1372 H   0  0  0  0  0  0  0  0  0  0  0  0  # atno 8009 bound_to 7997
  155.0936  140.0373  157.2666 H   0  0  0  0  0  0  0  0  0  0  0  0  # atno 8010 bound_to 7997
  139.8327  143.7426  152.2665 H   0  0  0  0  0  0  0  0  0  0  0  0  # atno 10167 bound_to 10162
  156.3995  130.4387  149.7333 H   0  0  0  0  0  0  0  0  0  0  0  0  # atno 10718 bound_to 10713
  153.8016  135.3141  155.3391 H   0  0  0  0  0  0  0  0  0  0  0  0  # atno 10763 bound_to 10752
  154.8086  135.4681  154.0461 H   0  0  0  0  0  0  0  0  0  0  0  0  # atno 10764 bound_to 10752
  153.1811  135.6893  153.8565 H   0  0  0  0  0  0  0  0  0  0  0  0  # atno 10765 bound_to 10752
  140.0432  134.9294  157.0882 H   0  0  0  0  0  0  0  0  0  0  0  0  # atno 11005 bound_to 11000
  144.6925  140.3262  143.7224 LP  0  0  0  0  0  0  0  0  0  0  0  0  # atno 17320 bound_to 7965
  145.7462  139.1779  143.2348 LP  0  0  0  0  0  0  0  0  0  0  0  0  # atno 17321 bound_to 7965
  139.7638  144.7498  151.0324 LP  0  0  0  0  0  0  0  0  0  0  0  0  # atno 17342 bound_to 10162
  140.7805  143.4721  151.0132 LP  0  0  0  0  0  0  0  0  0  0  0  0  # atno 17343 bound_to 10162
  156.4355  130.7836  151.2856 LP  0  0  0  0  0  0  0  0  0  0  0  0  # atno 17370 bound_to 10713
  157.7503  131.0141  150.3450 LP  0  0  0  0  0  0  0  0  0  0  0  0  # atno 17371 bound_to 10713
  140.4035  134.2057  155.7163 LP  0  0  0  0  0  0  0  0  0  0  0  0  # atno 17394 bound_to 11000
  141.1894  133.8240  157.0959 LP  0  0  0  0  0  0  0  0  0  0  0  0  # atno 17395 bound_to 11000

$$$$
