AV-unprocessed.smi:692|AV-procd|sdf|3369|dock3
  -GOLD-   22720 0343D 1   1.00000     0.00000
 Structure written by MMmdl.
 37 38  0  0  0  0  0  0  0  0  1 V2000
  145.8966  143.5823  153.4613 C   0  0  0  0  0  0  0  0  0  0  0  0
  145.6877  142.3598  154.3620 C   0  0  0  0  0  0  0  0  0  0  0  0
  146.7418  141.3142  154.1579 C   0  0  0  0  0  0  0  0  0  0  0  0
  148.0922  141.4510  154.3694 C   0  0  0  0  0  0  0  0  0  0  0  0
  148.9639  139.9867  154.0010 S   0  0  0  0  0  0  0  0  0  0  0  0
  147.4369  139.2317  153.5731 C   0  0  0  0  0  0  0  0  0  0  0  0
  147.3616  137.8888  153.1195 N   0  0  0  0  0  0  0  0  0  0  0  0
  146.2634  137.1310  152.9532 C   0  0  0  0  0  0  0  0  0  0  0  0
  145.1143  137.4726  153.2348 O   0  0  0  0  0  0  0  0  0  0  0  0
  146.5724  135.9307  152.4416 N   0  0  0  0  0  0  0  0  0  0  0  0
  145.6084  134.8790  152.1321 C   0  0  1  0  0  0  0  0  0  0  0  0
  145.0053  135.1121  150.7462 C   0  0  0  0  0  0  0  0  0  0  0  0
  143.9512  134.0412  150.4406 C   0  0  0  0  0  0  0  0  0  0  0  0
  144.4235  132.6095  150.7387 C   0  0  0  0  0  0  0  0  0  0  0  0
  143.8139  131.6767  150.2146 O   0  0  0  0  0  0  0  0  0  0  0  0
  145.4649  132.4155  151.5843 N   0  0  0  0  0  0  0  0  0  0  0  0
  145.9104  131.0596  151.9097 C   0  0  0  0  0  0  0  0  0  0  0  0
  146.2735  133.4903  152.1811 C   0  0  0  0  0  0  0  0  0  0  0  0
  146.3810  140.0427  153.7017 N   0  0  0  0  0  0  0  0  0  0  0  0
  145.1155  144.3243  153.6267 H   0  0  0  0  0  0  0  0  0  0  0  0
  145.8744  143.3027  152.4078 H   0  0  0  0  0  0  0  0  0  0  0  0
  146.8563  144.0599  153.6616 H   0  0  0  0  0  0  0  0  0  0  0  0
  145.6764  142.6788  155.4048 H   0  0  0  0  0  0  0  0  0  0  0  0
  144.7010  141.9382  154.1687 H   0  0  0  0  0  0  0  0  0  0  0  0
  148.6256  142.3232  154.7172 H   0  0  0  0  0  0  0  0  0  0  0  0
  148.2442  137.4617  152.8805 H   0  0  0  0  0  0  0  0  0  0  0  0
  147.5422  135.7322  152.2436 H   0  0  0  0  0  0  0  0  0  0  0  0
  144.7962  134.9112  152.8616 H   0  0  0  0  0  0  0  0  0  0  0  0
  144.5468  136.1006  150.6947 H   0  0  0  0  0  0  0  0  0  0  0  0
  145.7870  135.0906  149.9852 H   0  0  0  0  0  0  0  0  0  0  0  0
  143.0612  134.2259  151.0435 H   0  0  0  0  0  0  0  0  0  0  0  0
  143.6408  134.1122  149.3976 H   0  0  0  0  0  0  0  0  0  0  0  0
  145.1392  130.5302  152.4707 H   0  0  0  0  0  0  0  0  0  0  0  0
  146.8187  131.0586  152.5137 H   0  0  0  0  0  0  0  0  0  0  0  0
  146.1244  130.4919  151.0027 H   0  0  0  0  0  0  0  0  0  0  0  0
  147.2230  133.5181  151.6438 H   0  0  0  0  0  0  0  0  0  0  0  0
  146.5104  133.2423  153.2171 H   0  0  0  0  0  0  0  0  0  0  0  0
  1  2  1  0  0  0  0
  1 20  1  0  0  0  0
  1 21  1  0  0  0  0
  1 22  1  0  0  0  0
  2  3  1  0  0  0  0
  2 23  1  0  0  0  0
  2 24  1  0  0  0  0
  3 19  1  0  0  0  0
  3  4  2  0  0  0  0
  4  5  1  0  0  0  0
  4 25  1  0  0  0  0
  5  6  1  0  0  0  0
  6  7  1  0  0  0  0
  6 19  2  0  0  0  0
  7  8  1  0  0  0  0
  7 26  1  0  0  0  0
  8  9  2  0  0  0  0
  8 10  1  0  0  0  0
 10 11  1  0  0  0  0
 10 27  1  0  0  0  0
 11 18  1  0  0  0  0
 11 12  1  0  0  0  0
 11 28  1  0  0  0  0
 12 13  1  0  0  0  0
 12 29  1  0  0  0  0
 12 30  1  0  0  0  0
 13 14  1  0  0  0  0
 13 31  1  0  0  0  0
 13 32  1  0  0  0  0
 14 15  2  0  0  0  0
 14 16  1  0  0  0  0
 16 17  1  0  0  0  0
 16 18  1  0  0  0  0
 17 33  1  0  0  0  0
 17 34  1  0  0  0  0
 17 35  1  0  0  0  0
 18 36  1  0  0  0  0
 18 37  1  0  0  0  0
M  END
> <s_m_source_file>
AV-unprocessed.smi

> <i_m_source_file_index>
692

> <i_lp_mmshare_version>
43012

> <i_f3d_flags>
0

> <s_epik_input>
W0NIM11bQ0gyXWMxW2NIXXNjKG4xKVtOSF1DKD1PKVtOSF1bQ0BASF0yW0NIMl1bQ0gyXUMoPU8pTihbQ0gzXSlbQ0gyXTI=

> <s_epik_cmdline>
J2VwaWtfcHl0aG9uJywgJy1waCcsICc3LjAnLCAnLXRuJywgJzgnLCAnLW1hJywgJzIwMCcsICctbWV0YWxfYmluZGluZycsICctaW1hZScsICc8aW5maWxlLm1hZT4nLCAnLW9tYWUnLCAnPG91dGZpbGUubWFlPic=

> <r_lp_tautomer_probability>
1

> <r_epik_Ionization_Penalty>
0.000165573

> <r_epik_Ionization_Penalty_Charging>
0

> <r_epik_Ionization_Penalty_Neutral>
0.000165573

> <r_epik_State_Penalty>
-0

> <r_epik_Charging_Adjusted_Penalty>
0

> <i_epik_Tot_Q>
0

> <i_epik_Tot_abs_Q>
0

> <r_epik_Metal_State_Penalty>
0.031163

> <b_epik_Metal_Only>
0

> <s_lp_Force_Field>
OPLS_2005

> <r_lp_Energy>
8.08007

> <b_lp_Chiralities_Consistent>
1

> <s_lp_Variant>
AV-unprocessed.smi:692-2

> <Gold.Version>
5.8.1

> <Gold.Id.Protein>
6NUR|6NUR_protein|mol2

> <Gold.PLP.Fitness>
40.3570

> <Gold.PLP.PLP>
-31.4806

> <Gold.PLP.part.hbond>
-2.6654

> <Gold.PLP.part.metal>
0.0000

> <Gold.PLP.part.buried>
-3.6409

> <Gold.PLP.part.nonpolar>
-27.5515

> <Gold.PLP.part.repulsive>
0.7296

> <Gold.PLP.ligand.clash>
0.0000

> <Gold.PLP.ligand.torsion>
0.3807

> <Gold.PLP.Chemscore.Hbond>
2.3513

> <Gold.PLP.Chemscore.CHOScore>
0.8606

> <Gold.PLP.Chemscore.Metal>
0.0000

> <Gold.Chemscore.Hbonds>
donor molecule, donor type, donor heavy atom, donor atom, acceptor molecule, acceptor atom, score
      L1  H     7    26       P1  7948  0.85
      L1  H    10    27       P1  7948  0.98
      P1  H 10785 10796       L1    15  0.45
      L1  C     4    25       P1  8028  0.90

> <Gold.PLP.Chemscore.Internal.Correction>
0.0021

> <Gold.Rescore>
     Score         DG    S(hbond)    S(metal)    S(lipo)     H(rot)  DE(clash)    DE(int)     intcor
     15.86     -17.69       2.65        0.00      55.93       1.24       0.16       1.67       ----

> <Gold.Chemscore.Fitness>
15.8579

> <Gold.Chemscore.DG>
-17.6882

> <Gold.Chemscore.ZeroCoef>
-5.4800

> <Gold.Chemscore.Hbond>
2.6452

> <Gold.Chemscore.Metal>
0.0000

> <Gold.Chemscore.Lipo>
55.9338

> <Gold.Chemscore.Internal_Hbond>
0.0000

> <Gold.Chemscore.DEClash>
0.1606

> <Gold.Chemscore.DEInternal>
1.6697

> <Gold.Chemscore.Rot>
1.2386

> <Gold.Chemscore.Internal.Correction>
   9.000000E+99

> <Gold.Chemscore.Hbonds>
donor molecule, donor type, donor heavy atom, donor atom, acceptor molecule, acceptor atom, score
      L1  H     7    26       P1  7948  0.85
      L1  H    10    27       P1  7948  0.88
      P1  H 10785 10796       L1    15  0.46

> <Gold.Chemscore.Hbond.Weighted>
-8.8348

> <Gold.Chemscore.Metal.Weighted>
-0.0000

> <Gold.Chemscore.Lipo.Weighted>
-6.5443

> <Gold.Chemscore.Internal_Hbond.Weighted>
0.0000

> <Gold.Chemscore.DEClash.Weighted>
0.1606

> <Gold.Chemscore.DEInternal.Weighted>
1.6697

> <Gold.Chemscore.Rot.Weighted>
3.1708

> <Gold.Chemscore.Internal.Correction.Weighted>
   9.000000E+99

> <Gold.Protein.RotatedTorsions>
[ 6907 6896 6895 6894 ] final -143.57 input  -60.11 | X-H torsion
[ 7974 7965 7964 7962 ] final   -8.24 input  175.53 | X-H torsion
[ 8008 7997 7996 7995 ] final  165.34 input   59.86 | X-H torsion
[ 10167 10162 10161 10158 ] final  104.94 input  -65.29 | X-H torsion
[ 10718 10713 10712 10709 ] final  -45.54 input   66.30 | X-H torsion
[ 10763 10752 10751 10750 ] final  175.89 input  -60.55 | X-H torsion
[ 11005 11000 10999 10996 ] final   94.33 input  -57.11 | X-H torsion

> <Gold.Protein.ActiveResidues>
 VAL166  LYS551  ARG553  GLY616  TRP617  ASP618  TYR619  PRO620  LYS621  CYS622 
 ASP623  PHE694  ASN695  SER759  ASP760  ASP761  ALA762  ILE779  LEU786  VAL792 
 PHE793  MET794  SER795  GLU796  ALA797  LYS798  CYS799  TRP800  GLU811  SER814 

> <Gold.Protein.RotatedAtoms>
  151.1023  133.5234  159.2609 H   0  0  0  0  0  0  0  0  0  0  0  0  # atno 6907 bound_to 6896
  151.2060  135.0461  159.8902 H   0  0  0  0  0  0  0  0  0  0  0  0  # atno 6908 bound_to 6896
  152.5444  134.0845  159.8303 H   0  0  0  0  0  0  0  0  0  0  0  0  # atno 6909 bound_to 6896
  146.2286  140.2438  142.8344 H   0  0  0  0  0  0  0  0  0  0  0  0  # atno 7974 bound_to 7965
  156.1808  140.1672  156.8277 H   0  0  0  0  0  0  0  0  0  0  0  0  # atno 8008 bound_to 7997
  154.5358  140.0747  156.8458 H   0  0  0  0  0  0  0  0  0  0  0  0  # atno 8009 bound_to 7997
  155.3314  140.3379  155.4242 H   0  0  0  0  0  0  0  0  0  0  0  0  # atno 8010 bound_to 7997
  139.7135  144.7073  151.0989 H   0  0  0  0  0  0  0  0  0  0  0  0  # atno 10167 bound_to 10162
  156.2273  130.4170  149.8918 H   0  0  0  0  0  0  0  0  0  0  0  0  # atno 10718 bound_to 10713
  154.4737  135.2772  155.1623 H   0  0  0  0  0  0  0  0  0  0  0  0  # atno 10763 bound_to 10752
  154.3362  135.6180  153.5578 H   0  0  0  0  0  0  0  0  0  0  0  0  # atno 10764 bound_to 10752
  152.9867  135.5777  154.5123 H   0  0  0  0  0  0  0  0  0  0  0  0  # atno 10765 bound_to 10752
  139.8800  134.8839  156.3848 H   0  0  0  0  0  0  0  0  0  0  0  0  # atno 11005 bound_to 11000
  144.9464  140.8132  143.5599 LP  0  0  0  0  0  0  0  0  0  0  0  0  # atno 17320 bound_to 7965
  145.2394  139.2079  143.5000 LP  0  0  0  0  0  0  0  0  0  0  0  0  # atno 17321 bound_to 7965
  140.7738  143.5261  150.9478 LP  0  0  0  0  0  0  0  0  0  0  0  0  # atno 17342 bound_to 10162
  139.8947  143.6910  152.3140 LP  0  0  0  0  0  0  0  0  0  0  0  0  # atno 17343 bound_to 10162
  156.6544  130.8757  151.3537 LP  0  0  0  0  0  0  0  0  0  0  0  0  # atno 17370 bound_to 10713
  157.7116  130.9447  150.1110 LP  0  0  0  0  0  0  0  0  0  0  0  0  # atno 17371 bound_to 10713
  140.9374  133.7538  156.0102 LP  0  0  0  0  0  0  0  0  0  0  0  0  # atno 17394 bound_to 11000
  140.8260  134.3234  157.5365 LP  0  0  0  0  0  0  0  0  0  0  0  0  # atno 17395 bound_to 11000

$$$$
