AV-unprocessed.smi:1535|AV-procd|sdf|6185|dock6
  -GOLD-   22720 6343D 1   1.00000     0.00000
 Structure written by MMmdl.
 47 48  0  0  0  0  0  0  0  0  2 V2000
  152.8072  143.1221  161.3465 C   0  0  0  0  0  0  0  0  0  0  0  0
  152.2530  142.6843  160.0021 C   0  0  0  0  0  0  0  0  0  0  0  0
  152.7601  141.5116  159.3978 C   0  0  0  0  0  0  0  0  0  0  0  0
  152.2719  141.0716  158.1479 C   0  0  0  0  0  0  0  0  0  0  0  0
  152.6167  139.9690  157.3850 N   0  0  0  0  0  0  0  0  0  0  0  0
  151.8162  140.1092  156.3327 C   0  0  0  0  0  0  0  0  0  0  0  0
  150.9890  141.1720  156.3247 N   0  0  0  0  0  0  0  0  0  0  0  0
  150.0362  141.5310  155.2890 C   0  0  0  0  0  0  0  0  0  0  0  0
  148.5742  141.3231  155.7283 C   0  0  1  0  0  0  0  0  0  0  0  0
  147.7513  142.2930  155.1083 O   0  0  0  0  0  0  0  0  0  0  0  0
  148.0579  139.9245  155.3365 C   0  0  0  0  0  0  0  0  0  0  0  0
  148.9898  138.8467  155.7552 N   0  3  1  0  0  0  0  0  0  0  0  0
  149.1561  138.7968  157.2261 C   0  0  0  0  0  0  0  0  0  0  0  0
  148.6483  137.5212  155.1754 C   0  0  0  0  0  0  0  0  0  0  0  0
  149.7744  136.4894  155.3709 C   0  0  1  0  0  0  0  0  0  0  0  0
  149.3802  135.1143  154.8173 C   0  0  0  0  0  0  0  0  0  0  0  0
  151.0317  136.9555  154.7637 C   0  0  0  0  0  0  0  0  0  0  0  0
  152.0173  137.3247  154.2847 N   0  0  0  0  0  0  0  0  0  0  0  0
  151.2552  141.8437  157.5134 C   0  0  0  0  0  0  0  0  0  0  0  0
  150.7409  143.0106  158.1057 C   0  0  0  0  0  0  0  0  0  0  0  0
  151.2391  143.4357  159.3551 C   0  0  0  0  0  0  0  0  0  0  0  0
  150.6752  144.6959  159.9871 C   0  0  0  0  0  0  0  0  0  0  0  0
  153.5933  142.4500  161.6916 H   0  0  0  0  0  0  0  0  0  0  0  0
  152.0189  143.1305  162.0995 H   0  0  0  0  0  0  0  0  0  0  0  0
  153.2317  144.1241  161.2781 H   0  0  0  0  0  0  0  0  0  0  0  0
  153.5312  140.9379  159.8908 H   0  0  0  0  0  0  0  0  0  0  0  0
  151.8303  139.3973  155.5203 H   0  0  0  0  0  0  0  0  0  0  0  0
  150.2063  142.5703  155.0048 H   0  0  0  0  0  0  0  0  0  0  0  0
  150.2519  140.9292  154.4052 H   0  0  0  0  0  0  0  0  0  0  0  0
  148.5099  141.4664  156.8070 H   0  0  0  0  0  0  0  0  0  0  0  0
  148.1476  143.1438  155.2252 H   0  0  0  0  0  0  0  0  0  0  0  0
  147.0809  139.7767  155.8004 H   0  0  0  0  0  0  0  0  0  0  0  0
  147.8921  139.8594  154.2598 H   0  0  0  0  0  0  0  0  0  0  0  0
  148.2127  138.5563  157.7180 H   0  0  0  0  0  0  0  0  0  0  0  0
  149.5037  139.7581  157.6061 H   0  0  0  0  0  0  0  0  0  0  0  0
  149.8935  138.0501  157.5185 H   0  0  0  0  0  0  0  0  0  0  0  0
  147.7146  137.1628  155.6118 H   0  0  0  0  0  0  0  0  0  0  0  0
  148.4603  137.6181  154.1059 H   0  0  0  0  0  0  0  0  0  0  0  0
  149.9779  136.3689  156.4345 H   0  0  0  0  0  0  0  0  0  0  0  0
  150.1750  134.3860  154.9807 H   0  0  0  0  0  0  0  0  0  0  0  0
  149.1870  135.1597  153.7450 H   0  0  0  0  0  0  0  0  0  0  0  0
  148.4809  134.7358  155.3039 H   0  0  0  0  0  0  0  0  0  0  0  0
  149.9682  143.5739  157.6038 H   0  0  0  0  0  0  0  0  0  0  0  0
  149.9178  145.1557  159.3516 H   0  0  0  0  0  0  0  0  0  0  0  0
  151.4648  145.4298  160.1493 H   0  0  0  0  0  0  0  0  0  0  0  0
  150.2121  144.4668  160.9470 H   0  0  0  0  0  0  0  0  0  0  0  0
  149.8891  139.1114  155.3774 H   0  0  0  0  0  0  0  0  0  0  0  0
  1  2  1  0  0  0  0
  1 23  1  0  0  0  0
  1 24  1  0  0  0  0
  1 25  1  0  0  0  0
  2 21  1  0  0  0  0
  2  3  2  0  0  0  0
  3  4  1  0  0  0  0
  3 26  1  0  0  0  0
  4 19  2  0  0  0  0
  4  5  1  0  0  0  0
  5  6  2  0  0  0  0
  6  7  1  0  0  0  0
  6 27  1  0  0  0  0
  7  8  1  0  0  0  0
  7 19  1  0  0  0  0
  8  9  1  0  0  0  0
  8 28  1  0  0  0  0
  8 29  1  0  0  0  0
  9 10  1  0  0  0  0
  9 11  1  0  0  0  0
  9 30  1  0  0  0  0
 10 31  1  0  0  0  0
 11 12  1  0  0  0  0
 11 32  1  0  0  0  0
 11 33  1  0  0  0  0
 12 13  1  0  0  0  0
 12 14  1  0  0  0  0
 12 47  1  0  0  0  0
 13 34  1  0  0  0  0
 13 35  1  0  0  0  0
 13 36  1  0  0  0  0
 14 15  1  0  0  0  0
 14 37  1  0  0  0  0
 14 38  1  0  0  0  0
 15 16  1  0  0  0  0
 15 17  1  0  0  0  0
 15 39  1  0  0  0  0
 16 40  1  0  0  0  0
 16 41  1  0  0  0  0
 16 42  1  0  0  0  0
 17 18  3  0  0  0  0
 19 20  1  0  0  0  0
 20 21  2  0  0  0  0
 20 43  1  0  0  0  0
 21 22  1  0  0  0  0
 22 44  1  0  0  0  0
 22 45  1  0  0  0  0
 22 46  1  0  0  0  0
M  CHG  1  12   1
M  END
> <s_m_source_file>
AV-unprocessed.smi

> <i_m_source_file_index>
1535

> <i_lp_mmshare_version>
43012

> <i_f3d_flags>
0

> <s_epik_input>
W0NIM11jKFtjSF0xKWMoW0NIM10pW2NIXWMoYzEyKW4oW2NIXW4yKVtDSDJdW0NASF0oW09IXSlbQ0gyXU4oW0NIM10pW0NIMl1bQ0BIXShbQ0gzXSlDI04=

> <s_epik_cmdline>
J2VwaWtfcHl0aG9uJywgJy1waCcsICc3LjAnLCAnLXRuJywgJzgnLCAnLW1hJywgJzIwMCcsICctbWV0YWxfYmluZGluZycsICctaW1hZScsICc8aW5maWxlLm1hZT4nLCAnLW9tYWUnLCAnPG91dGZpbGUubWFlPic=

> <r_epik_Ionization_Penalty>
2.21058

> <r_epik_Ionization_Penalty_Charging>
2.12381

> <r_epik_Ionization_Penalty_Neutral>
0.0867699

> <r_epik_State_Penalty>
2.36208

> <r_epik_Charging_Adjusted_Penalty>
4.48589

> <i_epik_Tot_Q>
1

> <i_epik_Tot_abs_Q>
1

> <r_epik_Metal_State_Penalty>
2.2818

> <b_epik_Metal_Only>
0

> <s_lp_Force_Field>
OPLS_2005

> <r_lp_Energy>
14.5736

> <b_lp_Chiralities_Consistent>
1

> <s_lp_Variant>
AV-unprocessed.smi:1535-16

> <Gold.Version>
5.8.1

> <Gold.Id.Protein>
6NUR|6NUR_protein|mol2

> <Gold.PLP.Fitness>
47.5746

> <Gold.PLP.PLP>
-39.5306

> <Gold.PLP.part.hbond>
-3.0000

> <Gold.PLP.part.metal>
0.0000

> <Gold.PLP.part.buried>
-6.2409

> <Gold.PLP.part.nonpolar>
-30.5377

> <Gold.PLP.part.repulsive>
0.1484

> <Gold.PLP.ligand.clash>
0.0000

> <Gold.PLP.ligand.torsion>
0.6509

> <Gold.PLP.Chemscore.Hbond>
2.9760

> <Gold.PLP.Chemscore.CHOScore>
0.0000

> <Gold.PLP.Chemscore.Metal>
0.0000

> <Gold.Chemscore.Hbonds>
donor molecule, donor type, donor heavy atom, donor atom, acceptor molecule, acceptor atom, score
      L1  H    10    31       P1  8028  1.00
      P1  H  7997  8009       L1     5  1.00
      P1  H 10752 10764       L1    18  0.82

> <Gold.PLP.Chemscore.Internal.Correction>
0.4178

> <Gold.Rescore>
     Score         DG    S(hbond)    S(metal)    S(lipo)     H(rot)  DE(clash)    DE(int)     intcor
     18.64     -19.35       2.67        0.00      99.34       2.60       0.14       0.57       ----

> <Gold.Chemscore.Fitness>
18.6376

> <Gold.Chemscore.DG>
-19.3453

> <Gold.Chemscore.ZeroCoef>
-5.4800

> <Gold.Chemscore.Hbond>
2.6666

> <Gold.Chemscore.Metal>
0.0000

> <Gold.Chemscore.Lipo>
99.3414

> <Gold.Chemscore.Internal_Hbond>
0.0000

> <Gold.Chemscore.DEClash>
0.1388

> <Gold.Chemscore.DEInternal>
0.5688

> <Gold.Chemscore.Rot>
2.6031

> <Gold.Chemscore.Internal.Correction>
   9.000000E+99

> <Gold.Chemscore.Hbonds>
donor molecule, donor type, donor heavy atom, donor atom, acceptor molecule, acceptor atom, score
      L1  H    10    31       P1  8028  0.93
      P1  H  7997  8009       L1     5  0.49
      P1  H 10752 10764       L1    18  0.16

> <Gold.Chemscore.Hbond.Weighted>
-8.9063

> <Gold.Chemscore.Metal.Weighted>
-0.0000

> <Gold.Chemscore.Lipo.Weighted>
-11.6229

> <Gold.Chemscore.Internal_Hbond.Weighted>
0.0000

> <Gold.Chemscore.DEClash.Weighted>
0.1388

> <Gold.Chemscore.DEInternal.Weighted>
0.5688

> <Gold.Chemscore.Rot.Weighted>
6.6640

> <Gold.Chemscore.Internal.Correction.Weighted>
   9.000000E+99

> <Gold.Protein.RotatedTorsions>
[ 6907 6896 6895 6894 ] final   50.87 input  -60.11 | X-H torsion
[ 7974 7965 7964 7962 ] final   57.07 input  175.53 | X-H torsion
[ 8008 7997 7996 7995 ] final  174.55 input   59.86 | X-H torsion
[ 10167 10162 10161 10158 ] final  -65.98 input  -65.29 | X-H torsion
[ 10718 10713 10712 10709 ] final  121.52 input   66.30 | X-H torsion
[ 10763 10752 10751 10750 ] final  -76.07 input  -60.55 | X-H torsion
[ 11005 11000 10999 10996 ] final -147.09 input  -57.11 | X-H torsion

> <Gold.Protein.ActiveResidues>
 VAL166  LYS551  ARG553  GLY616  TRP617  ASP618  TYR619  PRO620  LYS621  CYS622 
 ASP623  PHE694  ASN695  SER759  ASP760  ASP761  ALA762  ILE779  LEU786  VAL792 
 PHE793  MET794  SER795  GLU796  ALA797  LYS798  CYS799  TRP800  GLU811  SER814 

> <Gold.Protein.RotatedAtoms>
  152.3065  134.7548  160.0345 H   0  0  0  0  0  0  0  0  0  0  0  0  # atno 6907 bound_to 6896
  151.8044  133.3368  159.3544 H   0  0  0  0  0  0  0  0  0  0  0  0  # atno 6908 bound_to 6896
  150.7299  134.5653  159.5907 H   0  0  0  0  0  0  0  0  0  0  0  0  # atno 6909 bound_to 6896
  145.9330  139.3824  143.0409 H   0  0  0  0  0  0  0  0  0  0  0  0  # atno 7974 bound_to 7965
  156.0963  140.1431  156.9527 H   0  0  0  0  0  0  0  0  0  0  0  0  # atno 8008 bound_to 7997
  154.4673  140.0922  156.7100 H   0  0  0  0  0  0  0  0  0  0  0  0  # atno 8009 bound_to 7997
  155.4836  140.3446  155.4346 H   0  0  0  0  0  0  0  0  0  0  0  0  # atno 8010 bound_to 7997
  140.5690  143.2316  151.6576 H   0  0  0  0  0  0  0  0  0  0  0  0  # atno 10167 bound_to 10162
  157.5811  131.1075  150.8185 H   0  0  0  0  0  0  0  0  0  0  0  0  # atno 10718 bound_to 10713
  154.4949  135.5810  153.6487 H   0  0  0  0  0  0  0  0  0  0  0  0  # atno 10763 bound_to 10752
  152.9868  135.6122  154.3077 H   0  0  0  0  0  0  0  0  0  0  0  0  # atno 10764 bound_to 10752
  154.2980  135.2847  155.2604 H   0  0  0  0  0  0  0  0  0  0  0  0  # atno 10765 bound_to 10752
  140.7753  134.3142  157.5062 H   0  0  0  0  0  0  0  0  0  0  0  0  # atno 11005 bound_to 11000
  145.8400  140.9585  143.0804 LP  0  0  0  0  0  0  0  0  0  0  0  0  # atno 17320 bound_to 7965
  144.6767  140.0272  143.7483 LP  0  0  0  0  0  0  0  0  0  0  0  0  # atno 17321 bound_to 7965
  139.5108  144.3532  152.0633 LP  0  0  0  0  0  0  0  0  0  0  0  0  # atno 17342 bound_to 10162
  140.2667  144.4009  150.6166 LP  0  0  0  0  0  0  0  0  0  0  0  0  # atno 17343 bound_to 10162
  156.8631  130.5120  149.5302 LP  0  0  0  0  0  0  0  0  0  0  0  0  # atno 17370 bound_to 10713
  156.0857  130.5856  150.9644 LP  0  0  0  0  0  0  0  0  0  0  0  0  # atno 17371 bound_to 10713
  139.8750  134.9285  156.3453 LP  0  0  0  0  0  0  0  0  0  0  0  0  # atno 17394 bound_to 11000
  140.9535  133.7435  156.0304 LP  0  0  0  0  0  0  0  0  0  0  0  0  # atno 17395 bound_to 11000

$$$$
