AV-unprocessed.smi:679|AV-procd|sdf|3320|dock4
  -GOLD-   22720 0283D 1   1.00000     0.00000
 Structure written by MMmdl.
 41 43  0  0  0  0  0  0  0  0  1 V2000
  150.4155  143.3734  158.4305 C   0  0  0  0  0  0  0  0  0  0  0  0
  151.0393  142.3974  157.4308 C   0  0  0  0  0  0  0  0  0  0  0  0
  150.0017  141.6505  156.8195 O   0  0  0  0  0  0  0  0  0  0  0  0
  150.3726  141.1096  155.5614 C   0  0  1  0  0  0  0  0  0  0  0  0
  151.1232  139.7765  155.6333 C   0  0  0  0  0  0  0  0  0  0  0  0
  150.3255  139.3819  154.3885 C   0  0  1  0  0  0  0  0  0  0  0  0
  149.9491  137.9724  154.3942 N   0  0  0  0  0  0  0  0  0  0  0  0
  150.7574  136.9704  154.7696 C   0  0  0  0  0  0  0  0  0  0  0  0
  151.9176  137.1437  155.1444 O   0  0  0  0  0  0  0  0  0  0  0  0
  150.1682  135.5589  154.7011 C   0  0  0  0  0  0  0  0  0  0  0  0
  149.9980  134.9854  156.0236 N   0  0  0  0  0  0  0  0  0  0  0  0
  150.4570  133.8498  156.5537 C   0  0  0  0  0  0  0  0  0  0  0  0
  150.0715  133.7070  157.8127 N   0  0  0  0  0  0  0  0  0  0  0  0
  149.3250  134.8504  158.0447 N   0  0  0  0  0  0  0  0  0  0  0  0
  149.2784  135.6132  156.9869 N   0  0  0  0  0  0  0  0  0  0  0  0
  149.2163  140.3644  154.8490 C   0  0  0  0  0  0  0  0  0  0  0  0
  148.0673  139.8510  155.7274 C   0  0  0  0  0  0  0  0  0  0  0  0
  147.0099  140.9570  155.7539 C   0  0  0  0  0  0  0  0  0  0  0  0
  147.2275  141.7637  154.4694 C   0  0  0  0  0  0  0  0  0  0  0  0
  148.4521  141.1460  153.7855 C   0  0  0  0  0  0  0  0  0  0  0  0
  151.1826  143.9689  158.9257 H   0  0  0  0  0  0  0  0  0  0  0  0
  149.8562  142.8405  159.1998 H   0  0  0  0  0  0  0  0  0  0  0  0
  149.7295  144.0583  157.9316 H   0  0  0  0  0  0  0  0  0  0  0  0
  151.6029  142.9468  156.6753 H   0  0  0  0  0  0  0  0  0  0  0  0
  151.7350  141.7326  157.9445 H   0  0  0  0  0  0  0  0  0  0  0  0
  150.8627  141.8357  154.9082 H   0  0  0  0  0  0  0  0  0  0  0  0
  152.2003  139.8507  155.4822 H   0  0  0  0  0  0  0  0  0  0  0  0
  150.8752  139.1919  156.5211 H   0  0  0  0  0  0  0  0  0  0  0  0
  150.8209  139.7082  153.4707 H   0  0  0  0  0  0  0  0  0  0  0  0
  149.0110  137.7462  154.0966 H   0  0  0  0  0  0  0  0  0  0  0  0
  149.2045  135.5642  154.1889 H   0  0  0  0  0  0  0  0  0  0  0  0
  150.8364  134.9181  154.1247 H   0  0  0  0  0  0  0  0  0  0  0  0
  151.0708  133.1371  156.0231 H   0  0  0  0  0  0  0  0  0  0  0  0
  147.6203  138.9581  155.2897 H   0  0  0  0  0  0  0  0  0  0  0  0
  148.3876  139.5801  156.7340 H   0  0  0  0  0  0  0  0  0  0  0  0
  146.0006  140.5496  155.8207 H   0  0  0  0  0  0  0  0  0  0  0  0
  147.1626  141.5995  156.6219 H   0  0  0  0  0  0  0  0  0  0  0  0
  146.3543  141.7325  153.8170 H   0  0  0  0  0  0  0  0  0  0  0  0
  147.4161  142.8093  154.7153 H   0  0  0  0  0  0  0  0  0  0  0  0
  149.0660  141.9094  153.3070 H   0  0  0  0  0  0  0  0  0  0  0  0
  148.1215  140.4717  152.9948 H   0  0  0  0  0  0  0  0  0  0  0  0
  1  2  1  0  0  0  0
  1 21  1  0  0  0  0
  1 22  1  0  0  0  0
  1 23  1  0  0  0  0
  2  3  1  0  0  0  0
  2 24  1  0  0  0  0
  2 25  1  0  0  0  0
  3  4  1  0  0  0  0
  4 16  1  0  0  0  0
  4  5  1  0  0  0  0
  4 26  1  0  0  0  0
  5  6  1  0  0  0  0
  5 27  1  0  0  0  0
  5 28  1  0  0  0  0
  6  7  1  0  0  0  0
  6 16  1  0  0  0  0
  6 29  1  0  0  0  0
  7  8  1  0  0  0  0
  7 30  1  0  0  0  0
  8  9  2  0  0  0  0
  8 10  1  0  0  0  0
 10 11  1  0  0  0  0
 10 31  1  0  0  0  0
 10 32  1  0  0  0  0
 11 15  1  0  0  0  0
 11 12  1  0  0  0  0
 12 13  2  0  0  0  0
 12 33  1  0  0  0  0
 13 14  1  0  0  0  0
 14 15  2  0  0  0  0
 16 20  1  0  0  0  0
 16 17  1  0  0  0  0
 17 18  1  0  0  0  0
 17 34  1  0  0  0  0
 17 35  1  0  0  0  0
 18 19  1  0  0  0  0
 18 36  1  0  0  0  0
 18 37  1  0  0  0  0
 19 20  1  0  0  0  0
 19 38  1  0  0  0  0
 19 39  1  0  0  0  0
 20 40  1  0  0  0  0
 20 41  1  0  0  0  0
M  END
> <s_m_source_file>
AV-unprocessed.smi

> <i_m_source_file_index>
679

> <i_lp_mmshare_version>
43012

> <i_f3d_flags>
0

> <s_epik_input>
W0NIMl0xW0NIMl1bQ0gyXVtDSDJdQzEyW0NASF0oT1tDSDJdW0NIM10pW0NIMl1bQ0BIXTJbTkhdQyg9TylbQ0gyXW4zW2NIXW5ubjM=

> <s_epik_cmdline>
J2VwaWtfcHl0aG9uJywgJy1waCcsICc3LjAnLCAnLXRuJywgJzgnLCAnLW1hJywgJzIwMCcsICctbWV0YWxfYmluZGluZycsICctaW1hZScsICc8aW5maWxlLm1hZT4nLCAnLW9tYWUnLCAnPG91dGZpbGUubWFlPic=

> <r_lp_tautomer_probability>
1

> <r_epik_Ionization_Penalty>
7.96741e-07

> <r_epik_Ionization_Penalty_Charging>
0

> <r_epik_Ionization_Penalty_Neutral>
7.96741e-07

> <r_epik_State_Penalty>
-0

> <r_epik_Charging_Adjusted_Penalty>
0

> <i_epik_Tot_Q>
0

> <i_epik_Tot_abs_Q>
0

> <r_epik_Metal_State_Penalty>
-0

> <b_epik_Metal_Only>
0

> <s_lp_Force_Field>
OPLS_2005

> <r_lp_Energy>
38.413

> <b_lp_Chiralities_Consistent>
1

> <s_lp_Variant>
AV-unprocessed.smi:679-2

> <Gold.Version>
5.8.1

> <Gold.Id.Protein>
6NUR|6NUR_protein|mol2

> <Gold.PLP.Fitness>
36.2607

> <Gold.PLP.PLP>
-31.1823

> <Gold.PLP.part.hbond>
-3.4785

> <Gold.PLP.part.metal>
0.0000

> <Gold.PLP.part.buried>
-1.2360

> <Gold.PLP.part.nonpolar>
-26.4240

> <Gold.PLP.part.repulsive>
0.2057

> <Gold.PLP.ligand.clash>
0.0000

> <Gold.PLP.ligand.torsion>
0.6040

> <Gold.PLP.Chemscore.Hbond>
1.9680

> <Gold.PLP.Chemscore.CHOScore>
0.0000

> <Gold.PLP.Chemscore.Metal>
0.0000

> <Gold.Chemscore.Hbonds>
donor molecule, donor type, donor heavy atom, donor atom, acceptor molecule, acceptor atom, score
      P1  H  6896  6908       L1    13  0.96
      P1  H 10752 10763       L1     9  0.96

> <Gold.PLP.Chemscore.Internal.Correction>
0.3824

> <Gold.Rescore>
     Score         DG    S(hbond)    S(metal)    S(lipo)     H(rot)  DE(clash)    DE(int)     intcor
     10.69     -12.91       1.59        0.00      70.89       2.41       0.11       2.12       ----

> <Gold.Chemscore.Fitness>
10.6854

> <Gold.Chemscore.DG>
-12.9128

> <Gold.Chemscore.ZeroCoef>
-5.4800

> <Gold.Chemscore.Hbond>
1.5885

> <Gold.Chemscore.Metal>
0.0000

> <Gold.Chemscore.Lipo>
70.8906

> <Gold.Chemscore.Internal_Hbond>
0.0000

> <Gold.Chemscore.DEClash>
0.1071

> <Gold.Chemscore.DEInternal>
2.1203

> <Gold.Chemscore.Rot>
2.4089

> <Gold.Chemscore.Internal.Correction>
   9.000000E+99

> <Gold.Chemscore.Hbonds>
donor molecule, donor type, donor heavy atom, donor atom, acceptor molecule, acceptor atom, score
      P1  H  6896  6908       L1    13  0.28
      P1  H 10752 10763       L1     9  0.55

> <Gold.Chemscore.Hbond.Weighted>
-5.3054

> <Gold.Chemscore.Metal.Weighted>
-0.0000

> <Gold.Chemscore.Lipo.Weighted>
-8.2942

> <Gold.Chemscore.Internal_Hbond.Weighted>
0.0000

> <Gold.Chemscore.DEClash.Weighted>
0.1071

> <Gold.Chemscore.DEInternal.Weighted>
2.1203

> <Gold.Chemscore.Rot.Weighted>
6.1668

> <Gold.Chemscore.Internal.Correction.Weighted>
   9.000000E+99

> <Gold.Protein.RotatedTorsions>
[ 6907 6896 6895 6894 ] final  104.98 input  -60.11 | X-H torsion
[ 7974 7965 7964 7962 ] final   -7.56 input  175.53 | X-H torsion
[ 8008 7997 7996 7995 ] final   64.11 input   59.86 | X-H torsion
[ 10167 10162 10161 10158 ] final   21.88 input  -65.29 | X-H torsion
[ 10718 10713 10712 10709 ] final -102.75 input   66.30 | X-H torsion
[ 10763 10752 10751 10750 ] final   55.34 input  -60.55 | X-H torsion
[ 11005 11000 10999 10996 ] final   46.37 input  -57.11 | X-H torsion

> <Gold.Protein.ActiveResidues>
 VAL166  LYS551  ARG553  GLY616  TRP617  ASP618  TYR619  PRO620  LYS621  CYS622 
 ASP623  PHE694  ASN695  SER759  ASP760  ASP761  ALA762  ILE779  LEU786  VAL792 
 PHE793  MET794  SER795  GLU796  ALA797  LYS798  CYS799  TRP800  GLU811  SER814 

> <Gold.Protein.RotatedAtoms>
  152.5246  133.9596  159.7710 H   0  0  0  0  0  0  0  0  0  0  0  0  # atno 6907 bound_to 6896
  150.9890  133.6161  159.2718 H   0  0  0  0  0  0  0  0  0  0  0  0  # atno 6908 bound_to 6896
  151.3311  135.0848  159.9392 H   0  0  0  0  0  0  0  0  0  0  0  0  # atno 6909 bound_to 6896
  146.2303  140.2338  142.8341 H   0  0  0  0  0  0  0  0  0  0  0  0  # atno 7974 bound_to 7965
  155.6409  140.3497  155.4714 H   0  0  0  0  0  0  0  0  0  0  0  0  # atno 8008 bound_to 7997
  155.9927  140.1197  157.0647 H   0  0  0  0  0  0  0  0  0  0  0  0  # atno 8009 bound_to 7997
  154.4224  140.1116  156.5573 H   0  0  0  0  0  0  0  0  0  0  0  0  # atno 8010 bound_to 7997
  140.5392  143.9707  150.6509 H   0  0  0  0  0  0  0  0  0  0  0  0  # atno 10167 bound_to 10162
  156.0240  130.5435  150.7154 H   0  0  0  0  0  0  0  0  0  0  0  0  # atno 10718 bound_to 10713
  152.9815  135.5714  154.5051 H   0  0  0  0  0  0  0  0  0  0  0  0  # atno 10763 bound_to 10752
  154.4564  135.2780  155.1746 H   0  0  0  0  0  0  0  0  0  0  0  0  # atno 10764 bound_to 10752
  154.3353  135.6241  153.5624 H   0  0  0  0  0  0  0  0  0  0  0  0  # atno 10765 bound_to 10752
  140.1375  134.4626  155.8475 H   0  0  0  0  0  0  0  0  0  0  0  0  # atno 11005 bound_to 11000
  144.9537  140.8205  143.5556 LP  0  0  0  0  0  0  0  0  0  0  0  0  # atno 17320 bound_to 7965
  145.2301  139.2119  143.5047 LP  0  0  0  0  0  0  0  0  0  0  0  0  # atno 17321 bound_to 7965
  140.3102  143.3203  152.0886 LP  0  0  0  0  0  0  0  0  0  0  0  0  # atno 17342 bound_to 10162
  139.4982  144.6641  151.6398 LP  0  0  0  0  0  0  0  0  0  0  0  0  # atno 17343 bound_to 10162
  157.4782  131.0900  151.0566 LP  0  0  0  0  0  0  0  0  0  0  0  0  # atno 17370 bound_to 10713
  157.1007  130.5980  149.5459 LP  0  0  0  0  0  0  0  0  0  0  0  0  # atno 17371 bound_to 10713
  141.2180  133.6820  156.7184 LP  0  0  0  0  0  0  0  0  0  0  0  0  # atno 17394 bound_to 11000
  140.2764  134.8351  157.3894 LP  0  0  0  0  0  0  0  0  0  0  0  0  # atno 17395 bound_to 11000

$$$$
