AV-unprocessed.smi:281|AV-procd|sdf|2101|dock5
  -GOLD-   2262021393D 1   1.00000     0.00000
 Structure written by MMmdl.
 55 59  0  0  0  0  0  0  0  0  1 V2000
  152.9676  135.1830  157.9588 C   0  0  0  0  0  0  0  0  0  0  0  0
  151.8019  135.7916  157.1729 C   0  0  2  0  0  0  0  0  0  0  0  0
  151.0552  134.7367  156.3411 C   0  0  0  0  0  0  0  0  0  0  0  0
  150.0268  135.3835  155.5409 N   0  0  0  0  0  0  0  0  0  0  0  0
  149.2060  134.5139  154.9155 C   0  0  0  0  0  0  0  0  0  0  0  0
  149.5768  133.2153  154.7621 N   0  0  0  0  0  0  0  0  0  0  0  0
  148.7586  132.3587  154.1429 C   0  0  0  0  0  0  0  0  0  0  0  0
  147.5535  132.5876  153.6155 N   0  0  0  0  0  0  0  0  0  0  0  0
  147.1810  133.8906  153.7740 C   0  0  0  0  0  0  0  0  0  0  0  0
  147.9431  134.9116  154.4064 C   0  0  0  0  0  0  0  0  0  0  0  0
  147.2503  136.1147  154.3774 N   0  0  0  0  0  0  0  0  0  0  0  0
  146.1380  135.8215  153.7601 C   0  0  0  0  0  0  0  0  0  0  0  0
  146.0094  134.5066  153.3703 N   0  0  0  0  0  0  0  0  0  0  0  0
  144.8805  133.9086  152.6747 C   0  0  0  0  0  0  0  0  0  0  0  0
  145.1847  133.5537  151.2005 C   0  0  1  0  0  0  0  0  0  0  0  0
  145.5929  134.7255  150.5161 O   0  0  0  0  0  0  0  0  0  0  0  0
  146.2661  132.4905  151.0244 C   0  0  0  0  0  0  0  0  0  0  0  0
  145.8201  131.7548  149.7688 C   0  0  0  0  0  0  0  0  0  0  0  0
  144.4132  131.7027  149.9287 O   0  0  0  0  0  0  0  0  0  0  0  0
  143.9756  132.9499  150.4580 C   0  0  0  0  0  0  0  0  0  0  0  0
  150.5662  136.4222  154.6735 C   0  0  0  0  0  0  0  0  0  0  0  0
  151.3592  137.4691  155.4894 C   0  0  2  0  0  0  0  0  0  0  0  0
  150.4714  138.3836  156.3464 C   0  0  0  0  0  0  0  0  0  0  0  0
  150.5361  139.7378  155.6521 C   0  0  0  0  0  0  0  0  0  0  0  0
  151.8479  139.7502  155.1214 O   0  0  0  0  0  0  0  0  0  0  0  0
  152.0674  138.4713  154.5461 C   0  0  1  0  0  0  0  0  0  0  0  0
  153.5663  138.2341  154.3135 C   0  0  0  0  0  0  0  0  0  0  0  0
  152.3288  136.7960  156.3040 O   0  0  0  0  0  0  0  0  0  0  0  0
  152.6170  134.4137  158.6473 H   0  0  0  0  0  0  0  0  0  0  0  0
  153.4815  135.9449  158.5455 H   0  0  0  0  0  0  0  0  0  0  0  0
  153.6992  134.7272  157.2909 H   0  0  0  0  0  0  0  0  0  0  0  0
  151.1104  136.2451  157.8837 H   0  0  0  0  0  0  0  0  0  0  0  0
  151.7523  134.2100  155.6874 H   0  0  0  0  0  0  0  0  0  0  0  0
  150.6018  133.9930  156.9983 H   0  0  0  0  0  0  0  0  0  0  0  0
  149.1207  131.3447  154.0585 H   0  0  0  0  0  0  0  0  0  0  0  0
  145.3737  136.5619  153.5745 H   0  0  0  0  0  0  0  0  0  0  0  0
  144.5828  133.0132  153.2221 H   0  0  0  0  0  0  0  0  0  0  0  0
  144.0349  134.5956  152.7316 H   0  0  0  0  0  0  0  0  0  0  0  0
  145.5527  134.5597  149.5866 H   0  0  0  0  0  0  0  0  0  0  0  0
  147.2766  132.8953  150.9515 H   0  0  0  0  0  0  0  0  0  0  0  0
  146.2477  131.7915  151.8615 H   0  0  0  0  0  0  0  0  0  0  0  0
  146.0700  132.3201  148.8696 H   0  0  0  0  0  0  0  0  0  0  0  0
  146.2541  130.7582  149.6853 H   0  0  0  0  0  0  0  0  0  0  0  0
  143.1237  132.7801  151.1174 H   0  0  0  0  0  0  0  0  0  0  0  0
  143.6333  133.5895  149.6427 H   0  0  0  0  0  0  0  0  0  0  0  0
  151.2249  135.9640  153.9338 H   0  0  0  0  0  0  0  0  0  0  0  0
  149.7556  136.9037  154.1244 H   0  0  0  0  0  0  0  0  0  0  0  0
  149.4484  138.0224  156.4575 H   0  0  0  0  0  0  0  0  0  0  0  0
  150.8922  138.4916  157.3466 H   0  0  0  0  0  0  0  0  0  0  0  0
  149.8071  139.8000  154.8424 H   0  0  0  0  0  0  0  0  0  0  0  0
  150.3685  140.5710  156.3347 H   0  0  0  0  0  0  0  0  0  0  0  0
  151.5631  138.4764  153.5776 H   0  0  0  0  0  0  0  0  0  0  0  0
  153.7446  137.2445  153.8923 H   0  0  0  0  0  0  0  0  0  0  0  0
  154.1329  138.3136  155.2415 H   0  0  0  0  0  0  0  0  0  0  0  0
  153.9704  138.9696  153.6177 H   0  0  0  0  0  0  0  0  0  0  0  0
  1  2  1  0  0  0  0
  1 29  1  0  0  0  0
  1 30  1  0  0  0  0
  1 31  1  0  0  0  0
  2 28  1  0  0  0  0
  2  3  1  0  0  0  0
  2 32  1  0  0  0  0
  3  4  1  0  0  0  0
  3 33  1  0  0  0  0
  3 34  1  0  0  0  0
  4  5  1  0  0  0  0
  4 21  1  0  0  0  0
  5 10  1  0  0  0  0
  5  6  2  0  0  0  0
  6  7  1  0  0  0  0
  7  8  2  0  0  0  0
  7 35  1  0  0  0  0
  8  9  1  0  0  0  0
  9 13  1  0  0  0  0
  9 10  2  0  0  0  0
 10 11  1  0  0  0  0
 11 12  2  0  0  0  0
 12 13  1  0  0  0  0
 12 36  1  0  0  0  0
 13 14  1  0  0  0  0
 14 15  1  0  0  0  0
 14 37  1  0  0  0  0
 14 38  1  0  0  0  0
 15 20  1  0  0  0  0
 15 16  1  0  0  0  0
 15 17  1  0  0  0  0
 16 39  1  0  0  0  0
 17 18  1  0  0  0  0
 17 40  1  0  0  0  0
 17 41  1  0  0  0  0
 18 19  1  0  0  0  0
 18 42  1  0  0  0  0
 18 43  1  0  0  0  0
 19 20  1  0  0  0  0
 20 44  1  0  0  0  0
 20 45  1  0  0  0  0
 21 22  1  0  0  0  0
 21 46  1  0  0  0  0
 21 47  1  0  0  0  0
 22 26  1  0  0  0  0
 22 23  1  0  0  0  0
 22 28  1  0  0  0  0
 23 24  1  0  0  0  0
 23 48  1  0  0  0  0
 23 49  1  0  0  0  0
 24 25  1  0  0  0  0
 24 50  1  0  0  0  0
 24 51  1  0  0  0  0
 25 26  1  0  0  0  0
 26 27  1  0  0  0  0
 26 52  1  0  0  0  0
 27 53  1  0  0  0  0
 27 54  1  0  0  0  0
 27 55  1  0  0  0  0
M  END
> <s_m_source_file>
AV-unprocessed.smi

> <i_m_source_file_index>
281

> <i_lp_mmshare_version>
43012

> <i_f3d_flags>
0

> <s_epik_input>
W0NIM11bQ0BASF0xT1tDSDJdW0NIMl1bQ0BAXTEyW0NIMl1OKFtDSDJdW0NASF0oTzIpW0NIM10pYyhuW2NIXW4zKWMoYzM0KW5bY0hdbjRbQ0gyXVtDQEBdNShbT0hdKVtDSDJdW0NIMl1PW0NIMl01

> <s_epik_cmdline>
J2VwaWtfcHl0aG9uJywgJy1waCcsICc3LjAnLCAnLXRuJywgJzgnLCAnLW1hJywgJzIwMCcsICctbWV0YWxfYmluZGluZycsICctaW1hZScsICc8aW5maWxlLm1hZT4nLCAnLW9tYWUnLCAnPG91dGZpbGUubWFlPic=

> <r_lp_tautomer_probability>
1

> <r_epik_Ionization_Penalty>
0.00571331

> <r_epik_Ionization_Penalty_Charging>
0

> <r_epik_Ionization_Penalty_Neutral>
0.00571331

> <r_epik_State_Penalty>
0.00399586

> <r_epik_Charging_Adjusted_Penalty>
0.00399586

> <i_epik_Tot_Q>
0

> <i_epik_Tot_abs_Q>
0

> <r_epik_Metal_State_Penalty>
-0

> <b_epik_Metal_Only>
0

> <s_lp_Force_Field>
OPLS_2005

> <r_lp_Energy>
53.2983

> <b_lp_Chiralities_Consistent>
1

> <s_lp_Variant>
AV-unprocessed.smi:281-1

> <Gold.Version>
5.8.1

> <Gold.Id.Protein>
6NUR|6NUR_protein|mol2

> <Gold.PLP.Fitness>
38.9966

> <Gold.PLP.PLP>
-31.2636

> <Gold.PLP.part.hbond>
-3.9242

> <Gold.PLP.part.metal>
0.0000

> <Gold.PLP.part.buried>
0.0571

> <Gold.PLP.part.nonpolar>
-30.7722

> <Gold.PLP.part.repulsive>
1.1965

> <Gold.PLP.ligand.clash>
0.0000

> <Gold.PLP.ligand.torsion>
0.4163

> <Gold.PLP.Chemscore.Hbond>
2.8157

> <Gold.PLP.Chemscore.CHOScore>
0.0000

> <Gold.PLP.Chemscore.Metal>
0.0000

> <Gold.Chemscore.Hbonds>
donor molecule, donor type, donor heavy atom, donor atom, acceptor molecule, acceptor atom, score
      L1  H    16    39       P1  7921  0.94
      P1  H  7989  7998       L1    25  0.98
      P1  H 10752 10765       L1    28  0.73
      P1  H 10785 10796       L1    19  0.19

> <Gold.PLP.Chemscore.Internal.Correction>
0.1187

> <Gold.Rescore>
     Score         DG    S(hbond)    S(metal)    S(lipo)     H(rot)  DE(clash)    DE(int)     intcor
     11.25     -15.27       1.25        0.00      93.80       2.09       2.32       1.70       ----

> <Gold.Chemscore.Fitness>
11.2499

> <Gold.Chemscore.DG>
-15.2714

> <Gold.Chemscore.ZeroCoef>
-5.4800

> <Gold.Chemscore.Hbond>
1.2497

> <Gold.Chemscore.Metal>
0.0000

> <Gold.Chemscore.Lipo>
93.8005

> <Gold.Chemscore.Internal_Hbond>
0.0000

> <Gold.Chemscore.DEClash>
2.3185

> <Gold.Chemscore.DEInternal>
1.7031

> <Gold.Chemscore.Rot>
2.0927

> <Gold.Chemscore.Internal.Correction>
   9.000000E+99

> <Gold.Chemscore.Hbonds>
donor molecule, donor type, donor heavy atom, donor atom, acceptor molecule, acceptor atom, score
      L1  H    16    39       P1  7921  0.83
      P1  H  7989  7998       L1    25  0.11
      P1  H 10752 10765       L1    28  0.02
      P1  H 10785 10796       L1    19  0.18

> <Gold.Chemscore.Hbond.Weighted>
-4.1741

> <Gold.Chemscore.Metal.Weighted>
-0.0000

> <Gold.Chemscore.Lipo.Weighted>
-10.9747

> <Gold.Chemscore.Internal_Hbond.Weighted>
0.0000

> <Gold.Chemscore.DEClash.Weighted>
2.3185

> <Gold.Chemscore.DEInternal.Weighted>
1.7031

> <Gold.Chemscore.Rot.Weighted>
5.3573

> <Gold.Chemscore.Internal.Correction.Weighted>
   9.000000E+99

> <Gold.Protein.RotatedTorsions>
[ 6907 6896 6895 6894 ] final  118.13 input  -60.11 | X-H torsion
[ 7974 7965 7964 7962 ] final -179.79 input  175.53 | X-H torsion
[ 8008 7997 7996 7995 ] final   32.15 input   59.86 | X-H torsion
[ 10167 10162 10161 10158 ] final  -50.43 input  -65.29 | X-H torsion
[ 10718 10713 10712 10709 ] final  146.80 input   66.30 | X-H torsion
[ 10763 10752 10751 10750 ] final -161.47 input  -60.55 | X-H torsion
[ 11005 11000 10999 10996 ] final -121.21 input  -57.11 | X-H torsion

> <Gold.Protein.ActiveResidues>
 VAL166  LYS551  ARG553  GLY616  TRP617  ASP618  TYR619  PRO620  LYS621  CYS622 
 ASP623  PHE694  ASN695  SER759  ASP760  ASP761  ALA762  ILE779  LEU786  VAL792 
 PHE793  MET794  SER795  GLU796  ALA797  LYS798  CYS799  TRP800  GLU811  SER814 

> <Gold.Protein.RotatedAtoms>
  152.4564  133.7732  159.6809 H   0  0  0  0  0  0  0  0  0  0  0  0  # atno 6907 bound_to 6896
  150.8492  133.7803  159.3038 H   0  0  0  0  0  0  0  0  0  0  0  0  # atno 6908 bound_to 6896
  151.5404  135.1071  159.9977 H   0  0  0  0  0  0  0  0  0  0  0  0  # atno 6909 bound_to 6896
  144.7139  140.0664  143.6431 H   0  0  0  0  0  0  0  0  0  0  0  0  # atno 7974 bound_to 7965
  155.1179  140.3245  155.4505 H   0  0  0  0  0  0  0  0  0  0  0  0  # atno 8008 bound_to 7997
  156.2671  140.2032  156.6250 H   0  0  0  0  0  0  0  0  0  0  0  0  # atno 8009 bound_to 7997
  154.6706  140.0537  157.0148 H   0  0  0  0  0  0  0  0  0  0  0  0  # atno 8010 bound_to 7997
  140.6638  143.2658  151.4358 H   0  0  0  0  0  0  0  0  0  0  0  0  # atno 10167 bound_to 10162
  157.3288  131.0917  151.1180 H   0  0  0  0  0  0  0  0  0  0  0  0  # atno 10718 bound_to 10713
  154.7301  135.3044  154.8906 H   0  0  0  0  0  0  0  0  0  0  0  0  # atno 10763 bound_to 10752
  153.9752  135.6737  153.4752 H   0  0  0  0  0  0  0  0  0  0  0  0  # atno 10764 bound_to 10752
  153.0910  135.4959  154.8610 H   0  0  0  0  0  0  0  0  0  0  0  0  # atno 10765 bound_to 10752
  141.0087  134.0296  157.3442 H   0  0  0  0  0  0  0  0  0  0  0  0  # atno 11005 bound_to 11000
  145.9820  139.2948  143.1036 LP  0  0  0  0  0  0  0  0  0  0  0  0  # atno 17320 bound_to 7965
  145.9000  140.9249  143.0508 LP  0  0  0  0  0  0  0  0  0  0  0  0  # atno 17321 bound_to 7965
  139.5880  144.1562  152.2053 LP  0  0  0  0  0  0  0  0  0  0  0  0  # atno 17342 bound_to 10162
  140.0908  144.5622  150.7056 LP  0  0  0  0  0  0  0  0  0  0  0  0  # atno 17343 bound_to 10162
  157.2436  130.6581  149.5900 LP  0  0  0  0  0  0  0  0  0  0  0  0  # atno 17370 bound_to 10713
  155.9693  130.4560  150.5910 LP  0  0  0  0  0  0  0  0  0  0  0  0  # atno 17371 bound_to 10713
  139.9078  135.0183  156.7560 LP  0  0  0  0  0  0  0  0  0  0  0  0  # atno 17394 bound_to 11000
  140.6769  133.9509  155.7888 LP  0  0  0  0  0  0  0  0  0  0  0  0  # atno 17395 bound_to 11000

$$$$
