AV-unprocessed.smi:160|AV-procd|sdf|1348|dock3
  -GOLD-   2262019 53D 1   1.00000     0.00000
 Structure written by MMmdl.
 29 30  0  0  0  0  0  0  0  0  1 V2000
  153.9423  136.0264  157.9881 N   0  0  0  0  0  0  0  0  0  0  0  0
  153.9286  137.3145  157.6302 C   0  0  0  0  0  0  0  0  0  0  0  0
  154.7401  138.1288  158.0678 O   0  0  0  0  0  0  0  0  0  0  0  0
  152.8648  137.7183  156.6471 C   0  0  0  0  0  0  0  0  0  0  0  0
  152.0646  136.7863  156.0494 N   0  0  0  0  0  0  0  0  0  0  0  0
  151.3220  137.5957  155.3054 C   0  0  0  0  0  0  0  0  0  0  0  0
  151.6342  138.8903  155.4242 N   0  0  0  0  0  0  0  0  0  0  0  0
  151.0287  140.0869  154.7522 C   0  0  1  0  0  0  0  0  0  0  0  0
  149.9878  139.6522  153.9287 O   0  0  0  0  0  0  0  0  0  0  0  0
  148.7374  139.9148  154.5568 C   0  0  2  0  0  0  0  0  0  0  0  0
  147.5855  139.9088  153.5367 C   0  0  0  0  0  0  0  0  0  0  0  0
  147.7172  138.8055  152.6659 O   0  0  0  0  0  0  0  0  0  0  0  0
  148.9961  141.2536  155.2618 C   0  0  2  0  0  0  0  0  0  0  0  0
  148.8805  142.3363  154.3557 O   0  0  0  0  0  0  0  0  0  0  0  0
  150.4366  141.1182  155.7444 C   0  0  1  0  0  0  0  0  0  0  0  0
  150.4608  140.7078  157.1009 O   0  0  0  0  0  0  0  0  0  0  0  0
  152.6576  138.9920  156.3097 N   0  0  0  0  0  0  0  0  0  0  0  0
  151.8371  140.4917  154.1423 H   0  0  0  0  0  0  0  0  0  0  0  0
  148.5541  139.1600  155.3236 H   0  0  0  0  0  0  0  0  0  0  0  0
  148.2931  141.4234  156.0788 H   0  0  0  0  0  0  0  0  0  0  0  0
  150.9858  142.0574  155.6636 H   0  0  0  0  0  0  0  0  0  0  0  0
  154.6342  135.6923  158.6428 H   0  0  0  0  0  0  0  0  0  0  0  0
  153.2588  135.3943  157.5966 H   0  0  0  0  0  0  0  0  0  0  0  0
  150.5355  137.2375  154.6575 H   0  0  0  0  0  0  0  0  0  0  0  0
  146.6295  139.8049  154.0509 H   0  0  0  0  0  0  0  0  0  0  0  0
  147.5511  140.8378  152.9669 H   0  0  0  0  0  0  0  0  0  0  0  0
  148.4373  138.9707  152.0767 H   0  0  0  0  0  0  0  0  0  0  0  0
  148.8271  143.1390  154.8513 H   0  0  0  0  0  0  0  0  0  0  0  0
  151.3303  140.8489  157.4429 H   0  0  0  0  0  0  0  0  0  0  0  0
  1  2  1  0  0  0  0
  1 22  1  0  0  0  0
  1 23  1  0  0  0  0
  2  3  2  0  0  0  0
  2  4  1  0  0  0  0
  4 17  2  0  0  0  0
  4  5  1  0  0  0  0
  5  6  2  0  0  0  0
  6  7  1  0  0  0  0
  6 24  1  0  0  0  0
  7  8  1  0  0  0  0
  7 17  1  0  0  0  0
  8 18  1  0  0  0  0
  8 15  1  0  0  0  0
  8  9  1  0  0  0  0
  9 10  1  0  0  0  0
 10 19  1  0  0  0  0
 10 11  1  0  0  0  0
 10 13  1  0  0  0  0
 11 12  1  0  0  0  0
 11 25  1  0  0  0  0
 11 26  1  0  0  0  0
 12 27  1  0  0  0  0
 13 20  1  0  0  0  0
 13 14  1  0  0  0  0
 13 15  1  0  0  0  0
 14 28  1  0  0  0  0
 15 21  1  0  0  0  0
 15 16  1  0  0  0  0
 16 29  1  0  0  0  0
M  END
> <s_m_source_file>
AV-unprocessed.smi

> <i_m_source_file_index>
160

> <i_lp_mmshare_version>
43012

> <i_f3d_flags>
0

> <s_epik_input>
W05IMl1DKD1PKWMxbltjSF1uKG4xKVtDQEBIXTJPW0NASF0oW0NIMl1bT0hdKVtDQEBIXShbT0hdKVtDQEhdMltPSF0=

> <s_epik_cmdline>
J2VwaWtfcHl0aG9uJywgJy1waCcsICc3LjAnLCAnLXRuJywgJzgnLCAnLW1hJywgJzIwMCcsICctbWV0YWxfYmluZGluZycsICctaW1hZScsICc8aW5maWxlLm1hZT4nLCAnLW9tYWUnLCAnPG91dGZpbGUubWFlPic=

> <r_lp_tautomer_probability>
1

> <r_epik_Ionization_Penalty>
1.06932e-05

> <r_epik_Ionization_Penalty_Charging>
0

> <r_epik_Ionization_Penalty_Neutral>
1.06932e-05

> <r_epik_State_Penalty>
-0

> <r_epik_Charging_Adjusted_Penalty>
0

> <i_epik_Tot_Q>
0

> <i_epik_Tot_abs_Q>
0

> <r_epik_Metal_State_Penalty>
0.0142097

> <b_epik_Metal_Only>
0

> <s_epik_Chemistry_Notes>
This compound contains an acetal/aminal-like group ( X-CH(R)-Y where X, Y are N, S, or O) that may be acid/base labile, releasing an aldehyde.

> <s_lp_Force_Field>
OPLS_2005

> <r_lp_Energy>
42.6819

> <b_lp_Chiralities_Consistent>
1

> <s_lp_Variant>
AV-unprocessed.smi:160-6

> <Gold.Version>
5.8.1

> <Gold.Id.Protein>
6NUR|6NUR_protein|mol2

> <Gold.PLP.Fitness>
38.1112

> <Gold.PLP.PLP>
-24.1101

> <Gold.PLP.part.hbond>
-8.0000

> <Gold.PLP.part.metal>
0.0000

> <Gold.PLP.part.buried>
-1.2030

> <Gold.PLP.part.nonpolar>
-16.8142

> <Gold.PLP.part.repulsive>
1.4690

> <Gold.PLP.ligand.clash>
0.0000

> <Gold.PLP.ligand.torsion>
0.1675

> <Gold.PLP.Chemscore.Hbond>
4.7766

> <Gold.PLP.Chemscore.CHOScore>
0.0000

> <Gold.PLP.Chemscore.Metal>
0.0000

> <Gold.Chemscore.Hbonds>
donor molecule, donor type, donor heavy atom, donor atom, acceptor molecule, acceptor atom, score
      L1  H    12    27       P1  7957  1.00
      L1  H    14    28       P1  8028  1.00
      P1  H  7997  8009       L1     3  0.34
      P1  H  7997  8010       L1    17  0.86
      P1  H  8011  8017       L1    14  0.11
      P1  H 10752 10764       L1     5  0.99

> <Gold.PLP.Chemscore.Internal.Correction>
0.0061

> <Gold.Rescore>
     Score         DG    S(hbond)    S(metal)    S(lipo)     H(rot)  DE(clash)    DE(int)     intcor
      9.52     -12.46       4.33        0.00      24.72       4.06       1.45       1.49       ----

> <Gold.Chemscore.Fitness>
9.5209

> <Gold.Chemscore.DG>
-12.4557

> <Gold.Chemscore.ZeroCoef>
-5.4800

> <Gold.Chemscore.Hbond>
4.3346

> <Gold.Chemscore.Metal>
0.0000

> <Gold.Chemscore.Lipo>
24.7162

> <Gold.Chemscore.Internal_Hbond>
0.0000

> <Gold.Chemscore.DEClash>
1.4458

> <Gold.Chemscore.DEInternal>
1.4889

> <Gold.Chemscore.Rot>
4.0600

> <Gold.Chemscore.Internal.Correction>
   9.000000E+99

> <Gold.Chemscore.Hbonds>
donor molecule, donor type, donor heavy atom, donor atom, acceptor molecule, acceptor atom, score
      L1  H    12    27       P1  7957  0.96
      L1  H    14    28       P1  8028  1.00
      P1  H  7997  8009       L1     3  0.34
      P1  H  7997  8010       L1    17  0.74
      P1  H  8011  8017       L1    14  0.12
      P1  H 10752 10764       L1     5  0.58

> <Gold.Chemscore.Hbond.Weighted>
-14.4775

> <Gold.Chemscore.Metal.Weighted>
-0.0000

> <Gold.Chemscore.Lipo.Weighted>
-2.8918

> <Gold.Chemscore.Internal_Hbond.Weighted>
0.0000

> <Gold.Chemscore.DEClash.Weighted>
1.4458

> <Gold.Chemscore.DEInternal.Weighted>
1.4889

> <Gold.Chemscore.Rot.Weighted>
10.3936

> <Gold.Chemscore.Internal.Correction.Weighted>
   9.000000E+99

> <Gold.Protein.RotatedTorsions>
[ 6907 6896 6895 6894 ] final   20.90 input  -60.11 | X-H torsion
[ 7974 7965 7964 7962 ] final  -30.29 input  175.53 | X-H torsion
[ 8008 7997 7996 7995 ] final   92.55 input   59.86 | X-H torsion
[ 10167 10162 10161 10158 ] final   48.34 input  -65.29 | X-H torsion
[ 10718 10713 10712 10709 ] final  137.28 input   66.30 | X-H torsion
[ 10763 10752 10751 10750 ] final  -20.42 input  -60.55 | X-H torsion
[ 11005 11000 10999 10996 ] final  -13.91 input  -57.11 | X-H torsion

> <Gold.Protein.ActiveResidues>
 VAL166  LYS551  ARG553  GLY616  TRP617  ASP618  TYR619  PRO620  LYS621  CYS622 
 ASP623  PHE694  ASN695  SER759  ASP760  ASP761  ALA762  ILE779  LEU786  VAL792 
 PHE793  MET794  SER795  GLU796  ALA797  LYS798  CYS799  TRP800  GLU811  SER814 

> <Gold.Protein.RotatedAtoms>
  151.9035  135.0368  160.0508 H   0  0  0  0  0  0  0  0  0  0  0  0  # atno 6907 bound_to 6896
  152.2338  133.5075  159.5239 H   0  0  0  0  0  0  0  0  0  0  0  0  # atno 6908 bound_to 6896
  150.7033  134.1097  159.4038 H   0  0  0  0  0  0  0  0  0  0  0  0  # atno 6909 bound_to 6896
  146.1153  140.5522  142.8759 H   0  0  0  0  0  0  0  0  0  0  0  0  # atno 7974 bound_to 7965
  156.0366  140.3324  155.7198 H   0  0  0  0  0  0  0  0  0  0  0  0  # atno 8008 bound_to 7997
  155.5806  140.0636  157.2802 H   0  0  0  0  0  0  0  0  0  0  0  0  # atno 8009 bound_to 7997
  154.4375  140.1844  156.0961 H   0  0  0  0  0  0  0  0  0  0  0  0  # atno 8010 bound_to 7997
  140.2943  144.3009  150.6233 H   0  0  0  0  0  0  0  0  0  0  0  0  # atno 10167 bound_to 10162
  157.4377  131.1054  151.0178 H   0  0  0  0  0  0  0  0  0  0  0  0  # atno 10718 bound_to 10713
  153.6201  135.6993  153.5314 H   0  0  0  0  0  0  0  0  0  0  0  0  # atno 10763 bound_to 10752
  153.2944  135.4147  155.1196 H   0  0  0  0  0  0  0  0  0  0  0  0  # atno 10764 bound_to 10752
  154.8545  135.3633  154.5742 H   0  0  0  0  0  0  0  0  0  0  0  0  # atno 10765 bound_to 10752
  140.7809  133.8363  155.9291 H   0  0  0  0  0  0  0  0  0  0  0  0  # atno 11005 bound_to 11000
  144.7548  140.5280  143.6777 LP  0  0  0  0  0  0  0  0  0  0  0  0  # atno 17320 bound_to 7965
  145.5579  139.1478  143.3358 LP  0  0  0  0  0  0  0  0  0  0  0  0  # atno 17321 bound_to 7965
  140.5705  143.2181  151.7607 LP  0  0  0  0  0  0  0  0  0  0  0  0  # atno 17342 bound_to 10162
  139.4930  144.4223  151.9964 LP  0  0  0  0  0  0  0  0  0  0  0  0  # atno 17343 bound_to 10162
  157.1052  130.5998  149.5469 LP  0  0  0  0  0  0  0  0  0  0  0  0  # atno 17370 bound_to 10713
  155.9937  130.4998  150.7390 LP  0  0  0  0  0  0  0  0  0  0  0  0  # atno 17371 bound_to 10713
  140.9483  134.1812  157.4747 LP  0  0  0  0  0  0  0  0  0  0  0  0  # atno 17394 bound_to 11000
  139.8743  134.9899  156.5479 LP  0  0  0  0  0  0  0  0  0  0  0  0  # atno 17395 bound_to 11000

$$$$
