AV-unprocessed.smi:951|AV-procd|sdf|4253|dock4
  -GOLD-   22720 2163D 1   1.00000     0.00000
 Structure written by MMmdl.
 52 54  0  0  0  0  0  0  0  0  2 V2000
  148.1610  140.1186  157.7500 O   0  0  0  0  0  0  0  0  0  0  0  0
  148.7565  139.2669  157.0883 C   0  0  0  0  0  0  0  0  0  0  0  0
  148.6484  137.9499  157.3190 N   0  0  0  0  0  0  0  0  0  0  0  0
  147.8070  137.3495  158.3466 C   0  0  0  0  0  0  0  0  0  0  0  0
  148.6296  136.9192  159.5725 C   0  0  0  0  0  0  0  0  0  0  0  0
  147.7910  136.1714  160.5902 C   0  0  0  0  0  0  0  0  0  0  0  0
  147.1959  134.9236  160.3037 C   0  0  0  0  0  0  0  0  0  0  0  0
  146.4218  134.2859  161.2956 C   0  0  0  0  0  0  0  0  0  0  0  0
  146.2588  134.9087  162.5505 C   0  0  0  0  0  0  0  0  0  0  0  0
  146.8737  136.1563  162.7817 C   0  0  0  0  0  0  0  0  0  0  0  0
  147.6077  136.7352  161.8062 N   0  3  0  0  0  0  0  0  0  0  0  0
  149.7021  139.6832  155.9444 C   0  0  2  0  0  0  0  0  0  0  0  0
  149.3699  138.8757  154.6797 C   0  0  0  0  0  0  0  0  0  0  0  0
  150.6847  138.7732  153.9335 C   0  0  0  0  0  0  0  0  0  0  0  0
  151.7517  138.7989  155.0259 C   0  0  0  0  0  0  0  0  0  0  0  0
  151.1380  139.4374  156.1948 N   0  0  0  0  0  0  0  0  0  0  0  0
  151.8210  139.8269  157.3032 C   0  0  0  0  0  0  0  0  0  0  0  0
  153.0091  139.5444  157.4619 O   0  0  0  0  0  0  0  0  0  0  0  0
  151.0921  140.6348  158.4061 C   0  0  0  0  0  0  0  0  0  0  0  0
  150.4443  141.9435  157.8844 C   0  0  0  0  0  0  0  0  0  0  0  0
  151.4379  143.1035  157.6691 C   0  0  0  0  0  0  0  0  0  0  0  0
  152.3058  143.3439  158.9130 C   0  0  0  0  0  0  0  0  0  0  0  0
  153.0237  142.0576  159.3455 C   0  0  0  0  0  0  0  0  0  0  0  0
  152.0145  140.9267  159.6128 C   0  0  0  0  0  0  0  0  0  0  0  0
  149.1761  137.3200  156.7318 H   0  0  0  0  0  0  0  0  0  0  0  0
  147.0205  138.0488  158.6357 H   0  0  0  0  0  0  0  0  0  0  0  0
  147.3073  136.4833  157.9120 H   0  0  0  0  0  0  0  0  0  0  0  0
  149.4618  136.2866  159.2601 H   0  0  0  0  0  0  0  0  0  0  0  0
  149.0719  137.7901  160.0583 H   0  0  0  0  0  0  0  0  0  0  0  0
  147.3280  134.4602  159.3366 H   0  0  0  0  0  0  0  0  0  0  0  0
  145.9581  133.3309  161.0956 H   0  0  0  0  0  0  0  0  0  0  0  0
  145.6704  134.4367  163.3238 H   0  0  0  0  0  0  0  0  0  0  0  0
  146.8011  136.7044  163.7097 H   0  0  0  0  0  0  0  0  0  0  0  0
  149.5874  140.7490  155.7379 H   0  0  0  0  0  0  0  0  0  0  0  0
  149.0320  137.8682  154.9298 H   0  0  0  0  0  0  0  0  0  0  0  0
  148.5891  139.3436  154.0791 H   0  0  0  0  0  0  0  0  0  0  0  0
  150.7475  137.8886  153.2992 H   0  0  0  0  0  0  0  0  0  0  0  0
  150.8019  139.6489  153.2937 H   0  0  0  0  0  0  0  0  0  0  0  0
  152.0327  137.7773  155.2860 H   0  0  0  0  0  0  0  0  0  0  0  0
  152.6446  139.3244  154.6848 H   0  0  0  0  0  0  0  0  0  0  0  0
  150.2575  140.0381  158.7701 H   0  0  0  0  0  0  0  0  0  0  0  0
  149.9001  141.7511  156.9587 H   0  0  0  0  0  0  0  0  0  0  0  0
  149.6913  142.2659  158.6049 H   0  0  0  0  0  0  0  0  0  0  0  0
  152.0783  142.9056  156.8104 H   0  0  0  0  0  0  0  0  0  0  0  0
  150.8888  144.0133  157.4246 H   0  0  0  0  0  0  0  0  0  0  0  0
  153.0358  144.1283  158.7109 H   0  0  0  0  0  0  0  0  0  0  0  0
  151.6810  143.7058  159.7306 H   0  0  0  0  0  0  0  0  0  0  0  0
  153.7352  141.7543  158.5768 H   0  0  0  0  0  0  0  0  0  0  0  0
  153.6097  142.2477  160.2450 H   0  0  0  0  0  0  0  0  0  0  0  0
  151.3981  141.1989  160.4703 H   0  0  0  0  0  0  0  0  0  0  0  0
  152.5503  140.0240  159.9089 H   0  0  0  0  0  0  0  0  0  0  0  0
  148.0435  137.6384  161.9950 H   0  0  0  0  0  0  0  0  0  0  0  0
  1  2  2  0  0  0  0
  2  3  1  0  0  0  0
  2 12  1  0  0  0  0
  3  4  1  0  0  0  0
  3 25  1  0  0  0  0
  4  5  1  0  0  0  0
  4 26  1  0  0  0  0
  4 27  1  0  0  0  0
  5  6  1  0  0  0  0
  5 28  1  0  0  0  0
  5 29  1  0  0  0  0
  6 11  1  0  0  0  0
  6  7  2  0  0  0  0
  7  8  1  0  0  0  0
  7 30  1  0  0  0  0
  8  9  2  0  0  0  0
  8 31  1  0  0  0  0
  9 10  1  0  0  0  0
  9 32  1  0  0  0  0
 10 11  2  0  0  0  0
 10 33  1  0  0  0  0
 11 52  1  0  0  0  0
 12 16  1  0  0  0  0
 12 13  1  0  0  0  0
 12 34  1  0  0  0  0
 13 14  1  0  0  0  0
 13 35  1  0  0  0  0
 13 36  1  0  0  0  0
 14 15  1  0  0  0  0
 14 37  1  0  0  0  0
 14 38  1  0  0  0  0
 15 16  1  0  0  0  0
 15 39  1  0  0  0  0
 15 40  1  0  0  0  0
 16 17  1  0  0  0  0
 17 18  2  0  0  0  0
 17 19  1  0  0  0  0
 19 24  1  0  0  0  0
 19 20  1  0  0  0  0
 19 41  1  0  0  0  0
 20 21  1  0  0  0  0
 20 42  1  0  0  0  0
 20 43  1  0  0  0  0
 21 22  1  0  0  0  0
 21 44  1  0  0  0  0
 21 45  1  0  0  0  0
 22 23  1  0  0  0  0
 22 46  1  0  0  0  0
 22 47  1  0  0  0  0
 23 24  1  0  0  0  0
 23 48  1  0  0  0  0
 23 49  1  0  0  0  0
 24 50  1  0  0  0  0
 24 51  1  0  0  0  0
M  CHG  1  11   1
M  END
> <s_m_source_file>
AV-unprocessed.smi

> <i_m_source_file_index>
951

> <i_lp_mmshare_version>
43012

> <i_f3d_flags>
0

> <s_epik_input>
bjFbY0hdW2NIXVtjSF1bY0hdYzFbQ0gyXVtDSDJdW05IXUMoPU8pW0NAQEhdMltDSDJdW0NIMl1bQ0gyXU4yQyg9TylbQ0hdM1tDSDJdW0NIMl1bQ0gyXVtDSDJdW0NIMl0z

> <s_epik_cmdline>
J2VwaWtfcHl0aG9uJywgJy1waCcsICc3LjAnLCAnLXRuJywgJzgnLCAnLW1hJywgJzIwMCcsICctbWV0YWxfYmluZGluZycsICctaW1hZScsICc8aW5maWxlLm1hZT4nLCAnLW9tYWUnLCAnPG91dGZpbGUubWFlPic=

> <r_epik_Ionization_Penalty>
1.85306

> <r_epik_Ionization_Penalty_Charging>
1.85306

> <r_epik_Ionization_Penalty_Neutral>
5.78903e-08

> <r_epik_State_Penalty>
1.97071

> <r_epik_Charging_Adjusted_Penalty>
3.82377

> <i_epik_Tot_Q>
1

> <i_epik_Tot_abs_Q>
1

> <r_epik_Metal_State_Penalty>
1.99634

> <b_epik_Metal_Only>
0

> <s_lp_Force_Field>
OPLS_2005

> <r_lp_Energy>
27.2114

> <b_lp_Chiralities_Consistent>
1

> <s_lp_Variant>
AV-unprocessed.smi:951-3

> <Gold.Version>
5.8.1

> <Gold.Id.Protein>
6NUR|6NUR_protein|mol2

> <Gold.PLP.Fitness>
47.8116

> <Gold.PLP.PLP>
-45.4211

> <Gold.PLP.part.hbond>
-1.1827

> <Gold.PLP.part.metal>
0.0000

> <Gold.PLP.part.buried>
-5.8298

> <Gold.PLP.part.nonpolar>
-39.8947

> <Gold.PLP.part.repulsive>
1.4849

> <Gold.PLP.ligand.clash>
0.0000

> <Gold.PLP.ligand.torsion>
0.3499

> <Gold.PLP.Chemscore.Hbond>
1.0000

> <Gold.PLP.Chemscore.CHOScore>
0.0000

> <Gold.PLP.Chemscore.Metal>
0.0000

> <Gold.Chemscore.Hbonds>
donor molecule, donor type, donor heavy atom, donor atom, acceptor molecule, acceptor atom, score
      P1  H  7997  8008       L1    18  1.00

> <Gold.PLP.Chemscore.Internal.Correction>
0.0904

> <Gold.Rescore>
     Score         DG    S(hbond)    S(metal)    S(lipo)     H(rot)  DE(clash)    DE(int)     intcor
     14.27     -18.78       0.99        0.00     121.47       1.65       0.07       4.44       ----

> <Gold.Chemscore.Fitness>
14.2725

> <Gold.Chemscore.DG>
-18.7789

> <Gold.Chemscore.ZeroCoef>
-5.4800

> <Gold.Chemscore.Hbond>
0.9948

> <Gold.Chemscore.Metal>
0.0000

> <Gold.Chemscore.Lipo>
121.4744

> <Gold.Chemscore.Internal_Hbond>
0.0000

> <Gold.Chemscore.DEClash>
0.0679

> <Gold.Chemscore.DEInternal>
4.4385

> <Gold.Chemscore.Rot>
1.6548

> <Gold.Chemscore.Internal.Correction>
   9.000000E+99

> <Gold.Chemscore.Hbonds>
donor molecule, donor type, donor heavy atom, donor atom, acceptor molecule, acceptor atom, score
      P1  H  7997  8008       L1    18  1.00

> <Gold.Chemscore.Hbond.Weighted>
-3.3226

> <Gold.Chemscore.Metal.Weighted>
-0.0000

> <Gold.Chemscore.Lipo.Weighted>
-14.2125

> <Gold.Chemscore.Internal_Hbond.Weighted>
0.0000

> <Gold.Chemscore.DEClash.Weighted>
0.0679

> <Gold.Chemscore.DEInternal.Weighted>
4.4385

> <Gold.Chemscore.Rot.Weighted>
4.2362

> <Gold.Chemscore.Internal.Correction.Weighted>
   9.000000E+99

> <Gold.Protein.RotatedTorsions>
[ 6907 6896 6895 6894 ] final  -56.57 input  -60.11 | X-H torsion
[ 7974 7965 7964 7962 ] final  154.59 input  175.53 | X-H torsion
[ 8008 7997 7996 7995 ] final  -81.81 input   59.86 | X-H torsion
[ 10167 10162 10161 10158 ] final -112.89 input  -65.29 | X-H torsion
[ 10718 10713 10712 10709 ] final  -24.81 input   66.30 | X-H torsion
[ 10763 10752 10751 10750 ] final   71.84 input  -60.55 | X-H torsion
[ 11005 11000 10999 10996 ] final -104.43 input  -57.11 | X-H torsion

> <Gold.Protein.ActiveResidues>
 VAL166  LYS551  ARG553  GLY616  TRP617  ASP618  TYR619  PRO620  LYS621  CYS622 
 ASP623  PHE694  ASN695  SER759  ASP760  ASP761  ALA762  ILE779  LEU786  VAL792 
 PHE793  MET794  SER795  GLU796  ALA797  LYS798  CYS799  TRP800  GLU811  SER814 

> <Gold.Protein.RotatedAtoms>
  150.8156  134.7336  159.6726 H   0  0  0  0  0  0  0  0  0  0  0  0  # atno 6907 bound_to 6896
  152.4275  134.5837  159.9965 H   0  0  0  0  0  0  0  0  0  0  0  0  # atno 6908 bound_to 6896
  151.6035  133.3317  159.3088 H   0  0  0  0  0  0  0  0  0  0  0  0  # atno 6909 bound_to 6896
  144.8078  139.6955  143.6154 H   0  0  0  0  0  0  0  0  0  0  0  0  # atno 7974 bound_to 7965
  154.6021  140.0642  156.9383 H   0  0  0  0  0  0  0  0  0  0  0  0  # atno 8008 bound_to 7997
  155.2114  140.3323  155.4310 H   0  0  0  0  0  0  0  0  0  0  0  0  # atno 8009 bound_to 7997
  156.2325  140.1847  156.7190 H   0  0  0  0  0  0  0  0  0  0  0  0  # atno 8010 bound_to 7997
  140.1178  143.4470  152.1711 H   0  0  0  0  0  0  0  0  0  0  0  0  # atno 10167 bound_to 10162
  156.4726  130.4528  149.6860 H   0  0  0  0  0  0  0  0  0  0  0  0  # atno 10718 bound_to 10713
  153.0423  135.5122  154.7653 H   0  0  0  0  0  0  0  0  0  0  0  0  # atno 10763 bound_to 10752
  154.6581  135.2934  154.9903 H   0  0  0  0  0  0  0  0  0  0  0  0  # atno 10764 bound_to 10752
  154.0764  135.6670  153.4884 H   0  0  0  0  0  0  0  0  0  0  0  0  # atno 10765 bound_to 10752
  141.1101  133.8722  157.1609 H   0  0  0  0  0  0  0  0  0  0  0  0  # atno 11005 bound_to 11000
  146.2373  139.5930  142.9515 LP  0  0  0  0  0  0  0  0  0  0  0  0  # atno 17320 bound_to 7965
  145.5395  141.0422  143.2338 LP  0  0  0  0  0  0  0  0  0  0  0  0  # atno 17321 bound_to 7965
  139.5585  144.7389  151.4224 LP  0  0  0  0  0  0  0  0  0  0  0  0  # atno 17342 bound_to 10162
  140.6889  143.7908  150.7227 LP  0  0  0  0  0  0  0  0  0  0  0  0  # atno 17343 bound_to 10162
  156.3602  130.7478  151.2449 LP  0  0  0  0  0  0  0  0  0  0  0  0  # atno 17370 bound_to 10713
  157.7490  131.0352  150.4353 LP  0  0  0  0  0  0  0  0  0  0  0  0  # atno 17371 bound_to 10713
  139.9990  135.0035  157.0147 LP  0  0  0  0  0  0  0  0  0  0  0  0  # atno 17394 bound_to 11000
  140.4799  134.1300  155.7215 LP  0  0  0  0  0  0  0  0  0  0  0  0  # atno 17395 bound_to 11000

$$$$
