AV-unprocessed.smi:48|AV-procd|sdf|461|dock2
  -GOLD-   2262016333D 1   1.00000     0.00000
 Structure written by MMmdl.
 30 32  0  0  0  0  0  0  0  0  1 V2000
  146.2994  142.6164  153.9255 O   0  0  0  0  0  0  0  0  0  0  0  0
  146.5147  141.7197  154.9945 C   0  0  0  0  0  0  0  0  0  0  0  0
  147.9807  141.7942  155.4558 C   0  0  1  0  0  0  0  0  0  0  0  0
  148.2494  140.8512  156.4885 O   0  0  0  0  0  0  0  0  0  0  0  0
  149.6294  140.6734  156.6097 C   0  0  2  0  0  0  0  0  0  0  0  0
  150.1249  141.5633  157.7079 N   0  0  0  0  0  0  0  0  0  0  0  0
  149.6100  142.7215  158.1751 C   0  0  0  0  0  0  0  0  0  0  0  0
  150.2486  143.3132  159.1846 N   0  0  0  0  0  0  0  0  0  0  0  0
  151.2919  142.4299  159.4079 C   0  0  0  0  0  0  0  0  0  0  0  0
  152.3632  142.4193  160.3341 C   0  0  0  0  0  0  0  0  0  0  0  0
  152.5568  143.6905  161.4848 Cl  0  0  0  0  0  0  0  0  0  0  0  0
  153.2365  141.3842  160.2975 N   0  0  0  0  0  0  0  0  0  0  0  0
  153.0624  140.4097  159.3958 C   0  0  0  0  0  0  0  0  0  0  0  0
  152.1084  140.2852  158.4654 N   0  0  0  0  0  0  0  0  0  0  0  0
  151.2311  141.3314  158.5052 C   0  0  0  0  0  0  0  0  0  0  0  0
  150.2532  141.0998  155.2671 C   0  0  1  0  0  0  0  0  0  0  0  0
  151.0874  140.1090  154.6973 O   0  0  0  0  0  0  0  0  0  0  0  0
  149.0298  141.4121  154.4052 C   0  0  1  0  0  0  0  0  0  0  0  0
  148.5929  140.2930  153.6508 O   0  0  0  0  0  0  0  0  0  0  0  0
  148.2081  142.7993  155.8164 H   0  0  0  0  0  0  0  0  0  0  0  0
  149.8756  139.6618  156.9349 H   0  0  0  0  0  0  0  0  0  0  0  0
  150.8351  142.0123  155.4081 H   0  0  0  0  0  0  0  0  0  0  0  0
  149.2262  142.2317  153.7132 H   0  0  0  0  0  0  0  0  0  0  0  0
  145.9685  143.4285  154.2777 H   0  0  0  0  0  0  0  0  0  0  0  0
  145.8268  141.9354  155.8128 H   0  0  0  0  0  0  0  0  0  0  0  0
  146.2857  140.7175  154.6311 H   0  0  0  0  0  0  0  0  0  0  0  0
  148.7176  143.1608  157.7532 H   0  0  0  0  0  0  0  0  0  0  0  0
  153.7924  139.6140  159.4233 H   0  0  0  0  0  0  0  0  0  0  0  0
  150.5390  139.4259  154.3416 H   0  0  0  0  0  0  0  0  0  0  0  0
  149.1398  140.2221  152.8828 H   0  0  0  0  0  0  0  0  0  0  0  0
  1  2  1  0  0  0  0
  1 24  1  0  0  0  0
  2  3  1  0  0  0  0
  2 25  1  0  0  0  0
  2 26  1  0  0  0  0
  3 20  1  0  0  0  0
  3 18  1  0  0  0  0
  3  4  1  0  0  0  0
  4  5  1  0  0  0  0
  5 21  1  0  0  0  0
  5  6  1  0  0  0  0
  5 16  1  0  0  0  0
  6 15  1  0  0  0  0
  6  7  1  0  0  0  0
  7  8  2  0  0  0  0
  7 27  1  0  0  0  0
  8  9  1  0  0  0  0
  9 15  2  0  0  0  0
  9 10  1  0  0  0  0
 10 11  1  0  0  0  0
 10 12  2  0  0  0  0
 12 13  1  0  0  0  0
 13 14  2  0  0  0  0
 13 28  1  0  0  0  0
 14 15  1  0  0  0  0
 16 22  1  0  0  0  0
 16 17  1  0  0  0  0
 16 18  1  0  0  0  0
 17 29  1  0  0  0  0
 18 23  1  0  0  0  0
 18 19  1  0  0  0  0
 19 30  1  0  0  0  0
M  END
> <s_m_source_file>
AV-unprocessed.smi

> <i_m_source_file_index>
48

> <i_lp_mmshare_version>
43012

> <i_f3d_flags>
0

> <s_epik_input>
W09IXVtDSDJdW0NASF0xT1tDQEhdKFtDQEhdKFtPSF0pW0NAQEhdMVtPSF0pbihbY0hdbjIpYyhjMjMpbltjSF1uYzNDbA==

> <s_epik_cmdline>
J2VwaWtfcHl0aG9uJywgJy1waCcsICc3LjAnLCAnLXRuJywgJzgnLCAnLW1hJywgJzIwMCcsICctbWV0YWxfYmluZGluZycsICctaW1hZScsICc8aW5maWxlLm1hZT4nLCAnLW9tYWUnLCAnPG91dGZpbGUubWFlPic=

> <r_lp_tautomer_probability>
1

> <r_epik_Ionization_Penalty>
3.45505e-06

> <r_epik_Ionization_Penalty_Charging>
0

> <r_epik_Ionization_Penalty_Neutral>
3.45505e-06

> <r_epik_State_Penalty>
-0

> <r_epik_Charging_Adjusted_Penalty>
0

> <i_epik_Tot_Q>
0

> <i_epik_Tot_abs_Q>
0

> <r_epik_Metal_State_Penalty>
-0

> <b_epik_Metal_Only>
0

> <s_epik_Chemistry_Notes>
This compound contains an acetal/aminal-like group ( X-CH(R)-Y where X, Y are N, S, or O) that may be acid/base labile, releasing an aldehyde.

> <s_lp_Force_Field>
OPLS_2005

> <r_lp_Energy>
38.2719

> <b_lp_Chiralities_Consistent>
1

> <s_lp_Variant>
AV-unprocessed.smi:48-15

> <Gold.Version>
5.8.1

> <Gold.Id.Protein>
6NUR|6NUR_protein|mol2

> <Gold.PLP.Fitness>
36.7082

> <Gold.PLP.PLP>
-30.0154

> <Gold.PLP.part.hbond>
-2.0119

> <Gold.PLP.part.metal>
0.0000

> <Gold.PLP.part.buried>
-3.3440

> <Gold.PLP.part.nonpolar>
-22.9181

> <Gold.PLP.part.repulsive>
0.1624

> <Gold.PLP.ligand.clash>
0.0000

> <Gold.PLP.ligand.torsion>
0.7426

> <Gold.PLP.Chemscore.Hbond>
2.0000

> <Gold.PLP.Chemscore.CHOScore>
0.7185

> <Gold.PLP.Chemscore.Metal>
0.0000

> <Gold.Chemscore.Hbonds>
donor molecule, donor type, donor heavy atom, donor atom, acceptor molecule, acceptor atom, score
      L1  H    19    30       P1  7957  1.00
      P1  H  7989  7998       L1    17  0.98
      L1  C     7    27       P1  8028  0.63

> <Gold.PLP.Chemscore.Internal.Correction>
0.0226

> <Gold.Rescore>
     Score         DG    S(hbond)    S(metal)    S(lipo)     H(rot)  DE(clash)    DE(int)     intcor
      6.56      -7.27       1.48        0.00      56.23       3.80       0.26       0.45       ----

> <Gold.Chemscore.Fitness>
6.5594

> <Gold.Chemscore.DG>
-7.2708

> <Gold.Chemscore.ZeroCoef>
-5.4800

> <Gold.Chemscore.Hbond>
1.4802

> <Gold.Chemscore.Metal>
0.0000

> <Gold.Chemscore.Lipo>
56.2328

> <Gold.Chemscore.Internal_Hbond>
0.0000

> <Gold.Chemscore.DEClash>
0.2642

> <Gold.Chemscore.DEInternal>
0.4472

> <Gold.Chemscore.Rot>
3.8017

> <Gold.Chemscore.Internal.Correction>
   9.000000E+99

> <Gold.Chemscore.Hbonds>
donor molecule, donor type, donor heavy atom, donor atom, acceptor molecule, acceptor atom, score
      L1  H    19    30       P1  7957  1.00
      P1  H  7989  7998       L1    17  0.13

> <Gold.Chemscore.Hbond.Weighted>
-4.9439

> <Gold.Chemscore.Metal.Weighted>
-0.0000

> <Gold.Chemscore.Lipo.Weighted>
-6.5792

> <Gold.Chemscore.Internal_Hbond.Weighted>
0.0000

> <Gold.Chemscore.DEClash.Weighted>
0.2642

> <Gold.Chemscore.DEInternal.Weighted>
0.4472

> <Gold.Chemscore.Rot.Weighted>
9.7324

> <Gold.Chemscore.Internal.Correction.Weighted>
   9.000000E+99

> <Gold.Protein.RotatedTorsions>
[ 6907 6896 6895 6894 ] final  102.66 input  -60.11 | X-H torsion
[ 7974 7965 7964 7962 ] final  158.33 input  175.53 | X-H torsion
[ 8008 7997 7996 7995 ] final  -69.65 input   59.86 | X-H torsion
[ 10167 10162 10161 10158 ] final   -5.00 input  -65.29 | X-H torsion
[ 10718 10713 10712 10709 ] final  -75.72 input   66.30 | X-H torsion
[ 10763 10752 10751 10750 ] final -174.69 input  -60.55 | X-H torsion
[ 11005 11000 10999 10996 ] final  -23.09 input  -57.11 | X-H torsion

> <Gold.Protein.ActiveResidues>
 VAL166  LYS551  ARG553  GLY616  TRP617  ASP618  TYR619  PRO620  LYS621  CYS622 
 ASP623  PHE694  ASN695  SER759  ASP760  ASP761  ALA762  ILE779  LEU786  VAL792 
 PHE793  MET794  SER795  GLU796  ALA797  LYS798  CYS799  TRP800  GLU811  SER814 

> <Gold.Protein.RotatedAtoms>
  152.5317  133.9942  159.7864 H   0  0  0  0  0  0  0  0  0  0  0  0  # atno 6907 bound_to 6896
  151.0172  133.5902  159.2682 H   0  0  0  0  0  0  0  0  0  0  0  0  # atno 6908 bound_to 6896
  151.2954  135.0760  159.9273 H   0  0  0  0  0  0  0  0  0  0  0  0  # atno 6909 bound_to 6896
  144.7852  139.7464  143.6244 H   0  0  0  0  0  0  0  0  0  0  0  0  # atno 7974 bound_to 7965
  154.4954  140.0849  156.7685 H   0  0  0  0  0  0  0  0  0  0  0  0  # atno 8008 bound_to 7997
  155.4130  140.3442  155.4247 H   0  0  0  0  0  0  0  0  0  0  0  0  # atno 8009 bound_to 7997
  156.1386  140.1522  156.8943 H   0  0  0  0  0  0  0  0  0  0  0  0  # atno 8010 bound_to 7997
  140.6948  143.6358  150.8480 H   0  0  0  0  0  0  0  0  0  0  0  0  # atno 10167 bound_to 10162
  156.0198  130.4448  150.3086 H   0  0  0  0  0  0  0  0  0  0  0  0  # atno 10718 bound_to 10713
  154.5932  135.2847  155.0613 H   0  0  0  0  0  0  0  0  0  0  0  0  # atno 10763 bound_to 10752
  154.1906  135.6441  153.5063 H   0  0  0  0  0  0  0  0  0  0  0  0  # atno 10764 bound_to 10752
  153.0129  135.5445  154.6625 H   0  0  0  0  0  0  0  0  0  0  0  0  # atno 10765 bound_to 10752
  140.8719  133.7714  156.0197 H   0  0  0  0  0  0  0  0  0  0  0  0  # atno 11005 bound_to 11000
  146.2080  139.5417  142.9700 LP  0  0  0  0  0  0  0  0  0  0  0  0  # atno 17320 bound_to 7965
  145.5942  141.0365  143.2053 LP  0  0  0  0  0  0  0  0  0  0  0  0  # atno 17321 bound_to 7965
  140.0075  143.5678  152.2852 LP  0  0  0  0  0  0  0  0  0  0  0  0  # atno 17342 bound_to 10162
  139.6390  144.7653  151.2379 LP  0  0  0  0  0  0  0  0  0  0  0  0  # atno 17343 bound_to 10162
  157.1188  131.0241  151.3018 LP  0  0  0  0  0  0  0  0  0  0  0  0  # atno 17370 bound_to 10713
  157.4645  130.7672  149.7266 LP  0  0  0  0  0  0  0  0  0  0  0  0  # atno 17371 bound_to 10713
  140.8563  134.2894  157.5254 LP  0  0  0  0  0  0  0  0  0  0  0  0  # atno 17394 bound_to 11000
  139.8713  134.9494  156.4026 LP  0  0  0  0  0  0  0  0  0  0  0  0  # atno 17395 bound_to 11000

$$$$
