AV-unprocessed.smi:21|AV-procd|sdf|125|dock10
  -GOLD-   2262015303D 1   1.00000     0.00000
 Structure written by MMmdl.
 62 65  0  0  0  0  0  0  0  0  2 V2000
  145.6703  131.6088  150.4648 C   0  0  0  0  0  0  0  0  0  0  0  0
  146.2238  131.9554  151.7241 O   0  0  0  0  0  0  0  0  0  0  0  0
  145.7211  133.1762  152.2466 C   0  0  1  0  0  0  0  0  0  0  0  0
  146.3498  133.4774  153.6003 C   0  0  0  0  0  0  0  0  0  0  0  0
  146.1703  134.9923  153.7343 C   0  0  1  0  0  0  0  0  0  0  0  0
  147.1827  135.6446  154.6995 C   0  0  0  0  0  0  0  0  0  0  0  0
  146.5829  136.6281  155.5993 N   0  0  0  0  0  0  0  0  0  0  0  0
  145.5510  136.1231  156.4933 C   0  0  0  0  0  0  0  0  0  0  0  0
  147.4592  137.4228  156.2519 C   0  0  0  0  0  0  0  0  0  0  0  0
  147.4137  137.4122  157.6062 N   0  0  0  0  0  0  0  0  0  0  0  0
  148.2516  138.1819  158.3079 C   0  0  0  0  0  0  0  0  0  0  0  0
  149.1927  139.0164  157.8599 N   0  0  0  0  0  0  0  0  0  0  0  0
  149.2432  139.0227  156.4969 C   0  0  0  0  0  0  0  0  0  0  0  0
  148.4174  138.2650  155.6203 C   0  0  0  0  0  0  0  0  0  0  0  0
  148.7546  138.5346  154.2992 N   0  0  0  0  0  0  0  0  0  0  0  0
  149.7278  139.3997  154.3897 C   0  0  0  0  0  0  0  0  0  0  0  0
  150.0900  139.7426  155.6731 N   0  0  0  0  0  0  0  0  0  0  0  0
  151.1345  140.6736  156.0645 C   0  0  0  0  0  0  0  0  0  0  0  0
  151.2297  140.8781  157.6002 C   0  0  1  0  0  0  0  0  0  0  0  0
  151.8567  139.6540  158.3116 C   0  0  0  0  0  0  0  0  0  0  0  0
  153.1838  139.4329  157.8816 O   0  0  0  0  0  0  0  0  0  0  0  0
  151.9346  142.2015  158.0124 C   0  0  2  0  0  0  0  0  0  0  0  0
  152.0663  142.4711  159.5005 C   0  0  0  0  0  0  0  0  0  0  0  0
  152.4691  143.9417  159.5004 C   0  0  0  0  0  0  0  0  0  0  0  0
  151.7677  144.5248  158.4061 O   0  0  0  0  0  0  0  0  0  0  0  0
  151.3030  143.5083  157.5204 C   0  0  0  0  0  0  0  0  0  0  0  0
  146.3183  135.5203  152.3576 N   0  3  2  0  0  0  0  0  0  0  0  0
  145.4836  136.7083  152.0738 C   0  0  0  0  0  0  0  0  0  0  0  0
  146.1108  134.4008  151.4084 C   0  0  0  0  0  0  0  0  0  0  0  0
  144.6367  133.1320  152.3661 H   0  0  0  0  0  0  0  0  0  0  0  0
  145.1466  135.1864  154.0604 H   0  0  0  0  0  0  0  0  0  0  0  0
  146.0862  130.6575  150.1332 H   0  0  0  0  0  0  0  0  0  0  0  0
  145.9011  132.3561  149.7050 H   0  0  0  0  0  0  0  0  0  0  0  0
  144.5874  131.4966  150.5277 H   0  0  0  0  0  0  0  0  0  0  0  0
  145.8859  132.9206  154.4152 H   0  0  0  0  0  0  0  0  0  0  0  0
  147.4109  133.2235  153.5817 H   0  0  0  0  0  0  0  0  0  0  0  0
  147.6572  134.8693  155.3024 H   0  0  0  0  0  0  0  0  0  0  0  0
  147.9865  136.1168  154.1351 H   0  0  0  0  0  0  0  0  0  0  0  0
  145.1282  136.9263  157.0987 H   0  0  0  0  0  0  0  0  0  0  0  0
  145.9520  135.3613  157.1632 H   0  0  0  0  0  0  0  0  0  0  0  0
  144.7389  135.6776  155.9180 H   0  0  0  0  0  0  0  0  0  0  0  0
  148.1559  138.1190  159.3819 H   0  0  0  0  0  0  0  0  0  0  0  0
  150.2164  139.8088  153.5173 H   0  0  0  0  0  0  0  0  0  0  0  0
  152.0785  140.3052  155.6643 H   0  0  0  0  0  0  0  0  0  0  0  0
  150.9269  141.6145  155.5568 H   0  0  0  0  0  0  0  0  0  0  0  0
  150.2034  140.9547  157.9628 H   0  0  0  0  0  0  0  0  0  0  0  0
  151.8978  139.8003  159.3904 H   0  0  0  0  0  0  0  0  0  0  0  0
  151.2648  138.7553  158.1365 H   0  0  0  0  0  0  0  0  0  0  0  0
  153.4687  138.5917  158.2050 H   0  0  0  0  0  0  0  0  0  0  0  0
  152.9536  142.1728  157.6230 H   0  0  0  0  0  0  0  0  0  0  0  0
  151.1144  142.3636  160.0185 H   0  0  0  0  0  0  0  0  0  0  0  0
  152.7991  141.8294  159.9905 H   0  0  0  0  0  0  0  0  0  0  0  0
  152.2324  144.4419  160.4398 H   0  0  0  0  0  0  0  0  0  0  0  0
  153.5405  144.0430  159.3224 H   0  0  0  0  0  0  0  0  0  0  0  0
  151.5753  143.7338  156.4890 H   0  0  0  0  0  0  0  0  0  0  0  0
  150.2161  143.4850  157.5822 H   0  0  0  0  0  0  0  0  0  0  0  0
  144.4214  136.4697  152.1457 H   0  0  0  0  0  0  0  0  0  0  0  0
  145.6834  137.0822  151.0693 H   0  0  0  0  0  0  0  0  0  0  0  0
  145.7037  137.5099  152.7797 H   0  0  0  0  0  0  0  0  0  0  0  0
  147.0576  134.2244  150.8961 H   0  0  0  0  0  0  0  0  0  0  0  0
  145.3621  134.6203  150.6457 H   0  0  0  0  0  0  0  0  0  0  0  0
  147.2834  135.8000  152.2543 H   0  0  0  0  0  0  0  0  0  0  0  0
  1  2  1  0  0  0  0
  1 32  1  0  0  0  0
  1 33  1  0  0  0  0
  1 34  1  0  0  0  0
  2  3  1  0  0  0  0
  3 30  1  0  0  0  0
  3 29  1  0  0  0  0
  3  4  1  0  0  0  0
  4  5  1  0  0  0  0
  4 35  1  0  0  0  0
  4 36  1  0  0  0  0
  5 31  1  0  0  0  0
  5  6  1  0  0  0  0
  5 27  1  0  0  0  0
  6  7  1  0  0  0  0
  6 37  1  0  0  0  0
  6 38  1  0  0  0  0
  7  8  1  0  0  0  0
  7  9  1  0  0  0  0
  8 39  1  0  0  0  0
  8 40  1  0  0  0  0
  8 41  1  0  0  0  0
  9 14  1  0  0  0  0
  9 10  2  0  0  0  0
 10 11  1  0  0  0  0
 11 12  2  0  0  0  0
 11 42  1  0  0  0  0
 12 13  1  0  0  0  0
 13 17  1  0  0  0  0
 13 14  2  0  0  0  0
 14 15  1  0  0  0  0
 15 16  2  0  0  0  0
 16 17  1  0  0  0  0
 16 43  1  0  0  0  0
 17 18  1  0  0  0  0
 18 19  1  0  0  0  0
 18 44  1  0  0  0  0
 18 45  1  0  0  0  0
 19 20  1  0  0  0  0
 19 22  1  0  0  0  0
 19 46  1  0  0  0  0
 20 21  1  0  0  0  0
 20 47  1  0  0  0  0
 20 48  1  0  0  0  0
 21 49  1  0  0  0  0
 22 26  1  0  0  0  0
 22 23  1  0  0  0  0
 22 50  1  0  0  0  0
 23 24  1  0  0  0  0
 23 51  1  0  0  0  0
 23 52  1  0  0  0  0
 24 25  1  0  0  0  0
 24 53  1  0  0  0  0
 24 54  1  0  0  0  0
 25 26  1  0  0  0  0
 26 55  1  0  0  0  0
 26 56  1  0  0  0  0
 27 28  1  0  0  0  0
 27 29  1  0  0  0  0
 27 62  1  0  0  0  0
 28 57  1  0  0  0  0
 28 58  1  0  0  0  0
 28 59  1  0  0  0  0
 29 60  1  0  0  0  0
 29 61  1  0  0  0  0
M  CHG  1  27   1
M  END
> <s_m_source_file>
AV-unprocessed.smi

> <i_m_source_file_index>
21

> <i_lp_mmshare_version>
43012

> <i_f3d_flags>
0

> <s_epik_input>
W0NIM11PW0NASF0xW0NIMl1bQ0BIXShOKFtDSDNdKVtDSDJdMSlbQ0gyXU4oW0NIM10pYyhuW2NIXW4yKWMoYzIzKW5bY0hdbjNbQ0gyXVtDQEhdKFtDSDJdW09IXSlbQ0BASF00W0NIMl1bQ0gyXU9bQ0gyXTQ=

> <s_epik_cmdline>
J2VwaWtfcHl0aG9uJywgJy1waCcsICc3LjAnLCAnLXRuJywgJzgnLCAnLW1hJywgJzIwMCcsICctbWV0YWxfYmluZGluZycsICctaW1hZScsICc8aW5maWxlLm1hZT4nLCAnLW9tYWUnLCAnPG91dGZpbGUubWFlPic=

> <r_lp_tautomer_probability>
1

> <r_epik_Ionization_Penalty>
0.0157465

> <r_epik_Ionization_Penalty_Charging>
0.015354

> <r_epik_Ionization_Penalty_Neutral>
0.000392529

> <r_epik_State_Penalty>
0.0120612

> <r_epik_Charging_Adjusted_Penalty>
0.0274152

> <i_epik_Tot_Q>
1

> <i_epik_Tot_abs_Q>
1

> <r_epik_Metal_State_Penalty>
0.0121253

> <b_epik_Metal_Only>
0

> <s_lp_Force_Field>
OPLS_2005

> <r_lp_Energy>
61.1599

> <b_lp_Chiralities_Consistent>
1

> <s_lp_Variant>
AV-unprocessed.smi:21-5

> <Gold.Version>
5.8.1

> <Gold.Id.Protein>
6NUR|6NUR_protein|mol2

> <Gold.PLP.Fitness>
48.4989

> <Gold.PLP.PLP>
-37.7812

> <Gold.PLP.part.hbond>
-2.0000

> <Gold.PLP.part.metal>
0.0000

> <Gold.PLP.part.buried>
-5.9097

> <Gold.PLP.part.nonpolar>
-29.9671

> <Gold.PLP.part.repulsive>
0.4388

> <Gold.PLP.ligand.clash>
0.0000

> <Gold.PLP.ligand.torsion>
1.0334

> <Gold.PLP.Chemscore.Hbond>
3.0000

> <Gold.PLP.Chemscore.CHOScore>
1.0000

> <Gold.PLP.Chemscore.Metal>
0.0000

> <Gold.Chemscore.Hbonds>
donor molecule, donor type, donor heavy atom, donor atom, acceptor molecule, acceptor atom, score
      L1  H    27    62       P1  7948  2.00
      P1  H  7997  8008       L1    21  1.00
      L1  C    16    43       P1  7957  1.00

> <Gold.PLP.Chemscore.Internal.Correction>
0.7846

> <Gold.Rescore>
     Score         DG    S(hbond)    S(metal)    S(lipo)     H(rot)  DE(clash)    DE(int)     intcor
     10.41     -14.50       1.94        0.00      94.79       3.35       0.06       4.03       ----

> <Gold.Chemscore.Fitness>
10.4100

> <Gold.Chemscore.DG>
-14.4970

> <Gold.Chemscore.ZeroCoef>
-5.4800

> <Gold.Chemscore.Hbond>
1.9433

> <Gold.Chemscore.Metal>
0.0000

> <Gold.Chemscore.Lipo>
94.7875

> <Gold.Chemscore.Internal_Hbond>
0.0000

> <Gold.Chemscore.DEClash>
0.0615

> <Gold.Chemscore.DEInternal>
4.0254

> <Gold.Chemscore.Rot>
3.3452

> <Gold.Chemscore.Internal.Correction>
   9.000000E+99

> <Gold.Chemscore.Hbonds>
donor molecule, donor type, donor heavy atom, donor atom, acceptor molecule, acceptor atom, score
      L1  H    27    62       P1  7948  1.00
      P1  H  7997  8008       L1    21  0.45

> <Gold.Chemscore.Hbond.Weighted>
-6.4905

> <Gold.Chemscore.Metal.Weighted>
-0.0000

> <Gold.Chemscore.Lipo.Weighted>
-11.0901

> <Gold.Chemscore.Internal_Hbond.Weighted>
0.0000

> <Gold.Chemscore.DEClash.Weighted>
0.0615

> <Gold.Chemscore.DEInternal.Weighted>
4.0254

> <Gold.Chemscore.Rot.Weighted>
8.5636

> <Gold.Chemscore.Internal.Correction.Weighted>
   9.000000E+99

> <Gold.Protein.RotatedTorsions>
[ 6907 6896 6895 6894 ] final    1.20 input  -60.11 | X-H torsion
[ 7974 7965 7964 7962 ] final -148.10 input  175.53 | X-H torsion
[ 8008 7997 7996 7995 ] final  -85.14 input   59.86 | X-H torsion
[ 10167 10162 10161 10158 ] final -178.00 input  -65.29 | X-H torsion
[ 10718 10713 10712 10709 ] final  -34.67 input   66.30 | X-H torsion
[ 10763 10752 10751 10750 ] final   57.27 input  -60.55 | X-H torsion
[ 11005 11000 10999 10996 ] final  -54.85 input  -57.11 | X-H torsion

> <Gold.Protein.ActiveResidues>
 VAL166  LYS551  ARG553  GLY616  TRP617  ASP618  TYR619  PRO620  LYS621  CYS622 
 ASP623  PHE694  ASN695  SER759  ASP760  ASP761  ALA762  ILE779  LEU786  VAL792 
 PHE793  MET794  SER795  GLU796  ALA797  LYS798  CYS799  TRP800  GLU811  SER814 

> <Gold.Protein.RotatedAtoms>
  151.5889  135.1054  160.0034 H   0  0  0  0  0  0  0  0  0  0  0  0  # atno 6907 bound_to 6896
  152.4316  133.7284  159.6584 H   0  0  0  0  0  0  0  0  0  0  0  0  # atno 6908 bound_to 6896
  150.8209  133.8183  159.3162 H   0  0  0  0  0  0  0  0  0  0  0  0  # atno 6909 bound_to 6896
  144.8051  140.5241  143.5680 H   0  0  0  0  0  0  0  0  0  0  0  0  # atno 7974 bound_to 7965
  154.6375  140.0595  156.9806 H   0  0  0  0  0  0  0  0  0  0  0  0  # atno 8008 bound_to 7997
  155.1569  140.3279  155.4401 H   0  0  0  0  0  0  0  0  0  0  0  0  # atno 8009 bound_to 7997
  156.2514  140.1937  156.6678 H   0  0  0  0  0  0  0  0  0  0  0  0  # atno 8010 bound_to 7997
  139.5453  144.2253  152.0975 H   0  0  0  0  0  0  0  0  0  0  0  0  # atno 10167 bound_to 10162
  156.3478  130.4303  149.7731 H   0  0  0  0  0  0  0  0  0  0  0  0  # atno 10718 bound_to 10713
  152.9847  135.5647  154.5363 H   0  0  0  0  0  0  0  0  0  0  0  0  # atno 10763 bound_to 10752
  154.4825  135.2789  155.1561 H   0  0  0  0  0  0  0  0  0  0  0  0  # atno 10764 bound_to 10752
  154.3064  135.6297  153.5500 H   0  0  0  0  0  0  0  0  0  0  0  0  # atno 10765 bound_to 10752
  141.1046  133.6614  156.4382 H   0  0  0  0  0  0  0  0  0  0  0  0  # atno 11005 bound_to 11000
  145.5458  139.1476  143.3422 LP  0  0  0  0  0  0  0  0  0  0  0  0  # atno 17320 bound_to 7965
  146.2341  140.5597  142.8962 LP  0  0  0  0  0  0  0  0  0  0  0  0  # atno 17321 bound_to 7965
  140.1738  144.4910  150.6565 LP  0  0  0  0  0  0  0  0  0  0  0  0  # atno 17342 bound_to 10162
  140.6698  143.2281  151.5652 LP  0  0  0  0  0  0  0  0  0  0  0  0  # atno 17343 bound_to 10162
  156.4943  130.8099  151.3107 LP  0  0  0  0  0  0  0  0  0  0  0  0  # atno 17370 bound_to 10713
  157.7456  130.9965  150.2783 LP  0  0  0  0  0  0  0  0  0  0  0  0  # atno 17371 bound_to 10713
  140.4936  134.6552  157.5220 LP  0  0  0  0  0  0  0  0  0  0  0  0  # atno 17394 bound_to 11000
  139.9910  134.6985  155.9689 LP  0  0  0  0  0  0  0  0  0  0  0  0  # atno 17395 bound_to 11000

$$$$
