AV-unprocessed.smi:1183|AV-procd|sdf|4968|dock6
  -GOLD-   22720 3563D 1   1.00000     0.00000
 Structure written by MMmdl.
 42 43  0  0  0  0  0  0  0  0  1 V2000
  147.5466  140.8066  154.6353 C   0  0  0  0  0  0  0  0  0  0  0  0
  149.0346  140.5722  154.3649 C   0  0  0  0  0  0  0  0  0  0  0  0
  149.5701  141.2261  153.4697 O   0  0  0  0  0  0  0  0  0  0  0  0
  149.7066  139.6579  155.1051 N   0  0  0  0  0  0  0  0  0  0  0  0
  151.1419  139.3697  155.0016 C   0  0  0  0  0  0  0  0  0  0  0  0
  151.8500  139.9291  156.2477 C   0  0  0  0  0  0  0  0  0  0  0  0
  151.2349  139.3615  157.5484 C   0  0  0  0  0  0  0  0  0  0  0  0
  151.7705  140.0566  158.7147 N   0  0  0  0  0  0  0  0  0  0  0  0
  153.0286  139.9561  159.1697 C   0  0  0  0  0  0  0  0  0  0  0  0
  153.8812  139.2417  158.6395 O   0  0  0  0  0  0  0  0  0  0  0  0
  153.3526  140.7974  160.4107 C   0  0  0  0  0  0  0  0  0  0  0  0
  152.8035  142.1448  160.3462 N   0  0  0  0  0  0  0  0  0  0  0  0
  152.4170  142.6416  159.1508 N   0  0  0  0  0  0  0  0  0  0  0  0
  151.9752  143.8598  159.4163 C   0  0  0  0  0  0  0  0  0  0  0  0
  151.4603  144.7175  158.2983 C   0  0  0  0  0  0  0  0  0  0  0  0
  152.0649  144.1759  160.8008 C   0  0  0  0  0  0  0  0  0  0  0  0
  152.6020  143.0552  161.3685 C   0  0  0  0  0  0  0  0  0  0  0  0
  152.9453  142.7656  162.7927 C   0  0  0  0  0  0  0  0  0  0  0  0
  149.6947  139.4751  157.5427 C   0  0  0  0  0  0  0  0  0  0  0  0
  149.0942  138.9413  156.2294 C   0  0  0  0  0  0  0  0  0  0  0  0
  146.9810  139.8816  154.5189 H   0  0  0  0  0  0  0  0  0  0  0  0
  147.1391  141.5352  153.9335 H   0  0  0  0  0  0  0  0  0  0  0  0
  147.3927  141.1928  155.6431 H   0  0  0  0  0  0  0  0  0  0  0  0
  151.2875  138.2899  154.9461 H   0  0  0  0  0  0  0  0  0  0  0  0
  151.6039  139.7696  154.1003 H   0  0  0  0  0  0  0  0  0  0  0  0
  152.9147  139.6976  156.2020 H   0  0  0  0  0  0  0  0  0  0  0  0
  151.7706  141.0175  156.2448 H   0  0  0  0  0  0  0  0  0  0  0  0
  151.4873  138.3013  157.6155 H   0  0  0  0  0  0  0  0  0  0  0  0
  151.1356  140.6647  159.2114 H   0  0  0  0  0  0  0  0  0  0  0  0
  152.9643  140.2955  161.2985 H   0  0  0  0  0  0  0  0  0  0  0  0
  154.4339  140.8640  160.5329 H   0  0  0  0  0  0  0  0  0  0  0  0
  151.1361  145.6911  158.6663 H   0  0  0  0  0  0  0  0  0  0  0  0
  150.6086  144.2493  157.8042 H   0  0  0  0  0  0  0  0  0  0  0  0
  152.2315  144.8874  157.5466 H   0  0  0  0  0  0  0  0  0  0  0  0
  151.7799  145.0892  161.3016 H   0  0  0  0  0  0  0  0  0  0  0  0
  152.7325  143.6261  163.4272 H   0  0  0  0  0  0  0  0  0  0  0  0
  154.0039  142.5267  162.8968 H   0  0  0  0  0  0  0  0  0  0  0  0
  152.3674  141.9210  163.1683 H   0  0  0  0  0  0  0  0  0  0  0  0
  149.2767  138.9319  158.3910 H   0  0  0  0  0  0  0  0  0  0  0  0
  149.3999  140.5183  157.6682 H   0  0  0  0  0  0  0  0  0  0  0  0
  148.0079  139.0381  156.2510 H   0  0  0  0  0  0  0  0  0  0  0  0
  149.2944  137.8733  156.1312 H   0  0  0  0  0  0  0  0  0  0  0  0
  1  2  1  0  0  0  0
  1 21  1  0  0  0  0
  1 22  1  0  0  0  0
  1 23  1  0  0  0  0
  2  3  2  0  0  0  0
  2  4  1  0  0  0  0
  4 20  1  0  0  0  0
  4  5  1  0  0  0  0
  5  6  1  0  0  0  0
  5 24  1  0  0  0  0
  5 25  1  0  0  0  0
  6  7  1  0  0  0  0
  6 26  1  0  0  0  0
  6 27  1  0  0  0  0
  7  8  1  0  0  0  0
  7 19  1  0  0  0  0
  7 28  1  0  0  0  0
  8  9  1  0  0  0  0
  8 29  1  0  0  0  0
  9 10  2  0  0  0  0
  9 11  1  0  0  0  0
 11 12  1  0  0  0  0
 11 30  1  0  0  0  0
 11 31  1  0  0  0  0
 12 17  1  0  0  0  0
 12 13  1  0  0  0  0
 13 14  2  0  0  0  0
 14 15  1  0  0  0  0
 14 16  1  0  0  0  0
 15 32  1  0  0  0  0
 15 33  1  0  0  0  0
 15 34  1  0  0  0  0
 16 17  2  0  0  0  0
 16 35  1  0  0  0  0
 17 18  1  0  0  0  0
 18 36  1  0  0  0  0
 18 37  1  0  0  0  0
 18 38  1  0  0  0  0
 19 20  1  0  0  0  0
 19 39  1  0  0  0  0
 19 40  1  0  0  0  0
 20 41  1  0  0  0  0
 20 42  1  0  0  0  0
M  END
> <s_m_source_file>
AV-unprocessed.smi

> <i_m_source_file_index>
1183

> <i_lp_mmshare_version>
43012

> <i_f3d_flags>
0

> <s_epik_input>
W0NIM11DKD1PKU4xW0NIMl1bQ0gyXVtDSF0oW0NIMl1bQ0gyXTEpW05IXUMoPU8pW0NIMl1uMm5jKFtDSDNdKVtjSF1jMltDSDNd

> <s_epik_cmdline>
J2VwaWtfcHl0aG9uJywgJy1waCcsICc3LjAnLCAnLXRuJywgJzgnLCAnLW1hJywgJzIwMCcsICctbWV0YWxfYmluZGluZycsICctaW1hZScsICc8aW5maWxlLm1hZT4nLCAnLW9tYWUnLCAnPG91dGZpbGUubWFlPic=

> <r_lp_tautomer_probability>
1

> <r_epik_Ionization_Penalty>
0.000413777

> <r_epik_Ionization_Penalty_Charging>
0

> <r_epik_Ionization_Penalty_Neutral>
0.000413777

> <r_epik_State_Penalty>
-0

> <r_epik_Charging_Adjusted_Penalty>
0

> <i_epik_Tot_Q>
0

> <i_epik_Tot_abs_Q>
0

> <r_epik_Metal_State_Penalty>
-0

> <b_epik_Metal_Only>
0

> <s_lp_Force_Field>
OPLS_2005

> <r_lp_Energy>
21.0351

> <b_lp_Chiralities_Consistent>
1

> <s_lp_Variant>
AV-unprocessed.smi:1183-1

> <Gold.Version>
5.8.1

> <Gold.Id.Protein>
6NUR|6NUR_protein|mol2

> <Gold.PLP.Fitness>
49.1735

> <Gold.PLP.PLP>
-43.9255

> <Gold.PLP.part.hbond>
-3.0000

> <Gold.PLP.part.metal>
0.0000

> <Gold.PLP.part.buried>
-5.9689

> <Gold.PLP.part.nonpolar>
-37.8751

> <Gold.PLP.part.repulsive>
3.4515

> <Gold.PLP.ligand.clash>
0.0000

> <Gold.PLP.ligand.torsion>
0.5887

> <Gold.PLP.Chemscore.Hbond>
2.1355

> <Gold.PLP.Chemscore.CHOScore>
0.0000

> <Gold.PLP.Chemscore.Metal>
0.0000

> <Gold.Chemscore.Hbonds>
donor molecule, donor type, donor heavy atom, donor atom, acceptor molecule, acceptor atom, score
      P1  H  7989  7998       L1     3  0.15
      P1  H  7997  8010       L1    10  1.00
      P1  H  8011  8017       L1     3  1.00

> <Gold.PLP.Chemscore.Internal.Correction>
0.0188

> <Gold.Rescore>
     Score         DG    S(hbond)    S(metal)    S(lipo)     H(rot)  DE(clash)    DE(int)     intcor
     17.21     -20.85       2.28        0.00      97.10       1.41       1.63       2.01       ----

> <Gold.Chemscore.Fitness>
17.2115

> <Gold.Chemscore.DG>
-20.8517

> <Gold.Chemscore.ZeroCoef>
-5.4800

> <Gold.Chemscore.Hbond>
2.2787

> <Gold.Chemscore.Metal>
0.0000

> <Gold.Chemscore.Lipo>
97.1044

> <Gold.Chemscore.Internal_Hbond>
0.0000

> <Gold.Chemscore.DEClash>
1.6314

> <Gold.Chemscore.DEInternal>
2.0088

> <Gold.Chemscore.Rot>
1.4064

> <Gold.Chemscore.Internal.Correction>
   9.000000E+99

> <Gold.Chemscore.Hbonds>
donor molecule, donor type, donor heavy atom, donor atom, acceptor molecule, acceptor atom, score
      P1  H  7989  7998       L1     3  0.12
      P1  H  7997  8010       L1    10  0.91
      P1  H  8011  8017       L1     3  0.94

> <Gold.Chemscore.Hbond.Weighted>
-7.6108

> <Gold.Chemscore.Metal.Weighted>
-0.0000

> <Gold.Chemscore.Lipo.Weighted>
-11.3612

> <Gold.Chemscore.Internal_Hbond.Weighted>
0.0000

> <Gold.Chemscore.DEClash.Weighted>
1.6314

> <Gold.Chemscore.DEInternal.Weighted>
2.0088

> <Gold.Chemscore.Rot.Weighted>
3.6003

> <Gold.Chemscore.Internal.Correction.Weighted>
   9.000000E+99

> <Gold.Protein.RotatedTorsions>
[ 6907 6896 6895 6894 ] final  105.64 input  -60.11 | X-H torsion
[ 7974 7965 7964 7962 ] final -134.80 input  175.53 | X-H torsion
[ 8008 7997 7996 7995 ] final   23.67 input   59.86 | X-H torsion
[ 10167 10162 10161 10158 ] final -101.93 input  -65.29 | X-H torsion
[ 10718 10713 10712 10709 ] final   -7.77 input   66.30 | X-H torsion
[ 10763 10752 10751 10750 ] final  -18.43 input  -60.55 | X-H torsion
[ 11005 11000 10999 10996 ] final -104.79 input  -57.11 | X-H torsion

> <Gold.Protein.ActiveResidues>
 VAL166  LYS551  ARG553  GLY616  TRP617  ASP618  TYR619  PRO620  LYS621  CYS622 
 ASP623  PHE694  ASN695  SER759  ASP760  ASP761  ALA762  ILE779  LEU786  VAL792 
 PHE793  MET794  SER795  GLU796  ALA797  LYS798  CYS799  TRP800  GLU811  SER814 

> <Gold.Protein.RotatedAtoms>
  152.5223  133.9498  159.7666 H   0  0  0  0  0  0  0  0  0  0  0  0  # atno 6907 bound_to 6896
  150.9811  133.6237  159.2729 H   0  0  0  0  0  0  0  0  0  0  0  0  # atno 6908 bound_to 6896
  151.3414  135.0870  159.9425 H   0  0  0  0  0  0  0  0  0  0  0  0  # atno 6909 bound_to 6896
  144.9071  140.6847  143.5048 H   0  0  0  0  0  0  0  0  0  0  0  0  # atno 7974 bound_to 7965
  154.9845  140.3106  155.4932 H   0  0  0  0  0  0  0  0  0  0  0  0  # atno 8008 bound_to 7997
  156.2948  140.2260  156.4886 H   0  0  0  0  0  0  0  0  0  0  0  0  # atno 8009 bound_to 7997
  154.7759  140.0449  157.1077 H   0  0  0  0  0  0  0  0  0  0  0  0  # atno 8010 bound_to 7997
  140.2361  143.3572  152.0843 H   0  0  0  0  0  0  0  0  0  0  0  0  # atno 10167 bound_to 10162
  156.7123  130.5126  149.5889 H   0  0  0  0  0  0  0  0  0  0  0  0  # atno 10718 bound_to 10713
  153.5891  135.7003  153.5431 H   0  0  0  0  0  0  0  0  0  0  0  0  # atno 10763 bound_to 10752
  153.3194  135.4078  155.1403 H   0  0  0  0  0  0  0  0  0  0  0  0  # atno 10764 bound_to 10752
  154.8604  135.3691  154.5422 H   0  0  0  0  0  0  0  0  0  0  0  0  # atno 10765 bound_to 10752
  141.1084  133.8753  157.1654 H   0  0  0  0  0  0  0  0  0  0  0  0  # atno 11005 bound_to 11000
  145.3517  139.1704  143.4431 LP  0  0  0  0  0  0  0  0  0  0  0  0  # atno 17320 bound_to 7965
  146.3139  140.3570  142.8661 LP  0  0  0  0  0  0  0  0  0  0  0  0  # atno 17321 bound_to 7965
  139.5093  144.6865  151.5874 LP  0  0  0  0  0  0  0  0  0  0  0  0  # atno 17342 bound_to 10162
  140.6149  143.9368  150.6481 LP  0  0  0  0  0  0  0  0  0  0  0  0  # atno 17343 bound_to 10162
  156.1652  130.6400  151.0769 LP  0  0  0  0  0  0  0  0  0  0  0  0  # atno 17370 bound_to 10713
  157.6931  131.0803  150.7049 LP  0  0  0  0  0  0  0  0  0  0  0  0  # atno 17371 bound_to 10713
  139.9965  135.0044  157.0094 LP  0  0  0  0  0  0  0  0  0  0  0  0  # atno 17394 bound_to 11000
  140.4841  134.1259  155.7221 LP  0  0  0  0  0  0  0  0  0  0  0  0  # atno 17395 bound_to 11000

$$$$
