AV-unprocessed.smi:2451|AV-procd|sdf|9676|dock5
  -GOLD-   2272013313D 1   1.00000     0.00000
 Structure written by MMmdl.
 38 39  0  0  0  0  0  0  0  0  1 V2000
  151.8479  144.9716  158.4759 C   0  0  0  0  0  0  0  0  0  0  0  0
  152.3535  143.5422  158.7396 C   0  0  1  0  0  0  0  0  0  0  0  0
  153.1035  143.4938  160.0860 C   0  0  0  0  0  0  0  0  0  0  0  0
  153.6529  142.0941  160.3885 C   0  0  0  0  0  0  0  0  0  0  0  0
  152.5344  141.0429  160.3738 C   0  0  0  0  0  0  0  0  0  0  0  0
  151.7391  141.0638  159.0530 C   0  0  2  0  0  0  0  0  0  0  0  0
  152.5409  140.5140  157.9501 N   0  0  0  0  0  0  0  0  0  0  0  0
  152.9311  138.8320  157.9277 S   0  0  0  0  0  0  0  0  0  0  0  0
  153.8839  138.6125  156.8290 O   0  0  0  0  0  0  0  0  0  0  0  0
  153.2787  138.4251  159.2981 O   0  0  0  0  0  0  0  0  0  0  0  0
  151.3180  138.0615  157.4841 C   0  0  0  0  0  0  0  0  0  0  0  0
  150.9574  138.4280  156.0730 C   0  0  0  0  0  0  0  0  0  0  0  0
  150.6823  137.5630  154.9776 C   0  0  0  0  0  0  0  0  0  0  0  0
  150.4191  138.4231  153.9508 C   0  0  0  0  0  0  0  0  0  0  0  0
  150.5164  139.7094  154.3718 O   0  0  0  0  0  0  0  0  0  0  0  0
  150.8580  139.7023  155.7288 N   0  0  0  0  0  0  0  0  0  0  0  0
  151.2182  142.4825  158.7064 C   0  0  2  0  0  0  0  0  0  0  0  0
  150.4064  142.4811  157.3952 C   0  0  0  0  0  0  0  0  0  0  0  0
  151.0722  145.2562  159.1873 H   0  0  0  0  0  0  0  0  0  0  0  0
  151.4386  145.0768  157.4715 H   0  0  0  0  0  0  0  0  0  0  0  0
  152.6586  145.6953  158.5635 H   0  0  0  0  0  0  0  0  0  0  0  0
  153.0687  143.3013  157.9517 H   0  0  0  0  0  0  0  0  0  0  0  0
  153.9270  144.2090  160.0803 H   0  0  0  0  0  0  0  0  0  0  0  0
  152.4356  143.8021  160.8917 H   0  0  0  0  0  0  0  0  0  0  0  0
  154.4160  141.8318  159.6547 H   0  0  0  0  0  0  0  0  0  0  0  0
  154.1484  142.0924  161.3598 H   0  0  0  0  0  0  0  0  0  0  0  0
  152.9447  140.0521  160.5692 H   0  0  0  0  0  0  0  0  0  0  0  0
  151.8509  141.2475  161.1988 H   0  0  0  0  0  0  0  0  0  0  0  0
  150.8697  140.4173  159.1780 H   0  0  0  0  0  0  0  0  0  0  0  0
  153.3707  141.0830  157.7844 H   0  0  0  0  0  0  0  0  0  0  0  0
  151.4105  136.9815  157.5964 H   0  0  0  0  0  0  0  0  0  0  0  0
  150.5648  138.4069  158.1929 H   0  0  0  0  0  0  0  0  0  0  0  0
  150.6837  136.4835  154.9493 H   0  0  0  0  0  0  0  0  0  0  0  0
  150.1585  138.2816  152.9123 H   0  0  0  0  0  0  0  0  0  0  0  0
  150.5153  142.7499  159.4971 H   0  0  0  0  0  0  0  0  0  0  0  0
  151.0491  142.3491  156.5245 H   0  0  0  0  0  0  0  0  0  0  0  0
  149.8547  143.4114  157.2626 H   0  0  0  0  0  0  0  0  0  0  0  0
  149.6720  141.6751  157.3907 H   0  0  0  0  0  0  0  0  0  0  0  0
  1  2  1  0  0  0  0
  1 19  1  0  0  0  0
  1 20  1  0  0  0  0
  1 21  1  0  0  0  0
  2 17  1  0  0  0  0
  2  3  1  0  0  0  0
  2 22  1  0  0  0  0
  3  4  1  0  0  0  0
  3 23  1  0  0  0  0
  3 24  1  0  0  0  0
  4  5  1  0  0  0  0
  4 25  1  0  0  0  0
  4 26  1  0  0  0  0
  5  6  1  0  0  0  0
  5 27  1  0  0  0  0
  5 28  1  0  0  0  0
  6  7  1  0  0  0  0
  6 17  1  0  0  0  0
  6 29  1  0  0  0  0
  7  8  1  0  0  0  0
  7 30  1  0  0  0  0
  8  9  2  0  0  0  0
  8 10  2  0  0  0  0
  8 11  1  0  0  0  0
 11 12  1  0  0  0  0
 11 31  1  0  0  0  0
 11 32  1  0  0  0  0
 12 16  2  0  0  0  0
 12 13  1  0  0  0  0
 13 14  2  0  0  0  0
 13 33  1  0  0  0  0
 14 15  1  0  0  0  0
 14 34  1  0  0  0  0
 15 16  1  0  0  0  0
 17 18  1  0  0  0  0
 17 35  1  0  0  0  0
 18 36  1  0  0  0  0
 18 37  1  0  0  0  0
 18 38  1  0  0  0  0
M  END
> <s_m_source_file>
AV-unprocessed.smi

> <i_m_source_file_index>
2451

> <i_lp_mmshare_version>
43012

> <i_f3d_flags>
0

> <s_epik_input>
W0NIM11bQ0BASF0xW0NIMl1bQ0gyXVtDSDJdW0NASF0oW0NASF0xW0NIM10pW05IXVMoPU8pKD1PKVtDSDJdYzJbY0hdW2NIXW9uMg==

> <s_epik_cmdline>
J2VwaWtfcHl0aG9uJywgJy1waCcsICc3LjAnLCAnLXRuJywgJzgnLCAnLW1hJywgJzIwMCcsICctbWV0YWxfYmluZGluZycsICctaW1hZScsICc8aW5maWxlLm1hZT4nLCAnLW9tYWUnLCAnPG91dGZpbGUubWFlPic=

> <r_lp_tautomer_probability>
1

> <r_epik_Ionization_Penalty>
8.73668e-05

> <r_epik_Ionization_Penalty_Charging>
0

> <r_epik_Ionization_Penalty_Neutral>
8.73668e-05

> <r_epik_State_Penalty>
-0

> <r_epik_Charging_Adjusted_Penalty>
0

> <i_epik_Tot_Q>
0

> <i_epik_Tot_abs_Q>
0

> <r_epik_Metal_State_Penalty>
0.0716439

> <b_epik_Metal_Only>
0

> <s_lp_Force_Field>
OPLS_2005

> <r_lp_Energy>
8.50206

> <b_lp_Chiralities_Consistent>
1

> <s_lp_Variant>
AV-unprocessed.smi:2451-8

> <Gold.Version>
5.8.1

> <Gold.Id.Protein>
6NUR|6NUR_protein|mol2

> <Gold.PLP.Fitness>
41.6848

> <Gold.PLP.PLP>
-31.1833

> <Gold.PLP.part.hbond>
-2.2045

> <Gold.PLP.part.metal>
0.0000

> <Gold.PLP.part.buried>
-4.4994

> <Gold.PLP.part.nonpolar>
-25.5014

> <Gold.PLP.part.repulsive>
0.1373

> <Gold.PLP.ligand.clash>
0.0000

> <Gold.PLP.ligand.torsion>
0.4207

> <Gold.PLP.Chemscore.Hbond>
1.7520

> <Gold.PLP.Chemscore.CHOScore>
1.9791

> <Gold.PLP.Chemscore.Metal>
0.0000

> <Gold.Chemscore.Hbonds>
donor molecule, donor type, donor heavy atom, donor atom, acceptor molecule, acceptor atom, score
      P1  H  7989  7998       L1    15  1.00
      P1  H  7997  8008       L1     9  0.73
      L1  C    14    34       P1  7948  0.90
      L1  C    14    34       P1  7949  0.03
      L1  C    14    34       P1  7957  0.99

> <Gold.PLP.Chemscore.Internal.Correction>
0.1496

> <Gold.Rescore>
     Score         DG    S(hbond)    S(metal)    S(lipo)     H(rot)  DE(clash)    DE(int)     intcor
     15.40     -18.53       1.56        0.00     103.13       1.66       0.16       2.97       ----

> <Gold.Chemscore.Fitness>
15.3951

> <Gold.Chemscore.DG>
-18.5260

> <Gold.Chemscore.ZeroCoef>
-5.4800

> <Gold.Chemscore.Hbond>
1.5648

> <Gold.Chemscore.Metal>
0.0000

> <Gold.Chemscore.Lipo>
103.1299

> <Gold.Chemscore.Internal_Hbond>
0.0000

> <Gold.Chemscore.DEClash>
0.1622

> <Gold.Chemscore.DEInternal>
2.9686

> <Gold.Chemscore.Rot>
1.6588

> <Gold.Chemscore.Internal.Correction>
   9.000000E+99

> <Gold.Chemscore.Hbonds>
donor molecule, donor type, donor heavy atom, donor atom, acceptor molecule, acceptor atom, score
      P1  H  7989  7998       L1    15  0.68
      P1  H  7997  8008       L1     9  0.18

> <Gold.Chemscore.Hbond.Weighted>
-5.2263

> <Gold.Chemscore.Metal.Weighted>
-0.0000

> <Gold.Chemscore.Lipo.Weighted>
-12.0662

> <Gold.Chemscore.Internal_Hbond.Weighted>
0.0000

> <Gold.Chemscore.DEClash.Weighted>
0.1622

> <Gold.Chemscore.DEInternal.Weighted>
2.9686

> <Gold.Chemscore.Rot.Weighted>
4.2466

> <Gold.Chemscore.Internal.Correction.Weighted>
   9.000000E+99

> <Gold.Protein.RotatedTorsions>
[ 6907 6896 6895 6894 ] final  163.49 input  -60.11 | X-H torsion
[ 7974 7965 7964 7962 ] final -158.54 input  175.53 | X-H torsion
[ 8008 7997 7996 7995 ] final  -62.91 input   59.86 | X-H torsion
[ 10167 10162 10161 10158 ] final   64.48 input  -65.29 | X-H torsion
[ 10718 10713 10712 10709 ] final  112.64 input   66.30 | X-H torsion
[ 10763 10752 10751 10750 ] final  -90.03 input  -60.55 | X-H torsion
[ 11005 11000 10999 10996 ] final  -69.95 input  -57.11 | X-H torsion

> <Gold.Protein.ActiveResidues>
 VAL166  LYS551  ARG553  GLY616  TRP617  ASP618  TYR619  PRO620  LYS621  CYS622 
 ASP623  PHE694  ASN695  SER759  ASP760  ASP761  ALA762  ILE779  LEU786  VAL792 
 PHE793  MET794  SER795  GLU796  ALA797  LYS798  CYS799  TRP800  GLU811  SER814 

> <Gold.Protein.RotatedAtoms>
  151.9244  133.3594  159.3908 H   0  0  0  0  0  0  0  0  0  0  0  0  # atno 6907 bound_to 6896
  150.7030  134.4601  159.5386 H   0  0  0  0  0  0  0  0  0  0  0  0  # atno 6908 bound_to 6896
  152.2231  134.8394  160.0534 H   0  0  0  0  0  0  0  0  0  0  0  0  # atno 6909 bound_to 6896
  144.7501  140.3812  143.6054 H   0  0  0  0  0  0  0  0  0  0  0  0  # atno 7974 bound_to 7965
  154.4525  140.0986  156.6661 H   0  0  0  0  0  0  0  0  0  0  0  0  # atno 8008 bound_to 7997
  155.5240  140.3479  155.4394 H   0  0  0  0  0  0  0  0  0  0  0  0  # atno 8009 bound_to 7997
  156.0711  140.1349  156.9816 H   0  0  0  0  0  0  0  0  0  0  0  0  # atno 8010 bound_to 7997
  140.1217  144.4725  150.6916 H   0  0  0  0  0  0  0  0  0  0  0  0  # atno 10167 bound_to 10162
  157.6381  131.0971  150.6925 H   0  0  0  0  0  0  0  0  0  0  0  0  # atno 10718 bound_to 10713
  154.6616  135.5319  153.8024 H   0  0  0  0  0  0  0  0  0  0  0  0  # atno 10763 bound_to 10752
  153.0445  135.6507  154.0864 H   0  0  0  0  0  0  0  0  0  0  0  0  # atno 10764 bound_to 10752
  154.0772  135.2950  155.3277 H   0  0  0  0  0  0  0  0  0  0  0  0  # atno 10765 bound_to 10752
  141.1564  133.6777  156.6678 H   0  0  0  0  0  0  0  0  0  0  0  0  # atno 11005 bound_to 11000
  145.6975  139.1653  143.2611 LP  0  0  0  0  0  0  0  0  0  0  0  0  # atno 17320 bound_to 7965
  146.1439  140.7019  142.9354 LP  0  0  0  0  0  0  0  0  0  0  0  0  # atno 17321 bound_to 7965
  140.6868  143.2354  151.5239 LP  0  0  0  0  0  0  0  0  0  0  0  0  # atno 17342 bound_to 10162
  139.5565  144.2263  152.1621 LP  0  0  0  0  0  0  0  0  0  0  0  0  # atno 17343 bound_to 10162
  156.7253  130.4693  149.5513 LP  0  0  0  0  0  0  0  0  0  0  0  0  # atno 17370 bound_to 10713
  156.1638  130.6392  151.0752 LP  0  0  0  0  0  0  0  0  0  0  0  0  # atno 17371 bound_to 10713
  140.3198  134.8017  157.4243 LP  0  0  0  0  0  0  0  0  0  0  0  0  # atno 17394 bound_to 11000
  140.1107  134.5349  155.8269 LP  0  0  0  0  0  0  0  0  0  0  0  0  # atno 17395 bound_to 11000

$$$$
