AV-unprocessed.smi:2188|AV-procd|sdf|8880|dock9
  -GOLD-   2272012 83D 1   1.00000     0.00000
 Structure written by MMmdl.
 39 41  0  0  0  0  0  0  0  0  1 V2000
  152.5705  140.2942  155.8270 O   0  0  0  0  0  0  0  0  0  0  0  0
  151.6810  140.8925  156.4345 C   0  0  0  0  0  0  0  0  0  0  0  0
  150.4026  140.8822  156.0097 N   0  0  0  0  0  0  0  0  0  0  0  0
  149.8901  140.1648  154.8451 C   0  0  0  0  0  0  0  0  0  0  0  0
  149.0199  141.0651  153.9479 C   0  0  0  0  0  0  0  0  0  0  0  0
  147.7194  141.4983  154.6018 C   0  0  0  0  0  0  0  0  0  0  0  0
  146.8024  142.3260  153.9209 C   0  0  0  0  0  0  0  0  0  0  0  0
  145.6207  142.7151  154.5802 C   0  0  0  0  0  0  0  0  0  0  0  0
  145.4043  142.2557  155.8948 C   0  0  0  0  0  0  0  0  0  0  0  0
  146.2730  141.4602  156.5551 N   0  0  0  0  0  0  0  0  0  0  0  0
  147.4054  141.0947  155.9169 C   0  0  0  0  0  0  0  0  0  0  0  0
  151.8788  141.6695  157.6692 C   0  0  0  0  0  0  0  0  0  0  0  0
  151.1065  142.7665  157.8847 C   0  0  0  0  0  0  0  0  0  0  0  0
  151.2553  143.5778  159.0675 C   0  0  0  0  0  0  0  0  0  0  0  0
  152.1651  143.2062  159.9745 C   0  0  0  0  0  0  0  0  0  0  0  0
  152.9691  142.0763  159.8321 N   0  0  0  0  0  0  0  0  0  0  0  0
  153.8528  141.7514  160.9474 C   0  0  0  0  0  0  0  0  0  0  0  0
  155.1908  141.2458  160.4385 C   0  0  0  0  0  0  0  0  0  0  0  0
  154.8271  139.7006  159.5311 S   0  0  0  0  0  0  0  0  0  0  0  0
  156.0461  139.2917  158.8168 O   0  0  0  0  0  0  0  0  0  0  0  0
  154.1874  138.7611  160.4654 O   0  0  0  0  0  0  0  0  0  0  0  0
  153.6856  140.2564  158.4391 N   0  0  0  0  0  0  0  0  0  0  0  0
  152.8951  141.2681  158.6622 C   0  0  0  0  0  0  0  0  0  0  0  0
  149.7273  141.4015  156.5513 H   0  0  0  0  0  0  0  0  0  0  0  0
  150.7434  139.7988  154.2739 H   0  0  0  0  0  0  0  0  0  0  0  0
  149.3283  139.2797  155.1480 H   0  0  0  0  0  0  0  0  0  0  0  0
  149.5853  141.9516  153.6572 H   0  0  0  0  0  0  0  0  0  0  0  0
  148.7854  140.5401  153.0211 H   0  0  0  0  0  0  0  0  0  0  0  0
  147.0038  142.6657  152.9155 H   0  0  0  0  0  0  0  0  0  0  0  0
  144.8985  143.3522  154.0918 H   0  0  0  0  0  0  0  0  0  0  0  0
  144.5089  142.5348  156.4302 H   0  0  0  0  0  0  0  0  0  0  0  0
  148.0836  140.4648  156.4737 H   0  0  0  0  0  0  0  0  0  0  0  0
  150.3447  143.0616  157.1772 H   0  0  0  0  0  0  0  0  0  0  0  0
  150.6503  144.4601  159.2163 H   0  0  0  0  0  0  0  0  0  0  0  0
  152.3214  143.7723  160.8814 H   0  0  0  0  0  0  0  0  0  0  0  0
  154.0252  142.6306  161.5691 H   0  0  0  0  0  0  0  0  0  0  0  0
  153.3722  141.0085  161.5847 H   0  0  0  0  0  0  0  0  0  0  0  0
  155.6717  141.9576  159.7666 H   0  0  0  0  0  0  0  0  0  0  0  0
  155.8764  141.0201  161.2550 H   0  0  0  0  0  0  0  0  0  0  0  0
  1  2  2  0  0  0  0
  2  3  1  0  0  0  0
  2 12  1  0  0  0  0
  3  4  1  0  0  0  0
  3 24  1  0  0  0  0
  4  5  1  0  0  0  0
  4 25  1  0  0  0  0
  4 26  1  0  0  0  0
  5  6  1  0  0  0  0
  5 27  1  0  0  0  0
  5 28  1  0  0  0  0
  6 11  1  0  0  0  0
  6  7  2  0  0  0  0
  7  8  1  0  0  0  0
  7 29  1  0  0  0  0
  8  9  2  0  0  0  0
  8 30  1  0  0  0  0
  9 10  1  0  0  0  0
  9 31  1  0  0  0  0
 10 11  2  0  0  0  0
 11 32  1  0  0  0  0
 12 23  1  0  0  0  0
 12 13  2  0  0  0  0
 13 14  1  0  0  0  0
 13 33  1  0  0  0  0
 14 15  2  0  0  0  0
 14 34  1  0  0  0  0
 15 16  1  0  0  0  0
 15 35  1  0  0  0  0
 16 23  1  0  0  0  0
 16 17  1  0  0  0  0
 17 18  1  0  0  0  0
 17 36  1  0  0  0  0
 17 37  1  0  0  0  0
 18 19  1  0  0  0  0
 18 38  1  0  0  0  0
 18 39  1  0  0  0  0
 19 20  2  0  0  0  0
 19 21  2  0  0  0  0
 19 22  1  0  0  0  0
 22 23  2  0  0  0  0
M  END
> <s_m_source_file>
AV-unprocessed.smi

> <i_m_source_file_index>
2188

> <i_lp_mmshare_version>
43012

> <i_f3d_flags>
0

> <s_epik_input>
W0NIMl0xW0NIMl1TKD1PKSg9TylOPUMoTjEyKUMoPVtDSF1bQ0hdPVtDSF0yKUMoPU8pW05IXVtDSDJdW0NIMl1jM1tjSF1bY0hdW2NIXW5bY0hdMw==

> <s_epik_cmdline>
J2VwaWtfcHl0aG9uJywgJy1waCcsICc3LjAnLCAnLXRuJywgJzgnLCAnLW1hJywgJzIwMCcsICctbWV0YWxfYmluZGluZycsICctaW1hZScsICc8aW5maWxlLm1hZT4nLCAnLW9tYWUnLCAnPG91dGZpbGUubWFlPic=

> <r_epik_Ionization_Penalty>
0.00945125

> <r_epik_Ionization_Penalty_Charging>
8.06468e-09

> <r_epik_Ionization_Penalty_Neutral>
0.00945124

> <r_epik_State_Penalty>
0.0071398

> <r_epik_Charging_Adjusted_Penalty>
0.0071398

> <i_epik_Tot_Q>
0

> <i_epik_Tot_abs_Q>
0

> <r_epik_Metal_State_Penalty>
0.0479458

> <b_epik_Metal_Only>
0

> <s_lp_Force_Field>
OPLS_2005

> <r_lp_Energy>
29.0495

> <b_lp_Chiralities_Consistent>
1

> <s_lp_Variant>
AV-unprocessed.smi:2188-1

> <Gold.Version>
5.8.1

> <Gold.Id.Protein>
6NUR|6NUR_protein|mol2

> <Gold.PLP.Fitness>
49.2273

> <Gold.PLP.PLP>
-44.1698

> <Gold.PLP.part.hbond>
-3.0000

> <Gold.PLP.part.metal>
0.0000

> <Gold.PLP.part.buried>
-2.3173

> <Gold.PLP.part.nonpolar>
-37.8618

> <Gold.PLP.part.repulsive>
0.1669

> <Gold.PLP.ligand.clash>
0.0029

> <Gold.PLP.ligand.torsion>
0.5148

> <Gold.PLP.Chemscore.Hbond>
1.9425

> <Gold.PLP.Chemscore.CHOScore>
0.0000

> <Gold.PLP.Chemscore.Metal>
0.0000

> <Gold.Chemscore.Hbonds>
donor molecule, donor type, donor heavy atom, donor atom, acceptor molecule, acceptor atom, score
      P1  H  7997  8008       L1     1  1.00
      P1  H  7997  8010       L1    20  0.85

> <Gold.PLP.Chemscore.Internal.Correction>
0.2625

> <Gold.Rescore>
     Score         DG    S(hbond)    S(metal)    S(lipo)     H(rot)  DE(clash)    DE(int)     intcor
     15.18     -17.28       1.33        0.00      95.12       1.47       0.21       1.88       ----

> <Gold.Chemscore.Fitness>
15.1849

> <Gold.Chemscore.DG>
-17.2804

> <Gold.Chemscore.ZeroCoef>
-5.4800

> <Gold.Chemscore.Hbond>
1.3260

> <Gold.Chemscore.Metal>
0.0000

> <Gold.Chemscore.Lipo>
95.1239

> <Gold.Chemscore.Internal_Hbond>
0.0000

> <Gold.Chemscore.DEClash>
0.2141

> <Gold.Chemscore.DEInternal>
1.8814

> <Gold.Chemscore.Rot>
1.4679

> <Gold.Chemscore.Internal.Correction>
   9.000000E+99

> <Gold.Chemscore.Hbonds>
donor molecule, donor type, donor heavy atom, donor atom, acceptor molecule, acceptor atom, score
      P1  H  7997  8008       L1     1  0.99
      P1  H  7997  8010       L1    20  0.15

> <Gold.Chemscore.Hbond.Weighted>
-4.4287

> <Gold.Chemscore.Metal.Weighted>
-0.0000

> <Gold.Chemscore.Lipo.Weighted>
-11.1295

> <Gold.Chemscore.Internal_Hbond.Weighted>
0.0000

> <Gold.Chemscore.DEClash.Weighted>
0.2141

> <Gold.Chemscore.DEInternal.Weighted>
1.8814

> <Gold.Chemscore.Rot.Weighted>
3.7578

> <Gold.Chemscore.Internal.Correction.Weighted>
   9.000000E+99

> <Gold.Protein.RotatedTorsions>
[ 6907 6896 6895 6894 ] final  -27.72 input  -60.11 | X-H torsion
[ 7974 7965 7964 7962 ] final   79.30 input  175.53 | X-H torsion
[ 8008 7997 7996 7995 ] final  -32.54 input   59.86 | X-H torsion
[ 10167 10162 10161 10158 ] final  -35.81 input  -65.29 | X-H torsion
[ 10718 10713 10712 10709 ] final  -62.52 input   66.30 | X-H torsion
[ 10763 10752 10751 10750 ] final -133.95 input  -60.55 | X-H torsion
[ 11005 11000 10999 10996 ] final  -33.01 input  -57.11 | X-H torsion

> <Gold.Protein.ActiveResidues>
 VAL166  LYS551  ARG553  GLY616  TRP617  ASP618  TYR619  PRO620  LYS621  CYS622 
 ASP623  PHE694  ASN695  SER759  ASP760  ASP761  ALA762  ILE779  LEU786  VAL792 
 PHE793  MET794  SER795  GLU796  ALA797  LYS798  CYS799  TRP800  GLU811  SER814 

> <Gold.Protein.RotatedAtoms>
  151.1429  135.0188  159.8633 H   0  0  0  0  0  0  0  0  0  0  0  0  # atno 6907 bound_to 6896
  152.5452  134.1478  159.8516 H   0  0  0  0  0  0  0  0  0  0  0  0  # atno 6908 bound_to 6896
  151.1555  133.4833  159.2627 H   0  0  0  0  0  0  0  0  0  0  0  0  # atno 6909 bound_to 6896
  145.6659  139.2484  143.1896 H   0  0  0  0  0  0  0  0  0  0  0  0  # atno 7974 bound_to 7965
  154.4177  140.1735  156.1743 H   0  0  0  0  0  0  0  0  0  0  0  0  # atno 8008 bound_to 7997
  155.9734  140.3383  155.6573 H   0  0  0  0  0  0  0  0  0  0  0  0  # atno 8009 bound_to 7997
  155.6595  140.0699  157.2550 H   0  0  0  0  0  0  0  0  0  0  0  0  # atno 8010 bound_to 7997
  140.7157  143.3451  151.2273 H   0  0  0  0  0  0  0  0  0  0  0  0  # atno 10167 bound_to 10162
  156.0850  130.4210  150.1146 H   0  0  0  0  0  0  0  0  0  0  0  0  # atno 10718 bound_to 10713
  154.8726  135.3750  154.4656 H   0  0  0  0  0  0  0  0  0  0  0  0  # atno 10763 bound_to 10752
  153.5320  135.7027  153.5683 H   0  0  0  0  0  0  0  0  0  0  0  0  # atno 10764 bound_to 10752
  153.3884  135.3978  155.1871 H   0  0  0  0  0  0  0  0  0  0  0  0  # atno 10765 bound_to 10752
  140.9600  133.7170  156.1354 H   0  0  0  0  0  0  0  0  0  0  0  0  # atno 11005 bound_to 11000
  146.1086  140.7456  142.9514 LP  0  0  0  0  0  0  0  0  0  0  0  0  # atno 17320 bound_to 7965
  144.7073  140.3902  143.7108 LP  0  0  0  0  0  0  0  0  0  0  0  0  # atno 17321 bound_to 7965
  139.6969  143.9599  152.2887 LP  0  0  0  0  0  0  0  0  0  0  0  0  # atno 17342 bound_to 10162
  139.9279  144.6760  150.8394 LP  0  0  0  0  0  0  0  0  0  0  0  0  # atno 17343 bound_to 10162
  156.9169  130.9670  151.3554 LP  0  0  0  0  0  0  0  0  0  0  0  0  # atno 17370 bound_to 10713
  157.5981  130.8492  149.8760 LP  0  0  0  0  0  0  0  0  0  0  0  0  # atno 17371 bound_to 10713
  140.7482  134.4075  157.5545 LP  0  0  0  0  0  0  0  0  0  0  0  0  # atno 17394 bound_to 11000
  139.8875  134.8882  156.2527 LP  0  0  0  0  0  0  0  0  0  0  0  0  # atno 17395 bound_to 11000

$$$$
