AV-unprocessed.smi:3165|AV-procd|sdf|12086|dock2
  -GOLD-   2272017513D 1   1.00000     0.00000
 Structure written by MMmdl.
 38 39  0  0  0  0  0  0  0  0  2 V2000
  147.0467  141.4732  155.6750 C   0  0  0  0  0  0  0  0  0  0  0  0
  148.5049  140.9815  155.7662 C   0  0  1  0  0  0  0  0  0  0  0  0
  149.0619  140.5427  154.3953 C   0  0  0  0  0  0  0  0  0  0  0  0
  150.1845  139.6276  154.4999 N   0  0  0  0  0  0  0  0  0  0  0  0
  150.2292  138.2838  154.1918 C   0  0  0  0  0  0  0  0  0  0  0  0
  151.5005  137.8523  154.4409 C   0  0  0  0  0  0  0  0  0  0  0  0
  152.1711  139.0211  154.8979 C   0  0  0  0  0  0  0  0  0  0  0  0
  151.3818  140.0830  154.9276 N   0  0  0  0  0  0  0  0  0  0  0  0
  149.3881  142.0221  156.3388 N   0  3  0  0  0  0  0  0  0  0  0  0
  149.1826  142.3152  157.7733 C   0  0  0  0  0  0  0  0  0  0  0  0
  150.0421  143.5073  158.2170 C   0  0  2  0  0  0  0  0  0  0  0  0
  151.5118  143.3488  157.7817 C   0  0  0  0  0  0  0  0  0  0  0  0
  152.3626  144.5054  158.3193 C   0  0  0  0  0  0  0  0  0  0  0  0
  152.1663  144.6318  159.8337 C   0  0  0  0  0  0  0  0  0  0  0  0
  150.6700  144.7173  160.1728 C   0  0  0  0  0  0  0  0  0  0  0  0
  149.9861  143.5865  159.6403 O   0  0  0  0  0  0  0  0  0  0  0  0
  146.3904  140.7016  155.2720 H   0  0  0  0  0  0  0  0  0  0  0  0
  146.9637  142.3479  155.0291 H   0  0  0  0  0  0  0  0  0  0  0  0
  146.6465  141.7415  156.6523 H   0  0  0  0  0  0  0  0  0  0  0  0
  148.5379  140.1174  156.4315 H   0  0  0  0  0  0  0  0  0  0  0  0
  148.2794  140.0598  153.8079 H   0  0  0  0  0  0  0  0  0  0  0  0
  149.3884  141.4122  153.8227 H   0  0  0  0  0  0  0  0  0  0  0  0
  149.3632  137.7513  153.8270 H   0  0  0  0  0  0  0  0  0  0  0  0
  151.8929  136.8545  154.3137 H   0  0  0  0  0  0  0  0  0  0  0  0
  153.2011  139.1291  155.2045 H   0  0  0  0  0  0  0  0  0  0  0  0
  150.3408  141.7037  156.2335 H   0  0  0  0  0  0  0  0  0  0  0  0
  148.1314  142.5220  157.9737 H   0  0  0  0  0  0  0  0  0  0  0  0
  149.4542  141.4327  158.3537 H   0  0  0  0  0  0  0  0  0  0  0  0
  149.6332  144.4227  157.7850 H   0  0  0  0  0  0  0  0  0  0  0  0
  151.9070  142.4029  158.1548 H   0  0  0  0  0  0  0  0  0  0  0  0
  151.5833  143.3098  156.6943 H   0  0  0  0  0  0  0  0  0  0  0  0
  153.4152  144.3458  158.0839 H   0  0  0  0  0  0  0  0  0  0  0  0
  152.0691  145.4357  157.8314 H   0  0  0  0  0  0  0  0  0  0  0  0
  152.6034  143.7670  160.3343 H   0  0  0  0  0  0  0  0  0  0  0  0
  152.6912  145.5100  160.2108 H   0  0  0  0  0  0  0  0  0  0  0  0
  150.5322  144.7353  161.2539 H   0  0  0  0  0  0  0  0  0  0  0  0
  150.2336  145.6377  159.7813 H   0  0  0  0  0  0  0  0  0  0  0  0
  149.2774  142.8756  155.8096 H   0  0  0  0  0  0  0  0  0  0  0  0
  1  2  1  0  0  0  0
  1 17  1  0  0  0  0
  1 18  1  0  0  0  0
  1 19  1  0  0  0  0
  2  3  1  0  0  0  0
  2  9  1  0  0  0  0
  2 20  1  0  0  0  0
  3  4  1  0  0  0  0
  3 21  1  0  0  0  0
  3 22  1  0  0  0  0
  4  8  1  0  0  0  0
  4  5  1  0  0  0  0
  5  6  2  0  0  0  0
  5 23  1  0  0  0  0
  6  7  1  0  0  0  0
  6 24  1  0  0  0  0
  7  8  2  0  0  0  0
  7 25  1  0  0  0  0
  9 10  1  0  0  0  0
  9 26  1  0  0  0  0
  9 38  1  0  0  0  0
 10 11  1  0  0  0  0
 10 27  1  0  0  0  0
 10 28  1  0  0  0  0
 11 16  1  0  0  0  0
 11 12  1  0  0  0  0
 11 29  1  0  0  0  0
 12 13  1  0  0  0  0
 12 30  1  0  0  0  0
 12 31  1  0  0  0  0
 13 14  1  0  0  0  0
 13 32  1  0  0  0  0
 13 33  1  0  0  0  0
 14 15  1  0  0  0  0
 14 34  1  0  0  0  0
 14 35  1  0  0  0  0
 15 16  1  0  0  0  0
 15 36  1  0  0  0  0
 15 37  1  0  0  0  0
M  CHG  1   9   1
M  END
> <s_m_source_file>
AV-unprocessed.smi

> <i_m_source_file_index>
3165

> <i_lp_mmshare_version>
43012

> <i_f3d_flags>
0

> <s_epik_input>
bjFbY0hdW2NIXVtjSF1uMVtDSDJdW0NAQEhdKFtDSDNdKVtOSF1bQ0gyXVtDQEBIXTJbQ0gyXVtDSDJdW0NIMl1bQ0gyXU8y

> <s_epik_cmdline>
J2VwaWtfcHl0aG9uJywgJy1waCcsICc3LjAnLCAnLXRuJywgJzgnLCAnLW1hJywgJzIwMCcsICctbWV0YWxfYmluZGluZycsICctaW1hZScsICc8aW5maWxlLm1hZT4nLCAnLW9tYWUnLCAnPG91dGZpbGUubWFlPic=

> <r_lp_tautomer_probability>
1

> <r_epik_Ionization_Penalty>
0.00849196

> <r_epik_Ionization_Penalty_Charging>
0.00848754

> <r_epik_Ionization_Penalty_Neutral>
4.42049e-06

> <r_epik_State_Penalty>
0.00639836

> <r_epik_Charging_Adjusted_Penalty>
0.0148859

> <i_epik_Tot_Q>
1

> <i_epik_Tot_abs_Q>
1

> <r_epik_Metal_State_Penalty>
0.00639878

> <b_epik_Metal_Only>
0

> <s_lp_Force_Field>
OPLS_2005

> <r_lp_Energy>
12.7684

> <b_lp_Chiralities_Consistent>
1

> <s_lp_Variant>
AV-unprocessed.smi:3165-2

> <Gold.Version>
5.8.1

> <Gold.Id.Protein>
6NUR|6NUR_protein|mol2

> <Gold.PLP.Fitness>
47.4858

> <Gold.PLP.PLP>
-37.3327

> <Gold.PLP.part.hbond>
-2.9480

> <Gold.PLP.part.metal>
0.0000

> <Gold.PLP.part.buried>
-2.8713

> <Gold.PLP.part.nonpolar>
-32.6220

> <Gold.PLP.part.repulsive>
0.2225

> <Gold.PLP.ligand.clash>
0.0000

> <Gold.PLP.ligand.torsion>
0.4377

> <Gold.PLP.Chemscore.Hbond>
2.6500

> <Gold.PLP.Chemscore.CHOScore>
1.0000

> <Gold.PLP.Chemscore.Metal>
0.0000

> <Gold.Chemscore.Hbonds>
donor molecule, donor type, donor heavy atom, donor atom, acceptor molecule, acceptor atom, score
      L1  H     9    38       P1  8028  2.00
      P1  H  7989  7998       L1     8  0.60
      L1  C     5    23       P1  7948  1.00

> <Gold.PLP.Chemscore.Internal.Correction>
0.0785

> <Gold.Rescore>
     Score         DG    S(hbond)    S(metal)    S(lipo)     H(rot)  DE(clash)    DE(int)     intcor
     16.57     -17.25       1.49        0.00      94.13       1.64       0.20       0.48       ----

> <Gold.Chemscore.Fitness>
16.5721

> <Gold.Chemscore.DG>
-17.2534

> <Gold.Chemscore.ZeroCoef>
-5.4800

> <Gold.Chemscore.Hbond>
1.4879

> <Gold.Chemscore.Metal>
0.0000

> <Gold.Chemscore.Lipo>
94.1316

> <Gold.Chemscore.Internal_Hbond>
0.0000

> <Gold.Chemscore.DEClash>
0.2016

> <Gold.Chemscore.DEInternal>
0.4797

> <Gold.Chemscore.Rot>
1.6444

> <Gold.Chemscore.Internal.Correction>
   9.000000E+99

> <Gold.Chemscore.Hbonds>
donor molecule, donor type, donor heavy atom, donor atom, acceptor molecule, acceptor atom, score
      L1  H     9    38       P1  8028  0.97
      P1  H  7989  7998       L1     8  0.02

> <Gold.Chemscore.Hbond.Weighted>
-4.9697

> <Gold.Chemscore.Metal.Weighted>
-0.0000

> <Gold.Chemscore.Lipo.Weighted>
-11.0134

> <Gold.Chemscore.Internal_Hbond.Weighted>
0.0000

> <Gold.Chemscore.DEClash.Weighted>
0.2016

> <Gold.Chemscore.DEInternal.Weighted>
0.4797

> <Gold.Chemscore.Rot.Weighted>
4.2097

> <Gold.Chemscore.Internal.Correction.Weighted>
   9.000000E+99

> <Gold.Protein.RotatedTorsions>
[ 6907 6896 6895 6894 ] final   12.82 input  -60.11 | X-H torsion
[ 7974 7965 7964 7962 ] final   97.67 input  175.53 | X-H torsion
[ 8008 7997 7996 7995 ] final   41.13 input   59.86 | X-H torsion
[ 10167 10162 10161 10158 ] final -145.98 input  -65.29 | X-H torsion
[ 10718 10713 10712 10709 ] final  -82.22 input   66.30 | X-H torsion
[ 10763 10752 10751 10750 ] final   92.08 input  -60.55 | X-H torsion
[ 11005 11000 10999 10996 ] final    5.64 input  -57.11 | X-H torsion

> <Gold.Protein.ActiveResidues>
 VAL166  LYS551  ARG553  GLY616  TRP617  ASP618  TYR619  PRO620  LYS621  CYS622 
 ASP623  PHE694  ASN695  SER759  ASP760  ASP761  ALA762  ILE779  LEU786  VAL792 
 PHE793  MET794  SER795  GLU796  ALA797  LYS798  CYS799  TRP800  GLU811  SER814 

> <Gold.Protein.RotatedAtoms>
  151.7765  135.0773  160.0367 H   0  0  0  0  0  0  0  0  0  0  0  0  # atno 6907 bound_to 6896
  152.3253  133.5893  159.5780 H   0  0  0  0  0  0  0  0  0  0  0  0  # atno 6908 bound_to 6896
  150.7392  133.9866  159.3635 H   0  0  0  0  0  0  0  0  0  0  0  0  # atno 6909 bound_to 6896
  145.4225  139.2320  143.3188 H   0  0  0  0  0  0  0  0  0  0  0  0  # atno 7974 bound_to 7965
  155.2645  140.3361  155.4270 H   0  0  0  0  0  0  0  0  0  0  0  0  # atno 8008 bound_to 7997
  156.2160  140.1789  156.7630 H   0  0  0  0  0  0  0  0  0  0  0  0  # atno 8009 bound_to 7997
  154.5754  140.0663  156.9011 H   0  0  0  0  0  0  0  0  0  0  0  0  # atno 8010 bound_to 7997
  139.7756  143.8175  152.2631 H   0  0  0  0  0  0  0  0  0  0  0  0  # atno 10167 bound_to 10162
  156.0036  130.4628  150.4072 H   0  0  0  0  0  0  0  0  0  0  0  0  # atno 10718 bound_to 10713
  153.2152  135.4374  155.0426 H   0  0  0  0  0  0  0  0  0  0  0  0  # atno 10763 bound_to 10752
  154.8221  135.3343  154.7008 H   0  0  0  0  0  0  0  0  0  0  0  0  # atno 10764 bound_to 10752
  153.7444  135.7002  153.5015 H   0  0  0  0  0  0  0  0  0  0  0  0  # atno 10765 bound_to 10752
  140.5685  134.0125  155.7999 H   0  0  0  0  0  0  0  0  0  0  0  0  # atno 11005 bound_to 11000
  146.2649  140.4951  142.8838 LP  0  0  0  0  0  0  0  0  0  0  0  0  # atno 17320 bound_to 7965
  144.8236  140.6591  143.6337 LP  0  0  0  0  0  0  0  0  0  0  0  0  # atno 17321 bound_to 7965
  139.8222  144.7290  150.9557 LP  0  0  0  0  0  0  0  0  0  0  0  0  # atno 17342 bound_to 10162
  140.7816  143.4148  151.0935 LP  0  0  0  0  0  0  0  0  0  0  0  0  # atno 17343 bound_to 10162
  157.2137  131.0466  151.2585 LP  0  0  0  0  0  0  0  0  0  0  0  0  # atno 17370 bound_to 10713
  157.3865  130.7259  149.6666 LP  0  0  0  0  0  0  0  0  0  0  0  0  # atno 17371 bound_to 10713
  141.1071  133.9676  157.2977 LP  0  0  0  0  0  0  0  0  0  0  0  0  # atno 17394 bound_to 11000
  139.9373  135.0195  156.8598 LP  0  0  0  0  0  0  0  0  0  0  0  0  # atno 17395 bound_to 11000

$$$$
