AV-unprocessed.smi:1936|AV-procd|sdf|7830|dock5
  -GOLD-   22720 9573D 1   1.00000     0.00000
 Structure written by MMmdl.
 38 39  0  0  0  0  0  0  0  0  1 V2000
  151.6504  139.1601  156.8732 C   0  0  0  0  0  0  0  0  0  0  0  0
  150.8476  139.4607  158.1495 C   0  0  1  0  0  0  0  0  0  0  0  0
  150.4208  140.9438  158.2106 C   0  0  0  0  0  0  0  0  0  0  0  0
  151.5129  141.9146  158.1280 N   0  0  0  0  0  0  0  0  0  0  0  0
  152.3269  141.9558  159.3413 C   0  0  0  0  0  0  0  0  0  0  0  0
  153.4475  143.0060  159.2487 C   0  0  0  0  0  0  0  0  0  0  0  0
  152.8856  144.2836  158.9682 O   0  0  0  0  0  0  0  0  0  0  0  0
  152.1285  144.2952  157.7625 C   0  0  0  0  0  0  0  0  0  0  0  0
  151.0005  143.2534  157.8550 C   0  0  0  0  0  0  0  0  0  0  0  0
  149.6636  138.6045  158.1812 N   0  0  0  0  0  0  0  0  0  0  0  0
  149.5528  137.4521  158.8597 C   0  0  0  0  0  0  0  0  0  0  0  0
  150.4681  136.9765  159.5335 O   0  0  0  0  0  0  0  0  0  0  0  0
  148.1952  136.7469  158.7487 C   0  0  0  0  0  0  0  0  0  0  0  0
  147.6256  136.4036  160.0419 N   0  0  0  0  0  0  0  0  0  0  0  0
  147.2940  135.1559  160.5285 C   0  0  0  0  0  0  0  0  0  0  0  0
  146.7956  135.3297  161.7878 C   0  0  0  0  0  0  0  0  0  0  0  0
  146.8626  136.7371  161.9865 C   0  0  0  0  0  0  0  0  0  0  0  0
  147.3572  137.3775  160.9394 N   0  0  0  0  0  0  0  0  0  0  0  0
  152.5539  139.7688  156.8253 H   0  0  0  0  0  0  0  0  0  0  0  0
  151.0635  139.3641  155.9769 H   0  0  0  0  0  0  0  0  0  0  0  0
  151.9612  138.1153  156.8379 H   0  0  0  0  0  0  0  0  0  0  0  0
  151.4914  139.2450  159.0049 H   0  0  0  0  0  0  0  0  0  0  0  0
  149.7555  141.1284  157.3660 H   0  0  0  0  0  0  0  0  0  0  0  0
  149.8134  141.1298  159.0982 H   0  0  0  0  0  0  0  0  0  0  0  0
  151.6953  142.1759  160.2033 H   0  0  0  0  0  0  0  0  0  0  0  0
  152.7804  140.9821  159.5245 H   0  0  0  0  0  0  0  0  0  0  0  0
  153.9979  143.0564  160.1883 H   0  0  0  0  0  0  0  0  0  0  0  0
  154.1646  142.7378  158.4711 H   0  0  0  0  0  0  0  0  0  0  0  0
  151.7137  145.2918  157.6114 H   0  0  0  0  0  0  0  0  0  0  0  0
  152.7800  144.0862  156.9125 H   0  0  0  0  0  0  0  0  0  0  0  0
  150.4366  143.2512  156.9214 H   0  0  0  0  0  0  0  0  0  0  0  0
  150.3026  143.5493  158.6398 H   0  0  0  0  0  0  0  0  0  0  0  0
  148.8625  138.9201  157.6536 H   0  0  0  0  0  0  0  0  0  0  0  0
  147.4974  137.3873  158.2065 H   0  0  0  0  0  0  0  0  0  0  0  0
  148.3081  135.8302  158.1684 H   0  0  0  0  0  0  0  0  0  0  0  0
  147.4416  134.2590  159.9450 H   0  0  0  0  0  0  0  0  0  0  0  0
  146.4390  134.5676  162.4647 H   0  0  0  0  0  0  0  0  0  0  0  0
  146.5679  137.3084  162.8543 H   0  0  0  0  0  0  0  0  0  0  0  0
  1  2  1  0  0  0  0
  1 19  1  0  0  0  0
  1 20  1  0  0  0  0
  1 21  1  0  0  0  0
  2  3  1  0  0  0  0
  2 10  1  0  0  0  0
  2 22  1  0  0  0  0
  3  4  1  0  0  0  0
  3 23  1  0  0  0  0
  3 24  1  0  0  0  0
  4  9  1  0  0  0  0
  4  5  1  0  0  0  0
  5  6  1  0  0  0  0
  5 25  1  0  0  0  0
  5 26  1  0  0  0  0
  6  7  1  0  0  0  0
  6 27  1  0  0  0  0
  6 28  1  0  0  0  0
  7  8  1  0  0  0  0
  8  9  1  0  0  0  0
  8 29  1  0  0  0  0
  8 30  1  0  0  0  0
  9 31  1  0  0  0  0
  9 32  1  0  0  0  0
 10 11  1  0  0  0  0
 10 33  1  0  0  0  0
 11 12  2  0  0  0  0
 11 13  1  0  0  0  0
 13 14  1  0  0  0  0
 13 34  1  0  0  0  0
 13 35  1  0  0  0  0
 14 18  1  0  0  0  0
 14 15  1  0  0  0  0
 15 16  2  0  0  0  0
 15 36  1  0  0  0  0
 16 17  1  0  0  0  0
 16 37  1  0  0  0  0
 17 18  2  0  0  0  0
 17 38  1  0  0  0  0
M  END
> <s_m_source_file>
AV-unprocessed.smi

> <i_m_source_file_index>
1936

> <i_lp_mmshare_version>
43012

> <i_f3d_flags>
0

> <s_epik_input>
W0NIMl0xW0NIMl1PW0NIMl1bQ0gyXU4xW0NIMl1bQ0BASF0oW0NIM10pW05IXUMoPU8pW0NIMl1uMltjSF1bY0hdW2NIXW4y

> <s_epik_cmdline>
J2VwaWtfcHl0aG9uJywgJy1waCcsICc3LjAnLCAnLXRuJywgJzgnLCAnLW1hJywgJzIwMCcsICctbWV0YWxfYmluZGluZycsICctaW1hZScsICc8aW5maWxlLm1hZT4nLCAnLW9tYWUnLCAnPG91dGZpbGUubWFlPic=

> <r_lp_tautomer_probability>
1

> <r_epik_Ionization_Penalty>
0.196927

> <r_epik_Ionization_Penalty_Charging>
0

> <r_epik_Ionization_Penalty_Neutral>
0.196927

> <r_epik_State_Penalty>
0.186684

> <r_epik_Charging_Adjusted_Penalty>
0.186684

> <i_epik_Tot_Q>
0

> <i_epik_Tot_abs_Q>
0

> <r_epik_Metal_State_Penalty>
0.186682

> <b_epik_Metal_Only>
0

> <s_lp_Force_Field>
OPLS_2005

> <r_lp_Energy>
27.4163

> <b_lp_Chiralities_Consistent>
1

> <s_lp_Variant>
AV-unprocessed.smi:1936-2

> <Gold.Version>
5.8.1

> <Gold.Id.Protein>
6NUR|6NUR_protein|mol2

> <Gold.PLP.Fitness>
43.6885

> <Gold.PLP.PLP>
-36.2190

> <Gold.PLP.part.hbond>
-3.0000

> <Gold.PLP.part.metal>
0.0000

> <Gold.PLP.part.buried>
-4.8218

> <Gold.PLP.part.nonpolar>
-28.6358

> <Gold.PLP.part.repulsive>
0.1669

> <Gold.PLP.ligand.clash>
0.0000

> <Gold.PLP.ligand.torsion>
0.4581

> <Gold.PLP.Chemscore.Hbond>
2.7760

> <Gold.PLP.Chemscore.CHOScore>
0.0000

> <Gold.PLP.Chemscore.Metal>
0.0000

> <Gold.Chemscore.Hbonds>
donor molecule, donor type, donor heavy atom, donor atom, acceptor molecule, acceptor atom, score
      P1  H  6896  6908       L1    12  0.93
      P1  H  6931  6943       L1    18  0.52
      P1  H  6934  6947       L1    18  1.00

> <Gold.PLP.Chemscore.Internal.Correction>
0.0577

> <Gold.Rescore>
     Score         DG    S(hbond)    S(metal)    S(lipo)     H(rot)  DE(clash)    DE(int)     intcor
     18.08     -18.59       2.23        0.00      88.94       1.85       0.09       0.42       ----

> <Gold.Chemscore.Fitness>
18.0839

> <Gold.Chemscore.DG>
-18.5941

> <Gold.Chemscore.ZeroCoef>
-5.4800

> <Gold.Chemscore.Hbond>
2.2326

> <Gold.Chemscore.Metal>
0.0000

> <Gold.Chemscore.Lipo>
88.9361

> <Gold.Chemscore.Internal_Hbond>
0.0000

> <Gold.Chemscore.DEClash>
0.0880

> <Gold.Chemscore.DEInternal>
0.4221

> <Gold.Chemscore.Rot>
1.8549

> <Gold.Chemscore.Internal.Correction>
   9.000000E+99

> <Gold.Chemscore.Hbonds>
donor molecule, donor type, donor heavy atom, donor atom, acceptor molecule, acceptor atom, score
      P1  H  6896  6908       L1    12  0.88
      P1  H  6931  6943       L1    18  0.10
      P1  H  6934  6947       L1    18  0.90

> <Gold.Chemscore.Hbond.Weighted>
-7.4570

> <Gold.Chemscore.Metal.Weighted>
-0.0000

> <Gold.Chemscore.Lipo.Weighted>
-10.4055

> <Gold.Chemscore.Internal_Hbond.Weighted>
0.0000

> <Gold.Chemscore.DEClash.Weighted>
0.0880

> <Gold.Chemscore.DEInternal.Weighted>
0.4221

> <Gold.Chemscore.Rot.Weighted>
4.7485

> <Gold.Chemscore.Internal.Correction.Weighted>
   9.000000E+99

> <Gold.Protein.RotatedTorsions>
[ 6907 6896 6895 6894 ] final -133.45 input  -60.11 | X-H torsion
[ 7974 7965 7964 7962 ] final   87.14 input  175.53 | X-H torsion
[ 8008 7997 7996 7995 ] final  -83.14 input   59.86 | X-H torsion
[ 10167 10162 10161 10158 ] final  100.58 input  -65.29 | X-H torsion
[ 10718 10713 10712 10709 ] final  -53.64 input   66.30 | X-H torsion
[ 10763 10752 10751 10750 ] final  -70.27 input  -60.55 | X-H torsion
[ 11005 11000 10999 10996 ] final -138.16 input  -57.11 | X-H torsion

> <Gold.Protein.ActiveResidues>
 VAL166  LYS551  ARG553  GLY616  TRP617  ASP618  TYR619  PRO620  LYS621  CYS622 
 ASP623  PHE694  ASN695  SER759  ASP760  ASP761  ALA762  ILE779  LEU786  VAL792 
 PHE793  MET794  SER795  GLU796  ALA797  LYS798  CYS799  TRP800  GLU811  SER814 

> <Gold.Protein.RotatedAtoms>
  150.9742  133.6313  159.2732 H   0  0  0  0  0  0  0  0  0  0  0  0  # atno 6907 bound_to 6896
  151.3591  135.0899  159.9438 H   0  0  0  0  0  0  0  0  0  0  0  0  # atno 6908 bound_to 6896
  152.5193  133.9319  159.7639 H   0  0  0  0  0  0  0  0  0  0  0  0  # atno 6909 bound_to 6896
  145.5630  139.2306  143.2449 H   0  0  0  0  0  0  0  0  0  0  0  0  # atno 7974 bound_to 7965
  154.6160  140.0623  156.9554 H   0  0  0  0  0  0  0  0  0  0  0  0  # atno 8008 bound_to 7997
  155.1896  140.3306  155.4342 H   0  0  0  0  0  0  0  0  0  0  0  0  # atno 8009 bound_to 7997
  156.2404  140.1883  156.6987 H   0  0  0  0  0  0  0  0  0  0  0  0  # atno 8010 bound_to 7997
  139.7514  144.6982  151.0426 H   0  0  0  0  0  0  0  0  0  0  0  0  # atno 10167 bound_to 10162
  156.1518  130.4151  149.9933 H   0  0  0  0  0  0  0  0  0  0  0  0  # atno 10718 bound_to 10713
  154.4153  135.5999  153.5977 H   0  0  0  0  0  0  0  0  0  0  0  0  # atno 10763 bound_to 10752
  152.9791  135.5939  154.4021 H   0  0  0  0  0  0  0  0  0  0  0  0  # atno 10764 bound_to 10752
  154.3839  135.2841  155.2173 H   0  0  0  0  0  0  0  0  0  0  0  0  # atno 10765 bound_to 10752
  140.8642  134.2131  157.4690 H   0  0  0  0  0  0  0  0  0  0  0  0  # atno 11005 bound_to 11000
  146.1838  140.6455  142.9177 LP  0  0  0  0  0  0  0  0  0  0  0  0  # atno 17320 bound_to 7965
  144.7474  140.5103  143.6826 LP  0  0  0  0  0  0  0  0  0  0  0  0  # atno 17321 bound_to 7965
  140.7798  143.4804  151.0026 LP  0  0  0  0  0  0  0  0  0  0  0  0  # atno 17342 bound_to 10162
  139.8492  143.7461  152.3178 LP  0  0  0  0  0  0  0  0  0  0  0  0  # atno 17343 bound_to 10162
  156.7788  130.9213  151.3645 LP  0  0  0  0  0  0  0  0  0  0  0  0  # atno 17370 bound_to 10713
  157.6663  130.9010  149.9939 LP  0  0  0  0  0  0  0  0  0  0  0  0  # atno 17371 bound_to 10713
  139.8708  134.9744  156.4844 LP  0  0  0  0  0  0  0  0  0  0  0  0  # atno 17394 bound_to 11000
  140.8648  133.8032  155.9302 LP  0  0  0  0  0  0  0  0  0  0  0  0  # atno 17395 bound_to 11000

$$$$
