AV-unprocessed.smi:3251|AV-procd|sdf|12438|dock7
  -GOLD-   2272018333D 1   1.00000     0.00000
 Structure written by MMmdl.
 40 41  0  0  0  0  0  0  0  0  1 V2000
  152.7507  143.3633  162.3085 C   0  0  0  0  0  0  0  0  0  0  0  0
  152.5092  142.9009  160.9003 C   0  0  0  0  0  0  0  0  0  0  0  0
  152.9238  141.6796  160.2963 C   0  0  0  0  0  0  0  0  0  0  0  0
  152.5500  141.5784  159.0314 N   0  0  0  0  0  0  0  0  0  0  0  0
  151.8851  142.7266  158.7835 N   0  0  0  0  0  0  0  0  0  0  0  0
  151.3221  142.9643  157.4685 C   0  0  0  0  0  0  0  0  0  0  0  0
  150.2298  141.9409  157.1257 C   0  0  0  0  0  0  0  0  0  0  0  0
  149.6055  142.3091  155.8596 N   0  0  0  0  0  0  0  0  0  0  0  0
  148.7362  141.2555  155.3029 C   0  0  1  0  0  0  0  0  0  0  0  0
  148.0279  141.7866  154.0471 C   0  0  0  0  0  0  0  0  0  0  0  0
  149.4884  139.9476  154.9651 C   0  0  0  0  0  0  0  0  0  0  0  0
  150.3921  139.9814  154.1278 O   0  0  0  0  0  0  0  0  0  0  0  0
  149.1403  138.8000  155.5873 N   0  0  0  0  0  0  0  0  0  0  0  0
  149.8129  137.5246  155.3438 C   0  0  0  0  0  0  0  0  0  0  0  0
  149.2745  136.5599  156.4000 C   0  0  0  0  0  0  0  0  0  0  0  0
  147.9042  137.1214  156.7490 C   0  0  0  0  0  0  0  0  0  0  0  0
  148.0601  138.6303  156.5591 C   0  0  0  0  0  0  0  0  0  0  0  0
  151.8453  143.5432  159.8936 C   0  0  0  0  0  0  0  0  0  0  0  0
  153.1795  142.5742  162.9266 H   0  0  0  0  0  0  0  0  0  0  0  0
  151.8273  143.6830  162.7916 H   0  0  0  0  0  0  0  0  0  0  0  0
  153.4402  144.2069  162.3409 H   0  0  0  0  0  0  0  0  0  0  0  0
  153.4832  140.8680  160.7377 H   0  0  0  0  0  0  0  0  0  0  0  0
  150.9179  143.9775  157.4448 H   0  0  0  0  0  0  0  0  0  0  0  0
  152.1281  142.9269  156.7335 H   0  0  0  0  0  0  0  0  0  0  0  0
  150.6665  140.9431  157.0709 H   0  0  0  0  0  0  0  0  0  0  0  0
  149.4761  141.9252  157.9144 H   0  0  0  0  0  0  0  0  0  0  0  0
  149.1008  143.1756  155.9779 H   0  0  0  0  0  0  0  0  0  0  0  0
  147.9683  141.0594  156.0504 H   0  0  0  0  0  0  0  0  0  0  0  0
  147.3445  141.0451  153.6314 H   0  0  0  0  0  0  0  0  0  0  0  0
  148.7425  142.0534  153.2671 H   0  0  0  0  0  0  0  0  0  0  0  0
  147.4404  142.6763  154.2758 H   0  0  0  0  0  0  0  0  0  0  0  0
  149.5589  137.1758  154.3417 H   0  0  0  0  0  0  0  0  0  0  0  0
  150.8985  137.6144  155.4069 H   0  0  0  0  0  0  0  0  0  0  0  0
  149.2332  135.5282  156.0493 H   0  0  0  0  0  0  0  0  0  0  0  0
  149.9156  136.5880  157.2821 H   0  0  0  0  0  0  0  0  0  0  0  0
  147.1638  136.7389  156.0452 H   0  0  0  0  0  0  0  0  0  0  0  0
  147.5796  136.8527  157.7546 H   0  0  0  0  0  0  0  0  0  0  0  0
  148.3496  139.1029  157.4989 H   0  0  0  0  0  0  0  0  0  0  0  0
  147.1248  139.0788  156.2219 H   0  0  0  0  0  0  0  0  0  0  0  0
  151.3526  144.5043  159.8758 H   0  0  0  0  0  0  0  0  0  0  0  0
  1  2  1  0  0  0  0
  1 19  1  0  0  0  0
  1 20  1  0  0  0  0
  1 21  1  0  0  0  0
  2 18  2  0  0  0  0
  2  3  1  0  0  0  0
  3  4  2  0  0  0  0
  3 22  1  0  0  0  0
  4  5  1  0  0  0  0
  5  6  1  0  0  0  0
  5 18  1  0  0  0  0
  6  7  1  0  0  0  0
  6 23  1  0  0  0  0
  6 24  1  0  0  0  0
  7  8  1  0  0  0  0
  7 25  1  0  0  0  0
  7 26  1  0  0  0  0
  8  9  1  0  0  0  0
  8 27  1  0  0  0  0
  9 10  1  0  0  0  0
  9 11  1  0  0  0  0
  9 28  1  0  0  0  0
 10 29  1  0  0  0  0
 10 30  1  0  0  0  0
 10 31  1  0  0  0  0
 11 12  2  0  0  0  0
 11 13  1  0  0  0  0
 13 17  1  0  0  0  0
 13 14  1  0  0  0  0
 14 15  1  0  0  0  0
 14 32  1  0  0  0  0
 14 33  1  0  0  0  0
 15 16  1  0  0  0  0
 15 34  1  0  0  0  0
 15 35  1  0  0  0  0
 16 17  1  0  0  0  0
 16 36  1  0  0  0  0
 16 37  1  0  0  0  0
 17 38  1  0  0  0  0
 17 39  1  0  0  0  0
 18 40  1  0  0  0  0
M  END
> <s_m_source_file>
AV-unprocessed.smi

> <i_m_source_file_index>
3251

> <i_lp_mmshare_version>
43012

> <i_f3d_flags>
0

> <s_epik_input>
W0NIM11jMVtjSF1ubihbY0hdMSlbQ0gyXVtDSDJdW05IXVtDQEhdKFtDSDNdKUMoPU8pTjJbQ0gyXVtDSDJdW0NIMl1bQ0gyXTI=

> <s_epik_cmdline>
J2VwaWtfcHl0aG9uJywgJy1waCcsICc3LjAnLCAnLXRuJywgJzgnLCAnLW1hJywgJzIwMCcsICctbWV0YWxfYmluZGluZycsICctaW1hZScsICc8aW5maWxlLm1hZT4nLCAnLW9tYWUnLCAnPG91dGZpbGUubWFlPic=

> <r_lp_tautomer_probability>
1

> <r_epik_Ionization_Penalty>
0.734676

> <r_epik_Ionization_Penalty_Charging>
0

> <r_epik_Ionization_Penalty_Neutral>
0.734676

> <r_epik_State_Penalty>
0.75825

> <r_epik_Charging_Adjusted_Penalty>
0.75825

> <i_epik_Tot_Q>
0

> <i_epik_Tot_abs_Q>
0

> <r_epik_Metal_State_Penalty>
0.756914

> <b_epik_Metal_Only>
0

> <s_lp_Force_Field>
OPLS_2005

> <r_lp_Energy>
31.4715

> <b_lp_Chiralities_Consistent>
1

> <s_lp_Variant>
AV-unprocessed.smi:3251-4

> <Gold.Version>
5.8.1

> <Gold.Id.Protein>
6NUR|6NUR_protein|mol2

> <Gold.PLP.Fitness>
40.4558

> <Gold.PLP.PLP>
-34.5860

> <Gold.PLP.part.hbond>
-2.0000

> <Gold.PLP.part.metal>
0.0000

> <Gold.PLP.part.buried>
-5.8916

> <Gold.PLP.part.nonpolar>
-27.5255

> <Gold.PLP.part.repulsive>
0.7318

> <Gold.PLP.ligand.clash>
0.0000

> <Gold.PLP.ligand.torsion>
0.0691

> <Gold.PLP.Chemscore.Hbond>
1.9920

> <Gold.PLP.Chemscore.CHOScore>
0.0000

> <Gold.PLP.Chemscore.Metal>
0.0000

> <Gold.Chemscore.Hbonds>
donor molecule, donor type, donor heavy atom, donor atom, acceptor molecule, acceptor atom, score
      L1  H     8    27       P1  8028  1.00
      P1  H  7989  7998       L1    12  1.00

> <Gold.PLP.Chemscore.Internal.Correction>
0.0320

> <Gold.Rescore>
     Score         DG    S(hbond)    S(metal)    S(lipo)     H(rot)  DE(clash)    DE(int)     intcor
     17.36     -17.50       1.99        0.00      82.96       1.70       0.05       0.09       ----

> <Gold.Chemscore.Fitness>
17.3591

> <Gold.Chemscore.DG>
-17.4968

> <Gold.Chemscore.ZeroCoef>
-5.4800

> <Gold.Chemscore.Hbond>
1.9911

> <Gold.Chemscore.Metal>
0.0000

> <Gold.Chemscore.Lipo>
82.9581

> <Gold.Chemscore.Internal_Hbond>
0.0000

> <Gold.Chemscore.DEClash>
0.0456

> <Gold.Chemscore.DEInternal>
0.0920

> <Gold.Chemscore.Rot>
1.6951

> <Gold.Chemscore.Internal.Correction>
   9.000000E+99

> <Gold.Chemscore.Hbonds>
donor molecule, donor type, donor heavy atom, donor atom, acceptor molecule, acceptor atom, score
      L1  H     8    27       P1  8028  0.95
      P1  H  7989  7998       L1    12  0.98

> <Gold.Chemscore.Hbond.Weighted>
-6.6502

> <Gold.Chemscore.Metal.Weighted>
-0.0000

> <Gold.Chemscore.Lipo.Weighted>
-9.7061

> <Gold.Chemscore.Internal_Hbond.Weighted>
0.0000

> <Gold.Chemscore.DEClash.Weighted>
0.0456

> <Gold.Chemscore.DEInternal.Weighted>
0.0920

> <Gold.Chemscore.Rot.Weighted>
4.3395

> <Gold.Chemscore.Internal.Correction.Weighted>
   9.000000E+99

> <Gold.Protein.RotatedTorsions>
[ 6907 6896 6895 6894 ] final  128.74 input  -60.11 | X-H torsion
[ 7974 7965 7964 7962 ] final   67.50 input  175.53 | X-H torsion
[ 8008 7997 7996 7995 ] final -154.89 input   59.86 | X-H torsion
[ 10167 10162 10161 10158 ] final   75.72 input  -65.29 | X-H torsion
[ 10718 10713 10712 10709 ] final  -43.15 input   66.30 | X-H torsion
[ 10763 10752 10751 10750 ] final   31.20 input  -60.55 | X-H torsion
[ 11005 11000 10999 10996 ] final -171.28 input  -57.11 | X-H torsion

> <Gold.Protein.ActiveResidues>
 VAL166  LYS551  ARG553  GLY616  TRP617  ASP618  TYR619  PRO620  LYS621  CYS622 
 ASP623  PHE694  ASN695  SER759  ASP760  ASP761  ALA762  ILE779  LEU786  VAL792 
 PHE793  MET794  SER795  GLU796  ALA797  LYS798  CYS799  TRP800  GLU811  SER814 

> <Gold.Protein.RotatedAtoms>
  152.3691  133.6395  159.6072 H   0  0  0  0  0  0  0  0  0  0  0  0  # atno 6907 bound_to 6896
  150.7655  133.9300  159.3433 H   0  0  0  0  0  0  0  0  0  0  0  0  # atno 6908 bound_to 6896
  151.7126  135.0911  160.0321 H   0  0  0  0  0  0  0  0  0  0  0  0  # atno 6909 bound_to 6896
  145.8139  139.3047  143.1083 H   0  0  0  0  0  0  0  0  0  0  0  0  # atno 7974 bound_to 7965
  155.6933  140.0758  157.2439 H   0  0  0  0  0  0  0  0  0  0  0  0  # atno 8008 bound_to 7997
  154.4085  140.1660  156.2163 H   0  0  0  0  0  0  0  0  0  0  0  0  # atno 8009 bound_to 7997
  155.9432  140.3383  155.6348 H   0  0  0  0  0  0  0  0  0  0  0  0  # atno 8010 bound_to 7997
  139.9999  144.5694  150.7746 H   0  0  0  0  0  0  0  0  0  0  0  0  # atno 10167 bound_to 10162
  156.2520  130.4189  149.8639 H   0  0  0  0  0  0  0  0  0  0  0  0  # atno 10718 bound_to 10713
  153.0329  135.6445  154.1162 H   0  0  0  0  0  0  0  0  0  0  0  0  # atno 10763 bound_to 10752
  154.0882  135.2868  155.3278 H   0  0  0  0  0  0  0  0  0  0  0  0  # atno 10764 bound_to 10752
  154.6483  135.5435  153.7935 H   0  0  0  0  0  0  0  0  0  0  0  0  # atno 10765 bound_to 10752
  140.5100  134.5811  157.5016 H   0  0  0  0  0  0  0  0  0  0  0  0  # atno 11005 bound_to 11000
  145.9748  140.8731  143.0144 LP  0  0  0  0  0  0  0  0  0  0  0  0  # atno 17320 bound_to 7965
  144.6754  140.1997  143.7388 LP  0  0  0  0  0  0  0  0  0  0  0  0  # atno 17321 bound_to 7965
  140.7422  143.2829  151.3545 LP  0  0  0  0  0  0  0  0  0  0  0  0  # atno 17342 bound_to 10162
  139.6279  144.0778  152.2450 LP  0  0  0  0  0  0  0  0  0  0  0  0  # atno 17343 bound_to 10162
  156.6184  130.8616  151.3470 LP  0  0  0  0  0  0  0  0  0  0  0  0  # atno 17370 bound_to 10713
  157.7218  130.9568  150.1469 LP  0  0  0  0  0  0  0  0  0  0  0  0  # atno 17371 bound_to 10713
  139.9664  134.7365  156.0129 LP  0  0  0  0  0  0  0  0  0  0  0  0  # atno 17394 bound_to 11000
  141.1390  133.6568  156.3676 LP  0  0  0  0  0  0  0  0  0  0  0  0  # atno 17395 bound_to 11000

$$$$
