AV-unprocessed.smi:2385|AV-procd|sdf|9464|dock7
  -GOLD-   2272013 93D 1   1.00000     0.00000
 Structure written by MMmdl.
 50 52  0  0  0  0  0  0  0  0  2 V2000
  152.0329  144.9300  159.8330 C   0  0  0  0  0  0  0  0  0  0  0  0
  151.3921  143.7363  159.1571 C   0  0  0  0  0  0  0  0  0  0  0  0
  152.1184  142.5492  158.9460 C   0  0  0  0  0  0  0  0  0  0  0  0
  151.4808  141.4673  158.3088 C   0  0  0  0  0  0  0  0  0  0  0  0
  150.1354  141.5973  157.8970 C   0  0  0  0  0  0  0  0  0  0  0  0
  149.5880  140.4524  157.2583 N   0  0  0  0  0  0  0  0  0  0  0  0
  148.5476  140.3943  156.4083 C   0  0  0  0  0  0  0  0  0  0  0  0
  147.8576  141.3526  156.0591 O   0  0  0  0  0  0  0  0  0  0  0  0
  148.3416  139.1423  155.9730 N   0  0  0  0  0  0  0  0  0  0  0  0
  147.3094  138.7504  155.0173 C   0  0  2  0  0  0  0  0  0  0  0  0
  147.0428  137.2357  155.0770 C   0  0  0  0  0  0  0  0  0  0  0  0
  146.0131  136.8136  154.0153 C   0  0  0  0  0  0  0  0  0  0  0  0
  146.4448  137.2157  152.6506 N   0  3  1  0  0  0  0  0  0  0  0  0
  145.5313  136.7136  151.5906 C   0  0  0  0  0  0  0  0  0  0  0  0
  145.2156  135.2135  151.7497 C   0  0  1  0  0  0  0  0  0  0  0  0
  144.2974  134.6782  150.6685 C   0  0  0  0  0  0  0  0  0  0  0  0
  144.5167  133.1723  150.7728 C   0  0  0  0  0  0  0  0  0  0  0  0
  145.8588  133.0069  151.2195 O   0  0  0  0  0  0  0  0  0  0  0  0
  146.4067  134.2655  151.5968 C   0  0  0  0  0  0  0  0  0  0  0  0
  146.6840  138.6811  152.5654 C   0  0  0  0  0  0  0  0  0  0  0  0
  147.7340  139.1362  153.5924 C   0  0  0  0  0  0  0  0  0  0  0  0
  149.4436  142.7454  158.1055 N   0  0  0  0  0  0  0  0  0  0  0  0
  150.0550  143.7817  158.7166 C   0  0  0  0  0  0  0  0  0  0  0  0
  152.6840  144.6075  160.6459 H   0  0  0  0  0  0  0  0  0  0  0  0
  151.2769  145.5970  160.2485 H   0  0  0  0  0  0  0  0  0  0  0  0
  152.6303  145.4925  159.1153 H   0  0  0  0  0  0  0  0  0  0  0  0
  153.1473  142.4665  159.2645 H   0  0  0  0  0  0  0  0  0  0  0  0
  152.0247  140.5497  158.1383 H   0  0  0  0  0  0  0  0  0  0  0  0
  150.0554  139.5807  157.4588 H   0  0  0  0  0  0  0  0  0  0  0  0
  148.9530  138.4137  156.3117 H   0  0  0  0  0  0  0  0  0  0  0  0
  146.3867  139.2841  155.2540 H   0  0  0  0  0  0  0  0  0  0  0  0
  147.9731  136.6875  154.9200 H   0  0  0  0  0  0  0  0  0  0  0  0
  146.6819  136.9537  156.0667 H   0  0  0  0  0  0  0  0  0  0  0  0
  145.8855  135.7312  154.0572 H   0  0  0  0  0  0  0  0  0  0  0  0
  145.0413  137.2581  154.2364 H   0  0  0  0  0  0  0  0  0  0  0  0
  144.5833  137.2505  151.6498 H   0  0  0  0  0  0  0  0  0  0  0  0
  145.9295  136.9331  150.5986 H   0  0  0  0  0  0  0  0  0  0  0  0
  144.7410  135.0387  152.7169 H   0  0  0  0  0  0  0  0  0  0  0  0
  143.2547  134.9644  150.8097 H   0  0  0  0  0  0  0  0  0  0  0  0
  144.6171  135.0326  149.6872 H   0  0  0  0  0  0  0  0  0  0  0  0
  143.8471  132.7398  151.5174 H   0  0  0  0  0  0  0  0  0  0  0  0
  144.3454  132.6609  149.8252 H   0  0  0  0  0  0  0  0  0  0  0  0
  147.0709  134.6019  150.7994 H   0  0  0  0  0  0  0  0  0  0  0  0
  146.9914  134.1770  152.5127 H   0  0  0  0  0  0  0  0  0  0  0  0
  147.0230  138.9523  151.5670 H   0  0  0  0  0  0  0  0  0  0  0  0
  145.7462  139.2139  152.7319 H   0  0  0  0  0  0  0  0  0  0  0  0
  147.8726  140.2158  153.5224 H   0  0  0  0  0  0  0  0  0  0  0  0
  148.6973  138.6831  153.3527 H   0  0  0  0  0  0  0  0  0  0  0  0
  149.4581  144.6712  158.8556 H   0  0  0  0  0  0  0  0  0  0  0  0
  147.3339  136.7615  152.4975 H   0  0  0  0  0  0  0  0  0  0  0  0
  1  2  1  0  0  0  0
  1 24  1  0  0  0  0
  1 25  1  0  0  0  0
  1 26  1  0  0  0  0
  2 23  1  0  0  0  0
  2  3  2  0  0  0  0
  3  4  1  0  0  0  0
  3 27  1  0  0  0  0
  4  5  2  0  0  0  0
  4 28  1  0  0  0  0
  5  6  1  0  0  0  0
  5 22  1  0  0  0  0
  6  7  1  0  0  0  0
  6 29  1  0  0  0  0
  7  8  2  0  0  0  0
  7  9  1  0  0  0  0
  9 10  1  0  0  0  0
  9 30  1  0  0  0  0
 10 21  1  0  0  0  0
 10 11  1  0  0  0  0
 10 31  1  0  0  0  0
 11 12  1  0  0  0  0
 11 32  1  0  0  0  0
 11 33  1  0  0  0  0
 12 13  1  0  0  0  0
 12 34  1  0  0  0  0
 12 35  1  0  0  0  0
 13 14  1  0  0  0  0
 13 20  1  0  0  0  0
 13 50  1  0  0  0  0
 14 15  1  0  0  0  0
 14 36  1  0  0  0  0
 14 37  1  0  0  0  0
 15 19  1  0  0  0  0
 15 16  1  0  0  0  0
 15 38  1  0  0  0  0
 16 17  1  0  0  0  0
 16 39  1  0  0  0  0
 16 40  1  0  0  0  0
 17 18  1  0  0  0  0
 17 41  1  0  0  0  0
 17 42  1  0  0  0  0
 18 19  1  0  0  0  0
 19 43  1  0  0  0  0
 19 44  1  0  0  0  0
 20 21  1  0  0  0  0
 20 45  1  0  0  0  0
 20 46  1  0  0  0  0
 21 47  1  0  0  0  0
 21 48  1  0  0  0  0
 22 23  2  0  0  0  0
 23 49  1  0  0  0  0
M  CHG  1  13   1
M  END
> <s_m_source_file>
AV-unprocessed.smi

> <i_m_source_file_index>
2385

> <i_lp_mmshare_version>
43012

> <i_f3d_flags>
0

> <s_epik_input>
W0NIM11jMVtjSF1bY0hdYyhuW2NIXTEpW05IXUMoPU8pW05IXVtDSF0yW0NIMl1bQ0gyXU4oW0NIMl1bQ0gyXTIpW0NIMl1bQ0BASF0zW0NIMl1bQ0gyXU9bQ0gyXTM=

> <s_epik_cmdline>
J2VwaWtfcHl0aG9uJywgJy1waCcsICc3LjAnLCAnLXRuJywgJzgnLCAnLW1hJywgJzIwMCcsICctbWV0YWxfYmluZGluZycsICctaW1hZScsICc8aW5maWxlLm1hZT4nLCAnLW9tYWUnLCAnPG91dGZpbGUubWFlPic=

> <r_epik_Ionization_Penalty>
0.00752367

> <r_epik_Ionization_Penalty_Charging>
0.00747775

> <r_epik_Ionization_Penalty_Neutral>
4.59207e-05

> <r_epik_State_Penalty>
0.00558817

> <r_epik_Charging_Adjusted_Penalty>
0.0130659

> <i_epik_Tot_Q>
1

> <i_epik_Tot_abs_Q>
1

> <r_epik_Metal_State_Penalty>
-0

> <b_epik_Metal_Only>
0

> <s_lp_Force_Field>
OPLS_2005

> <r_lp_Energy>
36.1133

> <b_lp_Chiralities_Consistent>
1

> <s_lp_Variant>
AV-unprocessed.smi:2385-2

> <Gold.Version>
5.8.1

> <Gold.Id.Protein>
6NUR|6NUR_protein|mol2

> <Gold.PLP.Fitness>
41.6649

> <Gold.PLP.PLP>
-33.4225

> <Gold.PLP.part.hbond>
-1.0000

> <Gold.PLP.part.metal>
0.0000

> <Gold.PLP.part.buried>
-3.3192

> <Gold.PLP.part.nonpolar>
-30.0286

> <Gold.PLP.part.repulsive>
0.6741

> <Gold.PLP.ligand.clash>
0.0000

> <Gold.PLP.ligand.torsion>
0.3956

> <Gold.PLP.Chemscore.Hbond>
2.0000

> <Gold.PLP.Chemscore.CHOScore>
1.0000

> <Gold.PLP.Chemscore.Metal>
0.0000

> <Gold.Chemscore.Hbonds>
donor molecule, donor type, donor heavy atom, donor atom, acceptor molecule, acceptor atom, score
      L1  H    13    50       P1  7948  2.00
      L1  C    23    49       P1  8029  0.93

> <Gold.PLP.Chemscore.Internal.Correction>
0.0336

> <Gold.Rescore>
     Score         DG    S(hbond)    S(metal)    S(lipo)     H(rot)  DE(clash)    DE(int)     intcor
     14.50     -16.71       1.00        0.00      98.19       1.41       0.63       1.58       ----

> <Gold.Chemscore.Fitness>
14.4986

> <Gold.Chemscore.DG>
-16.7093

> <Gold.Chemscore.ZeroCoef>
-5.4800

> <Gold.Chemscore.Hbond>
0.9999

> <Gold.Chemscore.Metal>
0.0000

> <Gold.Chemscore.Lipo>
98.1857

> <Gold.Chemscore.Internal_Hbond>
0.0000

> <Gold.Chemscore.DEClash>
0.6315

> <Gold.Chemscore.DEInternal>
1.5792

> <Gold.Chemscore.Rot>
1.4056

> <Gold.Chemscore.Internal.Correction>
   9.000000E+99

> <Gold.Chemscore.Hbonds>
donor molecule, donor type, donor heavy atom, donor atom, acceptor molecule, acceptor atom, score
      L1  H    13    50       P1  7948  1.00

> <Gold.Chemscore.Hbond.Weighted>
-3.3398

> <Gold.Chemscore.Metal.Weighted>
-0.0000

> <Gold.Chemscore.Lipo.Weighted>
-11.4877

> <Gold.Chemscore.Internal_Hbond.Weighted>
0.0000

> <Gold.Chemscore.DEClash.Weighted>
0.6315

> <Gold.Chemscore.DEInternal.Weighted>
1.5792

> <Gold.Chemscore.Rot.Weighted>
3.5982

> <Gold.Chemscore.Internal.Correction.Weighted>
   9.000000E+99

> <Gold.Protein.RotatedTorsions>
[ 6907 6896 6895 6894 ] final   -6.54 input  -60.11 | X-H torsion
[ 7974 7965 7964 7962 ] final   89.79 input  175.53 | X-H torsion
[ 8008 7997 7996 7995 ] final  -79.76 input   59.86 | X-H torsion
[ 10167 10162 10161 10158 ] final  138.26 input  -65.29 | X-H torsion
[ 10718 10713 10712 10709 ] final -117.02 input   66.30 | X-H torsion
[ 10763 10752 10751 10750 ] final   -6.46 input  -60.55 | X-H torsion
[ 11005 11000 10999 10996 ] final  -58.48 input  -57.11 | X-H torsion

> <Gold.Protein.ActiveResidues>
 VAL166  LYS551  ARG553  GLY616  TRP617  ASP618  TYR619  PRO620  LYS621  CYS622 
 ASP623  PHE694  ASN695  SER759  ASP760  ASP761  ALA762  ILE779  LEU786  VAL792 
 PHE793  MET794  SER795  GLU796  ALA797  LYS798  CYS799  TRP800  GLU811  SER814 

> <Gold.Protein.RotatedAtoms>
  151.4639  135.1040  159.9732 H   0  0  0  0  0  0  0  0  0  0  0  0  # atno 6907 bound_to 6896
  152.4842  133.8327  159.7122 H   0  0  0  0  0  0  0  0  0  0  0  0  # atno 6908 bound_to 6896
  150.8938  133.7147  159.2924 H   0  0  0  0  0  0  0  0  0  0  0  0  # atno 6909 bound_to 6896
  145.5276  139.2282  143.2637 H   0  0  0  0  0  0  0  0  0  0  0  0  # atno 7974 bound_to 7965
  154.5816  140.0673  156.9112 H   0  0  0  0  0  0  0  0  0  0  0  0  # atno 8008 bound_to 7997
  155.2453  140.3347  155.4269 H   0  0  0  0  0  0  0  0  0  0  0  0  # atno 8009 bound_to 7997
  156.2193  140.1792  156.7499 H   0  0  0  0  0  0  0  0  0  0  0  0  # atno 8010 bound_to 7997
  139.5117  144.6363  151.5686 H   0  0  0  0  0  0  0  0  0  0  0  0  # atno 10167 bound_to 10162
  156.1004  130.6167  150.9111 H   0  0  0  0  0  0  0  0  0  0  0  0  # atno 10718 bound_to 10713
  153.4127  135.7008  153.6348 H   0  0  0  0  0  0  0  0  0  0  0  0  # atno 10763 bound_to 10752
  153.4835  135.3688  155.2455 H   0  0  0  0  0  0  0  0  0  0  0  0  # atno 10764 bound_to 10752
  154.8718  135.4072  154.3482 H   0  0  0  0  0  0  0  0  0  0  0  0  # atno 10765 bound_to 10752
  141.1209  133.6612  156.4926 H   0  0  0  0  0  0  0  0  0  0  0  0  # atno 11005 bound_to 11000
  146.2065  140.6091  142.9078 LP  0  0  0  0  0  0  0  0  0  0  0  0  # atno 17320 bound_to 7965
  144.7643  140.5494  143.6714 LP  0  0  0  0  0  0  0  0  0  0  0  0  # atno 17321 bound_to 7965
  140.6114  143.9429  150.6456 LP  0  0  0  0  0  0  0  0  0  0  0  0  # atno 17342 bound_to 10162
  140.2673  143.3481  152.1269 LP  0  0  0  0  0  0  0  0  0  0  0  0  # atno 17343 bound_to 10162
  157.6174  131.0932  150.8686 LP  0  0  0  0  0  0  0  0  0  0  0  0  # atno 17370 bound_to 10713
  156.8815  130.5181  149.5290 LP  0  0  0  0  0  0  0  0  0  0  0  0  # atno 17371 bound_to 10713
  140.4511  134.6928  157.5040 LP  0  0  0  0  0  0  0  0  0  0  0  0  # atno 17394 bound_to 11000
  140.0165  134.6611  155.9302 LP  0  0  0  0  0  0  0  0  0  0  0  0  # atno 17395 bound_to 11000

$$$$
