AV-unprocessed.smi:527|AV-procd|sdf|2815|dock10
  -GOLD-   2262023293D 1   1.00000     0.00000
 Structure written by MMmdl.
 42 43  0  0  0  0  0  0  0  0  1 V2000
  152.1994  138.3710  154.8210 C   0  0  0  0  0  0  0  0  0  0  0  0
  150.6802  138.2612  154.5985 C   0  0  2  0  0  0  0  0  0  0  0  0
  150.0802  139.6685  154.4001 C   0  0  0  0  0  0  0  0  0  0  0  0
  148.5654  139.6244  154.1598 C   0  0  0  0  0  0  0  0  0  0  0  0
  147.8496  138.8953  155.3053 C   0  0  0  0  0  0  0  0  0  0  0  0
  148.4158  137.4776  155.5240 C   0  0  1  0  0  0  0  0  0  0  0  0
  148.0637  136.5962  154.4094 N   0  0  0  0  0  0  0  0  0  0  0  0
  147.0559  135.7119  154.3992 C   0  0  0  0  0  0  0  0  0  0  0  0
  146.1167  135.7433  155.1974 O   0  0  0  0  0  0  0  0  0  0  0  0
  147.2177  134.8132  153.4100 N   0  0  0  0  0  0  0  0  0  0  0  0
  146.4728  133.7154  153.1637 C   0  0  0  0  0  0  0  0  0  0  0  0
  145.5095  133.3454  153.8373 O   0  0  0  0  0  0  0  0  0  0  0  0
  146.8938  132.8851  151.9481 C   0  0  0  0  0  0  0  0  0  0  0  0
  145.7869  132.6779  151.0313 N   0  0  0  0  0  0  0  0  0  0  0  0
  144.4827  133.1358  151.1736 C   0  0  0  0  0  0  0  0  0  0  0  0
  143.7883  132.6936  150.0703 C   0  0  0  0  0  0  0  0  0  0  0  0
  144.6394  131.9674  149.2407 N   0  0  0  0  0  0  0  0  0  0  0  0
  145.8050  132.0024  149.8733 C   0  0  0  0  0  0  0  0  0  0  0  0
  149.9507  137.5095  155.7473 C   0  0  1  0  0  0  0  0  0  0  0  0
  150.5091  136.0927  155.9917 C   0  0  0  0  0  0  0  0  0  0  0  0
  152.4273  138.8605  155.7683 H   0  0  0  0  0  0  0  0  0  0  0  0
  152.6693  138.9524  154.0272 H   0  0  0  0  0  0  0  0  0  0  0  0
  152.6807  137.3934  154.8228 H   0  0  0  0  0  0  0  0  0  0  0  0
  150.5290  137.7031  153.6735 H   0  0  0  0  0  0  0  0  0  0  0  0
  150.2879  140.2830  155.2772 H   0  0  0  0  0  0  0  0  0  0  0  0
  150.5634  140.1645  153.5576 H   0  0  0  0  0  0  0  0  0  0  0  0
  148.1759  140.6385  154.0665 H   0  0  0  0  0  0  0  0  0  0  0  0
  148.3564  139.1264  153.2121 H   0  0  0  0  0  0  0  0  0  0  0  0
  147.9662  139.4723  156.2235 H   0  0  0  0  0  0  0  0  0  0  0  0
  146.7773  138.8551  155.1098 H   0  0  0  0  0  0  0  0  0  0  0  0
  147.9594  137.0714  156.4286 H   0  0  0  0  0  0  0  0  0  0  0  0
  148.6334  136.6744  153.5798 H   0  0  0  0  0  0  0  0  0  0  0  0
  147.9767  134.9872  152.7680 H   0  0  0  0  0  0  0  0  0  0  0  0
  147.7055  133.3895  151.4223 H   0  0  0  0  0  0  0  0  0  0  0  0
  147.2706  131.9123  152.2674 H   0  0  0  0  0  0  0  0  0  0  0  0
  144.1647  133.7202  152.0245 H   0  0  0  0  0  0  0  0  0  0  0  0
  142.7500  132.8410  149.8120 H   0  0  0  0  0  0  0  0  0  0  0  0
  146.6925  131.5214  149.4883 H   0  0  0  0  0  0  0  0  0  0  0  0
  150.1220  138.0749  156.6648 H   0  0  0  0  0  0  0  0  0  0  0  0
  150.5036  135.4942  155.0803 H   0  0  0  0  0  0  0  0  0  0  0  0
  149.9186  135.5638  156.7401 H   0  0  0  0  0  0  0  0  0  0  0  0
  151.5331  136.1236  156.3625 H   0  0  0  0  0  0  0  0  0  0  0  0
  1  2  1  0  0  0  0
  1 21  1  0  0  0  0
  1 22  1  0  0  0  0
  1 23  1  0  0  0  0
  2 19  1  0  0  0  0
  2  3  1  0  0  0  0
  2 24  1  0  0  0  0
  3  4  1  0  0  0  0
  3 25  1  0  0  0  0
  3 26  1  0  0  0  0
  4  5  1  0  0  0  0
  4 27  1  0  0  0  0
  4 28  1  0  0  0  0
  5  6  1  0  0  0  0
  5 29  1  0  0  0  0
  5 30  1  0  0  0  0
  6  7  1  0  0  0  0
  6 19  1  0  0  0  0
  6 31  1  0  0  0  0
  7  8  1  0  0  0  0
  7 32  1  0  0  0  0
  8  9  2  0  0  0  0
  8 10  1  0  0  0  0
 10 11  1  0  0  0  0
 10 33  1  0  0  0  0
 11 12  2  0  0  0  0
 11 13  1  0  0  0  0
 13 14  1  0  0  0  0
 13 34  1  0  0  0  0
 13 35  1  0  0  0  0
 14 18  1  0  0  0  0
 14 15  1  0  0  0  0
 15 16  2  0  0  0  0
 15 36  1  0  0  0  0
 16 17  1  0  0  0  0
 16 37  1  0  0  0  0
 17 18  2  0  0  0  0
 18 38  1  0  0  0  0
 19 20  1  0  0  0  0
 19 39  1  0  0  0  0
 20 40  1  0  0  0  0
 20 41  1  0  0  0  0
 20 42  1  0  0  0  0
M  END
> <s_m_source_file>
AV-unprocessed.smi

> <i_m_source_file_index>
527

> <i_lp_mmshare_version>
43012

> <i_f3d_flags>
0

> <s_epik_input>
W0NIM11bQ0BASF0xW0NIMl1bQ0gyXVtDSDJdW0NASF0oW0NASF0xW0NIM10pW05IXUMoPU8pW05IXUMoPU8pW0NIMl1uMltjSF1bY0hdbltjSF0y

> <s_epik_cmdline>
J2VwaWtfcHl0aG9uJywgJy1waCcsICc3LjAnLCAnLXRuJywgJzgnLCAnLW1hJywgJzIwMCcsICctbWV0YWxfYmluZGluZycsICctaW1hZScsICc8aW5maWxlLm1hZT4nLCAnLW9tYWUnLCAnPG91dGZpbGUubWFlPic=

> <r_lp_tautomer_probability>
1

> <r_epik_Ionization_Penalty>
0.172132

> <r_epik_Ionization_Penalty_Charging>
0.172105

> <r_epik_Ionization_Penalty_Neutral>
2.71747e-05

> <r_epik_State_Penalty>
0.161503

> <r_epik_Charging_Adjusted_Penalty>
0.333607

> <i_epik_Tot_Q>
0

> <i_epik_Tot_abs_Q>
0

> <r_epik_Metal_State_Penalty>
0.124763

> <b_epik_Metal_Only>
0

> <s_lp_Force_Field>
OPLS_2005

> <r_lp_Energy>
14.2901

> <b_lp_Chiralities_Consistent>
1

> <s_lp_Variant>
AV-unprocessed.smi:527-1

> <Gold.Version>
5.8.1

> <Gold.Id.Protein>
6NUR|6NUR_protein|mol2

> <Gold.PLP.Fitness>
43.9905

> <Gold.PLP.PLP>
-32.6103

> <Gold.PLP.part.hbond>
-2.9506

> <Gold.PLP.part.metal>
0.0000

> <Gold.PLP.part.buried>
-3.3676

> <Gold.PLP.part.nonpolar>
-26.5345

> <Gold.PLP.part.repulsive>
0.3246

> <Gold.PLP.ligand.clash>
0.0000

> <Gold.PLP.ligand.torsion>
0.3662

> <Gold.PLP.Chemscore.Hbond>
2.0324

> <Gold.PLP.Chemscore.CHOScore>
2.0000

> <Gold.PLP.Chemscore.Metal>
0.0000

> <Gold.Chemscore.Hbonds>
donor molecule, donor type, donor heavy atom, donor atom, acceptor molecule, acceptor atom, score
      L1  H     7    32       P1  7948  1.00
      L1  H    10    33       P1  7948  0.98
      P1  H 10785 10796       L1    17  0.07
      L1  C    16    37       P1 10186  1.00
      L1  C    18    38       P1 10747  1.00

> <Gold.PLP.Chemscore.Internal.Correction>
0.0154

> <Gold.Rescore>
     Score         DG    S(hbond)    S(metal)    S(lipo)     H(rot)  DE(clash)    DE(int)     intcor
     14.49     -17.42       2.66        0.00      62.54       1.66       0.12       2.81       ----

> <Gold.Chemscore.Fitness>
14.4905

> <Gold.Chemscore.DG>
-17.4214

> <Gold.Chemscore.ZeroCoef>
-5.4800

> <Gold.Chemscore.Hbond>
2.6589

> <Gold.Chemscore.Metal>
0.0000

> <Gold.Chemscore.Lipo>
62.5422

> <Gold.Chemscore.Internal_Hbond>
0.0000

> <Gold.Chemscore.DEClash>
0.1215

> <Gold.Chemscore.DEInternal>
2.8093

> <Gold.Chemscore.Rot>
1.6629

> <Gold.Chemscore.Internal.Correction>
   9.000000E+99

> <Gold.Chemscore.Hbonds>
donor molecule, donor type, donor heavy atom, donor atom, acceptor molecule, acceptor atom, score
      L1  H     7    32       P1  7948  0.95
      L1  H    10    33       P1  7948  0.88
      P1  H 10785 10796       L1    17  0.02

> <Gold.Chemscore.Hbond.Weighted>
-8.8809

> <Gold.Chemscore.Metal.Weighted>
-0.0000

> <Gold.Chemscore.Lipo.Weighted>
-7.3174

> <Gold.Chemscore.Internal_Hbond.Weighted>
0.0000

> <Gold.Chemscore.DEClash.Weighted>
0.1215

> <Gold.Chemscore.DEInternal.Weighted>
2.8093

> <Gold.Chemscore.Rot.Weighted>
4.2569

> <Gold.Chemscore.Internal.Correction.Weighted>
   9.000000E+99

> <Gold.Protein.RotatedTorsions>
[ 6907 6896 6895 6894 ] final -143.57 input  -60.11 | X-H torsion
[ 7974 7965 7964 7962 ] final  -42.37 input  175.53 | X-H torsion
[ 8008 7997 7996 7995 ] final   65.32 input   59.86 | X-H torsion
[ 10167 10162 10161 10158 ] final -170.86 input  -65.29 | X-H torsion
[ 10718 10713 10712 10709 ] final  -57.99 input   66.30 | X-H torsion
[ 10763 10752 10751 10750 ] final  -56.78 input  -60.55 | X-H torsion
[ 11005 11000 10999 10996 ] final  125.23 input  -57.11 | X-H torsion

> <Gold.Protein.ActiveResidues>
 VAL166  LYS551  ARG553  GLY616  TRP617  ASP618  TYR619  PRO620  LYS621  CYS622 
 ASP623  PHE694  ASN695  SER759  ASP760  ASP761  ALA762  ILE779  LEU786  VAL792 
 PHE793  MET794  SER795  GLU796  ALA797  LYS798  CYS799  TRP800  GLU811  SER814 

> <Gold.Protein.RotatedAtoms>
  151.1022  133.5235  159.2609 H   0  0  0  0  0  0  0  0  0  0  0  0  # atno 6907 bound_to 6896
  151.2061  135.0462  159.8902 H   0  0  0  0  0  0  0  0  0  0  0  0  # atno 6908 bound_to 6896
  152.5444  134.0844  159.8303 H   0  0  0  0  0  0  0  0  0  0  0  0  # atno 6909 bound_to 6896
  146.0123  140.6950  142.9218 H   0  0  0  0  0  0  0  0  0  0  0  0  # atno 7974 bound_to 7965
  155.6599  140.3497  155.4778 H   0  0  0  0  0  0  0  0  0  0  0  0  # atno 8008 bound_to 7997
  155.9778  140.1168  157.0777 H   0  0  0  0  0  0  0  0  0  0  0  0  # atno 8009 bound_to 7997
  154.4183  140.1144  156.5380 H   0  0  0  0  0  0  0  0  0  0  0  0  # atno 8010 bound_to 7997
  139.5837  144.1367  152.1548 H   0  0  0  0  0  0  0  0  0  0  0  0  # atno 10167 bound_to 10162
  156.1169  130.4169  150.0516 H   0  0  0  0  0  0  0  0  0  0  0  0  # atno 10718 bound_to 10713
  154.2121  135.6392  153.5118 H   0  0  0  0  0  0  0  0  0  0  0  0  # atno 10763 bound_to 10752
  152.9987  135.5476  154.6204 H   0  0  0  0  0  0  0  0  0  0  0  0  # atno 10764 bound_to 10752
  154.5643  135.2911  155.0863 H   0  0  0  0  0  0  0  0  0  0  0  0  # atno 10765 bound_to 10752
  139.9396  134.9637  156.8527 H   0  0  0  0  0  0  0  0  0  0  0  0  # atno 11005 bound_to 11000
  144.6957  140.3419  143.7197 LP  0  0  0  0  0  0  0  0  0  0  0  0  # atno 17320 bound_to 7965
  145.7323  139.1740  143.2423 LP  0  0  0  0  0  0  0  0  0  0  0  0  # atno 17321 bound_to 7965
  140.0925  144.5608  150.7044 LP  0  0  0  0  0  0  0  0  0  0  0  0  # atno 17342 bound_to 10162
  140.7111  143.2506  151.4577 LP  0  0  0  0  0  0  0  0  0  0  0  0  # atno 17343 bound_to 10162
  156.8465  130.9444  151.3628 LP  0  0  0  0  0  0  0  0  0  0  0  0  # atno 17370 bound_to 10713
  157.6352  130.8761  149.9346 LP  0  0  0  0  0  0  0  0  0  0  0  0  # atno 17371 bound_to 10713
  140.5985  134.0194  155.7528 LP  0  0  0  0  0  0  0  0  0  0  0  0  # atno 17394 bound_to 11000
  141.1025  133.9745  157.3054 LP  0  0  0  0  0  0  0  0  0  0  0  0  # atno 17395 bound_to 11000

$$$$
