AV-unprocessed.smi:281|AV-procd|sdf|2101|dock1
  -GOLD-   2262021393D 1   1.00000     0.00000
 Structure written by MMmdl.
 55 59  0  0  0  0  0  0  0  0  1 V2000
  147.9003  141.6931  154.2311 C   0  0  0  0  0  0  0  0  0  0  0  0
  148.6033  140.3322  154.2550 C   0  0  2  0  0  0  0  0  0  0  0  0
  147.6097  139.1740  154.4378 C   0  0  0  0  0  0  0  0  0  0  0  0
  148.3372  137.9196  154.5542 N   0  0  0  0  0  0  0  0  0  0  0  0
  147.5389  136.8317  154.5388 C   0  0  0  0  0  0  0  0  0  0  0  0
  147.6392  135.8978  155.5211 N   0  0  0  0  0  0  0  0  0  0  0  0
  146.8447  134.8231  155.5009 C   0  0  0  0  0  0  0  0  0  0  0  0
  145.9037  134.4967  154.6116 N   0  0  0  0  0  0  0  0  0  0  0  0
  145.8014  135.4372  153.6285 C   0  0  0  0  0  0  0  0  0  0  0  0
  146.5763  136.6249  153.5176 C   0  0  0  0  0  0  0  0  0  0  0  0
  146.2007  137.3388  152.3873 N   0  0  0  0  0  0  0  0  0  0  0  0
  145.2546  136.6119  151.8571 C   0  0  0  0  0  0  0  0  0  0  0  0
  144.9450  135.4574  152.5416 N   0  0  0  0  0  0  0  0  0  0  0  0
  143.9364  134.4729  152.1817 C   0  0  0  0  0  0  0  0  0  0  0  0
  144.2371  133.7423  150.8523 C   0  0  1  0  0  0  0  0  0  0  0  0
  144.1020  134.6577  149.7791 O   0  0  0  0  0  0  0  0  0  0  0  0
  145.6294  133.1195  150.7831 C   0  0  0  0  0  0  0  0  0  0  0  0
  145.4070  131.8809  149.9268 C   0  0  0  0  0  0  0  0  0  0  0  0
  144.1485  131.4162  150.3828 O   0  0  0  0  0  0  0  0  0  0  0  0
  143.3036  132.5428  150.5925 C   0  0  0  0  0  0  0  0  0  0  0  0
  149.3029  137.9342  155.6448 C   0  0  0  0  0  0  0  0  0  0  0  0
  150.2839  139.1206  155.5008 C   0  0  2  0  0  0  0  0  0  0  0  0
  151.2952  138.9485  154.3578 C   0  0  0  0  0  0  0  0  0  0  0  0
  152.6237  138.6959  155.0587 C   0  0  0  0  0  0  0  0  0  0  0  0
  152.5002  139.4644  156.2406 O   0  0  0  0  0  0  0  0  0  0  0  0
  151.1956  139.2271  156.7470 C   0  0  1  0  0  0  0  0  0  0  0  0
  150.8112  140.3022  157.7734 C   0  0  0  0  0  0  0  0  0  0  0  0
  149.5360  140.3334  155.3373 O   0  0  0  0  0  0  0  0  0  0  0  0
  147.1812  141.7487  153.4134 H   0  0  0  0  0  0  0  0  0  0  0  0
  148.6201  142.5008  154.0962 H   0  0  0  0  0  0  0  0  0  0  0  0
  147.3639  141.8771  155.1626 H   0  0  0  0  0  0  0  0  0  0  0  0
  149.1343  140.2053  153.3110 H   0  0  0  0  0  0  0  0  0  0  0  0
  147.0064  139.3331  155.3331 H   0  0  0  0  0  0  0  0  0  0  0  0
  146.9253  139.1294  153.5892 H   0  0  0  0  0  0  0  0  0  0  0  0
  146.9818  134.1252  156.3137 H   0  0  0  0  0  0  0  0  0  0  0  0
  144.7507  136.9031  150.9472 H   0  0  0  0  0  0  0  0  0  0  0  0
  143.8624  133.7522  152.9973 H   0  0  0  0  0  0  0  0  0  0  0  0
  142.9681  134.9726  152.1281 H   0  0  0  0  0  0  0  0  0  0  0  0
  144.7851  134.4850  149.1493 H   0  0  0  0  0  0  0  0  0  0  0  0
  146.3937  133.7883  150.3844 H   0  0  0  0  0  0  0  0  0  0  0  0
  145.9504  132.8022  151.7759 H   0  0  0  0  0  0  0  0  0  0  0  0
  145.3455  132.1381  148.8681 H   0  0  0  0  0  0  0  0  0  0  0  0
  146.1864  131.1300  150.0579 H   0  0  0  0  0  0  0  0  0  0  0  0
  142.6398  132.3412  151.4339 H   0  0  0  0  0  0  0  0  0  0  0  0
  142.6762  132.6940  149.7124 H   0  0  0  0  0  0  0  0  0  0  0  0
  148.7699  138.0174  156.5934 H   0  0  0  0  0  0  0  0  0  0  0  0
  149.8497  136.9903  155.6677 H   0  0  0  0  0  0  0  0  0  0  0  0
  151.0361  138.1518  153.6596 H   0  0  0  0  0  0  0  0  0  0  0  0
  151.3809  139.8725  153.7849 H   0  0  0  0  0  0  0  0  0  0  0  0
  152.7406  137.6409  155.3121 H   0  0  0  0  0  0  0  0  0  0  0  0
  153.4818  139.0067  154.4625 H   0  0  0  0  0  0  0  0  0  0  0  0
  151.2311  138.2608  157.2543 H   0  0  0  0  0  0  0  0  0  0  0  0
  149.8014  140.1392  158.1504 H   0  0  0  0  0  0  0  0  0  0  0  0
  150.8532  141.3019  157.3407 H   0  0  0  0  0  0  0  0  0  0  0  0
  151.4914  140.2838  158.6251 H   0  0  0  0  0  0  0  0  0  0  0  0
  1  2  1  0  0  0  0
  1 29  1  0  0  0  0
  1 30  1  0  0  0  0
  1 31  1  0  0  0  0
  2 28  1  0  0  0  0
  2  3  1  0  0  0  0
  2 32  1  0  0  0  0
  3  4  1  0  0  0  0
  3 33  1  0  0  0  0
  3 34  1  0  0  0  0
  4  5  1  0  0  0  0
  4 21  1  0  0  0  0
  5 10  1  0  0  0  0
  5  6  2  0  0  0  0
  6  7  1  0  0  0  0
  7  8  2  0  0  0  0
  7 35  1  0  0  0  0
  8  9  1  0  0  0  0
  9 13  1  0  0  0  0
  9 10  2  0  0  0  0
 10 11  1  0  0  0  0
 11 12  2  0  0  0  0
 12 13  1  0  0  0  0
 12 36  1  0  0  0  0
 13 14  1  0  0  0  0
 14 15  1  0  0  0  0
 14 37  1  0  0  0  0
 14 38  1  0  0  0  0
 15 20  1  0  0  0  0
 15 16  1  0  0  0  0
 15 17  1  0  0  0  0
 16 39  1  0  0  0  0
 17 18  1  0  0  0  0
 17 40  1  0  0  0  0
 17 41  1  0  0  0  0
 18 19  1  0  0  0  0
 18 42  1  0  0  0  0
 18 43  1  0  0  0  0
 19 20  1  0  0  0  0
 20 44  1  0  0  0  0
 20 45  1  0  0  0  0
 21 22  1  0  0  0  0
 21 46  1  0  0  0  0
 21 47  1  0  0  0  0
 22 26  1  0  0  0  0
 22 23  1  0  0  0  0
 22 28  1  0  0  0  0
 23 24  1  0  0  0  0
 23 48  1  0  0  0  0
 23 49  1  0  0  0  0
 24 25  1  0  0  0  0
 24 50  1  0  0  0  0
 24 51  1  0  0  0  0
 25 26  1  0  0  0  0
 26 27  1  0  0  0  0
 26 52  1  0  0  0  0
 27 53  1  0  0  0  0
 27 54  1  0  0  0  0
 27 55  1  0  0  0  0
M  END
> <s_m_source_file>
AV-unprocessed.smi

> <i_m_source_file_index>
281

> <i_lp_mmshare_version>
43012

> <i_f3d_flags>
0

> <s_epik_input>
W0NIM11bQ0BASF0xT1tDSDJdW0NIMl1bQ0BAXTEyW0NIMl1OKFtDSDJdW0NASF0oTzIpW0NIM10pYyhuW2NIXW4zKWMoYzM0KW5bY0hdbjRbQ0gyXVtDQEBdNShbT0hdKVtDSDJdW0NIMl1PW0NIMl01

> <s_epik_cmdline>
J2VwaWtfcHl0aG9uJywgJy1waCcsICc3LjAnLCAnLXRuJywgJzgnLCAnLW1hJywgJzIwMCcsICctbWV0YWxfYmluZGluZycsICctaW1hZScsICc8aW5maWxlLm1hZT4nLCAnLW9tYWUnLCAnPG91dGZpbGUubWFlPic=

> <r_lp_tautomer_probability>
1

> <r_epik_Ionization_Penalty>
0.00571331

> <r_epik_Ionization_Penalty_Charging>
0

> <r_epik_Ionization_Penalty_Neutral>
0.00571331

> <r_epik_State_Penalty>
0.00399586

> <r_epik_Charging_Adjusted_Penalty>
0.00399586

> <i_epik_Tot_Q>
0

> <i_epik_Tot_abs_Q>
0

> <r_epik_Metal_State_Penalty>
-0

> <b_epik_Metal_Only>
0

> <s_lp_Force_Field>
OPLS_2005

> <r_lp_Energy>
53.2983

> <b_lp_Chiralities_Consistent>
1

> <s_lp_Variant>
AV-unprocessed.smi:281-1

> <Gold.Version>
5.8.1

> <Gold.Id.Protein>
6NUR|6NUR_protein|mol2

> <Gold.PLP.Fitness>
43.9027

> <Gold.PLP.PLP>
-34.2306

> <Gold.PLP.part.hbond>
-3.7529

> <Gold.PLP.part.metal>
0.0000

> <Gold.PLP.part.buried>
-2.0439

> <Gold.PLP.part.nonpolar>
-29.7518

> <Gold.PLP.part.repulsive>
1.2806

> <Gold.PLP.ligand.clash>
0.0000

> <Gold.PLP.ligand.torsion>
0.1497

> <Gold.PLP.Chemscore.Hbond>
2.2766

> <Gold.PLP.Chemscore.CHOScore>
1.0000

> <Gold.PLP.Chemscore.Metal>
0.0000

> <Gold.Chemscore.Hbonds>
donor molecule, donor type, donor heavy atom, donor atom, acceptor molecule, acceptor atom, score
      L1  H    16    39       P1  7921  0.94
      P1  H  7997  8009       L1    25  1.00
      P1  H 10785 10796       L1    19  0.24
      L1  C    12    36       P1 10171  1.00

> <Gold.PLP.Chemscore.Internal.Correction>
0.1415

> <Gold.Rescore>
     Score         DG    S(hbond)    S(metal)    S(lipo)     H(rot)  DE(clash)    DE(int)     intcor
     15.45     -17.38       1.97        0.00      91.22       2.09       1.72       0.21       ----

> <Gold.Chemscore.Fitness>
15.4495

> <Gold.Chemscore.DG>
-17.3801

> <Gold.Chemscore.ZeroCoef>
-5.4800

> <Gold.Chemscore.Hbond>
1.9715

> <Gold.Chemscore.Metal>
0.0000

> <Gold.Chemscore.Lipo>
91.2193

> <Gold.Chemscore.Internal_Hbond>
0.0000

> <Gold.Chemscore.DEClash>
1.7194

> <Gold.Chemscore.DEInternal>
0.2112

> <Gold.Chemscore.Rot>
2.0927

> <Gold.Chemscore.Internal.Correction>
   9.000000E+99

> <Gold.Chemscore.Hbonds>
donor molecule, donor type, donor heavy atom, donor atom, acceptor molecule, acceptor atom, score
      L1  H    16    39       P1  7921  0.89
      P1  H  7997  8009       L1    25  0.30
      P1  H 10785 10796       L1    19  0.11

> <Gold.Chemscore.Hbond.Weighted>
-6.5848

> <Gold.Chemscore.Metal.Weighted>
-0.0000

> <Gold.Chemscore.Lipo.Weighted>
-10.6727

> <Gold.Chemscore.Internal_Hbond.Weighted>
0.0000

> <Gold.Chemscore.DEClash.Weighted>
1.7194

> <Gold.Chemscore.DEInternal.Weighted>
0.2112

> <Gold.Chemscore.Rot.Weighted>
5.3573

> <Gold.Chemscore.Internal.Correction.Weighted>
   9.000000E+99

> <Gold.Protein.RotatedTorsions>
[ 6907 6896 6895 6894 ] final  117.07 input  -60.11 | X-H torsion
[ 7974 7965 7964 7962 ] final  -33.37 input  175.53 | X-H torsion
[ 8008 7997 7996 7995 ] final -171.41 input   59.86 | X-H torsion
[ 10167 10162 10161 10158 ] final   89.75 input  -65.29 | X-H torsion
[ 10718 10713 10712 10709 ] final  120.40 input   66.30 | X-H torsion
[ 10763 10752 10751 10750 ] final -103.03 input  -60.55 | X-H torsion
[ 11005 11000 10999 10996 ] final -124.06 input  -57.11 | X-H torsion

> <Gold.Protein.ActiveResidues>
 VAL166  LYS551  ARG553  GLY616  TRP617  ASP618  TYR619  PRO620  LYS621  CYS622 
 ASP623  PHE694  ASN695  SER759  ASP760  ASP761  ALA762  ILE779  LEU786  VAL792 
 PHE793  MET794  SER795  GLU796  ALA797  LYS798  CYS799  TRP800  GLU811  SER814 

> <Gold.Protein.RotatedAtoms>
  152.4636  133.7875  159.6883 H   0  0  0  0  0  0  0  0  0  0  0  0  # atno 6907 bound_to 6896
  150.8591  133.7661  159.3005 H   0  0  0  0  0  0  0  0  0  0  0  0  # atno 6908 bound_to 6896
  151.5232  135.1070  159.9936 H   0  0  0  0  0  0  0  0  0  0  0  0  # atno 6909 bound_to 6896
  146.0916  140.5907  142.8862 H   0  0  0  0  0  0  0  0  0  0  0  0  # atno 7974 bound_to 7965
  155.9312  140.1091  157.1131 H   0  0  0  0  0  0  0  0  0  0  0  0  # atno 8008 bound_to 7997
  154.4071  140.1237  156.4870 H   0  0  0  0  0  0  0  0  0  0  0  0  # atno 8009 bound_to 7997
  155.7078  140.3471  155.4963 H   0  0  0  0  0  0  0  0  0  0  0  0  # atno 8010 bound_to 7997
  139.8542  144.6578  150.9134 H   0  0  0  0  0  0  0  0  0  0  0  0  # atno 10167 bound_to 10162
  157.5893  131.1066  150.8031 H   0  0  0  0  0  0  0  0  0  0  0  0  # atno 10718 bound_to 10713
  154.7778  135.4838  153.9780 H   0  0  0  0  0  0  0  0  0  0  0  0  # atno 10763 bound_to 10752
  153.1452  135.6780  153.8973 H   0  0  0  0  0  0  0  0  0  0  0  0  # atno 10764 bound_to 10752
  153.8635  135.3152  155.3417 H   0  0  0  0  0  0  0  0  0  0  0  0  # atno 10765 bound_to 10752
  140.9870  134.0592  157.3699 H   0  0  0  0  0  0  0  0  0  0  0  0  # atno 11005 bound_to 11000
  144.7364  140.4821  143.6900 LP  0  0  0  0  0  0  0  0  0  0  0  0  # atno 17320 bound_to 7965
  145.6028  139.1505  143.3119 LP  0  0  0  0  0  0  0  0  0  0  0  0  # atno 17321 bound_to 7965
  140.7783  143.3800  151.1493 LP  0  0  0  0  0  0  0  0  0  0  0  0  # atno 17342 bound_to 10162
  139.7436  143.8886  152.3057 LP  0  0  0  0  0  0  0  0  0  0  0  0  # atno 17343 bound_to 10162
  156.8457  130.5063  149.5316 LP  0  0  0  0  0  0  0  0  0  0  0  0  # atno 17370 bound_to 10713
  156.0946  130.5922  150.9791 LP  0  0  0  0  0  0  0  0  0  0  0  0  # atno 17371 bound_to 10713
  139.8975  135.0150  156.7104 LP  0  0  0  0  0  0  0  0  0  0  0  0  # atno 17394 bound_to 11000
  140.7098  133.9233  155.8077 LP  0  0  0  0  0  0  0  0  0  0  0  0  # atno 17395 bound_to 11000

$$$$
