AV-unprocessed.smi:1139|AV-procd|sdf|4869|dock4
  -GOLD-   22720 3443D 1   1.00000     0.00000
 Structure written by MMmdl.
 43 44  0  0  0  0  0  0  0  0  2 V2000
  150.6202  135.5009  155.9435 C   0  0  0  0  0  0  0  0  0  0  0  0
  150.2912  134.0481  156.1357 C   0  0  0  0  0  0  0  0  0  0  0  0
  150.5239  133.4762  157.3052 N   0  0  0  0  0  0  0  0  0  0  0  0
  150.1154  132.1459  157.1694 O   0  0  0  0  0  0  0  0  0  0  0  0
  149.6471  131.9672  155.9080 C   0  0  0  0  0  0  0  0  0  0  0  0
  149.1577  130.6013  155.5625 C   0  0  0  0  0  0  0  0  0  0  0  0
  149.7298  133.1338  155.1983 C   0  0  0  0  0  0  0  0  0  0  0  0
  149.3253  133.3958  153.7709 C   0  0  0  0  0  0  0  0  0  0  0  0
  147.8003  133.4188  153.6644 C   0  0  0  0  0  0  0  0  0  0  0  0
  147.1417  132.4532  154.0502 O   0  0  0  0  0  0  0  0  0  0  0  0
  147.2520  134.5257  153.1390 N   0  0  0  0  0  0  0  0  0  0  0  0
  145.8261  134.7366  152.9012 C   0  0  0  0  0  0  0  0  0  0  0  0
  145.5078  135.1608  151.4437 C   0  0  2  0  0  0  0  0  0  0  0  0
  144.3013  136.1251  151.3855 C   0  0  0  0  0  0  0  0  0  0  0  0
  145.2739  133.9657  150.5790 N   0  3  0  0  0  0  0  0  0  0  0  0
  146.2692  132.8797  150.7168 C   0  0  0  0  0  0  0  0  0  0  0  0
  145.6124  131.6246  150.1386 C   0  0  0  0  0  0  0  0  0  0  0  0
  144.1071  131.8976  150.1745 C   0  0  0  0  0  0  0  0  0  0  0  0
  143.9593  133.3084  150.7497 C   0  0  0  0  0  0  0  0  0  0  0  0
  151.0748  135.6747  154.9684 H   0  0  0  0  0  0  0  0  0  0  0  0
  151.3201  135.8591  156.6996 H   0  0  0  0  0  0  0  0  0  0  0  0
  149.7212  136.1142  156.0057 H   0  0  0  0  0  0  0  0  0  0  0  0
  149.3852  130.3584  154.5245 H   0  0  0  0  0  0  0  0  0  0  0  0
  148.0782  130.5341  155.6962 H   0  0  0  0  0  0  0  0  0  0  0  0
  149.6251  129.8456  156.1942 H   0  0  0  0  0  0  0  0  0  0  0  0
  149.7130  134.3523  153.4188 H   0  0  0  0  0  0  0  0  0  0  0  0
  149.7325  132.6404  153.0972 H   0  0  0  0  0  0  0  0  0  0  0  0
  147.8753  135.2672  152.8533 H   0  0  0  0  0  0  0  0  0  0  0  0
  145.3457  133.7877  153.1374 H   0  0  0  0  0  0  0  0  0  0  0  0
  145.4167  135.4644  153.6042 H   0  0  0  0  0  0  0  0  0  0  0  0
  146.3765  135.6907  151.0490 H   0  0  0  0  0  0  0  0  0  0  0  0
  144.4705  137.0202  151.9831 H   0  0  0  0  0  0  0  0  0  0  0  0
  143.3946  135.6461  151.7566 H   0  0  0  0  0  0  0  0  0  0  0  0
  144.1033  136.4776  150.3738 H   0  0  0  0  0  0  0  0  0  0  0  0
  147.2042  133.1131  150.2067 H   0  0  0  0  0  0  0  0  0  0  0  0
  146.4903  132.7207  151.7737 H   0  0  0  0  0  0  0  0  0  0  0  0
  145.9354  131.4700  149.1083 H   0  0  0  0  0  0  0  0  0  0  0  0
  145.8838  130.7328  150.7048 H   0  0  0  0  0  0  0  0  0  0  0  0
  143.6990  131.8539  149.1638 H   0  0  0  0  0  0  0  0  0  0  0  0
  143.5710  131.1634  150.7768 H   0  0  0  0  0  0  0  0  0  0  0  0
  143.7201  133.2442  151.8125 H   0  0  0  0  0  0  0  0  0  0  0  0
  143.1591  133.8602  150.2556 H   0  0  0  0  0  0  0  0  0  0  0  0
  145.3174  134.2726  149.6174 H   0  0  0  0  0  0  0  0  0  0  0  0
  1  2  1  0  0  0  0
  1 20  1  0  0  0  0
  1 21  1  0  0  0  0
  1 22  1  0  0  0  0
  2  7  1  0  0  0  0
  2  3  2  0  0  0  0
  3  4  1  0  0  0  0
  4  5  1  0  0  0  0
  5  6  1  0  0  0  0
  5  7  2  0  0  0  0
  6 23  1  0  0  0  0
  6 24  1  0  0  0  0
  6 25  1  0  0  0  0
  7  8  1  0  0  0  0
  8  9  1  0  0  0  0
  8 26  1  0  0  0  0
  8 27  1  0  0  0  0
  9 10  2  0  0  0  0
  9 11  1  0  0  0  0
 11 12  1  0  0  0  0
 11 28  1  0  0  0  0
 12 13  1  0  0  0  0
 12 29  1  0  0  0  0
 12 30  1  0  0  0  0
 13 14  1  0  0  0  0
 13 15  1  0  0  0  0
 13 31  1  0  0  0  0
 14 32  1  0  0  0  0
 14 33  1  0  0  0  0
 14 34  1  0  0  0  0
 15 19  1  0  0  0  0
 15 16  1  0  0  0  0
 15 43  1  0  0  0  0
 16 17  1  0  0  0  0
 16 35  1  0  0  0  0
 16 36  1  0  0  0  0
 17 18  1  0  0  0  0
 17 37  1  0  0  0  0
 17 38  1  0  0  0  0
 18 19  1  0  0  0  0
 18 39  1  0  0  0  0
 18 40  1  0  0  0  0
 19 41  1  0  0  0  0
 19 42  1  0  0  0  0
M  CHG  1  15   1
M  END
> <s_m_source_file>
AV-unprocessed.smi

> <i_m_source_file_index>
1139

> <i_lp_mmshare_version>
43012

> <i_f3d_flags>
0

> <s_epik_input>
W0NIM11jMW5vYyhbQ0gzXSljMVtDSDJdQyg9TylbTkhdW0NIMl1bQ0BIXShbQ0gzXSlOMltDSDJdW0NIMl1bQ0gyXVtDSDJdMg==

> <s_epik_cmdline>
J2VwaWtfcHl0aG9uJywgJy1waCcsICc3LjAnLCAnLXRuJywgJzgnLCAnLW1hJywgJzIwMCcsICctbWV0YWxfYmluZGluZycsICctaW1hZScsICc8aW5maWxlLm1hZT4nLCAnLW9tYWUnLCAnPG91dGZpbGUubWFlPic=

> <r_epik_Ionization_Penalty>
0.0050436

> <r_epik_Ionization_Penalty_Charging>
0.0050435

> <r_epik_Ionization_Penalty_Neutral>
9.69799e-08

> <r_epik_State_Penalty>
0.00366867

> <r_epik_Charging_Adjusted_Penalty>
0.00871217

> <i_epik_Tot_Q>
1

> <i_epik_Tot_abs_Q>
1

> <r_epik_Metal_State_Penalty>
-0

> <b_epik_Metal_Only>
0

> <s_lp_Force_Field>
OPLS_2005

> <r_lp_Energy>
25.3713

> <b_lp_Chiralities_Consistent>
1

> <s_lp_Variant>
AV-unprocessed.smi:1139-1

> <Gold.Version>
5.8.1

> <Gold.Id.Protein>
6NUR|6NUR_protein|mol2

> <Gold.PLP.Fitness>
41.4286

> <Gold.PLP.PLP>
-34.3793

> <Gold.PLP.part.hbond>
-3.0000

> <Gold.PLP.part.metal>
0.0000

> <Gold.PLP.part.buried>
-3.5919

> <Gold.PLP.part.nonpolar>
-28.7628

> <Gold.PLP.part.repulsive>
0.1343

> <Gold.PLP.ligand.clash>
0.0000

> <Gold.PLP.ligand.torsion>
0.7456

> <Gold.PLP.Chemscore.Hbond>
2.8221

> <Gold.PLP.Chemscore.CHOScore>
0.0000

> <Gold.PLP.Chemscore.Metal>
0.0000

> <Gold.Chemscore.Hbonds>
donor molecule, donor type, donor heavy atom, donor atom, acceptor molecule, acceptor atom, score
      L1  H    11    28       P1  7948  1.00
      L1  H    15    43       P1  7921  0.55
      P1  H  6896  6909       L1     3  0.86

> <Gold.PLP.Chemscore.Internal.Correction>
0.0741

> <Gold.Rescore>
     Score         DG    S(hbond)    S(metal)    S(lipo)     H(rot)  DE(clash)    DE(int)     intcor
     17.99     -19.65       2.65        0.00      83.02       1.72       0.98       0.69       ----

> <Gold.Chemscore.Fitness>
17.9923

> <Gold.Chemscore.DG>
-19.6530

> <Gold.Chemscore.ZeroCoef>
-5.4800

> <Gold.Chemscore.Hbond>
2.6533

> <Gold.Chemscore.Metal>
0.0000

> <Gold.Chemscore.Lipo>
83.0162

> <Gold.Chemscore.Internal_Hbond>
0.0000

> <Gold.Chemscore.DEClash>
0.9757

> <Gold.Chemscore.DEInternal>
0.6850

> <Gold.Chemscore.Rot>
1.7195

> <Gold.Chemscore.Internal.Correction>
   9.000000E+99

> <Gold.Chemscore.Hbonds>
donor molecule, donor type, donor heavy atom, donor atom, acceptor molecule, acceptor atom, score
      L1  H    11    28       P1  7948  0.99
      L1  H    15    43       P1  7921  0.51
      P1  H  6896  6909       L1     3  0.26

> <Gold.Chemscore.Hbond.Weighted>
-8.8619

> <Gold.Chemscore.Metal.Weighted>
-0.0000

> <Gold.Chemscore.Lipo.Weighted>
-9.7129

> <Gold.Chemscore.Internal_Hbond.Weighted>
0.0000

> <Gold.Chemscore.DEClash.Weighted>
0.9757

> <Gold.Chemscore.DEInternal.Weighted>
0.6850

> <Gold.Chemscore.Rot.Weighted>
4.4018

> <Gold.Chemscore.Internal.Correction.Weighted>
   9.000000E+99

> <Gold.Protein.RotatedTorsions>
[ 6907 6896 6895 6894 ] final  -23.01 input  -60.11 | X-H torsion
[ 7974 7965 7964 7962 ] final -106.26 input  175.53 | X-H torsion
[ 8008 7997 7996 7995 ] final -131.10 input   59.86 | X-H torsion
[ 10167 10162 10161 10158 ] final  -38.24 input  -65.29 | X-H torsion
[ 10718 10713 10712 10709 ] final   47.31 input   66.30 | X-H torsion
[ 10763 10752 10751 10750 ] final  126.28 input  -60.55 | X-H torsion
[ 11005 11000 10999 10996 ] final  -97.61 input  -57.11 | X-H torsion

> <Gold.Protein.ActiveResidues>
 VAL166  LYS551  ARG553  GLY616  TRP617  ASP618  TYR619  PRO620  LYS621  CYS622 
 ASP623  PHE694  ASN695  SER759  ASP760  ASP761  ALA762  ILE779  LEU786  VAL792 
 PHE793  MET794  SER795  GLU796  ALA797  LYS798  CYS799  TRP800  GLU811  SER814 

> <Gold.Protein.RotatedAtoms>
  151.2103  135.0478  159.8908 H   0  0  0  0  0  0  0  0  0  0  0  0  # atno 6907 bound_to 6896
  152.5425  134.0753  159.8222 H   0  0  0  0  0  0  0  0  0  0  0  0  # atno 6908 bound_to 6896
  151.0905  133.5272  159.2647 H   0  0  0  0  0  0  0  0  0  0  0  0  # atno 6909 bound_to 6896
  145.2201  140.9130  143.3265 H   0  0  0  0  0  0  0  0  0  0  0  0  # atno 7974 bound_to 7965
  155.3068  140.0455  157.3032 H   0  0  0  0  0  0  0  0  0  0  0  0  # atno 8008 bound_to 7997
  154.5456  140.2301  155.8536 H   0  0  0  0  0  0  0  0  0  0  0  0  # atno 8009 bound_to 7997
  156.1920  140.3048  155.9359 H   0  0  0  0  0  0  0  0  0  0  0  0  # atno 8010 bound_to 7997
  140.7097  143.3290  151.2613 H   0  0  0  0  0  0  0  0  0  0  0  0  # atno 10167 bound_to 10162
  157.4572  130.8174  149.7849 H   0  0  0  0  0  0  0  0  0  0  0  0  # atno 10718 bound_to 10713
  153.6908  135.3299  155.3201 H   0  0  0  0  0  0  0  0  0  0  0  0  # atno 10763 bound_to 10752
  154.8440  135.4431  154.1510 H   0  0  0  0  0  0  0  0  0  0  0  0  # atno 10764 bound_to 10752
  153.2551  135.6985  153.7715 H   0  0  0  0  0  0  0  0  0  0  0  0  # atno 10765 bound_to 10752
  141.1373  133.8184  157.0729 H   0  0  0  0  0  0  0  0  0  0  0  0  # atno 11005 bound_to 11000
  144.9774  139.3818  143.6279 LP  0  0  0  0  0  0  0  0  0  0  0  0  # atno 17320 bound_to 7965
  146.3378  139.8899  142.8811 LP  0  0  0  0  0  0  0  0  0  0  0  0  # atno 17321 bound_to 7965
  139.6767  143.9926  152.2785 LP  0  0  0  0  0  0  0  0  0  0  0  0  # atno 17342 bound_to 10162
  139.9542  144.6600  150.8142 LP  0  0  0  0  0  0  0  0  0  0  0  0  # atno 17343 bound_to 10162
  156.0012  130.3879  150.2598 LP  0  0  0  0  0  0  0  0  0  0  0  0  # atno 17370 bound_to 10713
  157.0773  131.0133  151.3169 LP  0  0  0  0  0  0  0  0  0  0  0  0  # atno 17371 bound_to 10713
  140.0500  134.9810  157.1118 LP  0  0  0  0  0  0  0  0  0  0  0  0  # atno 17394 bound_to 11000
  140.4005  134.2088  155.7163 LP  0  0  0  0  0  0  0  0  0  0  0  0  # atno 17395 bound_to 11000

$$$$
