AV-unprocessed.smi:2276|AV-procd|sdf|9173|dock10
  -GOLD-   2272012393D 1   1.00000     0.00000
 Structure written by MMmdl.
 53 54  0  0  0  0  0  0  0  0  2 V2000
  152.3407  145.4370  160.3609 C   0  0  0  0  0  0  0  0  0  0  0  0
  151.9996  144.1206  159.6945 C   0  0  0  0  0  0  0  0  0  0  0  0
  152.7477  142.9632  159.9809 C   0  0  0  0  0  0  0  0  0  0  0  0
  152.3895  141.7630  159.3373 C   0  0  0  0  0  0  0  0  0  0  0  0
  153.1551  140.4821  159.5934 C   0  0  0  0  0  0  0  0  0  0  0  0
  151.3694  141.6761  158.4579 N   0  0  0  0  0  0  0  0  0  0  0  0
  150.6398  142.7841  158.1748 C   0  0  0  0  0  0  0  0  0  0  0  0
  149.5772  142.8019  157.2330 N   0  0  0  0  0  0  0  0  0  0  0  0
  148.8578  141.7534  156.7980 C   0  0  0  0  0  0  0  0  0  0  0  0
  149.0359  140.5841  157.1396 O   0  0  0  0  0  0  0  0  0  0  0  0
  147.9316  142.1375  155.9067 N   0  0  0  0  0  0  0  0  0  0  0  0
  147.1267  141.2514  155.0649 C   0  0  0  0  0  0  0  0  0  0  0  0
  146.3401  140.1709  155.8523 C   0  0  1  0  0  0  0  0  0  0  0  0
  145.0754  140.7807  156.4767 C   0  0  0  0  0  0  0  0  0  0  0  0
  145.9985  138.9312  154.9845 C   0  0  0  0  0  0  0  0  0  0  0  0
  147.1562  138.3070  154.3308 N   0  0  0  0  0  0  0  0  0  0  0  0
  147.1349  136.8481  154.4789 C   0  0  0  0  0  0  0  0  0  0  0  0
  146.0144  136.1859  153.6409 C   0  0  0  0  0  0  0  0  0  0  0  0
  146.1382  136.5486  152.2087 N   0  3  0  0  0  0  0  0  0  0  0  0
  145.0889  135.9307  151.3699 C   0  0  0  0  0  0  0  0  0  0  0  0
  146.2016  138.0177  152.0394 C   0  0  0  0  0  0  0  0  0  0  0  0
  147.3311  138.6116  152.9042 C   0  0  0  0  0  0  0  0  0  0  0  0
  150.9323  144.0278  158.7777 C   0  0  0  0  0  0  0  0  0  0  0  0
  152.0771  145.4028  161.4181 H   0  0  0  0  0  0  0  0  0  0  0  0
  151.8026  146.2659  159.9001 H   0  0  0  0  0  0  0  0  0  0  0  0
  153.4091  145.6390  160.2795 H   0  0  0  0  0  0  0  0  0  0  0  0
  153.5729  142.9962  160.6773 H   0  0  0  0  0  0  0  0  0  0  0  0
  153.7965  140.5753  160.4701 H   0  0  0  0  0  0  0  0  0  0  0  0
  153.7813  140.2394  158.7347 H   0  0  0  0  0  0  0  0  0  0  0  0
  152.4680  139.6525  159.7634 H   0  0  0  0  0  0  0  0  0  0  0  0
  149.4682  143.6656  156.7223 H   0  0  0  0  0  0  0  0  0  0  0  0
  147.8440  143.1260  155.7212 H   0  0  0  0  0  0  0  0  0  0  0  0
  146.4429  141.8554  154.4667 H   0  0  0  0  0  0  0  0  0  0  0  0
  147.8067  140.7692  154.3620 H   0  0  0  0  0  0  0  0  0  0  0  0
  146.9843  139.8746  156.6762 H   0  0  0  0  0  0  0  0  0  0  0  0
  144.3779  141.1195  155.7100 H   0  0  0  0  0  0  0  0  0  0  0  0
  145.3215  141.6377  157.1042 H   0  0  0  0  0  0  0  0  0  0  0  0
  144.5548  140.0565  157.1036 H   0  0  0  0  0  0  0  0  0  0  0  0
  145.5105  138.1889  155.6178 H   0  0  0  0  0  0  0  0  0  0  0  0
  145.2657  139.1945  154.2266 H   0  0  0  0  0  0  0  0  0  0  0  0
  148.1030  136.4524  154.1686 H   0  0  0  0  0  0  0  0  0  0  0  0
  147.0233  136.5871  155.5319 H   0  0  0  0  0  0  0  0  0  0  0  0
  146.0859  135.1023  153.7394 H   0  0  0  0  0  0  0  0  0  0  0  0
  145.0267  136.4607  154.0127 H   0  0  0  0  0  0  0  0  0  0  0  0
  144.0991  136.2967  151.6469 H   0  0  0  0  0  0  0  0  0  0  0  0
  145.0974  134.8460  151.4798 H   0  0  0  0  0  0  0  0  0  0  0  0
  145.2542  136.1609  150.3168 H   0  0  0  0  0  0  0  0  0  0  0  0
  146.3874  138.2502  150.9902 H   0  0  0  0  0  0  0  0  0  0  0  0
  145.2405  138.4638  152.2888 H   0  0  0  0  0  0  0  0  0  0  0  0
  147.4147  139.6833  152.7349 H   0  0  0  0  0  0  0  0  0  0  0  0
  148.2866  138.1962  152.5802 H   0  0  0  0  0  0  0  0  0  0  0  0
  150.3463  144.9034  158.5375 H   0  0  0  0  0  0  0  0  0  0  0  0
  147.0248  136.1825  151.8927 H   0  0  0  0  0  0  0  0  0  0  0  0
  1  2  1  0  0  0  0
  1 24  1  0  0  0  0
  1 25  1  0  0  0  0
  1 26  1  0  0  0  0
  2 23  1  0  0  0  0
  2  3  2  0  0  0  0
  3  4  1  0  0  0  0
  3 27  1  0  0  0  0
  4  5  1  0  0  0  0
  4  6  2  0  0  0  0
  5 28  1  0  0  0  0
  5 29  1  0  0  0  0
  5 30  1  0  0  0  0
  6  7  1  0  0  0  0
  7  8  1  0  0  0  0
  7 23  2  0  0  0  0
  8  9  1  0  0  0  0
  8 31  1  0  0  0  0
  9 10  2  0  0  0  0
  9 11  1  0  0  0  0
 11 12  1  0  0  0  0
 11 32  1  0  0  0  0
 12 13  1  0  0  0  0
 12 33  1  0  0  0  0
 12 34  1  0  0  0  0
 13 14  1  0  0  0  0
 13 15  1  0  0  0  0
 13 35  1  0  0  0  0
 14 36  1  0  0  0  0
 14 37  1  0  0  0  0
 14 38  1  0  0  0  0
 15 16  1  0  0  0  0
 15 39  1  0  0  0  0
 15 40  1  0  0  0  0
 16 22  1  0  0  0  0
 16 17  1  0  0  0  0
 17 18  1  0  0  0  0
 17 41  1  0  0  0  0
 17 42  1  0  0  0  0
 18 19  1  0  0  0  0
 18 43  1  0  0  0  0
 18 44  1  0  0  0  0
 19 20  1  0  0  0  0
 19 21  1  0  0  0  0
 19 53  1  0  0  0  0
 20 45  1  0  0  0  0
 20 46  1  0  0  0  0
 20 47  1  0  0  0  0
 21 22  1  0  0  0  0
 21 48  1  0  0  0  0
 21 49  1  0  0  0  0
 22 50  1  0  0  0  0
 22 51  1  0  0  0  0
 23 52  1  0  0  0  0
M  CHG  1  19   1
M  END
> <s_m_source_file>
AV-unprocessed.smi

> <i_m_source_file_index>
2276

> <i_lp_mmshare_version>
43012

> <i_f3d_flags>
0

> <s_epik_input>
W0NIM11jMVtjSF1jKFtDSDNdKW5jKFtjSF0xKVtOSF1DKD1PKVtOSF1bQ0gyXVtDQEhdKFtDSDNdKVtDSDJdTjJbQ0gyXVtDSDJdTihbQ0gzXSlbQ0gyXVtDSDJdMg==

> <s_epik_cmdline>
J2VwaWtfcHl0aG9uJywgJy1waCcsICc3LjAnLCAnLXRuJywgJzgnLCAnLW1hJywgJzIwMCcsICctbWV0YWxfYmluZGluZycsICctaW1hZScsICc8aW5maWxlLm1hZT4nLCAnLW9tYWUnLCAnPG91dGZpbGUubWFlPic=

> <r_epik_Ionization_Penalty>
0.0247364

> <r_epik_Ionization_Penalty_Charging>
0.0230248

> <r_epik_Ionization_Penalty_Neutral>
0.00171164

> <r_epik_State_Penalty>
0.239056

> <r_epik_Charging_Adjusted_Penalty>
0.262081

> <i_epik_Tot_Q>
1

> <i_epik_Tot_abs_Q>
1

> <r_epik_Metal_State_Penalty>
0.239048

> <b_epik_Metal_Only>
0

> <s_lp_Force_Field>
OPLS_2005

> <r_lp_Energy>
20.5392

> <b_lp_Chiralities_Consistent>
1

> <s_lp_Variant>
AV-unprocessed.smi:2276-2

> <Gold.Version>
5.8.1

> <Gold.Id.Protein>
6NUR|6NUR_protein|mol2

> <Gold.PLP.Fitness>
43.7724

> <Gold.PLP.PLP>
-34.2476

> <Gold.PLP.part.hbond>
-2.8806

> <Gold.PLP.part.metal>
0.0000

> <Gold.PLP.part.buried>
-1.4222

> <Gold.PLP.part.nonpolar>
-29.6960

> <Gold.PLP.part.repulsive>
0.2730

> <Gold.PLP.ligand.clash>
0.0000

> <Gold.PLP.ligand.torsion>
0.9579

> <Gold.PLP.Chemscore.Hbond>
3.7913

> <Gold.PLP.Chemscore.CHOScore>
0.0000

> <Gold.PLP.Chemscore.Metal>
0.0000

> <Gold.Chemscore.Hbonds>
donor molecule, donor type, donor heavy atom, donor atom, acceptor molecule, acceptor atom, score
      L1  H     8    31       P1  8028  1.00
      L1  H    11    32       P1  8028  0.85
      L1  H    19    53       P1  7948  2.00

> <Gold.PLP.Chemscore.Internal.Correction>
0.0669

> <Gold.Rescore>
     Score         DG    S(hbond)    S(metal)    S(lipo)     H(rot)  DE(clash)    DE(int)     intcor
     16.56     -21.24       2.68        0.00      93.87       1.63       1.40       3.28       ----

> <Gold.Chemscore.Fitness>
16.5557

> <Gold.Chemscore.DG>
-21.2396

> <Gold.Chemscore.ZeroCoef>
-5.4800

> <Gold.Chemscore.Hbond>
2.6781

> <Gold.Chemscore.Metal>
0.0000

> <Gold.Chemscore.Lipo>
93.8703

> <Gold.Chemscore.Internal_Hbond>
0.0000

> <Gold.Chemscore.DEClash>
1.4011

> <Gold.Chemscore.DEInternal>
3.2828

> <Gold.Chemscore.Rot>
1.6282

> <Gold.Chemscore.Internal.Correction>
   9.000000E+99

> <Gold.Chemscore.Hbonds>
donor molecule, donor type, donor heavy atom, donor atom, acceptor molecule, acceptor atom, score
      L1  H     8    31       P1  8028  0.96
      L1  H    11    32       P1  8028  0.38
      L1  H    19    53       P1  7948  0.96

> <Gold.Chemscore.Hbond.Weighted>
-8.9449

> <Gold.Chemscore.Metal.Weighted>
-0.0000

> <Gold.Chemscore.Lipo.Weighted>
-10.9828

> <Gold.Chemscore.Internal_Hbond.Weighted>
0.0000

> <Gold.Chemscore.DEClash.Weighted>
1.4011

> <Gold.Chemscore.DEInternal.Weighted>
3.2828

> <Gold.Chemscore.Rot.Weighted>
4.1682

> <Gold.Chemscore.Internal.Correction.Weighted>
   9.000000E+99

> <Gold.Protein.RotatedTorsions>
[ 6907 6896 6895 6894 ] final -172.82 input  -60.11 | X-H torsion
[ 7974 7965 7964 7962 ] final   64.40 input  175.53 | X-H torsion
[ 8008 7997 7996 7995 ] final -120.79 input   59.86 | X-H torsion
[ 10167 10162 10161 10158 ] final  113.33 input  -65.29 | X-H torsion
[ 10718 10713 10712 10709 ] final -157.20 input   66.30 | X-H torsion
[ 10763 10752 10751 10750 ] final   -3.30 input  -60.55 | X-H torsion
[ 11005 11000 10999 10996 ] final   25.82 input  -57.11 | X-H torsion

> <Gold.Protein.ActiveResidues>
 VAL166  LYS551  ARG553  GLY616  TRP617  ASP618  TYR619  PRO620  LYS621  CYS622 
 ASP623  PHE694  ASN695  SER759  ASP760  ASP761  ALA762  ILE779  LEU786  VAL792 
 PHE793  MET794  SER795  GLU796  ALA797  LYS798  CYS799  TRP800  GLU811  SER814 

> <Gold.Protein.RotatedAtoms>
  151.5461  133.3425  159.2944 H   0  0  0  0  0  0  0  0  0  0  0  0  # atno 6907 bound_to 6896
  150.8506  134.7832  159.7017 H   0  0  0  0  0  0  0  0  0  0  0  0  # atno 6908 bound_to 6896
  152.4553  134.5313  159.9863 H   0  0  0  0  0  0  0  0  0  0  0  0  # atno 6909 bound_to 6896
  145.8506  139.3251  143.0877 H   0  0  0  0  0  0  0  0  0  0  0  0  # atno 7974 bound_to 7965
  155.1375  140.0401  157.2790 H   0  0  0  0  0  0  0  0  0  0  0  0  # atno 8008 bound_to 7997
  154.6497  140.2566  155.7201 H   0  0  0  0  0  0  0  0  0  0  0  0  # atno 8009 bound_to 7997
  156.2571  140.2839  156.0926 H   0  0  0  0  0  0  0  0  0  0  0  0  # atno 8010 bound_to 7997
  139.6469  144.7127  151.2124 H   0  0  0  0  0  0  0  0  0  0  0  0  # atno 10167 bound_to 10162
  156.5371  130.8546  151.2736 H   0  0  0  0  0  0  0  0  0  0  0  0  # atno 10718 bound_to 10713
  153.3695  135.6994  153.6649 H   0  0  0  0  0  0  0  0  0  0  0  0  # atno 10763 bound_to 10752
  153.5304  135.3593  155.2674 H   0  0  0  0  0  0  0  0  0  0  0  0  # atno 10764 bound_to 10752
  154.8679  135.4179  154.2970 H   0  0  0  0  0  0  0  0  0  0  0  0  # atno 10765 bound_to 10752
  140.3437  134.2305  155.7687 H   0  0  0  0  0  0  0  0  0  0  0  0  # atno 11005 bound_to 11000
  145.9362  140.9013  143.0331 LP  0  0  0  0  0  0  0  0  0  0  0  0  # atno 17320 bound_to 7965
  144.6729  140.1486  143.7432 LP  0  0  0  0  0  0  0  0  0  0  0  0  # atno 17321 bound_to 7965
  140.7519  143.6215  150.8508 LP  0  0  0  0  0  0  0  0  0  0  0  0  # atno 17342 bound_to 10162
  139.9859  143.5900  152.2927 LP  0  0  0  0  0  0  0  0  0  0  0  0  # atno 17343 bound_to 10162
  157.7412  130.9865  150.2428 LP  0  0  0  0  0  0  0  0  0  0  0  0  # atno 17370 bound_to 10713
  156.3006  130.3758  149.7754 LP  0  0  0  0  0  0  0  0  0  0  0  0  # atno 17371 bound_to 10713
  141.2031  133.7920  157.0355 LP  0  0  0  0  0  0  0  0  0  0  0  0  # atno 17394 bound_to 11000
  140.0760  134.9675  157.1546 LP  0  0  0  0  0  0  0  0  0  0  0  0  # atno 17395 bound_to 11000

$$$$
