AV-unprocessed.smi:52|AV-procd|sdf|512|dock3
  -GOLD-   2262016383D 1   1.00000     0.00000
 Structure written by MMmdl.
 26 27  0  0  0  0  0  0  0  0  2 V2000
  149.1028  135.1793  158.8925 O   0  0  0  0  0  0  0  0  0  0  0  0
  149.3067  136.3685  158.5615 C   0  0  0  0  0  0  0  0  0  0  0  0
  148.7628  137.3222  159.1609 O   0  5  0  0  0  0  0  0  0  0  0  0
  150.2207  136.6538  157.4247 C   0  0  0  0  0  0  0  0  0  0  0  0
  150.8911  135.7325  156.6601 C   0  0  0  0  0  0  0  0  0  0  0  0
  151.6340  136.3865  155.7148 O   0  0  0  0  0  0  0  0  0  0  0  0
  151.3830  137.7038  155.9447 C   0  0  0  0  0  0  0  0  0  0  0  0
  152.0535  138.7273  155.0887 C   0  0  0  0  0  0  0  0  0  0  0  0
  151.1891  139.8578  154.7668 N   0  0  0  0  0  0  0  0  0  0  0  0
  149.8917  139.4756  154.2328 C   0  0  0  0  0  0  0  0  0  0  0  0
  148.9641  140.6825  154.4326 C   0  0  0  0  0  0  0  0  0  0  0  0
  149.7071  141.5594  155.4540 C   0  0  1  0  0  0  0  0  0  0  0  0
  148.8867  141.9639  156.5294 O   0  0  0  0  0  0  0  0  0  0  0  0
  150.8622  140.6712  155.9188 C   0  0  0  0  0  0  0  0  0  0  0  0
  150.5431  137.9210  156.9544 N   0  0  0  0  0  0  0  0  0  0  0  0
  150.1043  142.4444  154.9547 H   0  0  0  0  0  0  0  0  0  0  0  0
  150.9425  134.6537  156.6622 H   0  0  0  0  0  0  0  0  0  0  0  0
  152.9591  139.0696  155.5913 H   0  0  0  0  0  0  0  0  0  0  0  0
  152.3720  138.2374  154.1677 H   0  0  0  0  0  0  0  0  0  0  0  0
  149.9626  139.1781  153.1860 H   0  0  0  0  0  0  0  0  0  0  0  0
  149.4950  138.6256  154.7908 H   0  0  0  0  0  0  0  0  0  0  0  0
  148.8158  141.2258  153.4986 H   0  0  0  0  0  0  0  0  0  0  0  0
  147.9854  140.3589  154.7892 H   0  0  0  0  0  0  0  0  0  0  0  0
  148.8266  142.9070  156.5228 H   0  0  0  0  0  0  0  0  0  0  0  0
  150.5351  140.0329  156.7418 H   0  0  0  0  0  0  0  0  0  0  0  0
  151.7207  141.2491  156.2627 H   0  0  0  0  0  0  0  0  0  0  0  0
  1  2  2  0  0  0  0
  2  3  1  0  0  0  0
  2  4  1  0  0  0  0
  4 15  1  0  0  0  0
  4  5  2  0  0  0  0
  5  6  1  0  0  0  0
  5 17  1  0  0  0  0
  6  7  1  0  0  0  0
  7  8  1  0  0  0  0
  7 15  2  0  0  0  0
  8  9  1  0  0  0  0
  8 18  1  0  0  0  0
  8 19  1  0  0  0  0
  9 14  1  0  0  0  0
  9 10  1  0  0  0  0
 10 11  1  0  0  0  0
 10 20  1  0  0  0  0
 10 21  1  0  0  0  0
 11 12  1  0  0  0  0
 11 22  1  0  0  0  0
 11 23  1  0  0  0  0
 12 16  1  0  0  0  0
 12 13  1  0  0  0  0
 12 14  1  0  0  0  0
 13 24  1  0  0  0  0
 14 25  1  0  0  0  0
 14 26  1  0  0  0  0
M  CHG  1   3  -1
M  END
> <s_m_source_file>
AV-unprocessed.smi

> <i_m_source_file_index>
52

> <i_lp_mmshare_version>
43012

> <i_f3d_flags>
0

> <s_epik_input>
Tz1DKFtPSF0pYzFbY0hdb2MobjEpW0NIMl1OMltDSDJdW0NIMl1bQ0BIXShbT0hdKVtDSDJdMg==

> <s_epik_cmdline>
J2VwaWtfcHl0aG9uJywgJy1waCcsICc3LjAnLCAnLXRuJywgJzgnLCAnLW1hJywgJzIwMCcsICctbWV0YWxfYmluZGluZycsICctaW1hZScsICc8aW5maWxlLm1hZT4nLCAnLW9tYWUnLCAnPG91dGZpbGUubWFlPic=

> <r_epik_Ionization_Penalty>
1.6537

> <r_epik_Ionization_Penalty_Charging>
0.000221913

> <r_epik_Ionization_Penalty_Neutral>
1.65348

> <r_epik_State_Penalty>
1.75577

> <r_epik_Charging_Adjusted_Penalty>
1.75599

> <i_epik_Tot_Q>
-1

> <i_epik_Tot_abs_Q>
1

> <r_epik_Metal_State_Penalty>
1.75577

> <b_epik_Metal_Only>
0

> <s_lp_Force_Field>
OPLS_2005

> <r_lp_Energy>
35.559

> <b_lp_Chiralities_Consistent>
1

> <s_lp_Variant>
AV-unprocessed.smi:52-6

> <Gold.Version>
5.8.1

> <Gold.Id.Protein>
6NUR|6NUR_protein|mol2

> <Gold.PLP.Fitness>
38.7799

> <Gold.PLP.PLP>
-24.4570

> <Gold.PLP.part.hbond>
-5.8009

> <Gold.PLP.part.metal>
0.0000

> <Gold.PLP.part.buried>
-1.6546

> <Gold.PLP.part.nonpolar>
-17.1086

> <Gold.PLP.part.repulsive>
0.1070

> <Gold.PLP.ligand.clash>
0.0000

> <Gold.PLP.ligand.torsion>
0.3396

> <Gold.PLP.Chemscore.Hbond>
5.0000

> <Gold.PLP.Chemscore.CHOScore>
0.0000

> <Gold.PLP.Chemscore.Metal>
0.0000

> <Gold.Chemscore.Hbonds>
donor molecule, donor type, donor heavy atom, donor atom, acceptor molecule, acceptor atom, score
      L1  H    13    24       P1  8028  1.00
      P1  H  6896  6907       L1     1  2.00
      P1  H  7989  7998       L1     9  0.85
      P1  H 10752 10765       L1     6  1.00

> <Gold.PLP.Chemscore.Internal.Correction>
0.0021

> <Gold.Rescore>
     Score         DG    S(hbond)    S(metal)    S(lipo)     H(rot)  DE(clash)    DE(int)     intcor
     14.74     -16.41       3.22        0.00      44.29       1.95       0.13       1.54       ----

> <Gold.Chemscore.Fitness>
14.7404

> <Gold.Chemscore.DG>
-16.4096

> <Gold.Chemscore.ZeroCoef>
-5.4800

> <Gold.Chemscore.Hbond>
3.2154

> <Gold.Chemscore.Metal>
0.0000

> <Gold.Chemscore.Lipo>
44.2867

> <Gold.Chemscore.Internal_Hbond>
0.0000

> <Gold.Chemscore.DEClash>
0.1288

> <Gold.Chemscore.DEInternal>
1.5404

> <Gold.Chemscore.Rot>
1.9497

> <Gold.Chemscore.Internal.Correction>
   9.000000E+99

> <Gold.Chemscore.Hbonds>
donor molecule, donor type, donor heavy atom, donor atom, acceptor molecule, acceptor atom, score
      L1  H    13    24       P1  8028  0.91
      P1  H  6896  6907       L1     1  0.70
      P1  H  7989  7998       L1     9  0.10
      P1  H 10752 10765       L1     6  0.99

> <Gold.Chemscore.Hbond.Weighted>
-10.7393

> <Gold.Chemscore.Metal.Weighted>
-0.0000

> <Gold.Chemscore.Lipo.Weighted>
-5.1815

> <Gold.Chemscore.Internal_Hbond.Weighted>
0.0000

> <Gold.Chemscore.DEClash.Weighted>
0.1288

> <Gold.Chemscore.DEInternal.Weighted>
1.5404

> <Gold.Chemscore.Rot.Weighted>
4.9912

> <Gold.Chemscore.Internal.Correction.Weighted>
   9.000000E+99

> <Gold.Protein.RotatedTorsions>
[ 6907 6896 6895 6894 ] final  -77.35 input  -60.11 | X-H torsion
[ 7974 7965 7964 7962 ] final -113.36 input  175.53 | X-H torsion
[ 8008 7997 7996 7995 ] final   48.69 input   59.86 | X-H torsion
[ 10167 10162 10161 10158 ] final   76.09 input  -65.29 | X-H torsion
[ 10718 10713 10712 10709 ] final -111.03 input   66.30 | X-H torsion
[ 10763 10752 10751 10750 ] final -171.71 input  -60.55 | X-H torsion
[ 11005 11000 10999 10996 ] final -163.36 input  -57.11 | X-H torsion

> <Gold.Protein.ActiveResidues>
 VAL166  LYS551  ARG553  GLY616  TRP617  ASP618  TYR619  PRO620  LYS621  CYS622 
 ASP623  PHE694  ASN695  SER759  ASP760  ASP761  ALA762  ILE779  LEU786  VAL792 
 PHE793  MET794  SER795  GLU796  ALA797  LYS798  CYS799  TRP800  GLU811  SER814 

> <Gold.Protein.RotatedAtoms>
  150.7001  134.4435  159.5302 H   0  0  0  0  0  0  0  0  0  0  0  0  # atno 6907 bound_to 6896
  152.2141  134.8472  160.0503 H   0  0  0  0  0  0  0  0  0  0  0  0  # atno 6908 bound_to 6896
  151.9346  133.3586  159.3980 H   0  0  0  0  0  0  0  0  0  0  0  0  # atno 6909 bound_to 6896
  145.1329  140.8735  143.3747 H   0  0  0  0  0  0  0  0  0  0  0  0  # atno 7974 bound_to 7965
  155.3897  140.3432  155.4251 H   0  0  0  0  0  0  0  0  0  0  0  0  # atno 8008 bound_to 7997
  156.1564  140.1587  156.8718 H   0  0  0  0  0  0  0  0  0  0  0  0  # atno 8009 bound_to 7997
  154.5099  140.0793  156.7950 H   0  0  0  0  0  0  0  0  0  0  0  0  # atno 8010 bound_to 7997
  139.9960  144.5722  150.7778 H   0  0  0  0  0  0  0  0  0  0  0  0  # atno 10167 bound_to 10162
  156.0624  130.5846  150.8318 H   0  0  0  0  0  0  0  0  0  0  0  0  # atno 10718 bound_to 10713
  154.6275  135.2882  155.0256 H   0  0  0  0  0  0  0  0  0  0  0  0  # atno 10763 bound_to 10752
  154.1428  135.6516  153.4950 H   0  0  0  0  0  0  0  0  0  0  0  0  # atno 10764 bound_to 10752
  153.0264  135.5337  154.7088 H   0  0  0  0  0  0  0  0  0  0  0  0  # atno 10765 bound_to 10752
  140.5990  134.4967  157.5203 H   0  0  0  0  0  0  0  0  0  0  0  0  # atno 11005 bound_to 11000
  145.0615  139.3101  143.5878 LP  0  0  0  0  0  0  0  0  0  0  0  0  # atno 17320 bound_to 7965
  146.3512  140.0059  142.8671 LP  0  0  0  0  0  0  0  0  0  0  0  0  # atno 17321 bound_to 7965
  140.7437  143.2850  151.3490 LP  0  0  0  0  0  0  0  0  0  0  0  0  # atno 17342 bound_to 10162
  139.6306  144.0728  152.2473 LP  0  0  0  0  0  0  0  0  0  0  0  0  # atno 17343 bound_to 10162
  157.5642  131.0946  150.9515 LP  0  0  0  0  0  0  0  0  0  0  0  0  # atno 17370 bound_to 10713
  156.9745  130.5503  149.5292 LP  0  0  0  0  0  0  0  0  0  0  0  0  # atno 17371 bound_to 10713
  139.9241  134.8091  156.1122 LP  0  0  0  0  0  0  0  0  0  0  0  0  # atno 17394 bound_to 11000
  141.0885  133.6724  156.2488 LP  0  0  0  0  0  0  0  0  0  0  0  0  # atno 17395 bound_to 11000

$$$$
