AV-unprocessed.smi:37|AV-procd|sdf|334|dock6
  -GOLD-   2262016173D 1   1.00000     0.00000
 Structure written by MMmdl.
 43 44  0  0  0  0  0  0  0  0  2 V2000
  149.1279  132.1852  154.0321 C   0  0  0  0  0  0  0  0  0  0  0  0
  150.3335  132.1908  154.9837 C   0  0  0  0  0  0  0  0  0  0  0  0
  149.9827  132.5949  156.4173 C   0  0  0  0  0  0  0  0  0  0  0  0
  150.8282  132.6603  157.3117 O   0  0  0  0  0  0  0  0  0  0  0  0
  148.6753  132.8594  156.5568 O   0  0  0  0  0  0  0  0  0  0  0  0
  148.1935  133.4097  157.7732 C   0  0  0  0  0  0  0  0  0  0  0  0
  148.9055  134.7337  158.0824 C   0  0  1  0  0  0  0  0  0  0  0  0
  149.4562  135.3157  156.9016 O   0  0  0  0  0  0  0  0  0  0  0  0
  149.0854  136.6608  156.8288 C   0  0  2  0  0  0  0  0  0  0  0  0
  150.2180  137.4841  156.2601 N   0  0  0  0  0  0  0  0  0  0  0  0
  150.4399  138.7873  156.6739 C   0  0  0  0  0  0  0  0  0  0  0  0
  151.4505  139.5194  156.1623 C   0  0  0  0  0  0  0  0  0  0  0  0
  151.6382  140.7833  156.5790 F   0  0  0  0  0  0  0  0  0  0  0  0
  152.3319  138.9318  155.1549 C   0  0  0  0  0  0  0  0  0  0  0  0
  153.2552  139.6027  154.6961 O   0  0  0  0  0  0  0  0  0  0  0  0
  152.0867  137.6476  154.7637 N   0  5  0  0  0  0  0  0  0  0  0  0
  151.0630  136.9038  155.2765 C   0  0  0  0  0  0  0  0  0  0  0  0
  150.8289  135.7465  154.9277 O   0  0  0  0  0  0  0  0  0  0  0  0
  148.6923  137.0861  158.2484 C   0  0  2  0  0  0  0  0  0  0  0  0
  150.2940  137.4942  159.3771 Br  0  0  0  0  0  0  0  0  0  0  0  0
  148.0211  135.8094  158.7248 C   0  0  2  0  0  0  0  0  0  0  0  0
  147.9870  135.6897  160.1409 O   0  0  0  0  0  0  0  0  0  0  0  0
  147.2810  136.5660  160.8773 C   0  0  0  0  0  0  0  0  0  0  0  0
  146.5562  137.4593  160.4391 O   0  0  0  0  0  0  0  0  0  0  0  0
  147.4715  136.3610  162.3783 C   0  0  0  0  0  0  0  0  0  0  0  0
  147.2427  134.9024  162.7977 C   0  0  0  0  0  0  0  0  0  0  0  0
  149.4365  131.9027  153.0254 H   0  0  0  0  0  0  0  0  0  0  0  0
  148.6651  133.1708  153.9703 H   0  0  0  0  0  0  0  0  0  0  0  0
  148.3675  131.4733  154.3555 H   0  0  0  0  0  0  0  0  0  0  0  0
  150.7867  131.1995  155.0064 H   0  0  0  0  0  0  0  0  0  0  0  0
  151.0935  132.8760  154.6077 H   0  0  0  0  0  0  0  0  0  0  0  0
  147.1201  133.5883  157.6932 H   0  0  0  0  0  0  0  0  0  0  0  0
  148.3462  132.6993  158.5865 H   0  0  0  0  0  0  0  0  0  0  0  0
  149.7529  134.5294  158.7386 H   0  0  0  0  0  0  0  0  0  0  0  0
  148.2625  136.7431  156.1158 H   0  0  0  0  0  0  0  0  0  0  0  0
  149.7950  139.2416  157.4108 H   0  0  0  0  0  0  0  0  0  0  0  0
  148.0345  137.9558  158.2421 H   0  0  0  0  0  0  0  0  0  0  0  0
  147.0179  135.7526  158.2998 H   0  0  0  0  0  0  0  0  0  0  0  0
  148.4783  136.6765  162.6526 H   0  0  0  0  0  0  0  0  0  0  0  0
  146.7793  137.0119  162.9131 H   0  0  0  0  0  0  0  0  0  0  0  0
  147.3372  134.7950  163.8782 H   0  0  0  0  0  0  0  0  0  0  0  0
  147.9711  134.2345  162.3363 H   0  0  0  0  0  0  0  0  0  0  0  0
  146.2460  134.5600  162.5175 H   0  0  0  0  0  0  0  0  0  0  0  0
  1  2  1  0  0  0  0
  1 27  1  0  0  0  0
  1 28  1  0  0  0  0
  1 29  1  0  0  0  0
  2  3  1  0  0  0  0
  2 30  1  0  0  0  0
  2 31  1  0  0  0  0
  3  4  2  0  0  0  0
  3  5  1  0  0  0  0
  5  6  1  0  0  0  0
  6  7  1  0  0  0  0
  6 32  1  0  0  0  0
  6 33  1  0  0  0  0
  7 21  1  0  0  0  0
  7  8  1  0  0  0  0
  7 34  1  0  0  0  0
  8  9  1  0  0  0  0
  9 10  1  0  0  0  0
  9 19  1  0  0  0  0
  9 35  1  0  0  0  0
 10 17  1  0  0  0  0
 10 11  1  0  0  0  0
 11 12  2  0  0  0  0
 11 36  1  0  0  0  0
 12 13  1  0  0  0  0
 12 14  1  0  0  0  0
 14 15  2  0  0  0  0
 14 16  1  0  0  0  0
 16 17  1  0  0  0  0
 17 18  2  0  0  0  0
 19 20  1  0  0  0  0
 19 21  1  0  0  0  0
 19 37  1  0  0  0  0
 21 22  1  0  0  0  0
 21 38  1  0  0  0  0
 22 23  1  0  0  0  0
 23 24  2  0  0  0  0
 23 25  1  0  0  0  0
 25 26  1  0  0  0  0
 25 39  1  0  0  0  0
 25 40  1  0  0  0  0
 26 41  1  0  0  0  0
 26 42  1  0  0  0  0
 26 43  1  0  0  0  0
M  CHG  1  16  -1
M  END
> <s_m_source_file>
AV-unprocessed.smi

> <i_m_source_file_index>
37

> <i_lp_mmshare_version>
43012

> <i_f3d_flags>
0

> <s_epik_input>
W0NIM11bQ0gyXUMoPU8pT1tDSDJdW0NAQEhdMU9bQ0BASF0objJbY0hdYyhGKWMoPU8pW25IXWMyPU8pW0NAQEhdKEJyKVtDQEhdMU9DKD1PKVtDSDJdW0NIM10=

> <s_epik_cmdline>
J2VwaWtfcHl0aG9uJywgJy1waCcsICc3LjAnLCAnLXRuJywgJzgnLCAnLW1hJywgJzIwMCcsICctbWV0YWxfYmluZGluZycsICctaW1hZScsICc8aW5maWxlLm1hZT4nLCAnLW9tYWUnLCAnPG91dGZpbGUubWFlPic=

> <r_epik_Ionization_Penalty>
1.08158

> <r_epik_Ionization_Penalty_Charging>
9.05154e-09

> <r_epik_Ionization_Penalty_Neutral>
1.08158

> <r_epik_State_Penalty>
1.13706

> <r_epik_Charging_Adjusted_Penalty>
1.13706

> <i_epik_Tot_Q>
-1

> <i_epik_Tot_abs_Q>
1

> <r_epik_Metal_State_Penalty>
0.00343535

> <b_epik_Metal_Only>
0

> <s_epik_Chemistry_Notes>
This compound has an ester and may undergo hydrolysis at high or low pH. This compound contains an acetal/aminal-like group ( X-CH(R)-Y where X, Y are N, S, or O) that may be acid/base labile, releasing an aldehyde.

> <s_lp_Force_Field>
OPLS_2005

> <r_lp_Energy>
36.4441

> <b_lp_Chiralities_Consistent>
1

> <s_lp_Variant>
AV-unprocessed.smi:37-32

> <Gold.Version>
5.8.1

> <Gold.Id.Protein>
6NUR|6NUR_protein|mol2

> <Gold.PLP.Fitness>
41.6906

> <Gold.PLP.PLP>
-36.4518

> <Gold.PLP.part.hbond>
-5.8910

> <Gold.PLP.part.metal>
0.0000

> <Gold.PLP.part.buried>
-4.2982

> <Gold.PLP.part.nonpolar>
-26.6191

> <Gold.PLP.part.repulsive>
0.2698

> <Gold.PLP.ligand.clash>
2.2719

> <Gold.PLP.ligand.torsion>
1.4187

> <Gold.PLP.Chemscore.Hbond>
3.3308

> <Gold.PLP.Chemscore.CHOScore>
0.0000

> <Gold.PLP.Chemscore.Metal>
0.0000

> <Gold.Chemscore.Hbonds>
donor molecule, donor type, donor heavy atom, donor atom, acceptor molecule, acceptor atom, score
      P1  H  6896  6907       L1     4  0.86
      P1  H  6934  6947       L1    24  1.00
      P1  H  7989  7998       L1    15  0.04
      P1  H  7997  8008       L1    15  1.00
      P1  H 10752 10764       L1    18  0.22

> <Gold.PLP.Chemscore.Internal.Correction>
0.3557

> <Gold.Rescore>
     Score         DG    S(hbond)    S(metal)    S(lipo)     H(rot)  DE(clash)    DE(int)     intcor
      9.40     -13.69       2.96        0.00      57.19       3.27       0.15       4.13       ----

> <Gold.Chemscore.Fitness>
9.4037

> <Gold.Chemscore.DG>
-13.6898

> <Gold.Chemscore.ZeroCoef>
-5.4800

> <Gold.Chemscore.Hbond>
2.9587

> <Gold.Chemscore.Metal>
0.0000

> <Gold.Chemscore.Lipo>
57.1887

> <Gold.Chemscore.Internal_Hbond>
0.0000

> <Gold.Chemscore.DEClash>
0.1545

> <Gold.Chemscore.DEInternal>
4.1316

> <Gold.Chemscore.Rot>
3.2669

> <Gold.Chemscore.Internal.Correction>
   9.000000E+99

> <Gold.Chemscore.Hbonds>
donor molecule, donor type, donor heavy atom, donor atom, acceptor molecule, acceptor atom, score
      P1  H  6896  6907       L1     4  0.82
      P1  H  6934  6947       L1    24  0.78
      P1  H  7997  8008       L1    15  1.00

> <Gold.Chemscore.Hbond.Weighted>
-9.8821

> <Gold.Chemscore.Metal.Weighted>
-0.0000

> <Gold.Chemscore.Lipo.Weighted>
-6.6911

> <Gold.Chemscore.Internal_Hbond.Weighted>
0.0000

> <Gold.Chemscore.DEClash.Weighted>
0.1545

> <Gold.Chemscore.DEInternal.Weighted>
4.1316

> <Gold.Chemscore.Rot.Weighted>
8.3634

> <Gold.Chemscore.Internal.Correction.Weighted>
   9.000000E+99

> <Gold.Protein.RotatedTorsions>
[ 6907 6896 6895 6894 ] final -162.04 input  -60.11 | X-H torsion
[ 7974 7965 7964 7962 ] final  149.10 input  175.53 | X-H torsion
[ 8008 7997 7996 7995 ] final    3.10 input   59.86 | X-H torsion
[ 10167 10162 10161 10158 ] final   74.24 input  -65.29 | X-H torsion
[ 10718 10713 10712 10709 ] final   -4.01 input   66.30 | X-H torsion
[ 10763 10752 10751 10750 ] final  -57.72 input  -60.55 | X-H torsion
[ 11005 11000 10999 10996 ] final   -6.50 input  -57.11 | X-H torsion

> <Gold.Protein.ActiveResidues>
 VAL166  LYS551  ARG553  GLY616  TRP617  ASP618  TYR619  PRO620  LYS621  CYS622 
 ASP623  PHE694  ASN695  SER759  ASP760  ASP761  ALA762  ILE779  LEU786  VAL792 
 PHE793  MET794  SER795  GLU796  ALA797  LYS798  CYS799  TRP800  GLU811  SER814 

> <Gold.Protein.RotatedAtoms>
  151.3740  133.3844  159.2702 H   0  0  0  0  0  0  0  0  0  0  0  0  # atno 6907 bound_to 6896
  150.9629  134.9015  159.7752 H   0  0  0  0  0  0  0  0  0  0  0  0  # atno 6908 bound_to 6896
  152.5156  134.3700  159.9367 H   0  0  0  0  0  0  0  0  0  0  0  0  # atno 6909 bound_to 6896
  144.8463  139.6238  143.5994 H   0  0  0  0  0  0  0  0  0  0  0  0  # atno 7974 bound_to 7965
  154.6995  140.2670  155.6733 H   0  0  0  0  0  0  0  0  0  0  0  0  # atno 8008 bound_to 7997
  156.2760  140.2775  156.1525 H   0  0  0  0  0  0  0  0  0  0  0  0  # atno 8009 bound_to 7997
  155.0784  140.0372  157.2621 H   0  0  0  0  0  0  0  0  0  0  0  0  # atno 8010 bound_to 7997
  140.0158  144.5579  150.7621 H   0  0  0  0  0  0  0  0  0  0  0  0  # atno 10167 bound_to 10162
  156.7676  130.5289  149.5773 H   0  0  0  0  0  0  0  0  0  0  0  0  # atno 10718 bound_to 10713
  154.2268  135.6368  153.5162 H   0  0  0  0  0  0  0  0  0  0  0  0  # atno 10763 bound_to 10752
  152.9957  135.5510  154.6055 H   0  0  0  0  0  0  0  0  0  0  0  0  # atno 10764 bound_to 10752
  154.5529  135.2903  155.0966 H   0  0  0  0  0  0  0  0  0  0  0  0  # atno 10765 bound_to 10752
  140.7027  133.8976  155.8694 H   0  0  0  0  0  0  0  0  0  0  0  0  # atno 11005 bound_to 11000
  146.2747  139.6722  142.9271 LP  0  0  0  0  0  0  0  0  0  0  0  0  # atno 17320 bound_to 7965
  145.4590  141.0432  143.2762 LP  0  0  0  0  0  0  0  0  0  0  0  0  # atno 17321 bound_to 7965
  140.7363  143.2751  151.3767 LP  0  0  0  0  0  0  0  0  0  0  0  0  # atno 17342 bound_to 10162
  139.6173  144.0977  152.2358 LP  0  0  0  0  0  0  0  0  0  0  0  0  # atno 17343 bound_to 10162
  156.1299  130.6170  151.0317 LP  0  0  0  0  0  0  0  0  0  0  0  0  # atno 17370 bound_to 10713
  157.6706  131.0862  150.7622 LP  0  0  0  0  0  0  0  0  0  0  0  0  # atno 17371 bound_to 10713
  141.0150  134.0968  157.4181 LP  0  0  0  0  0  0  0  0  0  0  0  0  # atno 17394 bound_to 11000
  139.8892  135.0103  156.6667 LP  0  0  0  0  0  0  0  0  0  0  0  0  # atno 17395 bound_to 11000

$$$$
