AV-unprocessed.smi:2253|AV-procd|sdf|9120|dock2
  -GOLD-   2272012323D 1   1.00000     0.00000
 Structure written by MMmdl.
 51 53  0  0  0  0  0  0  0  0  2 V2000
  148.9479  127.0527  150.4708 C   0  0  0  0  0  0  0  0  0  0  0  0
  147.9911  127.4316  151.5326 N   0  3  2  0  0  0  0  0  0  0  0  0
  147.0635  128.5052  151.0983 C   0  0  0  0  0  0  0  0  0  0  0  0
  146.0334  128.8281  152.1958 C   0  0  0  0  0  0  0  0  0  0  0  0
  146.7157  129.2467  153.5237 C   0  0  2  0  0  0  0  0  0  0  0  0
  147.4138  130.5515  153.4533 N   0  0  0  0  0  0  0  0  0  0  0  0
  148.1092  130.8582  154.7149 C   0  0  0  0  0  0  0  0  0  0  0  0
  148.9129  132.1663  154.6210 C   0  0  0  0  0  0  0  0  0  0  0  0
  147.9999  133.3498  154.2810 C   0  0  0  0  0  0  0  0  0  0  0  0
  148.7749  134.5699  154.0749 N   0  0  0  0  0  0  0  0  0  0  0  0
  149.5717  135.1412  154.9897 C   0  0  0  0  0  0  0  0  0  0  0  0
  149.7398  134.6813  156.1185 O   0  0  0  0  0  0  0  0  0  0  0  0
  150.1387  136.2595  154.5041 N   0  0  0  0  0  0  0  0  0  0  0  0
  151.0215  137.1813  155.1345 C   0  0  0  0  0  0  0  0  0  0  0  0
  152.0278  136.8305  156.0684 C   0  0  0  0  0  0  0  0  0  0  0  0
  152.8321  137.8530  156.6114 C   0  0  0  0  0  0  0  0  0  0  0  0
  152.6998  139.1564  156.2874 N   0  0  0  0  0  0  0  0  0  0  0  0
  151.7446  139.4872  155.3935 C   0  0  0  0  0  0  0  0  0  0  0  0
  150.8874  138.5441  154.7922 C   0  0  0  0  0  0  0  0  0  0  0  0
  149.9490  138.9462  153.9009 F   0  0  0  0  0  0  0  0  0  0  0  0
  147.2191  132.9993  153.0120 C   0  0  0  0  0  0  0  0  0  0  0  0
  146.4835  131.6564  153.1655 C   0  0  0  0  0  0  0  0  0  0  0  0
  147.6457  128.0707  153.9190 C   0  0  0  0  0  0  0  0  0  0  0  0
  148.6683  127.7532  152.8130 C   0  0  0  0  0  0  0  0  0  0  0  0
  149.6033  127.8875  150.2189 H   0  0  0  0  0  0  0  0  0  0  0  0
  148.4196  126.7480  149.5668 H   0  0  0  0  0  0  0  0  0  0  0  0
  149.5681  126.2153  150.7918 H   0  0  0  0  0  0  0  0  0  0  0  0
  147.6309  129.4003  150.8387 H   0  0  0  0  0  0  0  0  0  0  0  0
  146.5429  128.1874  150.1941 H   0  0  0  0  0  0  0  0  0  0  0  0
  145.3018  129.5514  151.8422 H   0  0  0  0  0  0  0  0  0  0  0  0
  145.4428  127.9297  152.3819 H   0  0  0  0  0  0  0  0  0  0  0  0
  145.9401  129.3382  154.2859 H   0  0  0  0  0  0  0  0  0  0  0  0
  147.3907  130.9129  155.5344 H   0  0  0  0  0  0  0  0  0  0  0  0
  148.8258  130.0822  154.9699 H   0  0  0  0  0  0  0  0  0  0  0  0
  149.4258  132.3474  155.5662 H   0  0  0  0  0  0  0  0  0  0  0  0
  149.6907  132.0614  153.8629 H   0  0  0  0  0  0  0  0  0  0  0  0
  147.2885  133.5039  155.0948 H   0  0  0  0  0  0  0  0  0  0  0  0
  148.6922  135.0136  153.1721 H   0  0  0  0  0  0  0  0  0  0  0  0
  149.8794  136.5047  153.5598 H   0  0  0  0  0  0  0  0  0  0  0  0
  152.2085  135.8141  156.3789 H   0  0  0  0  0  0  0  0  0  0  0  0
  153.6061  137.6148  157.3256 H   0  0  0  0  0  0  0  0  0  0  0  0
  151.6602  140.5358  155.1494 H   0  0  0  0  0  0  0  0  0  0  0  0
  146.4994  133.7878  152.7883 H   0  0  0  0  0  0  0  0  0  0  0  0
  147.8950  132.9459  152.1569 H   0  0  0  0  0  0  0  0  0  0  0  0
  145.9600  131.4932  152.2270 H   0  0  0  0  0  0  0  0  0  0  0  0
  145.7275  131.7239  153.9495 H   0  0  0  0  0  0  0  0  0  0  0  0
  148.1438  128.2172  154.8747 H   0  0  0  0  0  0  0  0  0  0  0  0
  147.0301  127.1841  154.0780 H   0  0  0  0  0  0  0  0  0  0  0  0
  149.2816  126.9049  153.1191 H   0  0  0  0  0  0  0  0  0  0  0  0
  149.3453  128.5972  152.6712 H   0  0  0  0  0  0  0  0  0  0  0  0
  147.4208  126.6167  151.7089 H   0  0  0  0  0  0  0  0  0  0  0  0
  1  2  1  0  0  0  0
  1 25  1  0  0  0  0
  1 26  1  0  0  0  0
  1 27  1  0  0  0  0
  2 24  1  0  0  0  0
  2  3  1  0  0  0  0
  2 51  1  0  0  0  0
  3  4  1  0  0  0  0
  3 28  1  0  0  0  0
  3 29  1  0  0  0  0
  4  5  1  0  0  0  0
  4 30  1  0  0  0  0
  4 31  1  0  0  0  0
  5  6  1  0  0  0  0
  5 23  1  0  0  0  0
  5 32  1  0  0  0  0
  6 22  1  0  0  0  0
  6  7  1  0  0  0  0
  7  8  1  0  0  0  0
  7 33  1  0  0  0  0
  7 34  1  0  0  0  0
  8  9  1  0  0  0  0
  8 35  1  0  0  0  0
  8 36  1  0  0  0  0
  9 10  1  0  0  0  0
  9 21  1  0  0  0  0
  9 37  1  0  0  0  0
 10 11  1  0  0  0  0
 10 38  1  0  0  0  0
 11 12  2  0  0  0  0
 11 13  1  0  0  0  0
 13 14  1  0  0  0  0
 13 39  1  0  0  0  0
 14 19  1  0  0  0  0
 14 15  2  0  0  0  0
 15 16  1  0  0  0  0
 15 40  1  0  0  0  0
 16 17  2  0  0  0  0
 16 41  1  0  0  0  0
 17 18  1  0  0  0  0
 18 19  2  0  0  0  0
 18 42  1  0  0  0  0
 19 20  1  0  0  0  0
 21 22  1  0  0  0  0
 21 43  1  0  0  0  0
 21 44  1  0  0  0  0
 22 45  1  0  0  0  0
 22 46  1  0  0  0  0
 23 24  1  0  0  0  0
 23 47  1  0  0  0  0
 23 48  1  0  0  0  0
 24 49  1  0  0  0  0
 24 50  1  0  0  0  0
M  CHG  1   2   1
M  END
> <s_m_source_file>
AV-unprocessed.smi

> <i_m_source_file_index>
2253

> <i_lp_mmshare_version>
43012

> <i_f3d_flags>
0

> <s_epik_input>
W0NIM11OMVtDSDJdW0NIMl1bQ0hdKFtDSDJdW0NIMl0xKU4yW0NIMl1bQ0gyXVtDSF0oW0NIMl1bQ0gyXTIpW05IXUMoPU8pW05IXWMzW2NIXVtjSF1uW2NIXWMzRg==

> <s_epik_cmdline>
J2VwaWtfcHl0aG9uJywgJy1waCcsICc3LjAnLCAnLXRuJywgJzgnLCAnLW1hJywgJzIwMCcsICctbWV0YWxfYmluZGluZycsICctaW1hZScsICc8aW5maWxlLm1hZT4nLCAnLW9tYWUnLCAnPG91dGZpbGUubWFlPic=

> <r_epik_Ionization_Penalty>
1.01315

> <r_epik_Ionization_Penalty_Charging>
0.000974969

> <r_epik_Ionization_Penalty_Neutral>
1.01217

> <r_epik_State_Penalty>
1.10286

> <r_epik_Charging_Adjusted_Penalty>
1.10383

> <i_epik_Tot_Q>
1

> <i_epik_Tot_abs_Q>
1

> <r_epik_Metal_State_Penalty>
1.10232

> <b_epik_Metal_Only>
0

> <s_lp_Force_Field>
OPLS_2005

> <r_lp_Energy>
40.3277

> <b_lp_Chiralities_Consistent>
1

> <s_lp_Variant>
AV-unprocessed.smi:2253-6

> <Gold.Version>
5.8.1

> <Gold.Id.Protein>
6NUR|6NUR_protein|mol2

> <Gold.PLP.Fitness>
46.4105

> <Gold.PLP.PLP>
-37.9414

> <Gold.PLP.part.hbond>
-3.4640

> <Gold.PLP.part.metal>
0.0000

> <Gold.PLP.part.buried>
-2.3451

> <Gold.PLP.part.nonpolar>
-33.0400

> <Gold.PLP.part.repulsive>
0.2929

> <Gold.PLP.ligand.clash>
0.0000

> <Gold.PLP.ligand.torsion>
0.2684

> <Gold.PLP.Chemscore.Hbond>
3.0000

> <Gold.PLP.Chemscore.CHOScore>
0.0000

> <Gold.PLP.Chemscore.Metal>
0.0000

> <Gold.Chemscore.Hbonds>
donor molecule, donor type, donor heavy atom, donor atom, acceptor molecule, acceptor atom, score
      L1  H    10    38       P1  7948  1.00
      L1  H    13    39       P1  7948  1.00
      P1  H  7997  8009       L1    17  1.00

> <Gold.PLP.Chemscore.Internal.Correction>
0.0059

> <Gold.Rescore>
     Score         DG    S(hbond)    S(metal)    S(lipo)     H(rot)  DE(clash)    DE(int)     intcor
     18.93     -21.37       2.32        0.00      96.78       1.24       1.05       1.39       ----

> <Gold.Chemscore.Fitness>
18.9261

> <Gold.Chemscore.DG>
-21.3692

> <Gold.Chemscore.ZeroCoef>
-5.4800

> <Gold.Chemscore.Hbond>
2.3206

> <Gold.Chemscore.Metal>
0.0000

> <Gold.Chemscore.Lipo>
96.7776

> <Gold.Chemscore.Internal_Hbond>
0.0000

> <Gold.Chemscore.DEClash>
1.0511

> <Gold.Chemscore.DEInternal>
1.3920

> <Gold.Chemscore.Rot>
1.2440

> <Gold.Chemscore.Internal.Correction>
   9.000000E+99

> <Gold.Chemscore.Hbonds>
donor molecule, donor type, donor heavy atom, donor atom, acceptor molecule, acceptor atom, score
      L1  H    10    38       P1  7948  0.55
      L1  H    13    39       P1  7948  0.25
      P1  H  7997  8009       L1    17  0.81

> <Gold.Chemscore.Hbond.Weighted>
-7.7509

> <Gold.Chemscore.Metal.Weighted>
-0.0000

> <Gold.Chemscore.Lipo.Weighted>
-11.3230

> <Gold.Chemscore.Internal_Hbond.Weighted>
0.0000

> <Gold.Chemscore.DEClash.Weighted>
1.0511

> <Gold.Chemscore.DEInternal.Weighted>
1.3920

> <Gold.Chemscore.Rot.Weighted>
3.1847

> <Gold.Chemscore.Internal.Correction.Weighted>
   9.000000E+99

> <Gold.Protein.RotatedTorsions>
[ 6907 6896 6895 6894 ] final  162.73 input  -60.11 | X-H torsion
[ 7974 7965 7964 7962 ] final   46.42 input  175.53 | X-H torsion
[ 8008 7997 7996 7995 ] final -168.69 input   59.86 | X-H torsion
[ 10167 10162 10161 10158 ] final   36.34 input  -65.29 | X-H torsion
[ 10718 10713 10712 10709 ] final -132.29 input   66.30 | X-H torsion
[ 10763 10752 10751 10750 ] final  111.53 input  -60.55 | X-H torsion
[ 11005 11000 10999 10996 ] final   30.36 input  -57.11 | X-H torsion

> <Gold.Protein.ActiveResidues>
 VAL166  LYS551  ARG553  GLY616  TRP617  ASP618  TYR619  PRO620  LYS621  CYS622 
 ASP623  PHE694  ASN695  SER759  ASP760  ASP761  ALA762  ILE779  LEU786  VAL792 
 PHE793  MET794  SER795  GLU796  ALA797  LYS798  CYS799  TRP800  GLU811  SER814 

> <Gold.Protein.RotatedAtoms>
  151.9360  133.3624  159.3947 H   0  0  0  0  0  0  0  0  0  0  0  0  # atno 6907 bound_to 6896
  150.7007  134.4488  159.5336 H   0  0  0  0  0  0  0  0  0  0  0  0  # atno 6908 bound_to 6896
  152.2137  134.8478  160.0545 H   0  0  0  0  0  0  0  0  0  0  0  0  # atno 6909 bound_to 6896
  146.0391  139.4857  142.9789 H   0  0  0  0  0  0  0  0  0  0  0  0  # atno 7974 bound_to 7965
  155.8949  140.1031  157.1392 H   0  0  0  0  0  0  0  0  0  0  0  0  # atno 8008 bound_to 7997
  154.4019  140.1304  156.4426 H   0  0  0  0  0  0  0  0  0  0  0  0  # atno 8009 bound_to 7997
  155.7491  140.3465  155.5144 H   0  0  0  0  0  0  0  0  0  0  0  0  # atno 8010 bound_to 7997
  140.4137  144.1556  150.6141 H   0  0  0  0  0  0  0  0  0  0  0  0  # atno 10167 bound_to 10162
  156.2331  130.7050  151.0879 H   0  0  0  0  0  0  0  0  0  0  0  0  # atno 10718 bound_to 10713
  153.4646  135.3714  155.2357 H   0  0  0  0  0  0  0  0  0  0  0  0  # atno 10763 bound_to 10752
  154.8757  135.3917  154.3884 H   0  0  0  0  0  0  0  0  0  0  0  0  # atno 10764 bound_to 10752
  153.4463  135.7085  153.6201 H   0  0  0  0  0  0  0  0  0  0  0  0  # atno 10765 bound_to 10752
  140.2952  134.2819  155.7766 H   0  0  0  0  0  0  0  0  0  0  0  0  # atno 11005 bound_to 11000
  145.6914  141.0163  143.1553 LP  0  0  0  0  0  0  0  0  0  0  0  0  # atno 17320 bound_to 7965
  144.7066  139.8537  143.7428 LP  0  0  0  0  0  0  0  0  0  0  0  0  # atno 17321 bound_to 7965
  140.4610  143.2449  151.9220 LP  0  0  0  0  0  0  0  0  0  0  0  0  # atno 17342 bound_to 10162
  139.4782  144.5468  151.8446 LP  0  0  0  0  0  0  0  0  0  0  0  0  # atno 17343 bound_to 10162
  157.7142  131.0718  150.6389 LP  0  0  0  0  0  0  0  0  0  0  0  0  # atno 17370 bound_to 10713
  156.6458  130.4471  149.5736 LP  0  0  0  0  0  0  0  0  0  0  0  0  # atno 17371 bound_to 10713
  141.2139  133.7611  156.9685 LP  0  0  0  0  0  0  0  0  0  0  0  0  # atno 17394 bound_to 11000
  140.1159  134.9448  157.2133 LP  0  0  0  0  0  0  0  0  0  0  0  0  # atno 17395 bound_to 11000

$$$$
