AV-unprocessed.smi:1074|AV-procd|sdf|4691|dock3
  -GOLD-   22720 3213D 1   1.00000     0.00000
 Structure written by MMmdl.
 44 45  0  0  0  0  0  0  0  0  1 V2000
  151.5615  144.1126  157.7637 C   0  0  0  0  0  0  0  0  0  0  0  0
  150.6152  143.2300  157.0990 N   0  0  0  0  0  0  0  0  0  0  0  0
  150.6860  141.8912  157.1222 C   0  0  0  0  0  0  0  0  0  0  0  0
  151.5706  141.2748  157.7169 O   0  0  0  0  0  0  0  0  0  0  0  0
  149.5914  141.1336  156.3584 C   0  0  2  0  0  0  0  0  0  0  0  0
  149.6150  141.4879  154.8571 C   0  0  0  0  0  0  0  0  0  0  0  0
  148.5202  140.7312  154.0881 C   0  0  0  0  0  0  0  0  0  0  0  0
  147.1242  141.0016  154.6794 C   0  0  1  0  0  0  0  0  0  0  0  0
  146.1305  140.2089  153.9614 N   0  0  0  0  0  0  0  0  0  0  0  0
  146.2280  138.8989  153.6938 C   0  0  0  0  0  0  0  0  0  0  0  0
  147.1834  138.2044  154.0396 O   0  0  0  0  0  0  0  0  0  0  0  0
  145.1483  138.4619  153.0228 N   0  0  0  0  0  0  0  0  0  0  0  0
  144.8753  137.1600  152.5216 C   0  0  0  0  0  0  0  0  0  0  0  0
  143.6050  136.5365  152.5573 C   0  0  0  0  0  0  0  0  0  0  0  0
  143.4727  135.2320  152.0439 C   0  0  0  0  0  0  0  0  0  0  0  0
  144.6094  134.5872  151.5173 C   0  0  0  0  0  0  0  0  0  0  0  0
  144.4710  133.3093  151.0156 O   0  0  0  0  0  0  0  0  0  0  0  0
  145.6278  132.6542  150.5069 C   0  0  0  0  0  0  0  0  0  0  0  0
  145.8312  135.1739  151.4897 N   0  0  0  0  0  0  0  0  0  0  0  0
  145.9514  136.4238  151.9840 C   0  0  0  0  0  0  0  0  0  0  0  0
  147.0958  140.6742  156.1868 C   0  0  0  0  0  0  0  0  0  0  0  0
  148.1972  141.4289  156.9488 C   0  0  0  0  0  0  0  0  0  0  0  0
  151.2968  145.1527  157.5735 H   0  0  0  0  0  0  0  0  0  0  0  0
  152.5743  143.9456  157.3951 H   0  0  0  0  0  0  0  0  0  0  0  0
  151.5520  143.9501  158.8422 H   0  0  0  0  0  0  0  0  0  0  0  0
  149.8593  143.6623  156.5878 H   0  0  0  0  0  0  0  0  0  0  0  0
  149.7827  140.0634  156.4572 H   0  0  0  0  0  0  0  0  0  0  0  0
  149.4720  142.5612  154.7201 H   0  0  0  0  0  0  0  0  0  0  0  0
  150.5900  141.2500  154.4297 H   0  0  0  0  0  0  0  0  0  0  0  0
  148.5437  141.0219  153.0373 H   0  0  0  0  0  0  0  0  0  0  0  0
  148.7343  139.6618  154.1174 H   0  0  0  0  0  0  0  0  0  0  0  0
  146.8989  142.0613  154.5446 H   0  0  0  0  0  0  0  0  0  0  0  0
  145.3065  140.6974  153.6433 H   0  0  0  0  0  0  0  0  0  0  0  0
  144.4127  139.1390  152.8829 H   0  0  0  0  0  0  0  0  0  0  0  0
  142.7364  137.0192  152.9766 H   0  0  0  0  0  0  0  0  0  0  0  0
  142.5151  134.7329  152.0582 H   0  0  0  0  0  0  0  0  0  0  0  0
  145.3525  131.6628  150.1477 H   0  0  0  0  0  0  0  0  0  0  0  0
  146.3868  132.5268  151.2799 H   0  0  0  0  0  0  0  0  0  0  0  0
  146.0590  133.2014  149.6676 H   0  0  0  0  0  0  0  0  0  0  0  0
  146.9426  136.8515  151.9451 H   0  0  0  0  0  0  0  0  0  0  0  0
  146.1234  140.9283  156.6097 H   0  0  0  0  0  0  0  0  0  0  0  0
  147.2246  139.6010  156.3349 H   0  0  0  0  0  0  0  0  0  0  0  0
  148.1677  141.1481  158.0024 H   0  0  0  0  0  0  0  0  0  0  0  0
  147.9900  142.4996  156.9098 H   0  0  0  0  0  0  0  0  0  0  0  0
  1  2  1  0  0  0  0
  1 23  1  0  0  0  0
  1 24  1  0  0  0  0
  1 25  1  0  0  0  0
  2  3  1  0  0  0  0
  2 26  1  0  0  0  0
  3  4  2  0  0  0  0
  3  5  1  0  0  0  0
  5 22  1  0  0  0  0
  5  6  1  0  0  0  0
  5 27  1  0  0  0  0
  6  7  1  0  0  0  0
  6 28  1  0  0  0  0
  6 29  1  0  0  0  0
  7  8  1  0  0  0  0
  7 30  1  0  0  0  0
  7 31  1  0  0  0  0
  8  9  1  0  0  0  0
  8 21  1  0  0  0  0
  8 32  1  0  0  0  0
  9 10  1  0  0  0  0
  9 33  1  0  0  0  0
 10 11  2  0  0  0  0
 10 12  1  0  0  0  0
 12 13  1  0  0  0  0
 12 34  1  0  0  0  0
 13 20  1  0  0  0  0
 13 14  2  0  0  0  0
 14 15  1  0  0  0  0
 14 35  1  0  0  0  0
 15 16  2  0  0  0  0
 15 36  1  0  0  0  0
 16 17  1  0  0  0  0
 16 19  1  0  0  0  0
 17 18  1  0  0  0  0
 18 37  1  0  0  0  0
 18 38  1  0  0  0  0
 18 39  1  0  0  0  0
 19 20  2  0  0  0  0
 20 40  1  0  0  0  0
 21 22  1  0  0  0  0
 21 41  1  0  0  0  0
 21 42  1  0  0  0  0
 22 43  1  0  0  0  0
 22 44  1  0  0  0  0
M  END
> <s_m_source_file>
AV-unprocessed.smi

> <i_m_source_file_index>
1074

> <i_lp_mmshare_version>
43012

> <i_f3d_flags>
0

> <s_epik_input>
W0NIM11bTkhdQyg9TylbQ0BASF0xW0NIMl1bQ0gyXVtDQEhdKFtDSDJdW0NIMl0xKVtOSF1DKD1PKVtOSF1jMltjSF1bY0hdYyhPW0NIM10pbltjSF0y

> <s_epik_cmdline>
J2VwaWtfcHl0aG9uJywgJy1waCcsICc3LjAnLCAnLXRuJywgJzgnLCAnLW1hJywgJzIwMCcsICctbWV0YWxfYmluZGluZycsICctaW1hZScsICc8aW5maWxlLm1hZT4nLCAnLW9tYWUnLCAnPG91dGZpbGUubWFlPic=

> <r_lp_tautomer_probability>
1

> <r_epik_Ionization_Penalty>
9.85099e-05

> <r_epik_Ionization_Penalty_Charging>
0

> <r_epik_Ionization_Penalty_Neutral>
9.85099e-05

> <r_epik_State_Penalty>
-0

> <r_epik_Charging_Adjusted_Penalty>
0

> <i_epik_Tot_Q>
0

> <i_epik_Tot_abs_Q>
0

> <r_epik_Metal_State_Penalty>
-0

> <b_epik_Metal_Only>
0

> <s_lp_Force_Field>
OPLS_2005

> <r_lp_Energy>
13.3284

> <b_lp_Chiralities_Consistent>
1

> <s_lp_Variant>
AV-unprocessed.smi:1074-1

> <Gold.Version>
5.8.1

> <Gold.Id.Protein>
6NUR|6NUR_protein|mol2

> <Gold.PLP.Fitness>
43.3164

> <Gold.PLP.PLP>
-32.5760

> <Gold.PLP.part.hbond>
-3.0000

> <Gold.PLP.part.metal>
0.0000

> <Gold.PLP.part.buried>
-4.1147

> <Gold.PLP.part.nonpolar>
-25.9761

> <Gold.PLP.part.repulsive>
0.4673

> <Gold.PLP.ligand.clash>
0.0000

> <Gold.PLP.ligand.torsion>
0.4362

> <Gold.PLP.Chemscore.Hbond>
2.8640

> <Gold.PLP.Chemscore.CHOScore>
1.0000

> <Gold.PLP.Chemscore.Metal>
0.0000

> <Gold.Chemscore.Hbonds>
donor molecule, donor type, donor heavy atom, donor atom, acceptor molecule, acceptor atom, score
      L1  H     2    26       P1  8028  1.00
      L1  H     9    33       P1 10175  0.86
      L1  H    12    34       P1 10175  1.00
      L1  C    20    40       P1  7948  1.00

> <Gold.PLP.Chemscore.Internal.Correction>
0.0208

> <Gold.Rescore>
     Score         DG    S(hbond)    S(metal)    S(lipo)     H(rot)  DE(clash)    DE(int)     intcor
     16.17     -19.09       2.92        0.00      68.58       1.62       0.18       2.74       ----

> <Gold.Chemscore.Fitness>
16.1673

> <Gold.Chemscore.DG>
-19.0880

> <Gold.Chemscore.ZeroCoef>
-5.4800

> <Gold.Chemscore.Hbond>
2.9172

> <Gold.Chemscore.Metal>
0.0000

> <Gold.Chemscore.Lipo>
68.5805

> <Gold.Chemscore.Internal_Hbond>
0.0000

> <Gold.Chemscore.DEClash>
0.1780

> <Gold.Chemscore.DEInternal>
2.7427

> <Gold.Chemscore.Rot>
1.6248

> <Gold.Chemscore.Internal.Correction>
   9.000000E+99

> <Gold.Chemscore.Hbonds>
donor molecule, donor type, donor heavy atom, donor atom, acceptor molecule, acceptor atom, score
      L1  H     2    26       P1  8028  1.00
      L1  H     9    33       P1 10175  0.76
      L1  H    12    34       P1 10175  0.96

> <Gold.Chemscore.Hbond.Weighted>
-9.7436

> <Gold.Chemscore.Metal.Weighted>
-0.0000

> <Gold.Chemscore.Lipo.Weighted>
-8.0239

> <Gold.Chemscore.Internal_Hbond.Weighted>
0.0000

> <Gold.Chemscore.DEClash.Weighted>
0.1780

> <Gold.Chemscore.DEInternal.Weighted>
2.7427

> <Gold.Chemscore.Rot.Weighted>
4.1595

> <Gold.Chemscore.Internal.Correction.Weighted>
   9.000000E+99

> <Gold.Protein.RotatedTorsions>
[ 6907 6896 6895 6894 ] final -125.41 input  -60.11 | X-H torsion
[ 7974 7965 7964 7962 ] final  157.40 input  175.53 | X-H torsion
[ 8008 7997 7996 7995 ] final  -38.67 input   59.86 | X-H torsion
[ 10167 10162 10161 10158 ] final   12.23 input  -65.29 | X-H torsion
[ 10718 10713 10712 10709 ] final   44.42 input   66.30 | X-H torsion
[ 10763 10752 10751 10750 ] final -173.94 input  -60.55 | X-H torsion
[ 11005 11000 10999 10996 ] final   34.49 input  -57.11 | X-H torsion

> <Gold.Protein.ActiveResidues>
 VAL166  LYS551  ARG553  GLY616  TRP617  ASP618  TYR619  PRO620  LYS621  CYS622 
 ASP623  PHE694  ASN695  SER759  ASP760  ASP761  ALA762  ILE779  LEU786  VAL792 
 PHE793  MET794  SER795  GLU796  ALA797  LYS798  CYS799  TRP800  GLU811  SER814 

> <Gold.Protein.RotatedAtoms>
  150.8865  133.7301  159.2916 H   0  0  0  0  0  0  0  0  0  0  0  0  # atno 6907 bound_to 6896
  151.4865  135.1054  159.9801 H   0  0  0  0  0  0  0  0  0  0  0  0  # atno 6908 bound_to 6896
  152.4793  133.8169  159.7088 H   0  0  0  0  0  0  0  0  0  0  0  0  # atno 6909 bound_to 6896
  144.7905  139.7336  143.6223 H   0  0  0  0  0  0  0  0  0  0  0  0  # atno 7974 bound_to 7965
  154.4033  140.1571  156.2738 H   0  0  0  0  0  0  0  0  0  0  0  0  # atno 8008 bound_to 7997
  155.8930  140.3437  155.5948 H   0  0  0  0  0  0  0  0  0  0  0  0  # atno 8009 bound_to 7997
  155.7537  140.0808  157.2179 H   0  0  0  0  0  0  0  0  0  0  0  0  # atno 8010 bound_to 7997
  140.6081  143.8465  150.7036 H   0  0  0  0  0  0  0  0  0  0  0  0  # atno 10167 bound_to 10162
  157.4266  130.8000  149.7564 H   0  0  0  0  0  0  0  0  0  0  0  0  # atno 10718 bound_to 10713
  154.6021  135.2855  155.0524 H   0  0  0  0  0  0  0  0  0  0  0  0  # atno 10763 bound_to 10752
  154.1786  135.6460  153.5032 H   0  0  0  0  0  0  0  0  0  0  0  0  # atno 10764 bound_to 10752
  153.0161  135.5418  154.6743 H   0  0  0  0  0  0  0  0  0  0  0  0  # atno 10765 bound_to 10752
  140.2523  134.3288  155.7886 H   0  0  0  0  0  0  0  0  0  0  0  0  # atno 11005 bound_to 11000
  146.2155  139.5542  142.9653 LP  0  0  0  0  0  0  0  0  0  0  0  0  # atno 17320 bound_to 7965
  145.5806  141.0383  143.2124 LP  0  0  0  0  0  0  0  0  0  0  0  0  # atno 17321 bound_to 7965
  140.2027  143.3946  152.1779 LP  0  0  0  0  0  0  0  0  0  0  0  0  # atno 17342 bound_to 10162
  139.5340  144.7190  151.4956 LP  0  0  0  0  0  0  0  0  0  0  0  0  # atno 17343 bound_to 10162
  155.9898  130.3949  150.3054 LP  0  0  0  0  0  0  0  0  0  0  0  0  # atno 17370 bound_to 10713
  157.1207  131.0246  151.3010 LP  0  0  0  0  0  0  0  0  0  0  0  0  # atno 17371 bound_to 10713
  141.2200  133.7361  156.9057 LP  0  0  0  0  0  0  0  0  0  0  0  0  # atno 17394 bound_to 11000
  140.1546  134.9207  157.2636 LP  0  0  0  0  0  0  0  0  0  0  0  0  # atno 17395 bound_to 11000

$$$$
