AV-unprocessed.smi:3308|AV-procd|sdf|12710|dock10
  -GOLD-   2272019 43D 1   1.00000     0.00000
 Structure written by MMmdl.
 41 42  0  0  0  0  0  0  0  0  2 V2000
  149.3502  140.2049  157.6685 C   0  0  0  0  0  0  0  0  0  0  0  0
  150.1044  141.1044  156.6771 C   0  0  2  0  0  0  0  0  0  0  0  0
  150.0314  142.5160  157.1192 N   0  3  0  0  0  0  0  0  0  0  0  0
  151.3363  143.1476  157.4115 C   0  0  0  0  0  0  0  0  0  0  0  0
  151.3364  143.8915  158.7541 C   0  0  0  0  0  0  0  0  0  0  0  0
  150.6954  144.9372  158.8721 O   0  0  0  0  0  0  0  0  0  0  0  0
  152.0527  143.3690  159.7704 N   0  0  0  0  0  0  0  0  0  0  0  0
  152.8390  142.1419  159.6592 C   0  0  0  0  0  0  0  0  0  0  0  0
  153.6912  142.0809  160.9270 C   0  0  0  0  0  0  0  0  0  0  0  0
  152.8995  142.8859  161.9482 C   0  0  0  0  0  0  0  0  0  0  0  0
  152.1653  143.9364  161.1139 C   0  0  0  0  0  0  0  0  0  0  0  0
  149.6126  140.9371  155.2153 C   0  0  1  0  0  0  0  0  0  0  0  0
  149.7805  139.5095  154.6519 C   0  0  0  0  0  0  0  0  0  0  0  0
  148.2469  141.4270  155.0567 N   0  0  0  0  0  0  0  0  0  0  0  0
  147.5098  141.5181  153.8937 C   0  0  0  0  0  0  0  0  0  0  0  0
  146.3062  142.0783  154.2127 C   0  0  0  0  0  0  0  0  0  0  0  0
  146.4023  142.3125  155.6122 C   0  0  0  0  0  0  0  0  0  0  0  0
  147.5665  141.9323  156.1122 N   0  0  0  0  0  0  0  0  0  0  0  0
  149.3826  139.1608  157.3556 H   0  0  0  0  0  0  0  0  0  0  0  0
  148.3032  140.4929  157.7645 H   0  0  0  0  0  0  0  0  0  0  0  0
  149.7965  140.2616  158.6618 H   0  0  0  0  0  0  0  0  0  0  0  0
  151.1473  140.7834  156.7099 H   0  0  0  0  0  0  0  0  0  0  0  0
  149.5773  143.0504  156.3916 H   0  0  0  0  0  0  0  0  0  0  0  0
  152.1068  142.3758  157.4171 H   0  0  0  0  0  0  0  0  0  0  0  0
  151.5816  143.8557  156.6193 H   0  0  0  0  0  0  0  0  0  0  0  0
  152.1605  141.2888  159.6120 H   0  0  0  0  0  0  0  0  0  0  0  0
  153.4616  142.1303  158.7632 H   0  0  0  0  0  0  0  0  0  0  0  0
  153.8902  141.0602  161.2547 H   0  0  0  0  0  0  0  0  0  0  0  0
  154.6511  142.5664  160.7458 H   0  0  0  0  0  0  0  0  0  0  0  0
  152.1739  142.2365  162.4401 H   0  0  0  0  0  0  0  0  0  0  0  0
  153.5307  143.3258  162.7207 H   0  0  0  0  0  0  0  0  0  0  0  0
  152.7471  144.8578  161.0656 H   0  0  0  0  0  0  0  0  0  0  0  0
  151.1922  144.1685  161.5491 H   0  0  0  0  0  0  0  0  0  0  0  0
  150.2330  141.5852  154.5941 H   0  0  0  0  0  0  0  0  0  0  0  0
  150.8286  139.2132  154.6186 H   0  0  0  0  0  0  0  0  0  0  0  0
  149.4000  139.4489  153.6316 H   0  0  0  0  0  0  0  0  0  0  0  0
  149.2461  138.7678  155.2464 H   0  0  0  0  0  0  0  0  0  0  0  0
  147.8985  141.1801  152.9443 H   0  0  0  0  0  0  0  0  0  0  0  0
  145.4831  142.2914  153.5468 H   0  0  0  0  0  0  0  0  0  0  0  0
  145.6690  142.7495  156.2735 H   0  0  0  0  0  0  0  0  0  0  0  0
  149.4632  142.5680  157.9525 H   0  0  0  0  0  0  0  0  0  0  0  0
  1  2  1  0  0  0  0
  1 19  1  0  0  0  0
  1 20  1  0  0  0  0
  1 21  1  0  0  0  0
  2  3  1  0  0  0  0
  2 12  1  0  0  0  0
  2 22  1  0  0  0  0
  3  4  1  0  0  0  0
  3 23  1  0  0  0  0
  3 41  1  0  0  0  0
  4  5  1  0  0  0  0
  4 24  1  0  0  0  0
  4 25  1  0  0  0  0
  5  6  2  0  0  0  0
  5  7  1  0  0  0  0
  7 11  1  0  0  0  0
  7  8  1  0  0  0  0
  8  9  1  0  0  0  0
  8 26  1  0  0  0  0
  8 27  1  0  0  0  0
  9 10  1  0  0  0  0
  9 28  1  0  0  0  0
  9 29  1  0  0  0  0
 10 11  1  0  0  0  0
 10 30  1  0  0  0  0
 10 31  1  0  0  0  0
 11 32  1  0  0  0  0
 11 33  1  0  0  0  0
 12 13  1  0  0  0  0
 12 14  1  0  0  0  0
 12 34  1  0  0  0  0
 13 35  1  0  0  0  0
 13 36  1  0  0  0  0
 13 37  1  0  0  0  0
 14 18  1  0  0  0  0
 14 15  1  0  0  0  0
 15 16  2  0  0  0  0
 15 38  1  0  0  0  0
 16 17  1  0  0  0  0
 16 39  1  0  0  0  0
 17 18  2  0  0  0  0
 17 40  1  0  0  0  0
M  CHG  1   3   1
M  END
> <s_m_source_file>
AV-unprocessed.smi

> <i_m_source_file_index>
3308

> <i_lp_mmshare_version>
43012

> <i_f3d_flags>
0

> <s_epik_input>
bjFbY0hdW2NIXVtjSF1uMVtDQEBIXShbQ0gzXSlbQ0BIXShbQ0gzXSlbTkhdW0NIMl1DKD1PKU4yW0NIMl1bQ0gyXVtDSDJdW0NIMl0y

> <s_epik_cmdline>
J2VwaWtfcHl0aG9uJywgJy1waCcsICc3LjAnLCAnLXRuJywgJzgnLCAnLW1hJywgJzIwMCcsICctbWV0YWxfYmluZGluZycsICctaW1hZScsICc8aW5maWxlLm1hZT4nLCAnLW9tYWUnLCAnPG91dGZpbGUubWFlPic=

> <r_lp_tautomer_probability>
1

> <r_epik_Ionization_Penalty>
0.141739

> <r_epik_Ionization_Penalty_Charging>
0.141731

> <r_epik_Ionization_Penalty_Neutral>
8.82171e-06

> <r_epik_State_Penalty>
0.131043

> <r_epik_Charging_Adjusted_Penalty>
0.272773

> <i_epik_Tot_Q>
1

> <i_epik_Tot_abs_Q>
1

> <r_epik_Metal_State_Penalty>
0.131385

> <b_epik_Metal_Only>
0

> <s_lp_Force_Field>
OPLS_2005

> <r_lp_Energy>
34.1001

> <b_lp_Chiralities_Consistent>
1

> <s_lp_Variant>
AV-unprocessed.smi:3308-3

> <Gold.Version>
5.8.1

> <Gold.Id.Protein>
6NUR|6NUR_protein|mol2

> <Gold.PLP.Fitness>
52.5368

> <Gold.PLP.PLP>
-45.8855

> <Gold.PLP.part.hbond>
-1.0000

> <Gold.PLP.part.metal>
0.0000

> <Gold.PLP.part.buried>
-5.2453

> <Gold.PLP.part.nonpolar>
-39.8293

> <Gold.PLP.part.repulsive>
1.2269

> <Gold.PLP.ligand.clash>
0.0000

> <Gold.PLP.ligand.torsion>
1.2600

> <Gold.PLP.Chemscore.Hbond>
2.0000

> <Gold.PLP.Chemscore.CHOScore>
1.0000

> <Gold.PLP.Chemscore.Metal>
0.0000

> <Gold.Chemscore.Hbonds>
donor molecule, donor type, donor heavy atom, donor atom, acceptor molecule, acceptor atom, score
      L1  H     3    23       P1  8028  2.00
      L1  C    15    38       P1  7957  0.56

> <Gold.PLP.Chemscore.Internal.Correction>
0.1712

> <Gold.Rescore>
     Score         DG    S(hbond)    S(metal)    S(lipo)     H(rot)  DE(clash)    DE(int)     intcor
     11.69     -15.69       0.93        0.00      99.67       1.78       0.07       3.93       ----

> <Gold.Chemscore.Fitness>
11.6922

> <Gold.Chemscore.DG>
-15.6934

> <Gold.Chemscore.ZeroCoef>
-5.4800

> <Gold.Chemscore.Hbond>
0.9337

> <Gold.Chemscore.Metal>
0.0000

> <Gold.Chemscore.Lipo>
99.6654

> <Gold.Chemscore.Internal_Hbond>
0.0000

> <Gold.Chemscore.DEClash>
0.0709

> <Gold.Chemscore.DEInternal>
3.9303

> <Gold.Chemscore.Rot>
1.7836

> <Gold.Chemscore.Internal.Correction>
   9.000000E+99

> <Gold.Chemscore.Hbonds>
donor molecule, donor type, donor heavy atom, donor atom, acceptor molecule, acceptor atom, score
      L1  H     3    23       P1  8028  0.95

> <Gold.Chemscore.Hbond.Weighted>
-3.1186

> <Gold.Chemscore.Metal.Weighted>
-0.0000

> <Gold.Chemscore.Lipo.Weighted>
-11.6608

> <Gold.Chemscore.Internal_Hbond.Weighted>
0.0000

> <Gold.Chemscore.DEClash.Weighted>
0.0709

> <Gold.Chemscore.DEInternal.Weighted>
3.9303

> <Gold.Chemscore.Rot.Weighted>
4.5660

> <Gold.Chemscore.Internal.Correction.Weighted>
   9.000000E+99

> <Gold.Protein.RotatedTorsions>
[ 6907 6896 6895 6894 ] final   58.41 input  -60.11 | X-H torsion
[ 7974 7965 7964 7962 ] final    0.92 input  175.53 | X-H torsion
[ 8008 7997 7996 7995 ] final  127.03 input   59.86 | X-H torsion
[ 10167 10162 10161 10158 ] final  -82.03 input  -65.29 | X-H torsion
[ 10718 10713 10712 10709 ] final   60.47 input   66.30 | X-H torsion
[ 10763 10752 10751 10750 ] final  156.28 input  -60.55 | X-H torsion
[ 11005 11000 10999 10996 ] final -118.44 input  -57.11 | X-H torsion

> <Gold.Protein.ActiveResidues>
 VAL166  LYS551  ARG553  GLY616  TRP617  ASP618  TYR619  PRO620  LYS621  CYS622 
 ASP623  PHE694  ASN695  SER759  ASP760  ASP761  ALA762  ILE779  LEU786  VAL792 
 PHE793  MET794  SER795  GLU796  ALA797  LYS798  CYS799  TRP800  GLU811  SER814 

> <Gold.Protein.RotatedAtoms>
  152.3822  134.6573  160.0138 H   0  0  0  0  0  0  0  0  0  0  0  0  # atno 6907 bound_to 6896
  151.6833  133.3306  159.3233 H   0  0  0  0  0  0  0  0  0  0  0  0  # atno 6908 bound_to 6896
  150.7756  134.6698  159.6430 H   0  0  0  0  0  0  0  0  0  0  0  0  # atno 6909 bound_to 6896
  146.2437  140.1065  142.8345 H   0  0  0  0  0  0  0  0  0  0  0  0  # atno 7974 bound_to 7965
  156.2880  140.2678  156.2206 H   0  0  0  0  0  0  0  0  0  0  0  0  # atno 8008 bound_to 7997
  155.0172  140.0387  157.2441 H   0  0  0  0  0  0  0  0  0  0  0  0  # atno 8009 bound_to 7997
  154.7467  140.2735  155.6332 H   0  0  0  0  0  0  0  0  0  0  0  0  # atno 8010 bound_to 7997
  140.4358  143.2532  151.8696 H   0  0  0  0  0  0  0  0  0  0  0  0  # atno 10167 bound_to 10162
  157.5755  130.8941  149.9340 H   0  0  0  0  0  0  0  0  0  0  0  0  # atno 10718 bound_to 10713
  154.1818  135.2799  155.3049 H   0  0  0  0  0  0  0  0  0  0  0  0  # atno 10763 bound_to 10752
  154.5996  135.5534  153.7364 H   0  0  0  0  0  0  0  0  0  0  0  0  # atno 10764 bound_to 10752
  153.0136  135.6388  154.1957 H   0  0  0  0  0  0  0  0  0  0  0  0  # atno 10765 bound_to 10752
  141.0286  134.0016  157.3178 H   0  0  0  0  0  0  0  0  0  0  0  0  # atno 11005 bound_to 11000
  145.0524  140.9027  143.4988 LP  0  0  0  0  0  0  0  0  0  0  0  0  # atno 17320 bound_to 7965
  145.1165  139.2722  143.5610 LP  0  0  0  0  0  0  0  0  0  0  0  0  # atno 17321 bound_to 7965
  139.4787  144.5284  151.8701 LP  0  0  0  0  0  0  0  0  0  0  0  0  # atno 17342 bound_to 10162
  140.4375  144.2031  150.5890 LP  0  0  0  0  0  0  0  0  0  0  0  0  # atno 17343 bound_to 10162
  156.0800  130.3674  150.0600 LP  0  0  0  0  0  0  0  0  0  0  0  0  # atno 17370 bound_to 10713
  156.8746  130.9536  151.3606 LP  0  0  0  0  0  0  0  0  0  0  0  0  # atno 17371 bound_to 10713
  139.9192  135.0199  156.8000 LP  0  0  0  0  0  0  0  0  0  0  0  0  # atno 17394 bound_to 11000
  140.6448  133.9785  155.7725 LP  0  0  0  0  0  0  0  0  0  0  0  0  # atno 17395 bound_to 11000

$$$$
