AV-unprocessed.smi:2597|AV-procd|sdf|10170|dock10
  -GOLD-   2272014183D 1   1.00000     0.00000
 Structure written by MMmdl.
 31 32  0  0  0  0  0  0  0  0  2 V2000
  148.9315  138.7133  153.2141 N   0  3  0  0  0  0  0  0  0  0  0  0
  147.9263  139.7142  153.6193 C   0  0  1  0  0  0  0  0  0  0  0  0
  147.0308  139.1722  154.7521 C   0  0  0  0  0  0  0  0  0  0  0  0
  145.9769  140.2084  155.1738 C   0  0  0  0  0  0  0  0  0  0  0  0
  146.6227  141.5426  155.5786 C   0  0  0  0  0  0  0  0  0  0  0  0
  147.5239  142.0955  154.4584 C   0  0  0  0  0  0  0  0  0  0  0  0
  148.5791  141.0832  153.9542 C   0  0  1  0  0  0  0  0  0  0  0  0
  149.7419  140.9904  154.8388 N   0  0  0  0  0  0  0  0  0  0  0  0
  149.9985  141.7464  155.9655 C   0  0  0  0  0  0  0  0  0  0  0  0
  151.2058  141.2810  156.4028 C   0  0  0  0  0  0  0  0  0  0  0  0
  152.0202  141.7142  157.5832 C   0  0  0  0  0  0  0  0  0  0  0  0
  153.0347  140.7476  157.7516 O   0  0  0  0  0  0  0  0  0  0  0  0
  151.6292  140.2705  155.5430 N   0  0  0  0  0  0  0  0  0  0  0  0
  150.7431  140.1031  154.6140 N   0  0  0  0  0  0  0  0  0  0  0  0
  147.2857  139.8648  152.7492 H   0  0  0  0  0  0  0  0  0  0  0  0
  148.9628  141.4843  153.0146 H   0  0  0  0  0  0  0  0  0  0  0  0
  148.4666  137.8497  152.9719 H   0  0  0  0  0  0  0  0  0  0  0  0
  149.5700  138.5467  153.9787 H   0  0  0  0  0  0  0  0  0  0  0  0
  146.5268  138.2635  154.4208 H   0  0  0  0  0  0  0  0  0  0  0  0
  147.6282  138.8822  155.6159 H   0  0  0  0  0  0  0  0  0  0  0  0
  145.2829  140.3771  154.3495 H   0  0  0  0  0  0  0  0  0  0  0  0
  145.3827  139.8184  156.0008 H   0  0  0  0  0  0  0  0  0  0  0  0
  145.8438  142.2695  155.8110 H   0  0  0  0  0  0  0  0  0  0  0  0
  147.1914  141.4144  156.4987 H   0  0  0  0  0  0  0  0  0  0  0  0
  146.8887  142.3807  153.6187 H   0  0  0  0  0  0  0  0  0  0  0  0
  148.0097  143.0143  154.7892 H   0  0  0  0  0  0  0  0  0  0  0  0
  149.3387  142.5157  156.3392 H   0  0  0  0  0  0  0  0  0  0  0  0
  152.4698  142.6929  157.4153 H   0  0  0  0  0  0  0  0  0  0  0  0
  151.4180  141.7747  158.4903 H   0  0  0  0  0  0  0  0  0  0  0  0
  152.7586  140.1368  158.4177 H   0  0  0  0  0  0  0  0  0  0  0  0
  149.4454  139.0542  152.4142 H   0  0  0  0  0  0  0  0  0  0  0  0
  1  2  1  0  0  0  0
  1 17  1  0  0  0  0
  1 18  1  0  0  0  0
  1 31  1  0  0  0  0
  2 15  1  0  0  0  0
  2  7  1  0  0  0  0
  2  3  1  0  0  0  0
  3  4  1  0  0  0  0
  3 19  1  0  0  0  0
  3 20  1  0  0  0  0
  4  5  1  0  0  0  0
  4 21  1  0  0  0  0
  4 22  1  0  0  0  0
  5  6  1  0  0  0  0
  5 23  1  0  0  0  0
  5 24  1  0  0  0  0
  6  7  1  0  0  0  0
  6 25  1  0  0  0  0
  6 26  1  0  0  0  0
  7 16  1  0  0  0  0
  7  8  1  0  0  0  0
  8 14  1  0  0  0  0
  8  9  1  0  0  0  0
  9 10  2  0  0  0  0
  9 27  1  0  0  0  0
 10 11  1  0  0  0  0
 10 13  1  0  0  0  0
 11 12  1  0  0  0  0
 11 28  1  0  0  0  0
 11 29  1  0  0  0  0
 12 30  1  0  0  0  0
 13 14  2  0  0  0  0
M  CHG  1   1   1
M  END
> <s_m_source_file>
AV-unprocessed.smi

> <i_m_source_file_index>
2597

> <i_lp_mmshare_version>
43012

> <i_f3d_flags>
0

> <s_epik_input>
W05IMl1bQ0BIXTFbQ0gyXVtDSDJdW0NIMl1bQ0gyXVtDQEhdMW4yW2NIXWMobm4yKVtDSDJdW09IXQ==

> <s_epik_cmdline>
J2VwaWtfcHl0aG9uJywgJy1waCcsICc3LjAnLCAnLXRuJywgJzgnLCAnLW1hJywgJzIwMCcsICctbWV0YWxfYmluZGluZycsICctaW1hZScsICc8aW5maWxlLm1hZT4nLCAnLW9tYWUnLCAnPG91dGZpbGUubWFlPic=

> <r_lp_tautomer_probability>
1

> <r_epik_Ionization_Penalty>
0.014346

> <r_epik_Ionization_Penalty_Charging>
0.014316

> <r_epik_Ionization_Penalty_Neutral>
3.00097e-05

> <r_epik_State_Penalty>
0.0111909

> <r_epik_Charging_Adjusted_Penalty>
0.0255069

> <i_epik_Tot_Q>
1

> <i_epik_Tot_abs_Q>
1

> <r_epik_Metal_State_Penalty>
0.011192

> <b_epik_Metal_Only>
0

> <s_lp_Force_Field>
OPLS_2005

> <r_lp_Energy>
16.1833

> <b_lp_Chiralities_Consistent>
1

> <s_lp_Variant>
AV-unprocessed.smi:2597-1

> <Gold.Version>
5.8.1

> <Gold.Id.Protein>
6NUR|6NUR_protein|mol2

> <Gold.PLP.Fitness>
38.5280

> <Gold.PLP.PLP>
-23.0600

> <Gold.PLP.part.hbond>
-4.1571

> <Gold.PLP.part.metal>
0.0000

> <Gold.PLP.part.buried>
1.1100

> <Gold.PLP.part.nonpolar>
-18.4289

> <Gold.PLP.part.repulsive>
0.1625

> <Gold.PLP.ligand.clash>
0.0000

> <Gold.PLP.ligand.torsion>
0.2773

> <Gold.PLP.Chemscore.Hbond>
4.3440

> <Gold.PLP.Chemscore.CHOScore>
0.9752

> <Gold.PLP.Chemscore.Metal>
0.0000

> <Gold.Chemscore.Hbonds>
donor molecule, donor type, donor heavy atom, donor atom, acceptor molecule, acceptor atom, score
      L1  H     1    17       P1  7948  1.34
      L1  H     1    31       P1  7957  1.00
      P1  H  7989  7998       L1    14  0.70
      P1  H  7997  8008       L1    12  0.64
      L1  C     9    27       P1  8028  1.00

> <Gold.PLP.Chemscore.Internal.Correction>
0.0650

> <Gold.Rescore>
     Score         DG    S(hbond)    S(metal)    S(lipo)     H(rot)  DE(clash)    DE(int)     intcor
     13.50     -16.14       2.96        0.00      47.09       1.86       1.01       1.64       ----

> <Gold.Chemscore.Fitness>
13.4963

> <Gold.Chemscore.DG>
-16.1426

> <Gold.Chemscore.ZeroCoef>
-5.4800

> <Gold.Chemscore.Hbond>
2.9648

> <Gold.Chemscore.Metal>
0.0000

> <Gold.Chemscore.Lipo>
47.0856

> <Gold.Chemscore.Internal_Hbond>
0.0000

> <Gold.Chemscore.DEClash>
1.0098

> <Gold.Chemscore.DEInternal>
1.6365

> <Gold.Chemscore.Rot>
1.8551

> <Gold.Chemscore.Internal.Correction>
   9.000000E+99

> <Gold.Chemscore.Hbonds>
donor molecule, donor type, donor heavy atom, donor atom, acceptor molecule, acceptor atom, score
      L1  H     1    17       P1  7948  0.65
      L1  H     1    31       P1  7957  0.88
      P1  H  7989  7998       L1    14  0.03
      P1  H  7997  8008       L1    12  0.48

> <Gold.Chemscore.Hbond.Weighted>
-9.9025

> <Gold.Chemscore.Metal.Weighted>
-0.0000

> <Gold.Chemscore.Lipo.Weighted>
-5.5090

> <Gold.Chemscore.Internal_Hbond.Weighted>
0.0000

> <Gold.Chemscore.DEClash.Weighted>
1.0098

> <Gold.Chemscore.DEInternal.Weighted>
1.6365

> <Gold.Chemscore.Rot.Weighted>
4.7489

> <Gold.Chemscore.Internal.Correction.Weighted>
   9.000000E+99

> <Gold.Protein.RotatedTorsions>
[ 6907 6896 6895 6894 ] final -135.85 input  -60.11 | X-H torsion
[ 7974 7965 7964 7962 ] final  143.22 input  175.53 | X-H torsion
[ 8008 7997 7996 7995 ] final  -75.93 input   59.86 | X-H torsion
[ 10167 10162 10161 10158 ] final  -42.78 input  -65.29 | X-H torsion
[ 10718 10713 10712 10709 ] final   32.17 input   66.30 | X-H torsion
[ 10763 10752 10751 10750 ] final -111.64 input  -60.55 | X-H torsion
[ 11005 11000 10999 10996 ] final  155.01 input  -57.11 | X-H torsion

> <Gold.Protein.ActiveResidues>
 VAL166  LYS551  ARG553  GLY616  TRP617  ASP618  TYR619  PRO620  LYS621  CYS622 
 ASP623  PHE694  ASN695  SER759  ASP760  ASP761  ALA762  ILE779  LEU786  VAL792 
 PHE793  MET794  SER795  GLU796  ALA797  LYS798  CYS799  TRP800  GLU811  SER814 

> <Gold.Protein.RotatedAtoms>
  151.0029  133.6039  159.2692 H   0  0  0  0  0  0  0  0  0  0  0  0  # atno 6907 bound_to 6896
  151.3218  135.0819  159.9318 H   0  0  0  0  0  0  0  0  0  0  0  0  # atno 6908 bound_to 6896
  152.5279  133.9675  159.7800 H   0  0  0  0  0  0  0  0  0  0  0  0  # atno 6909 bound_to 6896
  144.8939  139.5518  143.5785 H   0  0  0  0  0  0  0  0  0  0  0  0  # atno 7974 bound_to 7965
  154.5460  140.0736  156.8589 H   0  0  0  0  0  0  0  0  0  0  0  0  # atno 8008 bound_to 7997
  155.3087  140.3389  155.4226 H   0  0  0  0  0  0  0  0  0  0  0  0  # atno 8009 bound_to 7997
  156.1918  140.1689  156.8063 H   0  0  0  0  0  0  0  0  0  0  0  0  # atno 8010 bound_to 7997
  140.6957  143.3019  151.3257 H   0  0  0  0  0  0  0  0  0  0  0  0  # atno 10167 bound_to 10162
  157.2818  130.7259  149.6561 H   0  0  0  0  0  0  0  0  0  0  0  0  # atno 10718 bound_to 10713
  154.8310  135.4520  154.1070 H   0  0  0  0  0  0  0  0  0  0  0  0  # atno 10763 bound_to 10752
  153.2343  135.6909  153.7861 H   0  0  0  0  0  0  0  0  0  0  0  0  # atno 10764 bound_to 10752
  153.7232  135.3338  155.3247 H   0  0  0  0  0  0  0  0  0  0  0  0  # atno 10765 bound_to 10752
  140.1542  134.8654  157.2493 H   0  0  0  0  0  0  0  0  0  0  0  0  # atno 11005 bound_to 11000
  146.3070  139.7614  142.9048 LP  0  0  0  0  0  0  0  0  0  0  0  0  # atno 17320 bound_to 7965
  145.3734  141.0346  143.3218 LP  0  0  0  0  0  0  0  0  0  0  0  0  # atno 17321 bound_to 7965
  139.6410  144.0539  152.2554 LP  0  0  0  0  0  0  0  0  0  0  0  0  # atno 17342 bound_to 10162
  140.0045  144.6269  150.7701 LP  0  0  0  0  0  0  0  0  0  0  0  0  # atno 17343 bound_to 10162
  155.9664  130.4336  150.5012 LP  0  0  0  0  0  0  0  0  0  0  0  0  # atno 17370 bound_to 10713
  157.2957  131.0635  151.2103 LP  0  0  0  0  0  0  0  0  0  0  0  0  # atno 17371 bound_to 10713
  140.2568  134.3618  155.7421 LP  0  0  0  0  0  0  0  0  0  0  0  0  # atno 17394 bound_to 11000
  141.2202  133.7347  156.9019 LP  0  0  0  0  0  0  0  0  0  0  0  0  # atno 17395 bound_to 11000

$$$$
