AV-unprocessed.smi:54|AV-procd|sdf|552|dock5
  -GOLD-   2262016453D 1   1.00000     0.00000
 Structure written by MMmdl.
 43 45  0  0  0  0  0  0  0  0  2 V2000
  151.6539  144.5986  158.5558 C   0  0  0  0  0  0  0  0  0  0  0  0
  151.9241  143.1729  159.0644 C   0  0  0  0  0  0  0  0  0  0  0  0
  153.3764  143.0165  159.5459 C   0  0  0  0  0  0  0  0  0  0  0  0
  151.5974  142.1376  157.9791 C   0  0  0  0  0  0  0  0  0  0  0  0
  151.0043  142.5016  156.9608 O   0  0  0  0  0  0  0  0  0  0  0  0
  152.0001  140.8746  158.2445 N   0  0  0  0  0  0  0  0  0  0  0  0
  151.8580  139.7211  157.4649 C   0  0  0  0  0  0  0  0  0  0  0  0
  150.7041  139.4371  156.9028 N   0  0  0  0  0  0  0  0  0  0  0  0
  150.7519  138.2703  156.1661 C   0  0  0  0  0  0  0  0  0  0  0  0
  151.8204  137.4373  155.9801 C   0  0  0  0  0  0  0  0  0  0  0  0
  151.4854  136.3532  155.1770 N   0  0  0  0  0  0  0  0  0  0  0  0
  150.2013  136.5904  154.9109 C   0  0  0  0  0  0  0  0  0  0  0  0
  149.6940  137.7122  155.4619 N   0  0  0  0  0  0  0  0  0  0  0  0
  148.3039  138.2486  155.3520 C   0  0  1  0  0  0  0  0  0  0  0  0
  148.2686  139.5430  155.8566 O   0  0  0  0  0  0  0  0  0  0  0  0
  147.1819  140.2510  155.2651 C   0  0  1  0  0  0  0  0  0  0  0  0
  147.6688  141.6713  154.9395 C   0  0  0  0  0  0  0  0  0  0  0  0
  148.2340  142.2727  156.0852 O   0  0  0  0  0  0  0  0  0  0  0  0
  146.7599  139.4364  154.0226 C   0  0  2  0  0  0  0  0  0  0  0  0
  145.4917  138.8535  154.2546 O   0  0  0  0  0  0  0  0  0  0  0  0
  147.8166  138.3461  153.9056 C   0  0  1  0  0  0  0  0  0  0  0  0
  148.8377  138.7284  153.0013 O   0  0  0  0  0  0  0  0  0  0  0  0
  153.0900  137.8231  156.6410 C   0  0  0  0  0  0  0  0  0  0  0  0
  154.0792  137.1060  156.5028 O   0  0  0  0  0  0  0  0  0  0  0  0
  153.0467  138.9807  157.3679 N   0  5  0  0  0  0  0  0  0  0  0  0
  147.6880  137.5913  155.9680 H   0  0  0  0  0  0  0  0  0  0  0  0
  146.3748  140.2989  155.9988 H   0  0  0  0  0  0  0  0  0  0  0  0
  146.6919  140.0433  153.1185 H   0  0  0  0  0  0  0  0  0  0  0  0
  147.4110  137.3858  153.5827 H   0  0  0  0  0  0  0  0  0  0  0  0
  150.6247  144.7078  158.2109 H   0  0  0  0  0  0  0  0  0  0  0  0
  152.3130  144.8621  157.7276 H   0  0  0  0  0  0  0  0  0  0  0  0
  151.8113  145.3305  159.3483 H   0  0  0  0  0  0  0  0  0  0  0  0
  151.2695  142.9936  159.9190 H   0  0  0  0  0  0  0  0  0  0  0  0
  153.5733  141.9992  159.8869 H   0  0  0  0  0  0  0  0  0  0  0  0
  153.5839  143.6867  160.3804 H   0  0  0  0  0  0  0  0  0  0  0  0
  154.0898  143.2459  158.7532 H   0  0  0  0  0  0  0  0  0  0  0  0
  152.4461  140.7482  159.1410 H   0  0  0  0  0  0  0  0  0  0  0  0
  149.6118  135.9255  154.2970 H   0  0  0  0  0  0  0  0  0  0  0  0
  148.4323  141.6363  154.1620 H   0  0  0  0  0  0  0  0  0  0  0  0
  146.8522  142.2881  154.5627 H   0  0  0  0  0  0  0  0  0  0  0  0
  148.6165  143.0994  155.8332 H   0  0  0  0  0  0  0  0  0  0  0  0
  144.8752  139.2262  153.6431 H   0  0  0  0  0  0  0  0  0  0  0  0
  148.9465  138.0390  152.3646 H   0  0  0  0  0  0  0  0  0  0  0  0
  1  2  1  0  0  0  0
  1 30  1  0  0  0  0
  1 31  1  0  0  0  0
  1 32  1  0  0  0  0
  2  3  1  0  0  0  0
  2  4  1  0  0  0  0
  2 33  1  0  0  0  0
  3 34  1  0  0  0  0
  3 35  1  0  0  0  0
  3 36  1  0  0  0  0
  4  5  2  0  0  0  0
  4  6  1  0  0  0  0
  6 37  1  0  0  0  0
  6  7  1  0  0  0  0
  7 25  1  0  0  0  0
  7  8  2  0  0  0  0
  8  9  1  0  0  0  0
  9 13  1  0  0  0  0
  9 10  2  0  0  0  0
 10 11  1  0  0  0  0
 10 23  1  0  0  0  0
 11 12  2  0  0  0  0
 12 13  1  0  0  0  0
 12 38  1  0  0  0  0
 13 14  1  0  0  0  0
 14 26  1  0  0  0  0
 14 21  1  0  0  0  0
 14 15  1  0  0  0  0
 15 16  1  0  0  0  0
 16 27  1  0  0  0  0
 16 17  1  0  0  0  0
 16 19  1  0  0  0  0
 17 18  1  0  0  0  0
 17 39  1  0  0  0  0
 17 40  1  0  0  0  0
 18 41  1  0  0  0  0
 19 28  1  0  0  0  0
 19 20  1  0  0  0  0
 19 21  1  0  0  0  0
 20 42  1  0  0  0  0
 21 29  1  0  0  0  0
 21 22  1  0  0  0  0
 22 43  1  0  0  0  0
 23 24  2  0  0  0  0
 23 25  1  0  0  0  0
M  CHG  1  25  -1
M  END
> <s_m_source_file>
AV-unprocessed.smi

> <i_m_source_file_index>
54

> <i_lp_mmshare_version>
43012

> <i_f3d_flags>
0

> <s_epik_input>
W0NIM11bQ0hdKFtDSDNdKUMoPU8pW05IXWMobjEpW25IXWMoPU8pYyhjMTIpbltjSF1uMltDQEBIXTNPW0NASF0oW0NIMl1bT0hdKVtDQEBIXShbT0hdKVtDQEhdM1tPSF0=

> <s_epik_cmdline>
J2VwaWtfcHl0aG9uJywgJy1waCcsICc3LjAnLCAnLXRuJywgJzgnLCAnLW1hJywgJzIwMCcsICctbWV0YWxfYmluZGluZycsICctaW1hZScsICc8aW5maWxlLm1hZT4nLCAnLW9tYWUnLCAnPG91dGZpbGUubWFlPic=

> <r_lp_tautomer_probability>
0.85571

> <r_epik_Ionization_Penalty>
1.75936

> <r_epik_Ionization_Penalty_Charging>
4.55893e-11

> <r_epik_Ionization_Penalty_Neutral>
1.75936

> <r_epik_State_Penalty>
1.72072

> <r_epik_Charging_Adjusted_Penalty>
1.72072

> <i_epik_Tot_Q>
-1

> <i_epik_Tot_abs_Q>
1

> <r_epik_Metal_State_Penalty>
0.400338

> <b_epik_Metal_Only>
1

> <s_epik_Chemistry_Notes>
This compound contains an acetal/aminal-like group ( X-CH(R)-Y where X, Y are N, S, or O) that may be acid/base labile, releasing an aldehyde.

> <s_lp_Force_Field>
OPLS_2005

> <r_lp_Energy>
59.2625

> <b_lp_Chiralities_Consistent>
1

> <s_lp_Variant>
AV-unprocessed.smi:54-24

> <Gold.Version>
5.8.1

> <Gold.Id.Protein>
6NUR|6NUR_protein|mol2

> <Gold.PLP.Fitness>
51.6542

> <Gold.PLP.PLP>
-31.3996

> <Gold.PLP.part.hbond>
-6.4033

> <Gold.PLP.part.metal>
0.0000

> <Gold.PLP.part.buried>
-4.9890

> <Gold.PLP.part.nonpolar>
-21.2192

> <Gold.PLP.part.repulsive>
0.3238

> <Gold.PLP.ligand.clash>
0.0000

> <Gold.PLP.ligand.torsion>
0.8859

> <Gold.PLP.Chemscore.Hbond>
6.3730

> <Gold.PLP.Chemscore.CHOScore>
0.9535

> <Gold.PLP.Chemscore.Metal>
0.0000

> <Gold.Chemscore.Hbonds>
donor molecule, donor type, donor heavy atom, donor atom, acceptor molecule, acceptor atom, score
      L1  H    18    41       P1  8028  1.00
      L1  H    20    42       P1 10175  0.88
      L1  H    22    43       P1  7948  1.00
      P1  H  7997  8009       L1    25  2.00
      P1  H 10752 10763       L1    11  0.88
      P1  H 10752 10764       L1    24  0.40
      L1  C    12    38       P1  7948  0.95

> <Gold.PLP.Chemscore.Internal.Correction>
0.0470

> <Gold.Rescore>
     Score         DG    S(hbond)    S(metal)    S(lipo)     H(rot)  DE(clash)    DE(int)     intcor
     15.05     -17.70       4.66        0.00      59.30       4.02       0.16       2.48       ----

> <Gold.Chemscore.Fitness>
15.0544

> <Gold.Chemscore.DG>
-17.6955

> <Gold.Chemscore.ZeroCoef>
-5.4800

> <Gold.Chemscore.Hbond>
4.6608

> <Gold.Chemscore.Metal>
0.0000

> <Gold.Chemscore.Lipo>
59.2966

> <Gold.Chemscore.Internal_Hbond>
0.0000

> <Gold.Chemscore.DEClash>
0.1573

> <Gold.Chemscore.DEInternal>
2.4838

> <Gold.Chemscore.Rot>
4.0192

> <Gold.Chemscore.Internal.Correction>
   9.000000E+99

> <Gold.Chemscore.Hbonds>
donor molecule, donor type, donor heavy atom, donor atom, acceptor molecule, acceptor atom, score
      L1  H    18    41       P1  8028  0.99
      L1  H    20    42       P1 10175  0.84
      L1  H    22    43       P1  7948  0.96
      P1  H  7997  8009       L1    25  0.54
      P1  H 10752 10763       L1    11  0.74
      P1  H 10752 10764       L1    24  0.41

> <Gold.Chemscore.Hbond.Weighted>
-15.5670

> <Gold.Chemscore.Metal.Weighted>
-0.0000

> <Gold.Chemscore.Lipo.Weighted>
-6.9377

> <Gold.Chemscore.Internal_Hbond.Weighted>
0.0000

> <Gold.Chemscore.DEClash.Weighted>
0.1573

> <Gold.Chemscore.DEInternal.Weighted>
2.4838

> <Gold.Chemscore.Rot.Weighted>
10.2893

> <Gold.Chemscore.Internal.Correction.Weighted>
   9.000000E+99

> <Gold.Protein.RotatedTorsions>
[ 6907 6896 6895 6894 ] final   -5.13 input  -60.11 | X-H torsion
[ 7974 7965 7964 7962 ] final  179.08 input  175.53 | X-H torsion
[ 8008 7997 7996 7995 ] final  165.55 input   59.86 | X-H torsion
[ 10167 10162 10161 10158 ] final   81.05 input  -65.29 | X-H torsion
[ 10718 10713 10712 10709 ] final -176.13 input   66.30 | X-H torsion
[ 10763 10752 10751 10750 ] final   38.48 input  -60.55 | X-H torsion
[ 11005 11000 10999 10996 ] final -129.53 input  -57.11 | X-H torsion

> <Gold.Protein.ActiveResidues>
 VAL166  LYS551  ARG553  GLY616  TRP617  ASP618  TYR619  PRO620  LYS621  CYS622 
 ASP623  PHE694  ASN695  SER759  ASP760  ASP761  ALA762  ILE779  LEU786  VAL792 
 PHE793  MET794  SER795  GLU796  ALA797  LYS798  CYS799  TRP800  GLU811  SER814 

> <Gold.Protein.RotatedAtoms>
  151.4865  135.1055  159.9791 H   0  0  0  0  0  0  0  0  0  0  0  0  # atno 6907 bound_to 6896
  152.4758  133.8131  159.7024 H   0  0  0  0  0  0  0  0  0  0  0  0  # atno 6908 bound_to 6896
  150.8795  133.7329  159.2962 H   0  0  0  0  0  0  0  0  0  0  0  0  # atno 6909 bound_to 6896
  144.7149  140.0494  143.6435 H   0  0  0  0  0  0  0  0  0  0  0  0  # atno 7974 bound_to 7965
  156.1791  140.1667  156.8307 H   0  0  0  0  0  0  0  0  0  0  0  0  # atno 8008 bound_to 7997
  154.5340  140.0750  156.8429 H   0  0  0  0  0  0  0  0  0  0  0  0  # atno 8009 bound_to 7997
  155.3348  140.3381  155.4241 H   0  0  0  0  0  0  0  0  0  0  0  0  # atno 8010 bound_to 7997
  139.9433  144.6075  150.8231 H   0  0  0  0  0  0  0  0  0  0  0  0  # atno 10167 bound_to 10162
  156.8101  130.9583  151.3116 H   0  0  0  0  0  0  0  0  0  0  0  0  # atno 10718 bound_to 10713
  152.9999  135.6248  154.2312 H   0  0  0  0  0  0  0  0  0  0  0  0  # atno 10763 bound_to 10752
  154.2054  135.2802  155.2978 H   0  0  0  0  0  0  0  0  0  0  0  0  # atno 10764 bound_to 10752
  154.5650  135.5694  153.7101 H   0  0  0  0  0  0  0  0  0  0  0  0  # atno 10765 bound_to 10752
  140.9423  134.1176  157.4139 H   0  0  0  0  0  0  0  0  0  0  0  0  # atno 11005 bound_to 11000
  145.9957  139.3050  143.0958 LP  0  0  0  0  0  0  0  0  0  0  0  0  # atno 17320 bound_to 7965
  145.8852  140.9338  143.0581 LP  0  0  0  0  0  0  0  0  0  0  0  0  # atno 17321 bound_to 7965
  140.7604  143.3151  151.2752 LP  0  0  0  0  0  0  0  0  0  0  0  0  # atno 17342 bound_to 10162
  139.6687  144.0059  152.2739 LP  0  0  0  0  0  0  0  0  0  0  0  0  # atno 17343 bound_to 10162
  157.6510  130.8884  149.9633 LP  0  0  0  0  0  0  0  0  0  0  0  0  # atno 17370 bound_to 10713
  156.1050  130.3653  150.0150 LP  0  0  0  0  0  0  0  0  0  0  0  0  # atno 17371 bound_to 10713
  139.8824  135.0040  156.6224 LP  0  0  0  0  0  0  0  0  0  0  0  0  # atno 17394 bound_to 11000
  140.7717  133.8733  155.8497 LP  0  0  0  0  0  0  0  0  0  0  0  0  # atno 17395 bound_to 11000

$$$$
