AV-unprocessed.smi:1410|AV-procd|sdf|5729|dock4
  -GOLD-   22720 5363D 1   1.00000     0.00000
 Structure written by MMmdl.
 39 40  0  0  0  0  0  0  0  0  1 V2000
  147.9869  142.7888  157.5237 N   0  0  0  0  0  0  0  0  0  0  0  0
  147.0602  141.9544  157.0465 C   0  0  0  0  0  0  0  0  0  0  0  0
  146.4346  141.1839  157.7717 O   0  0  0  0  0  0  0  0  0  0  0  0
  146.7893  141.9956  155.5375 C   0  0  0  0  0  0  0  0  0  0  0  0
  146.9512  140.6939  154.8503 N   0  0  0  0  0  0  0  0  0  0  0  0
  146.7963  140.8873  153.4046 C   0  0  0  0  0  0  0  0  0  0  0  0
  147.0906  139.5802  152.6480 C   0  0  0  0  0  0  0  0  0  0  0  0
  146.1617  138.4510  153.1146 C   0  0  0  0  0  0  0  0  0  0  0  0
  146.5351  137.1978  152.4656 N   0  0  0  0  0  0  0  0  0  0  0  0
  145.6731  136.2974  151.9713 C   0  0  0  0  0  0  0  0  0  0  0  0
  144.4506  136.4362  152.0130 O   0  0  0  0  0  0  0  0  0  0  0  0
  146.3212  135.2380  151.4559 N   0  0  0  0  0  0  0  0  0  0  0  0
  145.7809  134.0796  150.8334 C   0  0  0  0  0  0  0  0  0  0  0  0
  144.3819  134.0174  150.6665 C   0  0  0  0  0  0  0  0  0  0  0  0
  143.8189  132.8728  150.0671 C   0  0  0  0  0  0  0  0  0  0  0  0
  144.5506  131.8191  149.6484 N   0  0  0  0  0  0  0  0  0  0  0  0
  145.8882  131.8737  149.8217 C   0  0  0  0  0  0  0  0  0  0  0  0
  146.5512  132.9700  150.4086 C   0  0  0  0  0  0  0  0  0  0  0  0
  146.2579  138.3270  154.6440 C   0  0  0  0  0  0  0  0  0  0  0  0
  146.0022  139.6793  155.3325 C   0  0  0  0  0  0  0  0  0  0  0  0
  148.1921  142.7950  158.5123 H   0  0  0  0  0  0  0  0  0  0  0  0
  148.4762  143.4120  156.8979 H   0  0  0  0  0  0  0  0  0  0  0  0
  145.7869  142.3869  155.3525 H   0  0  0  0  0  0  0  0  0  0  0  0
  147.4859  142.7187  155.1104 H   0  0  0  0  0  0  0  0  0  0  0  0
  145.7893  141.2398  153.1734 H   0  0  0  0  0  0  0  0  0  0  0  0
  147.4883  141.6561  153.0585 H   0  0  0  0  0  0  0  0  0  0  0  0
  146.9735  139.7409  151.5757 H   0  0  0  0  0  0  0  0  0  0  0  0
  148.1328  139.2977  152.8068 H   0  0  0  0  0  0  0  0  0  0  0  0
  145.1376  138.7111  152.8390 H   0  0  0  0  0  0  0  0  0  0  0  0
  147.5228  137.0010  152.3944 H   0  0  0  0  0  0  0  0  0  0  0  0
  147.3243  135.2366  151.5691 H   0  0  0  0  0  0  0  0  0  0  0  0
  143.7474  134.8315  150.9855 H   0  0  0  0  0  0  0  0  0  0  0  0
  142.7510  132.8015  149.9227 H   0  0  0  0  0  0  0  0  0  0  0  0
  146.4487  131.0131  149.4877 H   0  0  0  0  0  0  0  0  0  0  0  0
  147.6227  132.9303  150.5297 H   0  0  0  0  0  0  0  0  0  0  0  0
  145.5395  137.5914  155.0077 H   0  0  0  0  0  0  0  0  0  0  0  0
  147.2455  137.9593  154.9267 H   0  0  0  0  0  0  0  0  0  0  0  0
  146.1013  139.5316  156.4077 H   0  0  0  0  0  0  0  0  0  0  0  0
  144.9770  140.0074  155.1524 H   0  0  0  0  0  0  0  0  0  0  0  0
  1  2  1  0  0  0  0
  1 21  1  0  0  0  0
  1 22  1  0  0  0  0
  2  3  2  0  0  0  0
  2  4  1  0  0  0  0
  4  5  1  0  0  0  0
  4 23  1  0  0  0  0
  4 24  1  0  0  0  0
  5 20  1  0  0  0  0
  5  6  1  0  0  0  0
  6  7  1  0  0  0  0
  6 25  1  0  0  0  0
  6 26  1  0  0  0  0
  7  8  1  0  0  0  0
  7 27  1  0  0  0  0
  7 28  1  0  0  0  0
  8  9  1  0  0  0  0
  8 19  1  0  0  0  0
  8 29  1  0  0  0  0
  9 10  1  0  0  0  0
  9 30  1  0  0  0  0
 10 11  2  0  0  0  0
 10 12  1  0  0  0  0
 12 13  1  0  0  0  0
 12 31  1  0  0  0  0
 13 18  1  0  0  0  0
 13 14  2  0  0  0  0
 14 15  1  0  0  0  0
 14 32  1  0  0  0  0
 15 16  2  0  0  0  0
 15 33  1  0  0  0  0
 16 17  1  0  0  0  0
 17 18  2  0  0  0  0
 17 34  1  0  0  0  0
 18 35  1  0  0  0  0
 19 20  1  0  0  0  0
 19 36  1  0  0  0  0
 19 37  1  0  0  0  0
 20 38  1  0  0  0  0
 20 39  1  0  0  0  0
M  END
> <s_m_source_file>
AV-unprocessed.smi

> <i_m_source_file_index>
1410

> <i_lp_mmshare_version>
43012

> <i_f3d_flags>
0

> <s_epik_input>
W05IMl1DKD1PKVtDSDJdTjFbQ0gyXVtDSDJdW0NIXShbQ0gyXVtDSDJdMSlbTkhdQyg9TylbTkhdYzJbY0hdW2NIXW5bY0hdW2NIXTI=

> <s_epik_cmdline>
J2VwaWtfcHl0aG9uJywgJy1waCcsICc3LjAnLCAnLXRuJywgJzgnLCAnLW1hJywgJzIwMCcsICctbWV0YWxfYmluZGluZycsICctaW1hZScsICc8aW5maWxlLm1hZT4nLCAnLW9tYWUnLCAnPG91dGZpbGUubWFlPic=

> <r_epik_Ionization_Penalty>
0.286942

> <r_epik_Ionization_Penalty_Charging>
0

> <r_epik_Ionization_Penalty_Neutral>
0.286942

> <r_epik_State_Penalty>
0.264061

> <r_epik_Charging_Adjusted_Penalty>
0.264061

> <i_epik_Tot_Q>
0

> <i_epik_Tot_abs_Q>
0

> <r_epik_Metal_State_Penalty>
0.256326

> <b_epik_Metal_Only>
0

> <s_lp_Force_Field>
OPLS_2005

> <r_lp_Energy>
16.89

> <b_lp_Chiralities_Consistent>
1

> <s_lp_Variant>
AV-unprocessed.smi:1410-1

> <Gold.Version>
5.8.1

> <Gold.Id.Protein>
6NUR|6NUR_protein|mol2

> <Gold.PLP.Fitness>
41.9678

> <Gold.PLP.PLP>
-28.4893

> <Gold.PLP.part.hbond>
-4.5513

> <Gold.PLP.part.metal>
0.0000

> <Gold.PLP.part.buried>
-1.6495

> <Gold.PLP.part.nonpolar>
-23.9083

> <Gold.PLP.part.repulsive>
0.6090

> <Gold.PLP.ligand.clash>
0.0000

> <Gold.PLP.ligand.torsion>
0.2837

> <Gold.PLP.Chemscore.Hbond>
3.1418

> <Gold.PLP.Chemscore.CHOScore>
1.5353

> <Gold.PLP.Chemscore.Metal>
0.0000

> <Gold.Chemscore.Hbonds>
donor molecule, donor type, donor heavy atom, donor atom, acceptor molecule, acceptor atom, score
      L1  H     1    22       P1  8028  1.00
      L1  H     9    30       P1  7948  1.00
      L1  H    12    31       P1  7948  0.99
      P1  H 10785 10796       L1    16  0.13
      L1  C    15    33       P1 10186  1.00
      L1  C    17    34       P1 10747  0.57

> <Gold.PLP.Chemscore.Internal.Correction>
0.0148

> <Gold.Rescore>
     Score         DG    S(hbond)    S(metal)    S(lipo)     H(rot)  DE(clash)    DE(int)     intcor
     15.20     -18.81       2.97        0.00      71.48       1.94       0.64       2.96       ----

> <Gold.Chemscore.Fitness>
15.2030

> <Gold.Chemscore.DG>
-18.8072

> <Gold.Chemscore.ZeroCoef>
-5.4800

> <Gold.Chemscore.Hbond>
2.9723

> <Gold.Chemscore.Metal>
0.0000

> <Gold.Chemscore.Lipo>
71.4807

> <Gold.Chemscore.Internal_Hbond>
0.0000

> <Gold.Chemscore.DEClash>
0.6408

> <Gold.Chemscore.DEInternal>
2.9634

> <Gold.Chemscore.Rot>
1.9389

> <Gold.Chemscore.Internal.Correction>
   9.000000E+99

> <Gold.Chemscore.Hbonds>
donor molecule, donor type, donor heavy atom, donor atom, acceptor molecule, acceptor atom, score
      L1  H     1    22       P1  8028  0.26
      L1  H     9    30       P1  7948  0.99
      L1  H    12    31       P1  7948  0.86
      P1  H 10785 10796       L1    16  0.11

> <Gold.Chemscore.Hbond.Weighted>
-9.9275

> <Gold.Chemscore.Metal.Weighted>
-0.0000

> <Gold.Chemscore.Lipo.Weighted>
-8.3632

> <Gold.Chemscore.Internal_Hbond.Weighted>
0.0000

> <Gold.Chemscore.DEClash.Weighted>
0.6408

> <Gold.Chemscore.DEInternal.Weighted>
2.9634

> <Gold.Chemscore.Rot.Weighted>
4.9636

> <Gold.Chemscore.Internal.Correction.Weighted>
   9.000000E+99

> <Gold.Protein.RotatedTorsions>
[ 6907 6896 6895 6894 ] final  -60.97 input  -60.11 | X-H torsion
[ 7974 7965 7964 7962 ] final  -87.35 input  175.53 | X-H torsion
[ 8008 7997 7996 7995 ] final  -28.88 input   59.86 | X-H torsion
[ 10167 10162 10161 10158 ] final   16.63 input  -65.29 | X-H torsion
[ 10718 10713 10712 10709 ] final   92.44 input   66.30 | X-H torsion
[ 10763 10752 10751 10750 ] final  112.91 input  -60.55 | X-H torsion
[ 11005 11000 10999 10996 ] final -145.82 input  -57.11 | X-H torsion

> <Gold.Protein.ActiveResidues>
 VAL166  LYS551  ARG553  GLY616  TRP617  ASP618  TYR619  PRO620  LYS621  CYS622 
 ASP623  PHE694  ASN695  SER759  ASP760  ASP761  ALA762  ILE779  LEU786  VAL792 
 PHE793  MET794  SER795  GLU796  ALA797  LYS798  CYS799  TRP800  GLU811  SER814 

> <Gold.Protein.RotatedAtoms>
  150.7818  134.6766  159.6420 H   0  0  0  0  0  0  0  0  0  0  0  0  # atno 6907 bound_to 6896
  152.3904  134.6447  160.0118 H   0  0  0  0  0  0  0  0  0  0  0  0  # atno 6908 bound_to 6896
  151.6749  133.3276  159.3242 H   0  0  0  0  0  0  0  0  0  0  0  0  # atno 6909 bound_to 6896
  145.4676  140.9560  143.1934 H   0  0  0  0  0  0  0  0  0  0  0  0  # atno 7974 bound_to 7965
  154.4313  140.1833  156.1160 H   0  0  0  0  0  0  0  0  0  0  0  0  # atno 8008 bound_to 7997
  156.0180  140.3343  155.6984 H   0  0  0  0  0  0  0  0  0  0  0  0  # atno 8009 bound_to 7997
  155.6016  140.0641  157.2722 H   0  0  0  0  0  0  0  0  0  0  0  0  # atno 8010 bound_to 7997
  140.5784  143.9028  150.6769 H   0  0  0  0  0  0  0  0  0  0  0  0  # atno 10167 bound_to 10162
  157.6958  131.0443  150.3883 H   0  0  0  0  0  0  0  0  0  0  0  0  # atno 10718 bound_to 10713
  153.4847  135.3672  155.2460 H   0  0  0  0  0  0  0  0  0  0  0  0  # atno 10763 bound_to 10752
  154.8754  135.3963  154.3659 H   0  0  0  0  0  0  0  0  0  0  0  0  # atno 10764 bound_to 10752
  153.4268  135.7081  153.6322 H   0  0  0  0  0  0  0  0  0  0  0  0  # atno 10765 bound_to 10752
  140.7883  134.2998  157.5022 H   0  0  0  0  0  0  0  0  0  0  0  0  # atno 11005 bound_to 11000
  144.7964  139.6225  143.7091 LP  0  0  0  0  0  0  0  0  0  0  0  0  # atno 17320 bound_to 7965
  146.2415  139.6011  142.9488 LP  0  0  0  0  0  0  0  0  0  0  0  0  # atno 17321 bound_to 7965
  140.2521  143.3585  152.1396 LP  0  0  0  0  0  0  0  0  0  0  0  0  # atno 17342 bound_to 10162
  139.5156  144.6965  151.5617 LP  0  0  0  0  0  0  0  0  0  0  0  0  # atno 17343 bound_to 10162
  156.4289  130.3968  149.6774 LP  0  0  0  0  0  0  0  0  0  0  0  0  # atno 17370 bound_to 10713
  156.3998  130.7669  151.2676 LP  0  0  0  0  0  0  0  0  0  0  0  0  # atno 17371 bound_to 10713
  139.8734  134.9360  156.3647 LP  0  0  0  0  0  0  0  0  0  0  0  0  # atno 17394 bound_to 11000
  140.9414  133.7512  156.0152 LP  0  0  0  0  0  0  0  0  0  0  0  0  # atno 17395 bound_to 11000

$$$$
