AV-unprocessed.smi:234|AV-procd|sdf|1796|dock3
  -GOLD-   2262020363D 1   1.00000     0.00000
 Structure written by MMmdl.
 59 62  0  0  0  0  0  0  0  0  1 V2000
  151.8300  141.3726  158.1651 C   0  0  0  0  0  0  0  0  0  0  0  0
  150.8750  142.0283  157.1652 C   0  0  0  0  0  0  0  0  0  0  0  0
  150.5847  141.0989  156.1342 O   0  0  0  0  0  0  0  0  0  0  0  0
  150.0216  139.8826  156.6128 C   0  0  1  0  0  0  0  0  0  0  0  0
  148.5853  140.1344  157.0736 C   0  0  0  0  0  0  0  0  0  0  0  0
  148.1596  139.8044  155.6395 C   0  0  2  0  0  0  0  0  0  0  0  0
  146.8983  139.0582  155.5671 N   0  0  0  0  0  0  0  0  0  0  0  0
  145.7619  139.5833  156.3185 C   0  0  0  0  0  0  0  0  0  0  0  0
  146.5095  138.5960  154.3532 C   0  0  0  0  0  0  0  0  0  0  0  0
  147.0747  139.0887  153.2194 N   0  0  0  0  0  0  0  0  0  0  0  0
  146.6818  138.6411  152.0235 C   0  0  0  0  0  0  0  0  0  0  0  0
  145.7491  137.7302  151.7387 N   0  0  0  0  0  0  0  0  0  0  0  0
  145.1656  137.2465  152.8726 C   0  0  0  0  0  0  0  0  0  0  0  0
  145.4858  137.6203  154.2078 C   0  0  0  0  0  0  0  0  0  0  0  0
  144.6978  136.9084  155.1031 N   0  0  0  0  0  0  0  0  0  0  0  0
  143.9500  136.1592  154.3401 C   0  0  0  0  0  0  0  0  0  0  0  0
  144.1520  136.3102  152.9860 N   0  0  0  0  0  0  0  0  0  0  0  0
  143.4535  135.6081  151.9195 C   0  0  0  0  0  0  0  0  0  0  0  0
  144.3083  134.5650  151.1473 C   0  0  1  0  0  0  0  0  0  0  0  0
  143.8961  134.6408  149.7950 O   0  0  0  0  0  0  0  0  0  0  0  0
  145.8136  134.8075  151.2365 C   0  0  0  0  0  0  0  0  0  0  0  0
  146.2827  133.9037  152.3810 C   0  0  0  0  0  0  0  0  0  0  0  0
  145.1738  133.0782  152.7259 O   0  0  0  0  0  0  0  0  0  0  0  0
  144.1873  133.1310  151.7024 C   0  0  2  0  0  0  0  0  0  0  0  0
  144.4882  131.9992  150.6999 C   0  0  0  0  0  0  0  0  0  0  0  0
  149.4568  138.9518  155.5043 C   0  0  0  0  0  0  0  0  0  0  0  0
  150.1750  138.9928  154.1522 C   0  0  0  0  0  0  0  0  0  0  0  0
  149.3825  137.4704  155.9117 C   0  0  0  0  0  0  0  0  0  0  0  0
  152.0764  142.0580  158.9761 H   0  0  0  0  0  0  0  0  0  0  0  0
  152.7615  141.0777  157.6813 H   0  0  0  0  0  0  0  0  0  0  0  0
  151.3835  140.4804  158.6048 H   0  0  0  0  0  0  0  0  0  0  0  0
  149.9623  142.3399  157.6733 H   0  0  0  0  0  0  0  0  0  0  0  0
  151.3356  142.9218  156.7413 H   0  0  0  0  0  0  0  0  0  0  0  0
  150.6244  139.3840  157.3741 H   0  0  0  0  0  0  0  0  0  0  0  0
  148.2424  139.4106  157.8149 H   0  0  0  0  0  0  0  0  0  0  0  0
  148.3771  141.1580  157.3867 H   0  0  0  0  0  0  0  0  0  0  0  0
  148.1811  140.6943  155.0074 H   0  0  0  0  0  0  0  0  0  0  0  0
  144.9795  139.9652  155.6604 H   0  0  0  0  0  0  0  0  0  0  0  0
  146.0599  140.3997  156.9764 H   0  0  0  0  0  0  0  0  0  0  0  0
  145.3310  138.7965  156.9378 H   0  0  0  0  0  0  0  0  0  0  0  0
  147.1859  139.0768  151.1735 H   0  0  0  0  0  0  0  0  0  0  0  0
  143.2180  135.4772  154.7478 H   0  0  0  0  0  0  0  0  0  0  0  0
  142.5751  135.1253  152.3499 H   0  0  0  0  0  0  0  0  0  0  0  0
  143.0728  136.3596  151.2261 H   0  0  0  0  0  0  0  0  0  0  0  0
  144.6300  134.9286  149.2740 H   0  0  0  0  0  0  0  0  0  0  0  0
  146.3074  134.4884  150.3172 H   0  0  0  0  0  0  0  0  0  0  0  0
  146.0728  135.8553  151.3876 H   0  0  0  0  0  0  0  0  0  0  0  0
  147.1277  133.2878  152.0717 H   0  0  0  0  0  0  0  0  0  0  0  0
  146.5899  134.4803  153.2536 H   0  0  0  0  0  0  0  0  0  0  0  0
  143.1995  132.9524  152.1264 H   0  0  0  0  0  0  0  0  0  0  0  0
  143.7421  131.9632  149.9060 H   0  0  0  0  0  0  0  0  0  0  0  0
  144.4752  131.0307  151.2000 H   0  0  0  0  0  0  0  0  0  0  0  0
  145.4666  132.1158  150.2336 H   0  0  0  0  0  0  0  0  0  0  0  0
  149.6822  138.3631  153.4118 H   0  0  0  0  0  0  0  0  0  0  0  0
  151.2032  138.6411  154.2357 H   0  0  0  0  0  0  0  0  0  0  0  0
  150.2064  140.0030  153.7433 H   0  0  0  0  0  0  0  0  0  0  0  0
  148.8752  136.8679  155.1576 H   0  0  0  0  0  0  0  0  0  0  0  0
  148.8449  137.3281  156.8492 H   0  0  0  0  0  0  0  0  0  0  0  0
  150.3779  137.0467  156.0481 H   0  0  0  0  0  0  0  0  0  0  0  0
  1  2  1  0  0  0  0
  1 29  1  0  0  0  0
  1 30  1  0  0  0  0
  1 31  1  0  0  0  0
  2  3  1  0  0  0  0
  2 32  1  0  0  0  0
  2 33  1  0  0  0  0
  3  4  1  0  0  0  0
  4 26  1  0  0  0  0
  4  5  1  0  0  0  0
  4 34  1  0  0  0  0
  5  6  1  0  0  0  0
  5 35  1  0  0  0  0
  5 36  1  0  0  0  0
  6  7  1  0  0  0  0
  6 26  1  0  0  0  0
  6 37  1  0  0  0  0
  7  8  1  0  0  0  0
  7  9  1  0  0  0  0
  8 38  1  0  0  0  0
  8 39  1  0  0  0  0
  8 40  1  0  0  0  0
  9 14  1  0  0  0  0
  9 10  2  0  0  0  0
 10 11  1  0  0  0  0
 11 12  2  0  0  0  0
 11 41  1  0  0  0  0
 12 13  1  0  0  0  0
 13 17  1  0  0  0  0
 13 14  2  0  0  0  0
 14 15  1  0  0  0  0
 15 16  2  0  0  0  0
 16 17  1  0  0  0  0
 16 42  1  0  0  0  0
 17 18  1  0  0  0  0
 18 19  1  0  0  0  0
 18 43  1  0  0  0  0
 18 44  1  0  0  0  0
 19 24  1  0  0  0  0
 19 20  1  0  0  0  0
 19 21  1  0  0  0  0
 20 45  1  0  0  0  0
 21 22  1  0  0  0  0
 21 46  1  0  0  0  0
 21 47  1  0  0  0  0
 22 23  1  0  0  0  0
 22 48  1  0  0  0  0
 22 49  1  0  0  0  0
 23 24  1  0  0  0  0
 24 25  1  0  0  0  0
 24 50  1  0  0  0  0
 25 51  1  0  0  0  0
 25 52  1  0  0  0  0
 25 53  1  0  0  0  0
 26 27  1  0  0  0  0
 26 28  1  0  0  0  0
 27 54  1  0  0  0  0
 27 55  1  0  0  0  0
 27 56  1  0  0  0  0
 28 57  1  0  0  0  0
 28 58  1  0  0  0  0
 28 59  1  0  0  0  0
M  END
> <s_m_source_file>
AV-unprocessed.smi

> <i_m_source_file_index>
234

> <i_lp_mmshare_version>
43012

> <i_f3d_flags>
0

> <s_epik_input>
W0NIM11bQ0gyXU9bQ0BASF0oQzEoW0NIM10pW0NIM10pW0NIMl1bQ0BIXTFOKFtDSDNdKWMobltjSF1uMiljKGMyMyluW2NIXW4zW0NIMl1bQ0BAXTQoW09IXSlbQ0gyXVtDSDJdT1tDQEhdNFtDSDNd

> <s_epik_cmdline>
J2VwaWtfcHl0aG9uJywgJy1waCcsICc3LjAnLCAnLXRuJywgJzgnLCAnLW1hJywgJzIwMCcsICctbWV0YWxfYmluZGluZycsICctaW1hZScsICc8aW5maWxlLm1hZT4nLCAnLW9tYWUnLCAnPG91dGZpbGUubWFlPic=

> <r_lp_tautomer_probability>
1

> <r_epik_Ionization_Penalty>
0.00349132

> <r_epik_Ionization_Penalty_Charging>
0

> <r_epik_Ionization_Penalty_Neutral>
0.00349132

> <r_epik_State_Penalty>
0.00242418

> <r_epik_Charging_Adjusted_Penalty>
0.00242418

> <i_epik_Tot_Q>
0

> <i_epik_Tot_abs_Q>
0

> <r_epik_Metal_State_Penalty>
-0

> <b_epik_Metal_Only>
0

> <s_lp_Force_Field>
OPLS_2005

> <r_lp_Energy>
50.3749

> <b_lp_Chiralities_Consistent>
1

> <s_lp_Variant>
AV-unprocessed.smi:234-12

> <Gold.Version>
5.8.1

> <Gold.Id.Protein>
6NUR|6NUR_protein|mol2

> <Gold.PLP.Fitness>
36.8754

> <Gold.PLP.PLP>
-32.7666

> <Gold.PLP.part.hbond>
-1.8771

> <Gold.PLP.part.metal>
0.0000

> <Gold.PLP.part.buried>
-8.3414

> <Gold.PLP.part.nonpolar>
-25.9127

> <Gold.PLP.part.repulsive>
2.7637

> <Gold.PLP.ligand.clash>
0.0000

> <Gold.PLP.ligand.torsion>
1.3775

> <Gold.PLP.Chemscore.Hbond>
1.0000

> <Gold.PLP.Chemscore.CHOScore>
0.9790

> <Gold.PLP.Chemscore.Metal>
0.0000

> <Gold.Chemscore.Hbonds>
donor molecule, donor type, donor heavy atom, donor atom, acceptor molecule, acceptor atom, score
      L1  H    20    45       P1  7921  0.52
      L1  C    11    41       P1  7957  0.89

> <Gold.PLP.Chemscore.Internal.Correction>
0.9270

> <Gold.Rescore>
     Score         DG    S(hbond)    S(metal)    S(lipo)     H(rot)  DE(clash)    DE(int)     intcor
      7.92      -9.74       0.99        0.00      65.52       2.62       0.61       1.21       ----

> <Gold.Chemscore.Fitness>
7.9201

> <Gold.Chemscore.DG>
-9.7378

> <Gold.Chemscore.ZeroCoef>
-5.4800

> <Gold.Chemscore.Hbond>
0.9891

> <Gold.Chemscore.Metal>
0.0000

> <Gold.Chemscore.Lipo>
65.5244

> <Gold.Chemscore.Internal_Hbond>
0.0000

> <Gold.Chemscore.DEClash>
0.6051

> <Gold.Chemscore.DEInternal>
1.2126

> <Gold.Chemscore.Rot>
2.6219

> <Gold.Chemscore.Internal.Correction>
   9.000000E+99

> <Gold.Chemscore.Hbonds>
donor molecule, donor type, donor heavy atom, donor atom, acceptor molecule, acceptor atom, score
      L1  H    20    45       P1  7921  0.51

> <Gold.Chemscore.Hbond.Weighted>
-3.3035

> <Gold.Chemscore.Metal.Weighted>
-0.0000

> <Gold.Chemscore.Lipo.Weighted>
-7.6664

> <Gold.Chemscore.Internal_Hbond.Weighted>
0.0000

> <Gold.Chemscore.DEClash.Weighted>
0.6051

> <Gold.Chemscore.DEInternal.Weighted>
1.2126

> <Gold.Chemscore.Rot.Weighted>
6.7121

> <Gold.Chemscore.Internal.Correction.Weighted>
   9.000000E+99

> <Gold.Protein.RotatedTorsions>
[ 6907 6896 6895 6894 ] final  -52.98 input  -60.11 | X-H torsion
[ 7974 7965 7964 7962 ] final  113.31 input  175.53 | X-H torsion
[ 8008 7997 7996 7995 ] final  -65.90 input   59.86 | X-H torsion
[ 10167 10162 10161 10158 ] final -124.98 input  -65.29 | X-H torsion
[ 10718 10713 10712 10709 ] final  178.85 input   66.30 | X-H torsion
[ 10763 10752 10751 10750 ] final  -97.43 input  -60.55 | X-H torsion
[ 11005 11000 10999 10996 ] final  -69.39 input  -57.11 | X-H torsion

> <Gold.Protein.ActiveResidues>
 VAL166  LYS551  ARG553  GLY616  TRP617  ASP618  TYR619  PRO620  LYS621  CYS622 
 ASP623  PHE694  ASN695  SER759  ASP760  ASP761  ALA762  ILE779  LEU786  VAL792 
 PHE793  MET794  SER795  GLU796  ALA797  LYS798  CYS799  TRP800  GLU811  SER814 

> <Gold.Protein.RotatedAtoms>
  150.8468  134.7779  159.6976 H   0  0  0  0  0  0  0  0  0  0  0  0  # atno 6907 bound_to 6896
  152.4543  134.5323  159.9824 H   0  0  0  0  0  0  0  0  0  0  0  0  # atno 6908 bound_to 6896
  151.5452  133.3388  159.2978 H   0  0  0  0  0  0  0  0  0  0  0  0  # atno 6909 bound_to 6896
  145.2185  139.2873  143.4231 H   0  0  0  0  0  0  0  0  0  0  0  0  # atno 7974 bound_to 7965
  154.4701  140.0923  156.7122 H   0  0  0  0  0  0  0  0  0  0  0  0  # atno 8008 bound_to 7997
  155.4749  140.3465  155.4313 H   0  0  0  0  0  0  0  0  0  0  0  0  # atno 8009 bound_to 7997
  156.1024  140.1425  156.9438 H   0  0  0  0  0  0  0  0  0  0  0  0  # atno 8010 bound_to 7997
  139.9870  143.5681  152.2356 H   0  0  0  0  0  0  0  0  0  0  0  0  # atno 10167 bound_to 10162
  156.8844  130.9826  151.3058 H   0  0  0  0  0  0  0  0  0  0  0  0  # atno 10718 bound_to 10713
  154.7328  135.5046  153.8991 H   0  0  0  0  0  0  0  0  0  0  0  0  # atno 10763 bound_to 10752
  153.0966  135.6674  153.9761 H   0  0  0  0  0  0  0  0  0  0  0  0  # atno 10764 bound_to 10752
  153.9558  135.3053  155.3415 H   0  0  0  0  0  0  0  0  0  0  0  0  # atno 10765 bound_to 10752
  141.1553  133.6763  156.6591 H   0  0  0  0  0  0  0  0  0  0  0  0  # atno 11005 bound_to 11000
  146.3381  140.2483  142.8598 LP  0  0  0  0  0  0  0  0  0  0  0  0  # atno 17320 bound_to 7965
  144.9788  140.8439  143.5410 LP  0  0  0  0  0  0  0  0  0  0  0  0  # atno 17321 bound_to 7965
  139.6367  144.7650  151.2422 LP  0  0  0  0  0  0  0  0  0  0  0  0  # atno 17342 bound_to 10162
  140.7468  143.6386  150.8356 LP  0  0  0  0  0  0  0  0  0  0  0  0  # atno 17343 bound_to 10162
  157.6121  130.8591  149.8969 LP  0  0  0  0  0  0  0  0  0  0  0  0  # atno 17370 bound_to 10713
  156.0661  130.3692  150.0876 LP  0  0  0  0  0  0  0  0  0  0  0  0  # atno 17371 bound_to 10713
  140.3261  134.7968  157.4290 LP  0  0  0  0  0  0  0  0  0  0  0  0  # atno 17394 bound_to 11000
  140.1056  134.5414  155.8312 LP  0  0  0  0  0  0  0  0  0  0  0  0  # atno 17395 bound_to 11000

$$$$
