AV-unprocessed.smi:3025|AV-procd|sdf|11506|dock8
  -GOLD-   2272016443D 1   1.00000     0.00000
 Structure written by MMmdl.
 42 43  0  0  0  0  0  0  0  0  2 V2000
  149.7824  124.9602  150.6562 C   0  0  0  0  0  0  0  0  0  0  0  0
  148.5578  125.8476  150.9035 C   0  0  0  0  0  0  0  0  0  0  0  0
  148.8288  126.9466  151.9450 C   0  0  0  0  0  0  0  0  0  0  0  0
  147.5992  127.8151  152.2830 C   0  0  2  0  0  0  0  0  0  0  0  0
  146.7849  128.2059  151.0307 C   0  0  0  0  0  0  0  0  0  0  0  0
  145.5780  129.0913  151.3865 C   0  0  0  0  0  0  0  0  0  0  0  0
  145.9871  130.3567  152.1698 C   0  0  2  0  0  0  0  0  0  0  0  0
  146.7312  131.3257  151.3312 N   0  3  0  0  0  0  0  0  0  0  0  0
  146.6279  132.7394  151.7494 C   0  0  0  0  0  0  0  0  0  0  0  0
  146.1869  133.6276  150.5787 C   0  0  0  0  0  0  0  0  0  0  0  0
  145.6169  134.9304  151.0355 C   0  0  0  0  0  0  0  0  0  0  0  0
  146.3750  135.9100  151.5325 N   0  0  0  0  0  0  0  0  0  0  0  0
  145.5883  136.9524  151.8720 N   0  0  0  0  0  0  0  0  0  0  0  0
  144.3767  136.5067  151.5451 C   0  0  0  0  0  0  0  0  0  0  0  0
  144.3266  135.2459  151.0185 N   0  0  0  0  0  0  0  0  0  0  0  0
  146.8177  129.9713  153.4080 C   0  0  0  0  0  0  0  0  0  0  0  0
  148.0229  129.0835  153.0504 C   0  0  0  0  0  0  0  0  0  0  0  0
  147.3781  135.9157  151.6515 H   0  0  0  0  0  0  0  0  0  0  0  0
  149.5636  124.1959  149.9101 H   0  0  0  0  0  0  0  0  0  0  0  0
  150.0929  124.4527  151.5697 H   0  0  0  0  0  0  0  0  0  0  0  0
  150.6270  125.5465  150.2935 H   0  0  0  0  0  0  0  0  0  0  0  0
  148.2532  126.2923  149.9566 H   0  0  0  0  0  0  0  0  0  0  0  0
  147.7266  125.2244  151.2352 H   0  0  0  0  0  0  0  0  0  0  0  0
  149.1815  126.4673  152.8592 H   0  0  0  0  0  0  0  0  0  0  0  0
  149.6475  127.5821  151.6045 H   0  0  0  0  0  0  0  0  0  0  0  0
  146.9517  127.2345  152.9419 H   0  0  0  0  0  0  0  0  0  0  0  0
  147.4261  128.7258  150.3178 H   0  0  0  0  0  0  0  0  0  0  0  0
  146.4222  127.3140  150.5206 H   0  0  0  0  0  0  0  0  0  0  0  0
  145.0217  129.3467  150.4850 H   0  0  0  0  0  0  0  0  0  0  0  0
  144.8884  128.5083  151.9986 H   0  0  0  0  0  0  0  0  0  0  0  0
  145.0845  130.8581  152.5222 H   0  0  0  0  0  0  0  0  0  0  0  0
  147.7081  131.0721  151.3705 H   0  0  0  0  0  0  0  0  0  0  0  0
  145.9125  132.8307  152.5667 H   0  0  0  0  0  0  0  0  0  0  0  0
  147.5944  133.0789  152.1245 H   0  0  0  0  0  0  0  0  0  0  0  0
  147.0316  133.8233  149.9166 H   0  0  0  0  0  0  0  0  0  0  0  0
  145.4342  133.1135  149.9792 H   0  0  0  0  0  0  0  0  0  0  0  0
  143.4940  137.1115  151.6925 H   0  0  0  0  0  0  0  0  0  0  0  0
  147.1553  130.8668  153.9311 H   0  0  0  0  0  0  0  0  0  0  0  0
  146.1804  129.4345  154.1121 H   0  0  0  0  0  0  0  0  0  0  0  0
  148.5465  128.8055  153.9661 H   0  0  0  0  0  0  0  0  0  0  0  0
  148.7362  129.6542  152.4543 H   0  0  0  0  0  0  0  0  0  0  0  0
  146.4172  131.2372  150.3752 H   0  0  0  0  0  0  0  0  0  0  0  0
  1  2  1  0  0  0  0
  1 19  1  0  0  0  0
  1 20  1  0  0  0  0
  1 21  1  0  0  0  0
  2  3  1  0  0  0  0
  2 22  1  0  0  0  0
  2 23  1  0  0  0  0
  3  4  1  0  0  0  0
  3 24  1  0  0  0  0
  3 25  1  0  0  0  0
  4 17  1  0  0  0  0
  4  5  1  0  0  0  0
  4 26  1  0  0  0  0
  5  6  1  0  0  0  0
  5 27  1  0  0  0  0
  5 28  1  0  0  0  0
  6  7  1  0  0  0  0
  6 29  1  0  0  0  0
  6 30  1  0  0  0  0
  7  8  1  0  0  0  0
  7 16  1  0  0  0  0
  7 31  1  0  0  0  0
  8  9  1  0  0  0  0
  8 32  1  0  0  0  0
  8 42  1  0  0  0  0
  9 10  1  0  0  0  0
  9 33  1  0  0  0  0
  9 34  1  0  0  0  0
 10 35  1  0  0  0  0
 10 36  1  0  0  0  0
 10 11  1  0  0  0  0
 11 15  2  0  0  0  0
 11 12  1  0  0  0  0
 12 18  1  0  0  0  0
 12 13  1  0  0  0  0
 13 14  2  0  0  0  0
 14 15  1  0  0  0  0
 14 37  1  0  0  0  0
 16 17  1  0  0  0  0
 16 38  1  0  0  0  0
 16 39  1  0  0  0  0
 17 40  1  0  0  0  0
 17 41  1  0  0  0  0
M  CHG  1   8   1
M  END
> <s_m_source_file>
AV-unprocessed.smi

> <i_m_source_file_index>
3025

> <i_lp_mmshare_version>
43012

> <i_f3d_flags>
0

> <s_epik_input>
W0NIM11bQ0gyXVtDSDJdW0NAQEhdMVtDSDJdW0NIMl1bQ0BIXShbQ0gyXVtDSDJdMSlbTkhdW0NIMl1bQ0gyXWMybm5bY0hdW25IXTI=

> <s_epik_cmdline>
J2VwaWtfcHl0aG9uJywgJy1waCcsICc3LjAnLCAnLXRuJywgJzgnLCAnLW1hJywgJzIwMCcsICctbWV0YWxfYmluZGluZycsICctaW1hZScsICc8aW5maWxlLm1hZT4nLCAnLW9tYWUnLCAnPG91dGZpbGUubWFlPic=

> <r_lp_tautomer_probability>
0.948284

> <r_epik_Ionization_Penalty>
0.0093758

> <r_epik_Ionization_Penalty_Charging>
0.000546397

> <r_epik_Ionization_Penalty_Neutral>
0.00882941

> <r_epik_State_Penalty>
0.401098

> <r_epik_Charging_Adjusted_Penalty>
0.401645

> <i_epik_Tot_Q>
1

> <i_epik_Tot_abs_Q>
1

> <r_epik_Metal_State_Penalty>
0.634803

> <b_epik_Metal_Only>
0

> <s_lp_Force_Field>
OPLS_2005

> <r_lp_Energy>
16.9982

> <b_lp_Chiralities_Consistent>
1

> <s_lp_Variant>
AV-unprocessed.smi:3025-2

> <Gold.Version>
5.8.1

> <Gold.Id.Protein>
6NUR|6NUR_protein|mol2

> <Gold.PLP.Fitness>
38.4771

> <Gold.PLP.PLP>
-34.4344

> <Gold.PLP.part.hbond>
-1.9555

> <Gold.PLP.part.metal>
0.0000

> <Gold.PLP.part.buried>
-4.9122

> <Gold.PLP.part.nonpolar>
-28.1259

> <Gold.PLP.part.repulsive>
0.4363

> <Gold.PLP.ligand.clash>
0.0000

> <Gold.PLP.ligand.torsion>
1.0145

> <Gold.PLP.Chemscore.Hbond>
2.0000

> <Gold.PLP.Chemscore.CHOScore>
0.0000

> <Gold.PLP.Chemscore.Metal>
0.0000

> <Gold.Chemscore.Hbonds>
donor molecule, donor type, donor heavy atom, donor atom, acceptor molecule, acceptor atom, score
      L1  H     8    32       P1 10747  0.75
      L1  H    12    18       P1  7948  1.00
      L1  C    14    37       P1 10171  0.34

> <Gold.PLP.Chemscore.Internal.Correction>
0.0718

> <Gold.Rescore>
     Score         DG    S(hbond)    S(metal)    S(lipo)     H(rot)  DE(clash)    DE(int)     intcor
     14.13     -15.17       1.99        0.00      82.11       2.56       0.10       0.94       ----

> <Gold.Chemscore.Fitness>
14.1341

> <Gold.Chemscore.DG>
-15.1731

> <Gold.Chemscore.ZeroCoef>
-5.4800

> <Gold.Chemscore.Hbond>
1.9883

> <Gold.Chemscore.Metal>
0.0000

> <Gold.Chemscore.Lipo>
82.1069

> <Gold.Chemscore.Internal_Hbond>
0.0000

> <Gold.Chemscore.DEClash>
0.0960

> <Gold.Chemscore.DEInternal>
0.9431

> <Gold.Chemscore.Rot>
2.5602

> <Gold.Chemscore.Internal.Correction>
   9.000000E+99

> <Gold.Chemscore.Hbonds>
donor molecule, donor type, donor heavy atom, donor atom, acceptor molecule, acceptor atom, score
      L1  H     8    32       P1 10747  0.76
      L1  H    12    18       P1  7948  0.98

> <Gold.Chemscore.Hbond.Weighted>
-6.6408

> <Gold.Chemscore.Metal.Weighted>
-0.0000

> <Gold.Chemscore.Lipo.Weighted>
-9.6065

> <Gold.Chemscore.Internal_Hbond.Weighted>
0.0000

> <Gold.Chemscore.DEClash.Weighted>
0.0960

> <Gold.Chemscore.DEInternal.Weighted>
0.9431

> <Gold.Chemscore.Rot.Weighted>
6.5542

> <Gold.Chemscore.Internal.Correction.Weighted>
   9.000000E+99

> <Gold.Protein.RotatedTorsions>
[ 6907 6896 6895 6894 ] final  -48.35 input  -60.11 | X-H torsion
[ 7974 7965 7964 7962 ] final  -27.52 input  175.53 | X-H torsion
[ 8008 7997 7996 7995 ] final -167.36 input   59.86 | X-H torsion
[ 10167 10162 10161 10158 ] final   44.22 input  -65.29 | X-H torsion
[ 10718 10713 10712 10709 ] final   22.15 input   66.30 | X-H torsion
[ 10763 10752 10751 10750 ] final   40.82 input  -60.55 | X-H torsion
[ 11005 11000 10999 10996 ] final  163.06 input  -57.11 | X-H torsion

> <Gold.Protein.ActiveResidues>
 VAL166  LYS551  ARG553  GLY616  TRP617  ASP618  TYR619  PRO620  LYS621  CYS622 
 ASP623  PHE694  ASN695  SER759  ASP760  ASP761  ALA762  ILE779  LEU786  VAL792 
 PHE793  MET794  SER795  GLU796  ALA797  LYS798  CYS799  TRP800  GLU811  SER814 

> <Gold.Protein.RotatedAtoms>
  150.8914  134.8318  159.7295 H   0  0  0  0  0  0  0  0  0  0  0  0  # atno 6907 bound_to 6896
  152.4839  134.4642  159.9625 H   0  0  0  0  0  0  0  0  0  0  0  0  # atno 6908 bound_to 6896
  151.4705  133.3531  159.2858 H   0  0  0  0  0  0  0  0  0  0  0  0  # atno 6909 bound_to 6896
  146.1352  140.5163  142.8676 H   0  0  0  0  0  0  0  0  0  0  0  0  # atno 7974 bound_to 7965
  155.8767  140.1002  157.1513 H   0  0  0  0  0  0  0  0  0  0  0  0  # atno 8008 bound_to 7997
  154.4001  140.1337  156.4208 H   0  0  0  0  0  0  0  0  0  0  0  0  # atno 8009 bound_to 7997
  155.7689  140.3461  155.5239 H   0  0  0  0  0  0  0  0  0  0  0  0  # atno 8010 bound_to 7997
  140.3365  144.2524  150.6161 H   0  0  0  0  0  0  0  0  0  0  0  0  # atno 10167 bound_to 10162
  157.1484  130.6663  149.6003 H   0  0  0  0  0  0  0  0  0  0  0  0  # atno 10718 bound_to 10713
  152.9925  135.6180  154.2688 H   0  0  0  0  0  0  0  0  0  0  0  0  # atno 10763 bound_to 10752
  154.2422  135.2788  155.2851 H   0  0  0  0  0  0  0  0  0  0  0  0  # atno 10764 bound_to 10752
  154.5360  135.5774  153.6856 H   0  0  0  0  0  0  0  0  0  0  0  0  # atno 10765 bound_to 10752
  140.2320  134.8116  157.3327 H   0  0  0  0  0  0  0  0  0  0  0  0  # atno 11005 bound_to 11000
  144.7732  140.5683  143.6656 LP  0  0  0  0  0  0  0  0  0  0  0  0  # atno 17320 bound_to 7965
  145.5172  139.1477  143.3572 LP  0  0  0  0  0  0  0  0  0  0  0  0  # atno 17321 bound_to 7965
  140.5349  143.2235  151.8179 LP  0  0  0  0  0  0  0  0  0  0  0  0  # atno 17342 bound_to 10162
  139.4847  144.4674  151.9467 LP  0  0  0  0  0  0  0  0  0  0  0  0  # atno 17343 bound_to 10162
  155.9775  130.4753  150.6598 LP  0  0  0  0  0  0  0  0  0  0  0  0  # atno 17370 bound_to 10713
  157.4243  131.0841  151.1100 LP  0  0  0  0  0  0  0  0  0  0  0  0  # atno 17371 bound_to 10713
  140.1740  134.4572  155.7813 LP  0  0  0  0  0  0  0  0  0  0  0  0  # atno 17394 bound_to 11000
  141.2217  133.6954  156.7756 LP  0  0  0  0  0  0  0  0  0  0  0  0  # atno 17395 bound_to 11000

$$$$
