AV-unprocessed.smi:798|AV-procd|sdf|3773|dock2
  -GOLD-   22720 1203D 1   1.00000     0.00000
 Structure written by MMmdl.
 34 36  0  0  0  0  0  0  0  0  1 V2000
  145.0543  136.8746  155.3479 O   0  0  0  0  0  0  0  0  0  0  0  0
  144.6265  137.8105  154.6720 C   0  0  0  0  0  0  0  0  0  0  0  0
  143.3483  137.9733  154.2882 N   0  0  0  0  0  0  0  0  0  0  0  0
  142.2350  137.1333  154.5559 C   0  0  0  0  0  0  0  0  0  0  0  0
  142.3282  135.9503  155.1833 N   0  0  0  0  0  0  0  0  0  0  0  0
  141.0910  135.3330  155.3150 N   0  0  0  0  0  0  0  0  0  0  0  0
  140.1148  136.0734  154.7823 C   0  0  0  0  0  0  0  0  0  0  0  0
  140.6114  137.5976  154.0675 S   0  0  0  0  0  0  0  0  0  0  0  0
  145.3992  138.8058  154.2138 N   0  0  0  0  0  0  0  0  0  0  0  0
  146.8378  138.9403  154.4520 C   0  0  2  0  0  0  0  0  0  0  0  0
  147.1752  140.1587  155.3472 C   0  0  2  0  0  0  0  0  0  0  0  0
  146.5051  141.4470  154.8226 C   0  0  0  0  0  0  0  0  0  0  0  0
  147.2919  141.7324  153.5311 C   0  0  0  0  0  0  0  0  0  0  0  0
  148.3300  140.5909  153.4997 C   0  0  1  0  0  0  0  0  0  0  0  0
  148.6326  140.4249  154.9841 C   0  0  0  0  0  0  0  0  0  0  0  0
  147.6816  139.2226  153.1743 C   0  0  2  0  0  0  0  0  0  0  0  0
  146.9662  139.1218  151.8078 C   0  0  0  0  0  0  0  0  0  0  0  0
  147.1849  137.8521  151.2308 O   0  0  0  0  0  0  0  0  0  0  0  0
  143.1480  138.7933  153.7351 H   0  0  0  0  0  0  0  0  0  0  0  0
  139.0949  135.7194  154.8103 H   0  0  0  0  0  0  0  0  0  0  0  0
  144.9641  139.5310  153.6627 H   0  0  0  0  0  0  0  0  0  0  0  0
  147.2145  138.0383  154.9385 H   0  0  0  0  0  0  0  0  0  0  0  0
  146.9964  139.9798  156.4078 H   0  0  0  0  0  0  0  0  0  0  0  0
  145.4336  141.3486  154.6498 H   0  0  0  0  0  0  0  0  0  0  0  0
  146.6421  142.2623  155.5341 H   0  0  0  0  0  0  0  0  0  0  0  0
  146.6557  141.7625  152.6478 H   0  0  0  0  0  0  0  0  0  0  0  0
  147.7914  142.6996  153.6010 H   0  0  0  0  0  0  0  0  0  0  0  0
  149.2024  140.8146  152.8848 H   0  0  0  0  0  0  0  0  0  0  0  0
  149.0390  141.3256  155.4481 H   0  0  0  0  0  0  0  0  0  0  0  0
  149.2940  139.5845  155.2025 H   0  0  0  0  0  0  0  0  0  0  0  0
  148.4847  138.4832  153.1551 H   0  0  0  0  0  0  0  0  0  0  0  0
  145.8913  139.2483  151.9391 H   0  0  0  0  0  0  0  0  0  0  0  0
  147.2920  139.8942  151.1122 H   0  0  0  0  0  0  0  0  0  0  0  0
  147.7957  137.3768  151.7733 H   0  0  0  0  0  0  0  0  0  0  0  0
  1  2  2  0  0  0  0
  2  3  1  0  0  0  0
  2  9  1  0  0  0  0
  3  4  1  0  0  0  0
  3 19  1  0  0  0  0
  4  8  1  0  0  0  0
  4  5  2  0  0  0  0
  5  6  1  0  0  0  0
  6  7  2  0  0  0  0
  7  8  1  0  0  0  0
  7 20  1  0  0  0  0
  9 10  1  0  0  0  0
  9 21  1  0  0  0  0
 10 16  1  0  0  0  0
 10 11  1  0  0  0  0
 10 22  1  0  0  0  0
 11 15  1  0  0  0  0
 11 12  1  0  0  0  0
 11 23  1  0  0  0  0
 12 13  1  0  0  0  0
 12 24  1  0  0  0  0
 12 25  1  0  0  0  0
 13 14  1  0  0  0  0
 13 26  1  0  0  0  0
 13 27  1  0  0  0  0
 14 15  1  0  0  0  0
 14 16  1  0  0  0  0
 14 28  1  0  0  0  0
 15 29  1  0  0  0  0
 15 30  1  0  0  0  0
 16 17  1  0  0  0  0
 16 31  1  0  0  0  0
 17 18  1  0  0  0  0
 17 32  1  0  0  0  0
 17 33  1  0  0  0  0
 18 34  1  0  0  0  0
M  END
> <s_m_source_file>
AV-unprocessed.smi

> <i_m_source_file_index>
798

> <i_lp_mmshare_version>
43012

> <i_f3d_flags>
0

> <s_epik_input>
W0NIMl0xW0NIMl1bQ0BASF0oW0NIMl0yKVtDQEBIXShbQ0gyXVtPSF0pW0NAQEhdKFtDQEhdMTIpW05IXUMoPU8pW05IXWMzbm5bY0hdczM=

> <s_epik_cmdline>
J2VwaWtfcHl0aG9uJywgJy1waCcsICc3LjAnLCAnLXRuJywgJzgnLCAnLW1hJywgJzIwMCcsICctbWV0YWxfYmluZGluZycsICctaW1hZScsICc8aW5maWxlLm1hZT4nLCAnLW9tYWUnLCAnPG91dGZpbGUubWFlPic=

> <r_lp_tautomer_probability>
1

> <r_epik_Ionization_Penalty>
0.000329046

> <r_epik_Ionization_Penalty_Charging>
0

> <r_epik_Ionization_Penalty_Neutral>
0.000329046

> <r_epik_State_Penalty>
-0

> <r_epik_Charging_Adjusted_Penalty>
0

> <i_epik_Tot_Q>
0

> <i_epik_Tot_abs_Q>
0

> <r_epik_Metal_State_Penalty>
0.173433

> <b_epik_Metal_Only>
0

> <s_lp_Force_Field>
OPLS_2005

> <r_lp_Energy>
50.5105

> <b_lp_Chiralities_Consistent>
1

> <s_lp_Variant>
AV-unprocessed.smi:798-5

> <Gold.Version>
5.8.1

> <Gold.Id.Protein>
6NUR|6NUR_protein|mol2

> <Gold.PLP.Fitness>
42.1308

> <Gold.PLP.PLP>
-29.1003

> <Gold.PLP.part.hbond>
-5.5085

> <Gold.PLP.part.metal>
0.0000

> <Gold.PLP.part.buried>
-2.4522

> <Gold.PLP.part.nonpolar>
-20.2641

> <Gold.PLP.part.repulsive>
0.1830

> <Gold.PLP.ligand.clash>
0.0000

> <Gold.PLP.ligand.torsion>
0.6051

> <Gold.PLP.Chemscore.Hbond>
4.7440

> <Gold.PLP.Chemscore.CHOScore>
0.0000

> <Gold.PLP.Chemscore.Metal>
0.0000

> <Gold.Chemscore.Hbonds>
donor molecule, donor type, donor heavy atom, donor atom, acceptor molecule, acceptor atom, score
      L1  H     3    19       P1 10175  0.76
      L1  H     9    21       P1 10175  1.00
      L1  H    18    34       P1  7948  0.91
      P1  H  7954  7966       L1    18  0.75
      P1  H 11000 11005       L1     6  0.05

> <Gold.PLP.Chemscore.Internal.Correction>
0.0087

> <Gold.Rescore>
     Score         DG    S(hbond)    S(metal)    S(lipo)     H(rot)  DE(clash)    DE(int)     intcor
     17.81     -19.71       3.69        0.00      58.75       1.94       0.10       1.80       ----

> <Gold.Chemscore.Fitness>
17.8054

> <Gold.Chemscore.DG>
-19.7100

> <Gold.Chemscore.ZeroCoef>
-5.4800

> <Gold.Chemscore.Hbond>
3.6928

> <Gold.Chemscore.Metal>
0.0000

> <Gold.Chemscore.Lipo>
58.7460

> <Gold.Chemscore.Internal_Hbond>
0.0000

> <Gold.Chemscore.DEClash>
0.1036

> <Gold.Chemscore.DEInternal>
1.8010

> <Gold.Chemscore.Rot>
1.9442

> <Gold.Chemscore.Internal.Correction>
   9.000000E+99

> <Gold.Chemscore.Hbonds>
donor molecule, donor type, donor heavy atom, donor atom, acceptor molecule, acceptor atom, score
      L1  H     3    19       P1 10175  0.74
      L1  H     9    21       P1 10175  0.97
      L1  H    18    34       P1  7948  0.88
      P1  H  7954  7966       L1    18  0.08

> <Gold.Chemscore.Hbond.Weighted>
-12.3338

> <Gold.Chemscore.Metal.Weighted>
-0.0000

> <Gold.Chemscore.Lipo.Weighted>
-6.8733

> <Gold.Chemscore.Internal_Hbond.Weighted>
0.0000

> <Gold.Chemscore.DEClash.Weighted>
0.1036

> <Gold.Chemscore.DEInternal.Weighted>
1.8010

> <Gold.Chemscore.Rot.Weighted>
4.9771

> <Gold.Chemscore.Internal.Correction.Weighted>
   9.000000E+99

> <Gold.Protein.RotatedTorsions>
[ 6907 6896 6895 6894 ] final   88.84 input  -60.11 | X-H torsion
[ 7974 7965 7964 7962 ] final  119.09 input  175.53 | X-H torsion
[ 8008 7997 7996 7995 ] final  -53.28 input   59.86 | X-H torsion
[ 10167 10162 10161 10158 ] final -104.92 input  -65.29 | X-H torsion
[ 10718 10713 10712 10709 ] final  -18.45 input   66.30 | X-H torsion
[ 10763 10752 10751 10750 ] final  -28.69 input  -60.55 | X-H torsion
[ 11005 11000 10999 10996 ] final   56.31 input  -57.11 | X-H torsion

> <Gold.Protein.ActiveResidues>
 VAL166  LYS551  ARG553  GLY616  TRP617  ASP618  TYR619  PRO620  LYS621  CYS622 
 ASP623  PHE694  ASN695  SER759  ASP760  ASP761  ALA762  ILE779  LEU786  VAL792 
 PHE793  MET794  SER795  GLU796  ALA797  LYS798  CYS799  TRP800  GLU811  SER814 

> <Gold.Protein.RotatedAtoms>
  152.5430  134.2059  159.8730 H   0  0  0  0  0  0  0  0  0  0  0  0  # atno 6907 bound_to 6896
  151.2044  133.4585  159.2604 H   0  0  0  0  0  0  0  0  0  0  0  0  # atno 6908 bound_to 6896
  151.0957  134.9955  159.8480 H   0  0  0  0  0  0  0  0  0  0  0  0  # atno 6909 bound_to 6896
  145.1473  139.3232  143.4585 H   0  0  0  0  0  0  0  0  0  0  0  0  # atno 7974 bound_to 7965
  154.4129  140.1203  156.5129 H   0  0  0  0  0  0  0  0  0  0  0  0  # atno 8008 bound_to 7997
  155.6781  140.3496  155.4825 H   0  0  0  0  0  0  0  0  0  0  0  0  # atno 8009 bound_to 7997
  155.9575  140.1116  157.0914 H   0  0  0  0  0  0  0  0  0  0  0  0  # atno 8010 bound_to 7997
  140.2041  143.3796  152.1105 H   0  0  0  0  0  0  0  0  0  0  0  0  # atno 10167 bound_to 10162
  156.5594  130.4721  149.6414 H   0  0  0  0  0  0  0  0  0  0  0  0  # atno 10718 bound_to 10713
  153.7525  135.6925  153.4942 H   0  0  0  0  0  0  0  0  0  0  0  0  # atno 10763 bound_to 10752
  153.1994  135.4442  155.0246 H   0  0  0  0  0  0  0  0  0  0  0  0  # atno 10764 bound_to 10752
  154.8182  135.3409  154.7045 H   0  0  0  0  0  0  0  0  0  0  0  0  # atno 10765 bound_to 10752
  140.0539  134.5698  155.9231 H   0  0  0  0  0  0  0  0  0  0  0  0  # atno 11005 bound_to 11000
  146.3498  140.1533  142.8592 LP  0  0  0  0  0  0  0  0  0  0  0  0  # atno 17320 bound_to 7965
  145.0468  140.8988  143.5019 LP  0  0  0  0  0  0  0  0  0  0  0  0  # atno 17321 bound_to 7965
  139.5205  144.7034  151.5426 LP  0  0  0  0  0  0  0  0  0  0  0  0  # atno 17342 bound_to 10162
  140.6369  143.8965  150.6656 LP  0  0  0  0  0  0  0  0  0  0  0  0  # atno 17343 bound_to 10162
  156.2813  130.7072  151.1897 LP  0  0  0  0  0  0  0  0  0  0  0  0  # atno 17370 bound_to 10713
  157.7371  131.0555  150.5371 LP  0  0  0  0  0  0  0  0  0  0  0  0  # atno 17371 bound_to 10713
  141.1943  133.6582  156.5588 LP  0  0  0  0  0  0  0  0  0  0  0  0  # atno 17394 bound_to 11000
  140.3875  134.7469  157.4700 LP  0  0  0  0  0  0  0  0  0  0  0  0  # atno 17395 bound_to 11000

$$$$
