AV-unprocessed.smi:2190|AV-procd|sdf|8888|dock6
  -GOLD-   2272012 93D 1   1.00000     0.00000
 Structure written by MMmdl.
 46 48  0  0  0  0  0  0  0  0  1 V2000
  151.5359  145.3800  159.8014 C   0  0  0  0  0  0  0  0  0  0  0  0
  151.9455  143.9250  159.7011 C   0  0  0  0  0  0  0  0  0  0  0  0
  152.6172  143.2998  160.7690 C   0  0  0  0  0  0  0  0  0  0  0  0
  152.9922  141.9481  160.6676 C   0  0  0  0  0  0  0  0  0  0  0  0
  152.6982  141.2136  159.5001 C   0  0  0  0  0  0  0  0  0  0  0  0
  153.1089  139.7560  159.4086 C   0  0  0  0  0  0  0  0  0  0  0  0
  152.0233  141.8287  158.4200 C   0  0  0  0  0  0  0  0  0  0  0  0
  151.7645  141.0534  157.3080 O   0  0  0  0  0  0  0  0  0  0  0  0
  150.8498  141.5425  156.3362 C   0  0  0  0  0  0  0  0  0  0  0  0
  150.4334  140.3840  155.4159 C   0  0  2  0  0  0  0  0  0  0  0  0
  151.5715  139.9470  154.6989 O   0  0  0  0  0  0  0  0  0  0  0  0
  149.3390  140.8124  154.4165 C   0  0  0  0  0  0  0  0  0  0  0  0
  147.9904  140.5391  154.8971 N   0  0  0  0  0  0  0  0  0  0  0  0
  146.9943  139.8762  154.2566 C   0  0  0  0  0  0  0  0  0  0  0  0
  147.1935  139.3055  152.8806 C   0  0  0  0  0  0  0  0  0  0  0  0
  148.2300  138.3479  152.7992 O   0  0  0  0  0  0  0  0  0  0  0  0
  145.8491  139.7629  154.9338 N   0  0  0  0  0  0  0  0  0  0  0  0
  146.1288  140.4104  156.1207 C   0  0  0  0  0  0  0  0  0  0  0  0
  145.3204  140.6311  157.2587 C   0  0  0  0  0  0  0  0  0  0  0  0
  145.8313  141.3284  158.3730 C   0  0  0  0  0  0  0  0  0  0  0  0
  147.1552  141.8132  158.3655 C   0  0  0  0  0  0  0  0  0  0  0  0
  147.9777  141.6035  157.2418 C   0  0  0  0  0  0  0  0  0  0  0  0
  147.4625  140.9073  156.1316 C   0  0  0  0  0  0  0  0  0  0  0  0
  151.6498  143.1925  158.5339 C   0  0  0  0  0  0  0  0  0  0  0  0
  151.9672  145.8547  160.6832 H   0  0  0  0  0  0  0  0  0  0  0  0
  150.4506  145.4620  159.8650 H   0  0  0  0  0  0  0  0  0  0  0  0
  151.8714  145.9306  158.9222 H   0  0  0  0  0  0  0  0  0  0  0  0
  152.8471  143.8520  161.6686 H   0  0  0  0  0  0  0  0  0  0  0  0
  153.5072  141.4772  161.4921 H   0  0  0  0  0  0  0  0  0  0  0  0
  153.7608  139.5984  158.5489 H   0  0  0  0  0  0  0  0  0  0  0  0
  152.2287  139.1229  159.2932 H   0  0  0  0  0  0  0  0  0  0  0  0
  153.6435  139.4337  160.3026 H   0  0  0  0  0  0  0  0  0  0  0  0
  149.9690  141.9217  156.8570 H   0  0  0  0  0  0  0  0  0  0  0  0
  151.2756  142.3642  155.7573 H   0  0  0  0  0  0  0  0  0  0  0  0
  150.0638  139.5558  156.0206 H   0  0  0  0  0  0  0  0  0  0  0  0
  151.8916  139.1523  155.0974 H   0  0  0  0  0  0  0  0  0  0  0  0
  149.4220  141.8771  154.1971 H   0  0  0  0  0  0  0  0  0  0  0  0
  149.4778  140.3001  153.4634 H   0  0  0  0  0  0  0  0  0  0  0  0
  146.2693  138.8360  152.5455 H   0  0  0  0  0  0  0  0  0  0  0  0
  147.4184  140.1173  152.1885 H   0  0  0  0  0  0  0  0  0  0  0  0
  148.8880  138.6669  152.2011 H   0  0  0  0  0  0  0  0  0  0  0  0
  144.3052  140.2631  157.2735 H   0  0  0  0  0  0  0  0  0  0  0  0
  145.2043  141.4923  159.2370 H   0  0  0  0  0  0  0  0  0  0  0  0
  147.5388  142.3468  159.2228 H   0  0  0  0  0  0  0  0  0  0  0  0
  148.9910  141.9758  157.2332 H   0  0  0  0  0  0  0  0  0  0  0  0
  151.1315  143.7011  157.7354 H   0  0  0  0  0  0  0  0  0  0  0  0
  1  2  1  0  0  0  0
  1 25  1  0  0  0  0
  1 26  1  0  0  0  0
  1 27  1  0  0  0  0
  2 24  1  0  0  0  0
  2  3  2  0  0  0  0
  3  4  1  0  0  0  0
  3 28  1  0  0  0  0
  4  5  2  0  0  0  0
  4 29  1  0  0  0  0
  5  6  1  0  0  0  0
  5  7  1  0  0  0  0
  6 30  1  0  0  0  0
  6 31  1  0  0  0  0
  6 32  1  0  0  0  0
  7  8  1  0  0  0  0
  7 24  2  0  0  0  0
  8  9  1  0  0  0  0
  9 10  1  0  0  0  0
  9 33  1  0  0  0  0
  9 34  1  0  0  0  0
 10 11  1  0  0  0  0
 10 12  1  0  0  0  0
 10 35  1  0  0  0  0
 11 36  1  0  0  0  0
 12 13  1  0  0  0  0
 12 37  1  0  0  0  0
 12 38  1  0  0  0  0
 13 23  1  0  0  0  0
 13 14  1  0  0  0  0
 14 15  1  0  0  0  0
 14 17  2  0  0  0  0
 15 16  1  0  0  0  0
 15 39  1  0  0  0  0
 15 40  1  0  0  0  0
 16 41  1  0  0  0  0
 17 18  1  0  0  0  0
 18 23  2  0  0  0  0
 18 19  1  0  0  0  0
 19 20  2  0  0  0  0
 19 42  1  0  0  0  0
 20 21  1  0  0  0  0
 20 43  1  0  0  0  0
 21 22  2  0  0  0  0
 21 44  1  0  0  0  0
 22 23  1  0  0  0  0
 22 45  1  0  0  0  0
 24 46  1  0  0  0  0
M  END
> <s_m_source_file>
AV-unprocessed.smi

> <i_m_source_file_index>
2190

> <i_lp_mmshare_version>
43012

> <i_f3d_flags>
0

> <s_epik_input>
W0NIM11jMVtjSF1bY0hdYyhbQ0gzXSljKFtjSF0xKU9bQ0gyXVtDQEhdKFtPSF0pW0NIMl1uKGMobjIpW0NIMl1bT0hdKWMoYzIzKVtjSF1bY0hdW2NIXVtjSF0z

> <s_epik_cmdline>
J2VwaWtfcHl0aG9uJywgJy1waCcsICc3LjAnLCAnLXRuJywgJzgnLCAnLW1hJywgJzIwMCcsICctbWV0YWxfYmluZGluZycsICctaW1hZScsICc8aW5maWxlLm1hZT4nLCAnLW9tYWUnLCAnPG91dGZpbGUubWFlPic=

> <r_lp_tautomer_probability>
1

> <r_epik_Ionization_Penalty>
0.0555874

> <r_epik_Ionization_Penalty_Charging>
0

> <r_epik_Ionization_Penalty_Neutral>
0.0555874

> <r_epik_State_Penalty>
0.0478234

> <r_epik_Charging_Adjusted_Penalty>
0.0478234

> <i_epik_Tot_Q>
0

> <i_epik_Tot_abs_Q>
0

> <r_epik_Metal_State_Penalty>
4.98044e-05

> <b_epik_Metal_Only>
0

> <s_lp_Force_Field>
OPLS_2005

> <r_lp_Energy>
17.5677

> <b_lp_Chiralities_Consistent>
1

> <s_lp_Variant>
AV-unprocessed.smi:2190-1

> <Gold.Version>
5.8.1

> <Gold.Id.Protein>
6NUR|6NUR_protein|mol2

> <Gold.PLP.Fitness>
51.9470

> <Gold.PLP.PLP>
-47.3673

> <Gold.PLP.part.hbond>
-2.9800

> <Gold.PLP.part.metal>
0.0000

> <Gold.PLP.part.buried>
-5.7141

> <Gold.PLP.part.nonpolar>
-39.4297

> <Gold.PLP.part.repulsive>
0.1261

> <Gold.PLP.ligand.clash>
0.0000

> <Gold.PLP.ligand.torsion>
0.7371

> <Gold.PLP.Chemscore.Hbond>
2.0000

> <Gold.PLP.Chemscore.CHOScore>
0.0000

> <Gold.PLP.Chemscore.Metal>
0.0000

> <Gold.Chemscore.Hbonds>
donor molecule, donor type, donor heavy atom, donor atom, acceptor molecule, acceptor atom, score
      L1  H    16    41       P1  7957  1.00
      P1  H  7989  7998       L1    11  0.94

> <Gold.PLP.Chemscore.Internal.Correction>
0.0538

> <Gold.Rescore>
     Score         DG    S(hbond)    S(metal)    S(lipo)     H(rot)  DE(clash)    DE(int)     intcor
     17.54     -18.51       1.92        0.00     121.14       2.96       0.23       0.75       ----

> <Gold.Chemscore.Fitness>
17.5351

> <Gold.Chemscore.DG>
-18.5129

> <Gold.Chemscore.ZeroCoef>
-5.4800

> <Gold.Chemscore.Hbond>
1.9244

> <Gold.Chemscore.Metal>
0.0000

> <Gold.Chemscore.Lipo>
121.1382

> <Gold.Chemscore.Internal_Hbond>
0.0000

> <Gold.Chemscore.DEClash>
0.2261

> <Gold.Chemscore.DEInternal>
0.7517

> <Gold.Chemscore.Rot>
2.9561

> <Gold.Chemscore.Internal.Correction>
   9.000000E+99

> <Gold.Chemscore.Hbonds>
donor molecule, donor type, donor heavy atom, donor atom, acceptor molecule, acceptor atom, score
      L1  H    16    41       P1  7957  0.75
      P1  H  7989  7998       L1    11  0.45

> <Gold.Chemscore.Hbond.Weighted>
-6.4274

> <Gold.Chemscore.Metal.Weighted>
-0.0000

> <Gold.Chemscore.Lipo.Weighted>
-14.1732

> <Gold.Chemscore.Internal_Hbond.Weighted>
0.0000

> <Gold.Chemscore.DEClash.Weighted>
0.2261

> <Gold.Chemscore.DEInternal.Weighted>
0.7517

> <Gold.Chemscore.Rot.Weighted>
7.5677

> <Gold.Chemscore.Internal.Correction.Weighted>
   9.000000E+99

> <Gold.Protein.RotatedTorsions>
[ 6907 6896 6895 6894 ] final   89.26 input  -60.11 | X-H torsion
[ 7974 7965 7964 7962 ] final -178.68 input  175.53 | X-H torsion
[ 8008 7997 7996 7995 ] final   30.15 input   59.86 | X-H torsion
[ 10167 10162 10161 10158 ] final -134.63 input  -65.29 | X-H torsion
[ 10718 10713 10712 10709 ] final -167.04 input   66.30 | X-H torsion
[ 10763 10752 10751 10750 ] final   59.60 input  -60.55 | X-H torsion
[ 11005 11000 10999 10996 ] final    7.45 input  -57.11 | X-H torsion

> <Gold.Protein.ActiveResidues>
 VAL166  LYS551  ARG553  GLY616  TRP617  ASP618  TYR619  PRO620  LYS621  CYS622 
 ASP623  PHE694  ASN695  SER759  ASP760  ASP761  ALA762  ILE779  LEU786  VAL792 
 PHE793  MET794  SER795  GLU796  ALA797  LYS798  CYS799  TRP800  GLU811  SER814 

> <Gold.Protein.RotatedAtoms>
  152.5434  134.1994  159.8705 H   0  0  0  0  0  0  0  0  0  0  0  0  # atno 6907 bound_to 6896
  151.1984  133.4619  159.2603 H   0  0  0  0  0  0  0  0  0  0  0  0  # atno 6908 bound_to 6896
  151.1014  134.9986  159.8506 H   0  0  0  0  0  0  0  0  0  0  0  0  # atno 6909 bound_to 6896
  144.7132  140.0833  143.6424 H   0  0  0  0  0  0  0  0  0  0  0  0  # atno 7974 bound_to 7965
  155.0858  140.3215  155.4588 H   0  0  0  0  0  0  0  0  0  0  0  0  # atno 8008 bound_to 7997
  156.2755  140.2086  156.5932 H   0  0  0  0  0  0  0  0  0  0  0  0  # atno 8009 bound_to 7997
  154.6942  140.0513  157.0381 H   0  0  0  0  0  0  0  0  0  0  0  0  # atno 8010 bound_to 7997
  139.8861  143.6779  152.2620 H   0  0  0  0  0  0  0  0  0  0  0  0  # atno 10167 bound_to 10162
  156.6766  130.9105  151.3051 H   0  0  0  0  0  0  0  0  0  0  0  0  # atno 10718 bound_to 10713
  152.9899  135.5566  154.5739 H   0  0  0  0  0  0  0  0  0  0  0  0  # atno 10763 bound_to 10752
  154.5134  135.2803  155.1325 H   0  0  0  0  0  0  0  0  0  0  0  0  # atno 10764 bound_to 10752
  154.2708  135.6363  153.5362 H   0  0  0  0  0  0  0  0  0  0  0  0  # atno 10765 bound_to 10752
  140.5481  134.0310  155.7927 H   0  0  0  0  0  0  0  0  0  0  0  0  # atno 11005 bound_to 11000
  145.9684  139.2851  143.1114 LP  0  0  0  0  0  0  0  0  0  0  0  0  # atno 17320 bound_to 7965
  145.9144  140.9158  143.0437 LP  0  0  0  0  0  0  0  0  0  0  0  0  # atno 17321 bound_to 7965
  139.7152  144.7613  151.1046 LP  0  0  0  0  0  0  0  0  0  0  0  0  # atno 17342 bound_to 10162
  140.7735  143.5279  150.9458 LP  0  0  0  0  0  0  0  0  0  0  0  0  # atno 17343 bound_to 10162
  157.7058  130.9384  150.0928 LP  0  0  0  0  0  0  0  0  0  0  0  0  # atno 17370 bound_to 10713
  156.1899  130.3654  149.8924 LP  0  0  0  0  0  0  0  0  0  0  0  0  # atno 17371 bound_to 10713
  141.1188  133.9496  157.2770 LP  0  0  0  0  0  0  0  0  0  0  0  0  # atno 17394 bound_to 11000
  139.9469  135.0182  156.8880 LP  0  0  0  0  0  0  0  0  0  0  0  0  # atno 17395 bound_to 11000

$$$$
