AV-unprocessed.smi:79|AV-procd|sdf|779|dock7
  -GOLD-   2262017133D 1   1.00000     0.00000
 Structure written by MMmdl.
 56 59  0  0  0  0  0  0  0  0  2 V2000
  146.8167  133.8097  151.5005 C   0  0  0  0  0  0  0  0  0  0  0  0
  145.3838  134.0710  151.0181 C   0  0  2  0  0  0  0  0  0  0  0  0
  145.1504  133.2507  149.8907 O   0  0  0  0  0  0  0  0  0  0  0  0
  145.1728  135.5489  150.6309 C   0  0  0  0  0  0  0  0  0  0  0  0
  145.9914  136.4838  151.4449 N   0  3  1  0  0  0  0  0  0  0  0  0
  146.0271  137.8651  150.9007 C   0  0  0  0  0  0  0  0  0  0  0  0
  146.9561  138.7579  151.7359 C   0  0  0  0  0  0  0  0  0  0  0  0
  146.5943  138.7198  153.1492 N   0  0  0  0  0  0  0  0  0  0  0  0
  147.3007  139.6273  153.8595 C   0  0  0  0  0  0  0  0  0  0  0  0
  146.6678  140.7776  154.1945 N   0  0  0  0  0  0  0  0  0  0  0  0
  147.3130  141.7128  154.8988 C   0  0  0  0  0  0  0  0  0  0  0  0
  148.5681  141.6977  155.3538 N   0  0  0  0  0  0  0  0  0  0  0  0
  149.2074  140.5421  155.0130 C   0  0  0  0  0  0  0  0  0  0  0  0
  148.6530  139.4615  154.2718 C   0  0  0  0  0  0  0  0  0  0  0  0
  149.6010  138.4579  154.1139 N   0  0  0  0  0  0  0  0  0  0  0  0
  150.6567  138.9199  154.7272 C   0  0  0  0  0  0  0  0  0  0  0  0
  150.5062  140.1616  155.3033 N   0  0  0  0  0  0  0  0  0  0  0  0
  151.5134  140.9102  156.0398 C   0  0  0  0  0  0  0  0  0  0  0  0
  151.2643  140.9607  157.5604 C   0  0  0  0  0  0  0  0  0  0  0  0
  151.8272  139.7026  158.2450 C   0  0  0  0  0  0  0  0  0  0  0  0
  153.2088  139.5477  157.9920 O   0  0  0  0  0  0  0  0  0  0  0  0
  151.6364  142.2784  158.2553 C   0  0  0  0  0  0  0  0  0  0  0  0
  150.3354  142.3911  158.8687 O   0  0  0  0  0  0  0  0  0  0  0  0
  149.8452  141.3524  157.9944 C   0  0  0  0  0  0  0  0  0  0  0  0
  146.5212  137.3735  153.7286 C   0  0  1  0  0  0  0  0  0  0  0  0
  146.0443  137.3794  155.1953 C   0  0  0  0  0  0  0  0  0  0  0  0
  145.5966  136.4788  152.8759 C   0  0  0  0  0  0  0  0  0  0  0  0
  147.0451  134.4021  152.3868 H   0  0  0  0  0  0  0  0  0  0  0  0
  147.5494  134.0641  150.7337 H   0  0  0  0  0  0  0  0  0  0  0  0
  146.9588  132.7603  151.7615 H   0  0  0  0  0  0  0  0  0  0  0  0
  144.6985  133.7711  151.8100 H   0  0  0  0  0  0  0  0  0  0  0  0
  145.3381  133.7431  149.1066 H   0  0  0  0  0  0  0  0  0  0  0  0
  145.4012  135.7033  149.5751 H   0  0  0  0  0  0  0  0  0  0  0  0
  144.1142  135.7870  150.7477 H   0  0  0  0  0  0  0  0  0  0  0  0
  146.3717  137.8640  149.8674 H   0  0  0  0  0  0  0  0  0  0  0  0
  145.0183  138.2809  150.8977 H   0  0  0  0  0  0  0  0  0  0  0  0
  147.9881  138.4254  151.6139 H   0  0  0  0  0  0  0  0  0  0  0  0
  146.9069  139.7839  151.3673 H   0  0  0  0  0  0  0  0  0  0  0  0
  146.7424  142.6002  155.1309 H   0  0  0  0  0  0  0  0  0  0  0  0
  151.5810  138.3626  154.7740 H   0  0  0  0  0  0  0  0  0  0  0  0
  152.4811  140.4534  155.8283 H   0  0  0  0  0  0  0  0  0  0  0  0
  151.5729  141.9161  155.6231 H   0  0  0  0  0  0  0  0  0  0  0  0
  151.6604  139.7192  159.3220 H   0  0  0  0  0  0  0  0  0  0  0  0
  151.3218  138.8092  157.8762 H   0  0  0  0  0  0  0  0  0  0  0  0
  153.4916  138.7247  158.3614 H   0  0  0  0  0  0  0  0  0  0  0  0
  152.4400  142.1849  158.9870 H   0  0  0  0  0  0  0  0  0  0  0  0
  151.8279  143.1064  157.5713 H   0  0  0  0  0  0  0  0  0  0  0  0
  149.2309  141.7579  157.1889 H   0  0  0  0  0  0  0  0  0  0  0  0
  149.3114  140.5688  158.5332 H   0  0  0  0  0  0  0  0  0  0  0  0
  147.5210  136.9384  153.6992 H   0  0  0  0  0  0  0  0  0  0  0  0
  145.9550  136.3634  155.5808 H   0  0  0  0  0  0  0  0  0  0  0  0
  145.0683  137.8565  155.2920 H   0  0  0  0  0  0  0  0  0  0  0  0
  146.7397  137.9062  155.8494 H   0  0  0  0  0  0  0  0  0  0  0  0
  144.5624  136.8174  152.9615 H   0  0  0  0  0  0  0  0  0  0  0  0
  145.6289  135.4580  153.2594 H   0  0  0  0  0  0  0  0  0  0  0  0
  146.9371  136.1311  151.4182 H   0  0  0  0  0  0  0  0  0  0  0  0
  1  2  1  0  0  0  0
  1 28  1  0  0  0  0
  1 29  1  0  0  0  0
  1 30  1  0  0  0  0
  2  3  1  0  0  0  0
  2  4  1  0  0  0  0
  2 31  1  0  0  0  0
  3 32  1  0  0  0  0
  4  5  1  0  0  0  0
  4 33  1  0  0  0  0
  4 34  1  0  0  0  0
  5 27  1  0  0  0  0
  5  6  1  0  0  0  0
  5 56  1  0  0  0  0
  6  7  1  0  0  0  0
  6 35  1  0  0  0  0
  6 36  1  0  0  0  0
  7  8  1  0  0  0  0
  7 37  1  0  0  0  0
  7 38  1  0  0  0  0
  8  9  1  0  0  0  0
  8 25  1  0  0  0  0
  9 14  1  0  0  0  0
  9 10  2  0  0  0  0
 10 11  1  0  0  0  0
 11 12  2  0  0  0  0
 11 39  1  0  0  0  0
 12 13  1  0  0  0  0
 13 17  1  0  0  0  0
 13 14  2  0  0  0  0
 14 15  1  0  0  0  0
 15 16  2  0  0  0  0
 16 17  1  0  0  0  0
 16 40  1  0  0  0  0
 17 18  1  0  0  0  0
 18 19  1  0  0  0  0
 18 41  1  0  0  0  0
 18 42  1  0  0  0  0
 19 24  1  0  0  0  0
 19 20  1  0  0  0  0
 19 22  1  0  0  0  0
 20 21  1  0  0  0  0
 20 43  1  0  0  0  0
 20 44  1  0  0  0  0
 21 45  1  0  0  0  0
 22 23  1  0  0  0  0
 22 46  1  0  0  0  0
 22 47  1  0  0  0  0
 23 24  1  0  0  0  0
 24 48  1  0  0  0  0
 24 49  1  0  0  0  0
 25 26  1  0  0  0  0
 25 27  1  0  0  0  0
 25 50  1  0  0  0  0
 26 51  1  0  0  0  0
 26 52  1  0  0  0  0
 26 53  1  0  0  0  0
 27 54  1  0  0  0  0
 27 55  1  0  0  0  0
M  CHG  1   5   1
M  END
> <s_m_source_file>
AV-unprocessed.smi

> <i_m_source_file_index>
79

> <i_lp_mmshare_version>
43012

> <i_f3d_flags>
0

> <s_epik_input>
W0NIM11bQ0BIXShbT0hdKVtDSDJdTjFbQ0gyXVtDSDJdTihbQ0BASF0oW0NIM10pW0NIMl0xKWMobltjSF1uMiljKGMyMyluW2NIXW4zW0NIMl1DNChbQ0gyXVtPSF0pW0NIMl1PW0NIMl00

> <s_epik_cmdline>
J2VwaWtfcHl0aG9uJywgJy1waCcsICc3LjAnLCAnLXRuJywgJzgnLCAnLW1hJywgJzIwMCcsICctbWV0YWxfYmluZGluZycsICctaW1hZScsICc8aW5maWxlLm1hZT4nLCAnLW9tYWUnLCAnPG91dGZpbGUubWFlPic=

> <r_lp_tautomer_probability>
1

> <r_epik_Ionization_Penalty>
0.00515943

> <r_epik_Ionization_Penalty_Charging>
0.00509693

> <r_epik_Ionization_Penalty_Neutral>
6.25007e-05

> <r_epik_State_Penalty>
-0

> <r_epik_Charging_Adjusted_Penalty>
0.00509693

> <i_epik_Tot_Q>
1

> <i_epik_Tot_abs_Q>
1

> <r_epik_Metal_State_Penalty>
-0

> <b_epik_Metal_Only>
0

> <s_lp_Force_Field>
OPLS_2005

> <r_lp_Energy>
50.7064

> <b_lp_Chiralities_Consistent>
1

> <s_lp_Variant>
AV-unprocessed.smi:79-3

> <Gold.Version>
5.8.1

> <Gold.Id.Protein>
6NUR|6NUR_protein|mol2

> <Gold.PLP.Fitness>
48.4781

> <Gold.PLP.PLP>
-38.6259

> <Gold.PLP.part.hbond>
-3.4591

> <Gold.PLP.part.metal>
0.0000

> <Gold.PLP.part.buried>
0.4443

> <Gold.PLP.part.nonpolar>
-36.4255

> <Gold.PLP.part.repulsive>
1.2500

> <Gold.PLP.ligand.clash>
0.0000

> <Gold.PLP.ligand.torsion>
1.3103

> <Gold.PLP.Chemscore.Hbond>
3.9825

> <Gold.PLP.Chemscore.CHOScore>
0.0000

> <Gold.PLP.Chemscore.Metal>
0.0000

> <Gold.Chemscore.Hbonds>
donor molecule, donor type, donor heavy atom, donor atom, acceptor molecule, acceptor atom, score
      L1  H     3    32       P1  7921  1.00
      L1  H     5    56       P1  7948  2.00
      P1  H  7997  8009       L1    21  1.00

> <Gold.PLP.Chemscore.Internal.Correction>
0.5252

> <Gold.Rescore>
     Score         DG    S(hbond)    S(metal)    S(lipo)     H(rot)  DE(clash)    DE(int)     intcor
      9.91     -14.57       2.68        0.00      82.64       3.72       2.17       2.48       ----

> <Gold.Chemscore.Fitness>
9.9149

> <Gold.Chemscore.DG>
-14.5692

> <Gold.Chemscore.ZeroCoef>
-5.4800

> <Gold.Chemscore.Hbond>
2.6798

> <Gold.Chemscore.Metal>
0.0000

> <Gold.Chemscore.Lipo>
82.6353

> <Gold.Chemscore.Internal_Hbond>
0.0000

> <Gold.Chemscore.DEClash>
2.1717

> <Gold.Chemscore.DEInternal>
2.4826

> <Gold.Chemscore.Rot>
3.7226

> <Gold.Chemscore.Internal.Correction>
   9.000000E+99

> <Gold.Chemscore.Hbonds>
donor molecule, donor type, donor heavy atom, donor atom, acceptor molecule, acceptor atom, score
      L1  H     3    32       P1  7921  0.68
      L1  H     5    56       P1  7948  0.91
      P1  H  7997  8009       L1    21  0.35

> <Gold.Chemscore.Hbond.Weighted>
-8.9506

> <Gold.Chemscore.Metal.Weighted>
-0.0000

> <Gold.Chemscore.Lipo.Weighted>
-9.6683

> <Gold.Chemscore.Internal_Hbond.Weighted>
0.0000

> <Gold.Chemscore.DEClash.Weighted>
2.1717

> <Gold.Chemscore.DEInternal.Weighted>
2.4826

> <Gold.Chemscore.Rot.Weighted>
9.5298

> <Gold.Chemscore.Internal.Correction.Weighted>
   9.000000E+99

> <Gold.Protein.RotatedTorsions>
[ 6907 6896 6895 6894 ] final -153.53 input  -60.11 | X-H torsion
[ 7974 7965 7964 7962 ] final  -42.03 input  175.53 | X-H torsion
[ 8008 7997 7996 7995 ] final  151.41 input   59.86 | X-H torsion
[ 10167 10162 10161 10158 ] final   43.13 input  -65.29 | X-H torsion
[ 10718 10713 10712 10709 ] final  -75.53 input   66.30 | X-H torsion
[ 10763 10752 10751 10750 ] final  -79.73 input  -60.55 | X-H torsion
[ 11005 11000 10999 10996 ] final    2.72 input  -57.11 | X-H torsion

> <Gold.Protein.ActiveResidues>
 VAL166  LYS551  ARG553  GLY616  TRP617  ASP618  TYR619  PRO620  LYS621  CYS622 
 ASP623  PHE694  ASN695  SER759  ASP760  ASP761  ALA762  ILE779  LEU786  VAL792 
 PHE793  MET794  SER795  GLU796  ALA797  LYS798  CYS799  TRP800  GLU811  SER814 

> <Gold.Protein.RotatedAtoms>
  151.2439  133.4385  159.2608 H   0  0  0  0  0  0  0  0  0  0  0  0  # atno 6907 bound_to 6896
  151.0680  134.9780  159.8304 H   0  0  0  0  0  0  0  0  0  0  0  0  # atno 6908 bound_to 6896
  152.5408  134.2386  159.8905 H   0  0  0  0  0  0  0  0  0  0  0  0  # atno 6909 bound_to 6896
  146.0155  140.6913  142.9203 H   0  0  0  0  0  0  0  0  0  0  0  0  # atno 7974 bound_to 7965
  156.2675  140.2048  156.6171 H   0  0  0  0  0  0  0  0  0  0  0  0  # atno 8008 bound_to 7997
  154.6786  140.0542  157.0266 H   0  0  0  0  0  0  0  0  0  0  0  0  # atno 8009 bound_to 7997
  155.1033  140.3208  155.4544 H   0  0  0  0  0  0  0  0  0  0  0  0  # atno 8010 bound_to 7997
  140.3475  144.2392  150.6149 H   0  0  0  0  0  0  0  0  0  0  0  0  # atno 10167 bound_to 10162
  156.0204  130.4443  150.3057 H   0  0  0  0  0  0  0  0  0  0  0  0  # atno 10718 bound_to 10713
  154.5424  135.5685  153.6850 H   0  0  0  0  0  0  0  0  0  0  0  0  # atno 10763 bound_to 10752
  152.9967  135.6231  154.2485 H   0  0  0  0  0  0  0  0  0  0  0  0  # atno 10764 bound_to 10752
  154.2416  135.2862  155.2831 H   0  0  0  0  0  0  0  0  0  0  0  0  # atno 10765 bound_to 10752
  140.6011  133.9835  155.8132 H   0  0  0  0  0  0  0  0  0  0  0  0  # atno 11005 bound_to 11000
  144.6969  140.3474  143.7188 LP  0  0  0  0  0  0  0  0  0  0  0  0  # atno 17320 bound_to 7965
  145.7275  139.1727  143.2449 LP  0  0  0  0  0  0  0  0  0  0  0  0  # atno 17321 bound_to 7965
  140.5251  143.2256  151.8328 LP  0  0  0  0  0  0  0  0  0  0  0  0  # atno 17342 bound_to 10162
  139.4831  144.4790  151.9331 LP  0  0  0  0  0  0  0  0  0  0  0  0  # atno 17343 bound_to 10162
  157.1159  131.0234  151.3029 LP  0  0  0  0  0  0  0  0  0  0  0  0  # atno 17370 bound_to 10713
  157.4667  130.7684  149.7285 LP  0  0  0  0  0  0  0  0  0  0  0  0  # atno 17371 bound_to 10713
  141.0871  133.9973  157.3296 LP  0  0  0  0  0  0  0  0  0  0  0  0  # atno 17394 bound_to 11000
  139.9232  135.0201  156.8140 LP  0  0  0  0  0  0  0  0  0  0  0  0  # atno 17395 bound_to 11000

$$$$
