AV-unprocessed.smi:2698|AV-procd|sdf|10421|dock7
  -GOLD-   2272014463D 1   1.00000     0.00000
 Structure written by MMmdl.
 33 33  0  0  0  0  0  0  0  0  2 V2000
  153.2069  142.3077  161.0497 C   0  0  0  0  0  0  0  0  0  0  0  0
  152.7782  142.3892  159.5721 C   0  0  0  0  0  0  0  0  0  0  0  0
  151.9304  143.6502  159.3410 C   0  0  0  0  0  0  0  0  0  0  0  0
  152.0214  141.1286  159.0862 C   0  0  0  0  0  0  0  0  0  0  0  0
  152.9121  140.0236  158.4996 C   0  0  0  0  0  0  0  0  0  0  0  0
  154.1107  139.9642  158.7729 O   0  0  0  0  0  0  0  0  0  0  0  0
  152.3013  139.1448  157.6896 N   0  0  0  0  0  0  0  0  0  0  0  0
  152.9296  138.0008  157.0338 C   0  0  2  0  0  0  0  0  0  0  0  0
  152.7268  138.0648  155.5043 C   0  0  0  0  0  0  0  0  0  0  0  0
  151.4042  138.6469  155.0691 C   0  0  0  0  0  0  0  0  0  0  0  0
  150.4958  138.1399  154.1618 C   0  0  0  0  0  0  0  0  0  0  0  0
  149.4563  139.0505  154.1034 N   0  0  0  0  0  0  0  0  0  0  0  0
  149.7572  140.0404  154.9450 C   0  0  0  0  0  0  0  0  0  0  0  0
  150.9166  139.8621  155.5642 N   0  0  0  0  0  0  0  0  0  0  0  0
  152.4453  136.7010  157.6879 C   0  0  0  0  0  0  0  0  0  0  0  0
  151.8649  136.7987  158.7921 O   0  0  0  0  0  0  0  0  0  0  0  0
  152.6586  135.6326  157.0742 O   0  5  0  0  0  0  0  0  0  0  0  0
  148.6302  138.9828  153.5267 H   0  0  0  0  0  0  0  0  0  0  0  0
  152.3456  142.1668  161.7033 H   0  0  0  0  0  0  0  0  0  0  0  0
  153.7094  143.2243  161.3603 H   0  0  0  0  0  0  0  0  0  0  0  0
  153.9007  141.4893  161.2355 H   0  0  0  0  0  0  0  0  0  0  0  0
  153.6815  142.4993  158.9699 H   0  0  0  0  0  0  0  0  0  0  0  0
  151.0010  143.6114  159.9103 H   0  0  0  0  0  0  0  0  0  0  0  0
  151.6715  143.7652  158.2881 H   0  0  0  0  0  0  0  0  0  0  0  0
  152.4693  144.5485  159.6436 H   0  0  0  0  0  0  0  0  0  0  0  0
  151.4292  140.7072  159.8991 H   0  0  0  0  0  0  0  0  0  0  0  0
  151.3051  141.4200  158.3162 H   0  0  0  0  0  0  0  0  0  0  0  0
  151.3121  139.2612  157.5229 H   0  0  0  0  0  0  0  0  0  0  0  0
  154.0039  138.0578  157.2220 H   0  0  0  0  0  0  0  0  0  0  0  0
  153.5228  138.6611  155.0563 H   0  0  0  0  0  0  0  0  0  0  0  0
  152.8139  137.0686  155.0695 H   0  0  0  0  0  0  0  0  0  0  0  0
  150.5121  137.2384  153.5670 H   0  0  0  0  0  0  0  0  0  0  0  0
  149.1231  140.8997  155.1056 H   0  0  0  0  0  0  0  0  0  0  0  0
  1  2  1  0  0  0  0
  1 19  1  0  0  0  0
  1 20  1  0  0  0  0
  1 21  1  0  0  0  0
  2  3  1  0  0  0  0
  2  4  1  0  0  0  0
  2 22  1  0  0  0  0
  3 23  1  0  0  0  0
  3 24  1  0  0  0  0
  3 25  1  0  0  0  0
  4  5  1  0  0  0  0
  4 26  1  0  0  0  0
  4 27  1  0  0  0  0
  5  6  2  0  0  0  0
  5  7  1  0  0  0  0
  7  8  1  0  0  0  0
  7 28  1  0  0  0  0
  8  9  1  0  0  0  0
  8 15  1  0  0  0  0
  8 29  1  0  0  0  0
  9 10  1  0  0  0  0
  9 30  1  0  0  0  0
  9 31  1  0  0  0  0
 10 14  1  0  0  0  0
 10 11  2  0  0  0  0
 11 12  1  0  0  0  0
 11 32  1  0  0  0  0
 12 18  1  0  0  0  0
 12 13  1  0  0  0  0
 13 14  2  0  0  0  0
 13 33  1  0  0  0  0
 15 16  2  0  0  0  0
 15 17  1  0  0  0  0
M  CHG  1  17  -1
M  END
> <s_m_source_file>
AV-unprocessed.smi

> <i_m_source_file_index>
2698

> <i_lp_mmshare_version>
43012

> <i_f3d_flags>
0

> <s_epik_input>
W0NIM11bQ0hdKFtDSDNdKVtDSDJdQyg9TylbTkhdW0NAQEhdKEMoPU8pW09IXSlbQ0gyXWMxW2NIXVtuSF1bY0hdbjE=

> <s_epik_cmdline>
J2VwaWtfcHl0aG9uJywgJy1waCcsICc3LjAnLCAnLXRuJywgJzgnLCAnLW1hJywgJzIwMCcsICctbWV0YWxfYmluZGluZycsICctaW1hZScsICc8aW5maWxlLm1hZT4nLCAnLW9tYWUnLCAnPG91dGZpbGUubWFlPic=

> <r_lp_tautomer_probability>
0.5

> <r_epik_Ionization_Penalty>
0.818672

> <r_epik_Ionization_Penalty_Charging>
0.818672

> <r_epik_Ionization_Penalty_Neutral>
7.99661e-08

> <r_epik_State_Penalty>
0.927032

> <r_epik_Charging_Adjusted_Penalty>
1.7457

> <i_epik_Tot_Q>
-1

> <i_epik_Tot_abs_Q>
1

> <r_epik_Metal_State_Penalty>
0.525537

> <b_epik_Metal_Only>
0

> <s_lp_Force_Field>
OPLS_2005

> <r_lp_Energy>
1.77679

> <b_lp_Chiralities_Consistent>
1

> <s_lp_Variant>
AV-unprocessed.smi:2698-5

> <Gold.Version>
5.8.1

> <Gold.Id.Protein>
6NUR|6NUR_protein|mol2

> <Gold.PLP.Fitness>
46.3518

> <Gold.PLP.PLP>
-32.3833

> <Gold.PLP.part.hbond>
-4.1346

> <Gold.PLP.part.metal>
0.0000

> <Gold.PLP.part.buried>
-4.0686

> <Gold.PLP.part.nonpolar>
-25.3188

> <Gold.PLP.part.repulsive>
0.2000

> <Gold.PLP.ligand.clash>
0.0000

> <Gold.PLP.ligand.torsion>
1.6740

> <Gold.PLP.Chemscore.Hbond>
4.6320

> <Gold.PLP.Chemscore.CHOScore>
1.1002

> <Gold.PLP.Chemscore.Metal>
0.0000

> <Gold.Chemscore.Hbonds>
donor molecule, donor type, donor heavy atom, donor atom, acceptor molecule, acceptor atom, score
      P1  H  6896  6909       L1    16  1.65
      P1  H  7997  8008       L1     6  0.98
      P1  H 10752 10763       L1    17  2.00
      L1  C    11    32       P1  7948  0.63
      L1  C    11    32       P1  7949  0.53

> <Gold.PLP.Chemscore.Internal.Correction>
0.1199

> <Gold.Rescore>
     Score         DG    S(hbond)    S(metal)    S(lipo)     H(rot)  DE(clash)    DE(int)     intcor
     10.77     -14.16       2.56        0.00      67.20       3.01       0.01       3.38       ----

> <Gold.Chemscore.Fitness>
10.7730

> <Gold.Chemscore.DG>
-14.1615

> <Gold.Chemscore.ZeroCoef>
-5.4800

> <Gold.Chemscore.Hbond>
2.5556

> <Gold.Chemscore.Metal>
0.0000

> <Gold.Chemscore.Lipo>
67.2023

> <Gold.Chemscore.Internal_Hbond>
0.0000

> <Gold.Chemscore.DEClash>
0.0126

> <Gold.Chemscore.DEInternal>
3.3759

> <Gold.Chemscore.Rot>
3.0145

> <Gold.Chemscore.Internal.Correction>
   9.000000E+99

> <Gold.Chemscore.Hbonds>
donor molecule, donor type, donor heavy atom, donor atom, acceptor molecule, acceptor atom, score
      P1  H  6896  6909       L1    16  0.73
      P1  H  7997  8008       L1     6  0.69
      P1  H 10752 10763       L1    17  0.98

> <Gold.Chemscore.Hbond.Weighted>
-8.5359

> <Gold.Chemscore.Metal.Weighted>
-0.0000

> <Gold.Chemscore.Lipo.Weighted>
-7.8627

> <Gold.Chemscore.Internal_Hbond.Weighted>
0.0000

> <Gold.Chemscore.DEClash.Weighted>
0.0126

> <Gold.Chemscore.DEInternal.Weighted>
3.3759

> <Gold.Chemscore.Rot.Weighted>
7.7171

> <Gold.Chemscore.Internal.Correction.Weighted>
   9.000000E+99

> <Gold.Protein.RotatedTorsions>
[ 6907 6896 6895 6894 ] final  123.78 input  -60.11 | X-H torsion
[ 7974 7965 7964 7962 ] final   87.21 input  175.53 | X-H torsion
[ 8008 7997 7996 7995 ] final -117.51 input   59.86 | X-H torsion
[ 10167 10162 10161 10158 ] final   86.47 input  -65.29 | X-H torsion
[ 10718 10713 10712 10709 ] final   -1.93 input   66.30 | X-H torsion
[ 10763 10752 10751 10750 ] final  122.70 input  -60.55 | X-H torsion
[ 11005 11000 10999 10996 ] final  -97.84 input  -57.11 | X-H torsion

> <Gold.Protein.ActiveResidues>
 VAL166  LYS551  ARG553  GLY616  TRP617  ASP618  TYR619  PRO620  LYS621  CYS622 
 ASP623  PHE694  ASN695  SER759  ASP760  ASP761  ALA762  ILE779  LEU786  VAL792 
 PHE793  MET794  SER795  GLU796  ALA797  LYS798  CYS799  TRP800  GLU811  SER814 

> <Gold.Protein.RotatedAtoms>
  152.4133  133.6998  159.6416 H   0  0  0  0  0  0  0  0  0  0  0  0  # atno 6907 bound_to 6896
  150.8012  133.8585  159.3234 H   0  0  0  0  0  0  0  0  0  0  0  0  # atno 6908 bound_to 6896
  151.6321  135.1023  160.0175 H   0  0  0  0  0  0  0  0  0  0  0  0  # atno 6909 bound_to 6896
  145.5620  139.2305  143.2454 H   0  0  0  0  0  0  0  0  0  0  0  0  # atno 7974 bound_to 7965
  155.0849  140.0394  157.2650 H   0  0  0  0  0  0  0  0  0  0  0  0  # atno 8008 bound_to 7997
  154.6878  140.2647  155.6818 H   0  0  0  0  0  0  0  0  0  0  0  0  # atno 8009 bound_to 7997
  156.2718  140.2765  156.1445 H   0  0  0  0  0  0  0  0  0  0  0  0  # atno 8010 bound_to 7997
  139.8872  144.6406  150.8778 H   0  0  0  0  0  0  0  0  0  0  0  0  # atno 10167 bound_to 10162
  156.7983  130.5384  149.5725 H   0  0  0  0  0  0  0  0  0  0  0  0  # atno 10718 bound_to 10713
  153.6338  135.3391  155.3050 H   0  0  0  0  0  0  0  0  0  0  0  0  # atno 10763 bound_to 10752
  154.8574  135.4302  154.2077 H   0  0  0  0  0  0  0  0  0  0  0  0  # atno 10764 bound_to 10752
  153.2979  135.7022  153.7304 H   0  0  0  0  0  0  0  0  0  0  0  0  # atno 10765 bound_to 10752
  141.1365  133.8201  157.0760 H   0  0  0  0  0  0  0  0  0  0  0  0  # atno 11005 bound_to 11000
  146.1844  140.6445  142.9174 LP  0  0  0  0  0  0  0  0  0  0  0  0  # atno 17320 bound_to 7965
  144.7478  140.5114  143.6823 LP  0  0  0  0  0  0  0  0  0  0  0  0  # atno 17321 bound_to 7965
  140.7733  143.3538  151.1961 LP  0  0  0  0  0  0  0  0  0  0  0  0  # atno 17342 bound_to 10162
  139.7142  143.9327  152.2960 LP  0  0  0  0  0  0  0  0  0  0  0  0  # atno 17343 bound_to 10162
  156.1117  130.6045  151.0057 LP  0  0  0  0  0  0  0  0  0  0  0  0  # atno 17370 bound_to 10713
  157.6566  131.0888  150.7932 LP  0  0  0  0  0  0  0  0  0  0  0  0  # atno 17371 bound_to 10713
  140.0481  134.9819  157.1087 LP  0  0  0  0  0  0  0  0  0  0  0  0  # atno 17394 bound_to 11000
  140.4031  134.2061  155.7163 LP  0  0  0  0  0  0  0  0  0  0  0  0  # atno 17395 bound_to 11000

$$$$
