AV-unprocessed.smi:2446|AV-procd|sdf|9645|dock10
  -GOLD-   2272013283D 1   1.00000     0.00000
 Structure written by MMmdl.
 40 41  0  0  0  0  0  0  0  0  2 V2000
  150.2727  138.8450  154.1907 C   0  0  0  0  0  0  0  0  0  0  0  0
  149.2244  139.9400  154.2905 C   0  0  0  0  0  0  0  0  0  0  0  0
  149.5496  141.1565  154.9290 C   0  0  0  0  0  0  0  0  0  0  0  0
  148.6305  142.1403  155.0220 N   0  3  0  0  0  0  0  0  0  0  0  0
  147.3842  142.0241  154.5187 C   0  0  0  0  0  0  0  0  0  0  0  0
  146.9962  140.8354  153.8694 C   0  0  0  0  0  0  0  0  0  0  0  0
  147.9203  139.7646  153.7604 C   0  0  0  0  0  0  0  0  0  0  0  0
  147.6152  138.5371  153.1077 N   0  0  0  0  0  0  0  0  0  0  0  0
  146.4137  137.9705  152.8815 C   0  0  0  0  0  0  0  0  0  0  0  0
  145.3343  138.4717  153.1874 O   0  0  0  0  0  0  0  0  0  0  0  0
  146.4760  136.7660  152.2848 N   0  0  0  0  0  0  0  0  0  0  0  0
  145.3759  135.8769  151.8952 C   0  0  2  0  0  0  0  0  0  0  0  0
  144.2373  135.9595  152.9297 C   0  0  0  0  0  0  0  0  0  0  0  0
  144.6171  135.2995  154.2660 C   0  0  0  0  0  0  0  0  0  0  0  0
  145.0771  133.8473  154.0637 C   0  0  0  0  0  0  0  0  0  0  0  0
  146.2486  133.7548  153.0640 C   0  0  1  0  0  0  0  0  0  0  0  0
  146.7307  132.3025  152.8686 C   0  0  0  0  0  0  0  0  0  0  0  0
  145.8399  131.5964  152.1717 F   0  0  0  0  0  0  0  0  0  0  0  0
  147.8937  132.2929  152.2169 F   0  0  0  0  0  0  0  0  0  0  0  0
  146.9132  131.7184  154.0527 F   0  0  0  0  0  0  0  0  0  0  0  0
  145.8551  134.4173  151.7242 C   0  0  0  0  0  0  0  0  0  0  0  0
  151.2249  139.1688  154.6121 H   0  0  0  0  0  0  0  0  0  0  0  0
  150.4420  138.5705  153.1490 H   0  0  0  0  0  0  0  0  0  0  0  0
  149.9483  137.9574  154.7344 H   0  0  0  0  0  0  0  0  0  0  0  0
  150.5138  141.3735  155.3656 H   0  0  0  0  0  0  0  0  0  0  0  0
  146.7396  142.8820  154.6442 H   0  0  0  0  0  0  0  0  0  0  0  0
  146.0008  140.7757  153.4574 H   0  0  0  0  0  0  0  0  0  0  0  0
  148.4147  137.9741  152.8568 H   0  0  0  0  0  0  0  0  0  0  0  0
  147.4018  136.4307  152.0591 H   0  0  0  0  0  0  0  0  0  0  0  0
  144.9703  136.2260  150.9441 H   0  0  0  0  0  0  0  0  0  0  0  0
  143.9493  136.9987  153.0942 H   0  0  0  0  0  0  0  0  0  0  0  0
  143.3536  135.4620  152.5279 H   0  0  0  0  0  0  0  0  0  0  0  0
  145.4109  135.8704  154.7491 H   0  0  0  0  0  0  0  0  0  0  0  0
  143.7646  135.3260  154.9454 H   0  0  0  0  0  0  0  0  0  0  0  0
  145.3706  133.4258  155.0255 H   0  0  0  0  0  0  0  0  0  0  0  0
  144.2384  133.2472  153.7083 H   0  0  0  0  0  0  0  0  0  0  0  0
  147.0853  134.3160  153.4827 H   0  0  0  0  0  0  0  0  0  0  0  0
  145.0552  133.8383  151.2612 H   0  0  0  0  0  0  0  0  0  0  0  0
  146.6920  134.3756  151.0272 H   0  0  0  0  0  0  0  0  0  0  0  0
  148.8906  143.0104  155.4874 H   0  0  0  0  0  0  0  0  0  0  0  0
  1  2  1  0  0  0  0
  1 22  1  0  0  0  0
  1 23  1  0  0  0  0
  1 24  1  0  0  0  0
  2  7  1  0  0  0  0
  2  3  2  0  0  0  0
  3  4  1  0  0  0  0
  3 25  1  0  0  0  0
  4  5  2  0  0  0  0
  4 40  1  0  0  0  0
  5  6  1  0  0  0  0
  5 26  1  0  0  0  0
  6  7  2  0  0  0  0
  6 27  1  0  0  0  0
  7  8  1  0  0  0  0
  8  9  1  0  0  0  0
  8 28  1  0  0  0  0
  9 10  2  0  0  0  0
  9 11  1  0  0  0  0
 11 12  1  0  0  0  0
 11 29  1  0  0  0  0
 12 21  1  0  0  0  0
 12 13  1  0  0  0  0
 12 30  1  0  0  0  0
 13 14  1  0  0  0  0
 13 31  1  0  0  0  0
 13 32  1  0  0  0  0
 14 15  1  0  0  0  0
 14 33  1  0  0  0  0
 14 34  1  0  0  0  0
 15 16  1  0  0  0  0
 15 35  1  0  0  0  0
 15 36  1  0  0  0  0
 16 17  1  0  0  0  0
 16 21  1  0  0  0  0
 16 37  1  0  0  0  0
 17 18  1  0  0  0  0
 17 19  1  0  0  0  0
 17 20  1  0  0  0  0
 21 38  1  0  0  0  0
 21 39  1  0  0  0  0
M  CHG  1   4   1
M  END
> <s_m_source_file>
AV-unprocessed.smi

> <i_m_source_file_index>
2446

> <i_lp_mmshare_version>
43012

> <i_f3d_flags>
0

> <s_epik_input>
W0NIM11jMVtjSF1uW2NIXVtjSF1jMVtOSF1DKD1PKVtOSF1bQ0BASF0yW0NIMl1bQ0gyXVtDSDJdW0NAQEhdKEMoRikoRilGKVtDSDJdMg==

> <s_epik_cmdline>
J2VwaWtfcHl0aG9uJywgJy1waCcsICc3LjAnLCAnLXRuJywgJzgnLCAnLW1hJywgJzIwMCcsICctbWV0YWxfYmluZGluZycsICctaW1hZScsICc8aW5maWxlLm1hZT4nLCAnLW9tYWUnLCAnPG91dGZpbGUubWFlPic=

> <r_epik_Ionization_Penalty>
0.736582

> <r_epik_Ionization_Penalty_Charging>
0.736562

> <r_epik_Ionization_Penalty_Neutral>
1.98379e-05

> <r_epik_State_Penalty>
0.762314

> <r_epik_Charging_Adjusted_Penalty>
1.49888

> <i_epik_Tot_Q>
1

> <i_epik_Tot_abs_Q>
1

> <r_epik_Metal_State_Penalty>
0.914579

> <b_epik_Metal_Only>
0

> <s_lp_Force_Field>
OPLS_2005

> <r_lp_Energy>
31.0639

> <b_lp_Chiralities_Consistent>
1

> <s_lp_Variant>
AV-unprocessed.smi:2446-5

> <Gold.Version>
5.8.1

> <Gold.Id.Protein>
6NUR|6NUR_protein|mol2

> <Gold.PLP.Fitness>
41.4961

> <Gold.PLP.PLP>
-31.0572

> <Gold.PLP.part.hbond>
-3.9570

> <Gold.PLP.part.metal>
0.0000

> <Gold.PLP.part.buried>
1.6374

> <Gold.PLP.part.nonpolar>
-34.4519

> <Gold.PLP.part.repulsive>
5.2466

> <Gold.PLP.ligand.clash>
0.0000

> <Gold.PLP.ligand.torsion>
0.5737

> <Gold.PLP.Chemscore.Hbond>
3.8553

> <Gold.PLP.Chemscore.CHOScore>
0.0000

> <Gold.PLP.Chemscore.Metal>
0.0000

> <Gold.Chemscore.Hbonds>
donor molecule, donor type, donor heavy atom, donor atom, acceptor molecule, acceptor atom, score
      L1  H     4    40       P1  8028  2.00
      L1  H     8    28       P1  7948  0.80
      L1  H    11    29       P1  7948  1.00

> <Gold.PLP.Chemscore.Internal.Correction>
0.0206

> <Gold.Rescore>
     Score         DG    S(hbond)    S(metal)    S(lipo)     H(rot)  DE(clash)    DE(int)     intcor
     14.90     -20.27       2.75        0.00      69.70       1.00       2.34       3.03       ----

> <Gold.Chemscore.Fitness>
14.9023

> <Gold.Chemscore.DG>
-20.2742

> <Gold.Chemscore.ZeroCoef>
-5.4800

> <Gold.Chemscore.Hbond>
2.7543

> <Gold.Chemscore.Metal>
0.0000

> <Gold.Chemscore.Lipo>
69.6988

> <Gold.Chemscore.Internal_Hbond>
0.0000

> <Gold.Chemscore.DEClash>
2.3450

> <Gold.Chemscore.DEInternal>
3.0269

> <Gold.Chemscore.Rot>
1.0000

> <Gold.Chemscore.Internal.Correction>
   9.000000E+99

> <Gold.Chemscore.Hbonds>
donor molecule, donor type, donor heavy atom, donor atom, acceptor molecule, acceptor atom, score
      L1  H     4    40       P1  8028  0.96
      L1  H     8    28       P1  7948  0.75
      L1  H    11    29       P1  7948  0.96

> <Gold.Chemscore.Hbond.Weighted>
-9.1994

> <Gold.Chemscore.Metal.Weighted>
-0.0000

> <Gold.Chemscore.Lipo.Weighted>
-8.1548

> <Gold.Chemscore.Internal_Hbond.Weighted>
0.0000

> <Gold.Chemscore.DEClash.Weighted>
2.3450

> <Gold.Chemscore.DEInternal.Weighted>
3.0269

> <Gold.Chemscore.Rot.Weighted>
2.5600

> <Gold.Chemscore.Internal.Correction.Weighted>
   9.000000E+99

> <Gold.Protein.RotatedTorsions>
[ 6907 6896 6895 6894 ] final  165.66 input  -60.11 | X-H torsion
[ 7974 7965 7964 7962 ] final  126.06 input  175.53 | X-H torsion
[ 8008 7997 7996 7995 ] final   79.98 input   59.86 | X-H torsion
[ 10167 10162 10161 10158 ] final   68.52 input  -65.29 | X-H torsion
[ 10718 10713 10712 10709 ] final -144.06 input   66.30 | X-H torsion
[ 10763 10752 10751 10750 ] final -112.72 input  -60.55 | X-H torsion
[ 11005 11000 10999 10996 ] final  -48.34 input  -57.11 | X-H torsion

> <Gold.Protein.ActiveResidues>
 VAL166  LYS551  ARG553  GLY616  TRP617  ASP618  TYR619  PRO620  LYS621  CYS622 
 ASP623  PHE694  ASN695  SER759  ASP760  ASP761  ALA762  ILE779  LEU786  VAL792 
 PHE793  MET794  SER795  GLU796  ALA797  LYS798  CYS799  TRP800  GLU811  SER814 

> <Gold.Protein.RotatedAtoms>
  151.8909  133.3516  159.3797 H   0  0  0  0  0  0  0  0  0  0  0  0  # atno 6907 bound_to 6896
  150.7103  134.4924  159.5531 H   0  0  0  0  0  0  0  0  0  0  0  0  # atno 6908 bound_to 6896
  152.2494  134.8148  160.0499 H   0  0  0  0  0  0  0  0  0  0  0  0  # atno 6909 bound_to 6896
  145.0660  139.3767  143.4982 H   0  0  0  0  0  0  0  0  0  0  0  0  # atno 7974 bound_to 7965
  155.8772  140.3446  155.5862 H   0  0  0  0  0  0  0  0  0  0  0  0  # atno 8008 bound_to 7997
  155.7761  140.0852  157.2102 H   0  0  0  0  0  0  0  0  0  0  0  0  # atno 8009 bound_to 7997
  154.4021  140.1509  156.2985 H   0  0  0  0  0  0  0  0  0  0  0  0  # atno 8010 bound_to 7997
  140.0777  144.5098  150.7183 H   0  0  0  0  0  0  0  0  0  0  0  0  # atno 10167 bound_to 10162
  156.3655  130.7761  151.1934 H   0  0  0  0  0  0  0  0  0  0  0  0  # atno 10718 bound_to 10713
  154.8363  135.4480  154.1237 H   0  0  0  0  0  0  0  0  0  0  0  0  # atno 10763 bound_to 10752
  153.2466  135.6922  153.7731 H   0  0  0  0  0  0  0  0  0  0  0  0  # atno 10764 bound_to 10752
  153.7059  135.3364  155.3211 H   0  0  0  0  0  0  0  0  0  0  0  0  # atno 10765 bound_to 10752
  141.0694  133.6683  156.3426 H   0  0  0  0  0  0  0  0  0  0  0  0  # atno 11005 bound_to 11000
  146.3526  140.0381  142.8645 LP  0  0  0  0  0  0  0  0  0  0  0  0  # atno 17320 bound_to 7965
  145.1351  140.9540  143.4522 LP  0  0  0  0  0  0  0  0  0  0  0  0  # atno 17321 bound_to 7965
  140.7093  143.2492  151.4629 LP  0  0  0  0  0  0  0  0  0  0  0  0  # atno 17342 bound_to 10162
  139.5798  144.1736  152.1952 LP  0  0  0  0  0  0  0  0  0  0  0  0  # atno 17343 bound_to 10162
  157.7478  131.0387  150.4517 LP  0  0  0  0  0  0  0  0  0  0  0  0  # atno 17370 bound_to 10713
  156.4735  130.4058  149.6503 LP  0  0  0  0  0  0  0  0  0  0  0  0  # atno 17371 bound_to 10713
  140.5704  134.5846  157.5456 LP  0  0  0  0  0  0  0  0  0  0  0  0  # atno 17394 bound_to 11000
  139.9509  134.7619  156.0451 LP  0  0  0  0  0  0  0  0  0  0  0  0  # atno 17395 bound_to 11000

$$$$
