AV-unprocessed.smi:1407|AV-procd|sdf|5725|dock1
  -GOLD-   22720 5353D 1   1.00000     0.00000
 Structure written by MMmdl.
 50 51  0  0  0  0  0  0  0  0  2 V2000
  147.4075  142.0286  156.8916 C   0  0  0  0  0  0  0  0  0  0  0  0
  147.6154  140.9504  155.8876 N   0  3  0  0  0  0  0  0  0  0  0  0
  147.3544  141.4783  154.5192 C   0  0  0  0  0  0  0  0  0  0  0  0
  148.8739  140.1253  156.0554 C   0  0  0  0  0  0  0  0  0  0  0  0
  148.9424  139.6442  157.5440 C   0  0  0  0  0  0  0  0  0  0  0  0
  148.0869  138.4907  157.8160 N   0  0  0  0  0  0  0  0  0  0  0  0
  148.1250  137.6916  158.8947 C   0  0  0  0  0  0  0  0  0  0  0  0
  148.9140  137.8606  159.8226 O   0  0  0  0  0  0  0  0  0  0  0  0
  147.1503  136.5024  158.9467 C   0  0  0  0  0  0  0  0  0  0  0  0
  147.0112  135.8795  160.2759 N   0  0  0  0  0  0  0  0  0  0  0  0
  147.1666  134.4803  160.3421 C   0  0  0  0  0  0  0  0  0  0  0  0
  147.0377  133.8052  161.4951 C   0  0  0  0  0  0  0  0  0  0  0  0
  146.7353  134.5524  162.6928 C   0  0  0  0  0  0  0  0  0  0  0  0
  146.5825  135.8906  162.6404 C   0  0  0  0  0  0  0  0  0  0  0  0
  146.7115  136.6311  161.3801 C   0  0  0  0  0  0  0  0  0  0  0  0
  146.5479  137.8494  161.3180 O   0  0  0  0  0  0  0  0  0  0  0  0
  148.7993  138.8725  155.1175 C   0  0  0  0  0  0  0  0  0  0  0  0
  150.0774  138.3564  154.4286 C   0  0  0  0  0  0  0  0  0  0  0  0
  151.3083  138.1540  155.3206 C   0  0  0  0  0  0  0  0  0  0  0  0
  152.1590  139.4245  155.4320 C   0  0  0  0  0  0  0  0  0  0  0  0
  151.5160  140.5561  156.2415 C   0  0  0  0  0  0  0  0  0  0  0  0
  150.1257  141.0250  155.7490 C   0  0  0  0  0  0  0  0  0  0  0  0
  148.2399  142.7321  156.9046 H   0  0  0  0  0  0  0  0  0  0  0  0
  147.2698  141.6367  157.8984 H   0  0  0  0  0  0  0  0  0  0  0  0
  146.5023  142.5938  156.6658 H   0  0  0  0  0  0  0  0  0  0  0  0
  148.0153  142.3075  154.2679 H   0  0  0  0  0  0  0  0  0  0  0  0
  146.3327  141.8543  154.4602 H   0  0  0  0  0  0  0  0  0  0  0  0
  147.4461  140.7293  153.7369 H   0  0  0  0  0  0  0  0  0  0  0  0
  149.9602  139.4381  157.8705 H   0  0  0  0  0  0  0  0  0  0  0  0
  148.6246  140.4363  158.2179 H   0  0  0  0  0  0  0  0  0  0  0  0
  147.3986  138.2746  157.1086 H   0  0  0  0  0  0  0  0  0  0  0  0
  146.1757  136.8495  158.6001 H   0  0  0  0  0  0  0  0  0  0  0  0
  147.4640  135.7657  158.2052 H   0  0  0  0  0  0  0  0  0  0  0  0
  147.3871  133.9979  159.4007 H   0  0  0  0  0  0  0  0  0  0  0  0
  147.1564  132.7321  161.5260 H   0  0  0  0  0  0  0  0  0  0  0  0
  146.6335  134.0364  163.6364 H   0  0  0  0  0  0  0  0  0  0  0  0
  146.3583  136.4331  163.5473 H   0  0  0  0  0  0  0  0  0  0  0  0
  148.3414  138.0452  155.6616 H   0  0  0  0  0  0  0  0  0  0  0  0
  148.1133  139.0645  154.2936 H   0  0  0  0  0  0  0  0  0  0  0  0
  149.8315  137.3976  153.9702 H   0  0  0  0  0  0  0  0  0  0  0  0
  150.3334  139.0076  153.5920 H   0  0  0  0  0  0  0  0  0  0  0  0
  151.0352  137.7607  156.2988 H   0  0  0  0  0  0  0  0  0  0  0  0
  151.9314  137.3850  154.8622 H   0  0  0  0  0  0  0  0  0  0  0  0
  153.1127  139.1690  155.8951 H   0  0  0  0  0  0  0  0  0  0  0  0
  152.4061  139.7863  154.4331 H   0  0  0  0  0  0  0  0  0  0  0  0
  151.5087  140.2986  157.2988 H   0  0  0  0  0  0  0  0  0  0  0  0
  152.1899  141.4117  156.1820 H   0  0  0  0  0  0  0  0  0  0  0  0
  150.1943  141.2292  154.6799 H   0  0  0  0  0  0  0  0  0  0  0  0
  149.9650  141.9972  156.2178 H   0  0  0  0  0  0  0  0  0  0  0  0
  146.8644  140.2960  156.0565 H   0  0  0  0  0  0  0  0  0  0  0  0
  1  2  1  0  0  0  0
  1 23  1  0  0  0  0
  1 24  1  0  0  0  0
  1 25  1  0  0  0  0
  2  3  1  0  0  0  0
  2  4  1  0  0  0  0
  2 50  1  0  0  0  0
  3 26  1  0  0  0  0
  3 27  1  0  0  0  0
  3 28  1  0  0  0  0
  4 22  1  0  0  0  0
  4  5  1  0  0  0  0
  4 17  1  0  0  0  0
  5  6  1  0  0  0  0
  5 29  1  0  0  0  0
  5 30  1  0  0  0  0
  6  7  1  0  0  0  0
  6 31  1  0  0  0  0
  7  8  2  0  0  0  0
  7  9  1  0  0  0  0
  9 10  1  0  0  0  0
  9 32  1  0  0  0  0
  9 33  1  0  0  0  0
 10 15  1  0  0  0  0
 10 11  1  0  0  0  0
 11 12  2  0  0  0  0
 11 34  1  0  0  0  0
 12 13  1  0  0  0  0
 12 35  1  0  0  0  0
 13 14  2  0  0  0  0
 13 36  1  0  0  0  0
 14 15  1  0  0  0  0
 14 37  1  0  0  0  0
 15 16  2  0  0  0  0
 17 18  1  0  0  0  0
 17 38  1  0  0  0  0
 17 39  1  0  0  0  0
 18 19  1  0  0  0  0
 18 40  1  0  0  0  0
 18 41  1  0  0  0  0
 19 20  1  0  0  0  0
 19 42  1  0  0  0  0
 19 43  1  0  0  0  0
 20 21  1  0  0  0  0
 20 44  1  0  0  0  0
 20 45  1  0  0  0  0
 21 22  1  0  0  0  0
 21 46  1  0  0  0  0
 21 47  1  0  0  0  0
 22 48  1  0  0  0  0
 22 49  1  0  0  0  0
M  CHG  1   2   1
M  END
> <s_m_source_file>
AV-unprocessed.smi

> <i_m_source_file_index>
1407

> <i_lp_mmshare_version>
43012

> <i_f3d_flags>
0

> <s_epik_input>
W0NIMl0xW0NIMl1bQ0gyXVtDSDJdW0NIMl1bQ0gyXUMxKE4oW0NIM10pW0NIM10pW0NIMl1bTkhdQyg9TylbQ0gyXW4yW2NIXVtjSF1bY0hdW2NIXWMyPU8=

> <s_epik_cmdline>
J2VwaWtfcHl0aG9uJywgJy1waCcsICc3LjAnLCAnLXRuJywgJzgnLCAnLW1hJywgJzIwMCcsICctbWV0YWxfYmluZGluZycsICctaW1hZScsICc8aW5maWxlLm1hZT4nLCAnLW9tYWUnLCAnPG91dGZpbGUubWFlPic=

> <r_lp_tautomer_probability>
1

> <r_epik_Ionization_Penalty>
0.00225809

> <r_epik_Ionization_Penalty_Charging>
0.00225802

> <r_epik_Ionization_Penalty_Neutral>
7.38919e-08

> <r_epik_State_Penalty>
0.00155497

> <r_epik_Charging_Adjusted_Penalty>
0.00381299

> <i_epik_Tot_Q>
1

> <i_epik_Tot_abs_Q>
1

> <r_epik_Metal_State_Penalty>
-0

> <b_epik_Metal_Only>
0

> <s_lp_Force_Field>
OPLS_2005

> <r_lp_Energy>
50.9808

> <b_lp_Chiralities_Consistent>
1

> <s_lp_Variant>
AV-unprocessed.smi:1407-1

> <Gold.Version>
5.8.1

> <Gold.Id.Protein>
6NUR|6NUR_protein|mol2

> <Gold.PLP.Fitness>
44.1636

> <Gold.PLP.PLP>
-40.1242

> <Gold.PLP.part.hbond>
-3.0000

> <Gold.PLP.part.metal>
0.0000

> <Gold.PLP.part.buried>
-5.1924

> <Gold.PLP.part.nonpolar>
-32.3810

> <Gold.PLP.part.repulsive>
0.1082

> <Gold.PLP.ligand.clash>
0.0000

> <Gold.PLP.ligand.torsion>
0.6877

> <Gold.PLP.Chemscore.Hbond>
1.7280

> <Gold.PLP.Chemscore.CHOScore>
0.0000

> <Gold.PLP.Chemscore.Metal>
0.0000

> <Gold.Chemscore.Hbonds>
donor molecule, donor type, donor heavy atom, donor atom, acceptor molecule, acceptor atom, score
      P1  H  6931  6943       L1     8  0.14
      P1  H  6934  6947       L1    16  0.62

> <Gold.PLP.Chemscore.Internal.Correction>
0.2307

> <Gold.Rescore>
     Score         DG    S(hbond)    S(metal)    S(lipo)     H(rot)  DE(clash)    DE(int)     intcor
     15.52     -16.39       1.72        0.00      83.91       1.81       0.19       0.69       ----

> <Gold.Chemscore.Fitness>
15.5171

> <Gold.Chemscore.DG>
-16.3930

> <Gold.Chemscore.ZeroCoef>
-5.4800

> <Gold.Chemscore.Hbond>
1.7188

> <Gold.Chemscore.Metal>
0.0000

> <Gold.Chemscore.Lipo>
83.9083

> <Gold.Chemscore.Internal_Hbond>
0.0000

> <Gold.Chemscore.DEClash>
0.1866

> <Gold.Chemscore.DEInternal>
0.6893

> <Gold.Chemscore.Rot>
1.8145

> <Gold.Chemscore.Internal.Correction>
   9.000000E+99

> <Gold.Chemscore.Hbonds>
donor molecule, donor type, donor heavy atom, donor atom, acceptor molecule, acceptor atom, score
      P1  H  6931  6943       L1     8  0.14
      P1  H  6934  6947       L1    16  0.59

> <Gold.Chemscore.Hbond.Weighted>
-5.7408

> <Gold.Chemscore.Metal.Weighted>
-0.0000

> <Gold.Chemscore.Lipo.Weighted>
-9.8173

> <Gold.Chemscore.Internal_Hbond.Weighted>
0.0000

> <Gold.Chemscore.DEClash.Weighted>
0.1866

> <Gold.Chemscore.DEInternal.Weighted>
0.6893

> <Gold.Chemscore.Rot.Weighted>
4.6451

> <Gold.Chemscore.Internal.Correction.Weighted>
   9.000000E+99

> <Gold.Protein.RotatedTorsions>
[ 6907 6896 6895 6894 ] final -125.60 input  -60.11 | X-H torsion
[ 7974 7965 7964 7962 ] final  108.41 input  175.53 | X-H torsion
[ 8008 7997 7996 7995 ] final  -23.51 input   59.86 | X-H torsion
[ 10167 10162 10161 10158 ] final  -94.60 input  -65.29 | X-H torsion
[ 10718 10713 10712 10709 ] final   24.34 input   66.30 | X-H torsion
[ 10763 10752 10751 10750 ] final  -64.66 input  -60.55 | X-H torsion
[ 11005 11000 10999 10996 ] final -150.62 input  -57.11 | X-H torsion

> <Gold.Protein.ActiveResidues>
 VAL166  LYS551  ARG553  GLY616  TRP617  ASP618  TYR619  PRO620  LYS621  CYS622 
 ASP623  PHE694  ASN695  SER759  ASP760  ASP761  ALA762  ILE779  LEU786  VAL792 
 PHE793  MET794  SER795  GLU796  ALA797  LYS798  CYS799  TRP800  GLU811  SER814 

> <Gold.Protein.RotatedAtoms>
  150.8884  133.7277  159.2911 H   0  0  0  0  0  0  0  0  0  0  0  0  # atno 6907 bound_to 6896
  151.4835  135.1052  159.9794 H   0  0  0  0  0  0  0  0  0  0  0  0  # atno 6908 bound_to 6896
  152.4804  133.8194  159.7101 H   0  0  0  0  0  0  0  0  0  0  0  0  # atno 6909 bound_to 6896
  145.2810  139.2632  143.3915 H   0  0  0  0  0  0  0  0  0  0  0  0  # atno 7974 bound_to 7965
  154.4581  140.1979  156.0322 H   0  0  0  0  0  0  0  0  0  0  0  0  # atno 8008 bound_to 7997
  156.0786  140.3274  155.7637 H   0  0  0  0  0  0  0  0  0  0  0  0  # atno 8009 bound_to 7997
  155.5147  140.0565  157.2908 H   0  0  0  0  0  0  0  0  0  0  0  0  # atno 8010 bound_to 7997
  140.3127  143.3095  152.0131 H   0  0  0  0  0  0  0  0  0  0  0  0  # atno 10167 bound_to 10162
  157.1784  130.6791  149.6104 H   0  0  0  0  0  0  0  0  0  0  0  0  # atno 10718 bound_to 10713
  154.3335  135.6172  153.5562 H   0  0  0  0  0  0  0  0  0  0  0  0  # atno 10763 bound_to 10752
  152.9809  135.5752  154.4935 H   0  0  0  0  0  0  0  0  0  0  0  0  # atno 10764 bound_to 10752
  154.4626  135.2856  155.1679 H   0  0  0  0  0  0  0  0  0  0  0  0  # atno 10765 bound_to 10752
  140.7383  134.3543  157.5153 H   0  0  0  0  0  0  0  0  0  0  0  0  # atno 11005 bound_to 11000
  146.3216  140.3277  142.8638 LP  0  0  0  0  0  0  0  0  0  0  0  0  # atno 17320 bound_to 7965
  144.9253  140.7914  143.5723 LP  0  0  0  0  0  0  0  0  0  0  0  0  # atno 17321 bound_to 7965
  139.4890  144.6372  151.6951 LP  0  0  0  0  0  0  0  0  0  0  0  0  # atno 17342 bound_to 10162
  140.5554  144.0357  150.6145 LP  0  0  0  0  0  0  0  0  0  0  0  0  # atno 17343 bound_to 10162
  155.9728  130.4655  150.6255 LP  0  0  0  0  0  0  0  0  0  0  0  0  # atno 17370 bound_to 10713
  157.3976  131.0805  151.1338 LP  0  0  0  0  0  0  0  0  0  0  0  0  # atno 17371 bound_to 10713
  139.8811  134.9064  156.2921 LP  0  0  0  0  0  0  0  0  0  0  0  0  # atno 17394 bound_to 11000
  140.9860  133.7238  156.0742 LP  0  0  0  0  0  0  0  0  0  0  0  0  # atno 17395 bound_to 11000

$$$$
