AV-unprocessed.smi:258|AV-procd|sdf|1971|dock1
  -GOLD-   2262021133D 1   1.00000     0.00000
 Structure written by MMmdl.
 57 60  0  0  0  0  0  0  0  0  1 V2000
  146.6592  132.7545  150.2899 O   0  0  0  0  0  0  0  0  0  0  0  0
  146.7952  133.4775  151.4949 C   0  0  0  0  0  0  0  0  0  0  0  0
  148.0314  132.9953  152.2634 C   0  0  0  0  0  0  0  0  0  0  0  0
  148.3407  133.9411  153.2769 O   0  0  0  0  0  0  0  0  0  0  0  0
  149.6744  133.8720  153.7643 C   0  0  2  0  0  0  0  0  0  0  0  0
  149.9625  132.4963  154.3985 C   0  0  0  0  0  0  0  0  0  0  0  0
  151.3499  132.4944  155.0575 C   0  0  0  0  0  0  0  0  0  0  0  0
  151.4766  133.6368  156.0773 C   0  0  0  0  0  0  0  0  0  0  0  0
  151.1438  134.9212  155.4646 N   0  0  0  0  0  0  0  0  0  0  0  0
  151.5562  136.0634  156.0731 C   0  0  0  0  0  0  0  0  0  0  0  0
  152.8915  136.2081  156.2799 N   0  0  0  0  0  0  0  0  0  0  0  0
  153.3735  137.3030  156.8739 C   0  0  0  0  0  0  0  0  0  0  0  0
  152.7084  138.3642  157.3314 N   0  0  0  0  0  0  0  0  0  0  0  0
  151.3674  138.2314  157.1255 C   0  0  0  0  0  0  0  0  0  0  0  0
  150.7084  137.1248  156.5147 C   0  0  0  0  0  0  0  0  0  0  0  0
  149.3376  137.3641  156.4816 N   0  0  0  0  0  0  0  0  0  0  0  0
  149.1968  138.5345  157.0405 C   0  0  0  0  0  0  0  0  0  0  0  0
  150.3673  139.1306  157.4478 N   0  0  0  0  0  0  0  0  0  0  0  0
  150.5107  140.4290  158.0815 C   0  0  0  0  0  0  0  0  0  0  0  0
  151.2133  141.4833  157.1889 C   0  0  1  0  0  0  0  0  0  0  0  0
  150.4246  141.7930  155.8896 C   0  0  0  0  0  0  0  0  0  0  0  0
  149.1231  142.2655  156.1702 O   0  0  0  0  0  0  0  0  0  0  0  0
  151.5435  142.7415  158.0337 C   0  0  1  0  0  0  0  0  0  0  0  0
  150.3598  143.4883  158.6214 C   0  0  0  0  0  0  0  0  0  0  0  0
  151.0460  144.3881  159.6453 C   0  0  0  0  0  0  0  0  0  0  0  0
  152.1814  143.6601  160.1071 O   0  0  0  0  0  0  0  0  0  0  0  0
  152.4168  142.5284  159.2734 C   0  0  0  0  0  0  0  0  0  0  0  0
  149.8354  134.9891  154.8108 C   0  0  0  0  0  0  0  0  0  0  0  0
  147.3118  132.0717  150.2744 H   0  0  0  0  0  0  0  0  0  0  0  0
  146.9086  134.5307  151.2362 H   0  0  0  0  0  0  0  0  0  0  0  0
  145.8916  133.3884  152.0988 H   0  0  0  0  0  0  0  0  0  0  0  0
  147.8720  131.9946  152.6656 H   0  0  0  0  0  0  0  0  0  0  0  0
  148.8759  132.9364  151.5754 H   0  0  0  0  0  0  0  0  0  0  0  0
  150.3793  134.0604  152.9522 H   0  0  0  0  0  0  0  0  0  0  0  0
  149.2018  132.2680  155.1461 H   0  0  0  0  0  0  0  0  0  0  0  0
  149.9151  131.7040  153.6519 H   0  0  0  0  0  0  0  0  0  0  0  0
  151.5317  131.5371  155.5460 H   0  0  0  0  0  0  0  0  0  0  0  0
  152.1183  132.6028  154.2910 H   0  0  0  0  0  0  0  0  0  0  0  0
  150.8055  133.4556  156.9176 H   0  0  0  0  0  0  0  0  0  0  0  0
  152.4945  133.6586  156.4685 H   0  0  0  0  0  0  0  0  0  0  0  0
  154.4459  137.3336  156.9990 H   0  0  0  0  0  0  0  0  0  0  0  0
  148.2308  139.0030  157.1600 H   0  0  0  0  0  0  0  0  0  0  0  0
  149.5203  140.7810  158.3723 H   0  0  0  0  0  0  0  0  0  0  0  0
  151.0694  140.2840  159.0070 H   0  0  0  0  0  0  0  0  0  0  0  0
  152.1778  141.0669  156.8939 H   0  0  0  0  0  0  0  0  0  0  0  0
  150.9510  142.5297  155.2824 H   0  0  0  0  0  0  0  0  0  0  0  0
  150.3052  140.9065  155.2700 H   0  0  0  0  0  0  0  0  0  0  0  0
  149.1300  143.2097  156.1304 H   0  0  0  0  0  0  0  0  0  0  0  0
  152.0603  143.4532  157.3874 H   0  0  0  0  0  0  0  0  0  0  0  0
  149.7980  144.0515  157.8758 H   0  0  0  0  0  0  0  0  0  0  0  0
  149.6681  142.8195  159.1312 H   0  0  0  0  0  0  0  0  0  0  0  0
  151.3934  145.3065  159.1706 H   0  0  0  0  0  0  0  0  0  0  0  0
  150.3858  144.6625  160.4683 H   0  0  0  0  0  0  0  0  0  0  0  0
  152.1204  141.6384  159.8280 H   0  0  0  0  0  0  0  0  0  0  0  0
  153.4742  142.4338  159.0264 H   0  0  0  0  0  0  0  0  0  0  0  0
  149.6785  135.9536  154.3271 H   0  0  0  0  0  0  0  0  0  0  0  0
  149.0637  134.8953  155.5761 H   0  0  0  0  0  0  0  0  0  0  0  0
  1  2  1  0  0  0  0
  1 29  1  0  0  0  0
  2  3  1  0  0  0  0
  2 30  1  0  0  0  0
  2 31  1  0  0  0  0
  3  4  1  0  0  0  0
  3 32  1  0  0  0  0
  3 33  1  0  0  0  0
  4  5  1  0  0  0  0
  5 28  1  0  0  0  0
  5  6  1  0  0  0  0
  5 34  1  0  0  0  0
  6  7  1  0  0  0  0
  6 35  1  0  0  0  0
  6 36  1  0  0  0  0
  7  8  1  0  0  0  0
  7 37  1  0  0  0  0
  7 38  1  0  0  0  0
  8  9  1  0  0  0  0
  8 39  1  0  0  0  0
  8 40  1  0  0  0  0
  9 10  1  0  0  0  0
  9 28  1  0  0  0  0
 10 15  1  0  0  0  0
 10 11  2  0  0  0  0
 11 12  1  0  0  0  0
 12 13  2  0  0  0  0
 12 41  1  0  0  0  0
 13 14  1  0  0  0  0
 14 18  1  0  0  0  0
 14 15  2  0  0  0  0
 15 16  1  0  0  0  0
 16 17  2  0  0  0  0
 17 18  1  0  0  0  0
 17 42  1  0  0  0  0
 18 19  1  0  0  0  0
 19 20  1  0  0  0  0
 19 43  1  0  0  0  0
 19 44  1  0  0  0  0
 20 21  1  0  0  0  0
 20 23  1  0  0  0  0
 20 45  1  0  0  0  0
 21 22  1  0  0  0  0
 21 46  1  0  0  0  0
 21 47  1  0  0  0  0
 22 48  1  0  0  0  0
 23 27  1  0  0  0  0
 23 24  1  0  0  0  0
 23 49  1  0  0  0  0
 24 25  1  0  0  0  0
 24 50  1  0  0  0  0
 24 51  1  0  0  0  0
 25 26  1  0  0  0  0
 25 52  1  0  0  0  0
 25 53  1  0  0  0  0
 26 27  1  0  0  0  0
 27 54  1  0  0  0  0
 27 55  1  0  0  0  0
 28 56  1  0  0  0  0
 28 57  1  0  0  0  0
M  END
> <s_m_source_file>
AV-unprocessed.smi

> <i_m_source_file_index>
258

> <i_lp_mmshare_version>
43012

> <i_f3d_flags>
0

> <s_epik_input>
W09IXVtDSDJdW0NIMl1PW0NAQEhdMVtDSDJdW0NIMl1bQ0gyXU4oW0NIMl0xKWMobltjSF1uMiljKGMyMyluW2NIXW4zW0NIMl1bQ0BIXShbQ0gyXVtPSF0pW0NAQEhdNFtDSDJdW0NIMl1PW0NIMl00

> <s_epik_cmdline>
J2VwaWtfcHl0aG9uJywgJy1waCcsICc3LjAnLCAnLXRuJywgJzgnLCAnLW1hJywgJzIwMCcsICctbWV0YWxfYmluZGluZycsICctaW1hZScsICc8aW5maWxlLm1hZT4nLCAnLW9tYWUnLCAnPG91dGZpbGUubWFlPic=

> <r_lp_tautomer_probability>
1

> <r_epik_Ionization_Penalty>
0.00349036

> <r_epik_Ionization_Penalty_Charging>
0

> <r_epik_Ionization_Penalty_Neutral>
0.00349036

> <r_epik_State_Penalty>
0.00229798

> <r_epik_Charging_Adjusted_Penalty>
0.00229798

> <i_epik_Tot_Q>
0

> <i_epik_Tot_abs_Q>
0

> <r_epik_Metal_State_Penalty>
-0

> <b_epik_Metal_Only>
0

> <s_lp_Force_Field>
OPLS_2005

> <r_lp_Energy>
47.622

> <b_lp_Chiralities_Consistent>
1

> <s_lp_Variant>
AV-unprocessed.smi:258-7

> <Gold.Version>
5.8.1

> <Gold.Id.Protein>
6NUR|6NUR_protein|mol2

> <Gold.PLP.Fitness>
50.0231

> <Gold.PLP.PLP>
-41.1786

> <Gold.PLP.part.hbond>
-3.0302

> <Gold.PLP.part.metal>
0.0000

> <Gold.PLP.part.buried>
-8.4058

> <Gold.PLP.part.nonpolar>
-30.6929

> <Gold.PLP.part.repulsive>
1.6878

> <Gold.PLP.ligand.clash>
0.0000

> <Gold.PLP.ligand.torsion>
0.5885

> <Gold.PLP.Chemscore.Hbond>
3.0000

> <Gold.PLP.Chemscore.CHOScore>
0.0000

> <Gold.PLP.Chemscore.Metal>
0.0000

> <Gold.Chemscore.Hbonds>
donor molecule, donor type, donor heavy atom, donor atom, acceptor molecule, acceptor atom, score
      L1  H     1    29       P1 10747  0.94
      L1  H    22    48       P1  8028  1.00
      P1  H 10752 10764       L1    11  0.65

> <Gold.PLP.Chemscore.Internal.Correction>
1.0213

> <Gold.Rescore>
     Score         DG    S(hbond)    S(metal)    S(lipo)     H(rot)  DE(clash)    DE(int)     intcor
     13.72     -15.74       2.76        0.00     101.43       4.22       0.18       1.84       ----

> <Gold.Chemscore.Fitness>
13.7221

> <Gold.Chemscore.DG>
-15.7432

> <Gold.Chemscore.ZeroCoef>
-5.4800

> <Gold.Chemscore.Hbond>
2.7576

> <Gold.Chemscore.Metal>
0.0000

> <Gold.Chemscore.Lipo>
101.4338

> <Gold.Chemscore.Internal_Hbond>
0.0000

> <Gold.Chemscore.DEClash>
0.1815

> <Gold.Chemscore.DEInternal>
1.8396

> <Gold.Chemscore.Rot>
4.2246

> <Gold.Chemscore.Internal.Correction>
   9.000000E+99

> <Gold.Chemscore.Hbonds>
donor molecule, donor type, donor heavy atom, donor atom, acceptor molecule, acceptor atom, score
      L1  H     1    29       P1 10747  0.90
      L1  H    22    48       P1  8028  0.98
      P1  H 10752 10764       L1    11  0.25

> <Gold.Chemscore.Hbond.Weighted>
-9.2103

> <Gold.Chemscore.Metal.Weighted>
-0.0000

> <Gold.Chemscore.Lipo.Weighted>
-11.8678

> <Gold.Chemscore.Internal_Hbond.Weighted>
0.0000

> <Gold.Chemscore.DEClash.Weighted>
0.1815

> <Gold.Chemscore.DEInternal.Weighted>
1.8396

> <Gold.Chemscore.Rot.Weighted>
10.8149

> <Gold.Chemscore.Internal.Correction.Weighted>
   9.000000E+99

> <Gold.Protein.RotatedTorsions>
[ 6907 6896 6895 6894 ] final   45.90 input  -60.11 | X-H torsion
[ 7974 7965 7964 7962 ] final -138.62 input  175.53 | X-H torsion
[ 8008 7997 7996 7995 ] final   36.31 input   59.86 | X-H torsion
[ 10167 10162 10161 10158 ] final   59.38 input  -65.29 | X-H torsion
[ 10718 10713 10712 10709 ] final  175.82 input   66.30 | X-H torsion
[ 10763 10752 10751 10750 ] final   -6.46 input  -60.55 | X-H torsion
[ 11005 11000 10999 10996 ] final   69.47 input  -57.11 | X-H torsion

> <Gold.Protein.ActiveResidues>
 VAL166  LYS551  ARG553  GLY616  TRP617  ASP618  TYR619  PRO620  LYS621  CYS622 
 ASP623  PHE694  ASN695  SER759  ASP760  ASP761  ALA762  ILE779  LEU786  VAL792 
 PHE793  MET794  SER795  GLU796  ALA797  LYS798  CYS799  TRP800  GLU811  SER814 

> <Gold.Protein.RotatedAtoms>
  152.2501  134.8141  160.0447 H   0  0  0  0  0  0  0  0  0  0  0  0  # atno 6907 bound_to 6896
  151.8825  133.3493  159.3779 H   0  0  0  0  0  0  0  0  0  0  0  0  # atno 6908 bound_to 6896
  150.7081  134.4931  159.5569 H   0  0  0  0  0  0  0  0  0  0  0  0  # atno 6909 bound_to 6896
  144.8743  140.6414  143.5247 H   0  0  0  0  0  0  0  0  0  0  0  0  # atno 7974 bound_to 7965
  155.1854  140.3303  155.4368 H   0  0  0  0  0  0  0  0  0  0  0  0  # atno 8008 bound_to 7997
  156.2462  140.1919  156.6900 H   0  0  0  0  0  0  0  0  0  0  0  0  # atno 8009 bound_to 7997
  154.6243  140.0591  156.9639 H   0  0  0  0  0  0  0  0  0  0  0  0  # atno 8010 bound_to 7997
  140.1770  144.4219  150.6633 H   0  0  0  0  0  0  0  0  0  0  0  0  # atno 10167 bound_to 10162
  156.9292  130.9965  151.2990 H   0  0  0  0  0  0  0  0  0  0  0  0  # atno 10718 bound_to 10713
  153.4127  135.7008  153.6348 H   0  0  0  0  0  0  0  0  0  0  0  0  # atno 10763 bound_to 10752
  153.4835  135.3688  155.2455 H   0  0  0  0  0  0  0  0  0  0  0  0  # atno 10764 bound_to 10752
  154.8718  135.4072  154.3482 H   0  0  0  0  0  0  0  0  0  0  0  0  # atno 10765 bound_to 10752
  139.9652  134.6993  156.0561 H   0  0  0  0  0  0  0  0  0  0  0  0  # atno 11005 bound_to 11000
  145.4072  139.1587  143.4145 LP  0  0  0  0  0  0  0  0  0  0  0  0  # atno 17320 bound_to 7965
  146.2952  140.4173  142.8724 LP  0  0  0  0  0  0  0  0  0  0  0  0  # atno 17321 bound_to 7965
  140.6544  143.2233  151.6002 LP  0  0  0  0  0  0  0  0  0  0  0  0  # atno 17342 bound_to 10162
  139.5312  144.2910  152.1152 LP  0  0  0  0  0  0  0  0  0  0  0  0  # atno 17343 bound_to 10162
  157.5858  130.8408  149.8587 LP  0  0  0  0  0  0  0  0  0  0  0  0  # atno 17370 bound_to 10713
  156.0455  130.3729  150.1329 LP  0  0  0  0  0  0  0  0  0  0  0  0  # atno 17371 bound_to 10713
  141.1331  133.6581  156.3519 LP  0  0  0  0  0  0  0  0  0  0  0  0  # atno 17394 bound_to 11000
  140.5413  134.6118  157.5380 LP  0  0  0  0  0  0  0  0  0  0  0  0  # atno 17395 bound_to 11000

$$$$
