AV-unprocessed.smi:72|AV-procd|sdf|694|dock2
  -GOLD-   2262017 03D 1   1.00000     0.00000
 Structure written by MMmdl.
 29 30  0  0  0  0  0  0  0  0  1 V2000
  152.2685  137.1168  159.9134 N   0  0  0  0  0  0  0  0  0  0  0  0
  151.4678  137.4572  158.9682 C   0  0  0  0  0  0  0  0  0  0  0  0
  150.3325  138.2680  159.1180 N   0  0  0  0  0  0  0  0  0  0  0  0
  149.6069  138.5197  158.0721 C   0  0  0  0  0  0  0  0  0  0  0  0
  149.9272  137.9818  156.7589 N   0  0  0  0  0  0  0  0  0  0  0  0
  149.0737  138.2975  155.5522 C   0  0  1  0  0  0  0  0  0  0  0  0
  148.0502  139.1704  155.9324 O   0  0  0  0  0  0  0  0  0  0  0  0
  147.9308  140.2209  154.9786 C   0  0  1  0  0  0  0  0  0  0  0  0
  147.3216  141.4632  155.6464 C   0  0  0  0  0  0  0  0  0  0  0  0
  147.2244  142.5175  154.7131 O   0  0  0  0  0  0  0  0  0  0  0  0
  149.3784  140.4166  154.5259 C   0  0  2  0  0  0  0  0  0  0  0  0
  149.4897  141.1114  153.2980 O   0  0  0  0  0  0  0  0  0  0  0  0
  149.9106  138.9884  154.4638 C   0  0  2  0  0  0  0  0  0  0  0  0
  149.6978  138.3801  153.2031 O   0  0  0  0  0  0  0  0  0  0  0  0
  151.0881  137.1902  156.5844 C   0  0  0  0  0  0  0  0  0  0  0  0
  151.4309  136.7511  155.4870 O   0  0  0  0  0  0  0  0  0  0  0  0
  151.8042  136.9536  157.7049 N   0  0  0  0  0  0  0  0  0  0  0  0
  148.6253  137.3550  155.2328 H   0  0  0  0  0  0  0  0  0  0  0  0
  147.3234  139.8807  154.1372 H   0  0  0  0  0  0  0  0  0  0  0  0
  149.9279  140.9663  155.2917 H   0  0  0  0  0  0  0  0  0  0  0  0
  150.9762  138.9440  154.6940 H   0  0  0  0  0  0  0  0  0  0  0  0
  151.9610  137.5165  160.7886 H   0  0  0  0  0  0  0  0  0  0  0  0
  148.7181  139.1508  158.1103 H   0  0  0  0  0  0  0  0  0  0  0  0
  146.3437  141.2436  156.0760 H   0  0  0  0  0  0  0  0  0  0  0  0
  147.9630  141.8050  156.4591 H   0  0  0  0  0  0  0  0  0  0  0  0
  147.7803  143.2258  155.0000 H   0  0  0  0  0  0  0  0  0  0  0  0
  149.3406  140.5001  152.5931 H   0  0  0  0  0  0  0  0  0  0  0  0
  149.8933  139.0120  152.5280 H   0  0  0  0  0  0  0  0  0  0  0  0
  152.6344  136.3858  157.6195 H   0  0  0  0  0  0  0  0  0  0  0  0
  1  2  2  0  0  0  0
  1 22  1  0  0  0  0
  2 17  1  0  0  0  0
  2  3  1  0  0  0  0
  3  4  2  0  0  0  0
  4  5  1  0  0  0  0
  4 23  1  0  0  0  0
  5  6  1  0  0  0  0
  5 15  1  0  0  0  0
  6 18  1  0  0  0  0
  6 13  1  0  0  0  0
  6  7  1  0  0  0  0
  7  8  1  0  0  0  0
  8 19  1  0  0  0  0
  8  9  1  0  0  0  0
  8 11  1  0  0  0  0
  9 10  1  0  0  0  0
  9 24  1  0  0  0  0
  9 25  1  0  0  0  0
 10 26  1  0  0  0  0
 11 20  1  0  0  0  0
 11 12  1  0  0  0  0
 11 13  1  0  0  0  0
 12 27  1  0  0  0  0
 13 21  1  0  0  0  0
 13 14  1  0  0  0  0
 14 28  1  0  0  0  0
 15 16  2  0  0  0  0
 15 17  1  0  0  0  0
 17 29  1  0  0  0  0
M  END
> <s_m_source_file>
AV-unprocessed.smi

> <i_m_source_file_index>
72

> <i_lp_mmshare_version>
43012

> <i_f3d_flags>
0

> <s_epik_input>
W05IMl1jMW5bY0hdbihjKD1PKW4xKVtDQEBIXTJPW0NASF0oW0NIMl1bT0hdKVtDQEBIXShbT0hdKVtDQEhdMltPSF0=

> <s_epik_cmdline>
J2VwaWtfcHl0aG9uJywgJy1waCcsICc3LjAnLCAnLXRuJywgJzgnLCAnLW1hJywgJzIwMCcsICctbWV0YWxfYmluZGluZycsICctaW1hZScsICc8aW5maWxlLm1hZT4nLCAnLW9tYWUnLCAnPG91dGZpbGUubWFlPic=

> <r_lp_tautomer_probability>
7.17554e-07

> <r_epik_Ionization_Penalty>
0.0066451

> <r_epik_Ionization_Penalty_Charging>
0.00663793

> <r_epik_Ionization_Penalty_Neutral>
7.17052e-06

> <r_epik_State_Penalty>
0.419231

> <r_epik_Charging_Adjusted_Penalty>
0.425868

> <i_epik_Tot_Q>
0

> <i_epik_Tot_abs_Q>
0

> <r_epik_Metal_State_Penalty>
1.44144

> <b_epik_Metal_Only>
0

> <s_epik_Chemistry_Notes>
This compound contains an acetal/aminal-like group ( X-CH(R)-Y where X, Y are N, S, or O) that may be acid/base labile, releasing an aldehyde.

> <s_lp_Force_Field>
OPLS_2005

> <r_lp_Energy>
41.633

> <b_lp_Chiralities_Consistent>
1

> <s_lp_Variant>
AV-unprocessed.smi:72-32

> <Gold.Version>
5.8.1

> <Gold.Id.Protein>
6NUR|6NUR_protein|mol2

> <Gold.PLP.Fitness>
37.9165

> <Gold.PLP.PLP>
-20.6532

> <Gold.PLP.part.hbond>
-8.3149

> <Gold.PLP.part.metal>
0.0000

> <Gold.PLP.part.buried>
-3.8256

> <Gold.PLP.part.nonpolar>
-8.8661

> <Gold.PLP.part.repulsive>
0.1929

> <Gold.PLP.ligand.clash>
0.0000

> <Gold.PLP.ligand.torsion>
0.0270

> <Gold.PLP.Chemscore.Hbond>
5.7665

> <Gold.PLP.Chemscore.CHOScore>
0.0000

> <Gold.PLP.Chemscore.Metal>
0.0000

> <Gold.Chemscore.Hbonds>
donor molecule, donor type, donor heavy atom, donor atom, acceptor molecule, acceptor atom, score
      L1  H    10    26       P1  8028  1.00
      L1  H    12    27       P1  7957  0.98
      L1  H    14    28       P1  7957  1.00
      P1  H  6896  6908       L1     1  0.96
      P1  H  7989  7998       L1    12  0.04
      P1  H  8011  8017       L1    12  0.80
      P1  H 10752 10765       L1    16  0.86

> <Gold.PLP.Chemscore.Internal.Correction>
0.0180

> <Gold.Rescore>
     Score         DG    S(hbond)    S(metal)    S(lipo)     H(rot)  DE(clash)    DE(int)     intcor
      9.00     -10.24       3.73        0.00      23.03       4.06       0.05       1.19       ----

> <Gold.Chemscore.Fitness>
9.0032

> <Gold.Chemscore.DG>
-10.2408

> <Gold.Chemscore.ZeroCoef>
-5.4800

> <Gold.Chemscore.Hbond>
3.7304

> <Gold.Chemscore.Metal>
0.0000

> <Gold.Chemscore.Lipo>
23.0344

> <Gold.Chemscore.Internal_Hbond>
0.0000

> <Gold.Chemscore.DEClash>
0.0515

> <Gold.Chemscore.DEInternal>
1.1861

> <Gold.Chemscore.Rot>
4.0600

> <Gold.Chemscore.Internal.Correction>
   9.000000E+99

> <Gold.Chemscore.Hbonds>
donor molecule, donor type, donor heavy atom, donor atom, acceptor molecule, acceptor atom, score
      L1  H    10    26       P1  8028  0.60
      L1  H    12    27       P1  7957  0.86
      L1  H    14    28       P1  7957  0.69
      P1  H  6896  6908       L1     1  0.15
      P1  H  8011  8017       L1    12  0.12
      P1  H 10752 10765       L1    16  0.84

> <Gold.Chemscore.Hbond.Weighted>
-12.4594

> <Gold.Chemscore.Metal.Weighted>
-0.0000

> <Gold.Chemscore.Lipo.Weighted>
-2.6950

> <Gold.Chemscore.Internal_Hbond.Weighted>
0.0000

> <Gold.Chemscore.DEClash.Weighted>
0.0515

> <Gold.Chemscore.DEInternal.Weighted>
1.1861

> <Gold.Chemscore.Rot.Weighted>
10.3936

> <Gold.Chemscore.Internal.Correction.Weighted>
   9.000000E+99

> <Gold.Protein.RotatedTorsions>
[ 6907 6896 6895 6894 ] final  -99.88 input  -60.11 | X-H torsion
[ 7974 7965 7964 7962 ] final  -33.59 input  175.53 | X-H torsion
[ 8008 7997 7996 7995 ] final  153.96 input   59.86 | X-H torsion
[ 10167 10162 10161 10158 ] final  -14.60 input  -65.29 | X-H torsion
[ 10718 10713 10712 10709 ] final -148.46 input   66.30 | X-H torsion
[ 10763 10752 10751 10750 ] final -176.03 input  -60.55 | X-H torsion
[ 11005 11000 10999 10996 ] final   27.31 input  -57.11 | X-H torsion

> <Gold.Protein.ActiveResidues>
 VAL166  LYS551  ARG553  GLY616  TRP617  ASP618  TYR619  PRO620  LYS621  CYS622 
 ASP623  PHE694  ASN695  SER759  ASP760  ASP761  ALA762  ILE779  LEU786  VAL792 
 PHE793  MET794  SER795  GLU796  ALA797  LYS798  CYS799  TRP800  GLU811  SER814 

> <Gold.Protein.RotatedAtoms>
  150.7095  134.0973  159.3952 H   0  0  0  0  0  0  0  0  0  0  0  0  # atno 6907 bound_to 6896
  151.8959  135.0395  160.0511 H   0  0  0  0  0  0  0  0  0  0  0  0  # atno 6908 bound_to 6896
  152.2454  133.5134  159.5331 H   0  0  0  0  0  0  0  0  0  0  0  0  # atno 6909 bound_to 6896
  146.0898  140.5935  142.8869 H   0  0  0  0  0  0  0  0  0  0  0  0  # atno 7974 bound_to 7965
  156.2556  140.1979  156.6571 H   0  0  0  0  0  0  0  0  0  0  0  0  # atno 8008 bound_to 7997
  154.6492  140.0574  156.9961 H   0  0  0  0  0  0  0  0  0  0  0  0  # atno 8009 bound_to 7997
  155.1443  140.3245  155.4448 H   0  0  0  0  0  0  0  0  0  0  0  0  # atno 8010 bound_to 7997
  140.7204  143.5305  150.9526 H   0  0  0  0  0  0  0  0  0  0  0  0  # atno 10167 bound_to 10162
  156.4206  130.8027  151.2249 H   0  0  0  0  0  0  0  0  0  0  0  0  # atno 10718 bound_to 10713
  154.5772  135.2833  155.0768 H   0  0  0  0  0  0  0  0  0  0  0  0  # atno 10763 bound_to 10752
  154.2118  135.6406  153.5121 H   0  0  0  0  0  0  0  0  0  0  0  0  # atno 10764 bound_to 10752
  153.0076  135.5493  154.6415 H   0  0  0  0  0  0  0  0  0  0  0  0  # atno 10765 bound_to 10752
  140.3276  134.2473  155.7707 H   0  0  0  0  0  0  0  0  0  0  0  0  # atno 11005 bound_to 11000
  144.7352  140.4787  143.6909 LP  0  0  0  0  0  0  0  0  0  0  0  0  # atno 17320 bound_to 7965
  145.6060  139.1508  143.3102 LP  0  0  0  0  0  0  0  0  0  0  0  0  # atno 17321 bound_to 7965
  139.9025  143.6819  152.3129 LP  0  0  0  0  0  0  0  0  0  0  0  0  # atno 17342 bound_to 10162
  139.7173  144.7609  151.1013 LP  0  0  0  0  0  0  0  0  0  0  0  0  # atno 17343 bound_to 10162
  157.7508  131.0229  150.3813 LP  0  0  0  0  0  0  0  0  0  0  0  0  # atno 17370 bound_to 10713
  156.4129  130.3937  149.6879 LP  0  0  0  0  0  0  0  0  0  0  0  0  # atno 17371 bound_to 10713
  141.2071  133.7814  157.0137 LP  0  0  0  0  0  0  0  0  0  0  0  0  # atno 17394 bound_to 11000
  140.0888  134.9605  157.1743 LP  0  0  0  0  0  0  0  0  0  0  0  0  # atno 17395 bound_to 11000

$$$$
