AV-unprocessed.smi:1075|AV-procd|sdf|4694|dock8
  -GOLD-   22720 3213D 1   1.00000     0.00000
 Structure written by MMmdl.
 50 51  0  0  0  0  0  0  0  0  1 V2000
  152.2471  138.5797  155.7926 C   0  0  0  0  0  0  0  0  0  0  0  0
  151.0732  139.5110  155.8980 C   0  0  0  0  0  0  0  0  0  0  0  0
  150.6214  140.1071  154.8083 N   0  0  0  0  0  0  0  0  0  0  0  0
  149.5792  140.8495  155.2294 N   0  0  0  0  0  0  0  0  0  0  0  0
  148.8414  141.6438  154.2662 C   0  0  0  0  0  0  0  0  0  0  0  0
  149.3673  140.7182  156.5885 C   0  0  0  0  0  0  0  0  0  0  0  0
  148.2552  141.4349  157.2878 C   0  0  0  0  0  0  0  0  0  0  0  0
  150.3273  139.8597  157.0628 C   0  0  0  0  0  0  0  0  0  0  0  0
  150.5680  139.3546  158.4722 C   0  0  1  0  0  0  0  0  0  0  0  0
  150.4526  137.8206  158.5587 C   0  0  0  0  0  0  0  0  0  0  0  0
  151.9073  139.8961  159.0009 C   0  0  0  0  0  0  0  0  0  0  0  0
  152.9517  139.7091  158.3762 O   0  0  0  0  0  0  0  0  0  0  0  0
  151.8470  140.5629  160.1682 N   0  0  0  0  0  0  0  0  0  0  0  0
  152.9294  141.2073  160.9230 C   0  0  1  0  0  0  0  0  0  0  0  0
  153.9015  140.1372  161.4654 C   0  0  0  0  0  0  0  0  0  0  0  0
  153.6954  142.1267  159.9418 C   0  0  0  0  0  0  0  0  0  0  0  0
  152.8432  143.3057  159.4349 C   0  0  0  0  0  0  0  0  0  0  0  0
  152.2861  144.1452  160.5990 C   0  0  1  0  0  0  0  0  0  0  0  0
  151.4185  145.3050  160.0903 C   0  0  0  0  0  0  0  0  0  0  0  0
  151.5115  143.2512  161.5847 C   0  0  0  0  0  0  0  0  0  0  0  0
  152.3749  142.0769  162.0814 C   0  0  0  0  0  0  0  0  0  0  0  0
  151.9770  137.5760  156.1217 H   0  0  0  0  0  0  0  0  0  0  0  0
  153.0731  138.9229  156.4157 H   0  0  0  0  0  0  0  0  0  0  0  0
  152.6144  138.5039  154.7684 H   0  0  0  0  0  0  0  0  0  0  0  0
  147.8566  141.2036  154.1080 H   0  0  0  0  0  0  0  0  0  0  0  0
  149.3695  141.6820  153.3124 H   0  0  0  0  0  0  0  0  0  0  0  0
  148.7223  142.6604  154.6410 H   0  0  0  0  0  0  0  0  0  0  0  0
  147.9885  140.9399  158.2209 H   0  0  0  0  0  0  0  0  0  0  0  0
  147.3570  141.4676  156.6713 H   0  0  0  0  0  0  0  0  0  0  0  0
  148.5448  142.4595  157.5208 H   0  0  0  0  0  0  0  0  0  0  0  0
  149.8074  139.7583  159.1414 H   0  0  0  0  0  0  0  0  0  0  0  0
  151.1974  137.3170  157.9429 H   0  0  0  0  0  0  0  0  0  0  0  0
  149.4697  137.4883  158.2237 H   0  0  0  0  0  0  0  0  0  0  0  0
  150.5798  137.4709  159.5839 H   0  0  0  0  0  0  0  0  0  0  0  0
  150.9295  140.6462  160.5815 H   0  0  0  0  0  0  0  0  0  0  0  0
  154.7681  140.5972  161.9414 H   0  0  0  0  0  0  0  0  0  0  0  0
  154.2704  139.4948  160.6649 H   0  0  0  0  0  0  0  0  0  0  0  0
  153.4322  139.4971  162.2123 H   0  0  0  0  0  0  0  0  0  0  0  0
  154.5839  142.5257  160.4334 H   0  0  0  0  0  0  0  0  0  0  0  0
  154.0584  141.5486  159.0906 H   0  0  0  0  0  0  0  0  0  0  0  0
  153.4490  143.9350  158.7822 H   0  0  0  0  0  0  0  0  0  0  0  0
  152.0228  142.9335  158.8197 H   0  0  0  0  0  0  0  0  0  0  0  0
  153.1326  144.5783  161.1339 H   0  0  0  0  0  0  0  0  0  0  0  0
  150.5475  144.9397  159.5453 H   0  0  0  0  0  0  0  0  0  0  0  0
  151.9837  145.9522  159.4194 H   0  0  0  0  0  0  0  0  0  0  0  0
  151.0606  145.9193  160.9169 H   0  0  0  0  0  0  0  0  0  0  0  0
  151.1809  143.8433  162.4385 H   0  0  0  0  0  0  0  0  0  0  0  0
  150.6064  142.8701  161.1101 H   0  0  0  0  0  0  0  0  0  0  0  0
  151.8006  141.4728  162.7838 H   0  0  0  0  0  0  0  0  0  0  0  0
  153.2088  142.4788  162.6585 H   0  0  0  0  0  0  0  0  0  0  0  0
  1  2  1  0  0  0  0
  1 22  1  0  0  0  0
  1 23  1  0  0  0  0
  1 24  1  0  0  0  0
  2  8  1  0  0  0  0
  2  3  2  0  0  0  0
  3  4  1  0  0  0  0
  4  5  1  0  0  0  0
  4  6  1  0  0  0  0
  5 25  1  0  0  0  0
  5 26  1  0  0  0  0
  5 27  1  0  0  0  0
  6  7  1  0  0  0  0
  6  8  2  0  0  0  0
  7 28  1  0  0  0  0
  7 29  1  0  0  0  0
  7 30  1  0  0  0  0
  8  9  1  0  0  0  0
  9 10  1  0  0  0  0
  9 11  1  0  0  0  0
  9 31  1  0  0  0  0
 10 32  1  0  0  0  0
 10 33  1  0  0  0  0
 10 34  1  0  0  0  0
 11 12  2  0  0  0  0
 11 13  1  0  0  0  0
 13 14  1  0  0  0  0
 13 35  1  0  0  0  0
 14 21  1  0  0  0  0
 14 15  1  0  0  0  0
 14 16  1  0  0  0  0
 15 36  1  0  0  0  0
 15 37  1  0  0  0  0
 15 38  1  0  0  0  0
 16 17  1  0  0  0  0
 16 39  1  0  0  0  0
 16 40  1  0  0  0  0
 17 18  1  0  0  0  0
 17 41  1  0  0  0  0
 17 42  1  0  0  0  0
 18 19  1  0  0  0  0
 18 20  1  0  0  0  0
 18 43  1  0  0  0  0
 19 44  1  0  0  0  0
 19 45  1  0  0  0  0
 19 46  1  0  0  0  0
 20 21  1  0  0  0  0
 20 47  1  0  0  0  0
 20 48  1  0  0  0  0
 21 49  1  0  0  0  0
 21 50  1  0  0  0  0
M  END
> <s_m_source_file>
AV-unprocessed.smi

> <i_m_source_file_index>
1075

> <i_lp_mmshare_version>
43012

> <i_f3d_flags>
0

> <s_epik_input>
W0NIM11jMW5uKFtDSDNdKWMoW0NIM10pYzFbQ0BIXShbQ0gzXSlDKD1PKVtOSF1bQ0BAXTIoW0NIM10pW0NIMl1bQ0gyXVtDQEBIXShbQ0gzXSlbQ0gyXVtDSDJdMg==

> <s_epik_cmdline>
J2VwaWtfcHl0aG9uJywgJy1waCcsICc3LjAnLCAnLXRuJywgJzgnLCAnLW1hJywgJzIwMCcsICctbWV0YWxfYmluZGluZycsICctaW1hZScsICc8aW5maWxlLm1hZT4nLCAnLW9tYWUnLCAnPG91dGZpbGUubWFlPic=

> <r_lp_tautomer_probability>
1

> <r_epik_Ionization_Penalty>
0.00502928

> <r_epik_Ionization_Penalty_Charging>
0

> <r_epik_Ionization_Penalty_Neutral>
0.00502928

> <r_epik_State_Penalty>
0.0036576

> <r_epik_Charging_Adjusted_Penalty>
0.0036576

> <i_epik_Tot_Q>
0

> <i_epik_Tot_abs_Q>
0

> <r_epik_Metal_State_Penalty>
-0

> <b_epik_Metal_Only>
0

> <s_lp_Force_Field>
OPLS_2005

> <r_lp_Energy>
4.5461

> <b_lp_Chiralities_Consistent>
1

> <s_lp_Variant>
AV-unprocessed.smi:1075-2

> <Gold.Version>
5.8.1

> <Gold.Id.Protein>
6NUR|6NUR_protein|mol2

> <Gold.PLP.Fitness>
52.4077

> <Gold.PLP.PLP>
-47.1237

> <Gold.PLP.part.hbond>
-2.0000

> <Gold.PLP.part.metal>
0.0000

> <Gold.PLP.part.buried>
-3.7788

> <Gold.PLP.part.nonpolar>
-41.0867

> <Gold.PLP.part.repulsive>
0.2462

> <Gold.PLP.ligand.clash>
0.0000

> <Gold.PLP.ligand.torsion>
0.2965

> <Gold.PLP.Chemscore.Hbond>
1.9280

> <Gold.PLP.Chemscore.CHOScore>
0.0000

> <Gold.PLP.Chemscore.Metal>
0.0000

> <Gold.Chemscore.Hbonds>
donor molecule, donor type, donor heavy atom, donor atom, acceptor molecule, acceptor atom, score
      P1  H  7989  7998       L1     3  1.00
      P1  H  7997  8008       L1    12  0.70

> <Gold.PLP.Chemscore.Internal.Correction>
0.0930

> <Gold.Rescore>
     Score         DG    S(hbond)    S(metal)    S(lipo)     H(rot)  DE(clash)    DE(int)     intcor
     19.50     -21.04       1.09        0.00     128.98       1.23       0.25       1.30       ----

> <Gold.Chemscore.Fitness>
19.4988

> <Gold.Chemscore.DG>
-21.0443

> <Gold.Chemscore.ZeroCoef>
-5.4800

> <Gold.Chemscore.Hbond>
1.0860

> <Gold.Chemscore.Metal>
0.0000

> <Gold.Chemscore.Lipo>
128.9842

> <Gold.Chemscore.Internal_Hbond>
0.0000

> <Gold.Chemscore.DEClash>
0.2487

> <Gold.Chemscore.DEInternal>
1.2968

> <Gold.Chemscore.Rot>
1.2321

> <Gold.Chemscore.Internal.Correction>
   9.000000E+99

> <Gold.Chemscore.Hbonds>
donor molecule, donor type, donor heavy atom, donor atom, acceptor molecule, acceptor atom, score
      P1  H  7989  7998       L1     3  0.90
      P1  H  7997  8008       L1    12  0.71

> <Gold.Chemscore.Hbond.Weighted>
-3.6272

> <Gold.Chemscore.Metal.Weighted>
-0.0000

> <Gold.Chemscore.Lipo.Weighted>
-15.0912

> <Gold.Chemscore.Internal_Hbond.Weighted>
0.0000

> <Gold.Chemscore.DEClash.Weighted>
0.2487

> <Gold.Chemscore.DEInternal.Weighted>
1.2968

> <Gold.Chemscore.Rot.Weighted>
3.1541

> <Gold.Chemscore.Internal.Correction.Weighted>
   9.000000E+99

> <Gold.Protein.RotatedTorsions>
[ 6907 6896 6895 6894 ] final   84.63 input  -60.11 | X-H torsion
[ 7974 7965 7964 7962 ] final  -66.54 input  175.53 | X-H torsion
[ 8008 7997 7996 7995 ] final  -87.55 input   59.86 | X-H torsion
[ 10167 10162 10161 10158 ] final  -23.20 input  -65.29 | X-H torsion
[ 10718 10713 10712 10709 ] final  -25.59 input   66.30 | X-H torsion
[ 10763 10752 10751 10750 ] final  -30.75 input  -60.55 | X-H torsion
[ 11005 11000 10999 10996 ] final  -64.07 input  -57.11 | X-H torsion

> <Gold.Protein.ActiveResidues>
 VAL166  LYS551  ARG553  GLY616  TRP617  ASP618  TYR619  PRO620  LYS621  CYS622 
 ASP623  PHE694  ASN695  SER759  ASP760  ASP761  ALA762  ILE779  LEU786  VAL792 
 PHE793  MET794  SER795  GLU796  ALA797  LYS798  CYS799  TRP800  GLU811  SER814 

> <Gold.Protein.RotatedAtoms>
  152.5357  134.2711  159.8971 H   0  0  0  0  0  0  0  0  0  0  0  0  # atno 6907 bound_to 6896
  151.2667  133.4268  159.2626 H   0  0  0  0  0  0  0  0  0  0  0  0  # atno 6908 bound_to 6896
  151.0404  134.9618  159.8215 H   0  0  0  0  0  0  0  0  0  0  0  0  # atno 6909 bound_to 6896
  145.7405  140.8956  143.0532 H   0  0  0  0  0  0  0  0  0  0  0  0  # atno 7974 bound_to 7965
  154.6645  140.0564  157.0099 H   0  0  0  0  0  0  0  0  0  0  0  0  # atno 8008 bound_to 7997
  155.1179  140.3244  155.4486 H   0  0  0  0  0  0  0  0  0  0  0  0  # atno 8009 bound_to 7997
  156.2632  140.2003  156.6301 H   0  0  0  0  0  0  0  0  0  0  0  0  # atno 8010 bound_to 7997
  140.7287  143.4464  151.0580 H   0  0  0  0  0  0  0  0  0  0  0  0  # atno 10167 bound_to 10162
  156.4623  130.4506  149.6921 H   0  0  0  0  0  0  0  0  0  0  0  0  # atno 10718 bound_to 10713
  153.7861  135.6901  153.4880 H   0  0  0  0  0  0  0  0  0  0  0  0  # atno 10763 bound_to 10752
  153.1780  135.4517  154.9989 H   0  0  0  0  0  0  0  0  0  0  0  0  # atno 10764 bound_to 10752
  154.8063  135.3358  154.7360 H   0  0  0  0  0  0  0  0  0  0  0  0  # atno 10765 bound_to 10752
  141.1413  133.6660  156.5777 H   0  0  0  0  0  0  0  0  0  0  0  0  # atno 11005 bound_to 11000
  144.6872  139.9453  143.7476 LP  0  0  0  0  0  0  0  0  0  0  0  0  # atno 17320 bound_to 7965
  146.0453  139.3459  143.0673 LP  0  0  0  0  0  0  0  0  0  0  0  0  # atno 17321 bound_to 7965
  139.8137  143.7916  152.3173 LP  0  0  0  0  0  0  0  0  0  0  0  0  # atno 17342 bound_to 10162
  139.7974  144.7387  150.9871 LP  0  0  0  0  0  0  0  0  0  0  0  0  # atno 17343 bound_to 10162
  156.3703  130.7527  151.2509 LP  0  0  0  0  0  0  0  0  0  0  0  0  # atno 17370 bound_to 10713
  157.7497  131.0325  150.4229 LP  0  0  0  0  0  0  0  0  0  0  0  0  # atno 17371 bound_to 10713
  140.3862  134.7480  157.4693 LP  0  0  0  0  0  0  0  0  0  0  0  0  # atno 17394 bound_to 11000
  140.0600  134.6009  155.8760 LP  0  0  0  0  0  0  0  0  0  0  0  0  # atno 17395 bound_to 11000

$$$$
