AV-unprocessed.smi:3128|AV-procd|sdf|11919|dock3
  -GOLD-   2272017303D 1   1.00000     0.00000
 Structure written by MMmdl.
 40 40  0  0  0  0  0  0  0  0  2 V2000
  144.8130  135.7953  150.5046 C   0  0  0  0  0  0  0  0  0  0  0  0
  144.1944  135.5859  151.9006 C   0  0  0  0  0  0  0  0  0  0  0  0
  143.1270  134.4790  151.8261 C   0  0  0  0  0  0  0  0  0  0  0  0
  143.6372  136.9051  152.4987 C   0  0  1  0  0  0  0  0  0  0  0  0
  143.1844  136.7700  153.9635 C   0  0  0  0  0  0  0  0  0  0  0  0
  144.6489  137.9599  152.4278 N   0  0  0  0  0  0  0  0  0  0  0  0
  145.9325  137.8499  152.8054 C   0  0  0  0  0  0  0  0  0  0  0  0
  146.4214  136.8174  153.2653 O   0  0  0  0  0  0  0  0  0  0  0  0
  146.7942  139.0993  152.6162 C   0  0  0  0  0  0  0  0  0  0  0  0
  148.2317  138.8210  152.8110 N   0  3  0  0  0  0  0  0  0  0  0  0
  148.7026  139.0419  154.1919 C   0  0  0  0  0  0  0  0  0  0  0  0
  149.0181  140.5237  154.4401 C   0  0  0  0  0  0  0  0  0  0  0  0
  149.9942  140.6926  155.4992 N   0  0  0  0  0  0  0  0  0  0  0  0
  149.8788  141.4167  156.6674 C   0  0  0  0  0  0  0  0  0  0  0  0
  151.0550  141.2795  157.3474 C   0  0  0  0  0  0  0  0  0  0  0  0
  151.8370  140.4402  156.5054 C   0  0  0  0  0  0  0  0  0  0  0  0
  151.1989  140.0906  155.3997 N   0  0  0  0  0  0  0  0  0  0  0  0
  144.0800  136.1986  149.8051 H   0  0  0  0  0  0  0  0  0  0  0  0
  145.1803  134.8548  150.0926 H   0  0  0  0  0  0  0  0  0  0  0  0
  145.6602  136.4807  150.5318 H   0  0  0  0  0  0  0  0  0  0  0  0
  144.9897  135.2259  152.5552 H   0  0  0  0  0  0  0  0  0  0  0  0
  142.2636  134.7989  151.2420 H   0  0  0  0  0  0  0  0  0  0  0  0
  142.7748  134.1877  152.8153 H   0  0  0  0  0  0  0  0  0  0  0  0
  143.5274  133.5789  151.3584 H   0  0  0  0  0  0  0  0  0  0  0  0
  142.7662  137.1938  151.9071 H   0  0  0  0  0  0  0  0  0  0  0  0
  142.3391  136.0898  154.0649 H   0  0  0  0  0  0  0  0  0  0  0  0
  142.8641  137.7322  154.3646 H   0  0  0  0  0  0  0  0  0  0  0  0
  143.9917  136.3996  154.5964 H   0  0  0  0  0  0  0  0  0  0  0  0
  144.3423  138.8474  152.0563 H   0  0  0  0  0  0  0  0  0  0  0  0
  146.6313  139.4863  151.6095 H   0  0  0  0  0  0  0  0  0  0  0  0
  146.4780  139.8708  153.3201 H   0  0  0  0  0  0  0  0  0  0  0  0
  148.4060  137.8590  152.5575 H   0  0  0  0  0  0  0  0  0  0  0  0
  147.9358  138.6977  154.8875 H   0  0  0  0  0  0  0  0  0  0  0  0
  149.5939  138.4381  154.3687 H   0  0  0  0  0  0  0  0  0  0  0  0
  149.4077  140.9872  153.5326 H   0  0  0  0  0  0  0  0  0  0  0  0
  148.1131  141.0694  154.7120 H   0  0  0  0  0  0  0  0  0  0  0  0
  148.9811  141.9639  156.9149 H   0  0  0  0  0  0  0  0  0  0  0  0
  151.3172  141.7117  158.3017 H   0  0  0  0  0  0  0  0  0  0  0  0
  152.8420  140.0772  156.6639 H   0  0  0  0  0  0  0  0  0  0  0  0
  148.7585  139.4174  152.1882 H   0  0  0  0  0  0  0  0  0  0  0  0
  1  2  1  0  0  0  0
  1 18  1  0  0  0  0
  1 19  1  0  0  0  0
  1 20  1  0  0  0  0
  2  3  1  0  0  0  0
  2  4  1  0  0  0  0
  2 21  1  0  0  0  0
  3 22  1  0  0  0  0
  3 23  1  0  0  0  0
  3 24  1  0  0  0  0
  4  5  1  0  0  0  0
  4  6  1  0  0  0  0
  4 25  1  0  0  0  0
  5 26  1  0  0  0  0
  5 27  1  0  0  0  0
  5 28  1  0  0  0  0
  6  7  1  0  0  0  0
  6 29  1  0  0  0  0
  7  8  2  0  0  0  0
  7  9  1  0  0  0  0
  9 10  1  0  0  0  0
  9 30  1  0  0  0  0
  9 31  1  0  0  0  0
 10 11  1  0  0  0  0
 10 32  1  0  0  0  0
 10 40  1  0  0  0  0
 11 12  1  0  0  0  0
 11 33  1  0  0  0  0
 11 34  1  0  0  0  0
 12 13  1  0  0  0  0
 12 35  1  0  0  0  0
 12 36  1  0  0  0  0
 13 17  1  0  0  0  0
 13 14  1  0  0  0  0
 14 15  2  0  0  0  0
 14 37  1  0  0  0  0
 15 16  1  0  0  0  0
 15 38  1  0  0  0  0
 16 17  2  0  0  0  0
 16 39  1  0  0  0  0
M  CHG  1  10   1
M  END
> <s_m_source_file>
AV-unprocessed.smi

> <i_m_source_file_index>
3128

> <i_lp_mmshare_version>
43012

> <i_f3d_flags>
0

> <s_epik_input>
W0NIM11bQ0hdKFtDSDNdKVtDQEhdKFtDSDNdKVtOSF1DKD1PKVtDSDJdW05IXVtDSDJdW0NIMl1uMVtjSF1bY0hdW2NIXW4x

> <s_epik_cmdline>
J2VwaWtfcHl0aG9uJywgJy1waCcsICc3LjAnLCAnLXRuJywgJzgnLCAnLW1hJywgJzIwMCcsICctbWV0YWxfYmluZGluZycsICctaW1hZScsICc8aW5maWxlLm1hZT4nLCAnLW9tYWUnLCAnPG91dGZpbGUubWFlPic=

> <r_lp_tautomer_probability>
1

> <r_epik_Ionization_Penalty>
0.20724

> <r_epik_Ionization_Penalty_Charging>
0.207237

> <r_epik_Ionization_Penalty_Neutral>
3.20642e-06

> <r_epik_State_Penalty>
0.197613

> <r_epik_Charging_Adjusted_Penalty>
0.40485

> <i_epik_Tot_Q>
1

> <i_epik_Tot_abs_Q>
1

> <r_epik_Metal_State_Penalty>
0.197789

> <b_epik_Metal_Only>
0

> <s_lp_Force_Field>
OPLS_2005

> <r_lp_Energy>
4.49363

> <b_lp_Chiralities_Consistent>
1

> <s_lp_Variant>
AV-unprocessed.smi:3128-2

> <Gold.Version>
5.8.1

> <Gold.Id.Protein>
6NUR|6NUR_protein|mol2

> <Gold.PLP.Fitness>
47.3282

> <Gold.PLP.PLP>
-33.0351

> <Gold.PLP.part.hbond>
-4.8139

> <Gold.PLP.part.metal>
0.0000

> <Gold.PLP.part.buried>
-4.0251

> <Gold.PLP.part.nonpolar>
-24.4000

> <Gold.PLP.part.repulsive>
0.4379

> <Gold.PLP.ligand.clash>
0.0000

> <Gold.PLP.ligand.torsion>
0.8083

> <Gold.PLP.Chemscore.Hbond>
4.4770

> <Gold.PLP.Chemscore.CHOScore>
0.7672

> <Gold.PLP.Chemscore.Metal>
0.0000

> <Gold.Chemscore.Hbonds>
donor molecule, donor type, donor heavy atom, donor atom, acceptor molecule, acceptor atom, score
      L1  H     6    29       P1 10175  0.93
      L1  H    10    32       P1  7948  2.00
      L1  H    10    40       P1  7957  0.83
      P1  H  7989  7998       L1    17  0.62

> <Gold.PLP.Chemscore.Internal.Correction>
0.1770

> <Gold.Rescore>
     Score         DG    S(hbond)    S(metal)    S(lipo)     H(rot)  DE(clash)    DE(int)     intcor
     17.10     -18.99       3.71        0.00      58.70       2.24       0.10       1.78       ----

> <Gold.Chemscore.Fitness>
17.1015

> <Gold.Chemscore.DG>
-18.9860

> <Gold.Chemscore.ZeroCoef>
-5.4800

> <Gold.Chemscore.Hbond>
3.7055

> <Gold.Chemscore.Metal>
0.0000

> <Gold.Chemscore.Lipo>
58.7022

> <Gold.Chemscore.Internal_Hbond>
0.0000

> <Gold.Chemscore.DEClash>
0.1038

> <Gold.Chemscore.DEInternal>
1.7807

> <Gold.Chemscore.Rot>
2.2416

> <Gold.Chemscore.Internal.Correction>
   9.000000E+99

> <Gold.Chemscore.Hbonds>
donor molecule, donor type, donor heavy atom, donor atom, acceptor molecule, acceptor atom, score
      L1  H     6    29       P1 10175  0.90
      L1  H    10    32       P1  7948  1.00
      L1  H    10    40       P1  7957  0.80
      P1  H  7989  7998       L1    17  0.08

> <Gold.Chemscore.Hbond.Weighted>
-12.3763

> <Gold.Chemscore.Metal.Weighted>
-0.0000

> <Gold.Chemscore.Lipo.Weighted>
-6.8682

> <Gold.Chemscore.Internal_Hbond.Weighted>
0.0000

> <Gold.Chemscore.DEClash.Weighted>
0.1038

> <Gold.Chemscore.DEInternal.Weighted>
1.7807

> <Gold.Chemscore.Rot.Weighted>
5.7385

> <Gold.Chemscore.Internal.Correction.Weighted>
   9.000000E+99

> <Gold.Protein.RotatedTorsions>
[ 6907 6896 6895 6894 ] final  -22.81 input  -60.11 | X-H torsion
[ 7974 7965 7964 7962 ] final  122.14 input  175.53 | X-H torsion
[ 8008 7997 7996 7995 ] final -101.99 input   59.86 | X-H torsion
[ 10167 10162 10161 10158 ] final   87.81 input  -65.29 | X-H torsion
[ 10718 10713 10712 10709 ] final   96.18 input   66.30 | X-H torsion
[ 10763 10752 10751 10750 ] final -166.15 input  -60.55 | X-H torsion
[ 11005 11000 10999 10996 ] final  -50.34 input  -57.11 | X-H torsion

> <Gold.Protein.ActiveResidues>
 VAL166  LYS551  ARG553  GLY616  TRP617  ASP618  TYR619  PRO620  LYS621  CYS622 
 ASP623  PHE694  ASN695  SER759  ASP760  ASP761  ALA762  ILE779  LEU786  VAL792 
 PHE793  MET794  SER795  GLU796  ALA797  LYS798  CYS799  TRP800  GLU811  SER814 

> <Gold.Protein.RotatedAtoms>
  151.2132  135.0489  159.8919 H   0  0  0  0  0  0  0  0  0  0  0  0  # atno 6907 bound_to 6896
  152.5422  134.0722  159.8209 H   0  0  0  0  0  0  0  0  0  0  0  0  # atno 6908 bound_to 6896
  151.0878  133.5291  159.2648 H   0  0  0  0  0  0  0  0  0  0  0  0  # atno 6909 bound_to 6896
  145.1111  139.3452  143.4763 H   0  0  0  0  0  0  0  0  0  0  0  0  # atno 7974 bound_to 7965
  154.8504  140.0431  157.1600 H   0  0  0  0  0  0  0  0  0  0  0  0  # atno 8008 bound_to 7997
  154.8949  140.2992  155.5329 H   0  0  0  0  0  0  0  0  0  0  0  0  # atno 8009 bound_to 7997
  156.2996  140.2386  156.3969 H   0  0  0  0  0  0  0  0  0  0  0  0  # atno 8010 bound_to 7997
  139.8736  144.6479  150.8921 H   0  0  0  0  0  0  0  0  0  0  0  0  # atno 10167 bound_to 10162
  157.6930  131.0570  150.4452 H   0  0  0  0  0  0  0  0  0  0  0  0  # atno 10718 bound_to 10713
  154.6862  135.2963  154.9544 H   0  0  0  0  0  0  0  0  0  0  0  0  # atno 10763 bound_to 10752
  154.0522  135.6643  153.4806 H   0  0  0  0  0  0  0  0  0  0  0  0  # atno 10764 bound_to 10752
  153.0580  135.5132  154.7930 H   0  0  0  0  0  0  0  0  0  0  0  0  # atno 10765 bound_to 10752
  141.0810  133.6653  156.3716 H   0  0  0  0  0  0  0  0  0  0  0  0  # atno 11005 bound_to 11000
  146.3526  140.1030  142.8607 LP  0  0  0  0  0  0  0  0  0  0  0  0  # atno 17320 bound_to 7965
  145.0846  140.9244  143.4805 LP  0  0  0  0  0  0  0  0  0  0  0  0  # atno 17321 bound_to 7965
  140.7756  143.3643  151.1769 LP  0  0  0  0  0  0  0  0  0  0  0  0  # atno 17342 bound_to 10162
  139.7261  143.9147  152.3003 LP  0  0  0  0  0  0  0  0  0  0  0  0  # atno 17343 bound_to 10162
  156.4808  130.4073  149.6463 LP  0  0  0  0  0  0  0  0  0  0  0  0  # atno 17370 bound_to 10713
  156.3509  130.7431  151.2391 LP  0  0  0  0  0  0  0  0  0  0  0  0  # atno 17371 bound_to 10713
  140.5468  134.6067  157.5396 LP  0  0  0  0  0  0  0  0  0  0  0  0  # atno 17394 bound_to 11000
  139.9624  134.7430  156.0209 LP  0  0  0  0  0  0  0  0  0  0  0  0  # atno 17395 bound_to 11000

$$$$
