AV-unprocessed.smi:2255|AV-procd|sdf|9125|dock3
  -GOLD-   2272012333D 1   1.00000     0.00000
 Structure written by MMmdl.
 46 47  0  0  0  0  0  0  0  0  1 V2000
  146.4638  129.0598  152.8383 C   0  0  0  0  0  0  0  0  0  0  0  0
  146.3864  130.4410  152.2226 C   0  0  0  0  0  0  0  0  0  0  0  0
  145.6074  130.6808  151.0737 C   0  0  0  0  0  0  0  0  0  0  0  0
  145.5847  131.9855  150.5490 C   0  0  0  0  0  0  0  0  0  0  0  0
  146.3373  132.9889  151.1892 C   0  0  0  0  0  0  0  0  0  0  0  0
  147.0918  132.6648  152.3391 C   0  0  0  0  0  0  0  0  0  0  0  0
  147.8201  133.7443  152.9057 N   0  0  0  0  0  0  0  0  0  0  0  0
  148.3348  133.8407  154.1443 C   0  0  0  0  0  0  0  0  0  0  0  0
  148.2104  132.9984  155.0339 O   0  0  0  0  0  0  0  0  0  0  0  0
  149.0085  134.9902  154.2975 N   0  0  0  0  0  0  0  0  0  0  0  0
  149.7052  135.4180  155.5094 C   0  0  0  0  0  0  0  0  0  0  0  0
  150.4734  136.7400  155.2983 C   0  0  0  0  0  0  0  0  0  0  0  0
  149.5954  137.9700  154.9904 C   0  0  0  0  0  0  0  0  0  0  0  0
  148.3699  137.8458  154.9697 O   0  0  0  0  0  0  0  0  0  0  0  0
  150.1954  139.1592  154.7355 N   0  0  0  0  0  0  0  0  0  0  0  0
  151.6553  139.3066  154.7924 C   0  0  0  0  0  0  0  0  0  0  0  0
  152.1640  139.5069  156.2349 C   0  0  0  0  0  0  0  0  0  0  0  0
  151.2456  140.3266  157.1681 C   0  0  0  0  0  0  0  0  0  0  0  0
  150.5807  141.5594  156.5241 C   0  0  0  0  0  0  0  0  0  0  0  0
  149.2816  141.2351  155.7567 C   0  0  0  0  0  0  0  0  0  0  0  0
  149.4901  140.4210  154.4664 C   0  0  0  0  0  0  0  0  0  0  0  0
  147.1067  131.4034  152.8376 N   0  0  0  0  0  0  0  0  0  0  0  0
  145.7492  128.3793  152.3747 H   0  0  0  0  0  0  0  0  0  0  0  0
  146.2458  129.1050  153.9057 H   0  0  0  0  0  0  0  0  0  0  0  0
  147.4640  128.6454  152.7085 H   0  0  0  0  0  0  0  0  0  0  0  0
  145.0432  129.8882  150.6045 H   0  0  0  0  0  0  0  0  0  0  0  0
  145.0019  132.2137  149.6690 H   0  0  0  0  0  0  0  0  0  0  0  0
  146.3322  133.9958  150.7977 H   0  0  0  0  0  0  0  0  0  0  0  0
  147.9818  134.5278  152.2910 H   0  0  0  0  0  0  0  0  0  0  0  0
  149.0517  135.6188  153.5087 H   0  0  0  0  0  0  0  0  0  0  0  0
  148.9520  135.5632  156.2840 H   0  0  0  0  0  0  0  0  0  0  0  0
  150.3778  134.6468  155.8893 H   0  0  0  0  0  0  0  0  0  0  0  0
  151.0745  136.9404  156.1855 H   0  0  0  0  0  0  0  0  0  0  0  0
  151.1682  136.6041  154.4695 H   0  0  0  0  0  0  0  0  0  0  0  0
  152.1518  138.4482  154.3362 H   0  0  0  0  0  0  0  0  0  0  0  0
  151.9741  140.1572  154.1895 H   0  0  0  0  0  0  0  0  0  0  0  0
  152.3313  138.5319  156.6941 H   0  0  0  0  0  0  0  0  0  0  0  0
  153.1455  139.9795  156.1887 H   0  0  0  0  0  0  0  0  0  0  0  0
  150.4733  139.6787  157.5847 H   0  0  0  0  0  0  0  0  0  0  0  0
  151.8403  140.6508  158.0227 H   0  0  0  0  0  0  0  0  0  0  0  0
  150.3264  142.2601  157.3203 H   0  0  0  0  0  0  0  0  0  0  0  0
  151.2884  142.0848  155.8820 H   0  0  0  0  0  0  0  0  0  0  0  0
  148.5899  140.7130  156.4184 H   0  0  0  0  0  0  0  0  0  0  0  0
  148.7875  142.1712  155.4945 H   0  0  0  0  0  0  0  0  0  0  0  0
  150.0506  141.0213  153.7489 H   0  0  0  0  0  0  0  0  0  0  0  0
  148.5307  140.2553  153.9785 H   0  0  0  0  0  0  0  0  0  0  0  0
  1  2  1  0  0  0  0
  1 23  1  0  0  0  0
  1 24  1  0  0  0  0
  1 25  1  0  0  0  0
  2 22  1  0  0  0  0
  2  3  2  0  0  0  0
  3  4  1  0  0  0  0
  3 26  1  0  0  0  0
  4  5  2  0  0  0  0
  4 27  1  0  0  0  0
  5  6  1  0  0  0  0
  5 28  1  0  0  0  0
  6  7  1  0  0  0  0
  6 22  2  0  0  0  0
  7  8  1  0  0  0  0
  7 29  1  0  0  0  0
  8  9  2  0  0  0  0
  8 10  1  0  0  0  0
 10 11  1  0  0  0  0
 10 30  1  0  0  0  0
 11 12  1  0  0  0  0
 11 31  1  0  0  0  0
 11 32  1  0  0  0  0
 12 13  1  0  0  0  0
 12 33  1  0  0  0  0
 12 34  1  0  0  0  0
 13 14  2  0  0  0  0
 13 15  1  0  0  0  0
 15 21  1  0  0  0  0
 15 16  1  0  0  0  0
 16 17  1  0  0  0  0
 16 35  1  0  0  0  0
 16 36  1  0  0  0  0
 17 18  1  0  0  0  0
 17 37  1  0  0  0  0
 17 38  1  0  0  0  0
 18 19  1  0  0  0  0
 18 39  1  0  0  0  0
 18 40  1  0  0  0  0
 19 20  1  0  0  0  0
 19 41  1  0  0  0  0
 19 42  1  0  0  0  0
 20 21  1  0  0  0  0
 20 43  1  0  0  0  0
 20 44  1  0  0  0  0
 21 45  1  0  0  0  0
 21 46  1  0  0  0  0
M  END
> <s_m_source_file>
AV-unprocessed.smi

> <i_m_source_file_index>
2255

> <i_lp_mmshare_version>
43012

> <i_f3d_flags>
0

> <s_epik_input>
W0NIM11jMVtjSF1bY0hdW2NIXWMobjEpW05IXUMoPU8pW05IXVtDSDJdW0NIMl1DKD1PKU4yW0NIMl1bQ0gyXVtDSDJdW0NIMl1bQ0gyXVtDSDJdMg==

> <s_epik_cmdline>
J2VwaWtfcHl0aG9uJywgJy1waCcsICc3LjAnLCAnLXRuJywgJzgnLCAnLW1hJywgJzIwMCcsICctbWV0YWxfYmluZGluZycsICctaW1hZScsICc8aW5maWxlLm1hZT4nLCAnLW9tYWUnLCAnPG91dGZpbGUubWFlPic=

> <r_lp_tautomer_probability>
1

> <r_epik_Ionization_Penalty>
7.16633e-05

> <r_epik_Ionization_Penalty_Charging>
0

> <r_epik_Ionization_Penalty_Neutral>
7.16633e-05

> <r_epik_State_Penalty>
-0

> <r_epik_Charging_Adjusted_Penalty>
0

> <i_epik_Tot_Q>
0

> <i_epik_Tot_abs_Q>
0

> <r_epik_Metal_State_Penalty>
-0

> <b_epik_Metal_Only>
0

> <s_lp_Force_Field>
OPLS_2005

> <r_lp_Energy>
24.0956

> <b_lp_Chiralities_Consistent>
1

> <s_lp_Variant>
AV-unprocessed.smi:2255-1

> <Gold.Version>
5.8.1

> <Gold.Id.Protein>
6NUR|6NUR_protein|mol2

> <Gold.PLP.Fitness>
44.9332

> <Gold.PLP.PLP>
-39.1465

> <Gold.PLP.part.hbond>
-2.0000

> <Gold.PLP.part.metal>
0.0000

> <Gold.PLP.part.buried>
-1.8911

> <Gold.PLP.part.nonpolar>
-34.9845

> <Gold.PLP.part.repulsive>
0.2588

> <Gold.PLP.ligand.clash>
0.0000

> <Gold.PLP.ligand.torsion>
0.0999

> <Gold.PLP.Chemscore.Hbond>
1.9920

> <Gold.PLP.Chemscore.CHOScore>
0.0000

> <Gold.PLP.Chemscore.Metal>
0.0000

> <Gold.Chemscore.Hbonds>
donor molecule, donor type, donor heavy atom, donor atom, acceptor molecule, acceptor atom, score
      L1  H     7    29       P1  7948  1.00
      L1  H    10    30       P1  7948  1.00

> <Gold.PLP.Chemscore.Internal.Correction>
0.0105

> <Gold.Rescore>
     Score         DG    S(hbond)    S(metal)    S(lipo)     H(rot)  DE(clash)    DE(int)     intcor
     15.10     -17.70       1.69        0.00      88.96       1.49       0.04       2.57       ----

> <Gold.Chemscore.Fitness>
15.0964

> <Gold.Chemscore.DG>
-17.7040

> <Gold.Chemscore.ZeroCoef>
-5.4800

> <Gold.Chemscore.Hbond>
1.6891

> <Gold.Chemscore.Metal>
0.0000

> <Gold.Chemscore.Lipo>
88.9619

> <Gold.Chemscore.Internal_Hbond>
0.0000

> <Gold.Chemscore.DEClash>
0.0425

> <Gold.Chemscore.DEInternal>
2.5652

> <Gold.Chemscore.Rot>
1.4946

> <Gold.Chemscore.Internal.Correction>
   9.000000E+99

> <Gold.Chemscore.Hbonds>
donor molecule, donor type, donor heavy atom, donor atom, acceptor molecule, acceptor atom, score
      L1  H     7    29       P1  7948  0.33
      L1  H    10    30       P1  7948  0.74

> <Gold.Chemscore.Hbond.Weighted>
-5.6415

> <Gold.Chemscore.Metal.Weighted>
-0.0000

> <Gold.Chemscore.Lipo.Weighted>
-10.4085

> <Gold.Chemscore.Internal_Hbond.Weighted>
0.0000

> <Gold.Chemscore.DEClash.Weighted>
0.0425

> <Gold.Chemscore.DEInternal.Weighted>
2.5652

> <Gold.Chemscore.Rot.Weighted>
3.8261

> <Gold.Chemscore.Internal.Correction.Weighted>
   9.000000E+99

> <Gold.Protein.RotatedTorsions>
[ 6907 6896 6895 6894 ] final   64.52 input  -60.11 | X-H torsion
[ 7974 7965 7964 7962 ] final   48.35 input  175.53 | X-H torsion
[ 8008 7997 7996 7995 ] final  -63.79 input   59.86 | X-H torsion
[ 10167 10162 10161 10158 ] final  123.94 input  -65.29 | X-H torsion
[ 10718 10713 10712 10709 ] final  125.52 input   66.30 | X-H torsion
[ 10763 10752 10751 10750 ] final  -40.02 input  -60.55 | X-H torsion
[ 11005 11000 10999 10996 ] final -124.80 input  -57.11 | X-H torsion

> <Gold.Protein.ActiveResidues>
 VAL166  LYS551  ARG553  GLY616  TRP617  ASP618  TYR619  PRO620  LYS621  CYS622 
 ASP623  PHE694  ASN695  SER759  ASP760  ASP761  ALA762  ILE779  LEU786  VAL792 
 PHE793  MET794  SER795  GLU796  ALA797  LYS798  CYS799  TRP800  GLU811  SER814 

> <Gold.Protein.RotatedAtoms>
  152.4338  134.5727  159.9925 H   0  0  0  0  0  0  0  0  0  0  0  0  # atno 6907 bound_to 6896
  151.5843  133.3368  159.3022 H   0  0  0  0  0  0  0  0  0  0  0  0  # atno 6908 bound_to 6896
  150.8233  134.7487  159.6856 H   0  0  0  0  0  0  0  0  0  0  0  0  # atno 6909 bound_to 6896
  146.0212  139.4653  142.9896 H   0  0  0  0  0  0  0  0  0  0  0  0  # atno 7974 bound_to 7965
  154.4574  140.0967  156.6798 H   0  0  0  0  0  0  0  0  0  0  0  0  # atno 8008 bound_to 7997
  155.5095  140.3476  155.4367 H   0  0  0  0  0  0  0  0  0  0  0  0  # atno 8009 bound_to 7997
  156.0805  140.1372  156.9707 H   0  0  0  0  0  0  0  0  0  0  0  0  # atno 8010 bound_to 7997
  139.5770  144.6968  151.3628 H   0  0  0  0  0  0  0  0  0  0  0  0  # atno 10167 bound_to 10162
  157.5496  131.1094  150.8724 H   0  0  0  0  0  0  0  0  0  0  0  0  # atno 10718 bound_to 10713
  153.9391  135.6763  153.4744 H   0  0  0  0  0  0  0  0  0  0  0  0  # atno 10763 bound_to 10752
  153.0941  135.4860  154.8742 H   0  0  0  0  0  0  0  0  0  0  0  0  # atno 10764 bound_to 10752
  154.7387  135.3155  154.8724 H   0  0  0  0  0  0  0  0  0  0  0  0  # atno 10765 bound_to 10752
  140.9813  134.0670  157.3762 H   0  0  0  0  0  0  0  0  0  0  0  0  # atno 11005 bound_to 11000
  145.7190  141.0081  143.1413 LP  0  0  0  0  0  0  0  0  0  0  0  0  # atno 17320 bound_to 7965
  144.6991  139.8847  143.7449 LP  0  0  0  0  0  0  0  0  0  0  0  0  # atno 17321 bound_to 7965
  140.7052  143.7533  150.7469 LP  0  0  0  0  0  0  0  0  0  0  0  0  # atno 17342 bound_to 10162
  140.1055  143.4748  152.2401 LP  0  0  0  0  0  0  0  0  0  0  0  0  # atno 17343 bound_to 10162
  156.9253  130.5330  149.5279 LP  0  0  0  0  0  0  0  0  0  0  0  0  # atno 17370 bound_to 10713
  156.0565  130.5625  150.9102 LP  0  0  0  0  0  0  0  0  0  0  0  0  # atno 17371 bound_to 10713
  139.8951  135.0139  156.6986 LP  0  0  0  0  0  0  0  0  0  0  0  0  # atno 17394 bound_to 11000
  140.7183  133.9163  155.8129 LP  0  0  0  0  0  0  0  0  0  0  0  0  # atno 17395 bound_to 11000

$$$$
