AV-unprocessed.smi:1047|AV-procd|sdf|4585|dock8
  -GOLD-   22720 3 53D 1   1.00000     0.00000
 Structure written by MMmdl.
 58 60  0  0  0  0  0  0  0  0  4 V2000
  144.3624  132.9699  149.7083 C   0  0  0  0  0  0  0  0  0  0  0  0
  144.4917  134.3477  150.3736 C   0  0  0  0  0  0  0  0  0  0  0  0
  145.9071  134.7842  150.5090 N   0  3  2  0  0  0  0  0  0  0  0  0
  146.6697  134.0136  151.5210 C   0  0  0  0  0  0  0  0  0  0  0  0
  146.3376  134.4871  152.9473 C   0  0  0  0  0  0  0  0  0  0  0  0
  146.5942  135.8826  153.0551 O   0  0  0  0  0  0  0  0  0  0  0  0
  145.7854  136.6584  152.1760 C   0  0  1  0  0  0  0  0  0  0  0  0
  146.1035  138.1414  152.4221 C   0  0  0  0  0  0  0  0  0  0  0  0
  147.5436  138.3507  152.6748 N   0  3  0  0  0  0  0  0  0  0  0  0
  147.8429  138.9356  153.9977 C   0  0  0  0  0  0  0  0  0  0  0  0
  149.2690  138.5884  154.4571 C   0  0  1  0  0  0  0  0  0  0  0  0
  150.1866  139.3553  153.7023 O   0  0  0  0  0  0  0  0  0  0  0  0
  149.4697  138.8715  155.9589 C   0  0  0  0  0  0  0  0  0  0  0  0
  149.6428  140.3012  156.2568 N   0  0  0  0  0  0  0  0  0  0  0  0
  149.0707  141.3857  155.6656 C   0  0  0  0  0  0  0  0  0  0  0  0
  149.5595  142.4967  156.2826 N   0  3  0  0  0  0  0  0  0  0  0  0
  150.4589  142.1179  157.2810 C   0  0  0  0  0  0  0  0  0  0  0  0
  151.2070  142.8825  158.1679 C   0  0  0  0  0  0  0  0  0  0  0  0
  152.0390  142.1885  159.0750 C   0  0  0  0  0  0  0  0  0  0  0  0
  152.8723  142.9949  160.0568 C   0  0  0  0  0  0  0  0  0  0  0  0
  152.0982  140.7709  159.0731 C   0  0  0  0  0  0  0  0  0  0  0  0
  152.9940  140.0354  160.0553 C   0  0  0  0  0  0  0  0  0  0  0  0
  151.3300  140.0112  158.1618 C   0  0  0  0  0  0  0  0  0  0  0  0
  150.5170  140.7103  157.2721 C   0  0  0  0  0  0  0  0  0  0  0  0
  146.0960  136.2430  150.7201 C   0  0  0  0  0  0  0  0  0  0  0  0
  143.3249  132.6353  149.7202 H   0  0  0  0  0  0  0  0  0  0  0  0
  144.9549  132.2207  150.2343 H   0  0  0  0  0  0  0  0  0  0  0  0
  144.6826  132.9837  148.6670 H   0  0  0  0  0  0  0  0  0  0  0  0
  143.9031  135.0883  149.8326 H   0  0  0  0  0  0  0  0  0  0  0  0
  144.0487  134.2748  151.3675 H   0  0  0  0  0  0  0  0  0  0  0  0
  146.4858  132.9440  151.4133 H   0  0  0  0  0  0  0  0  0  0  0  0
  147.7341  134.1601  151.3322 H   0  0  0  0  0  0  0  0  0  0  0  0
  145.3006  134.2707  153.2072 H   0  0  0  0  0  0  0  0  0  0  0  0
  146.9606  133.9596  153.6698 H   0  0  0  0  0  0  0  0  0  0  0  0
  144.7313  136.4844  152.3984 H   0  0  0  0  0  0  0  0  0  0  0  0
  145.7889  138.7417  151.5673 H   0  0  0  0  0  0  0  0  0  0  0  0
  145.5452  138.4989  153.2884 H   0  0  0  0  0  0  0  0  0  0  0  0
  148.0221  137.4646  152.5988 H   0  0  0  0  0  0  0  0  0  0  0  0
  147.7069  140.0179  153.9629 H   0  0  0  0  0  0  0  0  0  0  0  0
  147.1202  138.5469  154.7165 H   0  0  0  0  0  0  0  0  0  0  0  0
  149.4665  137.5325  154.2661 H   0  0  0  0  0  0  0  0  0  0  0  0
  149.9400  139.3077  152.7908 H   0  0  0  0  0  0  0  0  0  0  0  0
  148.6449  138.4757  156.5520 H   0  0  0  0  0  0  0  0  0  0  0  0
  150.3674  138.3634  156.3135 H   0  0  0  0  0  0  0  0  0  0  0  0
  148.3609  141.3696  154.8509 H   0  0  0  0  0  0  0  0  0  0  0  0
  151.1563  143.9617  158.1647 H   0  0  0  0  0  0  0  0  0  0  0  0
  153.9339  142.7881  159.9182 H   0  0  0  0  0  0  0  0  0  0  0  0
  152.6016  142.7474  161.0835 H   0  0  0  0  0  0  0  0  0  0  0  0
  152.7221  144.0665  159.9219 H   0  0  0  0  0  0  0  0  0  0  0  0
  152.9107  138.9544  159.9398 H   0  0  0  0  0  0  0  0  0  0  0  0
  152.7217  140.2818  161.0819 H   0  0  0  0  0  0  0  0  0  0  0  0
  154.0379  140.3076  159.8988 H   0  0  0  0  0  0  0  0  0  0  0  0
  151.3759  138.9322  158.1649 H   0  0  0  0  0  0  0  0  0  0  0  0
  147.1366  136.4796  150.4930 H   0  0  0  0  0  0  0  0  0  0  0  0
  145.4980  136.8211  150.0167 H   0  0  0  0  0  0  0  0  0  0  0  0
  147.9063  138.9749  151.9677 H   0  0  0  0  0  0  0  0  0  0  0  0
  146.3333  134.5647  149.6196 H   0  0  0  0  0  0  0  0  0  0  0  0
  149.3001  143.4433  156.0353 H   0  0  0  0  0  0  0  0  0  0  0  0
  1  2  1  0  0  0  0
  1 26  1  0  0  0  0
  1 27  1  0  0  0  0
  1 28  1  0  0  0  0
  2  3  1  0  0  0  0
  2 29  1  0  0  0  0
  2 30  1  0  0  0  0
  3 25  1  0  0  0  0
  3  4  1  0  0  0  0
  3 57  1  0  0  0  0
  4  5  1  0  0  0  0
  4 31  1  0  0  0  0
  4 32  1  0  0  0  0
  5  6  1  0  0  0  0
  5 33  1  0  0  0  0
  5 34  1  0  0  0  0
  6  7  1  0  0  0  0
  7  8  1  0  0  0  0
  7 25  1  0  0  0  0
  7 35  1  0  0  0  0
  8  9  1  0  0  0  0
  8 36  1  0  0  0  0
  8 37  1  0  0  0  0
  9 10  1  0  0  0  0
  9 38  1  0  0  0  0
  9 56  1  0  0  0  0
 10 11  1  0  0  0  0
 10 39  1  0  0  0  0
 10 40  1  0  0  0  0
 11 12  1  0  0  0  0
 11 13  1  0  0  0  0
 11 41  1  0  0  0  0
 12 42  1  0  0  0  0
 13 14  1  0  0  0  0
 13 43  1  0  0  0  0
 13 44  1  0  0  0  0
 14 24  1  0  0  0  0
 14 15  1  0  0  0  0
 15 16  2  0  0  0  0
 15 45  1  0  0  0  0
 16 17  1  0  0  0  0
 16 58  1  0  0  0  0
 17 24  2  0  0  0  0
 17 18  1  0  0  0  0
 18 19  2  0  0  0  0
 18 46  1  0  0  0  0
 19 20  1  0  0  0  0
 19 21  1  0  0  0  0
 20 47  1  0  0  0  0
 20 48  1  0  0  0  0
 20 49  1  0  0  0  0
 21 22  1  0  0  0  0
 21 23  2  0  0  0  0
 22 50  1  0  0  0  0
 22 51  1  0  0  0  0
 22 52  1  0  0  0  0
 23 24  1  0  0  0  0
 23 53  1  0  0  0  0
 25 54  1  0  0  0  0
 25 55  1  0  0  0  0
M  CHG  1   3   1
M  CHG  1   9   1
M  CHG  1  16   1
M  END
> <s_m_source_file>
AV-unprocessed.smi

> <i_m_source_file_index>
1047

> <i_lp_mmshare_version>
43012

> <i_f3d_flags>
0

> <s_epik_input>
W0NIM11bQ0gyXU4xW0NIMl1bQ0gyXU9bQ0BIXShbQ0gyXTEpW0NIMl1bTkhdW0NIMl1bQ0BIXShbT0hdKVtDSDJdbihbY0hdbjIpYyhjMjMpW2NIXWMoW0NIM10pYyhbY0hdMylbQ0gzXQ==

> <s_epik_cmdline>
J2VwaWtfcHl0aG9uJywgJy1waCcsICc3LjAnLCAnLXRuJywgJzgnLCAnLW1hJywgJzIwMCcsICctbWV0YWxfYmluZGluZycsICctaW1hZScsICc8aW5maWxlLm1hZT4nLCAnLW9tYWUnLCAnPG91dGZpbGUubWFlPic=

> <r_epik_Ionization_Penalty>
1.6114

> <r_epik_Ionization_Penalty_Charging>
1.61139

> <r_epik_Ionization_Penalty_Neutral>
5.04732e-06

> <r_epik_State_Penalty>
1.63724

> <r_epik_Charging_Adjusted_Penalty>
3.24864

> <i_epik_Tot_Q>
3

> <i_epik_Tot_abs_Q>
3

> <r_epik_Metal_State_Penalty>
5.64594

> <b_epik_Metal_Only>
0

> <s_lp_Force_Field>
OPLS_2005

> <r_lp_Energy>
39.6477

> <b_lp_Chiralities_Consistent>
1

> <s_lp_Variant>
AV-unprocessed.smi:1047-26

> <Gold.Version>
5.8.1

> <Gold.Id.Protein>
6NUR|6NUR_protein|mol2

> <Gold.PLP.Fitness>
62.9184

> <Gold.PLP.PLP>
-41.9937

> <Gold.PLP.part.hbond>
-5.8980

> <Gold.PLP.part.metal>
0.0000

> <Gold.PLP.part.buried>
-2.8194

> <Gold.PLP.part.nonpolar>
-36.9504

> <Gold.PLP.part.repulsive>
3.1956

> <Gold.PLP.ligand.clash>
0.0000

> <Gold.PLP.ligand.torsion>
1.4112

> <Gold.PLP.Chemscore.Hbond>
7.8480

> <Gold.PLP.Chemscore.CHOScore>
0.0000

> <Gold.PLP.Chemscore.Metal>
0.0000

> <Gold.Chemscore.Hbonds>
donor molecule, donor type, donor heavy atom, donor atom, acceptor molecule, acceptor atom, score
      L1  H     3    57       P1  7921  0.79
      L1  H     9    38       P1  7948  2.00
      L1  H     9    56       P1  7957  0.73
      L1  H    12    42       P1  7957  1.00
      L1  H    16    58       P1  8028  1.33
      P1  H  7989  7998       L1    12  0.63

> <Gold.PLP.Chemscore.Internal.Correction>
0.2031

> <Gold.Rescore>
     Score         DG    S(hbond)    S(metal)    S(lipo)     H(rot)  DE(clash)    DE(int)     intcor
     24.54     -27.96       4.57        0.00     122.70       2.78       2.14       1.28       ----

> <Gold.Chemscore.Fitness>
24.5365

> <Gold.Chemscore.DG>
-27.9614

> <Gold.Chemscore.ZeroCoef>
-5.4800

> <Gold.Chemscore.Hbond>
4.5673

> <Gold.Chemscore.Metal>
0.0000

> <Gold.Chemscore.Lipo>
122.6969

> <Gold.Chemscore.Internal_Hbond>
0.0000

> <Gold.Chemscore.DEClash>
2.1425

> <Gold.Chemscore.DEInternal>
1.2824

> <Gold.Chemscore.Rot>
2.7848

> <Gold.Chemscore.Internal.Correction>
   9.000000E+99

> <Gold.Chemscore.Hbonds>
donor molecule, donor type, donor heavy atom, donor atom, acceptor molecule, acceptor atom, score
      L1  H     3    57       P1  7921  0.15
      L1  H     9    38       P1  7948  0.98
      L1  H     9    56       P1  7957  0.68
      L1  H    12    42       P1  7957  0.93
      L1  H    16    58       P1  8028  0.67
      P1  H  7989  7998       L1    12  0.09

> <Gold.Chemscore.Hbond.Weighted>
-15.2549

> <Gold.Chemscore.Metal.Weighted>
-0.0000

> <Gold.Chemscore.Lipo.Weighted>
-14.3555

> <Gold.Chemscore.Internal_Hbond.Weighted>
0.0000

> <Gold.Chemscore.DEClash.Weighted>
2.1425

> <Gold.Chemscore.DEInternal.Weighted>
1.2824

> <Gold.Chemscore.Rot.Weighted>
7.1291

> <Gold.Chemscore.Internal.Correction.Weighted>
   9.000000E+99

> <Gold.Protein.RotatedTorsions>
[ 6907 6896 6895 6894 ] final  124.62 input  -60.11 | X-H torsion
[ 7974 7965 7964 7962 ] final   15.49 input  175.53 | X-H torsion
[ 8008 7997 7996 7995 ] final   83.08 input   59.86 | X-H torsion
[ 10167 10162 10161 10158 ] final   58.70 input  -65.29 | X-H torsion
[ 10718 10713 10712 10709 ] final  147.85 input   66.30 | X-H torsion
[ 10763 10752 10751 10750 ] final    8.37 input  -60.55 | X-H torsion
[ 11005 11000 10999 10996 ] final  125.35 input  -57.11 | X-H torsion

> <Gold.Protein.ActiveResidues>
 VAL166  LYS551  ARG553  GLY616  TRP617  ASP618  TYR619  PRO620  LYS621  CYS622 
 ASP623  PHE694  ASN695  SER759  ASP760  ASP761  ALA762  ILE779  LEU786  VAL792 
 PHE793  MET794  SER795  GLU796  ALA797  LYS798  CYS799  TRP800  GLU811  SER814 

> <Gold.Protein.RotatedAtoms>
  152.4062  133.6893  159.6358 H   0  0  0  0  0  0  0  0  0  0  0  0  # atno 6907 bound_to 6896
  150.7947  133.8704  159.3266 H   0  0  0  0  0  0  0  0  0  0  0  0  # atno 6908 bound_to 6896
  151.6458  135.1009  160.0202 H   0  0  0  0  0  0  0  0  0  0  0  0  # atno 6909 bound_to 6896
  146.2277  139.8886  142.8558 H   0  0  0  0  0  0  0  0  0  0  0  0  # atno 7974 bound_to 7965
  155.9192  140.3422  155.6159 H   0  0  0  0  0  0  0  0  0  0  0  0  # atno 8008 bound_to 7997
  155.7294  140.0793  157.2314 H   0  0  0  0  0  0  0  0  0  0  0  0  # atno 8009 bound_to 7997
  154.4067  140.1591  156.2479 H   0  0  0  0  0  0  0  0  0  0  0  0  # atno 8010 bound_to 7997
  140.1844  144.4150  150.6600 H   0  0  0  0  0  0  0  0  0  0  0  0  # atno 10167 bound_to 10162
  157.3158  131.0896  151.1280 H   0  0  0  0  0  0  0  0  0  0  0  0  # atno 10718 bound_to 10713
  153.2258  135.6886  153.7947 H   0  0  0  0  0  0  0  0  0  0  0  0  # atno 10763 bound_to 10752
  153.7129  135.3279  155.3251 H   0  0  0  0  0  0  0  0  0  0  0  0  # atno 10764 bound_to 10752
  154.8291  135.4595  154.1123 H   0  0  0  0  0  0  0  0  0  0  0  0  # atno 10765 bound_to 10752
  139.9402  134.9636  156.8545 H   0  0  0  0  0  0  0  0  0  0  0  0  # atno 11005 bound_to 11000
  145.2440  141.0020  143.3919 LP  0  0  0  0  0  0  0  0  0  0  0  0  # atno 17320 bound_to 7965
  144.9428  139.4169  143.6440 LP  0  0  0  0  0  0  0  0  0  0  0  0  # atno 17321 bound_to 7965
  140.6498  143.2222  151.6103 LP  0  0  0  0  0  0  0  0  0  0  0  0  # atno 17342 bound_to 10162
  139.5282  144.2994  152.1086 LP  0  0  0  0  0  0  0  0  0  0  0  0  # atno 17343 bound_to 10162
  157.2584  130.6647  149.5963 LP  0  0  0  0  0  0  0  0  0  0  0  0  # atno 17370 bound_to 10713
  155.9681  130.4516  150.5743 LP  0  0  0  0  0  0  0  0  0  0  0  0  # atno 17371 bound_to 10713
  140.5971  134.0207  155.7522 LP  0  0  0  0  0  0  0  0  0  0  0  0  # atno 17394 bound_to 11000
  141.1033  133.9733  157.3040 LP  0  0  0  0  0  0  0  0  0  0  0  0  # atno 17395 bound_to 11000

$$$$
