AV-unprocessed.smi:2976|AV-procd|sdf|11362|dock7
  -GOLD-   2272016283D 1   1.00000     0.00000
 Structure written by MMmdl.
 40 41  0  0  0  0  0  0  0  0  1 V2000
  152.4392  144.6554  157.9788 C   0  0  0  0  0  0  0  0  0  0  0  0
  151.6988  144.0335  159.1806 C   0  0  1  0  0  0  0  0  0  0  0  0
  150.1699  144.0535  158.9789 C   0  0  0  0  0  0  0  0  0  0  0  0
  149.7070  143.0184  157.9418 C   0  0  0  0  0  0  0  0  0  0  0  0
  150.1831  141.6084  158.3167 C   0  0  0  0  0  0  0  0  0  0  0  0
  151.7102  141.5510  158.5130 C   0  0  2  0  0  0  0  0  0  0  0  0
  152.0765  140.2003  158.9369 N   0  0  0  0  0  0  0  0  0  0  0  0
  152.5620  139.2301  158.1468 C   0  0  0  0  0  0  0  0  0  0  0  0
  152.7316  139.3617  156.9340 O   0  0  0  0  0  0  0  0  0  0  0  0
  152.8977  137.9028  158.8412 C   0  0  0  0  0  0  0  0  0  0  0  0
  153.6828  138.0782  160.0721 N   0  0  0  0  0  0  0  0  0  0  0  0
  153.9454  139.3987  160.3916 N   0  0  0  0  0  0  0  0  0  0  0  0
  154.6206  139.6718  161.4546 C   0  0  0  0  0  0  0  0  0  0  0  0
  155.1228  138.6401  162.3348 C   0  0  0  0  0  0  0  0  0  0  0  0
  156.0232  139.0673  163.7468 Cl  0  0  0  0  0  0  0  0  0  0  0  0
  154.8630  137.3486  162.0104 C   0  0  0  0  0  0  0  0  0  0  0  0
  155.4310  136.0589  163.0144 Cl  0  0  0  0  0  0  0  0  0  0  0  0
  154.0982  136.9993  160.8053 C   0  0  0  0  0  0  0  0  0  0  0  0
  153.8475  135.8400  160.4729 O   0  0  0  0  0  0  0  0  0  0  0  0
  152.1794  142.6048  159.5525 C   0  0  1  0  0  0  0  0  0  0  0  0
  153.6947  142.5525  159.8338 C   0  0  0  0  0  0  0  0  0  0  0  0
  152.3374  144.0545  157.0756 H   0  0  0  0  0  0  0  0  0  0  0  0
  153.5038  144.7710  158.1801 H   0  0  0  0  0  0  0  0  0  0  0  0
  152.0501  145.6492  157.7559 H   0  0  0  0  0  0  0  0  0  0  0  0
  151.9101  144.6793  160.0341 H   0  0  0  0  0  0  0  0  0  0  0  0
  149.6803  143.8445  159.9309 H   0  0  0  0  0  0  0  0  0  0  0  0
  149.8397  145.0503  158.6843 H   0  0  0  0  0  0  0  0  0  0  0  0
  148.6194  143.0322  157.8669 H   0  0  0  0  0  0  0  0  0  0  0  0
  150.0834  143.2840  156.9537 H   0  0  0  0  0  0  0  0  0  0  0  0
  149.6811  141.2940  159.2330 H   0  0  0  0  0  0  0  0  0  0  0  0
  149.8793  140.9028  157.5426 H   0  0  0  0  0  0  0  0  0  0  0  0
  152.1773  141.7738  157.5528 H   0  0  0  0  0  0  0  0  0  0  0  0
  151.9707  139.9938  159.9196 H   0  0  0  0  0  0  0  0  0  0  0  0
  151.9785  137.3584  159.0664 H   0  0  0  0  0  0  0  0  0  0  0  0
  153.4401  137.2790  158.1286 H   0  0  0  0  0  0  0  0  0  0  0  0
  154.8500  140.6964  161.7472 H   0  0  0  0  0  0  0  0  0  0  0  0
  151.6911  142.3563  160.4965 H   0  0  0  0  0  0  0  0  0  0  0  0
  154.2768  142.6475  158.9169 H   0  0  0  0  0  0  0  0  0  0  0  0
  153.9813  141.6127  160.3060 H   0  0  0  0  0  0  0  0  0  0  0  0
  153.9977  143.3536  160.5083 H   0  0  0  0  0  0  0  0  0  0  0  0
  1  2  1  0  0  0  0
  1 22  1  0  0  0  0
  1 23  1  0  0  0  0
  1 24  1  0  0  0  0
  2 20  1  0  0  0  0
  2  3  1  0  0  0  0
  2 25  1  0  0  0  0
  3  4  1  0  0  0  0
  3 26  1  0  0  0  0
  3 27  1  0  0  0  0
  4  5  1  0  0  0  0
  4 28  1  0  0  0  0
  4 29  1  0  0  0  0
  5  6  1  0  0  0  0
  5 30  1  0  0  0  0
  5 31  1  0  0  0  0
  6  7  1  0  0  0  0
  6 20  1  0  0  0  0
  6 32  1  0  0  0  0
  7  8  1  0  0  0  0
  7 33  1  0  0  0  0
  8  9  2  0  0  0  0
  8 10  1  0  0  0  0
 10 11  1  0  0  0  0
 10 34  1  0  0  0  0
 10 35  1  0  0  0  0
 11 18  1  0  0  0  0
 11 12  1  0  0  0  0
 12 13  2  0  0  0  0
 13 14  1  0  0  0  0
 13 36  1  0  0  0  0
 14 15  1  0  0  0  0
 14 16  2  0  0  0  0
 16 17  1  0  0  0  0
 16 18  1  0  0  0  0
 18 19  2  0  0  0  0
 20 21  1  0  0  0  0
 20 37  1  0  0  0  0
 21 38  1  0  0  0  0
 21 39  1  0  0  0  0
 21 40  1  0  0  0  0
M  END
> <s_m_source_file>
AV-unprocessed.smi

> <i_m_source_file_index>
2976

> <i_lp_mmshare_version>
43012

> <i_f3d_flags>
0

> <s_epik_input>
W0NIM11bQ0BASF0xW0NIMl1bQ0gyXVtDSDJdW0NASF0oW0NASF0xW0NIM10pW05IXUMoPU8pW0NIMl1uMm5bY0hdYyhDbCljKENsKWMyPU8=

> <s_epik_cmdline>
J2VwaWtfcHl0aG9uJywgJy1waCcsICc3LjAnLCAnLXRuJywgJzgnLCAnLW1hJywgJzIwMCcsICctbWV0YWxfYmluZGluZycsICctaW1hZScsICc8aW5maWxlLm1hZT4nLCAnLW9tYWUnLCAnPG91dGZpbGUubWFlPic=

> <r_lp_tautomer_probability>
1

> <r_epik_Ionization_Penalty>
1.90777e-08

> <r_epik_Ionization_Penalty_Charging>
3.07942e-11

> <r_epik_Ionization_Penalty_Neutral>
1.90469e-08

> <r_epik_State_Penalty>
-0

> <r_epik_Charging_Adjusted_Penalty>
3.07942e-11

> <i_epik_Tot_Q>
0

> <i_epik_Tot_abs_Q>
0

> <r_epik_Metal_State_Penalty>
-0

> <b_epik_Metal_Only>
0

> <s_lp_Force_Field>
OPLS_2005

> <r_lp_Energy>
28.0936

> <b_lp_Chiralities_Consistent>
1

> <s_lp_Variant>
AV-unprocessed.smi:2976-4

> <Gold.Version>
5.8.1

> <Gold.Id.Protein>
6NUR|6NUR_protein|mol2

> <Gold.PLP.Fitness>
42.1706

> <Gold.PLP.PLP>
-36.9988

> <Gold.PLP.part.hbond>
-2.0000

> <Gold.PLP.part.metal>
0.0000

> <Gold.PLP.part.buried>
-3.1550

> <Gold.PLP.part.nonpolar>
-31.9856

> <Gold.PLP.part.repulsive>
0.1282

> <Gold.PLP.ligand.clash>
0.0000

> <Gold.PLP.ligand.torsion>
0.4167

> <Gold.PLP.Chemscore.Hbond>
2.0000

> <Gold.PLP.Chemscore.CHOScore>
0.0000

> <Gold.PLP.Chemscore.Metal>
0.0000

> <Gold.Chemscore.Hbonds>
donor molecule, donor type, donor heavy atom, donor atom, acceptor molecule, acceptor atom, score
      P1  H  6896  6909       L1    19  1.00
      P1  H  7997  8009       L1     9  1.00

> <Gold.PLP.Chemscore.Internal.Correction>
0.0051

> <Gold.Rescore>
     Score         DG    S(hbond)    S(metal)    S(lipo)     H(rot)  DE(clash)    DE(int)     intcor
     18.98     -21.23       1.96        0.00     111.07       1.49       0.00       2.24       ----

> <Gold.Chemscore.Fitness>
18.9817

> <Gold.Chemscore.DG>
-21.2261

> <Gold.Chemscore.ZeroCoef>
-5.4800

> <Gold.Chemscore.Hbond>
1.9632

> <Gold.Chemscore.Metal>
0.0000

> <Gold.Chemscore.Lipo>
111.0656

> <Gold.Chemscore.Internal_Hbond>
0.0000

> <Gold.Chemscore.DEClash>
0.0021

> <Gold.Chemscore.DEInternal>
2.2423

> <Gold.Chemscore.Rot>
1.4866

> <Gold.Chemscore.Internal.Correction>
   9.000000E+99

> <Gold.Chemscore.Hbonds>
donor molecule, donor type, donor heavy atom, donor atom, acceptor molecule, acceptor atom, score
      P1  H  6896  6909       L1    19  1.00
      P1  H  7997  8009       L1     9  0.65

> <Gold.Chemscore.Hbond.Weighted>
-6.5571

> <Gold.Chemscore.Metal.Weighted>
-0.0000

> <Gold.Chemscore.Lipo.Weighted>
-12.9947

> <Gold.Chemscore.Internal_Hbond.Weighted>
0.0000

> <Gold.Chemscore.DEClash.Weighted>
0.0021

> <Gold.Chemscore.DEInternal.Weighted>
2.2423

> <Gold.Chemscore.Rot.Weighted>
3.8057

> <Gold.Chemscore.Internal.Correction.Weighted>
   9.000000E+99

> <Gold.Protein.RotatedTorsions>
[ 6907 6896 6895 6894 ] final -179.11 input  -60.11 | X-H torsion
[ 7974 7965 7964 7962 ] final -123.51 input  175.53 | X-H torsion
[ 8008 7997 7996 7995 ] final  177.45 input   59.86 | X-H torsion
[ 10167 10162 10161 10158 ] final -131.80 input  -65.29 | X-H torsion
[ 10718 10713 10712 10709 ] final  -64.98 input   66.30 | X-H torsion
[ 10763 10752 10751 10750 ] final   85.13 input  -60.55 | X-H torsion
[ 11005 11000 10999 10996 ] final  138.11 input  -57.11 | X-H torsion

> <Gold.Protein.ActiveResidues>
 VAL166  LYS551  ARG553  GLY616  TRP617  ASP618  TYR619  PRO620  LYS621  CYS622 
 ASP623  PHE694  ASN695  SER759  ASP760  ASP761  ALA762  ILE779  LEU786  VAL792 
 PHE793  MET794  SER795  GLU796  ALA797  LYS798  CYS799  TRP800  GLU811  SER814 

> <Gold.Protein.RotatedAtoms>
  151.6482  133.3322  159.3145 H   0  0  0  0  0  0  0  0  0  0  0  0  # atno 6907 bound_to 6896
  150.7973  134.7046  159.6579 H   0  0  0  0  0  0  0  0  0  0  0  0  # atno 6908 bound_to 6896
  152.4062  134.6207  160.0101 H   0  0  0  0  0  0  0  0  0  0  0  0  # atno 6909 bound_to 6896
  145.0179  140.7962  143.4399 H   0  0  0  0  0  0  0  0  0  0  0  0  # atno 7974 bound_to 7965
  156.0655  140.1358  156.9891 H   0  0  0  0  0  0  0  0  0  0  0  0  # atno 8008 bound_to 7997
  154.4504  140.0982  156.6652 H   0  0  0  0  0  0  0  0  0  0  0  0  # atno 8009 bound_to 7997
  155.5311  140.3458  155.4428 H   0  0  0  0  0  0  0  0  0  0  0  0  # atno 8010 bound_to 7997
  139.9151  143.6448  152.2566 H   0  0  0  0  0  0  0  0  0  0  0  0  # atno 10167 bound_to 10162
  156.0696  130.4241  150.1498 H   0  0  0  0  0  0  0  0  0  0  0  0  # atno 10718 bound_to 10713
  153.1446  135.4628  154.9547 H   0  0  0  0  0  0  0  0  0  0  0  0  # atno 10763 bound_to 10752
  154.7775  135.3178  154.8062 H   0  0  0  0  0  0  0  0  0  0  0  0  # atno 10764 bound_to 10752
  153.8579  135.6915  153.4840 H   0  0  0  0  0  0  0  0  0  0  0  0  # atno 10765 bound_to 10752
  140.0161  134.9417  157.0378 H   0  0  0  0  0  0  0  0  0  0  0  0  # atno 11005 bound_to 11000
  145.1935  139.2288  143.5230 LP  0  0  0  0  0  0  0  0  0  0  0  0  # atno 17320 bound_to 7965
  146.3481  140.1737  142.8589 LP  0  0  0  0  0  0  0  0  0  0  0  0  # atno 17321 bound_to 7965
  139.6909  144.7647  151.1441 LP  0  0  0  0  0  0  0  0  0  0  0  0  # atno 17342 bound_to 10162
  140.7676  143.5591  150.9119 LP  0  0  0  0  0  0  0  0  0  0  0  0  # atno 17343 bound_to 10162
  156.9551  130.9787  151.3490 LP  0  0  0  0  0  0  0  0  0  0  0  0  # atno 17370 bound_to 10713
  157.5760  130.8343  149.8456 LP  0  0  0  0  0  0  0  0  0  0  0  0  # atno 17371 bound_to 10713
  140.4469  134.1623  155.7178 LP  0  0  0  0  0  0  0  0  0  0  0  0  # atno 17394 bound_to 11000
  141.1743  133.8545  157.1470 LP  0  0  0  0  0  0  0  0  0  0  0  0  # atno 17395 bound_to 11000

$$$$
