AV-unprocessed.smi:3336|AV-procd|sdf|12859|dock7
  -GOLD-   2272019253D 1   1.00000     0.00000
 Structure written by MMmdl.
 41 42  0  0  0  0  0  0  0  0  1 V2000
  146.5706  139.0523  151.4526 C   0  0  0  0  0  0  0  0  0  0  0  0
  146.5684  138.8000  152.9691 C   0  0  2  0  0  0  0  0  0  0  0  0
  145.5092  137.7499  153.3586 C   0  0  0  0  0  0  0  0  0  0  0  0
  145.7118  136.4843  152.6755 N   0  0  0  0  0  0  0  0  0  0  0  0
  145.5609  136.1988  151.3346 C   0  0  0  0  0  0  0  0  0  0  0  0
  145.8471  134.8743  151.1669 C   0  0  0  0  0  0  0  0  0  0  0  0
  146.1662  134.4286  152.4801 C   0  0  0  0  0  0  0  0  0  0  0  0
  146.0874  135.3950  153.3808 N   0  0  0  0  0  0  0  0  0  0  0  0
  146.2661  140.0534  153.6620 N   0  0  0  0  0  0  0  0  0  0  0  0
  147.2107  141.1559  153.3950 C   0  0  1  0  0  0  0  0  0  0  0  0
  146.4706  142.4963  153.5340 C   0  0  0  0  0  0  0  0  0  0  0  0
  148.4485  141.1375  154.3244 C   0  0  0  0  0  0  0  0  0  0  0  0
  149.5644  141.0871  153.8032 O   0  0  0  0  0  0  0  0  0  0  0  0
  148.2948  141.1745  155.6723 N   0  0  0  0  0  0  0  0  0  0  0  0
  149.4329  141.2038  156.5980 C   0  0  0  0  0  0  0  0  0  0  0  0
  149.4191  139.9154  157.4384 C   0  0  0  0  0  0  0  0  0  0  0  0
  148.1836  139.8215  158.1417 O   0  0  0  0  0  0  0  0  0  0  0  0
  147.0529  139.8115  157.2753 C   0  0  0  0  0  0  0  0  0  0  0  0
  147.0341  141.0924  156.4204 C   0  0  0  0  0  0  0  0  0  0  0  0
  146.7685  138.1295  150.9063 H   0  0  0  0  0  0  0  0  0  0  0  0
  147.3394  139.7682  151.1625 H   0  0  0  0  0  0  0  0  0  0  0  0
  145.6092  139.4377  151.1112 H   0  0  0  0  0  0  0  0  0  0  0  0
  147.5475  138.4152  153.2568 H   0  0  0  0  0  0  0  0  0  0  0  0
  145.5109  137.5737  154.4353 H   0  0  0  0  0  0  0  0  0  0  0  0
  144.5114  138.1121  153.1066 H   0  0  0  0  0  0  0  0  0  0  0  0
  145.2598  136.9522  150.6217 H   0  0  0  0  0  0  0  0  0  0  0  0
  145.8274  134.3090  150.2470 H   0  0  0  0  0  0  0  0  0  0  0  0
  146.4510  133.4383  152.8034 H   0  0  0  0  0  0  0  0  0  0  0  0
  145.3091  140.3200  153.4813 H   0  0  0  0  0  0  0  0  0  0  0  0
  147.5278  141.0455  152.3602 H   0  0  0  0  0  0  0  0  0  0  0  0
  147.1190  143.3418  153.3032 H   0  0  0  0  0  0  0  0  0  0  0  0
  146.0909  142.6388  154.5469 H   0  0  0  0  0  0  0  0  0  0  0  0
  145.6206  142.5457  152.8528 H   0  0  0  0  0  0  0  0  0  0  0  0
  150.3951  141.3025  156.0939 H   0  0  0  0  0  0  0  0  0  0  0  0
  149.3457  142.0762  157.2476 H   0  0  0  0  0  0  0  0  0  0  0  0
  149.5593  139.0360  156.8076 H   0  0  0  0  0  0  0  0  0  0  0  0
  150.2362  139.9262  158.1598 H   0  0  0  0  0  0  0  0  0  0  0  0
  147.0772  138.9229  156.6424 H   0  0  0  0  0  0  0  0  0  0  0  0
  146.1478  139.7478  157.8795 H   0  0  0  0  0  0  0  0  0  0  0  0
  146.9391  141.9705  157.0607 H   0  0  0  0  0  0  0  0  0  0  0  0
  146.1421  141.0763  155.7998 H   0  0  0  0  0  0  0  0  0  0  0  0
  1  2  1  0  0  0  0
  1 20  1  0  0  0  0
  1 21  1  0  0  0  0
  1 22  1  0  0  0  0
  2  3  1  0  0  0  0
  2  9  1  0  0  0  0
  2 23  1  0  0  0  0
  3  4  1  0  0  0  0
  3 24  1  0  0  0  0
  3 25  1  0  0  0  0
  4  8  1  0  0  0  0
  4  5  1  0  0  0  0
  5  6  2  0  0  0  0
  5 26  1  0  0  0  0
  6  7  1  0  0  0  0
  6 27  1  0  0  0  0
  7  8  2  0  0  0  0
  7 28  1  0  0  0  0
  9 10  1  0  0  0  0
  9 29  1  0  0  0  0
 10 11  1  0  0  0  0
 10 12  1  0  0  0  0
 10 30  1  0  0  0  0
 11 31  1  0  0  0  0
 11 32  1  0  0  0  0
 11 33  1  0  0  0  0
 12 13  2  0  0  0  0
 12 14  1  0  0  0  0
 14 19  1  0  0  0  0
 14 15  1  0  0  0  0
 15 16  1  0  0  0  0
 15 34  1  0  0  0  0
 15 35  1  0  0  0  0
 16 17  1  0  0  0  0
 16 36  1  0  0  0  0
 16 37  1  0  0  0  0
 17 18  1  0  0  0  0
 18 19  1  0  0  0  0
 18 38  1  0  0  0  0
 18 39  1  0  0  0  0
 19 40  1  0  0  0  0
 19 41  1  0  0  0  0
M  END
> <s_m_source_file>
AV-unprocessed.smi

> <i_m_source_file_index>
3336

> <i_lp_mmshare_version>
43012

> <i_f3d_flags>
0

> <s_epik_input>
bjFbY0hdW2NIXVtjSF1uMVtDSDJdW0NAQEhdKFtDSDNdKVtOSF1bQ0BIXShbQ0gzXSlDKD1PKU4yW0NIMl1bQ0gyXU9bQ0gyXVtDSDJdMg==

> <s_epik_cmdline>
J2VwaWtfcHl0aG9uJywgJy1waCcsICc3LjAnLCAnLXRuJywgJzgnLCAnLW1hJywgJzIwMCcsICctbWV0YWxfYmluZGluZycsICctaW1hZScsICc8aW5maWxlLm1hZT4nLCAnLW9tYWUnLCAnPG91dGZpbGUubWFlPic=

> <r_lp_tautomer_probability>
1

> <r_epik_Ionization_Penalty>
0.739958

> <r_epik_Ionization_Penalty_Charging>
0

> <r_epik_Ionization_Penalty_Neutral>
0.739958

> <r_epik_State_Penalty>
0.765967

> <r_epik_Charging_Adjusted_Penalty>
0.765967

> <i_epik_Tot_Q>
0

> <i_epik_Tot_abs_Q>
0

> <r_epik_Metal_State_Penalty>
0.765947

> <b_epik_Metal_Only>
0

> <s_lp_Force_Field>
OPLS_2005

> <r_lp_Energy>
28.023

> <b_lp_Chiralities_Consistent>
1

> <s_lp_Variant>
AV-unprocessed.smi:3336-7

> <Gold.Version>
5.8.1

> <Gold.Id.Protein>
6NUR|6NUR_protein|mol2

> <Gold.PLP.Fitness>
38.3376

> <Gold.PLP.PLP>
-29.3619

> <Gold.PLP.part.hbond>
-4.0000

> <Gold.PLP.part.metal>
0.0000

> <Gold.PLP.part.buried>
-3.0799

> <Gold.PLP.part.nonpolar>
-23.9248

> <Gold.PLP.part.repulsive>
1.9186

> <Gold.PLP.ligand.clash>
0.0000

> <Gold.PLP.ligand.torsion>
0.4390

> <Gold.PLP.Chemscore.Hbond>
2.2628

> <Gold.PLP.Chemscore.CHOScore>
1.0000

> <Gold.PLP.Chemscore.Metal>
0.0000

> <Gold.Chemscore.Hbonds>
donor molecule, donor type, donor heavy atom, donor atom, acceptor molecule, acceptor atom, score
      L1  H     9    29       P1 10175  1.00
      P1  H  7989  7998       L1    13  0.31
      P1  H  8011  8017       L1    13  0.91
      L1  C     5    26       P1 10171  1.00

> <Gold.PLP.Chemscore.Internal.Correction>
0.0653

> <Gold.Rescore>
     Score         DG    S(hbond)    S(metal)    S(lipo)     H(rot)  DE(clash)    DE(int)     intcor
     12.14     -15.04       2.03        0.00      63.14       1.79       1.66       1.25       ----

> <Gold.Chemscore.Fitness>
12.1390

> <Gold.Chemscore.DG>
-15.0410

> <Gold.Chemscore.ZeroCoef>
-5.4800

> <Gold.Chemscore.Hbond>
2.0254

> <Gold.Chemscore.Metal>
0.0000

> <Gold.Chemscore.Lipo>
63.1407

> <Gold.Chemscore.Internal_Hbond>
0.0000

> <Gold.Chemscore.DEClash>
1.6556

> <Gold.Chemscore.DEInternal>
1.2464

> <Gold.Chemscore.Rot>
1.7935

> <Gold.Chemscore.Internal.Correction>
   9.000000E+99

> <Gold.Chemscore.Hbonds>
donor molecule, donor type, donor heavy atom, donor atom, acceptor molecule, acceptor atom, score
      L1  H     9    29       P1 10175  0.98
      P1  H  7989  7998       L1    13  0.30
      P1  H  8011  8017       L1    13  0.74

> <Gold.Chemscore.Hbond.Weighted>
-6.7648

> <Gold.Chemscore.Metal.Weighted>
-0.0000

> <Gold.Chemscore.Lipo.Weighted>
-7.3875

> <Gold.Chemscore.Internal_Hbond.Weighted>
0.0000

> <Gold.Chemscore.DEClash.Weighted>
1.6556

> <Gold.Chemscore.DEInternal.Weighted>
1.2464

> <Gold.Chemscore.Rot.Weighted>
4.5912

> <Gold.Chemscore.Internal.Correction.Weighted>
   9.000000E+99

> <Gold.Protein.RotatedTorsions>
[ 6907 6896 6895 6894 ] final    3.44 input  -60.11 | X-H torsion
[ 7974 7965 7964 7962 ] final -177.49 input  175.53 | X-H torsion
[ 8008 7997 7996 7995 ] final   26.35 input   59.86 | X-H torsion
[ 10167 10162 10161 10158 ] final -118.66 input  -65.29 | X-H torsion
[ 10718 10713 10712 10709 ] final  -79.75 input   66.30 | X-H torsion
[ 10763 10752 10751 10750 ] final  106.83 input  -60.55 | X-H torsion
[ 11005 11000 10999 10996 ] final  -31.17 input  -57.11 | X-H torsion

> <Gold.Protein.ActiveResidues>
 VAL166  LYS551  ARG553  GLY616  TRP617  ASP618  TYR619  PRO620  LYS621  CYS622 
 ASP623  PHE694  ASN695  SER759  ASP760  ASP761  ALA762  ILE779  LEU786  VAL792 
 PHE793  MET794  SER795  GLU796  ALA797  LYS798  CYS799  TRP800  GLU811  SER814 

> <Gold.Protein.RotatedAtoms>
  151.6251  135.1028  160.0109 H   0  0  0  0  0  0  0  0  0  0  0  0  # atno 6907 bound_to 6896
  152.4137  133.7000  159.6429 H   0  0  0  0  0  0  0  0  0  0  0  0  # atno 6908 bound_to 6896
  150.8026  133.8496  159.3242 H   0  0  0  0  0  0  0  0  0  0  0  0  # atno 6909 bound_to 6896
  144.7128  140.1011  143.6416 H   0  0  0  0  0  0  0  0  0  0  0  0  # atno 7974 bound_to 7965
  155.0260  140.3153  155.4776 H   0  0  0  0  0  0  0  0  0  0  0  0  # atno 8008 bound_to 7997
  156.2883  140.2189  156.5322 H   0  0  0  0  0  0  0  0  0  0  0  0  # atno 8009 bound_to 7997
  154.7411  140.0473  157.0800 H   0  0  0  0  0  0  0  0  0  0  0  0  # atno 8010 bound_to 7997
  140.0550  143.5023  152.2062 H   0  0  0  0  0  0  0  0  0  0  0  0  # atno 10167 bound_to 10162
  156.0085  130.4554  150.3695 H   0  0  0  0  0  0  0  0  0  0  0  0  # atno 10718 bound_to 10713
  153.3984  135.3864  155.1971 H   0  0  0  0  0  0  0  0  0  0  0  0  # atno 10763 bound_to 10752
  154.8727  135.3765  154.4650 H   0  0  0  0  0  0  0  0  0  0  0  0  # atno 10764 bound_to 10752
  153.5144  135.7087  153.5826 H   0  0  0  0  0  0  0  0  0  0  0  0  # atno 10765 bound_to 10752
  140.9445  133.7258  156.1126 H   0  0  0  0  0  0  0  0  0  0  0  0  # atno 11005 bound_to 11000
  145.9537  139.2751  143.1197 LP  0  0  0  0  0  0  0  0  0  0  0  0  # atno 17320 bound_to 7965
  145.9296  140.9058  143.0363 LP  0  0  0  0  0  0  0  0  0  0  0  0  # atno 17321 bound_to 7965
  139.5929  144.7556  151.3357 LP  0  0  0  0  0  0  0  0  0  0  0  0  # atno 17342 bound_to 10162
  140.7199  143.7165  150.7729 LP  0  0  0  0  0  0  0  0  0  0  0  0  # atno 17343 bound_to 10162
  157.1780  131.0385  151.2762 LP  0  0  0  0  0  0  0  0  0  0  0  0  # atno 17370 bound_to 10713
  157.4170  130.7417  149.6883 LP  0  0  0  0  0  0  0  0  0  0  0  0  # atno 17371 bound_to 10713
  140.7688  134.3856  157.5512 LP  0  0  0  0  0  0  0  0  0  0  0  0  # atno 17394 bound_to 11000
  139.8829  134.9008  156.2797 LP  0  0  0  0  0  0  0  0  0  0  0  0  # atno 17395 bound_to 11000

$$$$
