AV-unprocessed.smi:1576|AV-procd|sdf|6348|dock1
  -GOLD-   22720 6563D 1   1.00000     0.00000
 Structure written by MMmdl.
 45 47  0  0  0  0  0  0  0  0  3 V2000
  149.9019  133.9511  156.7471 O   0  0  0  0  0  0  0  0  0  0  0  0
  148.9813  133.9771  157.5717 C   0  0  0  0  0  0  0  0  0  0  0  0
  147.7054  133.8322  157.1716 N   0  0  0  0  0  0  0  0  0  0  0  0
  147.1890  133.7009  155.8549 C   0  0  0  0  0  0  0  0  0  0  0  0
  147.9363  134.2575  154.7953 C   0  0  0  0  0  0  0  0  0  0  0  0
  147.4721  134.1305  153.4702 C   0  0  0  0  0  0  0  0  0  0  0  0
  146.2668  133.4347  153.2234 C   0  0  0  0  0  0  0  0  0  0  0  0
  145.7283  133.2565  151.9425 N   0  0  0  0  0  0  0  0  0  0  0  0
  145.7780  131.8674  151.4935 C   0  0  0  0  0  0  0  0  0  0  0  0
  145.3542  131.7528  150.0186 C   0  0  0  0  0  0  0  0  0  0  0  0
  143.9764  132.3956  149.7909 C   0  0  0  0  0  0  0  0  0  0  0  0
  143.9737  133.8432  150.3080 C   0  0  0  0  0  0  0  0  0  0  0  0
  144.4288  133.9022  151.7762 C   0  0  0  0  0  0  0  0  0  0  0  0
  145.5878  132.9011  154.2619 N   0  3  0  0  0  0  0  0  0  0  0  0
  145.9975  133.0013  155.5452 C   0  0  0  0  0  0  0  0  0  0  0  0
  149.0803  134.1160  158.9210 N   0  5  0  0  0  0  0  0  0  0  0  0
  148.1252  134.8445  159.7611 C   0  0  1  0  0  0  0  0  0  0  0  0
  147.9932  134.1771  161.1445 C   0  0  0  0  0  0  0  0  0  0  0  0
  147.2773  135.1496  162.0924 C   0  0  0  0  0  0  0  0  0  0  0  0
  147.7809  136.8297  161.5543 S   0  0  0  0  0  0  0  0  0  0  0  0
  146.5749  137.6194  161.2594 O   0  0  0  0  0  0  0  0  0  0  0  0
  148.8151  137.3469  162.4640 O   0  0  0  0  0  0  0  0  0  0  0  0
  148.5738  136.2975  159.9860 C   0  0  0  0  0  0  0  0  0  0  0  0
  147.0276  133.7610  157.9164 H   0  0  0  0  0  0  0  0  0  0  0  0
  148.8581  134.7845  154.9946 H   0  0  0  0  0  0  0  0  0  0  0  0
  148.0382  134.5616  152.6578 H   0  0  0  0  0  0  0  0  0  0  0  0
  146.7882  131.4753  151.6197 H   0  0  0  0  0  0  0  0  0  0  0  0
  145.1188  131.2590  152.1145 H   0  0  0  0  0  0  0  0  0  0  0  0
  146.0949  132.2441  149.3861 H   0  0  0  0  0  0  0  0  0  0  0  0
  145.3342  130.7058  149.7153 H   0  0  0  0  0  0  0  0  0  0  0  0
  143.7188  132.3723  148.7317 H   0  0  0  0  0  0  0  0  0  0  0  0
  143.2115  131.8184  150.3117 H   0  0  0  0  0  0  0  0  0  0  0  0
  144.6401  134.4511  149.6945 H   0  0  0  0  0  0  0  0  0  0  0  0
  142.9784  134.2764  150.2067 H   0  0  0  0  0  0  0  0  0  0  0  0
  143.6912  133.4091  152.4108 H   0  0  0  0  0  0  0  0  0  0  0  0
  144.4896  134.9409  152.1040 H   0  0  0  0  0  0  0  0  0  0  0  0
  145.3642  132.5071  156.2667 H   0  0  0  0  0  0  0  0  0  0  0  0
  147.1278  134.8660  159.3188 H   0  0  0  0  0  0  0  0  0  0  0  0
  147.4697  133.2224  161.0852 H   0  0  0  0  0  0  0  0  0  0  0  0
  148.9869  133.9702  161.5450 H   0  0  0  0  0  0  0  0  0  0  0  0
  146.1934  135.0713  161.9957 H   0  0  0  0  0  0  0  0  0  0  0  0
  147.5437  134.9932  163.1373 H   0  0  0  0  0  0  0  0  0  0  0  0
  149.6538  136.3646  160.1217 H   0  0  0  0  0  0  0  0  0  0  0  0
  148.2827  136.9608  159.1716 H   0  0  0  0  0  0  0  0  0  0  0  0
  144.7246  132.3930  154.0689 H   0  0  0  0  0  0  0  0  0  0  0  0
  1  2  2  0  0  0  0
  2  3  1  0  0  0  0
  2 16  1  0  0  0  0
  3  4  1  0  0  0  0
  3 24  1  0  0  0  0
  4 15  1  0  0  0  0
  4  5  2  0  0  0  0
  5  6  1  0  0  0  0
  5 25  1  0  0  0  0
  6  7  2  0  0  0  0
  6 26  1  0  0  0  0
  7  8  1  0  0  0  0
  7 14  1  0  0  0  0
  8 13  1  0  0  0  0
  8  9  1  0  0  0  0
  9 10  1  0  0  0  0
  9 27  1  0  0  0  0
  9 28  1  0  0  0  0
 10 11  1  0  0  0  0
 10 29  1  0  0  0  0
 10 30  1  0  0  0  0
 11 12  1  0  0  0  0
 11 31  1  0  0  0  0
 11 32  1  0  0  0  0
 12 13  1  0  0  0  0
 12 33  1  0  0  0  0
 12 34  1  0  0  0  0
 13 35  1  0  0  0  0
 13 36  1  0  0  0  0
 14 15  2  0  0  0  0
 14 45  1  0  0  0  0
 15 37  1  0  0  0  0
 16 17  1  0  0  0  0
 17 23  1  0  0  0  0
 17 18  1  0  0  0  0
 17 38  1  0  0  0  0
 18 19  1  0  0  0  0
 18 39  1  0  0  0  0
 18 40  1  0  0  0  0
 19 20  1  0  0  0  0
 19 41  1  0  0  0  0
 19 42  1  0  0  0  0
 20 21  2  0  0  0  0
 20 22  2  0  0  0  0
 20 23  1  0  0  0  0
 23 43  1  0  0  0  0
 23 44  1  0  0  0  0
M  CHG  1  14   1
M  CHG  1  16  -1
M  END
> <s_m_source_file>
AV-unprocessed.smi

> <i_m_source_file_index>
1576

> <i_lp_mmshare_version>
43012

> <i_f3d_flags>
0

> <s_epik_input>
Tz1TMSg9TylbQ0gyXVtDSDJdW0NASF0oW0NIMl0xKVtOSF1DKD1PKVtOSF1jMltjSF1bY0hdYyhuW2NIXTIpTjNbQ0gyXVtDSDJdW0NIMl1bQ0gyXVtDSDJdMw==

> <s_epik_cmdline>
J2VwaWtfcHl0aG9uJywgJy1waCcsICc3LjAnLCAnLXRuJywgJzgnLCAnLW1hJywgJzIwMCcsICctbWV0YWxfYmluZGluZycsICctaW1hZScsICc8aW5maWxlLm1hZT4nLCAnLW9tYWUnLCAnPG91dGZpbGUubWFlPic=

> <r_lp_tautomer_probability>
0.999994

> <r_epik_Ionization_Penalty>
8.26491

> <r_epik_Ionization_Penalty_Charging>
8.26491

> <r_epik_Ionization_Penalty_Neutral>
3.15169e-06

> <r_epik_State_Penalty>
7.8977

> <r_epik_Charging_Adjusted_Penalty>
16.1626

> <i_epik_Tot_Q>
0

> <i_epik_Tot_abs_Q>
2

> <r_epik_Metal_State_Penalty>
3.88896

> <b_epik_Metal_Only>
1

> <s_lp_Force_Field>
OPLS_2005

> <r_lp_Energy>
27.2537

> <b_lp_Chiralities_Consistent>
1

> <s_lp_Variant>
AV-unprocessed.smi:1576-6

> <Gold.Version>
5.8.1

> <Gold.Id.Protein>
6NUR|6NUR_protein|mol2

> <Gold.PLP.Fitness>
47.2400

> <Gold.PLP.PLP>
-31.7108

> <Gold.PLP.part.hbond>
-3.8570

> <Gold.PLP.part.metal>
0.0000

> <Gold.PLP.part.buried>
-3.1518

> <Gold.PLP.part.nonpolar>
-26.1863

> <Gold.PLP.part.repulsive>
0.1144

> <Gold.PLP.ligand.clash>
0.0000

> <Gold.PLP.ligand.torsion>
0.8618

> <Gold.PLP.Chemscore.Hbond>
5.6860

> <Gold.PLP.Chemscore.CHOScore>
0.0000

> <Gold.PLP.Chemscore.Metal>
0.0000

> <Gold.Chemscore.Hbonds>
donor molecule, donor type, donor heavy atom, donor atom, acceptor molecule, acceptor atom, score
      L1  H    14    45       P1 10957  0.87
      P1  H  6896  6908       L1    16  2.00
      P1  H  6934  6947       L1    21  1.00

> <Gold.PLP.Chemscore.Internal.Correction>
0.1947

> <Gold.Rescore>
     Score         DG    S(hbond)    S(metal)    S(lipo)     H(rot)  DE(clash)    DE(int)     intcor
     14.76     -17.53       1.89        0.00      75.97       1.24       0.53       2.24       ----

> <Gold.Chemscore.Fitness>
14.7634

> <Gold.Chemscore.DG>
-17.5261

> <Gold.Chemscore.ZeroCoef>
-5.4800

> <Gold.Chemscore.Hbond>
1.8931

> <Gold.Chemscore.Metal>
0.0000

> <Gold.Chemscore.Lipo>
75.9738

> <Gold.Chemscore.Internal_Hbond>
0.0000

> <Gold.Chemscore.DEClash>
0.5251

> <Gold.Chemscore.DEInternal>
2.2377

> <Gold.Chemscore.Rot>
1.2366

> <Gold.Chemscore.Internal.Correction>
   9.000000E+99

> <Gold.Chemscore.Hbonds>
donor molecule, donor type, donor heavy atom, donor atom, acceptor molecule, acceptor atom, score
      L1  H    14    45       P1 10957  0.17
      P1  H  6896  6908       L1    16  0.71
      P1  H  6934  6947       L1    21  0.38

> <Gold.Chemscore.Hbond.Weighted>
-6.3229

> <Gold.Chemscore.Metal.Weighted>
-0.0000

> <Gold.Chemscore.Lipo.Weighted>
-8.8889

> <Gold.Chemscore.Internal_Hbond.Weighted>
0.0000

> <Gold.Chemscore.DEClash.Weighted>
0.5251

> <Gold.Chemscore.DEInternal.Weighted>
2.2377

> <Gold.Chemscore.Rot.Weighted>
3.1657

> <Gold.Chemscore.Internal.Correction.Weighted>
   9.000000E+99

> <Gold.Protein.RotatedTorsions>
[ 6907 6896 6895 6894 ] final  139.65 input  -60.11 | X-H torsion
[ 7974 7965 7964 7962 ] final  161.99 input  175.53 | X-H torsion
[ 8008 7997 7996 7995 ] final   13.00 input   59.86 | X-H torsion
[ 10167 10162 10161 10158 ] final  159.37 input  -65.29 | X-H torsion
[ 10718 10713 10712 10709 ] final   52.28 input   66.30 | X-H torsion
[ 10763 10752 10751 10750 ] final -119.20 input  -60.55 | X-H torsion
[ 11005 11000 10999 10996 ] final -139.28 input  -57.11 | X-H torsion

> <Gold.Protein.ActiveResidues>
 VAL166  LYS551  ARG553  GLY616  TRP617  ASP618  TYR619  PRO620  LYS621  CYS622 
 ASP623  PHE694  ASN695  SER759  ASP760  ASP761  ALA762  ILE779  LEU786  VAL792 
 PHE793  MET794  SER795  GLU796  ALA797  LYS798  CYS799  TRP800  GLU811  SER814 

> <Gold.Protein.RotatedAtoms>
  152.2524  133.5227  159.5333 H   0  0  0  0  0  0  0  0  0  0  0  0  # atno 6907 bound_to 6896
  150.7098  134.0941  159.3951 H   0  0  0  0  0  0  0  0  0  0  0  0  # atno 6908 bound_to 6896
  151.8861  135.0435  160.0544 H   0  0  0  0  0  0  0  0  0  0  0  0  # atno 6909 bound_to 6896
  144.7658  139.7976  143.6315 H   0  0  0  0  0  0  0  0  0  0  0  0  # atno 7974 bound_to 7965
  154.8284  140.2895  155.5739 H   0  0  0  0  0  0  0  0  0  0  0  0  # atno 8008 bound_to 7997
  156.3003  140.2536  156.3136 H   0  0  0  0  0  0  0  0  0  0  0  0  # atno 8009 bound_to 7997
  154.9259  140.0384  157.2012 H   0  0  0  0  0  0  0  0  0  0  0  0  # atno 8010 bound_to 7997
  139.4832  144.4736  151.8541 H   0  0  0  0  0  0  0  0  0  0  0  0  # atno 10167 bound_to 10162
  157.5060  130.8469  149.8375 H   0  0  0  0  0  0  0  0  0  0  0  0  # atno 10718 bound_to 10713
  154.8610  135.4247  154.2261 H   0  0  0  0  0  0  0  0  0  0  0  0  # atno 10763 bound_to 10752
  153.3255  135.6985  153.6998 H   0  0  0  0  0  0  0  0  0  0  0  0  # atno 10764 bound_to 10752
  153.6036  135.3532  155.2927 H   0  0  0  0  0  0  0  0  0  0  0  0  # atno 10765 bound_to 10752
  140.8535  134.2256  157.4747 H   0  0  0  0  0  0  0  0  0  0  0  0  # atno 11005 bound_to 11000
  146.1764  139.4937  142.9894 LP  0  0  0  0  0  0  0  0  0  0  0  0  # atno 17320 bound_to 7965
  145.6474  141.0271  143.1779 LP  0  0  0  0  0  0  0  0  0  0  0  0  # atno 17321 bound_to 7965
  140.4207  144.2247  150.5887 LP  0  0  0  0  0  0  0  0  0  0  0  0  # atno 17342 bound_to 10162
  140.4876  143.2358  151.8865 LP  0  0  0  0  0  0  0  0  0  0  0  0  # atno 17343 bound_to 10162
  156.0259  130.3780  150.1826 LP  0  0  0  0  0  0  0  0  0  0  0  0  # atno 17370 bound_to 10713
  157.0016  130.9924  151.3389 LP  0  0  0  0  0  0  0  0  0  0  0  0  # atno 17371 bound_to 10713
  139.8704  134.9695  156.4668 LP  0  0  0  0  0  0  0  0  0  0  0  0  # atno 17394 bound_to 11000
  140.8763  133.7951  155.9418 LP  0  0  0  0  0  0  0  0  0  0  0  0  # atno 17395 bound_to 11000

$$$$
