AV-unprocessed.smi:699|AV-procd|sdf|3401|dock1
  -GOLD-   22720 0383D 1   1.00000     0.00000
 Structure written by MMmdl.
 34 35  0  0  0  0  0  0  0  0  1 V2000
  150.5690  131.7506  151.8744 N   0  0  0  0  0  0  0  0  0  0  0  0
  151.8754  131.9004  151.6419 C   0  0  0  0  0  0  0  0  0  0  0  0
  152.4015  131.4947  150.6067 O   0  0  0  0  0  0  0  0  0  0  0  0
  152.7048  132.6005  152.7405 C   0  0  2  0  0  0  0  0  0  0  0  0
  152.5920  131.8506  154.0764 C   0  0  0  0  0  0  0  0  0  0  0  0
  151.3672  132.4381  154.7829 C   0  0  0  0  0  0  0  0  0  0  0  0
  151.2421  133.8808  154.2771 C   0  0  0  0  0  0  0  0  0  0  0  0
  152.2355  134.0337  153.1093 C   0  0  2  0  0  0  0  0  0  0  0  0
  151.6422  134.7904  152.0051 N   0  0  0  0  0  0  0  0  0  0  0  0
  152.1908  134.9363  150.7905 C   0  0  0  0  0  0  0  0  0  0  0  0
  153.2759  134.4474  150.4772 O   0  0  0  0  0  0  0  0  0  0  0  0
  151.4053  135.6793  149.9913 N   0  0  0  0  0  0  0  0  0  0  0  0
  151.6071  136.0613  148.6364 C   0  0  0  0  0  0  0  0  0  0  0  0
  151.0284  137.2745  148.2092 C   0  0  0  0  0  0  0  0  0  0  0  0
  151.1988  137.6755  146.8690 C   0  0  0  0  0  0  0  0  0  0  0  0
  151.8864  136.9524  145.9606 N   0  0  0  0  0  0  0  0  0  0  0  0
  152.4299  135.7859  146.3670 C   0  0  0  0  0  0  0  0  0  0  0  0
  152.3186  135.2931  147.6829 C   0  0  0  0  0  0  0  0  0  0  0  0
  149.9861  131.2969  151.1859 H   0  0  0  0  0  0  0  0  0  0  0  0
  150.1682  132.0890  152.7373 H   0  0  0  0  0  0  0  0  0  0  0  0
  153.7469  132.6264  152.4171 H   0  0  0  0  0  0  0  0  0  0  0  0
  152.5161  130.7683  153.9603 H   0  0  0  0  0  0  0  0  0  0  0  0
  153.4846  132.0452  154.6724 H   0  0  0  0  0  0  0  0  0  0  0  0
  150.4751  131.8743  154.5080 H   0  0  0  0  0  0  0  0  0  0  0  0
  151.4598  132.3877  155.8680 H   0  0  0  0  0  0  0  0  0  0  0  0
  150.2145  134.0722  153.9645 H   0  0  0  0  0  0  0  0  0  0  0  0
  151.4734  134.5951  155.0679 H   0  0  0  0  0  0  0  0  0  0  0  0
  153.1006  134.5851  153.4833 H   0  0  0  0  0  0  0  0  0  0  0  0
  150.7462  135.2216  152.1802 H   0  0  0  0  0  0  0  0  0  0  0  0
  150.5722  136.0533  150.4213 H   0  0  0  0  0  0  0  0  0  0  0  0
  150.4654  137.8925  148.8934 H   0  0  0  0  0  0  0  0  0  0  0  0
  150.7692  138.6019  146.5176 H   0  0  0  0  0  0  0  0  0  0  0  0
  152.9666  135.2227  145.6180 H   0  0  0  0  0  0  0  0  0  0  0  0
  152.7686  134.3427  147.9220 H   0  0  0  0  0  0  0  0  0  0  0  0
  1  2  1  0  0  0  0
  1 19  1  0  0  0  0
  1 20  1  0  0  0  0
  2  3  2  0  0  0  0
  2  4  1  0  0  0  0
  4  8  1  0  0  0  0
  4  5  1  0  0  0  0
  4 21  1  0  0  0  0
  5  6  1  0  0  0  0
  5 22  1  0  0  0  0
  5 23  1  0  0  0  0
  6  7  1  0  0  0  0
  6 24  1  0  0  0  0
  6 25  1  0  0  0  0
  7  8  1  0  0  0  0
  7 26  1  0  0  0  0
  7 27  1  0  0  0  0
  8  9  1  0  0  0  0
  8 28  1  0  0  0  0
  9 10  1  0  0  0  0
  9 29  1  0  0  0  0
 10 11  2  0  0  0  0
 10 12  1  0  0  0  0
 12 13  1  0  0  0  0
 12 30  1  0  0  0  0
 13 18  1  0  0  0  0
 13 14  2  0  0  0  0
 14 15  1  0  0  0  0
 14 31  1  0  0  0  0
 15 16  2  0  0  0  0
 15 32  1  0  0  0  0
 16 17  1  0  0  0  0
 17 18  2  0  0  0  0
 17 33  1  0  0  0  0
 18 34  1  0  0  0  0
M  END
> <s_m_source_file>
AV-unprocessed.smi

> <i_m_source_file_index>
699

> <i_lp_mmshare_version>
43012

> <i_f3d_flags>
0

> <s_epik_input>
W05IMl1DKD1PKVtDQEBIXTFbQ0gyXVtDSDJdW0NIMl1bQ0BIXTFbTkhdQyg9TylbTkhdYzJbY0hdW2NIXW5bY0hdW2NIXTI=

> <s_epik_cmdline>
J2VwaWtfcHl0aG9uJywgJy1waCcsICc3LjAnLCAnLXRuJywgJzgnLCAnLW1hJywgJzIwMCcsICctbWV0YWxfYmluZGluZycsICctaW1hZScsICc8aW5maWxlLm1hZT4nLCAnLW9tYWUnLCAnPG91dGZpbGUubWFlPic=

> <r_epik_Ionization_Penalty>
0.113907

> <r_epik_Ionization_Penalty_Charging>
0

> <r_epik_Ionization_Penalty_Neutral>
0.113907

> <r_epik_State_Penalty>
0.103543

> <r_epik_Charging_Adjusted_Penalty>
0.103543

> <i_epik_Tot_Q>
0

> <i_epik_Tot_abs_Q>
0

> <r_epik_Metal_State_Penalty>
0.0867106

> <b_epik_Metal_Only>
0

> <s_lp_Force_Field>
OPLS_2005

> <r_lp_Energy>
19.4055

> <b_lp_Chiralities_Consistent>
1

> <s_lp_Variant>
AV-unprocessed.smi:699-3

> <Gold.Version>
5.8.1

> <Gold.Id.Protein>
6NUR|6NUR_protein|mol2

> <Gold.PLP.Fitness>
37.2909

> <Gold.PLP.PLP>
-26.7590

> <Gold.PLP.part.hbond>
-4.0000

> <Gold.PLP.part.metal>
0.0000

> <Gold.PLP.part.buried>
-3.9086

> <Gold.PLP.part.nonpolar>
-19.7384

> <Gold.PLP.part.repulsive>
0.3016

> <Gold.PLP.ligand.clash>
0.0000

> <Gold.PLP.ligand.torsion>
0.2770

> <Gold.PLP.Chemscore.Hbond>
3.6864

> <Gold.PLP.Chemscore.CHOScore>
0.0000

> <Gold.PLP.Chemscore.Metal>
0.0000

> <Gold.Chemscore.Hbonds>
donor molecule, donor type, donor heavy atom, donor atom, acceptor molecule, acceptor atom, score
      P1  H 10708 10714       L1    11  0.20

> <Gold.PLP.Chemscore.Internal.Correction>
0.0266

> <Gold.Rescore>
     Score         DG    S(hbond)    S(metal)    S(lipo)     H(rot)  DE(clash)    DE(int)     intcor
     17.33     -18.46       3.27        0.00      50.16       1.49       0.00       1.13       ----

> <Gold.Chemscore.Fitness>
17.3258

> <Gold.Chemscore.DG>
-18.4558

> <Gold.Chemscore.ZeroCoef>
-5.4800

> <Gold.Chemscore.Hbond>
3.2694

> <Gold.Chemscore.Metal>
0.0000

> <Gold.Chemscore.Lipo>
50.1573

> <Gold.Chemscore.Internal_Hbond>
0.0000

> <Gold.Chemscore.DEClash>
0.0015

> <Gold.Chemscore.DEInternal>
1.1285

> <Gold.Chemscore.Rot>
1.4892

> <Gold.Chemscore.Internal.Correction>
   9.000000E+99

> <Gold.Chemscore.Hbonds>
donor molecule, donor type, donor heavy atom, donor atom, acceptor molecule, acceptor atom, score
      P1  H 10708 10714       L1    11  0.20

> <Gold.Chemscore.Hbond.Weighted>
-10.9196

> <Gold.Chemscore.Metal.Weighted>
-0.0000

> <Gold.Chemscore.Lipo.Weighted>
-5.8684

> <Gold.Chemscore.Internal_Hbond.Weighted>
0.0000

> <Gold.Chemscore.DEClash.Weighted>
0.0015

> <Gold.Chemscore.DEInternal.Weighted>
1.1285

> <Gold.Chemscore.Rot.Weighted>
3.8123

> <Gold.Chemscore.Internal.Correction.Weighted>
   9.000000E+99

> <Gold.Protein.RotatedTorsions>
[ 6907 6896 6895 6894 ] final -152.89 input  -60.11 | X-H torsion
[ 7974 7965 7964 7962 ] final  160.27 input  175.53 | X-H torsion
[ 8008 7997 7996 7995 ] final -118.69 input   59.86 | X-H torsion
[ 10167 10162 10161 10158 ] final  -54.77 input  -65.29 | X-H torsion
[ 10718 10713 10712 10709 ] final   29.79 input   66.30 | X-H torsion
[ 10763 10752 10751 10750 ] final  108.50 input  -60.55 | X-H torsion
[ 11005 11000 10999 10996 ] final  -74.52 input  -57.11 | X-H torsion

> <Gold.Protein.ActiveResidues>
 VAL166  LYS551  ARG553  GLY616  TRP617  ASP618  TYR619  PRO620  LYS621  CYS622 
 ASP623  PHE694  ASN695  SER759  ASP760  ASP761  ALA762  ILE779  LEU786  VAL792 
 PHE793  MET794  SER795  GLU796  ALA797  LYS798  CYS799  TRP800  GLU811  SER814 

> <Gold.Protein.RotatedAtoms>
  151.2344  133.4433  159.2604 H   0  0  0  0  0  0  0  0  0  0  0  0  # atno 6907 bound_to 6896
  151.0764  134.9831  159.8344 H   0  0  0  0  0  0  0  0  0  0  0  0  # atno 6908 bound_to 6896
  152.5419  134.2286  159.8869 H   0  0  0  0  0  0  0  0  0  0  0  0  # atno 6909 bound_to 6896
  144.7746  139.7734  143.6284 H   0  0  0  0  0  0  0  0  0  0  0  0  # atno 7974 bound_to 7965
  155.1038  140.0396  157.2704 H   0  0  0  0  0  0  0  0  0  0  0  0  # atno 8008 bound_to 7997
  154.6738  140.2618  155.6954 H   0  0  0  0  0  0  0  0  0  0  0  0  # atno 8009 bound_to 7997
  156.2668  140.2792  156.1256 H   0  0  0  0  0  0  0  0  0  0  0  0  # atno 8010 bound_to 7997
  140.6412  143.2509  151.4984 H   0  0  0  0  0  0  0  0  0  0  0  0  # atno 10167 bound_to 10162
  157.2512  130.7116  149.6406 H   0  0  0  0  0  0  0  0  0  0  0  0  # atno 10718 bound_to 10713
  153.4216  135.3810  155.2115 H   0  0  0  0  0  0  0  0  0  0  0  0  # atno 10763 bound_to 10752
  154.8745  135.3818  154.4377 H   0  0  0  0  0  0  0  0  0  0  0  0  # atno 10764 bound_to 10752
  153.4898  135.7088  153.5953 H   0  0  0  0  0  0  0  0  0  0  0  0  # atno 10765 bound_to 10752
  141.1636  133.6914  156.7376 H   0  0  0  0  0  0  0  0  0  0  0  0  # atno 11005 bound_to 11000
  146.1916  139.5160  142.9801 LP  0  0  0  0  0  0  0  0  0  0  0  0  # atno 17320 bound_to 7965
  145.6224  141.0320  143.1907 LP  0  0  0  0  0  0  0  0  0  0  0  0  # atno 17321 bound_to 7965
  139.5621  144.2130  152.1708 LP  0  0  0  0  0  0  0  0  0  0  0  0  # atno 17342 bound_to 10162
  140.1401  144.5210  150.6749 LP  0  0  0  0  0  0  0  0  0  0  0  0  # atno 17343 bound_to 10162
  155.9666  130.4427  150.5391 LP  0  0  0  0  0  0  0  0  0  0  0  0  # atno 17370 bound_to 10713
  157.3276  131.0693  151.1885 LP  0  0  0  0  0  0  0  0  0  0  0  0  # atno 17371 bound_to 10713
  140.2698  134.8401  157.3836 LP  0  0  0  0  0  0  0  0  0  0  0  0  # atno 17394 bound_to 11000
  140.1532  134.4823  155.7946 LP  0  0  0  0  0  0  0  0  0  0  0  0  # atno 17395 bound_to 11000

$$$$
