AV-unprocessed.smi:1245|AV-procd|sdf|5239|dock10
  -GOLD-   22720 4343D 1   1.00000     0.00000
 Structure written by MMmdl.
 43 44  0  0  0  0  0  0  0  0  1 V2000
  150.3884  139.2618  158.7383 O   0  0  0  0  0  0  0  0  0  0  0  0
  150.8409  140.2745  158.2047 C   0  0  0  0  0  0  0  0  0  0  0  0
  150.2057  140.8163  156.9230 C   0  0  0  0  0  0  0  0  0  0  0  0
  149.1565  139.8616  156.3276 C   0  0  0  0  0  0  0  0  0  0  0  0
  149.1780  139.8901  154.4792 S   0  0  0  0  0  0  0  0  0  0  0  0
  150.0292  141.0083  154.0444 O   0  0  0  0  0  0  0  0  0  0  0  0
  149.4764  138.5322  153.9989 O   0  0  0  0  0  0  0  0  0  0  0  0
  147.4170  140.2887  154.0632 C   0  0  0  0  0  0  0  0  0  0  0  0
  146.4787  139.1692  154.5569 C   0  0  0  0  0  0  0  0  0  0  0  0
  145.7843  138.5913  153.3179 C   0  0  0  0  0  0  0  0  0  0  0  0
  146.6581  139.0042  152.1365 C   0  0  0  0  0  0  0  0  0  0  0  0
  147.1965  140.3740  152.5437 C   0  0  0  0  0  0  0  0  0  0  0  0
  151.8907  140.9570  158.6847 N   0  0  0  0  0  0  0  0  0  0  0  0
  152.6386  140.6093  159.8888 C   0  0  0  0  0  0  0  0  0  0  0  0
  153.6163  141.7181  160.3259 C   0  0  0  0  0  0  0  0  0  0  0  0
  153.2759  143.0853  159.7570 C   0  0  0  0  0  0  0  0  0  0  0  0
  152.9912  144.1721  160.6117 C   0  0  0  0  0  0  0  0  0  0  0  0
  152.6941  145.4212  160.0333 C   0  0  0  0  0  0  0  0  0  0  0  0
  152.6926  145.5352  158.6298 C   0  0  0  0  0  0  0  0  0  0  0  0
  152.9882  144.3897  157.8640 C   0  0  0  0  0  0  0  0  0  0  0  0
  153.2742  143.1873  158.4086 N   0  0  0  0  0  0  0  0  0  0  0  0
  149.7666  141.7995  157.0977 H   0  0  0  0  0  0  0  0  0  0  0  0
  151.0071  140.9652  156.1989 H   0  0  0  0  0  0  0  0  0  0  0  0
  149.3683  138.8406  156.6442 H   0  0  0  0  0  0  0  0  0  0  0  0
  148.1537  140.1067  156.6766 H   0  0  0  0  0  0  0  0  0  0  0  0
  147.1758  141.2374  154.5436 H   0  0  0  0  0  0  0  0  0  0  0  0
  147.0441  138.3847  155.0611 H   0  0  0  0  0  0  0  0  0  0  0  0
  145.7484  139.5445  155.2744 H   0  0  0  0  0  0  0  0  0  0  0  0
  145.6490  137.5111  153.3797 H   0  0  0  0  0  0  0  0  0  0  0  0
  144.7966  139.0419  153.2120 H   0  0  0  0  0  0  0  0  0  0  0  0
  147.4806  138.2978  152.0179 H   0  0  0  0  0  0  0  0  0  0  0  0
  146.1061  139.0336  151.1967 H   0  0  0  0  0  0  0  0  0  0  0  0
  146.4410  141.1314  152.3323 H   0  0  0  0  0  0  0  0  0  0  0  0
  148.0916  140.6470  151.9860 H   0  0  0  0  0  0  0  0  0  0  0  0
  152.1932  141.7792  158.1822 H   0  0  0  0  0  0  0  0  0  0  0  0
  151.9122  140.4330  160.6826 H   0  0  0  0  0  0  0  0  0  0  0  0
  153.1702  139.6674  159.7446 H   0  0  0  0  0  0  0  0  0  0  0  0
  153.6345  141.7817  161.4146 H   0  0  0  0  0  0  0  0  0  0  0  0
  154.6307  141.4522  160.0258 H   0  0  0  0  0  0  0  0  0  0  0  0
  153.0066  144.0536  161.6854 H   0  0  0  0  0  0  0  0  0  0  0  0
  152.4733  146.2762  160.6553 H   0  0  0  0  0  0  0  0  0  0  0  0
  152.4705  146.4775  158.1512 H   0  0  0  0  0  0  0  0  0  0  0  0
  152.9967  144.4406  156.7853 H   0  0  0  0  0  0  0  0  0  0  0  0
  1  2  2  0  0  0  0
  2  3  1  0  0  0  0
  2 13  1  0  0  0  0
  3  4  1  0  0  0  0
  3 22  1  0  0  0  0
  3 23  1  0  0  0  0
  4  5  1  0  0  0  0
  4 24  1  0  0  0  0
  4 25  1  0  0  0  0
  5  6  2  0  0  0  0
  5  7  2  0  0  0  0
  5  8  1  0  0  0  0
  8 12  1  0  0  0  0
  8  9  1  0  0  0  0
  8 26  1  0  0  0  0
  9 10  1  0  0  0  0
  9 27  1  0  0  0  0
  9 28  1  0  0  0  0
 10 11  1  0  0  0  0
 10 29  1  0  0  0  0
 10 30  1  0  0  0  0
 11 12  1  0  0  0  0
 11 31  1  0  0  0  0
 11 32  1  0  0  0  0
 12 33  1  0  0  0  0
 12 34  1  0  0  0  0
 13 14  1  0  0  0  0
 13 35  1  0  0  0  0
 14 15  1  0  0  0  0
 14 36  1  0  0  0  0
 14 37  1  0  0  0  0
 15 16  1  0  0  0  0
 15 38  1  0  0  0  0
 15 39  1  0  0  0  0
 16 21  1  0  0  0  0
 16 17  2  0  0  0  0
 17 18  1  0  0  0  0
 17 40  1  0  0  0  0
 18 19  2  0  0  0  0
 18 41  1  0  0  0  0
 19 20  1  0  0  0  0
 19 42  1  0  0  0  0
 20 21  2  0  0  0  0
 20 43  1  0  0  0  0
M  END
> <s_m_source_file>
AV-unprocessed.smi

> <i_m_source_file_index>
1245

> <i_lp_mmshare_version>
43012

> <i_f3d_flags>
0

> <s_epik_input>
W0NIMl0xW0NIMl1bQ0gyXVtDSDJdW0NIXTFTKD1PKSg9TylbQ0gyXVtDSDJdQyg9TylbTkhdW0NIMl1bQ0gyXWMyW2NIXVtjSF1bY0hdW2NIXW4y

> <s_epik_cmdline>
J2VwaWtfcHl0aG9uJywgJy1waCcsICc3LjAnLCAnLXRuJywgJzgnLCAnLW1hJywgJzIwMCcsICctbWV0YWxfYmluZGluZycsICctaW1hZScsICc8aW5maWxlLm1hZT4nLCAnLW9tYWUnLCAnPG91dGZpbGUubWFlPic=

> <r_epik_Ionization_Penalty>
0.0243247

> <r_epik_Ionization_Penalty_Charging>
0

> <r_epik_Ionization_Penalty_Neutral>
0.0243247

> <r_epik_State_Penalty>
0.0197389

> <r_epik_Charging_Adjusted_Penalty>
0.0197389

> <i_epik_Tot_Q>
0

> <i_epik_Tot_abs_Q>
0

> <r_epik_Metal_State_Penalty>
0.0189562

> <b_epik_Metal_Only>
0

> <s_lp_Force_Field>
OPLS_2005

> <r_lp_Energy>
12.2182

> <b_lp_Chiralities_Consistent>
1

> <s_lp_Variant>
AV-unprocessed.smi:1245-1

> <Gold.Version>
5.8.1

> <Gold.Id.Protein>
6NUR|6NUR_protein|mol2

> <Gold.PLP.Fitness>
43.2277

> <Gold.PLP.PLP>
-41.7949

> <Gold.PLP.part.hbond>
-2.0000

> <Gold.PLP.part.metal>
0.0000

> <Gold.PLP.part.buried>
-1.9380

> <Gold.PLP.part.nonpolar>
-38.4703

> <Gold.PLP.part.repulsive>
2.1180

> <Gold.PLP.ligand.clash>
0.0000

> <Gold.PLP.ligand.torsion>
0.7849

> <Gold.PLP.Chemscore.Hbond>
0.9027

> <Gold.PLP.Chemscore.CHOScore>
0.0000

> <Gold.PLP.Chemscore.Metal>
0.0000

> <Gold.Chemscore.Hbonds>
donor molecule, donor type, donor heavy atom, donor atom, acceptor molecule, acceptor atom, score
      P1  H  7989  7998       L1     6  0.48
      P1  H  8011  8017       L1     6  0.41

> <Gold.PLP.Chemscore.Internal.Correction>
0.2945

> <Gold.Rescore>
     Score         DG    S(hbond)    S(metal)    S(lipo)     H(rot)  DE(clash)    DE(int)     intcor
     13.42     -16.31       0.69        0.00     116.57       2.00       0.61       2.29       ----

> <Gold.Chemscore.Fitness>
13.4222

> <Gold.Chemscore.DG>
-16.3144

> <Gold.Chemscore.ZeroCoef>
-5.4800

> <Gold.Chemscore.Hbond>
0.6943

> <Gold.Chemscore.Metal>
0.0000

> <Gold.Chemscore.Lipo>
116.5711

> <Gold.Chemscore.Internal_Hbond>
0.0000

> <Gold.Chemscore.DEClash>
0.6069

> <Gold.Chemscore.DEInternal>
2.2852

> <Gold.Chemscore.Rot>
2.0014

> <Gold.Chemscore.Internal.Correction>
   9.000000E+99

> <Gold.Chemscore.Hbonds>
donor molecule, donor type, donor heavy atom, donor atom, acceptor molecule, acceptor atom, score
      P1  H  7989  7998       L1     6  0.48
      P1  H  8011  8017       L1     6  0.40

> <Gold.Chemscore.Hbond.Weighted>
-2.3191

> <Gold.Chemscore.Metal.Weighted>
-0.0000

> <Gold.Chemscore.Lipo.Weighted>
-13.6388

> <Gold.Chemscore.Internal_Hbond.Weighted>
0.0000

> <Gold.Chemscore.DEClash.Weighted>
0.6069

> <Gold.Chemscore.DEInternal.Weighted>
2.2852

> <Gold.Chemscore.Rot.Weighted>
5.1236

> <Gold.Chemscore.Internal.Correction.Weighted>
   9.000000E+99

> <Gold.Protein.RotatedTorsions>
[ 6907 6896 6895 6894 ] final  136.08 input  -60.11 | X-H torsion
[ 7974 7965 7964 7962 ] final -111.25 input  175.53 | X-H torsion
[ 8008 7997 7996 7995 ] final -166.31 input   59.86 | X-H torsion
[ 10167 10162 10161 10158 ] final  126.18 input  -65.29 | X-H torsion
[ 10718 10713 10712 10709 ] final  -56.20 input   66.30 | X-H torsion
[ 10763 10752 10751 10750 ] final -110.33 input  -60.55 | X-H torsion
[ 11005 11000 10999 10996 ] final  -19.78 input  -57.11 | X-H torsion

> <Gold.Protein.ActiveResidues>
 VAL166  LYS551  ARG553  GLY616  TRP617  ASP618  TYR619  PRO620  LYS621  CYS622 
 ASP623  PHE694  ASN695  SER759  ASP760  ASP761  ALA762  ILE779  LEU786  VAL792 
 PHE793  MET794  SER795  GLU796  ALA797  LYS798  CYS799  TRP800  GLU811  SER814 

> <Gold.Protein.RotatedAtoms>
  152.2934  133.5583  159.5571 H   0  0  0  0  0  0  0  0  0  0  0  0  # atno 6907 bound_to 6896
  150.7245  134.0396  159.3770 H   0  0  0  0  0  0  0  0  0  0  0  0  # atno 6908 bound_to 6896
  151.8301  135.0624  160.0486 H   0  0  0  0  0  0  0  0  0  0  0  0  # atno 6909 bound_to 6896
  145.1584  140.8865  143.3605 H   0  0  0  0  0  0  0  0  0  0  0  0  # atno 7974 bound_to 7965
  155.8620  140.0979  157.1607 H   0  0  0  0  0  0  0  0  0  0  0  0  # atno 8008 bound_to 7997
  154.3991  140.1363  156.4035 H   0  0  0  0  0  0  0  0  0  0  0  0  # atno 8009 bound_to 7997
  155.7846  140.3457  155.5318 H   0  0  0  0  0  0  0  0  0  0  0  0  # atno 8010 bound_to 7997
  139.5645  144.6903  151.3949 H   0  0  0  0  0  0  0  0  0  0  0  0  # atno 10167 bound_to 10162
  156.1308  130.4159  150.0272 H   0  0  0  0  0  0  0  0  0  0  0  0  # atno 10718 bound_to 10713
  154.8242  135.4568  154.0869 H   0  0  0  0  0  0  0  0  0  0  0  0  # atno 10763 bound_to 10752
  153.2197  135.6892  153.8021 H   0  0  0  0  0  0  0  0  0  0  0  0  # atno 10764 bound_to 10752
  153.7442  135.3308  155.3286 H   0  0  0  0  0  0  0  0  0  0  0  0  # atno 10765 bound_to 10752
  140.8400  133.7933  155.9850 H   0  0  0  0  0  0  0  0  0  0  0  0  # atno 11005 bound_to 11000
  145.0357  139.3303  143.6002 LP  0  0  0  0  0  0  0  0  0  0  0  0  # atno 17320 bound_to 7965
  146.3485  139.9711  142.8706 LP  0  0  0  0  0  0  0  0  0  0  0  0  # atno 17321 bound_to 7965
  140.6928  143.7822  150.7280 LP  0  0  0  0  0  0  0  0  0  0  0  0  # atno 17342 bound_to 10162
  140.1309  143.4527  152.2255 LP  0  0  0  0  0  0  0  0  0  0  0  0  # atno 17343 bound_to 10162
  156.8185  130.9350  151.3642 LP  0  0  0  0  0  0  0  0  0  0  0  0  # atno 17370 bound_to 10713
  157.6486  130.8865  149.9587 LP  0  0  0  0  0  0  0  0  0  0  0  0  # atno 17371 bound_to 10713
  140.8905  134.2500  157.5096 LP  0  0  0  0  0  0  0  0  0  0  0  0  # atno 17394 bound_to 11000
  139.8703  134.9659  156.4545 LP  0  0  0  0  0  0  0  0  0  0  0  0  # atno 17395 bound_to 11000

$$$$
