AV-unprocessed.smi:2510|AV-procd|sdf|9881|dock10
  -GOLD-   2272013513D 1   1.00000     0.00000
 Structure written by MMmdl.
 48 49  0  0  0  0  0  0  0  0  1 V2000
  144.3406  143.2029  161.2377 C   0  0  0  0  0  0  0  0  0  0  0  0
  145.5929  144.0799  161.4035 C   0  0  0  0  0  0  0  0  0  0  0  0
  146.3483  144.3979  160.0895 C   0  0  0  0  0  0  0  0  0  0  0  0
  147.5033  145.3841  160.3933 C   0  0  0  0  0  0  0  0  0  0  0  0
  148.2908  145.0881  161.6790 C   0  0  0  0  0  0  0  0  0  0  0  0
  146.6707  143.1267  159.2455 C   0  0  2  0  0  0  0  0  0  0  0  0
  147.8703  143.2547  158.4184 N   0  0  0  0  0  0  0  0  0  0  0  0
  148.6573  142.2327  158.0498 C   0  0  0  0  0  0  0  0  0  0  0  0
  148.4043  141.0551  158.3022 O   0  0  0  0  0  0  0  0  0  0  0  0
  149.9426  142.6000  157.3081 C   0  0  0  0  0  0  0  0  0  0  0  0
  151.0856  142.7184  158.2656 C   0  0  0  0  0  0  0  0  0  0  0  0
  151.6042  141.8298  159.1656 C   0  0  0  0  0  0  0  0  0  0  0  0
  152.7041  142.5223  159.7510 C   0  0  0  0  0  0  0  0  0  0  0  0
  153.6535  142.0304  160.8031 C   0  0  0  0  0  0  0  0  0  0  0  0
  152.8518  143.7438  159.2606 N   0  0  0  0  0  0  0  0  0  0  0  0
  151.8595  143.8532  158.3585 N   0  0  0  0  0  0  0  0  0  0  0  0
  145.3842  143.3551  158.4311 C   0  0  2  0  0  0  0  0  0  0  0  0
  145.3400  143.0289  156.9403 C   0  0  0  0  0  0  0  0  0  0  0  0
  145.4541  144.8166  158.8958 C   0  0  1  0  0  0  0  0  0  0  0  0
  144.2167  145.3804  159.3053 O   0  0  0  0  0  0  0  0  0  0  0  0
  143.3535  145.6753  158.2215 C   0  0  0  0  0  0  0  0  0  0  0  0
  151.7296  144.6936  157.8133 H   0  0  0  0  0  0  0  0  0  0  0  0
  143.8023  143.1250  162.1823 H   0  0  0  0  0  0  0  0  0  0  0  0
  144.5936  142.1890  160.9294 H   0  0  0  0  0  0  0  0  0  0  0  0
  143.6522  143.6169  160.5013 H   0  0  0  0  0  0  0  0  0  0  0  0
  145.2745  145.0085  161.8776 H   0  0  0  0  0  0  0  0  0  0  0  0
  146.2573  143.6195  162.1340 H   0  0  0  0  0  0  0  0  0  0  0  0
  148.1901  145.4533  159.5501 H   0  0  0  0  0  0  0  0  0  0  0  0
  147.1073  146.3925  160.5106 H   0  0  0  0  0  0  0  0  0  0  0  0
  148.9918  145.8958  161.8902 H   0  0  0  0  0  0  0  0  0  0  0  0
  148.8741  144.1714  161.5986 H   0  0  0  0  0  0  0  0  0  0  0  0
  147.6272  144.9951  162.5388 H   0  0  0  0  0  0  0  0  0  0  0  0
  146.6308  142.1940  159.8103 H   0  0  0  0  0  0  0  0  0  0  0  0
  148.1550  144.1898  158.1659 H   0  0  0  0  0  0  0  0  0  0  0  0
  150.1611  141.8441  156.5526 H   0  0  0  0  0  0  0  0  0  0  0  0
  149.7947  143.5415  156.7780 H   0  0  0  0  0  0  0  0  0  0  0  0
  151.2561  140.8279  159.3687 H   0  0  0  0  0  0  0  0  0  0  0  0
  153.5609  140.9534  160.9437 H   0  0  0  0  0  0  0  0  0  0  0  0
  153.4560  142.5091  161.7624 H   0  0  0  0  0  0  0  0  0  0  0  0
  154.6883  142.2400  160.5310 H   0  0  0  0  0  0  0  0  0  0  0  0
  144.5620  142.8542  158.9453 H   0  0  0  0  0  0  0  0  0  0  0  0
  146.0298  143.6509  156.3696 H   0  0  0  0  0  0  0  0  0  0  0  0
  144.3432  143.1872  156.5297 H   0  0  0  0  0  0  0  0  0  0  0  0
  145.6051  141.9874  156.7585 H   0  0  0  0  0  0  0  0  0  0  0  0
  145.9937  145.4526  158.1903 H   0  0  0  0  0  0  0  0  0  0  0  0
  142.4443  146.1440  158.5977 H   0  0  0  0  0  0  0  0  0  0  0  0
  143.0651  144.7715  157.6854 H   0  0  0  0  0  0  0  0  0  0  0  0
  143.8221  146.3664  157.5197 H   0  0  0  0  0  0  0  0  0  0  0  0
  1  2  1  0  0  0  0
  1 23  1  0  0  0  0
  1 24  1  0  0  0  0
  1 25  1  0  0  0  0
  2  3  1  0  0  0  0
  2 26  1  0  0  0  0
  2 27  1  0  0  0  0
  3 19  1  0  0  0  0
  3  4  1  0  0  0  0
  3  6  1  0  0  0  0
  4  5  1  0  0  0  0
  4 28  1  0  0  0  0
  4 29  1  0  0  0  0
  5 30  1  0  0  0  0
  5 31  1  0  0  0  0
  5 32  1  0  0  0  0
  6  7  1  0  0  0  0
  6 17  1  0  0  0  0
  6 33  1  0  0  0  0
  7  8  1  0  0  0  0
  7 34  1  0  0  0  0
  8  9  2  0  0  0  0
  8 10  1  0  0  0  0
 10 35  1  0  0  0  0
 10 36  1  0  0  0  0
 10 11  1  0  0  0  0
 11 16  1  0  0  0  0
 11 12  2  0  0  0  0
 12 13  1  0  0  0  0
 12 37  1  0  0  0  0
 13 14  1  0  0  0  0
 13 15  2  0  0  0  0
 14 38  1  0  0  0  0
 14 39  1  0  0  0  0
 14 40  1  0  0  0  0
 15 16  1  0  0  0  0
 16 22  1  0  0  0  0
 17 18  1  0  0  0  0
 17 19  1  0  0  0  0
 17 41  1  0  0  0  0
 18 42  1  0  0  0  0
 18 43  1  0  0  0  0
 18 44  1  0  0  0  0
 19 20  1  0  0  0  0
 19 45  1  0  0  0  0
 20 21  1  0  0  0  0
 21 46  1  0  0  0  0
 21 47  1  0  0  0  0
 21 48  1  0  0  0  0
M  END
> <s_m_source_file>
AV-unprocessed.smi

> <i_m_source_file_index>
2510

> <i_lp_mmshare_version>
43012

> <i_f3d_flags>
0

> <s_epik_input>
W0NIM11PW0NAQEhdMVtDQEhdKFtDSDNdKVtDQEBIXShDMShbQ0gyXVtDSDNdKVtDSDJdW0NIM10pW05IXUMoPU8pW0NIMl1jMltjSF1jKFtDSDNdKVtuSF1uMg==

> <s_epik_cmdline>
J2VwaWtfcHl0aG9uJywgJy1waCcsICc3LjAnLCAnLXRuJywgJzgnLCAnLW1hJywgJzIwMCcsICctbWV0YWxfYmluZGluZycsICctaW1hZScsICc8aW5maWxlLm1hZT4nLCAnLW9tYWUnLCAnPG91dGZpbGUubWFlPic=

> <r_lp_tautomer_probability>
0.5

> <r_epik_Ionization_Penalty>
0.000134763

> <r_epik_Ionization_Penalty_Charging>
0

> <r_epik_Ionization_Penalty_Neutral>
0.000134763

> <r_epik_State_Penalty>
0.41068

> <r_epik_Charging_Adjusted_Penalty>
0.41068

> <i_epik_Tot_Q>
0

> <i_epik_Tot_abs_Q>
0

> <r_epik_Metal_State_Penalty>
0.410661

> <b_epik_Metal_Only>
0

> <s_lp_Force_Field>
OPLS_2005

> <r_lp_Energy>
24.0531

> <b_lp_Chiralities_Consistent>
1

> <s_lp_Variant>
AV-unprocessed.smi:2510-12

> <Gold.Version>
5.8.1

> <Gold.Id.Protein>
6NUR|6NUR_protein|mol2

> <Gold.PLP.Fitness>
35.5002

> <Gold.PLP.PLP>
-34.0383

> <Gold.PLP.part.hbond>
-2.1979

> <Gold.PLP.part.metal>
0.0000

> <Gold.PLP.part.buried>
-3.6157

> <Gold.PLP.part.nonpolar>
-27.6062

> <Gold.PLP.part.repulsive>
0.2356

> <Gold.PLP.ligand.clash>
0.0603

> <Gold.PLP.ligand.torsion>
1.0251

> <Gold.PLP.Chemscore.Hbond>
1.0000

> <Gold.PLP.Chemscore.CHOScore>
0.0000

> <Gold.PLP.Chemscore.Metal>
0.0000

> <Gold.Chemscore.Hbonds>
donor molecule, donor type, donor heavy atom, donor atom, acceptor molecule, acceptor atom, score
      L1  H     7    34       P1  8029  1.00

> <Gold.PLP.Chemscore.Internal.Correction>
0.5723

> <Gold.Rescore>
     Score         DG    S(hbond)    S(metal)    S(lipo)     H(rot)  DE(clash)    DE(int)     intcor
      8.92     -12.93       0.58        0.00      86.79       1.81       0.55       3.46       ----

> <Gold.Chemscore.Fitness>
8.9173

> <Gold.Chemscore.DG>
-12.9275

> <Gold.Chemscore.ZeroCoef>
-5.4800

> <Gold.Chemscore.Hbond>
0.5771

> <Gold.Chemscore.Metal>
0.0000

> <Gold.Chemscore.Lipo>
86.7878

> <Gold.Chemscore.Internal_Hbond>
0.0000

> <Gold.Chemscore.DEClash>
0.5521

> <Gold.Chemscore.DEInternal>
3.4581

> <Gold.Chemscore.Rot>
1.8102

> <Gold.Chemscore.Internal.Correction>
   9.000000E+99

> <Gold.Chemscore.Hbonds>
donor molecule, donor type, donor heavy atom, donor atom, acceptor molecule, acceptor atom, score
      L1  H     7    34       P1  8029  0.28

> <Gold.Chemscore.Hbond.Weighted>
-1.9274

> <Gold.Chemscore.Metal.Weighted>
-0.0000

> <Gold.Chemscore.Lipo.Weighted>
-10.1542

> <Gold.Chemscore.Internal_Hbond.Weighted>
0.0000

> <Gold.Chemscore.DEClash.Weighted>
0.5521

> <Gold.Chemscore.DEInternal.Weighted>
3.4581

> <Gold.Chemscore.Rot.Weighted>
4.6341

> <Gold.Chemscore.Internal.Correction.Weighted>
   9.000000E+99

> <Gold.Protein.RotatedTorsions>
[ 6907 6896 6895 6894 ] final  117.35 input  -60.11 | X-H torsion
[ 7974 7965 7964 7962 ] final  141.98 input  175.53 | X-H torsion
[ 8008 7997 7996 7995 ] final  -53.15 input   59.86 | X-H torsion
[ 10167 10162 10161 10158 ] final  -49.03 input  -65.29 | X-H torsion
[ 10718 10713 10712 10709 ] final   -5.95 input   66.30 | X-H torsion
[ 10763 10752 10751 10750 ] final  111.06 input  -60.55 | X-H torsion
[ 11005 11000 10999 10996 ] final  -85.34 input  -57.11 | X-H torsion

> <Gold.Protein.ActiveResidues>
 VAL166  LYS551  ARG553  GLY616  TRP617  ASP618  TYR619  PRO620  LYS621  CYS622 
 ASP623  PHE694  ASN695  SER759  ASP760  ASP761  ALA762  ILE779  LEU786  VAL792 
 PHE793  MET794  SER795  GLU796  ALA797  LYS798  CYS799  TRP800  GLU811  SER814 

> <Gold.Protein.RotatedAtoms>
  152.4617  133.7837  159.6864 H   0  0  0  0  0  0  0  0  0  0  0  0  # atno 6907 bound_to 6896
  150.8564  133.7699  159.3013 H   0  0  0  0  0  0  0  0  0  0  0  0  # atno 6908 bound_to 6896
  151.5278  135.1071  159.9947 H   0  0  0  0  0  0  0  0  0  0  0  0  # atno 6909 bound_to 6896
  144.9048  139.5373  143.5736 H   0  0  0  0  0  0  0  0  0  0  0  0  # atno 7974 bound_to 7965
  154.4125  140.1207  156.5108 H   0  0  0  0  0  0  0  0  0  0  0  0  # atno 8008 bound_to 7997
  155.6801  140.3496  155.4832 H   0  0  0  0  0  0  0  0  0  0  0  0  # atno 8009 bound_to 7997
  155.9558  140.1113  157.0927 H   0  0  0  0  0  0  0  0  0  0  0  0  # atno 8010 bound_to 7997
  140.6704  143.2715  151.4156 H   0  0  0  0  0  0  0  0  0  0  0  0  # atno 10167 bound_to 10162
  156.7390  130.5204  149.5828 H   0  0  0  0  0  0  0  0  0  0  0  0  # atno 10718 bound_to 10713
  153.4578  135.3729  155.2321 H   0  0  0  0  0  0  0  0  0  0  0  0  # atno 10763 bound_to 10752
  154.8757  135.3901  154.3961 H   0  0  0  0  0  0  0  0  0  0  0  0  # atno 10764 bound_to 10752
  153.4530  135.7086  153.6161 H   0  0  0  0  0  0  0  0  0  0  0  0  # atno 10765 bound_to 10752
  141.1642  133.7394  156.9000 H   0  0  0  0  0  0  0  0  0  0  0  0  # atno 11005 bound_to 11000
  146.3128  139.7808  142.9007 LP  0  0  0  0  0  0  0  0  0  0  0  0  # atno 17320 bound_to 7965
  145.3554  141.0315  143.3315 LP  0  0  0  0  0  0  0  0  0  0  0  0  # atno 17321 bound_to 7965
  139.5970  144.1376  152.2155 LP  0  0  0  0  0  0  0  0  0  0  0  0  # atno 17342 bound_to 10162
  140.0748  144.5749  150.7165 LP  0  0  0  0  0  0  0  0  0  0  0  0  # atno 17343 bound_to 10162
  156.1477  130.6288  151.0554 LP  0  0  0  0  0  0  0  0  0  0  0  0  # atno 17370 bound_to 10713
  157.6826  131.0834  150.7328 LP  0  0  0  0  0  0  0  0  0  0  0  0  # atno 17371 bound_to 10713
  140.1589  134.9179  157.2689 LP  0  0  0  0  0  0  0  0  0  0  0  0  # atno 17394 bound_to 11000
  140.2635  134.3544  155.7398 LP  0  0  0  0  0  0  0  0  0  0  0  0  # atno 17395 bound_to 11000

$$$$
