AV-unprocessed.smi:3263|AV-procd|sdf|12492|dock6
  -GOLD-   2272018393D 1   1.00000     0.00000
 Structure written by MMmdl.
 42 44  0  0  0  0  0  0  0  0  2 V2000
  144.3109  136.7398  153.1478 O   0  0  0  0  0  0  0  0  0  0  0  0
  145.2957  136.4055  152.4889 C   0  0  0  0  0  0  0  0  0  0  0  0
  145.1268  135.6216  151.1829 C   0  0  0  0  0  0  0  0  0  0  0  0
  144.9088  134.1070  151.3992 C   0  0  2  0  0  0  0  0  0  0  0  0
  146.0980  133.3839  152.0777 C   0  0  0  0  0  0  0  0  0  0  0  0
  146.4243  132.2475  151.0922 C   0  0  1  0  0  0  0  0  0  0  0  0
  145.2880  131.2082  151.1073 C   0  0  0  0  0  0  0  0  0  0  0  0
  144.1489  131.9410  150.3735 C   0  0  0  0  0  0  0  0  0  0  0  0
  144.7692  133.3195  150.0757 C   0  0  2  0  0  0  0  0  0  0  0  0
  146.2099  132.9353  149.7505 C   0  0  0  0  0  0  0  0  0  0  0  0
  146.5544  136.6971  152.8504 N   0  0  0  0  0  0  0  0  0  0  0  0
  146.9308  137.4230  154.0573 C   0  0  0  0  0  0  0  0  0  0  0  0
  147.4104  138.8481  153.7349 C   0  0  0  0  0  0  0  0  0  0  0  0
  148.8533  139.0730  154.1427 C   0  0  0  0  0  0  0  0  0  0  0  0
  149.2285  140.0961  155.0402 C   0  0  0  0  0  0  0  0  0  0  0  0
  150.5882  140.2463  155.3843 C   0  0  0  0  0  0  0  0  0  0  0  0
  151.5427  139.3716  154.8250 C   0  0  0  0  0  0  0  0  0  0  0  0
  151.1125  138.3671  153.9341 C   0  0  0  0  0  0  0  0  0  0  0  0
  149.8009  138.2551  153.6292 N   0  3  0  0  0  0  0  0  0  0  0  0
  144.2700  136.0404  150.6540 H   0  0  0  0  0  0  0  0  0  0  0  0
  145.9932  135.7896  150.5416 H   0  0  0  0  0  0  0  0  0  0  0  0
  144.0036  133.9710  151.9933 H   0  0  0  0  0  0  0  0  0  0  0  0
  146.9600  134.0442  152.1821 H   0  0  0  0  0  0  0  0  0  0  0  0
  145.8450  133.0128  153.0716 H   0  0  0  0  0  0  0  0  0  0  0  0
  147.4150  131.8156  151.2361 H   0  0  0  0  0  0  0  0  0  0  0  0
  145.5758  130.3066  150.5651 H   0  0  0  0  0  0  0  0  0  0  0  0
  145.0101  130.9171  152.1209 H   0  0  0  0  0  0  0  0  0  0  0  0
  143.8973  131.4237  149.4468 H   0  0  0  0  0  0  0  0  0  0  0  0
  143.2404  132.0095  150.9728 H   0  0  0  0  0  0  0  0  0  0  0  0
  144.2484  133.8644  149.2878 H   0  0  0  0  0  0  0  0  0  0  0  0
  146.8681  133.7909  149.5918 H   0  0  0  0  0  0  0  0  0  0  0  0
  146.2954  132.2582  148.8985 H   0  0  0  0  0  0  0  0  0  0  0  0
  147.3044  136.3839  152.2509 H   0  0  0  0  0  0  0  0  0  0  0  0
  146.0904  137.4507  154.7531 H   0  0  0  0  0  0  0  0  0  0  0  0
  147.7250  136.8639  154.5529 H   0  0  0  0  0  0  0  0  0  0  0  0
  147.3087  139.0459  152.6670 H   0  0  0  0  0  0  0  0  0  0  0  0
  146.7826  139.5811  154.2433 H   0  0  0  0  0  0  0  0  0  0  0  0
  148.4853  140.7569  155.4626 H   0  0  0  0  0  0  0  0  0  0  0  0
  150.8948  141.0226  156.0700 H   0  0  0  0  0  0  0  0  0  0  0  0
  152.5887  139.4692  155.0768 H   0  0  0  0  0  0  0  0  0  0  0  0
  151.7726  137.6549  153.4606 H   0  0  0  0  0  0  0  0  0  0  0  0
  149.5122  137.5198  152.9835 H   0  0  0  0  0  0  0  0  0  0  0  0
  1  2  2  0  0  0  0
  2  3  1  0  0  0  0
  2 11  1  0  0  0  0
  3  4  1  0  0  0  0
  3 20  1  0  0  0  0
  3 21  1  0  0  0  0
  4  9  1  0  0  0  0
  4  5  1  0  0  0  0
  4 22  1  0  0  0  0
  5  6  1  0  0  0  0
  5 23  1  0  0  0  0
  5 24  1  0  0  0  0
  6 10  1  0  0  0  0
  6  7  1  0  0  0  0
  6 25  1  0  0  0  0
  7  8  1  0  0  0  0
  7 26  1  0  0  0  0
  7 27  1  0  0  0  0
  8  9  1  0  0  0  0
  8 28  1  0  0  0  0
  8 29  1  0  0  0  0
  9 10  1  0  0  0  0
  9 30  1  0  0  0  0
 10 31  1  0  0  0  0
 10 32  1  0  0  0  0
 11 12  1  0  0  0  0
 11 33  1  0  0  0  0
 12 13  1  0  0  0  0
 12 34  1  0  0  0  0
 12 35  1  0  0  0  0
 13 14  1  0  0  0  0
 13 36  1  0  0  0  0
 13 37  1  0  0  0  0
 14 19  1  0  0  0  0
 14 15  2  0  0  0  0
 15 16  1  0  0  0  0
 15 38  1  0  0  0  0
 16 17  2  0  0  0  0
 16 39  1  0  0  0  0
 17 18  1  0  0  0  0
 17 40  1  0  0  0  0
 18 19  2  0  0  0  0
 18 41  1  0  0  0  0
 19 42  1  0  0  0  0
M  CHG  1  19   1
M  END
> <s_m_source_file>
AV-unprocessed.smi

> <i_m_source_file_index>
3263

> <i_lp_mmshare_version>
43012

> <i_f3d_flags>
0

> <s_epik_input>
W0NIMl0xW0NIMl1bQ0BASF0oW0NIMl0yKVtDQEBIXShbQ0gyXVtDQEhdMTIpW0NIMl1DKD1PKVtOSF1bQ0gyXVtDSDJdYzNbY0hdW2NIXVtjSF1bY0hdbjM=

> <s_epik_cmdline>
J2VwaWtfcHl0aG9uJywgJy1waCcsICc3LjAnLCAnLXRuJywgJzgnLCAnLW1hJywgJzIwMCcsICctbWV0YWxfYmluZGluZycsICctaW1hZScsICc8aW5maWxlLm1hZT4nLCAnLW9tYWUnLCAnPG91dGZpbGUubWFlPic=

> <r_epik_Ionization_Penalty>
1.83579

> <r_epik_Ionization_Penalty_Charging>
1.83579

> <r_epik_Ionization_Penalty_Neutral>
2.47288e-08

> <r_epik_State_Penalty>
1.95213

> <r_epik_Charging_Adjusted_Penalty>
3.78793

> <i_epik_Tot_Q>
1

> <i_epik_Tot_abs_Q>
1

> <r_epik_Metal_State_Penalty>
1.97847

> <b_epik_Metal_Only>
0

> <s_lp_Force_Field>
OPLS_2005

> <r_lp_Energy>
51.8999

> <b_lp_Chiralities_Consistent>
1

> <s_lp_Variant>
AV-unprocessed.smi:3263-7

> <Gold.Version>
5.8.1

> <Gold.Id.Protein>
6NUR|6NUR_protein|mol2

> <Gold.PLP.Fitness>
47.3938

> <Gold.PLP.PLP>
-39.8672

> <Gold.PLP.part.hbond>
-2.5070

> <Gold.PLP.part.metal>
0.0000

> <Gold.PLP.part.buried>
-3.7599

> <Gold.PLP.part.nonpolar>
-34.0388

> <Gold.PLP.part.repulsive>
0.2631

> <Gold.PLP.ligand.clash>
0.0000

> <Gold.PLP.ligand.torsion>
0.7525

> <Gold.PLP.Chemscore.Hbond>
3.0000

> <Gold.PLP.Chemscore.CHOScore>
0.0000

> <Gold.PLP.Chemscore.Metal>
0.0000

> <Gold.Chemscore.Hbonds>
donor molecule, donor type, donor heavy atom, donor atom, acceptor molecule, acceptor atom, score
      L1  H    11    33       P1  7948  1.00
      L1  H    19    42       P1  7948  2.00

> <Gold.PLP.Chemscore.Internal.Correction>
0.0317

> <Gold.Rescore>
     Score         DG    S(hbond)    S(metal)    S(lipo)     H(rot)  DE(clash)    DE(int)     intcor
     18.50     -19.41       1.84        0.00     100.77       1.56       0.08       0.83       ----

> <Gold.Chemscore.Fitness>
18.5031

> <Gold.Chemscore.DG>
-19.4129

> <Gold.Chemscore.ZeroCoef>
-5.4800

> <Gold.Chemscore.Hbond>
1.8402

> <Gold.Chemscore.Metal>
0.0000

> <Gold.Chemscore.Lipo>
100.7725

> <Gold.Chemscore.Internal_Hbond>
0.0000

> <Gold.Chemscore.DEClash>
0.0826

> <Gold.Chemscore.DEInternal>
0.8272

> <Gold.Chemscore.Rot>
1.5640

> <Gold.Chemscore.Internal.Correction>
   9.000000E+99

> <Gold.Chemscore.Hbonds>
donor molecule, donor type, donor heavy atom, donor atom, acceptor molecule, acceptor atom, score
      L1  H    11    33       P1  7948  0.97
      L1  H    19    42       P1  7948  0.82

> <Gold.Chemscore.Hbond.Weighted>
-6.1463

> <Gold.Chemscore.Metal.Weighted>
-0.0000

> <Gold.Chemscore.Lipo.Weighted>
-11.7904

> <Gold.Chemscore.Internal_Hbond.Weighted>
0.0000

> <Gold.Chemscore.DEClash.Weighted>
0.0826

> <Gold.Chemscore.DEInternal.Weighted>
0.8272

> <Gold.Chemscore.Rot.Weighted>
4.0038

> <Gold.Chemscore.Internal.Correction.Weighted>
   9.000000E+99

> <Gold.Protein.RotatedTorsions>
[ 6907 6896 6895 6894 ] final   94.94 input  -60.11 | X-H torsion
[ 7974 7965 7964 7962 ] final  103.94 input  175.53 | X-H torsion
[ 8008 7997 7996 7995 ] final   37.58 input   59.86 | X-H torsion
[ 10167 10162 10161 10158 ] final   63.30 input  -65.29 | X-H torsion
[ 10718 10713 10712 10709 ] final -130.68 input   66.30 | X-H torsion
[ 10763 10752 10751 10750 ] final   36.10 input  -60.55 | X-H torsion
[ 11005 11000 10999 10996 ] final   -4.30 input  -57.11 | X-H torsion

> <Gold.Protein.ActiveResidues>
 VAL166  LYS551  ARG553  GLY616  TRP617  ASP618  TYR619  PRO620  LYS621  CYS622 
 ASP623  PHE694  ASN695  SER759  ASP760  ASP761  ALA762  ILE779  LEU786  VAL792 
 PHE793  MET794  SER795  GLU796  ALA797  LYS798  CYS799  TRP800  GLU811  SER814 

> <Gold.Protein.RotatedAtoms>
  152.5447  134.1116  159.8360 H   0  0  0  0  0  0  0  0  0  0  0  0  # atno 6907 bound_to 6896
  151.1182  133.5116  159.2610 H   0  0  0  0  0  0  0  0  0  0  0  0  # atno 6908 bound_to 6896
  151.1809  135.0370  159.8846 H   0  0  0  0  0  0  0  0  0  0  0  0  # atno 6909 bound_to 6896
  145.3393  139.2466  143.3618 H   0  0  0  0  0  0  0  0  0  0  0  0  # atno 7974 bound_to 7965
  155.2061  140.3319  155.4336 H   0  0  0  0  0  0  0  0  0  0  0  0  # atno 8008 bound_to 7997
  156.2388  140.1885  156.7094 H   0  0  0  0  0  0  0  0  0  0  0  0  # atno 8009 bound_to 7997
  154.6109  140.0609  156.9478 H   0  0  0  0  0  0  0  0  0  0  0  0  # atno 8010 bound_to 7997
  140.1346  144.4611  150.6845 H   0  0  0  0  0  0  0  0  0  0  0  0  # atno 10167 bound_to 10162
  156.2168  130.6953  151.0712 H   0  0  0  0  0  0  0  0  0  0  0  0  # atno 10718 bound_to 10713
  153.0091  135.6315  154.1932 H   0  0  0  0  0  0  0  0  0  0  0  0  # atno 10763 bound_to 10752
  154.1675  135.2820  155.3092 H   0  0  0  0  0  0  0  0  0  0  0  0  # atno 10764 bound_to 10752
  154.5934  135.5610  153.7361 H   0  0  0  0  0  0  0  0  0  0  0  0  # atno 10765 bound_to 10752
  140.6787  133.9172  155.8541 H   0  0  0  0  0  0  0  0  0  0  0  0  # atno 11005 bound_to 11000
  146.3014  140.3988  142.8703 LP  0  0  0  0  0  0  0  0  0  0  0  0  # atno 17320 bound_to 7965
  144.8802  140.7391  143.5991 LP  0  0  0  0  0  0  0  0  0  0  0  0  # atno 17321 bound_to 7965
  140.6797  143.2321  151.5416 LP  0  0  0  0  0  0  0  0  0  0  0  0  # atno 17342 bound_to 10162
  139.5502  144.2414  152.1517 LP  0  0  0  0  0  0  0  0  0  0  0  0  # atno 17343 bound_to 10162
  157.7067  131.0753  150.6642 LP  0  0  0  0  0  0  0  0  0  0  0  0  # atno 17370 bound_to 10713
  156.6703  130.4537  149.5659 LP  0  0  0  0  0  0  0  0  0  0  0  0  # atno 17371 bound_to 10713
  141.0335  134.0723  157.3987 LP  0  0  0  0  0  0  0  0  0  0  0  0  # atno 17394 bound_to 11000
  139.8958  135.0143  156.7022 LP  0  0  0  0  0  0  0  0  0  0  0  0  # atno 17395 bound_to 11000

$$$$
