AV-unprocessed.smi:671|AV-procd|sdf|3288|dock2
  -GOLD-   22720 0243D 1   1.00000     0.00000
 Structure written by MMmdl.
 50 51  0  0  0  0  0  0  0  0  2 V2000
  146.6533  139.2972  153.6231 C   0  0  0  0  0  0  0  0  0  0  0  0
  146.3089  140.3358  154.6373 C   0  0  0  0  0  0  0  0  0  0  0  0
  145.1862  141.1024  154.5980 N   0  3  0  0  0  0  0  0  0  0  0  0
  145.1621  141.9441  155.6411 N   0  0  0  0  0  0  0  0  0  0  0  0
  144.0294  142.8592  155.7808 C   0  0  0  0  0  0  0  0  0  0  0  0
  146.2690  141.7646  156.4168 C   0  0  0  0  0  0  0  0  0  0  0  0
  146.5674  142.5375  157.6604 C   0  0  0  0  0  0  0  0  0  0  0  0
  146.9954  140.7456  155.7867 C   0  0  0  0  0  0  0  0  0  0  0  0
  148.3059  140.1875  156.2669 C   0  0  0  0  0  0  0  0  0  0  0  0
  149.5261  140.7643  155.5138 C   0  0  1  0  0  0  0  0  0  0  0  0
  149.2328  141.0262  154.0283 C   0  0  0  0  0  0  0  0  0  0  0  0
  149.9605  142.0171  156.1370 N   0  0  0  0  0  0  0  0  0  0  0  0
  150.9645  142.2076  157.0133 C   0  0  0  0  0  0  0  0  0  0  0  0
  151.6681  141.2787  157.4038 O   0  0  0  0  0  0  0  0  0  0  0  0
  151.1225  143.4813  157.4105 N   0  0  0  0  0  0  0  0  0  0  0  0
  152.1487  143.9812  158.3202 C   0  0  1  0  0  0  0  0  0  0  0  0
  151.8260  145.4248  158.7532 C   0  0  0  0  0  0  0  0  0  0  0  0
  151.4931  145.3603  160.2447 C   0  0  0  0  0  0  0  0  0  0  0  0
  152.2835  144.1595  160.7534 C   0  0  0  0  0  0  0  0  0  0  0  0
  152.1867  143.1405  159.6144 C   0  0  2  0  0  0  0  0  0  0  0  0
  153.3040  142.0884  159.6356 C   0  0  0  0  0  0  0  0  0  0  0  0
  147.6405  139.4927  153.2037 H   0  0  0  0  0  0  0  0  0  0  0  0
  145.9261  139.2967  152.8106 H   0  0  0  0  0  0  0  0  0  0  0  0
  146.6592  138.3090  154.0826 H   0  0  0  0  0  0  0  0  0  0  0  0
  144.3082  143.6931  156.4253 H   0  0  0  0  0  0  0  0  0  0  0  0
  143.1896  142.3219  156.2222 H   0  0  0  0  0  0  0  0  0  0  0  0
  143.7455  143.2440  154.8004 H   0  0  0  0  0  0  0  0  0  0  0  0
  147.4496  142.1432  158.1624 H   0  0  0  0  0  0  0  0  0  0  0  0
  145.7261  142.4810  158.3514 H   0  0  0  0  0  0  0  0  0  0  0  0
  146.7504  143.5841  157.4171 H   0  0  0  0  0  0  0  0  0  0  0  0
  148.4249  140.3633  157.3365 H   0  0  0  0  0  0  0  0  0  0  0  0
  148.2844  139.1023  156.1604 H   0  0  0  0  0  0  0  0  0  0  0  0
  150.3472  140.0470  155.5559 H   0  0  0  0  0  0  0  0  0  0  0  0
  148.9723  140.1062  153.5049 H   0  0  0  0  0  0  0  0  0  0  0  0
  150.1045  141.4466  153.5258 H   0  0  0  0  0  0  0  0  0  0  0  0
  148.4072  141.7279  153.9033 H   0  0  0  0  0  0  0  0  0  0  0  0
  149.4230  142.8363  155.8914 H   0  0  0  0  0  0  0  0  0  0  0  0
  150.4827  144.1678  157.0393 H   0  0  0  0  0  0  0  0  0  0  0  0
  153.1309  143.9756  157.8438 H   0  0  0  0  0  0  0  0  0  0  0  0
  152.7084  146.0492  158.6063 H   0  0  0  0  0  0  0  0  0  0  0  0
  151.0167  145.8784  158.1789 H   0  0  0  0  0  0  0  0  0  0  0  0
  151.7429  146.2820  160.7709 H   0  0  0  0  0  0  0  0  0  0  0  0
  150.4259  145.1796  160.3773 H   0  0  0  0  0  0  0  0  0  0  0  0
  153.3232  144.4493  160.9133 H   0  0  0  0  0  0  0  0  0  0  0  0
  151.8970  143.7726  161.6969 H   0  0  0  0  0  0  0  0  0  0  0  0
  151.2312  142.6248  159.7304 H   0  0  0  0  0  0  0  0  0  0  0  0
  154.2873  142.5509  159.5437 H   0  0  0  0  0  0  0  0  0  0  0  0
  153.1897  141.3821  158.8128 H   0  0  0  0  0  0  0  0  0  0  0  0
  153.2889  141.5205  160.5662 H   0  0  0  0  0  0  0  0  0  0  0  0
  144.4401  141.0952  153.9140 H   0  0  0  0  0  0  0  0  0  0  0  0
  1  2  1  0  0  0  0
  1 22  1  0  0  0  0
  1 23  1  0  0  0  0
  1 24  1  0  0  0  0
  2  8  1  0  0  0  0
  2  3  2  0  0  0  0
  3  4  1  0  0  0  0
  3 50  1  0  0  0  0
  4  5  1  0  0  0  0
  4  6  1  0  0  0  0
  5 25  1  0  0  0  0
  5 26  1  0  0  0  0
  5 27  1  0  0  0  0
  6  7  1  0  0  0  0
  6  8  2  0  0  0  0
  7 28  1  0  0  0  0
  7 29  1  0  0  0  0
  7 30  1  0  0  0  0
  8  9  1  0  0  0  0
  9 10  1  0  0  0  0
  9 31  1  0  0  0  0
  9 32  1  0  0  0  0
 10 11  1  0  0  0  0
 10 12  1  0  0  0  0
 10 33  1  0  0  0  0
 11 34  1  0  0  0  0
 11 35  1  0  0  0  0
 11 36  1  0  0  0  0
 12 13  1  0  0  0  0
 12 37  1  0  0  0  0
 13 14  2  0  0  0  0
 13 15  1  0  0  0  0
 15 16  1  0  0  0  0
 15 38  1  0  0  0  0
 16 20  1  0  0  0  0
 16 17  1  0  0  0  0
 16 39  1  0  0  0  0
 17 18  1  0  0  0  0
 17 40  1  0  0  0  0
 17 41  1  0  0  0  0
 18 19  1  0  0  0  0
 18 42  1  0  0  0  0
 18 43  1  0  0  0  0
 19 20  1  0  0  0  0
 19 44  1  0  0  0  0
 19 45  1  0  0  0  0
 20 21  1  0  0  0  0
 20 46  1  0  0  0  0
 21 47  1  0  0  0  0
 21 48  1  0  0  0  0
 21 49  1  0  0  0  0
M  CHG  1   3   1
M  END
> <s_m_source_file>
AV-unprocessed.smi

> <i_m_source_file_index>
671

> <i_lp_mmshare_version>
43012

> <i_f3d_flags>
0

> <s_epik_input>
W0NIM11jMW5uKFtDSDNdKWMoW0NIM10pYzFbQ0gyXVtDQEhdKFtDSDNdKVtOSF1DKD1PKVtOSF1bQ0BASF0yW0NIMl1bQ0gyXVtDSDJdW0NASF0yW0NIM10=

> <s_epik_cmdline>
J2VwaWtfcHl0aG9uJywgJy1waCcsICc3LjAnLCAnLXRuJywgJzgnLCAnLW1hJywgJzIwMCcsICctbWV0YWxfYmluZGluZycsICctaW1hZScsICc8aW5maWxlLm1hZT4nLCAnLW9tYWUnLCAnPG91dGZpbGUubWFlPic=

> <r_lp_tautomer_probability>
1

> <r_epik_Ionization_Penalty>
2.28705

> <r_epik_Ionization_Penalty_Charging>
2.28698

> <r_epik_Ionization_Penalty_Neutral>
6.23157e-05

> <r_epik_State_Penalty>
2.43671

> <r_epik_Charging_Adjusted_Penalty>
4.72369

> <i_epik_Tot_Q>
1

> <i_epik_Tot_abs_Q>
1

> <r_epik_Metal_State_Penalty>
2.44911

> <b_epik_Metal_Only>
0

> <s_lp_Force_Field>
OPLS_2005

> <r_lp_Energy>
34.8229

> <b_lp_Chiralities_Consistent>
1

> <s_lp_Variant>
AV-unprocessed.smi:671-16

> <Gold.Version>
5.8.1

> <Gold.Id.Protein>
6NUR|6NUR_protein|mol2

> <Gold.PLP.Fitness>
49.8903

> <Gold.PLP.PLP>
-40.3394

> <Gold.PLP.part.hbond>
-2.9477

> <Gold.PLP.part.metal>
0.0000

> <Gold.PLP.part.buried>
-3.6896

> <Gold.PLP.part.nonpolar>
-33.5613

> <Gold.PLP.part.repulsive>
0.0983

> <Gold.PLP.ligand.clash>
0.0000

> <Gold.PLP.ligand.torsion>
0.9328

> <Gold.PLP.Chemscore.Hbond>
3.7800

> <Gold.PLP.Chemscore.CHOScore>
0.0000

> <Gold.PLP.Chemscore.Metal>
0.0000

> <Gold.Chemscore.Hbonds>
donor molecule, donor type, donor heavy atom, donor atom, acceptor molecule, acceptor atom, score
      L1  H     3    50       P1 10175  2.00
      L1  H    12    37       P1  8028  1.00
      L1  H    15    38       P1  8028  0.68

> <Gold.PLP.Chemscore.Internal.Correction>
0.0766

> <Gold.Rescore>
     Score         DG    S(hbond)    S(metal)    S(lipo)     H(rot)  DE(clash)    DE(int)     intcor
     19.26     -23.39       2.82        0.00     105.56       1.51       0.13       4.00       ----

> <Gold.Chemscore.Fitness>
19.2607

> <Gold.Chemscore.DG>
-23.3939

> <Gold.Chemscore.ZeroCoef>
-5.4800

> <Gold.Chemscore.Hbond>
2.8198

> <Gold.Chemscore.Metal>
0.0000

> <Gold.Chemscore.Lipo>
105.5587

> <Gold.Chemscore.Internal_Hbond>
0.0000

> <Gold.Chemscore.DEClash>
0.1298

> <Gold.Chemscore.DEInternal>
4.0034

> <Gold.Chemscore.Rot>
1.5057

> <Gold.Chemscore.Internal.Correction>
   9.000000E+99

> <Gold.Chemscore.Hbonds>
donor molecule, donor type, donor heavy atom, donor atom, acceptor molecule, acceptor atom, score
      L1  H     3    50       P1 10175  0.68
      L1  H    12    37       P1  8028  0.98
      L1  H    15    38       P1  8028  0.63

> <Gold.Chemscore.Hbond.Weighted>
-9.4182

> <Gold.Chemscore.Metal.Weighted>
-0.0000

> <Gold.Chemscore.Lipo.Weighted>
-12.3504

> <Gold.Chemscore.Internal_Hbond.Weighted>
0.0000

> <Gold.Chemscore.DEClash.Weighted>
0.1298

> <Gold.Chemscore.DEInternal.Weighted>
4.0034

> <Gold.Chemscore.Rot.Weighted>
3.8547

> <Gold.Chemscore.Internal.Correction.Weighted>
   9.000000E+99

> <Gold.Protein.RotatedTorsions>
[ 6907 6896 6895 6894 ] final   60.89 input  -60.11 | X-H torsion
[ 7974 7965 7964 7962 ] final  156.41 input  175.53 | X-H torsion
[ 8008 7997 7996 7995 ] final  165.52 input   59.86 | X-H torsion
[ 10167 10162 10161 10158 ] final  176.70 input  -65.29 | X-H torsion
[ 10718 10713 10712 10709 ] final  128.30 input   66.30 | X-H torsion
[ 10763 10752 10751 10750 ] final  113.07 input  -60.55 | X-H torsion
[ 11005 11000 10999 10996 ] final   49.27 input  -57.11 | X-H torsion

> <Gold.Protein.ActiveResidues>
 VAL166  LYS551  ARG553  GLY616  TRP617  ASP618  TYR619  PRO620  LYS621  CYS622 
 ASP623  PHE694  ASN695  SER759  ASP760  ASP761  ALA762  ILE779  LEU786  VAL792 
 PHE793  MET794  SER795  GLU796  ALA797  LYS798  CYS799  TRP800  GLU811  SER814 

> <Gold.Protein.RotatedAtoms>
  152.4042  134.6236  160.0056 H   0  0  0  0  0  0  0  0  0  0  0  0  # atno 6907 bound_to 6896
  151.6432  133.3319  159.3143 H   0  0  0  0  0  0  0  0  0  0  0  0  # atno 6908 bound_to 6896
  150.7938  134.7025  159.6602 H   0  0  0  0  0  0  0  0  0  0  0  0  # atno 6909 bound_to 6896
  144.7965  139.7200  143.6200 H   0  0  0  0  0  0  0  0  0  0  0  0  # atno 7974 bound_to 7965
  156.1794  140.1668  156.8302 H   0  0  0  0  0  0  0  0  0  0  0  0  # atno 8008 bound_to 7997
  154.5343  140.0750  156.8433 H   0  0  0  0  0  0  0  0  0  0  0  0  # atno 8009 bound_to 7997
  155.3343  140.3381  155.4241 H   0  0  0  0  0  0  0  0  0  0  0  0  # atno 8010 bound_to 7997
  139.5224  144.2884  152.0485 H   0  0  0  0  0  0  0  0  0  0  0  0  # atno 10167 bound_to 10162
  157.5257  131.1098  150.9086 H   0  0  0  0  0  0  0  0  0  0  0  0  # atno 10718 bound_to 10713
  153.4872  135.3666  155.2473 H   0  0  0  0  0  0  0  0  0  0  0  0  # atno 10763 bound_to 10752
  154.8753  135.3968  154.3631 H   0  0  0  0  0  0  0  0  0  0  0  0  # atno 10764 bound_to 10752
  153.4245  135.7081  153.6337 H   0  0  0  0  0  0  0  0  0  0  0  0  # atno 10765 bound_to 10752
  140.1117  134.4945  155.8672 H   0  0  0  0  0  0  0  0  0  0  0  0  # atno 11005 bound_to 11000
  146.2234  139.5678  142.9603 LP  0  0  0  0  0  0  0  0  0  0  0  0  # atno 17320 bound_to 7965
  145.5661  141.0399  143.2200 LP  0  0  0  0  0  0  0  0  0  0  0  0  # atno 17321 bound_to 7965
  140.2336  144.4342  150.6289 LP  0  0  0  0  0  0  0  0  0  0  0  0  # atno 17342 bound_to 10162
  140.6338  143.2191  151.6438 LP  0  0  0  0  0  0  0  0  0  0  0  0  # atno 17343 bound_to 10162
  156.9683  130.5481  149.5289 LP  0  0  0  0  0  0  0  0  0  0  0  0  # atno 17370 bound_to 10713
  156.0385  130.5470  150.8713 LP  0  0  0  0  0  0  0  0  0  0  0  0  # atno 17371 bound_to 10713
  141.2132  133.6730  156.6718 LP  0  0  0  0  0  0  0  0  0  0  0  0  # atno 17394 bound_to 11000
  140.3082  134.8108  157.4154 LP  0  0  0  0  0  0  0  0  0  0  0  0  # atno 17395 bound_to 11000

$$$$
