AV-unprocessed.smi:527|AV-procd|sdf|2822|dock8
  -GOLD-   2262023303D 1   1.00000     0.00000
 Structure written by MMmdl.
 42 43  0  0  0  0  0  0  0  0  1 V2000
  152.6895  143.0063  159.6538 C   0  0  0  0  0  0  0  0  0  0  0  0
  151.8190  141.9860  158.8989 C   0  0  1  0  0  0  0  0  0  0  0  0
  151.2123  142.6474  157.6439 C   0  0  0  0  0  0  0  0  0  0  0  0
  150.3207  141.6812  156.8529 C   0  0  0  0  0  0  0  0  0  0  0  0
  151.0947  140.4134  156.4660 C   0  0  0  0  0  0  0  0  0  0  0  0
  151.7065  139.7179  157.6986 C   0  0  2  0  0  0  0  0  0  0  0  0
  150.6607  139.1237  158.5335 N   0  0  0  0  0  0  0  0  0  0  0  0
  150.4809  137.8115  158.7435 C   0  0  0  0  0  0  0  0  0  0  0  0
  151.3309  136.9596  158.4753 O   0  0  0  0  0  0  0  0  0  0  0  0
  149.2658  137.5704  159.2717 N   0  0  0  0  0  0  0  0  0  0  0  0
  148.6541  136.3763  159.4139 C   0  0  0  0  0  0  0  0  0  0  0  0
  149.1319  135.2885  159.0860 O   0  0  0  0  0  0  0  0  0  0  0  0
  147.2563  136.4191  160.0328 C   0  0  0  0  0  0  0  0  0  0  0  0
  147.1645  135.5258  161.1722 N   0  0  0  0  0  0  0  0  0  0  0  0
  146.4137  134.3608  161.2670 C   0  0  0  0  0  0  0  0  0  0  0  0
  146.6319  133.8540  162.5281 C   0  0  0  0  0  0  0  0  0  0  0  0
  147.5061  134.6864  163.2232 N   0  0  0  0  0  0  0  0  0  0  0  0
  147.7775  135.6540  162.3574 C   0  0  0  0  0  0  0  0  0  0  0  0
  152.5926  140.6924  158.5181 C   0  0  2  0  0  0  0  0  0  0  0  0
  153.2244  139.9838  159.7336 C   0  0  0  0  0  0  0  0  0  0  0  0
  153.5759  143.2746  159.0785 H   0  0  0  0  0  0  0  0  0  0  0  0
  153.0183  142.6226  160.6193 H   0  0  0  0  0  0  0  0  0  0  0  0
  152.1336  143.9232  159.8514 H   0  0  0  0  0  0  0  0  0  0  0  0
  150.9958  141.7111  159.5602 H   0  0  0  0  0  0  0  0  0  0  0  0
  150.6285  143.5235  157.9288 H   0  0  0  0  0  0  0  0  0  0  0  0
  152.0126  143.0100  156.9972 H   0  0  0  0  0  0  0  0  0  0  0  0
  149.4452  141.4165  157.4469 H   0  0  0  0  0  0  0  0  0  0  0  0
  149.9455  142.1736  155.9554 H   0  0  0  0  0  0  0  0  0  0  0  0
  150.4421  139.7284  155.9232 H   0  0  0  0  0  0  0  0  0  0  0  0
  151.8931  140.6805  155.7726 H   0  0  0  0  0  0  0  0  0  0  0  0
  152.3507  138.9122  157.3410 H   0  0  0  0  0  0  0  0  0  0  0  0
  150.0253  139.7672  158.9819 H   0  0  0  0  0  0  0  0  0  0  0  0
  148.7498  138.3761  159.5930 H   0  0  0  0  0  0  0  0  0  0  0  0
  147.0234  137.4338  160.3585 H   0  0  0  0  0  0  0  0  0  0  0  0
  146.5033  136.1372  159.2951 H   0  0  0  0  0  0  0  0  0  0  0  0
  145.8018  134.0001  160.4530 H   0  0  0  0  0  0  0  0  0  0  0  0
  146.2289  132.9625  162.9856 H   0  0  0  0  0  0  0  0  0  0  0  0
  148.4367  136.4772  162.5915 H   0  0  0  0  0  0  0  0  0  0  0  0
  153.4170  140.9887  157.8674 H   0  0  0  0  0  0  0  0  0  0  0  0
  152.4836  139.7629  160.5024 H   0  0  0  0  0  0  0  0  0  0  0  0
  154.0069  140.5894  160.1901 H   0  0  0  0  0  0  0  0  0  0  0  0
  153.6865  139.0415  159.4379 H   0  0  0  0  0  0  0  0  0  0  0  0
  1  2  1  0  0  0  0
  1 21  1  0  0  0  0
  1 22  1  0  0  0  0
  1 23  1  0  0  0  0
  2 19  1  0  0  0  0
  2  3  1  0  0  0  0
  2 24  1  0  0  0  0
  3  4  1  0  0  0  0
  3 25  1  0  0  0  0
  3 26  1  0  0  0  0
  4  5  1  0  0  0  0
  4 27  1  0  0  0  0
  4 28  1  0  0  0  0
  5  6  1  0  0  0  0
  5 29  1  0  0  0  0
  5 30  1  0  0  0  0
  6  7  1  0  0  0  0
  6 19  1  0  0  0  0
  6 31  1  0  0  0  0
  7  8  1  0  0  0  0
  7 32  1  0  0  0  0
  8  9  2  0  0  0  0
  8 10  1  0  0  0  0
 10 11  1  0  0  0  0
 10 33  1  0  0  0  0
 11 12  2  0  0  0  0
 11 13  1  0  0  0  0
 13 14  1  0  0  0  0
 13 34  1  0  0  0  0
 13 35  1  0  0  0  0
 14 18  1  0  0  0  0
 14 15  1  0  0  0  0
 15 16  2  0  0  0  0
 15 36  1  0  0  0  0
 16 17  1  0  0  0  0
 16 37  1  0  0  0  0
 17 18  2  0  0  0  0
 18 38  1  0  0  0  0
 19 20  1  0  0  0  0
 19 39  1  0  0  0  0
 20 40  1  0  0  0  0
 20 41  1  0  0  0  0
 20 42  1  0  0  0  0
M  END
> <s_m_source_file>
AV-unprocessed.smi

> <i_m_source_file_index>
527

> <i_lp_mmshare_version>
43012

> <i_f3d_flags>
0

> <s_epik_input>
W0NIM11bQ0BASF0xW0NIMl1bQ0gyXVtDSDJdW0NASF0oW0NASF0xW0NIM10pW05IXUMoPU8pW05IXUMoPU8pW0NIMl1uMltjSF1bY0hdbltjSF0y

> <s_epik_cmdline>
J2VwaWtfcHl0aG9uJywgJy1waCcsICc3LjAnLCAnLXRuJywgJzgnLCAnLW1hJywgJzIwMCcsICctbWV0YWxfYmluZGluZycsICctaW1hZScsICc8aW5maWxlLm1hZT4nLCAnLW9tYWUnLCAnPG91dGZpbGUubWFlPic=

> <r_lp_tautomer_probability>
1

> <r_epik_Ionization_Penalty>
0.172132

> <r_epik_Ionization_Penalty_Charging>
0.172105

> <r_epik_Ionization_Penalty_Neutral>
2.71747e-05

> <r_epik_State_Penalty>
0.161503

> <r_epik_Charging_Adjusted_Penalty>
0.333607

> <i_epik_Tot_Q>
0

> <i_epik_Tot_abs_Q>
0

> <r_epik_Metal_State_Penalty>
0.124763

> <b_epik_Metal_Only>
0

> <s_lp_Force_Field>
OPLS_2005

> <r_lp_Energy>
14.576

> <b_lp_Chiralities_Consistent>
1

> <s_lp_Variant>
AV-unprocessed.smi:527-8

> <Gold.Version>
5.8.1

> <Gold.Id.Protein>
6NUR|6NUR_protein|mol2

> <Gold.PLP.Fitness>
40.6335

> <Gold.PLP.PLP>
-38.0161

> <Gold.PLP.part.hbond>
-1.7256

> <Gold.PLP.part.metal>
0.0000

> <Gold.PLP.part.buried>
-6.2722

> <Gold.PLP.part.nonpolar>
-30.2377

> <Gold.PLP.part.repulsive>
0.3972

> <Gold.PLP.ligand.clash>
0.0000

> <Gold.PLP.ligand.torsion>
0.2054

> <Gold.PLP.Chemscore.Hbond>
1.0000

> <Gold.PLP.Chemscore.CHOScore>
0.0000

> <Gold.PLP.Chemscore.Metal>
0.0000

> <Gold.Chemscore.Hbonds>
donor molecule, donor type, donor heavy atom, donor atom, acceptor molecule, acceptor atom, score
      P1  H  6896  6909       L1    12  1.00

> <Gold.PLP.Chemscore.Internal.Correction>
0.0281

> <Gold.Rescore>
     Score         DG    S(hbond)    S(metal)    S(lipo)     H(rot)  DE(clash)    DE(int)     intcor
     13.00     -14.49       0.95        0.00      86.20       1.66       0.01       1.49       ----

> <Gold.Chemscore.Fitness>
12.9962

> <Gold.Chemscore.DG>
-14.4941

> <Gold.Chemscore.ZeroCoef>
-5.4800

> <Gold.Chemscore.Hbond>
0.9537

> <Gold.Chemscore.Metal>
0.0000

> <Gold.Chemscore.Lipo>
86.2012

> <Gold.Chemscore.Internal_Hbond>
0.0000

> <Gold.Chemscore.DEClash>
0.0102

> <Gold.Chemscore.DEInternal>
1.4876

> <Gold.Chemscore.Rot>
1.6629

> <Gold.Chemscore.Internal.Correction>
   9.000000E+99

> <Gold.Chemscore.Hbonds>
donor molecule, donor type, donor heavy atom, donor atom, acceptor molecule, acceptor atom, score
      P1  H  6896  6909       L1    12  0.97

> <Gold.Chemscore.Hbond.Weighted>
-3.1854

> <Gold.Chemscore.Metal.Weighted>
-0.0000

> <Gold.Chemscore.Lipo.Weighted>
-10.0855

> <Gold.Chemscore.Internal_Hbond.Weighted>
0.0000

> <Gold.Chemscore.DEClash.Weighted>
0.0102

> <Gold.Chemscore.DEInternal.Weighted>
1.4876

> <Gold.Chemscore.Rot.Weighted>
4.2569

> <Gold.Chemscore.Internal.Correction.Weighted>
   9.000000E+99

> <Gold.Protein.RotatedTorsions>
[ 6907 6896 6895 6894 ] final   31.41 input  -60.11 | X-H torsion
[ 7974 7965 7964 7962 ] final  -44.37 input  175.53 | X-H torsion
[ 8008 7997 7996 7995 ] final  -20.37 input   59.86 | X-H torsion
[ 10167 10162 10161 10158 ] final   49.48 input  -65.29 | X-H torsion
[ 10718 10713 10712 10709 ] final   79.49 input   66.30 | X-H torsion
[ 10763 10752 10751 10750 ] final -106.31 input  -60.55 | X-H torsion
[ 11005 11000 10999 10996 ] final  127.30 input  -57.11 | X-H torsion

> <Gold.Protein.ActiveResidues>
 VAL166  LYS551  ARG553  GLY616  TRP617  ASP618  TYR619  PRO620  LYS621  CYS622 
 ASP623  PHE694  ASN695  SER759  ASP760  ASP761  ALA762  ILE779  LEU786  VAL792 
 PHE793  MET794  SER795  GLU796  ALA797  LYS798  CYS799  TRP800  GLU811  SER814 

> <Gold.Protein.RotatedAtoms>
  152.0599  134.9601  160.0574 H   0  0  0  0  0  0  0  0  0  0  0  0  # atno 6907 bound_to 6896
  152.0969  133.4224  159.4577 H   0  0  0  0  0  0  0  0  0  0  0  0  # atno 6908 bound_to 6896
  150.6838  134.2726  159.4637 H   0  0  0  0  0  0  0  0  0  0  0  0  # atno 6909 bound_to 6896
  145.9928  140.7162  142.9309 H   0  0  0  0  0  0  0  0  0  0  0  0  # atno 7974 bound_to 7965
  154.4774  140.2063  155.9845 H   0  0  0  0  0  0  0  0  0  0  0  0  # atno 8008 bound_to 7997
  156.1111  140.3229  155.8044 H   0  0  0  0  0  0  0  0  0  0  0  0  # atno 8009 bound_to 7997
  155.4633  140.0525  157.2979 H   0  0  0  0  0  0  0  0  0  0  0  0  # atno 8010 bound_to 7997
  140.2825  144.3140  150.6261 H   0  0  0  0  0  0  0  0  0  0  0  0  # atno 10167 bound_to 10162
  157.6778  130.9916  150.1940 H   0  0  0  0  0  0  0  0  0  0  0  0  # atno 10718 bound_to 10713
  154.8004  135.4717  154.0261 H   0  0  0  0  0  0  0  0  0  0  0  0  # atno 10763 bound_to 10752
  153.1771  135.6834  153.8535 H   0  0  0  0  0  0  0  0  0  0  0  0  # atno 10764 bound_to 10752
  153.8097  135.3218  155.3377 H   0  0  0  0  0  0  0  0  0  0  0  0  # atno 10765 bound_to 10752
  139.9500  134.9623  156.8834 H   0  0  0  0  0  0  0  0  0  0  0  0  # atno 11005 bound_to 11000
  144.6894  140.3098  143.7250 LP  0  0  0  0  0  0  0  0  0  0  0  0  # atno 17320 bound_to 7965
  145.7605  139.1823  143.2270 LP  0  0  0  0  0  0  0  0  0  0  0  0  # atno 17321 bound_to 7965
  140.5800  143.2173  151.7445 LP  0  0  0  0  0  0  0  0  0  0  0  0  # atno 17342 bound_to 10162
  139.4959  144.4094  152.0097 LP  0  0  0  0  0  0  0  0  0  0  0  0  # atno 17343 bound_to 10162
  156.2645  130.3714  149.8095 LP  0  0  0  0  0  0  0  0  0  0  0  0  # atno 17370 bound_to 10713
  156.5830  130.8474  151.3388 LP  0  0  0  0  0  0  0  0  0  0  0  0  # atno 17371 bound_to 10713
  140.5741  134.0415  155.7441 LP  0  0  0  0  0  0  0  0  0  0  0  0  # atno 17394 bound_to 11000
  141.1161  133.9538  157.2820 LP  0  0  0  0  0  0  0  0  0  0  0  0  # atno 17395 bound_to 11000

$$$$
