AV-unprocessed.smi:2241|AV-procd|sdf|9059|dock8
  -GOLD-   2272012263D 1   1.00000     0.00000
 Structure written by MMmdl.
 45 47  0  0  0  0  0  0  0  0  1 V2000
  154.1009  138.2788  160.5180 C   0  0  0  0  0  0  0  0  0  0  0  0
  153.6761  139.6845  160.1458 C   0  0  0  0  0  0  0  0  0  0  0  0
  154.1953  140.7932  160.8430 C   0  0  0  0  0  0  0  0  0  0  0  0
  153.7946  142.0946  160.4902 C   0  0  0  0  0  0  0  0  0  0  0  0
  152.8747  142.2925  159.4424 C   0  0  0  0  0  0  0  0  0  0  0  0
  152.3954  143.9005  159.0311 Cl  0  0  0  0  0  0  0  0  0  0  0  0
  152.3450  141.1913  158.7344 C   0  0  0  0  0  0  0  0  0  0  0  0
  151.4474  141.4631  157.7241 O   0  0  0  0  0  0  0  0  0  0  0  0
  150.7585  140.3806  157.1136 C   0  0  0  0  0  0  0  0  0  0  0  0
  150.6155  140.6880  155.6154 C   0  0  1  0  0  0  0  0  0  0  0  0
  151.7131  140.0898  154.9557 O   0  0  0  0  0  0  0  0  0  0  0  0
  149.3061  140.1127  155.0282 C   0  0  0  0  0  0  0  0  0  0  0  0
  148.1865  141.0599  155.1383 N   0  0  0  0  0  0  0  0  0  0  0  0
  147.9508  141.8835  154.0218 C   0  0  0  0  0  0  0  0  0  0  0  0
  146.9776  142.7376  153.9985 N   0  0  0  0  0  0  0  0  0  0  0  0
  146.1332  142.8605  155.1081 C   0  0  0  0  0  0  0  0  0  0  0  0
  145.0107  143.8860  155.0295 C   0  0  0  0  0  0  0  0  0  0  0  0
  145.2009  145.0281  154.0169 C   0  0  0  0  0  0  0  0  0  0  0  0
  144.5678  145.9639  155.0524 C   0  0  0  0  0  0  0  0  0  0  0  0
  145.0045  144.9619  156.1273 C   0  0  0  0  0  0  0  0  0  0  0  0
  146.3367  142.1080  156.2157 C   0  0  0  0  0  0  0  0  0  0  0  0
  147.4282  141.1355  156.2707 C   0  0  0  0  0  0  0  0  0  0  0  0
  147.6460  140.4376  157.2614 O   0  0  0  0  0  0  0  0  0  0  0  0
  152.7577  139.8834  159.0951 C   0  0  0  0  0  0  0  0  0  0  0  0
  154.6873  138.2700  161.4372 H   0  0  0  0  0  0  0  0  0  0  0  0
  154.7066  137.8451  159.7219 H   0  0  0  0  0  0  0  0  0  0  0  0
  153.2262  137.6452  160.6686 H   0  0  0  0  0  0  0  0  0  0  0  0
  154.9008  140.6511  161.6486 H   0  0  0  0  0  0  0  0  0  0  0  0
  154.1938  142.9432  161.0259 H   0  0  0  0  0  0  0  0  0  0  0  0
  151.3330  139.4635  157.2561 H   0  0  0  0  0  0  0  0  0  0  0  0
  149.7730  140.2392  157.5611 H   0  0  0  0  0  0  0  0  0  0  0  0
  150.6736  141.7678  155.4709 H   0  0  0  0  0  0  0  0  0  0  0  0
  152.1432  139.5031  155.5586 H   0  0  0  0  0  0  0  0  0  0  0  0
  149.4573  139.7706  154.0022 H   0  0  0  0  0  0  0  0  0  0  0  0
  149.0306  139.2038  155.5661 H   0  0  0  0  0  0  0  0  0  0  0  0
  148.6419  141.7519  153.1872 H   0  0  0  0  0  0  0  0  0  0  0  0
  144.0350  143.4083  154.9241 H   0  0  0  0  0  0  0  0  0  0  0  0
  146.2467  145.2740  153.8227 H   0  0  0  0  0  0  0  0  0  0  0  0
  144.6336  144.9176  153.0925 H   0  0  0  0  0  0  0  0  0  0  0  0
  145.0340  146.9467  155.1266 H   0  0  0  0  0  0  0  0  0  0  0  0
  143.4833  146.0345  154.9530 H   0  0  0  0  0  0  0  0  0  0  0  0
  144.2771  144.7988  156.9230 H   0  0  0  0  0  0  0  0  0  0  0  0
  145.9965  145.1837  156.5254 H   0  0  0  0  0  0  0  0  0  0  0  0
  145.6860  142.2156  157.0715 H   0  0  0  0  0  0  0  0  0  0  0  0
  152.3817  139.0140  158.5777 H   0  0  0  0  0  0  0  0  0  0  0  0
  1  2  1  0  0  0  0
  1 25  1  0  0  0  0
  1 26  1  0  0  0  0
  1 27  1  0  0  0  0
  2 24  1  0  0  0  0
  2  3  2  0  0  0  0
  3  4  1  0  0  0  0
  3 28  1  0  0  0  0
  4  5  2  0  0  0  0
  4 29  1  0  0  0  0
  5  6  1  0  0  0  0
  5  7  1  0  0  0  0
  7  8  1  0  0  0  0
  7 24  2  0  0  0  0
  8  9  1  0  0  0  0
  9 10  1  0  0  0  0
  9 30  1  0  0  0  0
  9 31  1  0  0  0  0
 10 11  1  0  0  0  0
 10 12  1  0  0  0  0
 10 32  1  0  0  0  0
 11 33  1  0  0  0  0
 12 13  1  0  0  0  0
 12 34  1  0  0  0  0
 12 35  1  0  0  0  0
 13 22  1  0  0  0  0
 13 14  1  0  0  0  0
 14 15  2  0  0  0  0
 14 36  1  0  0  0  0
 15 16  1  0  0  0  0
 16 17  1  0  0  0  0
 16 21  2  0  0  0  0
 17 20  1  0  0  0  0
 17 18  1  0  0  0  0
 17 37  1  0  0  0  0
 18 19  1  0  0  0  0
 18 38  1  0  0  0  0
 18 39  1  0  0  0  0
 19 20  1  0  0  0  0
 19 40  1  0  0  0  0
 19 41  1  0  0  0  0
 20 42  1  0  0  0  0
 20 43  1  0  0  0  0
 21 22  1  0  0  0  0
 21 44  1  0  0  0  0
 22 23  2  0  0  0  0
 24 45  1  0  0  0  0
M  END
> <s_m_source_file>
AV-unprocessed.smi

> <i_m_source_file_index>
2241

> <i_lp_mmshare_version>
43012

> <i_f3d_flags>
0

> <s_epik_input>
W0NIM11jMVtjSF1bY0hdYyhDbCljKFtjSF0xKU9bQ0gyXVtDQEhdKFtPSF0pW0NIMl1uMltjSF1uYyhbY0hdYzI9TylbQ0hdM1tDSDJdW0NIMl1bQ0gyXTM=

> <s_epik_cmdline>
J2VwaWtfcHl0aG9uJywgJy1waCcsICc3LjAnLCAnLXRuJywgJzgnLCAnLW1hJywgJzIwMCcsICctbWV0YWxfYmluZGluZycsICctaW1hZScsICc8aW5maWxlLm1hZT4nLCAnLW9tYWUnLCAnPG91dGZpbGUubWFlPic=

> <r_lp_tautomer_probability>
1

> <r_epik_Ionization_Penalty>
1.78212e-05

> <r_epik_Ionization_Penalty_Charging>
5.61663e-08

> <r_epik_Ionization_Penalty_Neutral>
1.7765e-05

> <r_epik_State_Penalty>
-0

> <r_epik_Charging_Adjusted_Penalty>
5.61663e-08

> <i_epik_Tot_Q>
0

> <i_epik_Tot_abs_Q>
0

> <r_epik_Metal_State_Penalty>
-0

> <b_epik_Metal_Only>
0

> <s_lp_Force_Field>
OPLS_2005

> <r_lp_Energy>
30.2703

> <b_lp_Chiralities_Consistent>
1

> <s_lp_Variant>
AV-unprocessed.smi:2241-2

> <Gold.Version>
5.8.1

> <Gold.Id.Protein>
6NUR|6NUR_protein|mol2

> <Gold.PLP.Fitness>
49.8193

> <Gold.PLP.PLP>
-47.2366

> <Gold.PLP.part.hbond>
-1.0000

> <Gold.PLP.part.metal>
0.0000

> <Gold.PLP.part.buried>
-5.9929

> <Gold.PLP.part.nonpolar>
-40.4971

> <Gold.PLP.part.repulsive>
0.2177

> <Gold.PLP.ligand.clash>
0.0000

> <Gold.PLP.ligand.torsion>
1.7939

> <Gold.PLP.Chemscore.Hbond>
0.9120

> <Gold.PLP.Chemscore.CHOScore>
1.0000

> <Gold.PLP.Chemscore.Metal>
0.0000

> <Gold.Chemscore.Hbonds>
donor molecule, donor type, donor heavy atom, donor atom, acceptor molecule, acceptor atom, score
      P1  H  7989  7998       L1    11  0.98
      L1  C    14    36       P1  7957  0.31

> <Gold.PLP.Chemscore.Internal.Correction>
0.4348

> <Gold.Rescore>
     Score         DG    S(hbond)    S(metal)    S(lipo)     H(rot)  DE(clash)    DE(int)     intcor
     15.49     -17.12       0.92        0.00     125.38       2.38       0.04       1.59       ----

> <Gold.Chemscore.Fitness>
15.4886

> <Gold.Chemscore.DG>
-17.1215

> <Gold.Chemscore.ZeroCoef>
-5.4800

> <Gold.Chemscore.Hbond>
0.9178

> <Gold.Chemscore.Metal>
0.0000

> <Gold.Chemscore.Lipo>
125.3767

> <Gold.Chemscore.Internal_Hbond>
0.0000

> <Gold.Chemscore.DEClash>
0.0393

> <Gold.Chemscore.DEInternal>
1.5936

> <Gold.Chemscore.Rot>
2.3801

> <Gold.Chemscore.Internal.Correction>
   9.000000E+99

> <Gold.Chemscore.Hbonds>
donor molecule, donor type, donor heavy atom, donor atom, acceptor molecule, acceptor atom, score
      P1  H  7989  7998       L1    11  0.28

> <Gold.Chemscore.Hbond.Weighted>
-3.0655

> <Gold.Chemscore.Metal.Weighted>
-0.0000

> <Gold.Chemscore.Lipo.Weighted>
-14.6691

> <Gold.Chemscore.Internal_Hbond.Weighted>
0.0000

> <Gold.Chemscore.DEClash.Weighted>
0.0393

> <Gold.Chemscore.DEInternal.Weighted>
1.5936

> <Gold.Chemscore.Rot.Weighted>
6.0931

> <Gold.Chemscore.Internal.Correction.Weighted>
   9.000000E+99

> <Gold.Protein.RotatedTorsions>
[ 6907 6896 6895 6894 ] final  122.15 input  -60.11 | X-H torsion
[ 7974 7965 7964 7962 ] final   97.07 input  175.53 | X-H torsion
[ 8008 7997 7996 7995 ] final  -16.49 input   59.86 | X-H torsion
[ 10167 10162 10161 10158 ] final  -59.51 input  -65.29 | X-H torsion
[ 10718 10713 10712 10709 ] final -113.15 input   66.30 | X-H torsion
[ 10763 10752 10751 10750 ] final   -3.81 input  -60.55 | X-H torsion
[ 11005 11000 10999 10996 ] final  -67.78 input  -57.11 | X-H torsion

> <Gold.Protein.ActiveResidues>
 VAL166  LYS551  ARG553  GLY616  TRP617  ASP618  TYR619  PRO620  LYS621  CYS622 
 ASP623  PHE694  ASN695  SER759  ASP760  ASP761  ALA762  ILE779  LEU786  VAL792 
 PHE793  MET794  SER795  GLU796  ALA797  LYS798  CYS799  TRP800  GLU811  SER814 

> <Gold.Protein.RotatedAtoms>
  152.4265  133.7204  159.6529 H   0  0  0  0  0  0  0  0  0  0  0  0  # atno 6907 bound_to 6896
  150.8142  133.8356  159.3174 H   0  0  0  0  0  0  0  0  0  0  0  0  # atno 6908 bound_to 6896
  151.6057  135.1046  160.0122 H   0  0  0  0  0  0  0  0  0  0  0  0  # atno 6909 bound_to 6896
  145.4304  139.2311  143.3147 H   0  0  0  0  0  0  0  0  0  0  0  0  # atno 7974 bound_to 7965
  154.5049  140.2168  155.9271 H   0  0  0  0  0  0  0  0  0  0  0  0  # atno 8008 bound_to 7997
  156.1481  140.3167  155.8570 H   0  0  0  0  0  0  0  0  0  0  0  0  # atno 8009 bound_to 7997
  155.3992  140.0483  157.3028 H   0  0  0  0  0  0  0  0  0  0  0  0  # atno 8010 bound_to 7997
  140.6130  143.2393  151.5664 H   0  0  0  0  0  0  0  0  0  0  0  0  # atno 10167 bound_to 10162
  156.0749  130.5958  150.8604 H   0  0  0  0  0  0  0  0  0  0  0  0  # atno 10718 bound_to 10713
  153.3764  135.6996  153.6599 H   0  0  0  0  0  0  0  0  0  0  0  0  # atno 10763 bound_to 10752
  153.5228  135.3608  155.2640 H   0  0  0  0  0  0  0  0  0  0  0  0  # atno 10764 bound_to 10752
  154.8687  135.4162  154.3053 H   0  0  0  0  0  0  0  0  0  0  0  0  # atno 10765 bound_to 10752
  141.1516  133.6726  156.6346 H   0  0  0  0  0  0  0  0  0  0  0  0  # atno 11005 bound_to 11000
  146.2610  140.5040  142.8853 LP  0  0  0  0  0  0  0  0  0  0  0  0  # atno 17320 bound_to 7965
  144.8186  140.6512  143.6367 LP  0  0  0  0  0  0  0  0  0  0  0  0  # atno 17321 bound_to 7965
  139.5376  144.2737  152.1284 LP  0  0  0  0  0  0  0  0  0  0  0  0  # atno 17342 bound_to 10162
  140.1940  144.4723  150.6464 LP  0  0  0  0  0  0  0  0  0  0  0  0  # atno 17343 bound_to 10162
  157.5839  131.0946  150.9227 LP  0  0  0  0  0  0  0  0  0  0  0  0  # atno 17370 bound_to 10713
  156.9417  130.5387  149.5280 LP  0  0  0  0  0  0  0  0  0  0  0  0  # atno 17371 bound_to 10713
  140.3441  134.7824  157.4419 LP  0  0  0  0  0  0  0  0  0  0  0  0  # atno 17394 bound_to 11000
  140.0914  134.5596  155.8440 LP  0  0  0  0  0  0  0  0  0  0  0  0  # atno 17395 bound_to 11000

$$$$
