AV-unprocessed.smi:2339|AV-procd|sdf|9342|dock5
  -GOLD-   2272012563D 1   1.00000     0.00000
 Structure written by MMmdl.
 49 52  0  0  0  0  0  0  0  0  1 V2000
  149.8074  145.2187  160.1299 C   0  0  0  0  0  0  0  0  0  0  0  0
  151.3396  145.1833  160.1237 C   0  0  0  0  0  0  0  0  0  0  0  0
  151.8487  143.8232  160.2242 N   0  0  0  0  0  0  0  0  0  0  0  0
  152.8096  143.4807  161.1700 C   0  0  0  0  0  0  0  0  0  0  0  0
  153.3708  142.2601  161.2686 C   0  0  0  0  0  0  0  0  0  0  0  0
  152.9657  141.1994  160.3243 C   0  0  0  0  0  0  0  0  0  0  0  0
  153.4583  140.0727  160.3842 O   0  0  0  0  0  0  0  0  0  0  0  0
  151.9436  141.5674  159.3095 C   0  0  0  0  0  0  0  0  0  0  0  0
  151.5639  140.5504  158.4202 N   0  0  0  0  0  0  0  0  0  0  0  0
  150.3521  140.2713  157.8983 C   0  0  0  0  0  0  0  0  0  0  0  0
  149.3176  140.8950  158.1242 O   0  0  0  0  0  0  0  0  0  0  0  0
  150.3658  139.2424  157.0331 N   0  0  0  0  0  0  0  0  0  0  0  0
  149.2286  138.6817  156.2912 C   0  0  2  0  0  0  0  0  0  0  0  0
  149.6244  137.6117  155.2434 C   0  0  2  0  0  0  0  0  0  0  0  0
  150.9949  136.9815  155.1714 C   0  0  0  0  0  0  0  0  0  0  0  0
  151.7011  137.8181  154.1007 C   0  0  0  0  0  0  0  0  0  0  0  0
  150.9595  139.0343  154.0389 O   0  0  0  0  0  0  0  0  0  0  0  0
  149.5804  138.7100  154.1931 C   0  0  2  0  0  0  0  0  0  0  0  0
  148.7656  139.6106  155.1432 C   0  0  0  0  0  0  0  0  0  0  0  0
  149.0991  141.1027  155.1682 C   0  0  0  0  0  0  0  0  0  0  0  0
  148.2247  141.7704  154.1049 C   0  0  0  0  0  0  0  0  0  0  0  0
  147.0112  140.8515  153.9359 C   0  0  0  0  0  0  0  0  0  0  0  0
  147.2647  139.6551  154.8589 C   0  0  0  0  0  0  0  0  0  0  0  0
  151.4564  142.8342  159.3242 C   0  0  0  0  0  0  0  0  0  0  0  0
  149.4442  146.2443  160.0633 H   0  0  0  0  0  0  0  0  0  0  0  0
  149.4067  144.7824  161.0452 H   0  0  0  0  0  0  0  0  0  0  0  0
  149.3975  144.6641  159.2854 H   0  0  0  0  0  0  0  0  0  0  0  0
  151.7177  145.6473  159.2119 H   0  0  0  0  0  0  0  0  0  0  0  0
  151.7270  145.7783  160.9518 H   0  0  0  0  0  0  0  0  0  0  0  0
  153.0775  144.2823  161.8430 H   0  0  0  0  0  0  0  0  0  0  0  0
  154.1121  142.0393  162.0225 H   0  0  0  0  0  0  0  0  0  0  0  0
  152.3259  139.9693  158.1022 H   0  0  0  0  0  0  0  0  0  0  0  0
  151.2689  138.8456  156.8159 H   0  0  0  0  0  0  0  0  0  0  0  0
  148.3980  138.3690  156.9264 H   0  0  0  0  0  0  0  0  0  0  0  0
  148.8095  136.9008  155.0972 H   0  0  0  0  0  0  0  0  0  0  0  0
  151.5255  137.0275  156.1208 H   0  0  0  0  0  0  0  0  0  0  0  0
  150.9493  135.9320  154.8796 H   0  0  0  0  0  0  0  0  0  0  0  0
  152.7501  138.0011  154.3342 H   0  0  0  0  0  0  0  0  0  0  0  0
  151.6484  137.3213  153.1308 H   0  0  0  0  0  0  0  0  0  0  0  0
  149.0922  138.4194  153.2616 H   0  0  0  0  0  0  0  0  0  0  0  0
  148.8563  141.5202  156.1464 H   0  0  0  0  0  0  0  0  0  0  0  0
  150.1565  141.3043  154.9941 H   0  0  0  0  0  0  0  0  0  0  0  0
  147.9402  142.7826  154.3937 H   0  0  0  0  0  0  0  0  0  0  0  0
  148.7692  141.8378  153.1624 H   0  0  0  0  0  0  0  0  0  0  0  0
  146.0785  141.3563  154.1894 H   0  0  0  0  0  0  0  0  0  0  0  0
  146.9358  140.5232  152.8986 H   0  0  0  0  0  0  0  0  0  0  0  0
  146.8947  138.7288  154.4174 H   0  0  0  0  0  0  0  0  0  0  0  0
  146.7150  139.7980  155.7904 H   0  0  0  0  0  0  0  0  0  0  0  0
  150.7006  143.1812  158.6379 H   0  0  0  0  0  0  0  0  0  0  0  0
  1  2  1  0  0  0  0
  1 25  1  0  0  0  0
  1 26  1  0  0  0  0
  1 27  1  0  0  0  0
  2  3  1  0  0  0  0
  2 28  1  0  0  0  0
  2 29  1  0  0  0  0
  3 24  1  0  0  0  0
  3  4  1  0  0  0  0
  4  5  2  0  0  0  0
  4 30  1  0  0  0  0
  5  6  1  0  0  0  0
  5 31  1  0  0  0  0
  6  7  2  0  0  0  0
  6  8  1  0  0  0  0
  8  9  1  0  0  0  0
  8 24  2  0  0  0  0
  9 10  1  0  0  0  0
  9 32  1  0  0  0  0
 10 11  2  0  0  0  0
 10 12  1  0  0  0  0
 12 13  1  0  0  0  0
 12 33  1  0  0  0  0
 13 19  1  0  0  0  0
 13 14  1  0  0  0  0
 13 34  1  0  0  0  0
 14 18  1  0  0  0  0
 14 15  1  0  0  0  0
 14 35  1  0  0  0  0
 15 16  1  0  0  0  0
 15 36  1  0  0  0  0
 15 37  1  0  0  0  0
 16 17  1  0  0  0  0
 16 38  1  0  0  0  0
 16 39  1  0  0  0  0
 17 18  1  0  0  0  0
 18 19  1  0  0  0  0
 18 40  1  0  0  0  0
 19 23  1  0  0  0  0
 19 20  1  0  0  0  0
 20 21  1  0  0  0  0
 20 41  1  0  0  0  0
 20 42  1  0  0  0  0
 21 22  1  0  0  0  0
 21 43  1  0  0  0  0
 21 44  1  0  0  0  0
 22 23  1  0  0  0  0
 22 45  1  0  0  0  0
 22 46  1  0  0  0  0
 23 47  1  0  0  0  0
 23 48  1  0  0  0  0
 24 49  1  0  0  0  0
M  END
> <s_m_source_file>
AV-unprocessed.smi

> <i_m_source_file_index>
2339

> <i_lp_mmshare_version>
43012

> <i_f3d_flags>
0

> <s_epik_input>
W0NIM11bQ0gyXW4xW2NIXVtjSF1jKD1PKWMoW2NIXTEpW05IXUMoPU8pW05IXVtDQEBIXTJbQ0BASF0oW0NIMl1bQ0gyXU8zKVtDQEBIXTNDMjRbQ0gyXVtDSDJdW0NIMl1bQ0gyXTQ=

> <s_epik_cmdline>
J2VwaWtfcHl0aG9uJywgJy1waCcsICc3LjAnLCAnLXRuJywgJzgnLCAnLW1hJywgJzIwMCcsICctbWV0YWxfYmluZGluZycsICctaW1hZScsICc8aW5maWxlLm1hZT4nLCAnLW9tYWUnLCAnPG91dGZpbGUubWFlPic=

> <r_lp_tautomer_probability>
1

> <r_epik_Ionization_Penalty>
0.00145966

> <r_epik_Ionization_Penalty_Charging>
0.00143969

> <r_epik_Ionization_Penalty_Neutral>
1.99697e-05

> <r_epik_State_Penalty>
0.000961843

> <r_epik_Charging_Adjusted_Penalty>
0.00240153

> <i_epik_Tot_Q>
0

> <i_epik_Tot_abs_Q>
0

> <r_epik_Metal_State_Penalty>
-0

> <b_epik_Metal_Only>
0

> <s_lp_Force_Field>
OPLS_2005

> <r_lp_Energy>
59.2385

> <b_lp_Chiralities_Consistent>
1

> <s_lp_Variant>
AV-unprocessed.smi:2339-7

> <Gold.Version>
5.8.1

> <Gold.Id.Protein>
6NUR|6NUR_protein|mol2

> <Gold.PLP.Fitness>
42.6341

> <Gold.PLP.PLP>
-40.2797

> <Gold.PLP.part.hbond>
-1.0000

> <Gold.PLP.part.metal>
0.0000

> <Gold.PLP.part.buried>
-4.3538

> <Gold.PLP.part.nonpolar>
-35.0458

> <Gold.PLP.part.repulsive>
0.3475

> <Gold.PLP.ligand.clash>
0.0000

> <Gold.PLP.ligand.torsion>
0.4239

> <Gold.PLP.Chemscore.Hbond>
1.0000

> <Gold.PLP.Chemscore.CHOScore>
0.0000

> <Gold.PLP.Chemscore.Metal>
0.0000

> <Gold.Chemscore.Hbonds>
donor molecule, donor type, donor heavy atom, donor atom, acceptor molecule, acceptor atom, score
      P1  H  7989  7998       L1    17  1.00

> <Gold.PLP.Chemscore.Internal.Correction>
0.2022

> <Gold.Rescore>
     Score         DG    S(hbond)    S(metal)    S(lipo)     H(rot)  DE(clash)    DE(int)     intcor
     17.51     -18.82       0.97        0.00     111.79       1.17       0.08       1.23       ----

> <Gold.Chemscore.Fitness>
17.5128

> <Gold.Chemscore.DG>
-18.8212

> <Gold.Chemscore.ZeroCoef>
-5.4800

> <Gold.Chemscore.Hbond>
0.9730

> <Gold.Chemscore.Metal>
0.0000

> <Gold.Chemscore.Lipo>
111.7864

> <Gold.Chemscore.Internal_Hbond>
0.0000

> <Gold.Chemscore.DEClash>
0.0762

> <Gold.Chemscore.DEInternal>
1.2323

> <Gold.Chemscore.Rot>
1.1670

> <Gold.Chemscore.Internal.Correction>
   9.000000E+99

> <Gold.Chemscore.Hbonds>
donor molecule, donor type, donor heavy atom, donor atom, acceptor molecule, acceptor atom, score
      P1  H  7989  7998       L1    17  0.92

> <Gold.Chemscore.Hbond.Weighted>
-3.2497

> <Gold.Chemscore.Metal.Weighted>
-0.0000

> <Gold.Chemscore.Lipo.Weighted>
-13.0790

> <Gold.Chemscore.Internal_Hbond.Weighted>
0.0000

> <Gold.Chemscore.DEClash.Weighted>
0.0762

> <Gold.Chemscore.DEInternal.Weighted>
1.2323

> <Gold.Chemscore.Rot.Weighted>
2.9874

> <Gold.Chemscore.Internal.Correction.Weighted>
   9.000000E+99

> <Gold.Protein.RotatedTorsions>
[ 6907 6896 6895 6894 ] final   -8.87 input  -60.11 | X-H torsion
[ 7974 7965 7964 7962 ] final  155.98 input  175.53 | X-H torsion
[ 8008 7997 7996 7995 ] final -104.59 input   59.86 | X-H torsion
[ 10167 10162 10161 10158 ] final   63.73 input  -65.29 | X-H torsion
[ 10718 10713 10712 10709 ] final -127.41 input   66.30 | X-H torsion
[ 10763 10752 10751 10750 ] final   31.62 input  -60.55 | X-H torsion
[ 11005 11000 10999 10996 ] final  154.90 input  -57.11 | X-H torsion

> <Gold.Protein.ActiveResidues>
 VAL166  LYS551  ARG553  GLY616  TRP617  ASP618  TYR619  PRO620  LYS621  CYS622 
 ASP623  PHE694  ASN695  SER759  ASP760  ASP761  ALA762  ILE779  LEU786  VAL792 
 PHE793  MET794  SER795  GLU796  ALA797  LYS798  CYS799  TRP800  GLU811  SER814 

> <Gold.Protein.RotatedAtoms>
  151.4267  135.1004  159.9629 H   0  0  0  0  0  0  0  0  0  0  0  0  # atno 6907 bound_to 6896
  152.4970  133.8656  159.7283 H   0  0  0  0  0  0  0  0  0  0  0  0  # atno 6908 bound_to 6896
  150.9184  133.6852  159.2865 H   0  0  0  0  0  0  0  0  0  0  0  0  # atno 6909 bound_to 6896
  144.7991  139.7142  143.6189 H   0  0  0  0  0  0  0  0  0  0  0  0  # atno 7974 bound_to 7965
  154.8875  140.0417  157.1819 H   0  0  0  0  0  0  0  0  0  0  0  0  # atno 8008 bound_to 7997
  154.8575  140.2939  155.5538 H   0  0  0  0  0  0  0  0  0  0  0  0  # atno 8009 bound_to 7997
  156.2997  140.2453  156.3544 H   0  0  0  0  0  0  0  0  0  0  0  0  # atno 8010 bound_to 7997
  140.1299  144.4653  150.6871 H   0  0  0  0  0  0  0  0  0  0  0  0  # atno 10167 bound_to 10162
  156.1854  130.6760  151.0358 H   0  0  0  0  0  0  0  0  0  0  0  0  # atno 10718 bound_to 10713
  153.0306  135.6434  154.1228 H   0  0  0  0  0  0  0  0  0  0  0  0  # atno 10763 bound_to 10752
  154.0951  135.2863  155.3265 H   0  0  0  0  0  0  0  0  0  0  0  0  # atno 10764 bound_to 10752
  154.6438  135.5450  153.7884 H   0  0  0  0  0  0  0  0  0  0  0  0  # atno 10765 bound_to 10752
  140.1532  134.8661  157.2480 H   0  0  0  0  0  0  0  0  0  0  0  0  # atno 11005 bound_to 11000
  146.2267  139.5737  142.9582 LP  0  0  0  0  0  0  0  0  0  0  0  0  # atno 17320 bound_to 7965
  145.5599  141.0405  143.2232 LP  0  0  0  0  0  0  0  0  0  0  0  0  # atno 17321 bound_to 7965
  140.6823  143.2333  151.5352 LP  0  0  0  0  0  0  0  0  0  0  0  0  # atno 17342 bound_to 10162
  139.5525  144.2359  152.1555 LP  0  0  0  0  0  0  0  0  0  0  0  0  # atno 17343 bound_to 10162
  157.6895  131.0814  150.7147 LP  0  0  0  0  0  0  0  0  0  0  0  0  # atno 17370 bound_to 10713
  156.7204  130.4679  149.5524 LP  0  0  0  0  0  0  0  0  0  0  0  0  # atno 17371 bound_to 10713
  140.2580  134.3605  155.7417 LP  0  0  0  0  0  0  0  0  0  0  0  0  # atno 17394 bound_to 11000
  141.2201  133.7353  156.9036 LP  0  0  0  0  0  0  0  0  0  0  0  0  # atno 17395 bound_to 11000

$$$$
