AV-unprocessed.smi:3031|AV-procd|sdf|11554|dock1
  -GOLD-   2272016513D 1   1.00000     0.00000
 Structure written by MMmdl.
 46 47  0  0  0  0  0  0  0  0  1 V2000
  145.5453  131.8038  149.5454 C   0  0  0  0  0  0  0  0  0  0  0  0
  145.5310  132.7602  150.7027 C   0  0  0  0  0  0  0  0  0  0  0  0
  146.6086  133.1077  151.5661 C   0  0  0  0  0  0  0  0  0  0  0  0
  146.2607  133.9826  152.4955 N   0  0  0  0  0  0  0  0  0  0  0  0
  144.9581  134.2402  152.2490 N   0  0  0  0  0  0  0  0  0  0  0  0
  144.2291  135.1604  153.1070 C   0  0  0  0  0  0  0  0  0  0  0  0
  143.4162  136.2298  152.3347 C   0  0  1  0  0  0  0  0  0  0  0  0
  142.1614  136.6214  153.1279 C   0  0  0  0  0  0  0  0  0  0  0  0
  144.1852  137.4474  152.0481 N   0  0  0  0  0  0  0  0  0  0  0  0
  145.5930  137.2577  151.7005 C   0  0  0  0  0  0  0  0  0  0  0  0
  146.4344  138.4835  152.0904 C   0  0  2  0  0  0  0  0  0  0  0  0
  147.6915  138.3435  151.4613 O   0  0  0  0  0  0  0  0  0  0  0  0
  146.6658  138.5696  153.6151 C   0  0  0  0  0  0  0  0  0  0  0  0
  147.2959  139.8014  154.0934 N   0  0  0  0  0  0  0  0  0  0  0  0
  146.9205  140.9347  153.2544 C   0  0  0  0  0  0  0  0  0  0  0  0
  147.5639  142.2461  153.7361 C   0  0  0  0  0  0  0  0  0  0  0  0
  148.9791  142.0962  153.7667 O   0  0  0  0  0  0  0  0  0  0  0  0
  149.3984  141.0273  154.6087 C   0  0  0  0  0  0  0  0  0  0  0  0
  148.7544  139.7106  154.1390 C   0  0  0  0  0  0  0  0  0  0  0  0
  144.4879  133.4990  151.1847 C   0  0  0  0  0  0  0  0  0  0  0  0
  146.5459  131.4169  149.3505 H   0  0  0  0  0  0  0  0  0  0  0  0
  145.2011  132.2798  148.6269 H   0  0  0  0  0  0  0  0  0  0  0  0
  144.8983  130.9452  149.7255 H   0  0  0  0  0  0  0  0  0  0  0  0
  147.6271  132.7485  151.5474 H   0  0  0  0  0  0  0  0  0  0  0  0
  143.5553  134.5502  153.7098 H   0  0  0  0  0  0  0  0  0  0  0  0
  144.9171  135.6356  153.8087 H   0  0  0  0  0  0  0  0  0  0  0  0
  143.0669  135.8017  151.3945 H   0  0  0  0  0  0  0  0  0  0  0  0
  141.5193  135.7573  153.3015 H   0  0  0  0  0  0  0  0  0  0  0  0
  141.5696  137.3630  152.5901 H   0  0  0  0  0  0  0  0  0  0  0  0
  142.4210  137.0432  154.0996 H   0  0  0  0  0  0  0  0  0  0  0  0
  143.7250  137.9683  151.3084 H   0  0  0  0  0  0  0  0  0  0  0  0
  145.9997  136.3769  152.1941 H   0  0  0  0  0  0  0  0  0  0  0  0
  145.6794  137.0883  150.6263 H   0  0  0  0  0  0  0  0  0  0  0  0
  145.9535  139.3805  151.7019 H   0  0  0  0  0  0  0  0  0  0  0  0
  148.1663  139.1548  151.5579 H   0  0  0  0  0  0  0  0  0  0  0  0
  145.7139  138.4401  154.1323 H   0  0  0  0  0  0  0  0  0  0  0  0
  147.2764  137.7152  153.9114 H   0  0  0  0  0  0  0  0  0  0  0  0
  147.2193  140.7458  152.2220 H   0  0  0  0  0  0  0  0  0  0  0  0
  145.8359  141.0482  153.2489 H   0  0  0  0  0  0  0  0  0  0  0  0
  147.3062  143.0646  153.0639 H   0  0  0  0  0  0  0  0  0  0  0  0
  147.1965  142.5164  154.7274 H   0  0  0  0  0  0  0  0  0  0  0  0
  150.4852  140.9513  154.5729 H   0  0  0  0  0  0  0  0  0  0  0  0
  149.1259  141.2424  155.6432 H   0  0  0  0  0  0  0  0  0  0  0  0
  149.0667  138.9156  154.8146 H   0  0  0  0  0  0  0  0  0  0  0  0
  149.1405  139.4528  153.1517 H   0  0  0  0  0  0  0  0  0  0  0  0
  143.4607  133.5608  150.8570 H   0  0  0  0  0  0  0  0  0  0  0  0
  1  2  1  0  0  0  0
  1 21  1  0  0  0  0
  1 22  1  0  0  0  0
  1 23  1  0  0  0  0
  2 20  2  0  0  0  0
  2  3  1  0  0  0  0
  3  4  2  0  0  0  0
  3 24  1  0  0  0  0
  4  5  1  0  0  0  0
  5  6  1  0  0  0  0
  5 20  1  0  0  0  0
  6  7  1  0  0  0  0
  6 25  1  0  0  0  0
  6 26  1  0  0  0  0
  7  8  1  0  0  0  0
  7  9  1  0  0  0  0
  7 27  1  0  0  0  0
  8 28  1  0  0  0  0
  8 29  1  0  0  0  0
  8 30  1  0  0  0  0
  9 10  1  0  0  0  0
  9 31  1  0  0  0  0
 10 11  1  0  0  0  0
 10 32  1  0  0  0  0
 10 33  1  0  0  0  0
 11 12  1  0  0  0  0
 11 13  1  0  0  0  0
 11 34  1  0  0  0  0
 12 35  1  0  0  0  0
 13 14  1  0  0  0  0
 13 36  1  0  0  0  0
 13 37  1  0  0  0  0
 14 19  1  0  0  0  0
 14 15  1  0  0  0  0
 15 16  1  0  0  0  0
 15 38  1  0  0  0  0
 15 39  1  0  0  0  0
 16 17  1  0  0  0  0
 16 40  1  0  0  0  0
 16 41  1  0  0  0  0
 17 18  1  0  0  0  0
 18 19  1  0  0  0  0
 18 42  1  0  0  0  0
 18 43  1  0  0  0  0
 19 44  1  0  0  0  0
 19 45  1  0  0  0  0
 20 46  1  0  0  0  0
M  END
> <s_m_source_file>
AV-unprocessed.smi

> <i_m_source_file_index>
3031

> <i_lp_mmshare_version>
43012

> <i_f3d_flags>
0

> <s_epik_input>
W0NIM11jMVtjSF1ubihbY0hdMSlbQ0gyXVtDQEhdKFtDSDNdKVtOSF1bQ0gyXVtDQEhdKFtPSF0pW0NIMl1OMltDSDJdW0NIMl1PW0NIMl1bQ0gyXTI=

> <s_epik_cmdline>
J2VwaWtfcHl0aG9uJywgJy1waCcsICc3LjAnLCAnLXRuJywgJzgnLCAnLW1hJywgJzIwMCcsICctbWV0YWxfYmluZGluZycsICctaW1hZScsICc8aW5maWxlLm1hZT4nLCAnLW9tYWUnLCAnPG91dGZpbGUubWFlPic=

> <r_lp_tautomer_probability>
1

> <r_epik_Ionization_Penalty>
2.8101

> <r_epik_Ionization_Penalty_Charging>
0

> <r_epik_Ionization_Penalty_Neutral>
2.8101

> <r_epik_State_Penalty>
2.12351

> <r_epik_Charging_Adjusted_Penalty>
2.12351

> <i_epik_Tot_Q>
0

> <i_epik_Tot_abs_Q>
0

> <r_epik_Metal_State_Penalty>
2.12345

> <b_epik_Metal_Only>
0

> <s_lp_Force_Field>
OPLS_2005

> <r_lp_Energy>
32.7569

> <b_lp_Chiralities_Consistent>
1

> <s_lp_Variant>
AV-unprocessed.smi:3031-14

> <Gold.Version>
5.8.1

> <Gold.Id.Protein>
6NUR|6NUR_protein|mol2

> <Gold.PLP.Fitness>
52.1424

> <Gold.PLP.PLP>
-38.1812

> <Gold.PLP.part.hbond>
-6.6906

> <Gold.PLP.part.metal>
0.0000

> <Gold.PLP.part.buried>
1.7998

> <Gold.PLP.part.nonpolar>
-31.8256

> <Gold.PLP.part.repulsive>
0.4643

> <Gold.PLP.ligand.clash>
0.0000

> <Gold.PLP.ligand.torsion>
1.3396

> <Gold.PLP.Chemscore.Hbond>
3.2720

> <Gold.PLP.Chemscore.CHOScore>
1.9821

> <Gold.PLP.Chemscore.Metal>
0.0000

> <Gold.Chemscore.Hbonds>
donor molecule, donor type, donor heavy atom, donor atom, acceptor molecule, acceptor atom, score
      L1  H     9    31       P1 10171  0.94
      L1  H    12    35       P1  7957  0.90
      P1  H  7954  7966       L1    12  1.00
      P1  H  8011  8017       L1    17  0.40
      L1  C     3    24       P1 10747  0.72
      L1  C    20    46       P1 10186  0.06

> <Gold.PLP.Chemscore.Internal.Correction>
0.8780

> <Gold.Rescore>
     Score         DG    S(hbond)    S(metal)    S(lipo)     H(rot)  DE(clash)    DE(int)     intcor
     15.44     -18.04       2.43        0.00      93.28       2.53       1.34       1.26       ----

> <Gold.Chemscore.Fitness>
15.4419

> <Gold.Chemscore.DG>
-18.0377

> <Gold.Chemscore.ZeroCoef>
-5.4800

> <Gold.Chemscore.Hbond>
2.4337

> <Gold.Chemscore.Metal>
0.0000

> <Gold.Chemscore.Lipo>
93.2846

> <Gold.Chemscore.Internal_Hbond>
0.0000

> <Gold.Chemscore.DEClash>
1.3384

> <Gold.Chemscore.DEInternal>
1.2573

> <Gold.Chemscore.Rot>
2.5333

> <Gold.Chemscore.Internal.Correction>
   9.000000E+99

> <Gold.Chemscore.Hbonds>
donor molecule, donor type, donor heavy atom, donor atom, acceptor molecule, acceptor atom, score
      L1  H     9    31       P1 10171  0.89
      L1  H    12    35       P1  7957  0.80
      P1  H  7954  7966       L1    12  0.25
      P1  H  8011  8017       L1    17  0.36

> <Gold.Chemscore.Hbond.Weighted>
-8.1285

> <Gold.Chemscore.Metal.Weighted>
-0.0000

> <Gold.Chemscore.Lipo.Weighted>
-10.9143

> <Gold.Chemscore.Internal_Hbond.Weighted>
0.0000

> <Gold.Chemscore.DEClash.Weighted>
1.3384

> <Gold.Chemscore.DEInternal.Weighted>
1.2573

> <Gold.Chemscore.Rot.Weighted>
6.4852

> <Gold.Chemscore.Internal.Correction.Weighted>
   9.000000E+99

> <Gold.Protein.RotatedTorsions>
[ 6907 6896 6895 6894 ] final -135.82 input  -60.11 | X-H torsion
[ 7974 7965 7964 7962 ] final  -43.34 input  175.53 | X-H torsion
[ 8008 7997 7996 7995 ] final   15.48 input   59.86 | X-H torsion
[ 10167 10162 10161 10158 ] final   76.61 input  -65.29 | X-H torsion
[ 10718 10713 10712 10709 ] final   42.89 input   66.30 | X-H torsion
[ 10763 10752 10751 10750 ] final  -78.01 input  -60.55 | X-H torsion
[ 11005 11000 10999 10996 ] final  -21.66 input  -57.11 | X-H torsion

> <Gold.Protein.ActiveResidues>
 VAL166  LYS551  ARG553  GLY616  TRP617  ASP618  TYR619  PRO620  LYS621  CYS622 
 ASP623  PHE694  ASN695  SER759  ASP760  ASP761  ALA762  ILE779  LEU786  VAL792 
 PHE793  MET794  SER795  GLU796  ALA797  LYS798  CYS799  TRP800  GLU811  SER814 

> <Gold.Protein.RotatedAtoms>
  151.0025  133.6042  159.2692 H   0  0  0  0  0  0  0  0  0  0  0  0  # atno 6907 bound_to 6896
  151.3223  135.0820  159.9320 H   0  0  0  0  0  0  0  0  0  0  0  0  # atno 6908 bound_to 6896
  152.5278  133.9670  159.7798 H   0  0  0  0  0  0  0  0  0  0  0  0  # atno 6909 bound_to 6896
  146.0028  140.7054  142.9262 H   0  0  0  0  0  0  0  0  0  0  0  0  # atno 7974 bound_to 7965
  154.8632  140.2947  155.5526 H   0  0  0  0  0  0  0  0  0  0  0  0  # atno 8008 bound_to 7997
  156.3020  140.2474  156.3542 H   0  0  0  0  0  0  0  0  0  0  0  0  # atno 8009 bound_to 7997
  154.8896  140.0395  157.1820 H   0  0  0  0  0  0  0  0  0  0  0  0  # atno 8010 bound_to 7997
  139.9904  144.5761  150.7823 H   0  0  0  0  0  0  0  0  0  0  0  0  # atno 10167 bound_to 10162
  157.4099  130.7908  149.7421 H   0  0  0  0  0  0  0  0  0  0  0  0  # atno 10718 bound_to 10713
  154.5204  135.5744  153.6676 H   0  0  0  0  0  0  0  0  0  0  0  0  # atno 10763 bound_to 10752
  152.9916  135.6180  154.2762 H   0  0  0  0  0  0  0  0  0  0  0  0  # atno 10764 bound_to 10752
  154.2683  135.2854  155.2729 H   0  0  0  0  0  0  0  0  0  0  0  0  # atno 10765 bound_to 10752
  140.8583  133.7807  156.0045 H   0  0  0  0  0  0  0  0  0  0  0  0  # atno 11005 bound_to 11000
  144.6925  140.3263  143.7224 LP  0  0  0  0  0  0  0  0  0  0  0  0  # atno 17320 bound_to 7965
  145.7461  139.1779  143.2348 LP  0  0  0  0  0  0  0  0  0  0  0  0  # atno 17321 bound_to 7965
  140.7457  143.2879  151.3411 LP  0  0  0  0  0  0  0  0  0  0  0  0  # atno 17342 bound_to 10162
  139.6344  144.0658  152.2504 LP  0  0  0  0  0  0  0  0  0  0  0  0  # atno 17343 bound_to 10162
  155.9847  130.3989  150.3297 LP  0  0  0  0  0  0  0  0  0  0  0  0  # atno 17370 bound_to 10713
  157.1433  131.0302  151.2918 LP  0  0  0  0  0  0  0  0  0  0  0  0  # atno 17371 bound_to 10713
  140.8712  134.2724  157.5190 LP  0  0  0  0  0  0  0  0  0  0  0  0  # atno 17394 bound_to 11000
  139.8706  134.9568  156.4249 LP  0  0  0  0  0  0  0  0  0  0  0  0  # atno 17395 bound_to 11000

$$$$
