AV-unprocessed.smi:837|AV-procd|sdf|3894|dock3
  -GOLD-   22720 1353D 1   1.00000     0.00000
 Structure written by MMmdl.
 49 51  0  0  0  0  0  0  0  0  1 V2000
  145.0407  135.3502  158.9225 C   0  0  0  0  0  0  0  0  0  0  0  0
  145.5259  134.8475  160.2989 C   0  0  2  0  0  0  0  0  0  0  0  0
  144.5790  135.3288  161.4197 C   0  0  0  0  0  0  0  0  0  0  0  0
  144.9870  134.7653  162.7899 C   0  0  0  0  0  0  0  0  0  0  0  0
  146.4414  135.1169  163.1324 C   0  0  0  0  0  0  0  0  0  0  0  0
  147.4035  134.6436  162.0283 C   0  0  0  0  0  0  0  0  0  0  0  0
  147.0201  135.1689  160.6217 C   0  0  1  0  0  0  0  0  0  0  0  0
  147.9072  134.5916  159.6265 N   0  0  0  0  0  0  0  0  0  0  0  0
  148.6473  135.5037  158.9846 C   0  0  0  0  0  0  0  0  0  0  0  0
  149.4586  135.2584  158.0932 O   0  0  0  0  0  0  0  0  0  0  0  0
  148.3401  136.7171  159.4751 N   0  0  0  0  0  0  0  0  0  0  0  0
  148.9095  137.9783  158.9824 C   0  0  0  0  0  0  0  0  0  0  0  0
  150.4326  138.0696  159.1596 C   0  0  0  0  0  0  0  0  0  0  0  0
  151.0893  137.0982  159.5390 O   0  0  0  0  0  0  0  0  0  0  0  0
  150.9816  139.2622  158.8853 N   0  0  0  0  0  0  0  0  0  0  0  0
  152.4020  139.5736  158.9925 C   0  0  0  0  0  0  0  0  0  0  0  0
  152.7023  140.4108  160.2462 C   0  0  0  0  0  0  0  0  0  0  0  0
  152.4951  141.8930  160.0051 C   0  0  0  0  0  0  0  0  0  0  0  0
  152.9160  142.8455  160.9558 C   0  0  0  0  0  0  0  0  0  0  0  0
  152.7060  144.2114  160.6856 C   0  0  0  0  0  0  0  0  0  0  0  0
  152.0835  144.5672  159.4723 C   0  0  0  0  0  0  0  0  0  0  0  0
  151.6768  143.6637  158.5547 N   0  0  0  0  0  0  0  0  0  0  0  0
  151.8812  142.3558  158.8218 C   0  0  0  0  0  0  0  0  0  0  0  0
  147.4034  136.6378  160.4301 C   0  0  0  0  0  0  0  0  0  0  0  0
  146.9082  137.5780  161.0521 O   0  0  0  0  0  0  0  0  0  0  0  0
  145.0406  136.4391  158.8652 H   0  0  0  0  0  0  0  0  0  0  0  0
  144.0222  135.0154  158.7250 H   0  0  0  0  0  0  0  0  0  0  0  0
  145.6649  134.9742  158.1120 H   0  0  0  0  0  0  0  0  0  0  0  0
  145.4416  133.7598  160.2662 H   0  0  0  0  0  0  0  0  0  0  0  0
  144.5605  136.4180  161.4609 H   0  0  0  0  0  0  0  0  0  0  0  0
  143.5571  135.0197  161.1973 H   0  0  0  0  0  0  0  0  0  0  0  0
  144.3206  135.1495  163.5626 H   0  0  0  0  0  0  0  0  0  0  0  0
  144.8648  133.6813  162.7888 H   0  0  0  0  0  0  0  0  0  0  0  0
  146.5348  136.1928  163.2802 H   0  0  0  0  0  0  0  0  0  0  0  0
  146.7171  134.6570  164.0818 H   0  0  0  0  0  0  0  0  0  0  0  0
  148.4207  134.9445  162.2847 H   0  0  0  0  0  0  0  0  0  0  0  0
  147.4116  133.5527  162.0139 H   0  0  0  0  0  0  0  0  0  0  0  0
  147.9428  133.6001  159.4390 H   0  0  0  0  0  0  0  0  0  0  0  0
  148.6672  138.1057  157.9258 H   0  0  0  0  0  0  0  0  0  0  0  0
  148.4485  138.8237  159.4960 H   0  0  0  0  0  0  0  0  0  0  0  0
  150.3721  140.0076  158.5807 H   0  0  0  0  0  0  0  0  0  0  0  0
  152.9879  138.6527  158.9973 H   0  0  0  0  0  0  0  0  0  0  0  0
  152.6960  140.1236  158.0980 H   0  0  0  0  0  0  0  0  0  0  0  0
  152.0634  140.0929  161.0712 H   0  0  0  0  0  0  0  0  0  0  0  0
  153.7303  140.2484  160.5738 H   0  0  0  0  0  0  0  0  0  0  0  0
  153.3926  142.5369  161.8748 H   0  0  0  0  0  0  0  0  0  0  0  0
  153.0154  144.9685  161.3909 H   0  0  0  0  0  0  0  0  0  0  0  0
  151.9080  145.6055  159.2325 H   0  0  0  0  0  0  0  0  0  0  0  0
  151.5472  141.6588  158.0675 H   0  0  0  0  0  0  0  0  0  0  0  0
  1  2  1  0  0  0  0
  1 26  1  0  0  0  0
  1 27  1  0  0  0  0
  1 28  1  0  0  0  0
  2  7  1  0  0  0  0
  2  3  1  0  0  0  0
  2 29  1  0  0  0  0
  3  4  1  0  0  0  0
  3 30  1  0  0  0  0
  3 31  1  0  0  0  0
  4  5  1  0  0  0  0
  4 32  1  0  0  0  0
  4 33  1  0  0  0  0
  5  6  1  0  0  0  0
  5 34  1  0  0  0  0
  5 35  1  0  0  0  0
  6  7  1  0  0  0  0
  6 36  1  0  0  0  0
  6 37  1  0  0  0  0
  7 24  1  0  0  0  0
  7  8  1  0  0  0  0
  8  9  1  0  0  0  0
  8 38  1  0  0  0  0
  9 10  2  0  0  0  0
  9 11  1  0  0  0  0
 11 12  1  0  0  0  0
 11 24  1  0  0  0  0
 12 13  1  0  0  0  0
 12 39  1  0  0  0  0
 12 40  1  0  0  0  0
 13 14  2  0  0  0  0
 13 15  1  0  0  0  0
 15 16  1  0  0  0  0
 15 41  1  0  0  0  0
 16 17  1  0  0  0  0
 16 42  1  0  0  0  0
 16 43  1  0  0  0  0
 17 18  1  0  0  0  0
 17 44  1  0  0  0  0
 17 45  1  0  0  0  0
 18 23  1  0  0  0  0
 18 19  2  0  0  0  0
 19 20  1  0  0  0  0
 19 46  1  0  0  0  0
 20 21  2  0  0  0  0
 20 47  1  0  0  0  0
 21 22  1  0  0  0  0
 21 48  1  0  0  0  0
 22 23  2  0  0  0  0
 23 49  1  0  0  0  0
 24 25  2  0  0  0  0
M  END
> <s_m_source_file>
AV-unprocessed.smi

> <i_m_source_file_index>
837

> <i_lp_mmshare_version>
43012

> <i_f3d_flags>
0

> <s_epik_input>
W0NIMl0xW0NIMl1bQ0gyXVtDSDJdW0NAQEhdKFtDSDNdKVtDQEBdMTJbTkhdQyg9TylOKEMyPU8pW0NIMl1DKD1PKVtOSF1bQ0gyXVtDSDJdYzNbY0hdW2NIXVtjSF1uW2NIXTM=

> <s_epik_cmdline>
J2VwaWtfcHl0aG9uJywgJy1waCcsICc3LjAnLCAnLXRuJywgJzgnLCAnLW1hJywgJzIwMCcsICctbWV0YWxfYmluZGluZycsICctaW1hZScsICc8aW5maWxlLm1hZT4nLCAnLW9tYWUnLCAnPG91dGZpbGUubWFlPic=

> <r_lp_tautomer_probability>
1

> <r_epik_Ionization_Penalty>
0.0127837

> <r_epik_Ionization_Penalty_Charging>
0

> <r_epik_Ionization_Penalty_Neutral>
0.0127837

> <r_epik_State_Penalty>
0.00987657

> <r_epik_Charging_Adjusted_Penalty>
0.00987657

> <i_epik_Tot_Q>
0

> <i_epik_Tot_abs_Q>
0

> <r_epik_Metal_State_Penalty>
0.0309865

> <b_epik_Metal_Only>
0

> <s_lp_Force_Field>
OPLS_2005

> <r_lp_Energy>
17.4759

> <b_lp_Chiralities_Consistent>
1

> <s_lp_Variant>
AV-unprocessed.smi:837-3

> <Gold.Version>
5.8.1

> <Gold.Id.Protein>
6NUR|6NUR_protein|mol2

> <Gold.PLP.Fitness>
48.0127

> <Gold.PLP.PLP>
-40.7459

> <Gold.PLP.part.hbond>
-3.0000

> <Gold.PLP.part.metal>
0.0000

> <Gold.PLP.part.buried>
-5.5969

> <Gold.PLP.part.nonpolar>
-33.0280

> <Gold.PLP.part.repulsive>
0.3161

> <Gold.PLP.ligand.clash>
0.0000

> <Gold.PLP.ligand.torsion>
0.3956

> <Gold.PLP.Chemscore.Hbond>
2.6720

> <Gold.PLP.Chemscore.CHOScore>
0.0000

> <Gold.PLP.Chemscore.Metal>
0.0000

> <Gold.Chemscore.Hbonds>
donor molecule, donor type, donor heavy atom, donor atom, acceptor molecule, acceptor atom, score
      P1  H  6896  6908       L1    10  0.19
      P1  H  6896  6909       L1    14  0.99
      P1  H  6931  6943       L1    25  0.05
      P1  H  6934  6947       L1    25  0.86

> <Gold.PLP.Chemscore.Internal.Correction>
0.0420

> <Gold.Rescore>
     Score         DG    S(hbond)    S(metal)    S(lipo)     H(rot)  DE(clash)    DE(int)     intcor
     18.90     -21.39       2.50        0.00     105.30       1.86       0.53       1.96       ----

> <Gold.Chemscore.Fitness>
18.8967

> <Gold.Chemscore.DG>
-21.3922

> <Gold.Chemscore.ZeroCoef>
-5.4800

> <Gold.Chemscore.Hbond>
2.4975

> <Gold.Chemscore.Metal>
0.0000

> <Gold.Chemscore.Lipo>
105.3001

> <Gold.Chemscore.Internal_Hbond>
0.0000

> <Gold.Chemscore.DEClash>
0.5334

> <Gold.Chemscore.DEInternal>
1.9621

> <Gold.Chemscore.Rot>
1.8553

> <Gold.Chemscore.Internal.Correction>
   9.000000E+99

> <Gold.Chemscore.Hbonds>
donor molecule, donor type, donor heavy atom, donor atom, acceptor molecule, acceptor atom, score
      P1  H  6896  6908       L1    10  0.04
      P1  H  6896  6909       L1    14  0.92
      P1  H  6931  6943       L1    25  0.01
      P1  H  6934  6947       L1    25  0.84

> <Gold.Chemscore.Hbond.Weighted>
-8.3417

> <Gold.Chemscore.Metal.Weighted>
-0.0000

> <Gold.Chemscore.Lipo.Weighted>
-12.3201

> <Gold.Chemscore.Internal_Hbond.Weighted>
0.0000

> <Gold.Chemscore.DEClash.Weighted>
0.5334

> <Gold.Chemscore.DEInternal.Weighted>
1.9621

> <Gold.Chemscore.Rot.Weighted>
4.7497

> <Gold.Chemscore.Internal.Correction.Weighted>
   9.000000E+99

> <Gold.Protein.RotatedTorsions>
[ 6907 6896 6895 6894 ] final  120.35 input  -60.11 | X-H torsion
[ 7974 7965 7964 7962 ] final  -65.35 input  175.53 | X-H torsion
[ 8008 7997 7996 7995 ] final   83.34 input   59.86 | X-H torsion
[ 10167 10162 10161 10158 ] final  -61.88 input  -65.29 | X-H torsion
[ 10718 10713 10712 10709 ] final -126.48 input   66.30 | X-H torsion
[ 10763 10752 10751 10750 ] final  175.08 input  -60.55 | X-H torsion
[ 11005 11000 10999 10996 ] final  101.00 input  -57.11 | X-H torsion

> <Gold.Protein.ActiveResidues>
 VAL166  LYS551  ARG553  GLY616  TRP617  ASP618  TYR619  PRO620  LYS621  CYS622 
 ASP623  PHE694  ASN695  SER759  ASP760  ASP761  ALA762  ILE779  LEU786  VAL792 
 PHE793  MET794  SER795  GLU796  ALA797  LYS798  CYS799  TRP800  GLU811  SER814 

> <Gold.Protein.RotatedAtoms>
  152.4405  133.7439  159.6655 H   0  0  0  0  0  0  0  0  0  0  0  0  # atno 6907 bound_to 6896
  150.8294  133.8105  159.3111 H   0  0  0  0  0  0  0  0  0  0  0  0  # atno 6908 bound_to 6896
  151.5764  135.1063  160.0059 H   0  0  0  0  0  0  0  0  0  0  0  0  # atno 6909 bound_to 6896
  145.7554  140.8888  143.0458 H   0  0  0  0  0  0  0  0  0  0  0  0  # atno 7974 bound_to 7965
  155.9226  140.3420  155.6185 H   0  0  0  0  0  0  0  0  0  0  0  0  # atno 8008 bound_to 7997
  155.7255  140.0789  157.2330 H   0  0  0  0  0  0  0  0  0  0  0  0  # atno 8009 bound_to 7997
  154.4072  140.1597  156.2437 H   0  0  0  0  0  0  0  0  0  0  0  0  # atno 8010 bound_to 7997
  140.5976  143.2354  151.6000 H   0  0  0  0  0  0  0  0  0  0  0  0  # atno 10167 bound_to 10162
  156.1769  130.6706  151.0254 H   0  0  0  0  0  0  0  0  0  0  0  0  # atno 10718 bound_to 10713
  154.4627  135.2768  155.1701 H   0  0  0  0  0  0  0  0  0  0  0  0  # atno 10763 bound_to 10752
  154.3482  135.6155  153.5633 H   0  0  0  0  0  0  0  0  0  0  0  0  # atno 10764 bound_to 10752
  152.9856  135.5805  154.4993 H   0  0  0  0  0  0  0  0  0  0  0  0  # atno 10765 bound_to 10752
  139.8772  134.9164  156.4841 H   0  0  0  0  0  0  0  0  0  0  0  0  # atno 11005 bound_to 11000
  144.6841  139.9649  143.7481 LP  0  0  0  0  0  0  0  0  0  0  0  0  # atno 17320 bound_to 7965
  146.0316  139.3340  143.0751 LP  0  0  0  0  0  0  0  0  0  0  0  0  # atno 17321 bound_to 7965
  139.5269  144.3032  152.1056 LP  0  0  0  0  0  0  0  0  0  0  0  0  # atno 17342 bound_to 10162
  140.2207  144.4469  150.6343 LP  0  0  0  0  0  0  0  0  0  0  0  0  # atno 17343 bound_to 10162
  157.6842  131.0829  150.7288 LP  0  0  0  0  0  0  0  0  0  0  0  0  # atno 17370 bound_to 10713
  156.7346  130.4720  149.5491 LP  0  0  0  0  0  0  0  0  0  0  0  0  # atno 17371 bound_to 10713
  140.8706  133.7991  155.9360 LP  0  0  0  0  0  0  0  0  0  0  0  0  # atno 17394 bound_to 11000
  140.8956  134.2441  157.5070 LP  0  0  0  0  0  0  0  0  0  0  0  0  # atno 17395 bound_to 11000

$$$$
