AV-unprocessed.smi:2223|AV-procd|sdf|8989|dock2
  -GOLD-   2272012203D 1   1.00000     0.00000
 Structure written by MMmdl.
 46 47  0  0  0  0  0  0  0  0  1 V2000
  145.8516  129.1793  153.2064 C   0  0  0  0  0  0  0  0  0  0  0  0
  145.9751  130.5060  152.4869 C   0  0  0  0  0  0  0  0  0  0  0  0
  145.2222  130.7688  151.3264 C   0  0  0  0  0  0  0  0  0  0  0  0
  145.3771  132.0224  150.7030 C   0  0  0  0  0  0  0  0  0  0  0  0
  144.5977  132.3711  149.4525 C   0  0  0  0  0  0  0  0  0  0  0  0
  146.2087  132.9790  151.1684 N   0  0  0  0  0  0  0  0  0  0  0  0
  146.9383  132.7372  152.2858 C   0  0  0  0  0  0  0  0  0  0  0  0
  147.8443  133.6720  152.8529 N   0  0  0  0  0  0  0  0  0  0  0  0
  148.3109  133.7187  154.1131 C   0  0  0  0  0  0  0  0  0  0  0  0
  148.0353  132.9180  155.0070 O   0  0  0  0  0  0  0  0  0  0  0  0
  149.1370  134.7605  154.2850 N   0  0  0  0  0  0  0  0  0  0  0  0
  149.8183  135.0896  155.5341 C   0  0  2  0  0  0  0  0  0  0  0  0
  148.8247  135.3899  156.6576 C   0  0  0  0  0  0  0  0  0  0  0  0
  149.3332  136.6892  157.2564 C   0  0  0  0  0  0  0  0  0  0  0  0
  148.8091  137.1848  158.2529 O   0  0  0  0  0  0  0  0  0  0  0  0
  150.3768  137.1891  156.5674 N   0  0  0  0  0  0  0  0  0  0  0  0
  151.0939  138.4636  156.8362 C   0  0  0  0  0  0  0  0  0  0  0  0
  151.7593  138.3983  158.2287 C   0  0  0  0  0  0  0  0  0  0  0  0
  150.1363  139.6793  156.8283 C   0  0  0  0  0  0  0  0  0  0  0  0
  152.1694  138.7096  155.7536 C   0  0  0  0  0  0  0  0  0  0  0  0
  150.6769  136.3600  155.4005 C   0  0  0  0  0  0  0  0  0  0  0  0
  146.8437  131.5050  152.9708 C   0  0  0  0  0  0  0  0  0  0  0  0
  145.4520  128.4100  152.5448 H   0  0  0  0  0  0  0  0  0  0  0  0
  145.1840  129.2770  154.0625 H   0  0  0  0  0  0  0  0  0  0  0  0
  146.8252  128.8446  153.5654 H   0  0  0  0  0  0  0  0  0  0  0  0
  144.5439  130.0296  150.9257 H   0  0  0  0  0  0  0  0  0  0  0  0
  144.1334  131.4854  149.0180 H   0  0  0  0  0  0  0  0  0  0  0  0
  145.2545  132.8116  148.7016 H   0  0  0  0  0  0  0  0  0  0  0  0
  143.8121  133.0898  149.6865 H   0  0  0  0  0  0  0  0  0  0  0  0
  148.1723  134.3916  152.2261 H   0  0  0  0  0  0  0  0  0  0  0  0
  149.3096  135.3684  153.4978 H   0  0  0  0  0  0  0  0  0  0  0  0
  150.4485  134.2526  155.8421 H   0  0  0  0  0  0  0  0  0  0  0  0
  147.8095  135.5413  156.2877 H   0  0  0  0  0  0  0  0  0  0  0  0
  148.8049  134.5971  157.4062 H   0  0  0  0  0  0  0  0  0  0  0  0
  152.2493  139.3405  158.4766 H   0  0  0  0  0  0  0  0  0  0  0  0
  152.5210  137.6211  158.2886 H   0  0  0  0  0  0  0  0  0  0  0  0
  151.0230  138.1984  159.0082 H   0  0  0  0  0  0  0  0  0  0  0  0
  149.3576  139.5934  157.5868 H   0  0  0  0  0  0  0  0  0  0  0  0
  149.6538  139.8099  155.8592 H   0  0  0  0  0  0  0  0  0  0  0  0
  150.6760  140.6038  157.0368 H   0  0  0  0  0  0  0  0  0  0  0  0
  152.6507  139.6785  155.8904 H   0  0  0  0  0  0  0  0  0  0  0  0
  151.7317  138.7014  154.7546 H   0  0  0  0  0  0  0  0  0  0  0  0
  152.9624  137.9628  155.7727 H   0  0  0  0  0  0  0  0  0  0  0  0
  151.7323  136.0911  155.3529 H   0  0  0  0  0  0  0  0  0  0  0  0
  150.4277  136.9176  154.4959 H   0  0  0  0  0  0  0  0  0  0  0  0
  147.4302  131.3254  153.8604 H   0  0  0  0  0  0  0  0  0  0  0  0
  1  2  1  0  0  0  0
  1 23  1  0  0  0  0
  1 24  1  0  0  0  0
  1 25  1  0  0  0  0
  2 22  1  0  0  0  0
  2  3  2  0  0  0  0
  3  4  1  0  0  0  0
  3 26  1  0  0  0  0
  4  5  1  0  0  0  0
  4  6  2  0  0  0  0
  5 27  1  0  0  0  0
  5 28  1  0  0  0  0
  5 29  1  0  0  0  0
  6  7  1  0  0  0  0
  7  8  1  0  0  0  0
  7 22  2  0  0  0  0
  8  9  1  0  0  0  0
  8 30  1  0  0  0  0
  9 10  2  0  0  0  0
  9 11  1  0  0  0  0
 11 12  1  0  0  0  0
 11 31  1  0  0  0  0
 12 21  1  0  0  0  0
 12 13  1  0  0  0  0
 12 32  1  0  0  0  0
 13 14  1  0  0  0  0
 13 33  1  0  0  0  0
 13 34  1  0  0  0  0
 14 15  2  0  0  0  0
 14 16  1  0  0  0  0
 16 17  1  0  0  0  0
 16 21  1  0  0  0  0
 17 18  1  0  0  0  0
 17 19  1  0  0  0  0
 17 20  1  0  0  0  0
 18 35  1  0  0  0  0
 18 36  1  0  0  0  0
 18 37  1  0  0  0  0
 19 38  1  0  0  0  0
 19 39  1  0  0  0  0
 19 40  1  0  0  0  0
 20 41  1  0  0  0  0
 20 42  1  0  0  0  0
 20 43  1  0  0  0  0
 21 44  1  0  0  0  0
 21 45  1  0  0  0  0
 22 46  1  0  0  0  0
M  END
> <s_m_source_file>
AV-unprocessed.smi

> <i_m_source_file_index>
2223

> <i_lp_mmshare_version>
43012

> <i_f3d_flags>
0

> <s_epik_input>
W0NIM11jMVtjSF1jKFtDSDNdKW5jKFtjSF0xKVtOSF1DKD1PKVtOSF1bQ0BASF0yW0NIMl1DKD1PKU4oW0NIMl0yKUMoW0NIM10pKFtDSDNdKVtDSDNd

> <s_epik_cmdline>
J2VwaWtfcHl0aG9uJywgJy1waCcsICc3LjAnLCAnLXRuJywgJzgnLCAnLW1hJywgJzIwMCcsICctbWV0YWxfYmluZGluZycsICctaW1hZScsICc8aW5maWxlLm1hZT4nLCAnLW9tYWUnLCAnPG91dGZpbGUubWFlPic=

> <r_lp_tautomer_probability>
1

> <r_epik_Ionization_Penalty>
0.000228403

> <r_epik_Ionization_Penalty_Charging>
0

> <r_epik_Ionization_Penalty_Neutral>
0.000228403

> <r_epik_State_Penalty>
-0

> <r_epik_Charging_Adjusted_Penalty>
0

> <i_epik_Tot_Q>
0

> <i_epik_Tot_abs_Q>
0

> <r_epik_Metal_State_Penalty>
-0

> <b_epik_Metal_Only>
0

> <s_lp_Force_Field>
OPLS_2005

> <r_lp_Energy>
26.8517

> <b_lp_Chiralities_Consistent>
1

> <s_lp_Variant>
AV-unprocessed.smi:2223-1

> <Gold.Version>
5.8.1

> <Gold.Id.Protein>
6NUR|6NUR_protein|mol2

> <Gold.PLP.Fitness>
41.7115

> <Gold.PLP.PLP>
-32.9314

> <Gold.PLP.part.hbond>
-3.0000

> <Gold.PLP.part.metal>
0.0000

> <Gold.PLP.part.buried>
-4.9809

> <Gold.PLP.part.nonpolar>
-25.2505

> <Gold.PLP.part.repulsive>
0.1806

> <Gold.PLP.ligand.clash>
0.0000

> <Gold.PLP.ligand.torsion>
0.1245

> <Gold.PLP.Chemscore.Hbond>
2.9920

> <Gold.PLP.Chemscore.CHOScore>
0.0000

> <Gold.PLP.Chemscore.Metal>
0.0000

> <Gold.Chemscore.Hbonds>
donor molecule, donor type, donor heavy atom, donor atom, acceptor molecule, acceptor atom, score
      L1  H     8    30       P1  7948  0.75
      L1  H    11    31       P1  7948  1.00

> <Gold.PLP.Chemscore.Internal.Correction>
0.0532

> <Gold.Rescore>
     Score         DG    S(hbond)    S(metal)    S(lipo)     H(rot)  DE(clash)    DE(int)     intcor
     17.69     -19.32       2.11        0.00      84.29       1.21       0.04       1.60       ----

> <Gold.Chemscore.Fitness>
17.6868

> <Gold.Chemscore.DG>
-19.3177

> <Gold.Chemscore.ZeroCoef>
-5.4800

> <Gold.Chemscore.Hbond>
2.1143

> <Gold.Chemscore.Metal>
0.0000

> <Gold.Chemscore.Lipo>
84.2903

> <Gold.Chemscore.Internal_Hbond>
0.0000

> <Gold.Chemscore.DEClash>
0.0353

> <Gold.Chemscore.DEInternal>
1.5956

> <Gold.Chemscore.Rot>
1.2055

> <Gold.Chemscore.Internal.Correction>
   9.000000E+99

> <Gold.Chemscore.Hbonds>
donor molecule, donor type, donor heavy atom, donor atom, acceptor molecule, acceptor atom, score
      L1  H     8    30       P1  7948  0.09
      L1  H    11    31       P1  7948  0.25

> <Gold.Chemscore.Hbond.Weighted>
-7.0618

> <Gold.Chemscore.Metal.Weighted>
-0.0000

> <Gold.Chemscore.Lipo.Weighted>
-9.8620

> <Gold.Chemscore.Internal_Hbond.Weighted>
0.0000

> <Gold.Chemscore.DEClash.Weighted>
0.0353

> <Gold.Chemscore.DEInternal.Weighted>
1.5956

> <Gold.Chemscore.Rot.Weighted>
3.0861

> <Gold.Chemscore.Internal.Correction.Weighted>
   9.000000E+99

> <Gold.Protein.RotatedTorsions>
[ 6907 6896 6895 6894 ] final  178.72 input  -60.11 | X-H torsion
[ 7974 7965 7964 7962 ] final  -46.59 input  175.53 | X-H torsion
[ 8008 7997 7996 7995 ] final   -0.43 input   59.86 | X-H torsion
[ 10167 10162 10161 10158 ] final   -9.76 input  -65.29 | X-H torsion
[ 10718 10713 10712 10709 ] final  141.66 input   66.30 | X-H torsion
[ 10763 10752 10751 10750 ] final -125.21 input  -60.55 | X-H torsion
[ 11005 11000 10999 10996 ] final  -36.61 input  -57.11 | X-H torsion

> <Gold.Protein.ActiveResidues>
 VAL166  LYS551  ARG553  GLY616  TRP617  ASP618  TYR619  PRO620  LYS621  CYS622 
 ASP623  PHE694  ASN695  SER759  ASP760  ASP761  ALA762  ILE779  LEU786  VAL792 
 PHE793  MET794  SER795  GLU796  ALA797  LYS798  CYS799  TRP800  GLU811  SER814 

> <Gold.Protein.RotatedAtoms>
  151.6833  133.3311  159.3224 H   0  0  0  0  0  0  0  0  0  0  0  0  # atno 6907 bound_to 6896
  150.7813  134.6762  159.6428 H   0  0  0  0  0  0  0  0  0  0  0  0  # atno 6908 bound_to 6896
  152.3871  134.6504  160.0173 H   0  0  0  0  0  0  0  0  0  0  0  0  # atno 6909 bound_to 6896
  145.9703  140.7389  142.9413 H   0  0  0  0  0  0  0  0  0  0  0  0  # atno 7974 bound_to 7965
  154.6581  140.2584  155.7139 H   0  0  0  0  0  0  0  0  0  0  0  0  # atno 8008 bound_to 7997
  156.2606  140.2854  156.0963 H   0  0  0  0  0  0  0  0  0  0  0  0  # atno 8009 bound_to 7997
  155.1349  140.0379  157.2774 H   0  0  0  0  0  0  0  0  0  0  0  0  # atno 8010 bound_to 7997
  140.7096  143.5822  150.8980 H   0  0  0  0  0  0  0  0  0  0  0  0  # atno 10167 bound_to 10162
  157.3895  131.1003  151.0660 H   0  0  0  0  0  0  0  0  0  0  0  0  # atno 10718 bound_to 10713
  154.8733  135.4037  154.3231 H   0  0  0  0  0  0  0  0  0  0  0  0  # atno 10763 bound_to 10752
  153.4056  135.7019  153.6400 H   0  0  0  0  0  0  0  0  0  0  0  0  # atno 10764 bound_to 10752
  153.5125  135.3704  155.2564 H   0  0  0  0  0  0  0  0  0  0  0  0  # atno 10765 bound_to 10752
  140.9888  133.7016  156.1813 H   0  0  0  0  0  0  0  0  0  0  0  0  # atno 11005 bound_to 11000
  144.6835  140.2738  143.7302 LP  0  0  0  0  0  0  0  0  0  0  0  0  # atno 17320 bound_to 7965
  145.7915  139.1929  143.2100 LP  0  0  0  0  0  0  0  0  0  0  0  0  # atno 17321 bound_to 7965
  139.9548  143.6230  152.3019 LP  0  0  0  0  0  0  0  0  0  0  0  0  # atno 17342 bound_to 10162
  139.6762  144.7658  151.1692 LP  0  0  0  0  0  0  0  0  0  0  0  0  # atno 17343 bound_to 10162
  157.1699  130.6263  149.5637 LP  0  0  0  0  0  0  0  0  0  0  0  0  # atno 17370 bound_to 10713
  155.9795  130.4788  150.6717 LP  0  0  0  0  0  0  0  0  0  0  0  0  # atno 17371 bound_to 10713
  140.7072  134.4500  157.5583 LP  0  0  0  0  0  0  0  0  0  0  0  0  # atno 17394 bound_to 11000
  139.8983  134.8617  156.2009 LP  0  0  0  0  0  0  0  0  0  0  0  0  # atno 17395 bound_to 11000

$$$$
