AV-unprocessed.smi:1762|AV-procd|sdf|7101|dock5
  -GOLD-   22720 8323D 1   1.00000     0.00000
 Structure written by MMmdl.
 52 53  0  0  0  0  0  0  0  0  1 V2000
  154.0672  131.9527  160.1335 C   0  0  0  0  0  0  0  0  0  0  0  0
  155.1974  132.8106  160.7133 C   0  0  2  0  0  0  0  0  0  0  0  0
  154.6640  134.0343  161.4804 C   0  0  0  0  0  0  0  0  0  0  0  0
  155.7414  134.9120  161.9667 N   0  0  0  0  0  0  0  0  0  0  0  0
  155.2752  136.0800  162.7658 C   0  0  1  0  0  0  0  0  0  0  0  0
  154.6606  137.2092  161.9049 C   0  0  0  0  0  0  0  0  0  0  0  0
  153.6315  137.0106  161.2579 O   0  0  0  0  0  0  0  0  0  0  0  0
  155.3109  138.3837  161.9003 N   0  0  0  0  0  0  0  0  0  0  0  0
  154.8888  139.5717  161.1685 C   0  0  0  0  0  0  0  0  0  0  0  0
  154.5642  140.7353  162.1205 C   0  0  0  0  0  0  0  0  0  0  0  0
  153.6635  141.7707  161.4744 C   0  0  0  0  0  0  0  0  0  0  0  0
  153.1014  142.8138  162.2405 C   0  0  0  0  0  0  0  0  0  0  0  0
  152.2645  143.7447  161.5952 C   0  0  0  0  0  0  0  0  0  0  0  0
  152.0225  143.5969  160.2159 C   0  0  0  0  0  0  0  0  0  0  0  0
  152.6298  142.5193  159.5408 C   0  0  0  0  0  0  0  0  0  0  0  0
  153.4328  141.6204  160.1504 N   0  0  0  0  0  0  0  0  0  0  0  0
  154.3274  135.7240  163.9610 C   0  0  0  0  0  0  0  0  0  0  0  0
  153.8995  136.9453  164.7985 C   0  0  0  0  0  0  0  0  0  0  0  0
  154.8780  134.6129  164.8787 C   0  0  0  0  0  0  0  0  0  0  0  0
  156.5756  135.2985  160.8216 C   0  0  0  0  0  0  0  0  0  0  0  0
  157.0981  134.0968  160.0088 C   0  0  1  0  0  0  0  0  0  0  0  0
  158.2242  133.3243  160.7185 C   0  0  0  0  0  0  0  0  0  0  0  0
  156.0195  133.2426  159.6346 O   0  0  0  0  0  0  0  0  0  0  0  0
  153.4128  131.5809  160.9222 H   0  0  0  0  0  0  0  0  0  0  0  0
  154.4674  131.0899  159.6005 H   0  0  0  0  0  0  0  0  0  0  0  0
  153.4571  132.5234  159.4329 H   0  0  0  0  0  0  0  0  0  0  0  0
  155.7831  132.1866  161.3890 H   0  0  0  0  0  0  0  0  0  0  0  0
  153.9866  134.6037  160.8416 H   0  0  0  0  0  0  0  0  0  0  0  0
  154.0628  133.6453  162.3010 H   0  0  0  0  0  0  0  0  0  0  0  0
  156.1669  136.5175  163.2203 H   0  0  0  0  0  0  0  0  0  0  0  0
  156.1521  138.4627  162.4532 H   0  0  0  0  0  0  0  0  0  0  0  0
  155.6964  139.8564  160.4936 H   0  0  0  0  0  0  0  0  0  0  0  0
  154.0270  139.3377  160.5412 H   0  0  0  0  0  0  0  0  0  0  0  0
  154.0819  140.3614  163.0248 H   0  0  0  0  0  0  0  0  0  0  0  0
  155.4861  141.2199  162.4456 H   0  0  0  0  0  0  0  0  0  0  0  0
  153.3038  142.8981  163.2983 H   0  0  0  0  0  0  0  0  0  0  0  0
  151.8153  144.5562  162.1483 H   0  0  0  0  0  0  0  0  0  0  0  0
  151.3866  144.2919  159.6878 H   0  0  0  0  0  0  0  0  0  0  0  0
  152.4650  142.3748  158.4834 H   0  0  0  0  0  0  0  0  0  0  0  0
  153.4189  135.2910  163.5457 H   0  0  0  0  0  0  0  0  0  0  0  0
  154.7429  137.3969  165.3204 H   0  0  0  0  0  0  0  0  0  0  0  0
  153.1664  136.6602  165.5534 H   0  0  0  0  0  0  0  0  0  0  0  0
  153.4405  137.7160  164.1791 H   0  0  0  0  0  0  0  0  0  0  0  0
  155.7341  134.9499  165.4641 H   0  0  0  0  0  0  0  0  0  0  0  0
  155.1882  133.7420  164.3011 H   0  0  0  0  0  0  0  0  0  0  0  0
  154.1171  134.2809  165.5855 H   0  0  0  0  0  0  0  0  0  0  0  0
  156.0041  135.9508  160.1590 H   0  0  0  0  0  0  0  0  0  0  0  0
  157.4440  135.8705  161.1411 H   0  0  0  0  0  0  0  0  0  0  0  0
  157.5170  134.4801  159.0781 H   0  0  0  0  0  0  0  0  0  0  0  0
  159.0909  133.9656  160.8805 H   0  0  0  0  0  0  0  0  0  0  0  0
  158.5506  132.4741  160.1195 H   0  0  0  0  0  0  0  0  0  0  0  0
  157.9136  132.9486  161.6933 H   0  0  0  0  0  0  0  0  0  0  0  0
  1  2  1  0  0  0  0
  1 24  1  0  0  0  0
  1 25  1  0  0  0  0
  1 26  1  0  0  0  0
  2 23  1  0  0  0  0
  2  3  1  0  0  0  0
  2 27  1  0  0  0  0
  3  4  1  0  0  0  0
  3 28  1  0  0  0  0
  3 29  1  0  0  0  0
  4  5  1  0  0  0  0
  4 20  1  0  0  0  0
  5  6  1  0  0  0  0
  5 17  1  0  0  0  0
  5 30  1  0  0  0  0
  6  7  2  0  0  0  0
  6  8  1  0  0  0  0
  8  9  1  0  0  0  0
  8 31  1  0  0  0  0
  9 10  1  0  0  0  0
  9 32  1  0  0  0  0
  9 33  1  0  0  0  0
 10 11  1  0  0  0  0
 10 34  1  0  0  0  0
 10 35  1  0  0  0  0
 11 16  1  0  0  0  0
 11 12  2  0  0  0  0
 12 13  1  0  0  0  0
 12 36  1  0  0  0  0
 13 14  2  0  0  0  0
 13 37  1  0  0  0  0
 14 15  1  0  0  0  0
 14 38  1  0  0  0  0
 15 16  2  0  0  0  0
 15 39  1  0  0  0  0
 17 18  1  0  0  0  0
 17 19  1  0  0  0  0
 17 40  1  0  0  0  0
 18 41  1  0  0  0  0
 18 42  1  0  0  0  0
 18 43  1  0  0  0  0
 19 44  1  0  0  0  0
 19 45  1  0  0  0  0
 19 46  1  0  0  0  0
 20 21  1  0  0  0  0
 20 47  1  0  0  0  0
 20 48  1  0  0  0  0
 21 22  1  0  0  0  0
 21 23  1  0  0  0  0
 21 49  1  0  0  0  0
 22 50  1  0  0  0  0
 22 51  1  0  0  0  0
 22 52  1  0  0  0  0
M  END
> <s_m_source_file>
AV-unprocessed.smi

> <i_m_source_file_index>
1762

> <i_lp_mmshare_version>
43012

> <i_f3d_flags>
0

> <s_epik_input>
W0NIM11bQ0BASF0xW0NIMl1OKFtDSDJdW0NASF0oTzEpW0NIM10pW0NAQEhdKFtDSF0oW0NIM10pW0NIM10pQyg9TylbTkhdW0NIMl1bQ0gyXWMyW2NIXVtjSF1bY0hdW2NIXW4y

> <s_epik_cmdline>
J2VwaWtfcHl0aG9uJywgJy1waCcsICc3LjAnLCAnLXRuJywgJzgnLCAnLW1hJywgJzIwMCcsICctbWV0YWxfYmluZGluZycsICctaW1hZScsICc8aW5maWxlLm1hZT4nLCAnLW9tYWUnLCAnPG91dGZpbGUubWFlPic=

> <r_epik_Ionization_Penalty>
0.0399736

> <r_epik_Ionization_Penalty_Charging>
0

> <r_epik_Ionization_Penalty_Neutral>
0.0399736

> <r_epik_State_Penalty>
0.0317634

> <r_epik_Charging_Adjusted_Penalty>
0.0317634

> <i_epik_Tot_Q>
0

> <i_epik_Tot_abs_Q>
0

> <r_epik_Metal_State_Penalty>
0.0307795

> <b_epik_Metal_Only>
0

> <s_lp_Force_Field>
OPLS_2005

> <r_lp_Energy>
29.8059

> <b_lp_Chiralities_Consistent>
1

> <s_lp_Variant>
AV-unprocessed.smi:1762-3

> <Gold.Version>
5.8.1

> <Gold.Id.Protein>
6NUR|6NUR_protein|mol2

> <Gold.PLP.Fitness>
39.9659

> <Gold.PLP.PLP>
-40.4876

> <Gold.PLP.part.hbond>
0.0000

> <Gold.PLP.part.metal>
0.0000

> <Gold.PLP.part.buried>
-4.1311

> <Gold.PLP.part.nonpolar>
-35.9029

> <Gold.PLP.part.repulsive>
0.0000

> <Gold.PLP.ligand.clash>
0.0000

> <Gold.PLP.ligand.torsion>
0.3850

> <Gold.PLP.Chemscore.Hbond>
0.0000

> <Gold.PLP.Chemscore.CHOScore>
0.0000

> <Gold.PLP.Chemscore.Metal>
0.0000

> <Gold.PLP.Chemscore.Internal.Correction>
0.2483

> <Gold.Rescore>
     Score         DG    S(hbond)    S(metal)    S(lipo)     H(rot)  DE(clash)    DE(int)     intcor
     14.92     -15.29       0.00        0.00     118.80       1.60       0.06       0.30       ----

> <Gold.Chemscore.Fitness>
14.9201

> <Gold.Chemscore.DG>
-15.2861

> <Gold.Chemscore.ZeroCoef>
-5.4800

> <Gold.Chemscore.Hbond>
0.0000

> <Gold.Chemscore.Metal>
0.0000

> <Gold.Chemscore.Lipo>
118.8050

> <Gold.Chemscore.Internal_Hbond>
0.0000

> <Gold.Chemscore.DEClash>
0.0611

> <Gold.Chemscore.DEInternal>
0.3049

> <Gold.Chemscore.Rot>
1.5993

> <Gold.Chemscore.Internal.Correction>
   9.000000E+99

> <Gold.Chemscore.Hbond.Weighted>
-0.0000

> <Gold.Chemscore.Metal.Weighted>
-0.0000

> <Gold.Chemscore.Lipo.Weighted>
-13.9002

> <Gold.Chemscore.Internal_Hbond.Weighted>
0.0000

> <Gold.Chemscore.DEClash.Weighted>
0.0611

> <Gold.Chemscore.DEInternal.Weighted>
0.3049

> <Gold.Chemscore.Rot.Weighted>
4.0941

> <Gold.Chemscore.Internal.Correction.Weighted>
   9.000000E+99

> <Gold.Protein.RotatedTorsions>
[ 6907 6896 6895 6894 ] final -152.28 input  -60.11 | X-H torsion
[ 7974 7965 7964 7962 ] final  167.31 input  175.53 | X-H torsion
[ 8008 7997 7996 7995 ] final   49.87 input   59.86 | X-H torsion
[ 10167 10162 10161 10158 ] final  117.15 input  -65.29 | X-H torsion
[ 10718 10713 10712 10709 ] final  116.79 input   66.30 | X-H torsion
[ 10763 10752 10751 10750 ] final   87.85 input  -60.55 | X-H torsion
[ 11005 11000 10999 10996 ] final  179.66 input  -57.11 | X-H torsion

> <Gold.Protein.ActiveResidues>
 VAL166  LYS551  ARG553  GLY616  TRP617  ASP618  TYR619  PRO620  LYS621  CYS622 
 ASP623  PHE694  ASN695  SER759  ASP760  ASP761  ALA762  ILE779  LEU786  VAL792 
 PHE793  MET794  SER795  GLU796  ALA797  LYS798  CYS799  TRP800  GLU811  SER814 

> <Gold.Protein.RotatedAtoms>
  151.2254  133.4479  159.2601 H   0  0  0  0  0  0  0  0  0  0  0  0  # atno 6907 bound_to 6896
  151.0845  134.9879  159.8382 H   0  0  0  0  0  0  0  0  0  0  0  0  # atno 6908 bound_to 6896
  152.5428  134.2191  159.8833 H   0  0  0  0  0  0  0  0  0  0  0  0  # atno 6909 bound_to 6896
  144.7429  139.8743  143.6391 H   0  0  0  0  0  0  0  0  0  0  0  0  # atno 7974 bound_to 7965
  155.4093  140.3441  155.4262 H   0  0  0  0  0  0  0  0  0  0  0  0  # atno 8008 bound_to 7997
  156.1458  140.1556  156.8881 H   0  0  0  0  0  0  0  0  0  0  0  0  # atno 8009 bound_to 7997
  154.5009  140.0815  156.7777 H   0  0  0  0  0  0  0  0  0  0  0  0  # atno 8010 bound_to 7997
  139.6198  144.7099  151.2659 H   0  0  0  0  0  0  0  0  0  0  0  0  # atno 10167 bound_to 10162
  157.6138  131.1029  150.7523 H   0  0  0  0  0  0  0  0  0  0  0  0  # atno 10718 bound_to 10713
  153.1710  135.4528  154.9902 H   0  0  0  0  0  0  0  0  0  0  0  0  # atno 10763 bound_to 10752
  154.7965  135.3239  154.7655 H   0  0  0  0  0  0  0  0  0  0  0  0  # atno 10764 bound_to 10752
  153.8132  135.6953  153.4892 H   0  0  0  0  0  0  0  0  0  0  0  0  # atno 10765 bound_to 10752
  140.4086  134.6712  157.4602 H   0  0  0  0  0  0  0  0  0  0  0  0  # atno 11005 bound_to 11000
  146.1257  139.4283  143.0200 LP  0  0  0  0  0  0  0  0  0  0  0  0  # atno 17320 bound_to 7965
  145.7238  141.0066  143.1388 LP  0  0  0  0  0  0  0  0  0  0  0  0  # atno 17321 bound_to 7965
  140.7375  143.6677  150.8109 LP  0  0  0  0  0  0  0  0  0  0  0  0  # atno 17342 bound_to 10162
  140.0286  143.5467  152.2770 LP  0  0  0  0  0  0  0  0  0  0  0  0  # atno 17343 bound_to 10162
  156.7895  130.4885  149.5387 LP  0  0  0  0  0  0  0  0  0  0  0  0  # atno 17370 bound_to 10713
  156.1251  130.6138  151.0252 LP  0  0  0  0  0  0  0  0  0  0  0  0  # atno 17371 bound_to 10713
  140.0284  134.6443  155.9141 LP  0  0  0  0  0  0  0  0  0  0  0  0  # atno 17394 bound_to 11000
  141.1829  133.6550  156.5097 LP  0  0  0  0  0  0  0  0  0  0  0  0  # atno 17395 bound_to 11000

$$$$
