AV-unprocessed.smi:1033|AV-procd|sdf|4494|dock5
  -GOLD-   22720 2483D 1   1.00000     0.00000
 Structure written by MMmdl.
 56 58  0  0  0  0  0  0  0  0  2 V2000
  153.1533  142.8617  161.7778 C   0  0  0  0  0  0  0  0  0  0  0  0
  152.5535  142.4301  160.4511 C   0  0  0  0  0  0  0  0  0  0  0  0
  152.5894  141.0640  160.0932 C   0  0  0  0  0  0  0  0  0  0  0  0
  152.0270  140.6190  158.8771 C   0  0  0  0  0  0  0  0  0  0  0  0
  151.9233  139.3438  158.3505 N   0  0  0  0  0  0  0  0  0  0  0  0
  151.2613  139.5733  157.2205 C   0  0  0  0  0  0  0  0  0  0  0  0
  150.9147  140.8476  156.9564 N   0  0  0  0  0  0  0  0  0  0  0  0
  150.1557  141.3198  155.8119 C   0  0  0  0  0  0  0  0  0  0  0  0
  149.9207  140.2099  154.7651 C   0  0  2  0  0  0  0  0  0  0  0  0
  150.0063  140.8093  153.4892 O   0  0  0  0  0  0  0  0  0  0  0  0
  148.5386  139.5219  154.8874 C   0  0  0  0  0  0  0  0  0  0  0  0
  147.3843  140.3364  154.4870 N   0  0  0  0  0  0  0  0  0  0  0  0
  147.0822  140.3030  153.0540 C   0  0  0  0  0  0  0  0  0  0  0  0
  146.5263  138.9487  152.5680 C   0  0  0  0  0  0  0  0  0  0  0  0
  145.3343  138.5292  153.3522 N   0  3  0  0  0  0  0  0  0  0  0  0
  144.8175  137.1899  152.9646 C   0  0  0  0  0  0  0  0  0  0  0  0
  143.3574  136.9330  153.3902 C   0  0  2  0  0  0  0  0  0  0  0  0
  142.8214  135.5731  152.9195 C   0  0  0  0  0  0  0  0  0  0  0  0
  142.5511  137.9430  152.8215 O   0  0  0  0  0  0  0  0  0  0  0  0
  145.6034  138.5997  154.8129 C   0  0  0  0  0  0  0  0  0  0  0  0
  146.1655  139.9799  155.2109 C   0  0  0  0  0  0  0  0  0  0  0  0
  151.4237  141.5860  158.0201 C   0  0  0  0  0  0  0  0  0  0  0  0
  151.4016  142.9517  158.3560 C   0  0  0  0  0  0  0  0  0  0  0  0
  151.9618  143.3779  159.5782 C   0  0  0  0  0  0  0  0  0  0  0  0
  151.9134  144.8512  159.9414 C   0  0  0  0  0  0  0  0  0  0  0  0
  153.5460  142.0097  162.3338 H   0  0  0  0  0  0  0  0  0  0  0  0
  152.3998  143.3468  162.3990 H   0  0  0  0  0  0  0  0  0  0  0  0
  153.9731  143.5621  161.6160 H   0  0  0  0  0  0  0  0  0  0  0  0
  153.0419  140.3415  160.7566 H   0  0  0  0  0  0  0  0  0  0  0  0
  150.9955  138.7658  156.5540 H   0  0  0  0  0  0  0  0  0  0  0  0
  149.2064  141.7286  156.1606 H   0  0  0  0  0  0  0  0  0  0  0  0
  150.7064  142.1494  155.3656 H   0  0  0  0  0  0  0  0  0  0  0  0
  150.7323  139.4856  154.8303 H   0  0  0  0  0  0  0  0  0  0  0  0
  149.9615  140.1292  152.8341 H   0  0  0  0  0  0  0  0  0  0  0  0
  148.5419  138.5972  154.3158 H   0  0  0  0  0  0  0  0  0  0  0  0
  148.4046  139.1947  155.9198 H   0  0  0  0  0  0  0  0  0  0  0  0
  146.3487  141.0795  152.8323 H   0  0  0  0  0  0  0  0  0  0  0  0
  147.9640  140.5634  152.4700 H   0  0  0  0  0  0  0  0  0  0  0  0
  146.2718  139.0419  151.5132 H   0  0  0  0  0  0  0  0  0  0  0  0
  147.2824  138.1744  152.6383 H   0  0  0  0  0  0  0  0  0  0  0  0
  144.9156  137.0732  151.8835 H   0  0  0  0  0  0  0  0  0  0  0  0
  145.4525  136.4243  153.4140 H   0  0  0  0  0  0  0  0  0  0  0  0
  143.2463  137.0185  154.4706 H   0  0  0  0  0  0  0  0  0  0  0  0
  143.3824  134.7511  153.3646 H   0  0  0  0  0  0  0  0  0  0  0  0
  142.8860  135.4726  151.8355 H   0  0  0  0  0  0  0  0  0  0  0  0
  141.7763  135.4447  153.2028 H   0  0  0  0  0  0  0  0  0  0  0  0
  143.1083  138.6458  152.5225 H   0  0  0  0  0  0  0  0  0  0  0  0
  144.6767  138.4185  155.3584 H   0  0  0  0  0  0  0  0  0  0  0  0
  146.2931  137.8054  155.1019 H   0  0  0  0  0  0  0  0  0  0  0  0
  146.3526  140.0063  156.2851 H   0  0  0  0  0  0  0  0  0  0  0  0
  145.4051  140.7398  155.0249 H   0  0  0  0  0  0  0  0  0  0  0  0
  150.9375  143.6622  157.6880 H   0  0  0  0  0  0  0  0  0  0  0  0
  151.4389  145.4395  159.1553 H   0  0  0  0  0  0  0  0  0  0  0  0
  152.9208  145.2415  160.0881 H   0  0  0  0  0  0  0  0  0  0  0  0
  151.3456  145.0004  160.8603 H   0  0  0  0  0  0  0  0  0  0  0  0
  144.6040  139.2002  153.1609 H   0  0  0  0  0  0  0  0  0  0  0  0
  1  2  1  0  0  0  0
  1 26  1  0  0  0  0
  1 27  1  0  0  0  0
  1 28  1  0  0  0  0
  2 24  1  0  0  0  0
  2  3  2  0  0  0  0
  3  4  1  0  0  0  0
  3 29  1  0  0  0  0
  4 22  2  0  0  0  0
  4  5  1  0  0  0  0
  5  6  2  0  0  0  0
  6  7  1  0  0  0  0
  6 30  1  0  0  0  0
  7  8  1  0  0  0  0
  7 22  1  0  0  0  0
  8  9  1  0  0  0  0
  8 31  1  0  0  0  0
  8 32  1  0  0  0  0
  9 10  1  0  0  0  0
  9 11  1  0  0  0  0
  9 33  1  0  0  0  0
 10 34  1  0  0  0  0
 11 12  1  0  0  0  0
 11 35  1  0  0  0  0
 11 36  1  0  0  0  0
 12 21  1  0  0  0  0
 12 13  1  0  0  0  0
 13 14  1  0  0  0  0
 13 37  1  0  0  0  0
 13 38  1  0  0  0  0
 14 15  1  0  0  0  0
 14 39  1  0  0  0  0
 14 40  1  0  0  0  0
 15 16  1  0  0  0  0
 15 20  1  0  0  0  0
 15 56  1  0  0  0  0
 16 17  1  0  0  0  0
 16 41  1  0  0  0  0
 16 42  1  0  0  0  0
 17 18  1  0  0  0  0
 17 19  1  0  0  0  0
 17 43  1  0  0  0  0
 18 44  1  0  0  0  0
 18 45  1  0  0  0  0
 18 46  1  0  0  0  0
 19 47  1  0  0  0  0
 20 21  1  0  0  0  0
 20 48  1  0  0  0  0
 20 49  1  0  0  0  0
 21 50  1  0  0  0  0
 21 51  1  0  0  0  0
 22 23  1  0  0  0  0
 23 24  2  0  0  0  0
 23 52  1  0  0  0  0
 24 25  1  0  0  0  0
 25 53  1  0  0  0  0
 25 54  1  0  0  0  0
 25 55  1  0  0  0  0
M  CHG  1  15   1
M  END
> <s_m_source_file>
AV-unprocessed.smi

> <i_m_source_file_index>
1033

> <i_lp_mmshare_version>
43012

> <i_f3d_flags>
0

> <s_epik_input>
W0NIM11jKFtjSF0xKWMoW0NIM10pW2NIXWMoYzEyKW4oW2NIXW4yKVtDSDJdW0NASF0oW09IXSlbQ0gyXU4zW0NIMl1bQ0gyXU4oW0NIMl1bQ0gyXTMpW0NIMl1bQ0BIXShbQ0gzXSlbT0hd

> <s_epik_cmdline>
J2VwaWtfcHl0aG9uJywgJy1waCcsICc3LjAnLCAnLXRuJywgJzgnLCAnLW1hJywgJzIwMCcsICctbWV0YWxfYmluZGluZycsICctaW1hZScsICc8aW5maWxlLm1hZT4nLCAnLW9tYWUnLCAnPG91dGZpbGUubWFlPic=

> <r_epik_Ionization_Penalty>
0.129152

> <r_epik_Ionization_Penalty_Charging>
0.00083231

> <r_epik_Ionization_Penalty_Neutral>
0.128319

> <r_epik_State_Penalty>
0.556973

> <r_epik_Charging_Adjusted_Penalty>
0.557805

> <i_epik_Tot_Q>
1

> <i_epik_Tot_abs_Q>
1

> <r_epik_Metal_State_Penalty>
0.490047

> <b_epik_Metal_Only>
0

> <s_lp_Force_Field>
OPLS_2005

> <r_lp_Energy>
33.6507

> <b_lp_Chiralities_Consistent>
1

> <s_lp_Variant>
AV-unprocessed.smi:1033-5

> <Gold.Version>
5.8.1

> <Gold.Id.Protein>
6NUR|6NUR_protein|mol2

> <Gold.PLP.Fitness>
59.2679

> <Gold.PLP.PLP>
-46.5805

> <Gold.PLP.part.hbond>
-3.9918

> <Gold.PLP.part.metal>
0.0000

> <Gold.PLP.part.buried>
-2.7145

> <Gold.PLP.part.nonpolar>
-39.3300

> <Gold.PLP.part.repulsive>
0.1022

> <Gold.PLP.ligand.clash>
0.0223

> <Gold.PLP.ligand.torsion>
1.0970

> <Gold.PLP.Chemscore.Hbond>
4.9294

> <Gold.PLP.Chemscore.CHOScore>
0.0000

> <Gold.PLP.Chemscore.Metal>
0.0000

> <Gold.Chemscore.Hbonds>
donor molecule, donor type, donor heavy atom, donor atom, acceptor molecule, acceptor atom, score
      L1  H    10    34       P1  7957  0.72
      L1  H    15    56       P1 10175  2.00
      L1  H    19    47       P1 10175  1.00
      P1  H  7989  7998       L1    10  0.20
      P1  H  8011  8017       L1    10  1.00

> <Gold.PLP.Chemscore.Internal.Correction>
0.1155

> <Gold.Rescore>
     Score         DG    S(hbond)    S(metal)    S(lipo)     H(rot)  DE(clash)    DE(int)     intcor
     21.15     -23.19       3.20        0.00     127.11       3.07       0.10       1.93       ----

> <Gold.Chemscore.Fitness>
21.1513

> <Gold.Chemscore.DG>
-23.1876

> <Gold.Chemscore.ZeroCoef>
-5.4800

> <Gold.Chemscore.Hbond>
3.1983

> <Gold.Chemscore.Metal>
0.0000

> <Gold.Chemscore.Lipo>
127.1100

> <Gold.Chemscore.Internal_Hbond>
0.0000

> <Gold.Chemscore.DEClash>
0.1041

> <Gold.Chemscore.DEInternal>
1.9323

> <Gold.Chemscore.Rot>
3.0650

> <Gold.Chemscore.Internal.Correction>
   9.000000E+99

> <Gold.Chemscore.Hbonds>
donor molecule, donor type, donor heavy atom, donor atom, acceptor molecule, acceptor atom, score
      L1  H    10    34       P1  7957  0.72
      L1  H    15    56       P1 10175  1.00
      L1  H    19    47       P1 10175  0.96
      P1  H  8011  8017       L1    10  0.24

> <Gold.Chemscore.Hbond.Weighted>
-10.6822

> <Gold.Chemscore.Metal.Weighted>
-0.0000

> <Gold.Chemscore.Lipo.Weighted>
-14.8719

> <Gold.Chemscore.Internal_Hbond.Weighted>
0.0000

> <Gold.Chemscore.DEClash.Weighted>
0.1041

> <Gold.Chemscore.DEInternal.Weighted>
1.9323

> <Gold.Chemscore.Rot.Weighted>
7.8465

> <Gold.Chemscore.Internal.Correction.Weighted>
   9.000000E+99

> <Gold.Protein.RotatedTorsions>
[ 6907 6896 6895 6894 ] final  -54.07 input  -60.11 | X-H torsion
[ 7974 7965 7964 7962 ] final  123.52 input  175.53 | X-H torsion
[ 8008 7997 7996 7995 ] final  123.12 input   59.86 | X-H torsion
[ 10167 10162 10161 10158 ] final -126.33 input  -65.29 | X-H torsion
[ 10718 10713 10712 10709 ] final  -56.31 input   66.30 | X-H torsion
[ 10763 10752 10751 10750 ] final   49.29 input  -60.55 | X-H torsion
[ 11005 11000 10999 10996 ] final -178.98 input  -57.11 | X-H torsion

> <Gold.Protein.ActiveResidues>
 VAL166  LYS551  ARG553  GLY616  TRP617  ASP618  TYR619  PRO620  LYS621  CYS622 
 ASP623  PHE694  ASN695  SER759  ASP760  ASP761  ALA762  ILE779  LEU786  VAL792 
 PHE793  MET794  SER795  GLU796  ALA797  LYS798  CYS799  TRP800  GLU811  SER814 

> <Gold.Protein.RotatedAtoms>
  150.8370  134.7648  159.6901 H   0  0  0  0  0  0  0  0  0  0  0  0  # atno 6907 bound_to 6896
  152.4465  134.5480  159.9868 H   0  0  0  0  0  0  0  0  0  0  0  0  # atno 6908 bound_to 6896
  151.5628  133.3363  159.3010 H   0  0  0  0  0  0  0  0  0  0  0  0  # atno 6909 bound_to 6896
  145.0949  139.3560  143.4841 H   0  0  0  0  0  0  0  0  0  0  0  0  # atno 7974 bound_to 7965
  156.2754  140.2770  156.1577 H   0  0  0  0  0  0  0  0  0  0  0  0  # atno 8008 bound_to 7997
  155.0786  140.0387  157.2650 H   0  0  0  0  0  0  0  0  0  0  0  0  # atno 8009 bound_to 7997
  154.6982  140.2643  155.6751 H   0  0  0  0  0  0  0  0  0  0  0  0  # atno 8010 bound_to 7997
  139.9726  143.5829  152.2407 H   0  0  0  0  0  0  0  0  0  0  0  0  # atno 10167 bound_to 10162
  156.1298  130.4160  150.0288 H   0  0  0  0  0  0  0  0  0  0  0  0  # atno 10718 bound_to 10713
  152.9787  135.5916  154.4066 H   0  0  0  0  0  0  0  0  0  0  0  0  # atno 10763 bound_to 10752
  154.3705  135.2767  155.2271 H   0  0  0  0  0  0  0  0  0  0  0  0  # atno 10764 bound_to 10752
  154.4228  135.6055  153.6075 H   0  0  0  0  0  0  0  0  0  0  0  0  # atno 10765 bound_to 10752
  140.4237  134.6582  157.4677 H   0  0  0  0  0  0  0  0  0  0  0  0  # atno 11005 bound_to 11000
  146.3531  140.0800  142.8618 LP  0  0  0  0  0  0  0  0  0  0  0  0  # atno 17320 bound_to 7965
  145.1022  140.9353  143.4706 LP  0  0  0  0  0  0  0  0  0  0  0  0  # atno 17321 bound_to 7965
  139.6470  144.7658  151.2224 LP  0  0  0  0  0  0  0  0  0  0  0  0  # atno 17342 bound_to 10162
  140.7517  143.6223  150.8501 LP  0  0  0  0  0  0  0  0  0  0  0  0  # atno 17343 bound_to 10162
  156.8204  130.9356  151.3641 LP  0  0  0  0  0  0  0  0  0  0  0  0  # atno 17370 bound_to 10713
  157.6477  130.8858  149.9571 LP  0  0  0  0  0  0  0  0  0  0  0  0  # atno 17371 bound_to 10713
  140.0182  134.6587  155.9278 LP  0  0  0  0  0  0  0  0  0  0  0  0  # atno 17394 bound_to 11000
  141.1774  133.6542  156.4881 LP  0  0  0  0  0  0  0  0  0  0  0  0  # atno 17395 bound_to 11000

$$$$
