AV-unprocessed.smi:3237|AV-procd|sdf|12373|dock1
  -GOLD-   2272018233D 1   1.00000     0.00000
 Structure written by MMmdl.
 36 38  0  0  0  0  0  0  0  0  3 V2000
  152.9599  142.2300  161.3537 C   0  0  0  0  0  0  0  0  0  0  0  0
  152.8081  141.4789  160.0753 C   0  0  0  0  0  0  0  0  0  0  0  0
  152.0037  141.6549  158.9850 C   0  0  0  0  0  0  0  0  0  0  0  0
  152.3797  140.5832  158.1318 C   0  0  0  0  0  0  0  0  0  0  0  0
  151.7578  140.4131  156.8668 N   0  0  0  0  0  0  0  0  0  0  0  0
  152.2090  139.7466  155.7885 C   0  0  0  0  0  0  0  0  0  0  0  0
  153.3056  139.1755  155.8196 O   0  0  0  0  0  0  0  0  0  0  0  0
  151.3312  139.7943  154.7482 N   0  5  0  0  0  0  0  0  0  0  0  0
  149.8981  139.5136  154.8542 C   0  0  2  0  0  0  0  0  0  0  0  0
  149.6427  138.0735  155.3006 C   0  0  0  0  0  0  0  0  0  0  0  0
  148.2563  137.7758  154.7320 C   0  0  0  0  0  0  0  0  0  0  0  0
  148.2162  138.4836  153.4353 N   0  3  1  0  0  0  0  0  0  0  0  0
  146.8569  138.8689  152.9983 C   0  0  0  0  0  0  0  0  0  0  0  0
  146.1283  137.7753  152.2549 C   0  0  0  0  0  0  0  0  0  0  0  0
  146.7075  138.9512  151.4982 C   0  0  0  0  0  0  0  0  0  0  0  0
  149.1825  139.6062  153.4940 C   0  0  0  0  0  0  0  0  0  0  0  0
  153.3286  139.8214  158.6562 N   0  0  0  0  0  0  0  0  0  0  0  0
  153.6085  140.3921  159.9034 O   0  0  0  0  0  0  0  0  0  0  0  0
  152.0099  142.6665  161.6619 H   0  0  0  0  0  0  0  0  0  0  0  0
  153.6834  143.0373  161.2419 H   0  0  0  0  0  0  0  0  0  0  0  0
  153.3046  141.5742  162.1534 H   0  0  0  0  0  0  0  0  0  0  0  0
  151.2658  142.4270  158.8250 H   0  0  0  0  0  0  0  0  0  0  0  0
  150.8551  140.8520  156.7628 H   0  0  0  0  0  0  0  0  0  0  0  0
  149.3927  140.1766  155.5583 H   0  0  0  0  0  0  0  0  0  0  0  0
  150.3710  137.3940  154.8536 H   0  0  0  0  0  0  0  0  0  0  0  0
  149.6898  137.9513  156.3831 H   0  0  0  0  0  0  0  0  0  0  0  0
  148.0840  136.7070  154.6015 H   0  0  0  0  0  0  0  0  0  0  0  0
  147.4754  138.1543  155.3973 H   0  0  0  0  0  0  0  0  0  0  0  0
  146.3153  139.5561  153.6459 H   0  0  0  0  0  0  0  0  0  0  0  0
  146.6224  136.8119  152.1424 H   0  0  0  0  0  0  0  0  0  0  0  0
  145.0459  137.7335  152.3582 H   0  0  0  0  0  0  0  0  0  0  0  0
  146.0070  139.6840  151.1030 H   0  0  0  0  0  0  0  0  0  0  0  0
  147.5870  138.7698  150.8829 H   0  0  0  0  0  0  0  0  0  0  0  0
  148.6940  140.5754  153.3818 H   0  0  0  0  0  0  0  0  0  0  0  0
  149.8744  139.4931  152.6581 H   0  0  0  0  0  0  0  0  0  0  0  0
  148.5859  137.8408  152.7499 H   0  0  0  0  0  0  0  0  0  0  0  0
  1  2  1  0  0  0  0
  1 19  1  0  0  0  0
  1 20  1  0  0  0  0
  1 21  1  0  0  0  0
  2 18  1  0  0  0  0
  2  3  2  0  0  0  0
  3  4  1  0  0  0  0
  3 22  1  0  0  0  0
  4  5  1  0  0  0  0
  4 17  2  0  0  0  0
  5  6  1  0  0  0  0
  5 23  1  0  0  0  0
  6  7  2  0  0  0  0
  6  8  1  0  0  0  0
  8  9  1  0  0  0  0
  9 16  1  0  0  0  0
  9 10  1  0  0  0  0
  9 24  1  0  0  0  0
 10 11  1  0  0  0  0
 10 25  1  0  0  0  0
 10 26  1  0  0  0  0
 11 12  1  0  0  0  0
 11 27  1  0  0  0  0
 11 28  1  0  0  0  0
 12 13  1  0  0  0  0
 12 16  1  0  0  0  0
 12 36  1  0  0  0  0
 13 15  1  0  0  0  0
 13 14  1  0  0  0  0
 13 29  1  0  0  0  0
 14 15  1  0  0  0  0
 14 30  1  0  0  0  0
 14 31  1  0  0  0  0
 15 32  1  0  0  0  0
 15 33  1  0  0  0  0
 16 34  1  0  0  0  0
 16 35  1  0  0  0  0
 17 18  1  0  0  0  0
M  CHG  1   8  -1
M  CHG  1  12   1
M  END
> <s_m_source_file>
AV-unprocessed.smi

> <i_m_source_file_index>
3237

> <i_lp_mmshare_version>
43012

> <i_f3d_flags>
0

> <s_epik_input>
W0NIM11jMVtjSF1jKG5vMSlbTkhdQyg9TylbTkhdW0NAQEhdMltDSDJdW0NIMl1OKFtDSDJdMilbQ0hdM1tDSDJdW0NIMl0z

> <s_epik_cmdline>
J2VwaWtfcHl0aG9uJywgJy1waCcsICc3LjAnLCAnLXRuJywgJzgnLCAnLW1hJywgJzIwMCcsICctbWV0YWxfYmluZGluZycsICctaW1hZScsICc8aW5maWxlLm1hZT4nLCAnLW9tYWUnLCAnPG91dGZpbGUubWFlPic=

> <r_epik_Ionization_Penalty>
6.76456

> <r_epik_Ionization_Penalty_Charging>
6.76456

> <r_epik_Ionization_Penalty_Neutral>
5.76722e-06

> <r_epik_State_Penalty>
6.78919

> <r_epik_Charging_Adjusted_Penalty>
13.5538

> <i_epik_Tot_Q>
0

> <i_epik_Tot_abs_Q>
2

> <r_epik_Metal_State_Penalty>
2.728

> <b_epik_Metal_Only>
1

> <s_lp_Force_Field>
OPLS_2005

> <r_lp_Energy>
30.8833

> <b_lp_Chiralities_Consistent>
1

> <s_lp_Variant>
AV-unprocessed.smi:3237-11

> <Gold.Version>
5.8.1

> <Gold.Id.Protein>
6NUR|6NUR_protein|mol2

> <Gold.PLP.Fitness>
43.4628

> <Gold.PLP.PLP>
-31.4365

> <Gold.PLP.part.hbond>
-4.5693

> <Gold.PLP.part.metal>
0.0000

> <Gold.PLP.part.buried>
2.4118

> <Gold.PLP.part.nonpolar>
-29.7364

> <Gold.PLP.part.repulsive>
0.2353

> <Gold.PLP.ligand.clash>
0.0000

> <Gold.PLP.ligand.torsion>
1.1517

> <Gold.PLP.Chemscore.Hbond>
4.3440

> <Gold.PLP.Chemscore.CHOScore>
0.0000

> <Gold.PLP.Chemscore.Metal>
0.0000

> <Gold.Chemscore.Hbonds>
donor molecule, donor type, donor heavy atom, donor atom, acceptor molecule, acceptor atom, score
      L1  H    12    36       P1  7948  2.00
      P1  H  7989  7998       L1     8  1.00
      P1  H  7997  8009       L1    17  0.71
      P1  H  7997  8010       L1     7  0.38

> <Gold.PLP.Chemscore.Internal.Correction>
1.2976

> <Gold.Rescore>
     Score         DG    S(hbond)    S(metal)    S(lipo)     H(rot)  DE(clash)    DE(int)     intcor
     16.62     -20.64       2.97        0.00      71.98       1.25       1.64       2.37       ----

> <Gold.Chemscore.Fitness>
16.6241

> <Gold.Chemscore.DG>
-20.6374

> <Gold.Chemscore.ZeroCoef>
-5.4800

> <Gold.Chemscore.Hbond>
2.9721

> <Gold.Chemscore.Metal>
0.0000

> <Gold.Chemscore.Lipo>
71.9780

> <Gold.Chemscore.Internal_Hbond>
0.0000

> <Gold.Chemscore.DEClash>
1.6408

> <Gold.Chemscore.DEInternal>
2.3725

> <Gold.Chemscore.Rot>
1.2464

> <Gold.Chemscore.Internal.Correction>
   9.000000E+99

> <Gold.Chemscore.Hbonds>
donor molecule, donor type, donor heavy atom, donor atom, acceptor molecule, acceptor atom, score
      L1  H    12    36       P1  7948  1.00
      P1  H  7989  7998       L1     8  0.75
      P1  H  7997  8009       L1    17  0.23
      P1  H  7997  8010       L1     7  0.34

> <Gold.Chemscore.Hbond.Weighted>
-9.9269

> <Gold.Chemscore.Metal.Weighted>
-0.0000

> <Gold.Chemscore.Lipo.Weighted>
-8.4214

> <Gold.Chemscore.Internal_Hbond.Weighted>
0.0000

> <Gold.Chemscore.DEClash.Weighted>
1.6408

> <Gold.Chemscore.DEInternal.Weighted>
2.3725

> <Gold.Chemscore.Rot.Weighted>
3.1909

> <Gold.Chemscore.Internal.Correction.Weighted>
   9.000000E+99

> <Gold.Protein.RotatedTorsions>
[ 6907 6896 6895 6894 ] final -147.60 input  -60.11 | X-H torsion
[ 7974 7965 7964 7962 ] final  -21.00 input  175.53 | X-H torsion
[ 8008 7997 7996 7995 ] final  129.38 input   59.86 | X-H torsion
[ 10167 10162 10161 10158 ] final -178.04 input  -65.29 | X-H torsion
[ 10718 10713 10712 10709 ] final  -19.58 input   66.30 | X-H torsion
[ 10763 10752 10751 10750 ] final   65.81 input  -60.55 | X-H torsion
[ 11005 11000 10999 10996 ] final  152.38 input  -57.11 | X-H torsion

> <Gold.Protein.ActiveResidues>
 VAL166  LYS551  ARG553  GLY616  TRP617  ASP618  TYR619  PRO620  LYS621  CYS622 
 ASP623  PHE694  ASN695  SER759  ASP760  ASP761  ALA762  ILE779  LEU786  VAL792 
 PHE793  MET794  SER795  GLU796  ALA797  LYS798  CYS799  TRP800  GLU811  SER814 

> <Gold.Protein.RotatedAtoms>
  151.1579  133.4864  159.2594 H   0  0  0  0  0  0  0  0  0  0  0  0  # atno 6907 bound_to 6896
  151.1485  135.0215  159.8667 H   0  0  0  0  0  0  0  0  0  0  0  0  # atno 6908 bound_to 6896
  152.5463  134.1466  159.8554 H   0  0  0  0  0  0  0  0  0  0  0  0  # atno 6909 bound_to 6896
  146.1757  140.4280  142.8514 H   0  0  0  0  0  0  0  0  0  0  0  0  # atno 7974 bound_to 7965
  156.2935  140.2622  156.2590 H   0  0  0  0  0  0  0  0  0  0  0  0  # atno 8008 bound_to 7997
  154.9808  140.0390  157.2295 H   0  0  0  0  0  0  0  0  0  0  0  0  # atno 8009 bound_to 7997
  154.7774  140.2789  155.6095 H   0  0  0  0  0  0  0  0  0  0  0  0  # atno 8010 bound_to 7997
  139.5451  144.2257  152.0972 H   0  0  0  0  0  0  0  0  0  0  0  0  # atno 10167 bound_to 10162
  156.5437  130.4684  149.6486 H   0  0  0  0  0  0  0  0  0  0  0  0  # atno 10718 bound_to 10713
  153.0112  135.5343  154.6725 H   0  0  0  0  0  0  0  0  0  0  0  0  # atno 10763 bound_to 10752
  154.5906  135.2858  155.0642 H   0  0  0  0  0  0  0  0  0  0  0  0  # atno 10764 bound_to 10752
  154.1736  135.6528  153.5068 H   0  0  0  0  0  0  0  0  0  0  0  0  # atno 10765 bound_to 10752
  140.1303  134.8806  157.2194 H   0  0  0  0  0  0  0  0  0  0  0  0  # atno 11005 bound_to 11000
  144.8233  140.6586  143.6339 LP  0  0  0  0  0  0  0  0  0  0  0  0  # atno 17320 bound_to 7965
  145.4218  139.1563  143.4070 LP  0  0  0  0  0  0  0  0  0  0  0  0  # atno 17321 bound_to 7965
  140.1742  144.4906  150.6563 LP  0  0  0  0  0  0  0  0  0  0  0  0  # atno 17342 bound_to 10162
  140.6696  143.2281  151.5657 LP  0  0  0  0  0  0  0  0  0  0  0  0  # atno 17343 bound_to 10162
  156.2948  130.7144  151.2002 LP  0  0  0  0  0  0  0  0  0  0  0  0  # atno 17370 bound_to 10713
  157.7400  131.0522  150.5191 LP  0  0  0  0  0  0  0  0  0  0  0  0  # atno 17371 bound_to 10713
  140.2851  134.3305  155.7331 LP  0  0  0  0  0  0  0  0  0  0  0  0  # atno 17394 bound_to 11000
  141.2169  133.7501  156.9421 LP  0  0  0  0  0  0  0  0  0  0  0  0  # atno 17395 bound_to 11000

$$$$
