AV-unprocessed.smi:1974|AV-procd|sdf|7981|dock3
  -GOLD-   2272010163D 1   1.00000     0.00000
 Structure written by MMmdl.
 34 35  0  0  0  0  0  0  0  0  1 V2000
  148.9500  140.3039  156.7701 C   0  0  0  0  0  0  0  0  0  0  0  0
  149.4441  141.5087  157.5857 C   0  0  1  0  0  0  0  0  0  0  0  0
  150.6637  142.1767  156.9218 C   0  0  0  0  0  0  0  0  0  0  0  0
  151.3711  143.0614  157.8310 N   0  0  0  0  0  0  0  0  0  0  0  0
  151.5533  144.4243  157.7285 C   0  0  0  0  0  0  0  0  0  0  0  0
  152.2876  144.8183  158.8102 C   0  0  0  0  0  0  0  0  0  0  0  0
  152.5091  143.6091  159.5271 C   0  0  0  0  0  0  0  0  0  0  0  0
  151.9589  142.5592  158.9388 N   0  0  0  0  0  0  0  0  0  0  0  0
  148.3627  142.4792  157.7419 N   0  0  0  0  0  0  0  0  0  0  0  0
  147.1285  142.2059  158.1904 C   0  0  0  0  0  0  0  0  0  0  0  0
  146.7682  141.0797  158.5357 O   0  0  0  0  0  0  0  0  0  0  0  0
  146.1677  143.3982  158.2793 C   0  0  0  0  0  0  0  0  0  0  0  0
  145.4498  143.4617  159.5539 N   0  0  0  0  0  0  0  0  0  0  0  0
  143.9945  143.3788  159.5574 C   0  0  0  0  0  0  0  0  0  0  0  0
  143.5412  143.1165  160.9951 C   0  0  0  0  0  0  0  0  0  0  0  0
  144.8504  143.6896  162.0956 S   0  0  0  0  0  0  0  0  0  0  0  0
  146.0701  143.6778  160.7779 C   0  0  0  0  0  0  0  0  0  0  0  0
  147.2695  143.8459  160.9918 O   0  0  0  0  0  0  0  0  0  0  0  0
  149.7378  139.5590  156.6550 H   0  0  0  0  0  0  0  0  0  0  0  0
  148.6280  140.6045  155.7724 H   0  0  0  0  0  0  0  0  0  0  0  0
  148.1066  139.8145  157.2588 H   0  0  0  0  0  0  0  0  0  0  0  0
  149.7513  141.1489  158.5697 H   0  0  0  0  0  0  0  0  0  0  0  0
  151.3683  141.4157  156.5839 H   0  0  0  0  0  0  0  0  0  0  0  0
  150.3637  142.7370  156.0345 H   0  0  0  0  0  0  0  0  0  0  0  0
  151.1518  144.9927  156.9024 H   0  0  0  0  0  0  0  0  0  0  0  0
  152.6168  145.8179  159.0523 H   0  0  0  0  0  0  0  0  0  0  0  0
  153.0495  143.4642  160.4510 H   0  0  0  0  0  0  0  0  0  0  0  0
  148.5742  143.4353  157.4951 H   0  0  0  0  0  0  0  0  0  0  0  0
  146.7413  144.3133  158.1284 H   0  0  0  0  0  0  0  0  0  0  0  0
  145.4445  143.3510  157.4630 H   0  0  0  0  0  0  0  0  0  0  0  0
  143.5953  144.3301  159.2030 H   0  0  0  0  0  0  0  0  0  0  0  0
  143.6350  142.5986  158.8853 H   0  0  0  0  0  0  0  0  0  0  0  0
  142.5925  143.6023  161.2238 H   0  0  0  0  0  0  0  0  0  0  0  0
  143.4139  142.0454  161.1552 H   0  0  0  0  0  0  0  0  0  0  0  0
  1  2  1  0  0  0  0
  1 19  1  0  0  0  0
  1 20  1  0  0  0  0
  1 21  1  0  0  0  0
  2  3  1  0  0  0  0
  2  9  1  0  0  0  0
  2 22  1  0  0  0  0
  3  4  1  0  0  0  0
  3 23  1  0  0  0  0
  3 24  1  0  0  0  0
  4  8  1  0  0  0  0
  4  5  1  0  0  0  0
  5  6  2  0  0  0  0
  5 25  1  0  0  0  0
  6  7  1  0  0  0  0
  6 26  1  0  0  0  0
  7  8  2  0  0  0  0
  7 27  1  0  0  0  0
  9 10  1  0  0  0  0
  9 28  1  0  0  0  0
 10 11  2  0  0  0  0
 10 12  1  0  0  0  0
 12 13  1  0  0  0  0
 12 29  1  0  0  0  0
 12 30  1  0  0  0  0
 13 17  1  0  0  0  0
 13 14  1  0  0  0  0
 14 15  1  0  0  0  0
 14 31  1  0  0  0  0
 14 32  1  0  0  0  0
 15 16  1  0  0  0  0
 15 33  1  0  0  0  0
 15 34  1  0  0  0  0
 16 17  1  0  0  0  0
 17 18  2  0  0  0  0
M  END
> <s_m_source_file>
AV-unprocessed.smi

> <i_m_source_file_index>
1974

> <i_lp_mmshare_version>
43012

> <i_f3d_flags>
0

> <s_epik_input>
bjFbY0hdW2NIXVtjSF1uMVtDSDJdW0NAQEhdKFtDSDNdKVtOSF1DKD1PKVtDSDJdTjJbQ0gyXVtDSDJdU0MyPU8=

> <s_epik_cmdline>
J2VwaWtfcHl0aG9uJywgJy1waCcsICc3LjAnLCAnLXRuJywgJzgnLCAnLW1hJywgJzIwMCcsICctbWV0YWxfYmluZGluZycsICctaW1hZScsICc8aW5maWxlLm1hZT4nLCAnLW9tYWUnLCAnPG91dGZpbGUubWFlPic=

> <r_lp_tautomer_probability>
1

> <r_epik_Ionization_Penalty>
0.000283364

> <r_epik_Ionization_Penalty_Charging>
0

> <r_epik_Ionization_Penalty_Neutral>
0.000283364

> <r_epik_State_Penalty>
-0

> <r_epik_Charging_Adjusted_Penalty>
0

> <i_epik_Tot_Q>
0

> <i_epik_Tot_abs_Q>
0

> <r_epik_Metal_State_Penalty>
-0

> <b_epik_Metal_Only>
0

> <s_lp_Force_Field>
OPLS_2005

> <r_lp_Energy>
3.37474

> <b_lp_Chiralities_Consistent>
1

> <s_lp_Variant>
AV-unprocessed.smi:1974-2

> <Gold.Version>
5.8.1

> <Gold.Id.Protein>
6NUR|6NUR_protein|mol2

> <Gold.PLP.Fitness>
42.0968

> <Gold.PLP.PLP>
-34.8036

> <Gold.PLP.part.hbond>
-2.8765

> <Gold.PLP.part.metal>
0.0000

> <Gold.PLP.part.buried>
-5.3667

> <Gold.PLP.part.nonpolar>
-27.2260

> <Gold.PLP.part.repulsive>
0.1785

> <Gold.PLP.ligand.clash>
0.0000

> <Gold.PLP.ligand.torsion>
0.3345

> <Gold.PLP.Chemscore.Hbond>
1.6396

> <Gold.PLP.Chemscore.CHOScore>
1.0000

> <Gold.PLP.Chemscore.Metal>
0.0000

> <Gold.Chemscore.Hbonds>
donor molecule, donor type, donor heavy atom, donor atom, acceptor molecule, acceptor atom, score
      L1  H     9    28       P1  8028  0.29
      P1  H  6933  6944       L1    18  1.00
      P1  H  6934  6946       L1    11  0.22
      L1  C     5    25       P1  8028  0.95

> <Gold.PLP.Chemscore.Internal.Correction>
0.0435

> <Gold.Rescore>
     Score         DG    S(hbond)    S(metal)    S(lipo)     H(rot)  DE(clash)    DE(int)     intcor
     12.65     -14.06       1.59        0.00      72.50       2.04       0.05       1.36       ----

> <Gold.Chemscore.Fitness>
12.6484

> <Gold.Chemscore.DG>
-14.0603

> <Gold.Chemscore.ZeroCoef>
-5.4800

> <Gold.Chemscore.Hbond>
1.5932

> <Gold.Chemscore.Metal>
0.0000

> <Gold.Chemscore.Lipo>
72.5027

> <Gold.Chemscore.Internal_Hbond>
0.0000

> <Gold.Chemscore.DEClash>
0.0503

> <Gold.Chemscore.DEInternal>
1.3616

> <Gold.Chemscore.Rot>
2.0405

> <Gold.Chemscore.Internal.Correction>
   9.000000E+99

> <Gold.Chemscore.Hbonds>
donor molecule, donor type, donor heavy atom, donor atom, acceptor molecule, acceptor atom, score
      L1  H     9    28       P1  8028  0.04
      P1  H  6933  6944       L1    18  0.97
      P1  H  6934  6946       L1    11  0.19

> <Gold.Chemscore.Hbond.Weighted>
-5.3212

> <Gold.Chemscore.Metal.Weighted>
-0.0000

> <Gold.Chemscore.Lipo.Weighted>
-8.4828

> <Gold.Chemscore.Internal_Hbond.Weighted>
0.0000

> <Gold.Chemscore.DEClash.Weighted>
0.0503

> <Gold.Chemscore.DEInternal.Weighted>
1.3616

> <Gold.Chemscore.Rot.Weighted>
5.2237

> <Gold.Chemscore.Internal.Correction.Weighted>
   9.000000E+99

> <Gold.Protein.RotatedTorsions>
[ 6907 6896 6895 6894 ] final   45.03 input  -60.11 | X-H torsion
[ 7974 7965 7964 7962 ] final  -63.58 input  175.53 | X-H torsion
[ 8008 7997 7996 7995 ] final  -57.64 input   59.86 | X-H torsion
[ 10167 10162 10161 10158 ] final  -49.28 input  -65.29 | X-H torsion
[ 10718 10713 10712 10709 ] final  -98.93 input   66.30 | X-H torsion
[ 10763 10752 10751 10750 ] final   89.83 input  -60.55 | X-H torsion
[ 11005 11000 10999 10996 ] final -139.72 input  -57.11 | X-H torsion

> <Gold.Protein.ActiveResidues>
 VAL166  LYS551  ARG553  GLY616  TRP617  ASP618  TYR619  PRO620  LYS621  CYS622 
 ASP623  PHE694  ASN695  SER759  ASP760  ASP761  ALA762  ILE779  LEU786  VAL792 
 PHE793  MET794  SER795  GLU796  ALA797  LYS798  CYS799  TRP800  GLU811  SER814 

> <Gold.Protein.RotatedAtoms>
  152.2396  134.8241  160.0461 H   0  0  0  0  0  0  0  0  0  0  0  0  # atno 6907 bound_to 6896
  151.8960  133.3522  159.3823 H   0  0  0  0  0  0  0  0  0  0  0  0  # atno 6908 bound_to 6896
  150.7050  134.4802  159.5511 H   0  0  0  0  0  0  0  0  0  0  0  0  # atno 6909 bound_to 6896
  145.7773  140.8781  143.0349 H   0  0  0  0  0  0  0  0  0  0  0  0  # atno 7974 bound_to 7965
  154.4276  140.1102  156.5829 H   0  0  0  0  0  0  0  0  0  0  0  0  # atno 8008 bound_to 7997
  155.6093  140.3494  155.4598 H   0  0  0  0  0  0  0  0  0  0  0  0  # atno 8009 bound_to 7997
  156.0112  140.1219  157.0441 H   0  0  0  0  0  0  0  0  0  0  0  0  # atno 8010 bound_to 7997
  140.6692  143.2704  151.4193 H   0  0  0  0  0  0  0  0  0  0  0  0  # atno 10167 bound_to 10162
  156.0120  130.5260  150.6595 H   0  0  0  0  0  0  0  0  0  0  0  0  # atno 10718 bound_to 10713
  153.1912  135.4456  155.0151 H   0  0  0  0  0  0  0  0  0  0  0  0  # atno 10763 bound_to 10752
  154.8091  135.3287  154.7355 H   0  0  0  0  0  0  0  0  0  0  0  0  # atno 10764 bound_to 10752
  153.7809  135.6977  153.4944 H   0  0  0  0  0  0  0  0  0  0  0  0  # atno 10765 bound_to 10752
  140.8492  134.2306  157.4769 H   0  0  0  0  0  0  0  0  0  0  0  0  # atno 11005 bound_to 11000
  144.6802  139.9939  143.7484 LP  0  0  0  0  0  0  0  0  0  0  0  0  # atno 17320 bound_to 7965
  146.0110  139.3169  143.0870 LP  0  0  0  0  0  0  0  0  0  0  0  0  # atno 17321 bound_to 7965
  139.5953  144.1410  152.2137 LP  0  0  0  0  0  0  0  0  0  0  0  0  # atno 17342 bound_to 10162
  140.0778  144.5726  150.7144 LP  0  0  0  0  0  0  0  0  0  0  0  0  # atno 17343 bound_to 10162
  157.4340  131.0853  151.1010 LP  0  0  0  0  0  0  0  0  0  0  0  0  # atno 17370 bound_to 10713
  157.1574  130.6211  149.5600 LP  0  0  0  0  0  0  0  0  0  0  0  0  # atno 17371 bound_to 10713
  139.8704  134.9675  156.4598 LP  0  0  0  0  0  0  0  0  0  0  0  0  # atno 17394 bound_to 11000
  140.8809  133.7919  155.9465 LP  0  0  0  0  0  0  0  0  0  0  0  0  # atno 17395 bound_to 11000

$$$$
