AV-unprocessed.smi:1242|AV-procd|sdf|5216|dock3
  -GOLD-   22720 4313D 1   1.00000     0.00000
 Structure written by MMmdl.
 39 40  0  0  0  0  0  0  0  0  1 V2000
  152.8299  139.8173  155.8278 O   0  0  0  0  0  0  0  0  0  0  0  0
  152.4229  139.3949  156.9112 C   0  0  0  0  0  0  0  0  0  0  0  0
  153.3996  138.9141  157.9943 C   0  0  0  0  0  0  0  0  0  0  0  0
  153.5117  139.8303  159.1419 N   0  0  0  0  0  0  0  0  0  0  0  0
  152.8589  141.0741  159.0350 C   0  0  0  0  0  0  0  0  0  0  0  0
  152.8770  141.9985  160.0142 C   0  0  0  0  0  0  0  0  0  0  0  0
  152.2082  143.3536  159.8437 C   0  0  0  0  0  0  0  0  0  0  0  0
  152.3052  144.0823  160.9562 F   0  0  0  0  0  0  0  0  0  0  0  0
  152.7644  144.0396  158.8445 F   0  0  0  0  0  0  0  0  0  0  0  0
  150.9157  143.1899  159.5647 F   0  0  0  0  0  0  0  0  0  0  0  0
  153.6408  141.6660  161.2010 C   0  0  0  0  0  0  0  0  0  0  0  0
  154.2756  140.4831  161.3174 C   0  0  0  0  0  0  0  0  0  0  0  0
  154.2278  139.4791  160.2522 C   0  0  0  0  0  0  0  0  0  0  0  0
  154.7967  138.3915  160.3507 O   0  0  0  0  0  0  0  0  0  0  0  0
  151.1215  139.3144  157.2276 N   0  0  0  0  0  0  0  0  0  0  0  0
  150.0031  139.7039  156.3686 C   0  0  2  0  0  0  0  0  0  0  0  0
  149.9916  138.8533  155.0711 C   0  0  0  0  0  0  0  0  0  0  0  0
  149.3479  139.5088  153.8311 C   0  0  0  0  0  0  0  0  0  0  0  0
  147.9025  140.0120  154.0191 C   0  0  0  0  0  0  0  0  0  0  0  0
  147.6531  140.9723  155.2056 C   0  0  0  0  0  0  0  0  0  0  0  0
  148.8284  141.7433  155.6080 N   0  0  0  0  0  0  0  0  0  0  0  0
  149.9395  141.2310  156.1648 C   0  0  0  0  0  0  0  0  0  0  0  0
  150.8855  141.9497  156.4853 O   0  0  0  0  0  0  0  0  0  0  0  0
  153.0924  137.9231  158.3339 H   0  0  0  0  0  0  0  0  0  0  0  0
  154.3751  138.7637  157.5297 H   0  0  0  0  0  0  0  0  0  0  0  0
  152.3371  141.2299  158.1018 H   0  0  0  0  0  0  0  0  0  0  0  0
  153.7024  142.3752  162.0133 H   0  0  0  0  0  0  0  0  0  0  0  0
  154.8335  140.2686  162.2170 H   0  0  0  0  0  0  0  0  0  0  0  0
  150.8786  138.9453  158.1358 H   0  0  0  0  0  0  0  0  0  0  0  0
  149.0974  139.4594  156.9251 H   0  0  0  0  0  0  0  0  0  0  0  0
  151.0163  138.5917  154.8027 H   0  0  0  0  0  0  0  0  0  0  0  0
  149.4932  137.9049  155.2759 H   0  0  0  0  0  0  0  0  0  0  0  0
  149.9756  140.3346  153.4930 H   0  0  0  0  0  0  0  0  0  0  0  0
  149.3630  138.7911  153.0103 H   0  0  0  0  0  0  0  0  0  0  0  0
  147.6104  140.5201  153.0995 H   0  0  0  0  0  0  0  0  0  0  0  0
  147.2281  139.1598  154.1076 H   0  0  0  0  0  0  0  0  0  0  0  0
  146.8558  141.6694  154.9470 H   0  0  0  0  0  0  0  0  0  0  0  0
  147.2782  140.4155  156.0650 H   0  0  0  0  0  0  0  0  0  0  0  0
  148.7916  142.7420  155.4623 H   0  0  0  0  0  0  0  0  0  0  0  0
  1  2  2  0  0  0  0
  2  3  1  0  0  0  0
  2 15  1  0  0  0  0
  3  4  1  0  0  0  0
  3 24  1  0  0  0  0
  3 25  1  0  0  0  0
  4 13  1  0  0  0  0
  4  5  1  0  0  0  0
  5  6  2  0  0  0  0
  5 26  1  0  0  0  0
  6  7  1  0  0  0  0
  6 11  1  0  0  0  0
  7  8  1  0  0  0  0
  7  9  1  0  0  0  0
  7 10  1  0  0  0  0
 11 12  2  0  0  0  0
 11 27  1  0  0  0  0
 12 13  1  0  0  0  0
 12 28  1  0  0  0  0
 13 14  2  0  0  0  0
 15 16  1  0  0  0  0
 15 29  1  0  0  0  0
 16 22  1  0  0  0  0
 16 17  1  0  0  0  0
 16 30  1  0  0  0  0
 17 18  1  0  0  0  0
 17 31  1  0  0  0  0
 17 32  1  0  0  0  0
 18 19  1  0  0  0  0
 18 33  1  0  0  0  0
 18 34  1  0  0  0  0
 19 20  1  0  0  0  0
 19 35  1  0  0  0  0
 19 36  1  0  0  0  0
 20 21  1  0  0  0  0
 20 37  1  0  0  0  0
 20 38  1  0  0  0  0
 21 22  1  0  0  0  0
 21 39  1  0  0  0  0
 22 23  2  0  0  0  0
M  END
> <s_m_source_file>
AV-unprocessed.smi

> <i_m_source_file_index>
1242

> <i_lp_mmshare_version>
43012

> <i_f3d_flags>
0

> <s_epik_input>
Tz1jMVtjSF1bY0hdYyhDKEYpKEYpRilbY0hdbjFbQ0gyXUMoPU8pW05IXVtDQEBIXTJbQ0gyXVtDSDJdW0NIMl1bQ0gyXVtOSF1DMj1P

> <s_epik_cmdline>
J2VwaWtfcHl0aG9uJywgJy1waCcsICc3LjAnLCAnLXRuJywgJzgnLCAnLW1hJywgJzIwMCcsICctbWV0YWxfYmluZGluZycsICctaW1hZScsICc8aW5maWxlLm1hZT4nLCAnLW9tYWUnLCAnPG91dGZpbGUubWFlPic=

> <r_lp_tautomer_probability>
1

> <r_epik_Ionization_Penalty>
6.92876e-08

> <r_epik_Ionization_Penalty_Charging>
1.59659e-08

> <r_epik_Ionization_Penalty_Neutral>
5.33217e-08

> <r_epik_State_Penalty>
-0

> <r_epik_Charging_Adjusted_Penalty>
1.59659e-08

> <i_epik_Tot_Q>
0

> <i_epik_Tot_abs_Q>
0

> <r_epik_Metal_State_Penalty>
-0

> <b_epik_Metal_Only>
0

> <s_lp_Force_Field>
OPLS_2005

> <r_lp_Energy>
26.9049

> <b_lp_Chiralities_Consistent>
1

> <s_lp_Variant>
AV-unprocessed.smi:1242-1

> <Gold.Version>
5.8.1

> <Gold.Id.Protein>
6NUR|6NUR_protein|mol2

> <Gold.PLP.Fitness>
52.5173

> <Gold.PLP.PLP>
-48.0283

> <Gold.PLP.part.hbond>
-2.0000

> <Gold.PLP.part.metal>
0.0000

> <Gold.PLP.part.buried>
-5.0741

> <Gold.PLP.part.nonpolar>
-41.8907

> <Gold.PLP.part.repulsive>
0.3051

> <Gold.PLP.ligand.clash>
0.2800

> <Gold.PLP.ligand.torsion>
0.3006

> <Gold.PLP.Chemscore.Hbond>
1.7613

> <Gold.PLP.Chemscore.CHOScore>
0.0000

> <Gold.PLP.Chemscore.Metal>
0.0000

> <Gold.Chemscore.Hbonds>
donor molecule, donor type, donor heavy atom, donor atom, acceptor molecule, acceptor atom, score
      L1  H    21    39       P1  8028  1.00
      P1  H  7997  8010       L1     1  1.00

> <Gold.PLP.Chemscore.Internal.Correction>
0.0865

> <Gold.Rescore>
     Score         DG    S(hbond)    S(metal)    S(lipo)     H(rot)  DE(clash)    DE(int)     intcor
     14.95     -17.88       1.93        0.00      88.48       1.72       1.45       1.48       ----

> <Gold.Chemscore.Fitness>
14.9546

> <Gold.Chemscore.DG>
-17.8822

> <Gold.Chemscore.ZeroCoef>
-5.4800

> <Gold.Chemscore.Hbond>
1.9331

> <Gold.Chemscore.Metal>
0.0000

> <Gold.Chemscore.Lipo>
88.4783

> <Gold.Chemscore.Internal_Hbond>
0.0000

> <Gold.Chemscore.DEClash>
1.4482

> <Gold.Chemscore.DEInternal>
1.4794

> <Gold.Chemscore.Rot>
1.7212

> <Gold.Chemscore.Internal.Correction>
   9.000000E+99

> <Gold.Chemscore.Hbonds>
donor molecule, donor type, donor heavy atom, donor atom, acceptor molecule, acceptor atom, score
      L1  H    21    39       P1  8028  0.97
      P1  H  7997  8010       L1     1  0.49

> <Gold.Chemscore.Hbond.Weighted>
-6.4565

> <Gold.Chemscore.Metal.Weighted>
-0.0000

> <Gold.Chemscore.Lipo.Weighted>
-10.3520

> <Gold.Chemscore.Internal_Hbond.Weighted>
0.0000

> <Gold.Chemscore.DEClash.Weighted>
1.4482

> <Gold.Chemscore.DEInternal.Weighted>
1.4794

> <Gold.Chemscore.Rot.Weighted>
4.4062

> <Gold.Chemscore.Internal.Correction.Weighted>
   9.000000E+99

> <Gold.Protein.RotatedTorsions>
[ 6907 6896 6895 6894 ] final  127.73 input  -60.11 | X-H torsion
[ 7974 7965 7964 7962 ] final  179.23 input  175.53 | X-H torsion
[ 8008 7997 7996 7995 ] final   93.51 input   59.86 | X-H torsion
[ 10167 10162 10161 10158 ] final   19.64 input  -65.29 | X-H torsion
[ 10718 10713 10712 10709 ] final   -7.78 input   66.30 | X-H torsion
[ 10763 10752 10751 10750 ] final -110.61 input  -60.55 | X-H torsion
[ 11005 11000 10999 10996 ] final -113.72 input  -57.11 | X-H torsion

> <Gold.Protein.ActiveResidues>
 VAL166  LYS551  ARG553  GLY616  TRP617  ASP618  TYR619  PRO620  LYS621  CYS622 
 ASP623  PHE694  ASN695  SER759  ASP760  ASP761  ALA762  ILE779  LEU786  VAL792 
 PHE793  MET794  SER795  GLU796  ALA797  LYS798  CYS799  TRP800  GLU811  SER814 

> <Gold.Protein.RotatedAtoms>
  152.3785  133.6514  159.6142 H   0  0  0  0  0  0  0  0  0  0  0  0  # atno 6907 bound_to 6896
  150.7723  133.9152  159.3390 H   0  0  0  0  0  0  0  0  0  0  0  0  # atno 6908 bound_to 6896
  151.6962  135.0939  160.0294 H   0  0  0  0  0  0  0  0  0  0  0  0  # atno 6909 bound_to 6896
  144.7148  140.0516  143.6435 H   0  0  0  0  0  0  0  0  0  0  0  0  # atno 7974 bound_to 7965
  156.0476  140.3312  155.7314 H   0  0  0  0  0  0  0  0  0  0  0  0  # atno 8008 bound_to 7997
  155.5650  140.0622  157.2837 H   0  0  0  0  0  0  0  0  0  0  0  0  # atno 8009 bound_to 7997
  154.4421  140.1871  156.0809 H   0  0  0  0  0  0  0  0  0  0  0  0  # atno 8010 bound_to 7997
  140.5564  143.9417  150.6612 H   0  0  0  0  0  0  0  0  0  0  0  0  # atno 10167 bound_to 10162
  156.7122  130.5125  149.5889 H   0  0  0  0  0  0  0  0  0  0  0  0  # atno 10718 bound_to 10713
  154.8257  135.4557  154.0912 H   0  0  0  0  0  0  0  0  0  0  0  0  # atno 10763 bound_to 10752
  153.2228  135.6896  153.7986 H   0  0  0  0  0  0  0  0  0  0  0  0  # atno 10764 bound_to 10752
  153.7397  135.3314  155.3278 H   0  0  0  0  0  0  0  0  0  0  0  0  # atno 10765 bound_to 10752
  141.0597  133.9556  157.2690 H   0  0  0  0  0  0  0  0  0  0  0  0  # atno 11005 bound_to 11000
  145.9939  139.3037  143.0968 LP  0  0  0  0  0  0  0  0  0  0  0  0  # atno 17320 bound_to 7965
  145.8871  140.9327  143.0571 LP  0  0  0  0  0  0  0  0  0  0  0  0  # atno 17321 bound_to 7965
  140.2856  143.3359  152.1110 LP  0  0  0  0  0  0  0  0  0  0  0  0  # atno 17342 bound_to 10162
  139.5050  144.6786  151.6066 LP  0  0  0  0  0  0  0  0  0  0  0  0  # atno 17343 bound_to 10162
  156.1653  130.6401  151.0770 LP  0  0  0  0  0  0  0  0  0  0  0  0  # atno 17370 bound_to 10713
  157.6932  131.0803  150.7048 LP  0  0  0  0  0  0  0  0  0  0  0  0  # atno 17371 bound_to 10713
  139.9421  135.0189  156.8741 LP  0  0  0  0  0  0  0  0  0  0  0  0  # atno 17394 bound_to 11000
  140.5894  134.0276  155.7494 LP  0  0  0  0  0  0  0  0  0  0  0  0  # atno 17395 bound_to 11000

$$$$
