AV-unprocessed.smi:2405|AV-procd|sdf|9515|dock9
  -GOLD-   2272013143D 1   1.00000     0.00000
 Structure written by MMmdl.
 36 37  0  0  0  0  0  0  0  0  2 V2000
  146.3976  133.4832  150.7550 C   0  0  0  0  0  0  0  0  0  0  0  0
  145.0062  133.9459  151.1999 C   0  0  0  0  0  0  0  0  0  0  0  0
  145.0206  135.3206  151.7792 C   0  0  0  0  0  0  0  0  0  0  0  0
  145.9322  136.2438  151.4624 N   0  0  0  0  0  0  0  0  0  0  0  0
  145.7031  137.4688  152.0989 C   0  0  0  0  0  0  0  0  0  0  0  0
  146.6265  138.6264  151.8553 C   0  0  0  0  0  0  0  0  0  0  0  0
  147.3690  138.9820  153.1436 C   0  0  0  0  0  0  0  0  0  0  0  0
  146.9952  139.9352  153.8269 O   0  0  0  0  0  0  0  0  0  0  0  0
  148.4215  138.2107  153.4569 N   0  0  0  0  0  0  0  0  0  0  0  0
  149.2855  138.3961  154.6183 C   0  0  1  0  0  0  0  0  0  0  0  0
  150.3104  137.2505  154.7170 C   0  0  0  0  0  0  0  0  0  0  0  0
  151.6765  137.8770  154.4187 C   0  0  0  0  0  0  0  0  0  0  0  0
  151.5558  139.3333  154.8848 C   0  0  2  0  0  0  0  0  0  0  0  0
  151.8462  139.4437  156.3959 C   0  0  0  0  0  0  0  0  0  0  0  0
  152.9791  139.1224  156.8197 O   0  0  0  0  0  0  0  0  0  0  0  0
  150.9101  139.8644  157.1107 O   0  5  0  0  0  0  0  0  0  0  0  0
  150.1075  139.6978  154.5078 C   0  0  0  0  0  0  0  0  0  0  0  0
  144.5961  137.4563  152.9112 C   0  0  0  0  0  0  0  0  0  0  0  0
  143.7922  135.9112  152.8920 S   0  0  0  0  0  0  0  0  0  0  0  0
  146.3577  132.4777  150.3356 H   0  0  0  0  0  0  0  0  0  0  0  0
  147.0940  133.4676  151.5940 H   0  0  0  0  0  0  0  0  0  0  0  0
  146.8071  134.1466  149.9926 H   0  0  0  0  0  0  0  0  0  0  0  0
  144.3206  133.9314  150.3522 H   0  0  0  0  0  0  0  0  0  0  0  0
  144.6020  133.2545  151.9404 H   0  0  0  0  0  0  0  0  0  0  0  0
  147.3524  138.3817  151.0789 H   0  0  0  0  0  0  0  0  0  0  0  0
  146.0759  139.4979  151.4977 H   0  0  0  0  0  0  0  0  0  0  0  0
  148.6579  137.4544  152.8308 H   0  0  0  0  0  0  0  0  0  0  0  0
  148.6858  138.4078  155.5305 H   0  0  0  0  0  0  0  0  0  0  0  0
  150.3088  136.8545  155.7336 H   0  0  0  0  0  0  0  0  0  0  0  0
  150.0932  136.4150  154.0503 H   0  0  0  0  0  0  0  0  0  0  0  0
  152.4910  137.3306  154.8969 H   0  0  0  0  0  0  0  0  0  0  0  0
  151.8633  137.8569  153.3444 H   0  0  0  0  0  0  0  0  0  0  0  0
  152.2654  139.9737  154.3595 H   0  0  0  0  0  0  0  0  0  0  0  0
  150.1043  140.0617  153.4790 H   0  0  0  0  0  0  0  0  0  0  0  0
  149.6850  140.5020  155.1119 H   0  0  0  0  0  0  0  0  0  0  0  0
  144.2008  138.2643  153.5090 H   0  0  0  0  0  0  0  0  0  0  0  0
  1  2  1  0  0  0  0
  1 20  1  0  0  0  0
  1 21  1  0  0  0  0
  1 22  1  0  0  0  0
  2  3  1  0  0  0  0
  2 23  1  0  0  0  0
  2 24  1  0  0  0  0
  3 19  1  0  0  0  0
  3  4  2  0  0  0  0
  4  5  1  0  0  0  0
  5  6  1  0  0  0  0
  5 18  2  0  0  0  0
  6  7  1  0  0  0  0
  6 25  1  0  0  0  0
  6 26  1  0  0  0  0
  7  8  2  0  0  0  0
  7  9  1  0  0  0  0
  9 10  1  0  0  0  0
  9 27  1  0  0  0  0
 10 17  1  0  0  0  0
 10 11  1  0  0  0  0
 10 28  1  0  0  0  0
 11 12  1  0  0  0  0
 11 29  1  0  0  0  0
 11 30  1  0  0  0  0
 12 13  1  0  0  0  0
 12 31  1  0  0  0  0
 12 32  1  0  0  0  0
 13 14  1  0  0  0  0
 13 17  1  0  0  0  0
 13 33  1  0  0  0  0
 14 15  2  0  0  0  0
 14 16  1  0  0  0  0
 17 34  1  0  0  0  0
 17 35  1  0  0  0  0
 18 19  1  0  0  0  0
 18 36  1  0  0  0  0
M  CHG  1  16  -1
M  END
> <s_m_source_file>
AV-unprocessed.smi

> <i_m_source_file_index>
2405

> <i_lp_mmshare_version>
43012

> <i_f3d_flags>
0

> <s_epik_input>
W0NIM11bQ0gyXWMxbmMoW2NIXXMxKVtDSDJdQyg9TylbTkhdW0NAQEhdMltDSDJdW0NIMl1bQ0BIXShbQ0gyXTIpQyg9TylbT0hd

> <s_epik_cmdline>
J2VwaWtfcHl0aG9uJywgJy1waCcsICc3LjAnLCAnLXRuJywgJzgnLCAnLW1hJywgJzIwMCcsICctbWV0YWxfYmluZGluZycsICctaW1hZScsICc8aW5maWxlLm1hZT4nLCAnLW9tYWUnLCAnPG91dGZpbGUubWFlPic=

> <r_epik_Ionization_Penalty>
0.000544611

> <r_epik_Ionization_Penalty_Charging>
0.000481685

> <r_epik_Ionization_Penalty_Neutral>
6.29266e-05

> <r_epik_State_Penalty>
0.00029893

> <r_epik_Charging_Adjusted_Penalty>
0.000780614

> <i_epik_Tot_Q>
-1

> <i_epik_Tot_abs_Q>
1

> <r_epik_Metal_State_Penalty>
-0

> <b_epik_Metal_Only>
0

> <s_lp_Force_Field>
OPLS_2005

> <r_lp_Energy>
7.82971

> <b_lp_Chiralities_Consistent>
1

> <s_lp_Variant>
AV-unprocessed.smi:2405-4

> <Gold.Version>
5.8.1

> <Gold.Id.Protein>
6NUR|6NUR_protein|mol2

> <Gold.PLP.Fitness>
43.4990

> <Gold.PLP.PLP>
-33.4150

> <Gold.PLP.part.hbond>
-2.6269

> <Gold.PLP.part.metal>
0.0000

> <Gold.PLP.part.buried>
-0.1859

> <Gold.PLP.part.nonpolar>
-32.2446

> <Gold.PLP.part.repulsive>
0.9447

> <Gold.PLP.ligand.clash>
0.0000

> <Gold.PLP.ligand.torsion>
0.7042

> <Gold.PLP.Chemscore.Hbond>
3.0000

> <Gold.PLP.Chemscore.CHOScore>
0.8137

> <Gold.PLP.Chemscore.Metal>
0.0000

> <Gold.Chemscore.Hbonds>
donor molecule, donor type, donor heavy atom, donor atom, acceptor molecule, acceptor atom, score
      L1  H     9    27       P1  7948  1.00
      P1  H  7997  8010       L1    15  2.00
      L1  C    18    36       P1 10175  0.81

> <Gold.PLP.Chemscore.Internal.Correction>
0.0514

> <Gold.Rescore>
     Score         DG    S(hbond)    S(metal)    S(lipo)     H(rot)  DE(clash)    DE(int)     intcor
     14.85     -15.54       1.99        0.00      74.40       2.06       0.10       0.59       ----

> <Gold.Chemscore.Fitness>
14.8480

> <Gold.Chemscore.DG>
-15.5384

> <Gold.Chemscore.ZeroCoef>
-5.4800

> <Gold.Chemscore.Hbond>
1.9869

> <Gold.Chemscore.Metal>
0.0000

> <Gold.Chemscore.Lipo>
74.3982

> <Gold.Chemscore.Internal_Hbond>
0.0000

> <Gold.Chemscore.DEClash>
0.0964

> <Gold.Chemscore.DEInternal>
0.5940

> <Gold.Chemscore.Rot>
2.0635

> <Gold.Chemscore.Internal.Correction>
   9.000000E+99

> <Gold.Chemscore.Hbonds>
donor molecule, donor type, donor heavy atom, donor atom, acceptor molecule, acceptor atom, score
      L1  H     9    27       P1  7948  0.97
      P1  H  7997  8010       L1    15  0.99

> <Gold.Chemscore.Hbond.Weighted>
-6.6363

> <Gold.Chemscore.Metal.Weighted>
-0.0000

> <Gold.Chemscore.Lipo.Weighted>
-8.7046

> <Gold.Chemscore.Internal_Hbond.Weighted>
0.0000

> <Gold.Chemscore.DEClash.Weighted>
0.0964

> <Gold.Chemscore.DEInternal.Weighted>
0.5940

> <Gold.Chemscore.Rot.Weighted>
5.2825

> <Gold.Chemscore.Internal.Correction.Weighted>
   9.000000E+99

> <Gold.Protein.RotatedTorsions>
[ 6907 6896 6895 6894 ] final -104.22 input  -60.11 | X-H torsion
[ 7974 7965 7964 7962 ] final  173.02 input  175.53 | X-H torsion
[ 8008 7997 7996 7995 ] final   64.56 input   59.86 | X-H torsion
[ 10167 10162 10161 10158 ] final   44.74 input  -65.29 | X-H torsion
[ 10718 10713 10712 10709 ] final -117.33 input   66.30 | X-H torsion
[ 10763 10752 10751 10750 ] final   47.80 input  -60.55 | X-H torsion
[ 11005 11000 10999 10996 ] final   34.25 input  -57.11 | X-H torsion

> <Gold.Protein.ActiveResidues>
 VAL166  LYS551  ARG553  GLY616  TRP617  ASP618  TYR619  PRO620  LYS621  CYS622 
 ASP623  PHE694  ASN695  SER759  ASP760  ASP761  ALA762  ILE779  LEU786  VAL792 
 PHE793  MET794  SER795  GLU796  ALA797  LYS798  CYS799  TRP800  GLU811  SER814 

> <Gold.Protein.RotatedAtoms>
  150.7277  134.0311  159.3733 H   0  0  0  0  0  0  0  0  0  0  0  0  # atno 6907 bound_to 6896
  151.8280  135.0628  160.0442 H   0  0  0  0  0  0  0  0  0  0  0  0  # atno 6908 bound_to 6896
  152.2955  133.5567  159.5621 H   0  0  0  0  0  0  0  0  0  0  0  0  # atno 6909 bound_to 6896
  144.7253  139.9586  143.6434 H   0  0  0  0  0  0  0  0  0  0  0  0  # atno 7974 bound_to 7965
  155.6479  140.3497  155.4738 H   0  0  0  0  0  0  0  0  0  0  0  0  # atno 8008 bound_to 7997
  155.9872  140.1186  157.0695 H   0  0  0  0  0  0  0  0  0  0  0  0  # atno 8009 bound_to 7997
  154.4208  140.1126  156.5502 H   0  0  0  0  0  0  0  0  0  0  0  0  # atno 8010 bound_to 7997
  140.3312  144.2586  150.6168 H   0  0  0  0  0  0  0  0  0  0  0  0  # atno 10167 bound_to 10162
  156.1026  130.6185  150.9151 H   0  0  0  0  0  0  0  0  0  0  0  0  # atno 10718 bound_to 10713
  152.9797  135.5964  154.3822 H   0  0  0  0  0  0  0  0  0  0  0  0  # atno 10763 bound_to 10752
  154.3486  135.2767  155.2386 H   0  0  0  0  0  0  0  0  0  0  0  0  # atno 10764 bound_to 10752
  154.4436  135.6007  153.6200 H   0  0  0  0  0  0  0  0  0  0  0  0  # atno 10765 bound_to 10752
  140.2548  134.3261  155.7878 H   0  0  0  0  0  0  0  0  0  0  0  0  # atno 11005 bound_to 11000
  146.0655  139.3646  143.0555 LP  0  0  0  0  0  0  0  0  0  0  0  0  # atno 17320 bound_to 7965
  145.8037  140.9759  143.0985 LP  0  0  0  0  0  0  0  0  0  0  0  0  # atno 17321 bound_to 7965
  140.5395  143.2226  151.8107 LP  0  0  0  0  0  0  0  0  0  0  0  0  # atno 17342 bound_to 10162
  139.4856  144.4618  151.9532 LP  0  0  0  0  0  0  0  0  0  0  0  0  # atno 17343 bound_to 10162
  157.6199  131.0930  150.8642 LP  0  0  0  0  0  0  0  0  0  0  0  0  # atno 17370 bound_to 10713
  156.8767  130.5165  149.5293 LP  0  0  0  0  0  0  0  0  0  0  0  0  # atno 17371 bound_to 10713
  141.2197  133.7374  156.9094 LP  0  0  0  0  0  0  0  0  0  0  0  0  # atno 17394 bound_to 11000
  140.1522  134.9222  157.2608 LP  0  0  0  0  0  0  0  0  0  0  0  0  # atno 17395 bound_to 11000

$$$$
