AV-unprocessed.smi:1175|AV-procd|sdf|4951|dock1
  -GOLD-   22720 3543D 1   1.00000     0.00000
 Structure written by MMmdl.
 36 37  0  0  0  0  0  0  0  0  1 V2000
  150.0021  141.2600  158.0309 O   0  0  0  0  0  0  0  0  0  0  0  0
  150.7673  141.9345  157.3402 C   0  0  0  0  0  0  0  0  0  0  0  0
  151.3829  143.2317  157.8847 C   0  0  0  0  0  0  0  0  0  0  0  0
  151.9353  143.0906  159.2426 N   0  0  0  0  0  0  0  0  0  0  0  0
  152.7644  141.9778  159.4859 C   0  0  0  0  0  0  0  0  0  0  0  0
  153.3252  141.7297  160.6852 C   0  0  0  0  0  0  0  0  0  0  0  0
  154.2643  140.5532  160.9020 C   0  0  0  0  0  0  0  0  0  0  0  0
  154.6295  140.4599  162.1806 F   0  0  0  0  0  0  0  0  0  0  0  0
  153.6545  139.4187  160.5614 F   0  0  0  0  0  0  0  0  0  0  0  0
  155.3655  140.6716  160.1592 F   0  0  0  0  0  0  0  0  0  0  0  0
  153.0604  142.6958  161.7331 C   0  0  0  0  0  0  0  0  0  0  0  0
  152.2795  143.7717  161.5140 C   0  0  0  0  0  0  0  0  0  0  0  0
  151.6609  144.0171  160.2094 C   0  0  0  0  0  0  0  0  0  0  0  0
  150.9424  144.9946  159.9982 O   0  0  0  0  0  0  0  0  0  0  0  0
  151.1006  141.6112  156.0814 N   0  0  0  0  0  0  0  0  0  0  0  0
  150.6367  140.4318  155.3577 C   0  0  0  0  0  0  0  0  0  0  0  0
  149.1373  140.5189  155.0162 C   0  0  1  0  0  0  0  0  0  0  0  0
  148.7493  141.7898  154.2882 C   0  0  0  0  0  0  0  0  0  0  0  0
  147.3987  141.4154  153.6830 C   0  0  0  0  0  0  0  0  0  0  0  0
  147.4378  140.0060  153.4734 O   0  0  0  0  0  0  0  0  0  0  0  0
  148.6282  139.4625  154.0343 C   0  0  0  0  0  0  0  0  0  0  0  0
  152.1581  143.5799  157.1996 H   0  0  0  0  0  0  0  0  0  0  0  0
  150.6155  144.0069  157.8628 H   0  0  0  0  0  0  0  0  0  0  0  0
  152.9244  141.3411  158.6279 H   0  0  0  0  0  0  0  0  0  0  0  0
  153.4929  142.5535  162.7125 H   0  0  0  0  0  0  0  0  0  0  0  0
  152.1034  144.4704  162.3187 H   0  0  0  0  0  0  0  0  0  0  0  0
  151.7311  142.2265  155.5878 H   0  0  0  0  0  0  0  0  0  0  0  0
  151.2146  140.3638  154.4357 H   0  0  0  0  0  0  0  0  0  0  0  0
  150.8532  139.5208  155.9184 H   0  0  0  0  0  0  0  0  0  0  0  0
  148.5515  140.4556  155.9350 H   0  0  0  0  0  0  0  0  0  0  0  0
  148.6938  142.6601  154.9428 H   0  0  0  0  0  0  0  0  0  0  0  0
  149.4650  142.0062  153.4938 H   0  0  0  0  0  0  0  0  0  0  0  0
  146.5920  141.6385  154.3820 H   0  0  0  0  0  0  0  0  0  0  0  0
  147.1991  141.9504  152.7541 H   0  0  0  0  0  0  0  0  0  0  0  0
  149.3468  139.3053  153.2287 H   0  0  0  0  0  0  0  0  0  0  0  0
  148.4393  138.5006  154.5114 H   0  0  0  0  0  0  0  0  0  0  0  0
  1  2  2  0  0  0  0
  2  3  1  0  0  0  0
  2 15  1  0  0  0  0
  3  4  1  0  0  0  0
  3 22  1  0  0  0  0
  3 23  1  0  0  0  0
  4 13  1  0  0  0  0
  4  5  1  0  0  0  0
  5  6  2  0  0  0  0
  5 24  1  0  0  0  0
  6  7  1  0  0  0  0
  6 11  1  0  0  0  0
  7  8  1  0  0  0  0
  7  9  1  0  0  0  0
  7 10  1  0  0  0  0
 11 12  2  0  0  0  0
 11 25  1  0  0  0  0
 12 13  1  0  0  0  0
 12 26  1  0  0  0  0
 13 14  2  0  0  0  0
 15 16  1  0  0  0  0
 15 27  1  0  0  0  0
 16 17  1  0  0  0  0
 16 28  1  0  0  0  0
 16 29  1  0  0  0  0
 17 21  1  0  0  0  0
 17 18  1  0  0  0  0
 17 30  1  0  0  0  0
 18 19  1  0  0  0  0
 18 31  1  0  0  0  0
 18 32  1  0  0  0  0
 19 20  1  0  0  0  0
 19 33  1  0  0  0  0
 19 34  1  0  0  0  0
 20 21  1  0  0  0  0
 21 35  1  0  0  0  0
 21 36  1  0  0  0  0
M  END
> <s_m_source_file>
AV-unprocessed.smi

> <i_m_source_file_index>
1175

> <i_lp_mmshare_version>
43012

> <i_f3d_flags>
0

> <s_epik_input>
W0NIMl0xT1tDSDJdW0NIMl1bQ0BIXTFbQ0gyXVtOSF1DKD1PKVtDSDJdbjJbY0hdYyhDKEYpKEYpRilbY0hdW2NIXWMyPU8=

> <s_epik_cmdline>
J2VwaWtfcHl0aG9uJywgJy1waCcsICc3LjAnLCAnLXRuJywgJzgnLCAnLW1hJywgJzIwMCcsICctbWV0YWxfYmluZGluZycsICctaW1hZScsICc8aW5maWxlLm1hZT4nLCAnLW9tYWUnLCAnPG91dGZpbGUubWFlPic=

> <r_lp_tautomer_probability>
1

> <r_epik_Ionization_Penalty>
3.67963e-08

> <r_epik_Ionization_Penalty_Charging>
1.809e-08

> <r_epik_Ionization_Penalty_Neutral>
1.87063e-08

> <r_epik_State_Penalty>
-0

> <r_epik_Charging_Adjusted_Penalty>
1.809e-08

> <i_epik_Tot_Q>
0

> <i_epik_Tot_abs_Q>
0

> <r_epik_Metal_State_Penalty>
-0

> <b_epik_Metal_Only>
0

> <s_lp_Force_Field>
OPLS_2005

> <r_lp_Energy>
29.657

> <b_lp_Chiralities_Consistent>
1

> <s_lp_Variant>
AV-unprocessed.smi:1175-2

> <Gold.Version>
5.8.1

> <Gold.Id.Protein>
6NUR|6NUR_protein|mol2

> <Gold.PLP.Fitness>
47.2151

> <Gold.PLP.PLP>
-48.1423

> <Gold.PLP.part.hbond>
0.0000

> <Gold.PLP.part.metal>
0.0000

> <Gold.PLP.part.buried>
-2.7139

> <Gold.PLP.part.nonpolar>
-45.0514

> <Gold.PLP.part.repulsive>
0.5145

> <Gold.PLP.ligand.clash>
0.0000

> <Gold.PLP.ligand.torsion>
0.4978

> <Gold.PLP.Chemscore.Hbond>
0.0000

> <Gold.PLP.Chemscore.CHOScore>
0.0000

> <Gold.PLP.Chemscore.Metal>
0.0000

> <Gold.PLP.Chemscore.Internal.Correction>
0.0684

> <Gold.Rescore>
     Score         DG    S(hbond)    S(metal)    S(lipo)     H(rot)  DE(clash)    DE(int)     intcor
     11.58     -12.15       0.00        0.00      97.89       1.87       0.05       0.52       ----

> <Gold.Chemscore.Fitness>
11.5826

> <Gold.Chemscore.DG>
-12.1504

> <Gold.Chemscore.ZeroCoef>
-5.4800

> <Gold.Chemscore.Hbond>
0.0000

> <Gold.Chemscore.Metal>
0.0000

> <Gold.Chemscore.Lipo>
97.8857

> <Gold.Chemscore.Internal_Hbond>
0.0000

> <Gold.Chemscore.DEClash>
0.0460

> <Gold.Chemscore.DEInternal>
0.5218

> <Gold.Chemscore.Rot>
1.8681

> <Gold.Chemscore.Internal.Correction>
   9.000000E+99

> <Gold.Chemscore.Hbond.Weighted>
-0.0000

> <Gold.Chemscore.Metal.Weighted>
-0.0000

> <Gold.Chemscore.Lipo.Weighted>
-11.4526

> <Gold.Chemscore.Internal_Hbond.Weighted>
0.0000

> <Gold.Chemscore.DEClash.Weighted>
0.0460

> <Gold.Chemscore.DEInternal.Weighted>
0.5218

> <Gold.Chemscore.Rot.Weighted>
4.7822

> <Gold.Chemscore.Internal.Correction.Weighted>
   9.000000E+99

> <Gold.Protein.RotatedTorsions>
[ 6907 6896 6895 6894 ] final  150.19 input  -60.11 | X-H torsion
[ 7974 7965 7964 7962 ] final  146.06 input  175.53 | X-H torsion
[ 8008 7997 7996 7995 ] final  145.41 input   59.86 | X-H torsion
[ 10167 10162 10161 10158 ] final  -70.08 input  -65.29 | X-H torsion
[ 10718 10713 10712 10709 ] final  164.66 input   66.30 | X-H torsion
[ 10763 10752 10751 10750 ] final -121.71 input  -60.55 | X-H torsion
[ 11005 11000 10999 10996 ] final   -7.83 input  -57.11 | X-H torsion

> <Gold.Protein.ActiveResidues>
 VAL166  LYS551  ARG553  GLY616  TRP617  ASP618  TYR619  PRO620  LYS621  CYS622 
 ASP623  PHE694  ASN695  SER759  ASP760  ASP761  ALA762  ILE779  LEU786  VAL792 
 PHE793  MET794  SER795  GLU796  ALA797  LYS798  CYS799  TRP800  GLU811  SER814 

> <Gold.Protein.RotatedAtoms>
  152.1178  133.4336  159.4660 H   0  0  0  0  0  0  0  0  0  0  0  0  # atno 6907 bound_to 6896
  150.6870  134.2571  159.4543 H   0  0  0  0  0  0  0  0  0  0  0  0  # atno 6908 bound_to 6896
  152.0445  134.9691  160.0625 H   0  0  0  0  0  0  0  0  0  0  0  0  # atno 6909 bound_to 6896
  144.8702  139.5859  143.5890 H   0  0  0  0  0  0  0  0  0  0  0  0  # atno 7974 bound_to 7965
  156.2884  140.2210  156.5210 H   0  0  0  0  0  0  0  0  0  0  0  0  # atno 8008 bound_to 7997
  154.7529  140.0479  157.0930 H   0  0  0  0  0  0  0  0  0  0  0  0  # atno 8009 bound_to 7997
  155.0088  140.3110  155.4841 H   0  0  0  0  0  0  0  0  0  0  0  0  # atno 8010 bound_to 7997
  140.5380  143.2316  151.7141 H   0  0  0  0  0  0  0  0  0  0  0  0  # atno 10167 bound_to 10162
  157.0911  131.0418  151.2536 H   0  0  0  0  0  0  0  0  0  0  0  0  # atno 10718 bound_to 10713
  154.8674  135.4158  154.2663 H   0  0  0  0  0  0  0  0  0  0  0  0  # atno 10763 bound_to 10752
  153.3582  135.7002  153.6739 H   0  0  0  0  0  0  0  0  0  0  0  0  # atno 10764 bound_to 10752
  153.5651  135.3602  155.2787 H   0  0  0  0  0  0  0  0  0  0  0  0  # atno 10765 bound_to 10752
  140.7170  133.8861  155.8792 H   0  0  0  0  0  0  0  0  0  0  0  0  # atno 11005 bound_to 11000
  146.2924  139.7179  142.9151 LP  0  0  0  0  0  0  0  0  0  0  0  0  # atno 17320 bound_to 7965
  145.4145  141.0400  143.2998 LP  0  0  0  0  0  0  0  0  0  0  0  0  # atno 17321 bound_to 7965
  139.4978  144.4013  152.0179 LP  0  0  0  0  0  0  0  0  0  0  0  0  # atno 17342 bound_to 10162
  140.3119  144.3528  150.6031 LP  0  0  0  0  0  0  0  0  0  0  0  0  # atno 17343 bound_to 10162
  157.4720  130.7714  149.7332 LP  0  0  0  0  0  0  0  0  0  0  0  0  # atno 17370 bound_to 10713
  155.9898  130.3949  150.3058 LP  0  0  0  0  0  0  0  0  0  0  0  0  # atno 17371 bound_to 10713
  141.0036  134.1116  157.4292 LP  0  0  0  0  0  0  0  0  0  0  0  0  # atno 17394 bound_to 11000
  139.8857  135.0075  156.6454 LP  0  0  0  0  0  0  0  0  0  0  0  0  # atno 17395 bound_to 11000

$$$$
