AV-unprocessed.smi:2221|AV-procd|sdf|8982|dock9
  -GOLD-   2272012193D 1   1.00000     0.00000
 Structure written by MMmdl.
 53 54  0  0  0  0  0  0  0  0  2 V2000
  152.0564  145.9791  160.1874 C   0  0  0  0  0  0  0  0  0  0  0  0
  152.0470  144.5977  159.5672 C   0  0  0  0  0  0  0  0  0  0  0  0
  152.8209  143.5599  160.1201 C   0  0  0  0  0  0  0  0  0  0  0  0
  152.7770  142.2954  159.5013 C   0  0  0  0  0  0  0  0  0  0  0  0
  153.5808  141.1346  160.0483 C   0  0  0  0  0  0  0  0  0  0  0  0
  152.0286  142.0361  158.4080 N   0  0  0  0  0  0  0  0  0  0  0  0
  151.2804  143.0283  157.8651 C   0  0  0  0  0  0  0  0  0  0  0  0
  150.4627  142.8594  156.7162 N   0  0  0  0  0  0  0  0  0  0  0  0
  150.0905  141.7114  156.1230 C   0  0  0  0  0  0  0  0  0  0  0  0
  150.4085  140.5808  156.4939 O   0  0  0  0  0  0  0  0  0  0  0  0
  149.3168  141.9459  155.0532 N   0  0  0  0  0  0  0  0  0  0  0  0
  148.7522  140.9166  154.1894 C   0  0  0  0  0  0  0  0  0  0  0  0
  147.6715  140.1020  154.9273 C   0  0  0  0  0  0  0  0  0  0  0  0
  146.7079  139.4998  154.0062 N   0  0  0  0  0  0  0  0  0  0  0  0
  145.9172  138.5056  154.7373 C   0  0  0  0  0  0  0  0  0  0  0  0
  144.8198  137.9190  153.8325 C   0  0  0  0  0  0  0  0  0  0  0  0
  145.4444  137.2598  152.5867 C   0  0  0  0  0  0  0  0  0  0  0  0
  144.4536  136.6560  151.6487 N   0  3  0  0  0  0  0  0  0  0  0  0
  143.2497  136.0670  152.2842 C   0  0  0  0  0  0  0  0  0  0  0  0
  145.0712  135.7255  150.6762 C   0  0  0  0  0  0  0  0  0  0  0  0
  146.3613  138.2785  151.8883 C   0  0  0  0  0  0  0  0  0  0  0  0
  147.3894  138.8549  152.8780 C   0  0  0  0  0  0  0  0  0  0  0  0
  151.2679  144.3263  158.4238 C   0  0  0  0  0  0  0  0  0  0  0  0
  152.1296  145.9132  161.2734 H   0  0  0  0  0  0  0  0  0  0  0  0
  151.1441  146.5235  159.9422 H   0  0  0  0  0  0  0  0  0  0  0  0
  152.9080  146.5512  159.8194 H   0  0  0  0  0  0  0  0  0  0  0  0
  153.4308  143.7289  160.9954 H   0  0  0  0  0  0  0  0  0  0  0  0
  154.4056  141.4872  160.6682 H   0  0  0  0  0  0  0  0  0  0  0  0
  153.9995  140.5379  159.2369 H   0  0  0  0  0  0  0  0  0  0  0  0
  152.9452  140.4905  160.6561 H   0  0  0  0  0  0  0  0  0  0  0  0
  150.1239  143.7121  156.2962 H   0  0  0  0  0  0  0  0  0  0  0  0
  149.1033  142.9045  154.8191 H   0  0  0  0  0  0  0  0  0  0  0  0
  148.3406  141.3720  153.2866 H   0  0  0  0  0  0  0  0  0  0  0  0
  149.5764  140.2804  153.8703 H   0  0  0  0  0  0  0  0  0  0  0  0
  148.1247  139.3360  155.5588 H   0  0  0  0  0  0  0  0  0  0  0  0
  147.1379  140.7794  155.5959 H   0  0  0  0  0  0  0  0  0  0  0  0
  146.5648  137.7130  155.1159 H   0  0  0  0  0  0  0  0  0  0  0  0
  145.4476  138.9745  155.6029 H   0  0  0  0  0  0  0  0  0  0  0  0
  144.2340  137.1935  154.3969 H   0  0  0  0  0  0  0  0  0  0  0  0
  144.1375  138.7210  153.5494 H   0  0  0  0  0  0  0  0  0  0  0  0
  146.0920  136.4505  152.9287 H   0  0  0  0  0  0  0  0  0  0  0  0
  143.4932  135.1610  152.8400 H   0  0  0  0  0  0  0  0  0  0  0  0
  142.5178  135.7979  151.5219 H   0  0  0  0  0  0  0  0  0  0  0  0
  142.7642  136.7678  152.9623 H   0  0  0  0  0  0  0  0  0  0  0  0
  145.4675  134.8390  151.1725 H   0  0  0  0  0  0  0  0  0  0  0  0
  145.8852  136.2089  150.1347 H   0  0  0  0  0  0  0  0  0  0  0  0
  144.3366  135.4002  149.9389 H   0  0  0  0  0  0  0  0  0  0  0  0
  146.8818  137.8040  151.0560 H   0  0  0  0  0  0  0  0  0  0  0  0
  145.7831  139.0998  151.4653 H   0  0  0  0  0  0  0  0  0  0  0  0
  148.0112  139.5740  152.3471 H   0  0  0  0  0  0  0  0  0  0  0  0
  148.0519  138.0669  153.2398 H   0  0  0  0  0  0  0  0  0  0  0  0
  150.6671  145.1076  157.9806 H   0  0  0  0  0  0  0  0  0  0  0  0
  144.1168  137.4288  151.0922 H   0  0  0  0  0  0  0  0  0  0  0  0
  1  2  1  0  0  0  0
  1 24  1  0  0  0  0
  1 25  1  0  0  0  0
  1 26  1  0  0  0  0
  2 23  1  0  0  0  0
  2  3  2  0  0  0  0
  3  4  1  0  0  0  0
  3 27  1  0  0  0  0
  4  5  1  0  0  0  0
  4  6  2  0  0  0  0
  5 28  1  0  0  0  0
  5 29  1  0  0  0  0
  5 30  1  0  0  0  0
  6  7  1  0  0  0  0
  7  8  1  0  0  0  0
  7 23  2  0  0  0  0
  8  9  1  0  0  0  0
  8 31  1  0  0  0  0
  9 10  2  0  0  0  0
  9 11  1  0  0  0  0
 11 12  1  0  0  0  0
 11 32  1  0  0  0  0
 12 13  1  0  0  0  0
 12 33  1  0  0  0  0
 12 34  1  0  0  0  0
 13 14  1  0  0  0  0
 13 35  1  0  0  0  0
 13 36  1  0  0  0  0
 14 22  1  0  0  0  0
 14 15  1  0  0  0  0
 15 16  1  0  0  0  0
 15 37  1  0  0  0  0
 15 38  1  0  0  0  0
 16 17  1  0  0  0  0
 16 39  1  0  0  0  0
 16 40  1  0  0  0  0
 17 18  1  0  0  0  0
 17 21  1  0  0  0  0
 17 41  1  0  0  0  0
 18 19  1  0  0  0  0
 18 20  1  0  0  0  0
 18 53  1  0  0  0  0
 19 42  1  0  0  0  0
 19 43  1  0  0  0  0
 19 44  1  0  0  0  0
 20 45  1  0  0  0  0
 20 46  1  0  0  0  0
 20 47  1  0  0  0  0
 21 22  1  0  0  0  0
 21 48  1  0  0  0  0
 21 49  1  0  0  0  0
 22 50  1  0  0  0  0
 22 51  1  0  0  0  0
 23 52  1  0  0  0  0
M  CHG  1  18   1
M  END
> <s_m_source_file>
AV-unprocessed.smi

> <i_m_source_file_index>
2221

> <i_lp_mmshare_version>
43012

> <i_f3d_flags>
0

> <s_epik_input>
W0NIM11jMVtjSF1jKFtDSDNdKW5jKFtjSF0xKVtOSF1DKD1PKVtOSF1bQ0gyXVtDSDJdTjJbQ0gyXVtDSDJdW0NIXShOKFtDSDNdKVtDSDNdKVtDSDJdW0NIMl0y

> <s_epik_cmdline>
J2VwaWtfcHl0aG9uJywgJy1waCcsICc3LjAnLCAnLXRuJywgJzgnLCAnLW1hJywgJzIwMCcsICctbWV0YWxfYmluZGluZycsICctaW1hZScsICc8aW5maWxlLm1hZT4nLCAnLW9tYWUnLCAnPG91dGZpbGUubWFlPic=

> <r_epik_Ionization_Penalty>
0.929621

> <r_epik_Ionization_Penalty_Charging>
0.000679816

> <r_epik_Ionization_Penalty_Neutral>
0.928941

> <r_epik_State_Penalty>
1.01912

> <r_epik_Charging_Adjusted_Penalty>
1.0198

> <i_epik_Tot_Q>
1

> <i_epik_Tot_abs_Q>
1

> <r_epik_Metal_State_Penalty>
1.01908

> <b_epik_Metal_Only>
0

> <s_lp_Force_Field>
OPLS_2005

> <r_lp_Energy>
22.8604

> <b_lp_Chiralities_Consistent>
1

> <s_lp_Variant>
AV-unprocessed.smi:2221-3

> <Gold.Version>
5.8.1

> <Gold.Id.Protein>
6NUR|6NUR_protein|mol2

> <Gold.PLP.Fitness>
53.6498

> <Gold.PLP.PLP>
-46.1153

> <Gold.PLP.part.hbond>
-3.0000

> <Gold.PLP.part.metal>
0.0000

> <Gold.PLP.part.buried>
-3.0936

> <Gold.PLP.part.nonpolar>
-41.7227

> <Gold.PLP.part.repulsive>
0.4438

> <Gold.PLP.ligand.clash>
0.0000

> <Gold.PLP.ligand.torsion>
0.6448

> <Gold.PLP.Chemscore.Hbond>
2.9120

> <Gold.PLP.Chemscore.CHOScore>
0.0000

> <Gold.PLP.Chemscore.Metal>
0.0000

> <Gold.Chemscore.Hbonds>
donor molecule, donor type, donor heavy atom, donor atom, acceptor molecule, acceptor atom, score
      L1  H     8    31       P1  8028  1.00
      L1  H    11    32       P1  8028  0.85
      L1  H    18    53       P1 10171  1.00

> <Gold.PLP.Chemscore.Internal.Correction>
0.0880

> <Gold.Rescore>
     Score         DG    S(hbond)    S(metal)    S(lipo)     H(rot)  DE(clash)    DE(int)     intcor
     22.72     -24.64       2.93        0.00     115.97       1.64       0.19       1.72       ----

> <Gold.Chemscore.Fitness>
22.7231

> <Gold.Chemscore.DG>
-24.6387

> <Gold.Chemscore.ZeroCoef>
-5.4800

> <Gold.Chemscore.Hbond>
2.9297

> <Gold.Chemscore.Metal>
0.0000

> <Gold.Chemscore.Lipo>
115.9666

> <Gold.Chemscore.Internal_Hbond>
0.0000

> <Gold.Chemscore.DEClash>
0.1924

> <Gold.Chemscore.DEInternal>
1.7232

> <Gold.Chemscore.Rot>
1.6385

> <Gold.Chemscore.Internal.Correction>
   9.000000E+99

> <Gold.Chemscore.Hbonds>
donor molecule, donor type, donor heavy atom, donor atom, acceptor molecule, acceptor atom, score
      L1  H     8    31       P1  8028  0.98
      L1  H    11    32       P1  8028  0.82
      L1  H    18    53       P1 10171  1.00

> <Gold.Chemscore.Hbond.Weighted>
-9.7851

> <Gold.Chemscore.Metal.Weighted>
-0.0000

> <Gold.Chemscore.Lipo.Weighted>
-13.5681

> <Gold.Chemscore.Internal_Hbond.Weighted>
0.0000

> <Gold.Chemscore.DEClash.Weighted>
0.1924

> <Gold.Chemscore.DEInternal.Weighted>
1.7232

> <Gold.Chemscore.Rot.Weighted>
4.1945

> <Gold.Chemscore.Internal.Correction.Weighted>
   9.000000E+99

> <Gold.Protein.RotatedTorsions>
[ 6907 6896 6895 6894 ] final  175.79 input  -60.11 | X-H torsion
[ 7974 7965 7964 7962 ] final -111.78 input  175.53 | X-H torsion
[ 8008 7997 7996 7995 ] final  -44.91 input   59.86 | X-H torsion
[ 10167 10162 10161 10158 ] final   98.55 input  -65.29 | X-H torsion
[ 10718 10713 10712 10709 ] final   55.03 input   66.30 | X-H torsion
[ 10763 10752 10751 10750 ] final  127.15 input  -60.55 | X-H torsion
[ 11005 11000 10999 10996 ] final   48.51 input  -57.11 | X-H torsion

> <Gold.Protein.ActiveResidues>
 VAL166  LYS551  ARG553  GLY616  TRP617  ASP618  TYR619  PRO620  LYS621  CYS622 
 ASP623  PHE694  ASN695  SER759  ASP760  ASP761  ALA762  ILE779  LEU786  VAL792 
 PHE793  MET794  SER795  GLU796  ALA797  LYS798  CYS799  TRP800  GLU811  SER814 

> <Gold.Protein.RotatedAtoms>
  151.7306  133.3317  159.3338 H   0  0  0  0  0  0  0  0  0  0  0  0  # atno 6907 bound_to 6896
  150.7614  134.6367  159.6224 H   0  0  0  0  0  0  0  0  0  0  0  0  # atno 6908 bound_to 6896
  152.3594  134.6895  160.0263 H   0  0  0  0  0  0  0  0  0  0  0  0  # atno 6909 bound_to 6896
  145.1520  140.8834  143.3641 H   0  0  0  0  0  0  0  0  0  0  0  0  # atno 7974 bound_to 7965
  154.3999  140.1410  156.3761 H   0  0  0  0  0  0  0  0  0  0  0  0  # atno 8008 bound_to 7997
  155.8047  140.3475  155.5402 H   0  0  0  0  0  0  0  0  0  0  0  0  # atno 8009 bound_to 7997
  155.8448  140.0932  157.1702 H   0  0  0  0  0  0  0  0  0  0  0  0  # atno 8010 bound_to 7997
  139.7698  144.6926  151.0172 H   0  0  0  0  0  0  0  0  0  0  0  0  # atno 10167 bound_to 10162
  157.5309  130.8629  149.8686 H   0  0  0  0  0  0  0  0  0  0  0  0  # atno 10718 bound_to 10713
  153.7048  135.3277  155.3233 H   0  0  0  0  0  0  0  0  0  0  0  0  # atno 10763 bound_to 10752
  154.8402  135.4463  154.1374 H   0  0  0  0  0  0  0  0  0  0  0  0  # atno 10764 bound_to 10752
  153.2451  135.6975  153.7818 H   0  0  0  0  0  0  0  0  0  0  0  0  # atno 10765 bound_to 10752
  140.1184  134.4862  155.8618 H   0  0  0  0  0  0  0  0  0  0  0  0  # atno 11005 bound_to 11000
  145.0421  139.3251  143.5971 LP  0  0  0  0  0  0  0  0  0  0  0  0  # atno 17320 bound_to 7965
  146.3493  139.9798  142.8697 LP  0  0  0  0  0  0  0  0  0  0  0  0  # atno 17321 bound_to 7965
  140.7813  143.4601  151.0290 LP  0  0  0  0  0  0  0  0  0  0  0  0  # atno 17342 bound_to 10162
  139.8285  143.7723  152.3179 LP  0  0  0  0  0  0  0  0  0  0  0  0  # atno 17343 bound_to 10162
  156.0421  130.3736  150.1408 LP  0  0  0  0  0  0  0  0  0  0  0  0  # atno 17370 bound_to 10713
  156.9592  130.9799  151.3482 LP  0  0  0  0  0  0  0  0  0  0  0  0  # atno 17371 bound_to 10713
  141.2146  133.6752  156.6841 LP  0  0  0  0  0  0  0  0  0  0  0  0  # atno 17394 bound_to 11000
  140.2998  134.8173  157.4088 LP  0  0  0  0  0  0  0  0  0  0  0  0  # atno 17395 bound_to 11000

$$$$
