AV-unprocessed.smi:11|AV-procd|sdf|60|dock8
  -GOLD-   2262015183D 1   1.00000     0.00000
 Structure written by MMmdl.
 33 35  0  0  0  0  0  0  0  0  1 V2000
  147.9516  141.6053  154.2900 C   0  0  0  0  0  0  0  0  0  0  0  0
  149.2694  141.8459  155.0438 C   0  0  0  0  0  0  0  0  0  0  0  0
  150.1023  140.5727  155.3349 C   0  0  2  0  0  0  0  0  0  0  0  0
  150.3549  139.9013  154.1160 O   0  0  0  0  0  0  0  0  0  0  0  0
  149.3847  139.6336  156.3095 C   0  0  0  0  0  0  0  0  0  0  0  0
  149.7895  140.1573  157.6915 C   0  0  0  0  0  0  0  0  0  0  0  0
  151.0562  140.8615  157.5121 N   0  0  0  0  0  0  0  0  0  0  0  0
  151.1898  142.0557  158.2524 C   0  0  0  0  0  0  0  0  0  0  0  0
  150.4652  143.1495  157.9035 N   0  0  0  0  0  0  0  0  0  0  0  0
  150.6098  144.2693  158.6574 C   0  0  0  0  0  0  0  0  0  0  0  0
  151.4051  144.4480  159.7415 N   0  0  0  0  0  0  0  0  0  0  0  0
  152.1479  143.3607  160.1057 C   0  0  0  0  0  0  0  0  0  0  0  0
  153.0101  143.2571  161.1121 N   0  0  0  0  0  0  0  0  0  0  0  0
  153.4997  142.0061  161.0608 C   0  0  0  0  0  0  0  0  0  0  0  0
  152.9514  141.2193  159.9758 C   0  0  0  0  0  0  0  0  0  0  0  0
  152.0546  142.1531  159.3746 C   0  0  0  0  0  0  0  0  0  0  0  0
  151.4100  140.8378  156.0939 C   0  0  0  0  0  0  0  0  0  0  0  0
  147.4099  142.5422  154.1605 H   0  0  0  0  0  0  0  0  0  0  0  0
  147.2980  140.9221  154.8323 H   0  0  0  0  0  0  0  0  0  0  0  0
  148.1227  141.1919  153.2967 H   0  0  0  0  0  0  0  0  0  0  0  0
  149.8682  142.5560  154.4724 H   0  0  0  0  0  0  0  0  0  0  0  0
  149.0414  142.3451  155.9865 H   0  0  0  0  0  0  0  0  0  0  0  0
  150.5085  138.9879  154.3039 H   0  0  0  0  0  0  0  0  0  0  0  0
  148.3039  139.6003  156.1676 H   0  0  0  0  0  0  0  0  0  0  0  0
  149.7612  138.6156  156.1960 H   0  0  0  0  0  0  0  0  0  0  0  0
  149.0261  140.8396  158.0689 H   0  0  0  0  0  0  0  0  0  0  0  0
  149.8914  139.3399  158.4053 H   0  0  0  0  0  0  0  0  0  0  0  0
  150.0188  145.1217  158.3567 H   0  0  0  0  0  0  0  0  0  0  0  0
  154.2344  141.6617  161.7780 H   0  0  0  0  0  0  0  0  0  0  0  0
  153.1702  140.1963  159.6981 H   0  0  0  0  0  0  0  0  0  0  0  0
  152.0942  139.9991  155.9578 H   0  0  0  0  0  0  0  0  0  0  0  0
  151.9406  141.7179  155.7347 H   0  0  0  0  0  0  0  0  0  0  0  0
  151.4155  145.3432  160.2091 H   0  0  0  0  0  0  0  0  0  0  0  0
  1  2  1  0  0  0  0
  1 18  1  0  0  0  0
  1 19  1  0  0  0  0
  1 20  1  0  0  0  0
  2  3  1  0  0  0  0
  2 21  1  0  0  0  0
  2 22  1  0  0  0  0
  3 17  1  0  0  0  0
  3  4  1  0  0  0  0
  3  5  1  0  0  0  0
  4 23  1  0  0  0  0
  5  6  1  0  0  0  0
  5 24  1  0  0  0  0
  5 25  1  0  0  0  0
  6  7  1  0  0  0  0
  6 26  1  0  0  0  0
  6 27  1  0  0  0  0
  7  8  1  0  0  0  0
  7 17  1  0  0  0  0
  8 16  2  0  0  0  0
  8  9  1  0  0  0  0
  9 10  2  0  0  0  0
 10 11  1  0  0  0  0
 10 28  1  0  0  0  0
 11 12  1  0  0  0  0
 11 33  1  0  0  0  0
 12 16  1  0  0  0  0
 12 13  2  0  0  0  0
 13 14  1  0  0  0  0
 14 15  2  0  0  0  0
 14 29  1  0  0  0  0
 15 16  1  0  0  0  0
 15 30  1  0  0  0  0
 17 31  1  0  0  0  0
 17 32  1  0  0  0  0
M  END
> <s_m_source_file>
AV-unprocessed.smi

> <i_m_source_file_index>
11

> <i_lp_mmshare_version>
43012

> <i_f3d_flags>
0

> <s_epik_input>
W0NIM11bQ0gyXVtDQEBdMShbT0hdKVtDSDJdW0NIMl1OKFtDSDJdMSljKG5bY0hdbjIpYyhjMjMpW2NIXVtjSF1bbkhdMw==

> <s_epik_cmdline>
J2VwaWtfcHl0aG9uJywgJy1waCcsICc3LjAnLCAnLXRuJywgJzgnLCAnLW1hJywgJzIwMCcsICctbWV0YWxfYmluZGluZycsICctaW1hZScsICc8aW5maWxlLm1hZT4nLCAnLW9tYWUnLCAnPG91dGZpbGUubWFlPic=

> <r_lp_tautomer_probability>
1.75997e-05

> <r_epik_Ionization_Penalty>
5.31594

> <r_epik_Ionization_Penalty_Charging>
0

> <r_epik_Ionization_Penalty_Neutral>
5.31594

> <r_epik_State_Penalty>
7.79803

> <r_epik_Charging_Adjusted_Penalty>
7.79803

> <i_epik_Tot_Q>
0

> <i_epik_Tot_abs_Q>
0

> <r_epik_Metal_State_Penalty>
4.83511

> <b_epik_Metal_Only>
1

> <s_lp_Force_Field>
OPLS_2005

> <r_lp_Energy>
41.8975

> <b_lp_Chiralities_Consistent>
1

> <s_lp_Variant>
AV-unprocessed.smi:11-6

> <Gold.Version>
5.8.1

> <Gold.Id.Protein>
6NUR|6NUR_protein|mol2

> <Gold.PLP.Fitness>
37.9185

> <Gold.PLP.PLP>
-31.9281

> <Gold.PLP.part.hbond>
-1.9669

> <Gold.PLP.part.metal>
0.0000

> <Gold.PLP.part.buried>
-3.2904

> <Gold.PLP.part.nonpolar>
-27.5344

> <Gold.PLP.part.repulsive>
0.4425

> <Gold.PLP.ligand.clash>
0.0000

> <Gold.PLP.ligand.torsion>
0.1366

> <Gold.PLP.Chemscore.Hbond>
1.0000

> <Gold.PLP.Chemscore.CHOScore>
1.0289

> <Gold.PLP.Chemscore.Metal>
0.0000

> <Gold.Chemscore.Hbonds>
donor molecule, donor type, donor heavy atom, donor atom, acceptor molecule, acceptor atom, score
      P1  H  7989  7998       L1     4  1.00
      L1  C    10    28       P1  8028  0.01
      L1  C    10    28       P1  8029  1.00

> <Gold.PLP.Chemscore.Internal.Correction>
0.1767

> <Gold.Rescore>
     Score         DG    S(hbond)    S(metal)    S(lipo)     H(rot)  DE(clash)    DE(int)     intcor
     11.02     -11.33       0.94        0.00      63.18       1.83       0.15       0.16       ----

> <Gold.Chemscore.Fitness>
11.0173

> <Gold.Chemscore.DG>
-11.3266

> <Gold.Chemscore.ZeroCoef>
-5.4800

> <Gold.Chemscore.Hbond>
0.9371

> <Gold.Chemscore.Metal>
0.0000

> <Gold.Chemscore.Lipo>
63.1790

> <Gold.Chemscore.Internal_Hbond>
0.0000

> <Gold.Chemscore.DEClash>
0.1479

> <Gold.Chemscore.DEInternal>
0.1615

> <Gold.Chemscore.Rot>
1.8263

> <Gold.Chemscore.Internal.Correction>
   9.000000E+99

> <Gold.Chemscore.Hbonds>
donor molecule, donor type, donor heavy atom, donor atom, acceptor molecule, acceptor atom, score
      P1  H  7989  7998       L1     4  0.29

> <Gold.Chemscore.Hbond.Weighted>
-3.1299

> <Gold.Chemscore.Metal.Weighted>
-0.0000

> <Gold.Chemscore.Lipo.Weighted>
-7.3919

> <Gold.Chemscore.Internal_Hbond.Weighted>
0.0000

> <Gold.Chemscore.DEClash.Weighted>
0.1479

> <Gold.Chemscore.DEInternal.Weighted>
0.1615

> <Gold.Chemscore.Rot.Weighted>
4.6752

> <Gold.Chemscore.Internal.Correction.Weighted>
   9.000000E+99

> <Gold.Protein.RotatedTorsions>
[ 6907 6896 6895 6894 ] final -129.48 input  -60.11 | X-H torsion
[ 7974 7965 7964 7962 ] final  -66.55 input  175.53 | X-H torsion
[ 8008 7997 7996 7995 ] final -104.63 input   59.86 | X-H torsion
[ 10167 10162 10161 10158 ] final  174.77 input  -65.29 | X-H torsion
[ 10718 10713 10712 10709 ] final  148.27 input   66.30 | X-H torsion
[ 10763 10752 10751 10750 ] final  -21.12 input  -60.55 | X-H torsion
[ 11005 11000 10999 10996 ] final -119.75 input  -57.11 | X-H torsion

> <Gold.Protein.ActiveResidues>
 VAL166  LYS551  ARG553  GLY616  TRP617  ASP618  TYR619  PRO620  LYS621  CYS622 
 ASP623  PHE694  ASN695  SER759  ASP760  ASP761  ALA762  ILE779  LEU786  VAL792 
 PHE793  MET794  SER795  GLU796  ALA797  LYS798  CYS799  TRP800  GLU811  SER814 

> <Gold.Protein.RotatedAtoms>
  150.9292  133.6788  159.2814 H   0  0  0  0  0  0  0  0  0  0  0  0  # atno 6907 bound_to 6896
  151.4216  135.0997  159.9625 H   0  0  0  0  0  0  0  0  0  0  0  0  # atno 6908 bound_to 6896
  152.5017  133.8742  159.7369 H   0  0  0  0  0  0  0  0  0  0  0  0  # atno 6909 bound_to 6896
  145.7403  140.8956  143.0533 H   0  0  0  0  0  0  0  0  0  0  0  0  # atno 7974 bound_to 7965
  154.8881  140.0417  157.1822 H   0  0  0  0  0  0  0  0  0  0  0  0  # atno 8008 bound_to 7997
  154.8569  140.2938  155.5542 H   0  0  0  0  0  0  0  0  0  0  0  0  # atno 8009 bound_to 7997
  156.2997  140.2454  156.3537 H   0  0  0  0  0  0  0  0  0  0  0  0  # atno 8010 bound_to 7997
  139.5153  144.3108  152.0293 H   0  0  0  0  0  0  0  0  0  0  0  0  # atno 10167 bound_to 10162
  157.3107  131.0887  151.1318 H   0  0  0  0  0  0  0  0  0  0  0  0  # atno 10718 bound_to 10713
  153.6312  135.6989  153.5275 H   0  0  0  0  0  0  0  0  0  0  0  0  # atno 10763 bound_to 10752
  153.2858  135.4172  155.1121 H   0  0  0  0  0  0  0  0  0  0  0  0  # atno 10764 bound_to 10752
  154.8521  135.3613  154.5854 H   0  0  0  0  0  0  0  0  0  0  0  0  # atno 10765 bound_to 10752
  141.0193  134.0148  157.3305 H   0  0  0  0  0  0  0  0  0  0  0  0  # atno 11005 bound_to 11000
  144.6872  139.9451  143.7476 LP  0  0  0  0  0  0  0  0  0  0  0  0  # atno 17320 bound_to 7965
  146.0454  139.3461  143.0672 LP  0  0  0  0  0  0  0  0  0  0  0  0  # atno 17321 bound_to 7965
  140.2553  144.4125  150.6206 LP  0  0  0  0  0  0  0  0  0  0  0  0  # atno 17342 bound_to 10162
  140.6196  143.2175  151.6722 LP  0  0  0  0  0  0  0  0  0  0  0  0  # atno 17343 bound_to 10162
  157.2642  130.6673  149.5988 LP  0  0  0  0  0  0  0  0  0  0  0  0  # atno 17370 bound_to 10713
  155.9677  130.4499  150.5677 LP  0  0  0  0  0  0  0  0  0  0  0  0  # atno 17371 bound_to 10713
  139.9136  135.0194  156.7792 LP  0  0  0  0  0  0  0  0  0  0  0  0  # atno 17394 bound_to 11000
  140.6601  133.9653  155.7800 LP  0  0  0  0  0  0  0  0  0  0  0  0  # atno 17395 bound_to 11000

$$$$
