AV-unprocessed.smi:2013|AV-procd|sdf|8157|dock3
  -GOLD-   2272010403D 1   1.00000     0.00000
 Structure written by MMmdl.
 51 52  0  0  0  0  0  0  0  0  2 V2000
  148.7200  132.7185  153.5077 C   0  0  0  0  0  0  0  0  0  0  0  0
  147.6432  133.6249  154.1340 C   0  0  0  0  0  0  0  0  0  0  0  0
  146.6046  132.7405  154.8531 C   0  0  0  0  0  0  0  0  0  0  0  0
  146.9764  134.5814  153.1029 C   0  0  2  0  0  0  0  0  0  0  0  0
  146.3684  135.8493  153.7677 C   0  0  0  0  0  0  0  0  0  0  0  0
  147.0959  137.0711  153.4405 N   0  0  0  0  0  0  0  0  0  0  0  0
  146.7099  138.3134  153.7653 C   0  0  0  0  0  0  0  0  0  0  0  0
  145.6745  138.5599  154.3847 O   0  0  0  0  0  0  0  0  0  0  0  0
  147.6241  139.4483  153.2856 C   0  0  0  0  0  0  0  0  0  0  0  0
  148.8399  139.5862  154.0975 N   0  0  0  0  0  0  0  0  0  0  0  0
  149.7478  138.5439  154.1530 C   0  0  0  0  0  0  0  0  0  0  0  0
  150.8933  138.5911  154.8669 C   0  0  0  0  0  0  0  0  0  0  0  0
  151.2419  139.7755  155.6411 C   0  0  0  0  0  0  0  0  0  0  0  0
  152.2749  139.8718  156.3056 O   0  0  0  0  0  0  0  0  0  0  0  0
  150.2966  140.8240  155.5721 N   0  0  0  0  0  0  0  0  0  0  0  0
  150.6057  142.0187  156.3301 C   0  0  0  0  0  0  0  0  0  0  0  0
  149.1018  140.7735  154.8162 C   0  0  0  0  0  0  0  0  0  0  0  0
  148.3072  141.7152  154.7696 O   0  0  0  0  0  0  0  0  0  0  0  0
  146.0073  133.8144  152.2572 N   0  3  0  0  0  0  0  0  0  0  0  0
  144.9865  134.6141  151.5343 C   0  0  0  0  0  0  0  0  0  0  0  0
  143.9372  133.6813  150.9083 C   0  0  0  0  0  0  0  0  0  0  0  0
  144.5816  132.7469  150.0499 O   0  0  0  0  0  0  0  0  0  0  0  0
  145.4989  131.9172  150.7534 C   0  0  0  0  0  0  0  0  0  0  0  0
  146.6074  132.7829  151.3752 C   0  0  0  0  0  0  0  0  0  0  0  0
  148.3215  132.1489  152.6677 H   0  0  0  0  0  0  0  0  0  0  0  0
  149.1042  132.0046  154.2370 H   0  0  0  0  0  0  0  0  0  0  0  0
  149.5788  133.2886  153.1545 H   0  0  0  0  0  0  0  0  0  0  0  0
  148.1402  134.2274  154.8951 H   0  0  0  0  0  0  0  0  0  0  0  0
  146.0413  132.1346  154.1427 H   0  0  0  0  0  0  0  0  0  0  0  0
  145.8913  133.3309  155.4280 H   0  0  0  0  0  0  0  0  0  0  0  0
  147.0871  132.0607  155.5561 H   0  0  0  0  0  0  0  0  0  0  0  0
  147.7778  134.9217  152.4449 H   0  0  0  0  0  0  0  0  0  0  0  0
  145.3133  135.9366  153.5031 H   0  0  0  0  0  0  0  0  0  0  0  0
  146.4030  135.7637  154.8529 H   0  0  0  0  0  0  0  0  0  0  0  0
  147.9632  136.9648  152.9345 H   0  0  0  0  0  0  0  0  0  0  0  0
  147.8880  139.2978  152.2370 H   0  0  0  0  0  0  0  0  0  0  0  0
  147.0517  140.3765  153.3132 H   0  0  0  0  0  0  0  0  0  0  0  0
  149.5349  137.6445  153.5935 H   0  0  0  0  0  0  0  0  0  0  0  0
  151.5609  137.7419  154.8650 H   0  0  0  0  0  0  0  0  0  0  0  0
  149.7897  142.7391  156.2881 H   0  0  0  0  0  0  0  0  0  0  0  0
  151.5103  142.4484  155.8967 H   0  0  0  0  0  0  0  0  0  0  0  0
  150.7661  141.7158  157.3665 H   0  0  0  0  0  0  0  0  0  0  0  0
  144.4990  135.3102  152.2169 H   0  0  0  0  0  0  0  0  0  0  0  0
  145.4523  135.2070  150.7472 H   0  0  0  0  0  0  0  0  0  0  0  0
  143.3719  133.1557  151.6799 H   0  0  0  0  0  0  0  0  0  0  0  0
  143.2199  134.2601  150.3263 H   0  0  0  0  0  0  0  0  0  0  0  0
  144.9746  131.3444  151.5202 H   0  0  0  0  0  0  0  0  0  0  0  0
  145.9298  131.1969  150.0578 H   0  0  0  0  0  0  0  0  0  0  0  0
  147.1915  133.2455  150.5807 H   0  0  0  0  0  0  0  0  0  0  0  0
  147.2856  132.1491  151.9474 H   0  0  0  0  0  0  0  0  0  0  0  0
  145.4825  133.2750  152.9311 H   0  0  0  0  0  0  0  0  0  0  0  0
  1  2  1  0  0  0  0
  1 25  1  0  0  0  0
  1 26  1  0  0  0  0
  1 27  1  0  0  0  0
  2  3  1  0  0  0  0
  2  4  1  0  0  0  0
  2 28  1  0  0  0  0
  3 29  1  0  0  0  0
  3 30  1  0  0  0  0
  3 31  1  0  0  0  0
  4  5  1  0  0  0  0
  4 19  1  0  0  0  0
  4 32  1  0  0  0  0
  5  6  1  0  0  0  0
  5 33  1  0  0  0  0
  5 34  1  0  0  0  0
  6  7  1  0  0  0  0
  6 35  1  0  0  0  0
  7  8  2  0  0  0  0
  7  9  1  0  0  0  0
  9 10  1  0  0  0  0
  9 36  1  0  0  0  0
  9 37  1  0  0  0  0
 10 17  1  0  0  0  0
 10 11  1  0  0  0  0
 11 12  2  0  0  0  0
 11 38  1  0  0  0  0
 12 13  1  0  0  0  0
 12 39  1  0  0  0  0
 13 14  2  0  0  0  0
 13 15  1  0  0  0  0
 15 16  1  0  0  0  0
 15 17  1  0  0  0  0
 16 40  1  0  0  0  0
 16 41  1  0  0  0  0
 16 42  1  0  0  0  0
 17 18  2  0  0  0  0
 19 24  1  0  0  0  0
 19 20  1  0  0  0  0
 19 51  1  0  0  0  0
 20 21  1  0  0  0  0
 20 43  1  0  0  0  0
 20 44  1  0  0  0  0
 21 22  1  0  0  0  0
 21 45  1  0  0  0  0
 21 46  1  0  0  0  0
 22 23  1  0  0  0  0
 23 24  1  0  0  0  0
 23 47  1  0  0  0  0
 23 48  1  0  0  0  0
 24 49  1  0  0  0  0
 24 50  1  0  0  0  0
M  CHG  1  19   1
M  END
> <s_m_source_file>
AV-unprocessed.smi

> <i_m_source_file_index>
2013

> <i_lp_mmshare_version>
43012

> <i_f3d_flags>
0

> <s_epik_input>
W0NIMl0xW0NIMl1PW0NIMl1bQ0gyXU4xW0NASF0oW0NIXShbQ0gzXSlbQ0gzXSlbQ0gyXVtOSF1DKD1PKVtDSDJdbjJbY0hdW2NIXWMoPU8pbihbQ0gzXSljMj1P

> <s_epik_cmdline>
J2VwaWtfcHl0aG9uJywgJy1waCcsICc3LjAnLCAnLXRuJywgJzgnLCAnLW1hJywgJzIwMCcsICctbWV0YWxfYmluZGluZycsICctaW1hZScsICc8aW5maWxlLm1hZT4nLCAnLW9tYWUnLCAnPG91dGZpbGUubWFlPic=

> <r_lp_tautomer_probability>
1

> <r_epik_Ionization_Penalty>
0.370738

> <r_epik_Ionization_Penalty_Charging>
0.370738

> <r_epik_Ionization_Penalty_Neutral>
8.1827e-08

> <r_epik_State_Penalty>
0.368162

> <r_epik_Charging_Adjusted_Penalty>
0.7389

> <i_epik_Tot_Q>
1

> <i_epik_Tot_abs_Q>
1

> <r_epik_Metal_State_Penalty>
0.368194

> <b_epik_Metal_Only>
0

> <s_lp_Force_Field>
OPLS_2005

> <r_lp_Energy>
40.4187

> <b_lp_Chiralities_Consistent>
1

> <s_lp_Variant>
AV-unprocessed.smi:2013-1

> <Gold.Version>
5.8.1

> <Gold.Id.Protein>
6NUR|6NUR_protein|mol2

> <Gold.PLP.Fitness>
43.2276

> <Gold.PLP.PLP>
-37.0213

> <Gold.PLP.part.hbond>
-2.0000

> <Gold.PLP.part.metal>
0.0000

> <Gold.PLP.part.buried>
-1.8296

> <Gold.PLP.part.nonpolar>
-33.3750

> <Gold.PLP.part.repulsive>
0.3650

> <Gold.PLP.ligand.clash>
0.0000

> <Gold.PLP.ligand.torsion>
1.5835

> <Gold.PLP.Chemscore.Hbond>
2.0000

> <Gold.PLP.Chemscore.CHOScore>
1.0000

> <Gold.PLP.Chemscore.Metal>
0.0000

> <Gold.Chemscore.Hbonds>
donor molecule, donor type, donor heavy atom, donor atom, acceptor molecule, acceptor atom, score
      L1  H     6    35       P1  7948  1.00
      P1  H  7997  8010       L1    14  0.83
      L1  C    11    38       P1  7948  1.00

> <Gold.PLP.Chemscore.Internal.Correction>
0.3733

> <Gold.Rescore>
     Score         DG    S(hbond)    S(metal)    S(lipo)     H(rot)  DE(clash)    DE(int)     intcor
     12.61     -14.51       1.99        0.00      70.35       2.28       0.05       1.85       ----

> <Gold.Chemscore.Fitness>
12.6065

> <Gold.Chemscore.DG>
-14.5108

> <Gold.Chemscore.ZeroCoef>
-5.4800

> <Gold.Chemscore.Hbond>
1.9881

> <Gold.Chemscore.Metal>
0.0000

> <Gold.Chemscore.Lipo>
70.3487

> <Gold.Chemscore.Internal_Hbond>
0.0000

> <Gold.Chemscore.DEClash>
0.0546

> <Gold.Chemscore.DEInternal>
1.8496

> <Gold.Chemscore.Rot>
2.2814

> <Gold.Chemscore.Internal.Correction>
   9.000000E+99

> <Gold.Chemscore.Hbonds>
donor molecule, donor type, donor heavy atom, donor atom, acceptor molecule, acceptor atom, score
      L1  H     6    35       P1  7948  0.97
      P1  H  7997  8010       L1    14  0.80

> <Gold.Chemscore.Hbond.Weighted>
-6.6404

> <Gold.Chemscore.Metal.Weighted>
-0.0000

> <Gold.Chemscore.Lipo.Weighted>
-8.2308

> <Gold.Chemscore.Internal_Hbond.Weighted>
0.0000

> <Gold.Chemscore.DEClash.Weighted>
0.0546

> <Gold.Chemscore.DEInternal.Weighted>
1.8496

> <Gold.Chemscore.Rot.Weighted>
5.8404

> <Gold.Chemscore.Internal.Correction.Weighted>
   9.000000E+99

> <Gold.Protein.RotatedTorsions>
[ 6907 6896 6895 6894 ] final    1.42 input  -60.11 | X-H torsion
[ 7974 7965 7964 7962 ] final  -70.69 input  175.53 | X-H torsion
[ 8008 7997 7996 7995 ] final   64.92 input   59.86 | X-H torsion
[ 10167 10162 10161 10158 ] final  179.51 input  -65.29 | X-H torsion
[ 10718 10713 10712 10709 ] final    8.96 input   66.30 | X-H torsion
[ 10763 10752 10751 10750 ] final  136.53 input  -60.55 | X-H torsion
[ 11005 11000 10999 10996 ] final   81.41 input  -57.11 | X-H torsion

> <Gold.Protein.ActiveResidues>
 VAL166  LYS551  ARG553  GLY616  TRP617  ASP618  TYR619  PRO620  LYS621  CYS622 
 ASP623  PHE694  ASN695  SER759  ASP760  ASP761  ALA762  ILE779  LEU786  VAL792 
 PHE793  MET794  SER795  GLU796  ALA797  LYS798  CYS799  TRP800  GLU811  SER814 

> <Gold.Protein.RotatedAtoms>
  151.5924  135.1052  160.0041 H   0  0  0  0  0  0  0  0  0  0  0  0  # atno 6907 bound_to 6896
  152.4300  133.7256  159.6569 H   0  0  0  0  0  0  0  0  0  0  0  0  # atno 6908 bound_to 6896
  150.8191  133.8213  159.3169 H   0  0  0  0  0  0  0  0  0  0  0  0  # atno 6909 bound_to 6896
  145.6878  140.9164  143.0798 H   0  0  0  0  0  0  0  0  0  0  0  0  # atno 7974 bound_to 7965
  155.6535  140.3497  155.4757 H   0  0  0  0  0  0  0  0  0  0  0  0  # atno 8008 bound_to 7997
  155.9828  140.1178  157.0734 H   0  0  0  0  0  0  0  0  0  0  0  0  # atno 8009 bound_to 7997
  154.4196  140.1135  156.5444 H   0  0  0  0  0  0  0  0  0  0  0  0  # atno 8010 bound_to 7997
  139.5339  144.2553  152.0752 H   0  0  0  0  0  0  0  0  0  0  0  0  # atno 10167 bound_to 10162
  156.9593  130.5927  149.5661 H   0  0  0  0  0  0  0  0  0  0  0  0  # atno 10718 bound_to 10713
  153.8581  135.3071  155.3436 H   0  0  0  0  0  0  0  0  0  0  0  0  # atno 10763 bound_to 10752
  154.7861  135.4809  153.9952 H   0  0  0  0  0  0  0  0  0  0  0  0  # atno 10764 bound_to 10752
  153.1478  135.6837  153.9022 H   0  0  0  0  0  0  0  0  0  0  0  0  # atno 10765 bound_to 10752
  139.9099  134.7994  156.2037 H   0  0  0  0  0  0  0  0  0  0  0  0  # atno 11005 bound_to 11000
  144.7006  139.8781  143.7445 LP  0  0  0  0  0  0  0  0  0  0  0  0  # atno 17320 bound_to 7965
  146.0908  139.3898  143.0407 LP  0  0  0  0  0  0  0  0  0  0  0  0  # atno 17321 bound_to 7965
  140.2020  144.4648  150.6427 LP  0  0  0  0  0  0  0  0  0  0  0  0  # atno 17342 bound_to 10162
  140.6535  143.2231  151.6023 LP  0  0  0  0  0  0  0  0  0  0  0  0  # atno 17343 bound_to 10162
  156.0329  130.5419  150.8580 LP  0  0  0  0  0  0  0  0  0  0  0  0  # atno 17370 bound_to 10713
  157.5668  131.0946  150.9477 LP  0  0  0  0  0  0  0  0  0  0  0  0  # atno 17371 bound_to 10713
  141.0509  133.6889  156.1769 LP  0  0  0  0  0  0  0  0  0  0  0  0  # atno 17394 bound_to 11000
  140.6812  134.4765  157.5589 LP  0  0  0  0  0  0  0  0  0  0  0  0  # atno 17395 bound_to 11000

$$$$
