AV-unprocessed.smi:3170|AV-procd|sdf|12110|dock7
  -GOLD-   2272017553D 1   1.00000     0.00000
 Structure written by MMmdl.
 35 36  0  0  0  0  0  0  0  0  1 V2000
  145.0317  137.7389  153.2181 O   0  0  0  0  0  0  0  0  0  0  0  0
  146.1352  137.3439  152.8419 C   0  0  0  0  0  0  0  0  0  0  0  0
  146.3253  136.5324  151.7925 N   0  0  0  0  0  0  0  0  0  0  0  0
  145.2667  136.0064  150.9359 C   0  0  0  0  0  0  0  0  0  0  0  0
  144.5244  134.8168  151.5744 C   0  0  0  0  0  0  0  0  0  0  0  0
  144.7813  133.5696  150.8792 N   0  0  0  0  0  0  0  0  0  0  0  0
  146.0051  132.9327  150.7247 C   0  0  0  0  0  0  0  0  0  0  0  0
  145.7640  131.7905  149.9949 C   0  0  0  0  0  0  0  0  0  0  0  0
  144.4074  131.7058  149.6908 N   0  0  0  0  0  0  0  0  0  0  0  0
  143.8898  132.7921  150.2493 C   0  0  0  0  0  0  0  0  0  0  0  0
  147.2913  137.6789  153.4281 N   0  0  0  0  0  0  0  0  0  0  0  0
  147.4010  138.5579  154.5849 C   0  0  0  0  0  0  0  0  0  0  0  0
  148.4666  139.6417  154.3551 C   0  0  1  0  0  0  0  0  0  0  0  0
  148.4935  140.7144  155.4242 C   0  0  0  0  0  0  0  0  0  0  0  0
  149.8736  141.3309  155.2178 C   0  0  0  0  0  0  0  0  0  0  0  0
  150.7042  140.2755  154.7414 O   0  0  0  0  0  0  0  0  0  0  0  0
  149.9109  139.1403  154.4076 C   0  0  0  0  0  0  0  0  0  0  0  0
  147.2712  136.2655  151.5619 H   0  0  0  0  0  0  0  0  0  0  0  0
  144.5645  136.8132  150.7240 H   0  0  0  0  0  0  0  0  0  0  0  0
  145.6908  135.7089  149.9757 H   0  0  0  0  0  0  0  0  0  0  0  0
  144.8397  134.6989  152.6117 H   0  0  0  0  0  0  0  0  0  0  0  0
  143.4483  134.9937  151.5970 H   0  0  0  0  0  0  0  0  0  0  0  0
  146.9203  133.3340  151.1342 H   0  0  0  0  0  0  0  0  0  0  0  0
  146.4569  131.0295  149.6672 H   0  0  0  0  0  0  0  0  0  0  0  0
  142.8380  133.0318  150.1937 H   0  0  0  0  0  0  0  0  0  0  0  0
  148.1498  137.3078  153.0482 H   0  0  0  0  0  0  0  0  0  0  0  0
  146.4312  139.0228  154.7678 H   0  0  0  0  0  0  0  0  0  0  0  0
  147.6468  137.9718  155.4721 H   0  0  0  0  0  0  0  0  0  0  0  0
  148.2962  140.1216  153.3896 H   0  0  0  0  0  0  0  0  0  0  0  0
  147.6854  141.4397  155.3254 H   0  0  0  0  0  0  0  0  0  0  0  0
  148.4312  140.2657  156.4167 H   0  0  0  0  0  0  0  0  0  0  0  0
  149.8322  142.1097  154.4553 H   0  0  0  0  0  0  0  0  0  0  0  0
  150.2729  141.7723  156.1311 H   0  0  0  0  0  0  0  0  0  0  0  0
  150.0331  138.3934  155.1932 H   0  0  0  0  0  0  0  0  0  0  0  0
  150.2328  138.6944  153.4662 H   0  0  0  0  0  0  0  0  0  0  0  0
  1  2  2  0  0  0  0
  2  3  1  0  0  0  0
  2 11  1  0  0  0  0
  3  4  1  0  0  0  0
  3 18  1  0  0  0  0
  4  5  1  0  0  0  0
  4 19  1  0  0  0  0
  4 20  1  0  0  0  0
  5  6  1  0  0  0  0
  5 21  1  0  0  0  0
  5 22  1  0  0  0  0
  6 10  1  0  0  0  0
  6  7  1  0  0  0  0
  7  8  2  0  0  0  0
  7 23  1  0  0  0  0
  8  9  1  0  0  0  0
  8 24  1  0  0  0  0
  9 10  2  0  0  0  0
 10 25  1  0  0  0  0
 11 12  1  0  0  0  0
 11 26  1  0  0  0  0
 12 13  1  0  0  0  0
 12 27  1  0  0  0  0
 12 28  1  0  0  0  0
 13 17  1  0  0  0  0
 13 14  1  0  0  0  0
 13 29  1  0  0  0  0
 14 15  1  0  0  0  0
 14 30  1  0  0  0  0
 14 31  1  0  0  0  0
 15 16  1  0  0  0  0
 15 32  1  0  0  0  0
 15 33  1  0  0  0  0
 16 17  1  0  0  0  0
 17 34  1  0  0  0  0
 17 35  1  0  0  0  0
M  END
> <s_m_source_file>
AV-unprocessed.smi

> <i_m_source_file_index>
3170

> <i_lp_mmshare_version>
43012

> <i_f3d_flags>
0

> <s_epik_input>
W0NIMl0xT1tDSDJdW0NIMl1bQ0BIXTFbQ0gyXVtOSF1DKD1PKVtOSF1bQ0gyXVtDSDJdbjJbY0hdW2NIXW5bY0hdMg==

> <s_epik_cmdline>
J2VwaWtfcHl0aG9uJywgJy1waCcsICc3LjAnLCAnLXRuJywgJzgnLCAnLW1hJywgJzIwMCcsICctbWV0YWxfYmluZGluZycsICctaW1hZScsICc8aW5maWxlLm1hZT4nLCAnLW9tYWUnLCAnPG91dGZpbGUubWFlPic=

> <r_lp_tautomer_probability>
1

> <r_epik_Ionization_Penalty>
0.621287

> <r_epik_Ionization_Penalty_Charging>
0.621234

> <r_epik_Ionization_Penalty_Neutral>
5.30999e-05

> <r_epik_State_Penalty>
0.637278

> <r_epik_Charging_Adjusted_Penalty>
1.25851

> <i_epik_Tot_Q>
0

> <i_epik_Tot_abs_Q>
0

> <r_epik_Metal_State_Penalty>
0.306756

> <b_epik_Metal_Only>
0

> <s_lp_Force_Field>
OPLS_2005

> <r_lp_Energy>
18.1747

> <b_lp_Chiralities_Consistent>
1

> <s_lp_Variant>
AV-unprocessed.smi:3170-4

> <Gold.Version>
5.8.1

> <Gold.Id.Protein>
6NUR|6NUR_protein|mol2

> <Gold.PLP.Fitness>
44.8836

> <Gold.PLP.PLP>
-30.2740

> <Gold.PLP.part.hbond>
-4.0000

> <Gold.PLP.part.metal>
0.0000

> <Gold.PLP.part.buried>
-4.2732

> <Gold.PLP.part.nonpolar>
-23.6259

> <Gold.PLP.part.repulsive>
0.8076

> <Gold.PLP.ligand.clash>
0.0000

> <Gold.PLP.ligand.torsion>
0.6103

> <Gold.PLP.Chemscore.Hbond>
3.2935

> <Gold.PLP.Chemscore.CHOScore>
1.9702

> <Gold.PLP.Chemscore.Metal>
0.0000

> <Gold.Chemscore.Hbonds>
donor molecule, donor type, donor heavy atom, donor atom, acceptor molecule, acceptor atom, score
      L1  H     3    18       P1  7948  1.00
      L1  H    11    26       P1  7948  0.98
      P1  H  7989  7998       L1    16  1.00
      P1  H 10785 10796       L1     9  0.34
      L1  C     8    24       P1 10747  0.85
      L1  C    10    25       P1 10186  1.00

> <Gold.PLP.Chemscore.Internal.Correction>
0.0392

> <Gold.Rescore>
     Score         DG    S(hbond)    S(metal)    S(lipo)     H(rot)  DE(clash)    DE(int)     intcor
     17.62     -18.29       3.56        0.00      56.93       2.25       0.09       0.58       ----

> <Gold.Chemscore.Fitness>
17.6249

> <Gold.Chemscore.DG>
-18.2941

> <Gold.Chemscore.ZeroCoef>
-5.4800

> <Gold.Chemscore.Hbond>
3.5647

> <Gold.Chemscore.Metal>
0.0000

> <Gold.Chemscore.Lipo>
56.9340

> <Gold.Chemscore.Internal_Hbond>
0.0000

> <Gold.Chemscore.DEClash>
0.0878

> <Gold.Chemscore.DEInternal>
0.5814

> <Gold.Chemscore.Rot>
2.2474

> <Gold.Chemscore.Internal.Correction>
   9.000000E+99

> <Gold.Chemscore.Hbonds>
donor molecule, donor type, donor heavy atom, donor atom, acceptor molecule, acceptor atom, score
      L1  H     3    18       P1  7948  0.97
      L1  H    11    26       P1  7948  0.93
      P1  H  7989  7998       L1    16  0.59
      P1  H 10785 10796       L1     9  0.34

> <Gold.Chemscore.Hbond.Weighted>
-11.9061

> <Gold.Chemscore.Metal.Weighted>
-0.0000

> <Gold.Chemscore.Lipo.Weighted>
-6.6613

> <Gold.Chemscore.Internal_Hbond.Weighted>
0.0000

> <Gold.Chemscore.DEClash.Weighted>
0.0878

> <Gold.Chemscore.DEInternal.Weighted>
0.5814

> <Gold.Chemscore.Rot.Weighted>
5.7532

> <Gold.Chemscore.Internal.Correction.Weighted>
   9.000000E+99

> <Gold.Protein.RotatedTorsions>
[ 6907 6896 6895 6894 ] final  -80.99 input  -60.11 | X-H torsion
[ 7974 7965 7964 7962 ] final  -35.28 input  175.53 | X-H torsion
[ 8008 7997 7996 7995 ] final   44.69 input   59.86 | X-H torsion
[ 10167 10162 10161 10158 ] final  -76.43 input  -65.29 | X-H torsion
[ 10718 10713 10712 10709 ] final -125.51 input   66.30 | X-H torsion
[ 10763 10752 10751 10750 ] final -173.21 input  -60.55 | X-H torsion
[ 11005 11000 10999 10996 ] final -118.47 input  -57.11 | X-H torsion

> <Gold.Protein.ActiveResidues>
 VAL166  LYS551  ARG553  GLY616  TRP617  ASP618  TYR619  PRO620  LYS621  CYS622 
 ASP623  PHE694  ASN695  SER759  ASP760  ASP761  ALA762  ILE779  LEU786  VAL792 
 PHE793  MET794  SER795  GLU796  ALA797  LYS798  CYS799  TRP800  GLU811  SER814 

> <Gold.Protein.RotatedAtoms>
  150.6919  134.3886  159.5065 H   0  0  0  0  0  0  0  0  0  0  0  0  # atno 6907 bound_to 6896
  152.1677  134.8857  160.0546 H   0  0  0  0  0  0  0  0  0  0  0  0  # atno 6908 bound_to 6896
  151.9895  133.3751  159.4175 H   0  0  0  0  0  0  0  0  0  0  0  0  # atno 6909 bound_to 6896
  146.0759  140.6141  142.8931 H   0  0  0  0  0  0  0  0  0  0  0  0  # atno 7974 bound_to 7965
  155.3235  140.3398  155.4241 H   0  0  0  0  0  0  0  0  0  0  0  0  # atno 8008 bound_to 7997
  156.1897  140.1693  156.8153 H   0  0  0  0  0  0  0  0  0  0  0  0  # atno 8009 bound_to 7997
  154.5428  140.0721  156.8522 H   0  0  0  0  0  0  0  0  0  0  0  0  # atno 8010 bound_to 7997
  140.4858  143.2391  151.7986 H   0  0  0  0  0  0  0  0  0  0  0  0  # atno 10167 bound_to 10162
  156.1682  130.6649  151.0144 H   0  0  0  0  0  0  0  0  0  0  0  0  # atno 10718 bound_to 10713
  154.6105  135.2864  155.0438 H   0  0  0  0  0  0  0  0  0  0  0  0  # atno 10763 bound_to 10752
  154.1669  135.6479  153.5003 H   0  0  0  0  0  0  0  0  0  0  0  0  # atno 10764 bound_to 10752
  153.0193  135.5391  154.6856 H   0  0  0  0  0  0  0  0  0  0  0  0  # atno 10765 bound_to 10752
  141.0283  134.0020  157.3181 H   0  0  0  0  0  0  0  0  0  0  0  0  # atno 11005 bound_to 11000
  144.7261  140.4530  143.6972 LP  0  0  0  0  0  0  0  0  0  0  0  0  # atno 17320 bound_to 7965
  145.6306  139.1536  143.2971 LP  0  0  0  0  0  0  0  0  0  0  0  0  # atno 17321 bound_to 7965
  139.4841  144.4714  151.9420 LP  0  0  0  0  0  0  0  0  0  0  0  0  # atno 17342 bound_to 10162
  140.3800  144.2748  150.5910 LP  0  0  0  0  0  0  0  0  0  0  0  0  # atno 17343 bound_to 10162
  157.6783  131.0844  150.7436 LP  0  0  0  0  0  0  0  0  0  0  0  0  # atno 17370 bound_to 10713
  156.7496  130.4764  149.5459 LP  0  0  0  0  0  0  0  0  0  0  0  0  # atno 17371 bound_to 10713
  139.9191  135.0199  156.7995 LP  0  0  0  0  0  0  0  0  0  0  0  0  # atno 17394 bound_to 11000
  140.6452  133.9782  155.7727 LP  0  0  0  0  0  0  0  0  0  0  0  0  # atno 17395 bound_to 11000

$$$$
