AV-unprocessed.smi:237|AV-procd|sdf|1817|dock7
  -GOLD-   2262020413D 1   1.00000     0.00000
 Structure written by MMmdl.
 53 56  0  0  0  0  0  0  0  0  1 V2000
  148.1434  141.9016  154.2201 C   0  0  0  0  0  0  0  0  0  0  0  0
  148.7659  140.5583  154.6081 C   0  0  0  0  0  0  0  0  0  0  0  0
  150.1780  140.7034  154.6337 O   0  0  0  0  0  0  0  0  0  0  0  0
  150.8057  140.1846  155.8005 C   0  0  0  0  0  0  0  0  0  0  0  0
  150.7627  141.1525  157.0133 C   0  0  2  0  0  0  0  0  0  0  0  0
  151.1919  142.5615  156.5469 C   0  0  0  0  0  0  0  0  0  0  0  0
  151.2383  143.5624  157.7096 C   0  0  0  0  0  0  0  0  0  0  0  0
  152.1555  143.0312  158.8166 C   0  0  0  0  0  0  0  0  0  0  0  0
  151.6982  141.6359  159.2623 C   0  0  0  0  0  0  0  0  0  0  0  0
  151.6210  140.7156  158.1277 N   0  0  0  0  0  0  0  0  0  0  0  0
  151.4160  139.4500  158.5561 C   0  0  0  0  0  0  0  0  0  0  0  0
  152.4996  138.7575  158.9842 N   0  0  0  0  0  0  0  0  0  0  0  0
  152.3629  137.4925  159.3932 C   0  0  0  0  0  0  0  0  0  0  0  0
  151.2558  136.7489  159.4538 N   0  0  0  0  0  0  0  0  0  0  0  0
  150.1624  137.4503  159.0370 C   0  0  0  0  0  0  0  0  0  0  0  0
  150.1512  138.7969  158.5793 C   0  0  0  0  0  0  0  0  0  0  0  0
  148.8581  139.1703  158.2344 N   0  0  0  0  0  0  0  0  0  0  0  0
  148.1474  138.1005  158.4643 C   0  0  0  0  0  0  0  0  0  0  0  0
  148.8481  137.0228  158.9591 N   0  0  0  0  0  0  0  0  0  0  0  0
  148.3196  135.7077  159.2921 C   0  0  0  0  0  0  0  0  0  0  0  0
  147.1000  135.7184  160.2451 C   0  0  0  0  0  0  0  0  0  0  0  0
  147.6011  136.0606  161.6547 C   0  0  0  0  0  0  0  0  0  0  0  0
  147.4912  137.4449  161.9176 O   0  0  0  0  0  0  0  0  0  0  0  0
  145.8280  136.4491  159.7788 C   0  0  0  0  0  0  0  0  0  0  0  0
  145.1994  135.2118  159.3823 O   0  0  0  0  0  0  0  0  0  0  0  0
  146.1774  134.4909  160.1606 C   0  0  0  0  0  0  0  0  0  0  0  0
  147.0564  141.8302  154.1789 H   0  0  0  0  0  0  0  0  0  0  0  0
  148.4941  142.2289  153.2414 H   0  0  0  0  0  0  0  0  0  0  0  0
  148.4016  142.6750  154.9437 H   0  0  0  0  0  0  0  0  0  0  0  0
  148.4009  140.2523  155.5895 H   0  0  0  0  0  0  0  0  0  0  0  0
  148.4633  139.7944  153.8924 H   0  0  0  0  0  0  0  0  0  0  0  0
  150.3135  139.2484  156.0664 H   0  0  0  0  0  0  0  0  0  0  0  0
  151.8350  139.9176  155.5550 H   0  0  0  0  0  0  0  0  0  0  0  0
  149.7405  141.2372  157.3802 H   0  0  0  0  0  0  0  0  0  0  0  0
  152.1760  142.5095  156.0787 H   0  0  0  0  0  0  0  0  0  0  0  0
  150.5060  142.9273  155.7821 H   0  0  0  0  0  0  0  0  0  0  0  0
  151.5926  144.5320  157.3588 H   0  0  0  0  0  0  0  0  0  0  0  0
  150.2335  143.7185  158.1042 H   0  0  0  0  0  0  0  0  0  0  0  0
  153.1830  142.9828  158.4531 H   0  0  0  0  0  0  0  0  0  0  0  0
  152.1565  143.7147  159.6659 H   0  0  0  0  0  0  0  0  0  0  0  0
  152.3920  141.2469  160.0097 H   0  0  0  0  0  0  0  0  0  0  0  0
  150.7212  141.7079  159.7423 H   0  0  0  0  0  0  0  0  0  0  0  0
  153.2710  137.0048  159.7152 H   0  0  0  0  0  0  0  0  0  0  0  0
  147.0852  138.0697  158.2720 H   0  0  0  0  0  0  0  0  0  0  0  0
  148.0625  135.2090  158.3569 H   0  0  0  0  0  0  0  0  0  0  0  0
  149.1400  135.1282  159.7165 H   0  0  0  0  0  0  0  0  0  0  0  0
  147.0236  135.5313  162.4133 H   0  0  0  0  0  0  0  0  0  0  0  0
  148.6401  135.7568  161.7865 H   0  0  0  0  0  0  0  0  0  0  0  0
  147.0736  137.5600  162.7576 H   0  0  0  0  0  0  0  0  0  0  0  0
  145.2797  136.9354  160.5875 H   0  0  0  0  0  0  0  0  0  0  0  0
  145.9704  137.1399  158.9492 H   0  0  0  0  0  0  0  0  0  0  0  0
  146.6010  133.6389  159.6307 H   0  0  0  0  0  0  0  0  0  0  0  0
  145.7694  134.1749  161.1223 H   0  0  0  0  0  0  0  0  0  0  0  0
  1  2  1  0  0  0  0
  1 27  1  0  0  0  0
  1 28  1  0  0  0  0
  1 29  1  0  0  0  0
  2  3  1  0  0  0  0
  2 30  1  0  0  0  0
  2 31  1  0  0  0  0
  3  4  1  0  0  0  0
  4  5  1  0  0  0  0
  4 32  1  0  0  0  0
  4 33  1  0  0  0  0
  5 10  1  0  0  0  0
  5  6  1  0  0  0  0
  5 34  1  0  0  0  0
  6  7  1  0  0  0  0
  6 35  1  0  0  0  0
  6 36  1  0  0  0  0
  7  8  1  0  0  0  0
  7 37  1  0  0  0  0
  7 38  1  0  0  0  0
  8  9  1  0  0  0  0
  8 39  1  0  0  0  0
  8 40  1  0  0  0  0
  9 10  1  0  0  0  0
  9 41  1  0  0  0  0
  9 42  1  0  0  0  0
 10 11  1  0  0  0  0
 11 16  1  0  0  0  0
 11 12  2  0  0  0  0
 12 13  1  0  0  0  0
 13 14  2  0  0  0  0
 13 43  1  0  0  0  0
 14 15  1  0  0  0  0
 15 19  1  0  0  0  0
 15 16  2  0  0  0  0
 16 17  1  0  0  0  0
 17 18  2  0  0  0  0
 18 19  1  0  0  0  0
 18 44  1  0  0  0  0
 19 20  1  0  0  0  0
 20 21  1  0  0  0  0
 20 45  1  0  0  0  0
 20 46  1  0  0  0  0
 21 26  1  0  0  0  0
 21 22  1  0  0  0  0
 21 24  1  0  0  0  0
 22 23  1  0  0  0  0
 22 47  1  0  0  0  0
 22 48  1  0  0  0  0
 23 49  1  0  0  0  0
 24 25  1  0  0  0  0
 24 50  1  0  0  0  0
 24 51  1  0  0  0  0
 25 26  1  0  0  0  0
 26 52  1  0  0  0  0
 26 53  1  0  0  0  0
M  END
> <s_m_source_file>
AV-unprocessed.smi

> <i_m_source_file_index>
237

> <i_lp_mmshare_version>
43012

> <i_f3d_flags>
0

> <s_epik_input>
W0NIM11bQ0gyXU9bQ0gyXVtDQEBIXTFbQ0gyXVtDSDJdW0NIMl1bQ0gyXU4xYyhuW2NIXW4yKWMoYzIzKW5bY0hdbjNbQ0gyXUM0KFtDSDJdW09IXSlbQ0gyXU9bQ0gyXTQ=

> <s_epik_cmdline>
J2VwaWtfcHl0aG9uJywgJy1waCcsICc3LjAnLCAnLXRuJywgJzgnLCAnLW1hJywgJzIwMCcsICctbWV0YWxfYmluZGluZycsICctaW1hZScsICc8aW5maWxlLm1hZT4nLCAnLW9tYWUnLCAnPG91dGZpbGUubWFlPic=

> <r_lp_tautomer_probability>
1

> <r_epik_Ionization_Penalty>
0.00358373

> <r_epik_Ionization_Penalty_Charging>
0

> <r_epik_Ionization_Penalty_Neutral>
0.00358373

> <r_epik_State_Penalty>
0.00240903

> <r_epik_Charging_Adjusted_Penalty>
0.00240903

> <i_epik_Tot_Q>
0

> <i_epik_Tot_abs_Q>
0

> <r_epik_Metal_State_Penalty>
-0

> <b_epik_Metal_Only>
0

> <s_lp_Force_Field>
OPLS_2005

> <r_lp_Energy>
38.4441

> <b_lp_Chiralities_Consistent>
1

> <s_lp_Variant>
AV-unprocessed.smi:237-1

> <Gold.Version>
5.8.1

> <Gold.Id.Protein>
6NUR|6NUR_protein|mol2

> <Gold.PLP.Fitness>
45.4891

> <Gold.PLP.PLP>
-38.3025

> <Gold.PLP.part.hbond>
-4.0000

> <Gold.PLP.part.metal>
0.0000

> <Gold.PLP.part.buried>
-4.2436

> <Gold.PLP.part.nonpolar>
-30.0748

> <Gold.PLP.part.repulsive>
0.1109

> <Gold.PLP.ligand.clash>
0.0000

> <Gold.PLP.ligand.torsion>
2.0617

> <Gold.PLP.Chemscore.Hbond>
3.5520

> <Gold.PLP.Chemscore.CHOScore>
0.0000

> <Gold.PLP.Chemscore.Metal>
0.0000

> <Gold.Chemscore.Hbonds>
donor molecule, donor type, donor heavy atom, donor atom, acceptor molecule, acceptor atom, score
      P1  H  6896  6909       L1    14  1.00
      P1  H  6931  6943       L1    23  0.80
      P1  H  6934  6947       L1    23  0.64
      P1  H  7989  7998       L1     3  0.82

> <Gold.PLP.Chemscore.Internal.Correction>
0.6541

> <Gold.Rescore>
     Score         DG    S(hbond)    S(metal)    S(lipo)     H(rot)  DE(clash)    DE(int)     intcor
     14.24     -17.27       2.72        0.00      90.17       3.06       0.01       3.02       ----

> <Gold.Chemscore.Fitness>
14.2364

> <Gold.Chemscore.DG>
-17.2668

> <Gold.Chemscore.ZeroCoef>
-5.4800

> <Gold.Chemscore.Hbond>
2.7173

> <Gold.Chemscore.Metal>
0.0000

> <Gold.Chemscore.Lipo>
90.1687

> <Gold.Chemscore.Internal_Hbond>
0.0000

> <Gold.Chemscore.DEClash>
0.0106

> <Gold.Chemscore.DEInternal>
3.0198

> <Gold.Chemscore.Rot>
3.0620

> <Gold.Chemscore.Internal.Correction>
   9.000000E+99

> <Gold.Chemscore.Hbonds>
donor molecule, donor type, donor heavy atom, donor atom, acceptor molecule, acceptor atom, score
      P1  H  6896  6909       L1    14  0.97
      P1  H  6931  6943       L1    23  0.48
      P1  H  6934  6947       L1    23  0.35
      P1  H  7989  7998       L1     3  0.28

> <Gold.Chemscore.Hbond.Weighted>
-9.0758

> <Gold.Chemscore.Metal.Weighted>
-0.0000

> <Gold.Chemscore.Lipo.Weighted>
-10.5497

> <Gold.Chemscore.Internal_Hbond.Weighted>
0.0000

> <Gold.Chemscore.DEClash.Weighted>
0.0106

> <Gold.Chemscore.DEInternal.Weighted>
3.0198

> <Gold.Chemscore.Rot.Weighted>
7.8388

> <Gold.Chemscore.Internal.Correction.Weighted>
   9.000000E+99

> <Gold.Protein.RotatedTorsions>
[ 6907 6896 6895 6894 ] final   96.14 input  -60.11 | X-H torsion
[ 7974 7965 7964 7962 ] final -144.79 input  175.53 | X-H torsion
[ 8008 7997 7996 7995 ] final  -58.12 input   59.86 | X-H torsion
[ 10167 10162 10161 10158 ] final -179.22 input  -65.29 | X-H torsion
[ 10718 10713 10712 10709 ] final   75.29 input   66.30 | X-H torsion
[ 10763 10752 10751 10750 ] final   27.08 input  -60.55 | X-H torsion
[ 11005 11000 10999 10996 ] final  123.68 input  -57.11 | X-H torsion

> <Gold.Protein.ActiveResidues>
 VAL166  LYS551  ARG553  GLY616  TRP617  ASP618  TYR619  PRO620  LYS621  CYS622 
 ASP623  PHE694  ASN695  SER759  ASP760  ASP761  ALA762  ILE779  LEU786  VAL792 
 PHE793  MET794  SER795  GLU796  ALA797  LYS798  CYS799  TRP800  GLU811  SER814 

> <Gold.Protein.RotatedAtoms>
  152.5438  134.0932  159.8285 H   0  0  0  0  0  0  0  0  0  0  0  0  # atno 6907 bound_to 6896
  151.1019  133.5230  159.2617 H   0  0  0  0  0  0  0  0  0  0  0  0  # atno 6908 bound_to 6896
  151.1981  135.0440  159.8915 H   0  0  0  0  0  0  0  0  0  0  0  0  # atno 6909 bound_to 6896
  144.8272  140.5665  143.5539 H   0  0  0  0  0  0  0  0  0  0  0  0  # atno 7974 bound_to 7965
  154.4295  140.1091  156.5906 H   0  0  0  0  0  0  0  0  0  0  0  0  # atno 8008 bound_to 7997
  155.6016  140.3493  155.4577 H   0  0  0  0  0  0  0  0  0  0  0  0  # atno 8009 bound_to 7997
  156.0169  140.1231  157.0387 H   0  0  0  0  0  0  0  0  0  0  0  0  # atno 8010 bound_to 7997
  139.5396  144.2400  152.0868 H   0  0  0  0  0  0  0  0  0  0  0  0  # atno 10167 bound_to 10162
  157.6628  130.9719  150.1332 H   0  0  0  0  0  0  0  0  0  0  0  0  # atno 10718 bound_to 10713
  153.0579  135.6545  154.0533 H   0  0  0  0  0  0  0  0  0  0  0  0  # atno 10763 bound_to 10752
  154.0207  135.2920  155.3383 H   0  0  0  0  0  0  0  0  0  0  0  0  # atno 10764 bound_to 10752
  154.6903  135.5285  153.8451 H   0  0  0  0  0  0  0  0  0  0  0  0  # atno 10765 bound_to 10752
  139.9324  134.9641  156.8296 H   0  0  0  0  0  0  0  0  0  0  0  0  # atno 11005 bound_to 11000
  145.4973  139.1485  143.3676 LP  0  0  0  0  0  0  0  0  0  0  0  0  # atno 17320 bound_to 7965
  146.2577  140.5113  142.8866 LP  0  0  0  0  0  0  0  0  0  0  0  0  # atno 17321 bound_to 7965
  140.1876  144.4783  150.6496 LP  0  0  0  0  0  0  0  0  0  0  0  0  # atno 17342 bound_to 10162
  140.6620  143.2255  151.5833 LP  0  0  0  0  0  0  0  0  0  0  0  0  # atno 17343 bound_to 10162
  156.2174  130.3671  149.8597 LP  0  0  0  0  0  0  0  0  0  0  0  0  # atno 17370 bound_to 10713
  156.6459  130.8724  151.3522 LP  0  0  0  0  0  0  0  0  0  0  0  0  # atno 17371 bound_to 10713
  140.6167  134.0032  155.7600 LP  0  0  0  0  0  0  0  0  0  0  0  0  # atno 17394 bound_to 11000
  141.0919  133.9903  157.3223 LP  0  0  0  0  0  0  0  0  0  0  0  0  # atno 17395 bound_to 11000

$$$$
