AV-unprocessed.smi:461|AV-procd|sdf|2630|dock9
  -GOLD-   2262023 33D 1   1.00000     0.00000
 Structure written by MMmdl.
 33 34  0  0  0  0  0  0  0  0  1 V2000
  147.8642  141.0365  154.8265 C   0  0  0  0  0  0  0  0  0  0  0  0
  149.2129  140.6093  155.2013 N   0  0  0  0  0  0  0  0  0  0  0  0
  149.8131  141.4289  156.1432 N   0  0  0  0  0  0  0  0  0  0  0  0
  151.0205  141.1182  156.5145 C   0  0  0  0  0  0  0  0  0  0  0  0
  151.7927  141.8117  157.4374 N   0  0  0  0  0  0  0  0  0  0  0  0
  151.3750  143.0116  158.1482 C   0  0  0  0  0  0  0  0  0  0  0  0
  152.2492  143.3003  159.3808 C   0  0  2  0  0  0  0  0  0  0  0  0
  152.6216  142.0492  160.1708 C   0  0  0  0  0  0  0  0  0  0  0  0
  152.9817  142.6075  161.5356 C   0  0  0  0  0  0  0  0  0  0  0  0
  152.2203  143.9352  161.5985 C   0  0  0  0  0  0  0  0  0  0  0  0
  151.5411  144.0525  160.3540 O   0  0  0  0  0  0  0  0  0  0  0  0
  151.7260  139.9000  155.9398 C   0  0  0  0  0  0  0  0  0  0  0  0
  152.8735  139.6158  156.2960 O   0  0  0  0  0  0  0  0  0  0  0  0
  151.0175  139.1731  155.0318 N   0  0  0  0  0  0  0  0  0  0  0  0
  151.6835  137.9857  154.4659 C   0  0  0  0  0  0  0  0  0  0  0  0
  149.7544  139.4957  154.6257 C   0  0  0  0  0  0  0  0  0  0  0  0
  149.1305  138.8343  153.7922 O   0  0  0  0  0  0  0  0  0  0  0  0
  147.1368  140.2540  155.0463 H   0  0  0  0  0  0  0  0  0  0  0  0
  147.8141  141.2613  153.7602 H   0  0  0  0  0  0  0  0  0  0  0  0
  147.5509  141.9331  155.3645 H   0  0  0  0  0  0  0  0  0  0  0  0
  150.3449  142.8498  158.4667 H   0  0  0  0  0  0  0  0  0  0  0  0
  151.3571  143.8697  157.4745 H   0  0  0  0  0  0  0  0  0  0  0  0
  153.1558  143.8374  159.0947 H   0  0  0  0  0  0  0  0  0  0  0  0
  151.7574  141.3894  160.2598 H   0  0  0  0  0  0  0  0  0  0  0  0
  153.4341  141.4836  159.7139 H   0  0  0  0  0  0  0  0  0  0  0  0
  152.7017  141.9274  162.3405 H   0  0  0  0  0  0  0  0  0  0  0  0
  154.0551  142.7877  161.6053 H   0  0  0  0  0  0  0  0  0  0  0  0
  151.5052  143.9628  162.4210 H   0  0  0  0  0  0  0  0  0  0  0  0
  152.9109  144.7705  161.7203 H   0  0  0  0  0  0  0  0  0  0  0  0
  151.0551  137.3763  153.8155 H   0  0  0  0  0  0  0  0  0  0  0  0
  152.0311  137.3236  155.2611 H   0  0  0  0  0  0  0  0  0  0  0  0
  152.5517  138.2855  153.8770 H   0  0  0  0  0  0  0  0  0  0  0  0
  152.7494  141.5386  157.6119 H   0  0  0  0  0  0  0  0  0  0  0  0
  1 18  1  0  0  0  0
  1 19  1  0  0  0  0
  1 20  1  0  0  0  0
  1  2  1  0  0  0  0
  2 16  1  0  0  0  0
  2  3  1  0  0  0  0
  3  4  2  0  0  0  0
  4 12  1  0  0  0  0
  4  5  1  0  0  0  0
  5  6  1  0  0  0  0
  5 33  1  0  0  0  0
  6  7  1  0  0  0  0
  6 21  1  0  0  0  0
  6 22  1  0  0  0  0
  7 11  1  0  0  0  0
  7  8  1  0  0  0  0
  7 23  1  0  0  0  0
  8  9  1  0  0  0  0
  8 24  1  0  0  0  0
  8 25  1  0  0  0  0
  9 10  1  0  0  0  0
  9 26  1  0  0  0  0
  9 27  1  0  0  0  0
 10 11  1  0  0  0  0
 10 28  1  0  0  0  0
 10 29  1  0  0  0  0
 12 13  2  0  0  0  0
 12 14  1  0  0  0  0
 14 15  1  0  0  0  0
 14 16  1  0  0  0  0
 15 30  1  0  0  0  0
 15 31  1  0  0  0  0
 15 32  1  0  0  0  0
 16 17  2  0  0  0  0
M  END
> <s_m_source_file>
AV-unprocessed.smi

> <i_m_source_file_index>
461

> <i_lp_mmshare_version>
43012

> <i_f3d_flags>
0

> <s_epik_input>
Tz1jMW4oW0NIM10pYyg9TyljKG5uMVtDSDNdKVtOSF1bQ0gyXVtDQEBIXTJbQ0gyXVtDSDJdW0NIMl1PMg==

> <s_epik_cmdline>
J2VwaWtfcHl0aG9uJywgJy1waCcsICc3LjAnLCAnLXRuJywgJzgnLCAnLW1hJywgJzIwMCcsICctbWV0YWxfYmluZGluZycsICctaW1hZScsICc8aW5maWxlLm1hZT4nLCAnLW9tYWUnLCAnPG91dGZpbGUubWFlPic=

> <r_lp_tautomer_probability>
1

> <r_epik_Ionization_Penalty>
0.000103292

> <r_epik_Ionization_Penalty_Charging>
5.59445e-09

> <r_epik_Ionization_Penalty_Neutral>
0.000103287

> <r_epik_State_Penalty>
-0

> <r_epik_Charging_Adjusted_Penalty>
5.59445e-09

> <i_epik_Tot_Q>
0

> <i_epik_Tot_abs_Q>
0

> <r_epik_Metal_State_Penalty>
-0

> <b_epik_Metal_Only>
0

> <s_lp_Force_Field>
OPLS_2005

> <r_lp_Energy>
41.4084

> <b_lp_Chiralities_Consistent>
1

> <s_lp_Variant>
AV-unprocessed.smi:461-1

> <Gold.Version>
5.8.1

> <Gold.Id.Protein>
6NUR|6NUR_protein|mol2

> <Gold.PLP.Fitness>
38.6385

> <Gold.PLP.PLP>
-36.3317

> <Gold.PLP.part.hbond>
-1.0000

> <Gold.PLP.part.metal>
0.0000

> <Gold.PLP.part.buried>
-4.7200

> <Gold.PLP.part.nonpolar>
-33.0546

> <Gold.PLP.part.repulsive>
1.8612

> <Gold.PLP.ligand.clash>
0.0000

> <Gold.PLP.ligand.torsion>
0.3512

> <Gold.PLP.Chemscore.Hbond>
1.0000

> <Gold.PLP.Chemscore.CHOScore>
0.0000

> <Gold.PLP.Chemscore.Metal>
0.0000

> <Gold.Chemscore.Hbonds>
donor molecule, donor type, donor heavy atom, donor atom, acceptor molecule, acceptor atom, score
      P1  H  7997  8009       L1    13  1.00

> <Gold.PLP.Chemscore.Internal.Correction>
0.0092

> <Gold.Rescore>
     Score         DG    S(hbond)    S(metal)    S(lipo)     H(rot)  DE(clash)    DE(int)     intcor
     13.35     -13.66       1.00        0.00      69.78       1.30       0.05       0.26       ----

> <Gold.Chemscore.Fitness>
13.3507

> <Gold.Chemscore.DG>
-13.6622

> <Gold.Chemscore.ZeroCoef>
-5.4800

> <Gold.Chemscore.Hbond>
0.9983

> <Gold.Chemscore.Metal>
0.0000

> <Gold.Chemscore.Lipo>
69.7787

> <Gold.Chemscore.Internal_Hbond>
0.0000

> <Gold.Chemscore.DEClash>
0.0476

> <Gold.Chemscore.DEInternal>
0.2639

> <Gold.Chemscore.Rot>
1.2954

> <Gold.Chemscore.Internal.Correction>
   9.000000E+99

> <Gold.Chemscore.Hbonds>
donor molecule, donor type, donor heavy atom, donor atom, acceptor molecule, acceptor atom, score
      P1  H  7997  8009       L1    13  0.96

> <Gold.Chemscore.Hbond.Weighted>
-3.3344

> <Gold.Chemscore.Metal.Weighted>
-0.0000

> <Gold.Chemscore.Lipo.Weighted>
-8.1641

> <Gold.Chemscore.Internal_Hbond.Weighted>
0.0000

> <Gold.Chemscore.DEClash.Weighted>
0.0476

> <Gold.Chemscore.DEInternal.Weighted>
0.2639

> <Gold.Chemscore.Rot.Weighted>
3.3163

> <Gold.Chemscore.Internal.Correction.Weighted>
   9.000000E+99

> <Gold.Protein.RotatedTorsions>
[ 6907 6896 6895 6894 ] final  134.78 input  -60.11 | X-H torsion
[ 7974 7965 7964 7962 ] final  -49.39 input  175.53 | X-H torsion
[ 8008 7997 7996 7995 ] final -156.73 input   59.86 | X-H torsion
[ 10167 10162 10161 10158 ] final  166.61 input  -65.29 | X-H torsion
[ 10718 10713 10712 10709 ] final   50.60 input   66.30 | X-H torsion
[ 10763 10752 10751 10750 ] final  -99.96 input  -60.55 | X-H torsion
[ 11005 11000 10999 10996 ] final  -47.67 input  -57.11 | X-H torsion

> <Gold.Protein.ActiveResidues>
 VAL166  LYS551  ARG553  GLY616  TRP617  ASP618  TYR619  PRO620  LYS621  CYS622 
 ASP623  PHE694  ASN695  SER759  ASP760  ASP761  ALA762  ILE779  LEU786  VAL792 
 PHE793  MET794  SER795  GLU796  ALA797  LYS798  CYS799  TRP800  GLU811  SER814 

> <Gold.Protein.RotatedAtoms>
  152.3076  133.5719  159.5659 H   0  0  0  0  0  0  0  0  0  0  0  0  # atno 6907 bound_to 6896
  150.7307  134.0200  159.3707 H   0  0  0  0  0  0  0  0  0  0  0  0  # atno 6908 bound_to 6896
  151.8095  135.0685  160.0462 H   0  0  0  0  0  0  0  0  0  0  0  0  # atno 6909 bound_to 6896
  145.9411  140.7661  142.9552 H   0  0  0  0  0  0  0  0  0  0  0  0  # atno 7974 bound_to 7965
  155.7217  140.0791  157.2328 H   0  0  0  0  0  0  0  0  0  0  0  0  # atno 8008 bound_to 7997
  154.4044  140.1611  156.2464 H   0  0  0  0  0  0  0  0  0  0  0  0  # atno 8009 bound_to 7997
  155.9190  140.3399  155.6161 H   0  0  0  0  0  0  0  0  0  0  0  0  # atno 8010 bound_to 7997
  139.4928  144.4010  151.9410 H   0  0  0  0  0  0  0  0  0  0  0  0  # atno 10167 bound_to 10162
  157.4900  130.8370  149.8192 H   0  0  0  0  0  0  0  0  0  0  0  0  # atno 10718 bound_to 10713
  154.7541  135.4953  153.9342 H   0  0  0  0  0  0  0  0  0  0  0  0  # atno 10763 bound_to 10752
  153.1176  135.6724  153.9399 H   0  0  0  0  0  0  0  0  0  0  0  0  # atno 10764 bound_to 10752
  153.9141  135.3095  155.3427 H   0  0  0  0  0  0  0  0  0  0  0  0  # atno 10765 bound_to 10752
  141.0655  133.6695  156.3331 H   0  0  0  0  0  0  0  0  0  0  0  0  # atno 11005 bound_to 11000
  144.6779  140.2281  143.7358 LP  0  0  0  0  0  0  0  0  0  0  0  0  # atno 17320 bound_to 7965
  145.8299  139.2081  143.1889 LP  0  0  0  0  0  0  0  0  0  0  0  0  # atno 17321 bound_to 7965
  140.3449  144.3159  150.5960 LP  0  0  0  0  0  0  0  0  0  0  0  0  # atno 17342 bound_to 10162
  140.5535  143.2202  151.7887 LP  0  0  0  0  0  0  0  0  0  0  0  0  # atno 17343 bound_to 10162
  156.0168  130.3810  150.2085 LP  0  0  0  0  0  0  0  0  0  0  0  0  # atno 17370 bound_to 10713
  157.0273  130.9997  151.3322 LP  0  0  0  0  0  0  0  0  0  0  0  0  # atno 17371 bound_to 10713
  140.5782  134.5772  157.5473 LP  0  0  0  0  0  0  0  0  0  0  0  0  # atno 17394 bound_to 11000
  139.9472  134.7681  156.0533 LP  0  0  0  0  0  0  0  0  0  0  0  0  # atno 17395 bound_to 11000

$$$$
