AV-unprocessed.smi:1247|AV-procd|sdf|5245|dock7
  -GOLD-   22720 4353D 1   1.00000     0.00000
 Structure written by MMmdl.
 46 47  0  0  0  0  0  0  0  0  1 V2000
  143.6158  132.6811  149.2382 C   0  0  0  0  0  0  0  0  0  0  0  0
  144.6168  133.2989  150.1691 C   0  0  0  0  0  0  0  0  0  0  0  0
  144.7860  134.6777  150.4863 C   0  0  0  0  0  0  0  0  0  0  0  0
  145.8312  134.6589  151.3693 C   0  0  0  0  0  0  0  0  0  0  0  0
  146.4309  135.7023  152.0028 N   0  0  0  0  0  0  0  0  0  0  0  0
  145.8633  136.6898  152.7177 C   0  0  0  0  0  0  0  0  0  0  0  0
  144.6575  136.8132  152.9336 O   0  0  0  0  0  0  0  0  0  0  0  0
  146.7853  137.5488  153.1763 N   0  0  0  0  0  0  0  0  0  0  0  0
  146.4966  138.7352  153.9736 C   0  0  0  0  0  0  0  0  0  0  0  0
  147.5103  139.8601  153.6909 C   0  0  0  0  0  0  0  0  0  0  0  0
  148.6817  139.8694  154.5648 N   0  0  0  0  0  0  0  0  0  0  0  0
  149.7449  138.9871  154.0934 C   0  0  0  0  0  0  0  0  0  0  0  0
  150.9639  139.0023  155.0345 C   0  0  1  0  0  0  0  0  0  0  0  0
  152.1189  138.1507  154.4975 C   0  0  0  0  0  0  0  0  0  0  0  0
  151.4345  140.3404  155.1854 O   0  0  0  0  0  0  0  0  0  0  0  0
  150.4541  141.2846  155.6182 C   0  0  2  0  0  0  0  0  0  0  0  0
  150.1211  141.1200  157.1109 C   0  0  0  0  0  0  0  0  0  0  0  0
  149.2142  141.2210  154.7045 C   0  0  0  0  0  0  0  0  0  0  0  0
  146.2342  133.3534  151.5522 N   0  0  0  0  0  0  0  0  0  0  0  0
  147.2964  132.8118  152.3777 C   0  0  0  0  0  0  0  0  0  0  0  0
  145.4816  132.5172  150.8052 N   0  0  0  0  0  0  0  0  0  0  0  0
  142.9483  133.4350  148.8205 H   0  0  0  0  0  0  0  0  0  0  0  0
  143.0006  131.9440  149.7547 H   0  0  0  0  0  0  0  0  0  0  0  0
  144.1111  132.1797  148.4065 H   0  0  0  0  0  0  0  0  0  0  0  0
  144.2243  135.5214  150.1144 H   0  0  0  0  0  0  0  0  0  0  0  0
  147.4355  135.7398  151.9125 H   0  0  0  0  0  0  0  0  0  0  0  0
  147.7546  137.3733  152.9556 H   0  0  0  0  0  0  0  0  0  0  0  0
  145.4793  139.0785  153.7776 H   0  0  0  0  0  0  0  0  0  0  0  0
  146.5294  138.4383  155.0215 H   0  0  0  0  0  0  0  0  0  0  0  0
  147.8280  139.8127  152.6483 H   0  0  0  0  0  0  0  0  0  0  0  0
  146.9910  140.8131  153.8008 H   0  0  0  0  0  0  0  0  0  0  0  0
  149.3801  137.9633  154.0190 H   0  0  0  0  0  0  0  0  0  0  0  0
  150.0532  139.2838  153.0896 H   0  0  0  0  0  0  0  0  0  0  0  0
  150.6748  138.6089  156.0095 H   0  0  0  0  0  0  0  0  0  0  0  0
  151.8175  137.1095  154.3794 H   0  0  0  0  0  0  0  0  0  0  0  0
  152.9693  138.1748  155.1794 H   0  0  0  0  0  0  0  0  0  0  0  0
  152.4596  138.5139  153.5274 H   0  0  0  0  0  0  0  0  0  0  0  0
  150.9058  142.2700  155.5008 H   0  0  0  0  0  0  0  0  0  0  0  0
  149.4586  141.9168  157.4498 H   0  0  0  0  0  0  0  0  0  0  0  0
  151.0257  141.1617  157.7178 H   0  0  0  0  0  0  0  0  0  0  0  0
  149.6226  140.1735  157.3180 H   0  0  0  0  0  0  0  0  0  0  0  0
  149.4841  141.6060  153.7197 H   0  0  0  0  0  0  0  0  0  0  0  0
  148.4434  141.8883  155.0921 H   0  0  0  0  0  0  0  0  0  0  0  0
  147.5579  133.5125  153.1706 H   0  0  0  0  0  0  0  0  0  0  0  0
  148.1770  132.6253  151.7625 H   0  0  0  0  0  0  0  0  0  0  0  0
  146.9741  131.8748  152.8334 H   0  0  0  0  0  0  0  0  0  0  0  0
  1  2  1  0  0  0  0
  1 22  1  0  0  0  0
  1 23  1  0  0  0  0
  1 24  1  0  0  0  0
  2 21  2  0  0  0  0
  2  3  1  0  0  0  0
  3  4  2  0  0  0  0
  3 25  1  0  0  0  0
  4  5  1  0  0  0  0
  4 19  1  0  0  0  0
  5  6  1  0  0  0  0
  5 26  1  0  0  0  0
  6  7  2  0  0  0  0
  6  8  1  0  0  0  0
  8  9  1  0  0  0  0
  8 27  1  0  0  0  0
  9 10  1  0  0  0  0
  9 28  1  0  0  0  0
  9 29  1  0  0  0  0
 10 11  1  0  0  0  0
 10 30  1  0  0  0  0
 10 31  1  0  0  0  0
 11 18  1  0  0  0  0
 11 12  1  0  0  0  0
 12 13  1  0  0  0  0
 12 32  1  0  0  0  0
 12 33  1  0  0  0  0
 13 14  1  0  0  0  0
 13 15  1  0  0  0  0
 13 34  1  0  0  0  0
 14 35  1  0  0  0  0
 14 36  1  0  0  0  0
 14 37  1  0  0  0  0
 15 16  1  0  0  0  0
 16 17  1  0  0  0  0
 16 18  1  0  0  0  0
 16 38  1  0  0  0  0
 17 39  1  0  0  0  0
 17 40  1  0  0  0  0
 17 41  1  0  0  0  0
 18 42  1  0  0  0  0
 18 43  1  0  0  0  0
 19 20  1  0  0  0  0
 19 21  1  0  0  0  0
 20 44  1  0  0  0  0
 20 45  1  0  0  0  0
 20 46  1  0  0  0  0
M  END
> <s_m_source_file>
AV-unprocessed.smi

> <i_m_source_file_index>
1247

> <i_lp_mmshare_version>
43012

> <i_f3d_flags>
0

> <s_epik_input>
W0NIM11jMVtjSF1jKG4objEpW0NIM10pW05IXUMoPU8pW05IXVtDSDJdW0NIMl1OMltDSDJdW0NAQEhdKFtDSDNdKU9bQ0BASF0oW0NIM10pW0NIMl0y

> <s_epik_cmdline>
J2VwaWtfcHl0aG9uJywgJy1waCcsICc3LjAnLCAnLXRuJywgJzgnLCAnLW1hJywgJzIwMCcsICctbWV0YWxfYmluZGluZycsICctaW1hZScsICc8aW5maWxlLm1hZT4nLCAnLW9tYWUnLCAnPG91dGZpbGUubWFlPic=

> <r_lp_tautomer_probability>
1

> <r_epik_Ionization_Penalty>
0.233972

> <r_epik_Ionization_Penalty_Charging>
0

> <r_epik_Ionization_Penalty_Neutral>
0.233972

> <r_epik_State_Penalty>
0.224627

> <r_epik_Charging_Adjusted_Penalty>
0.224627

> <i_epik_Tot_Q>
0

> <i_epik_Tot_abs_Q>
0

> <r_epik_Metal_State_Penalty>
0.224624

> <b_epik_Metal_Only>
0

> <s_lp_Force_Field>
OPLS_2005

> <r_lp_Energy>
23.3755

> <b_lp_Chiralities_Consistent>
1

> <s_lp_Variant>
AV-unprocessed.smi:1247-3

> <Gold.Version>
5.8.1

> <Gold.Id.Protein>
6NUR|6NUR_protein|mol2

> <Gold.PLP.Fitness>
44.9454

> <Gold.PLP.PLP>
-38.7691

> <Gold.PLP.part.hbond>
-3.0000

> <Gold.PLP.part.metal>
0.0000

> <Gold.PLP.part.buried>
-2.8647

> <Gold.PLP.part.nonpolar>
-32.5988

> <Gold.PLP.part.repulsive>
0.4788

> <Gold.PLP.ligand.clash>
0.0000

> <Gold.PLP.ligand.torsion>
1.1520

> <Gold.PLP.Chemscore.Hbond>
2.8240

> <Gold.PLP.Chemscore.CHOScore>
0.0000

> <Gold.PLP.Chemscore.Metal>
0.0000

> <Gold.Chemscore.Hbonds>
donor molecule, donor type, donor heavy atom, donor atom, acceptor molecule, acceptor atom, score
      L1  H     5    26       P1  7948  1.00
      L1  H     8    27       P1  7948  0.86
      P1  H  7989  7998       L1    15  0.96

> <Gold.PLP.Chemscore.Internal.Correction>
0.0083

> <Gold.Rescore>
     Score         DG    S(hbond)    S(metal)    S(lipo)     H(rot)  DE(clash)    DE(int)     intcor
     17.32     -18.51       1.98        0.00      87.30       1.48       0.06       1.13       ----

> <Gold.Chemscore.Fitness>
17.3181

> <Gold.Chemscore.DG>
-18.5061

> <Gold.Chemscore.ZeroCoef>
-5.4800

> <Gold.Chemscore.Hbond>
1.9791

> <Gold.Chemscore.Metal>
0.0000

> <Gold.Chemscore.Lipo>
87.3036

> <Gold.Chemscore.Internal_Hbond>
0.0000

> <Gold.Chemscore.DEClash>
0.0615

> <Gold.Chemscore.DEInternal>
1.1265

> <Gold.Chemscore.Rot>
1.4838

> <Gold.Chemscore.Internal.Correction>
   9.000000E+99

> <Gold.Chemscore.Hbonds>
donor molecule, donor type, donor heavy atom, donor atom, acceptor molecule, acceptor atom, score
      L1  H     5    26       P1  7948  0.97
      L1  H     8    27       P1  7948  0.83
      P1  H  7989  7998       L1    15  0.09

> <Gold.Chemscore.Hbond.Weighted>
-6.6100

> <Gold.Chemscore.Metal.Weighted>
-0.0000

> <Gold.Chemscore.Lipo.Weighted>
-10.2145

> <Gold.Chemscore.Internal_Hbond.Weighted>
0.0000

> <Gold.Chemscore.DEClash.Weighted>
0.0615

> <Gold.Chemscore.DEInternal.Weighted>
1.1265

> <Gold.Chemscore.Rot.Weighted>
3.7985

> <Gold.Chemscore.Internal.Correction.Weighted>
   9.000000E+99

> <Gold.Protein.RotatedTorsions>
[ 6907 6896 6895 6894 ] final  -40.52 input  -60.11 | X-H torsion
[ 7974 7965 7964 7962 ] final  114.16 input  175.53 | X-H torsion
[ 8008 7997 7996 7995 ] final -133.30 input   59.86 | X-H torsion
[ 10167 10162 10161 10158 ] final -133.91 input  -65.29 | X-H torsion
[ 10718 10713 10712 10709 ] final  170.74 input   66.30 | X-H torsion
[ 10763 10752 10751 10750 ] final -154.25 input  -60.55 | X-H torsion
[ 11005 11000 10999 10996 ] final    9.56 input  -57.11 | X-H torsion

> <Gold.Protein.ActiveResidues>
 VAL166  LYS551  ARG553  GLY616  TRP617  ASP618  TYR619  PRO620  LYS621  CYS622 
 ASP623  PHE694  ASN695  SER759  ASP760  ASP761  ALA762  ILE779  LEU786  VAL792 
 PHE793  MET794  SER795  GLU796  ALA797  LYS798  CYS799  TRP800  GLU811  SER814 

> <Gold.Protein.RotatedAtoms>
  150.9775  134.9136  159.7824 H   0  0  0  0  0  0  0  0  0  0  0  0  # atno 6907 bound_to 6896
  152.5211  134.3456  159.9243 H   0  0  0  0  0  0  0  0  0  0  0  0  # atno 6908 bound_to 6896
  151.3464  133.3901  159.2710 H   0  0  0  0  0  0  0  0  0  0  0  0  # atno 6909 bound_to 6896
  145.2079  139.2920  143.4284 H   0  0  0  0  0  0  0  0  0  0  0  0  # atno 7974 bound_to 7965
  155.3433  140.0473  157.3045 H   0  0  0  0  0  0  0  0  0  0  0  0  # atno 8008 bound_to 7997
  154.5266  140.2243  155.8844 H   0  0  0  0  0  0  0  0  0  0  0  0  # atno 8009 bound_to 7997
  156.1745  140.3088  155.9040 H   0  0  0  0  0  0  0  0  0  0  0  0  # atno 8010 bound_to 7997
  139.8934  143.6695  152.2608 H   0  0  0  0  0  0  0  0  0  0  0  0  # atno 10167 bound_to 10162
  157.0037  131.0183  151.2823 H   0  0  0  0  0  0  0  0  0  0  0  0  # atno 10718 bound_to 10713
  154.7872  135.3194  154.7860 H   0  0  0  0  0  0  0  0  0  0  0  0  # atno 10763 bound_to 10752
  153.8558  135.6858  153.4792 H   0  0  0  0  0  0  0  0  0  0  0  0  # atno 10764 bound_to 10752
  153.1527  135.4692  154.9600 H   0  0  0  0  0  0  0  0  0  0  0  0  # atno 10765 bound_to 10752
  140.5243  134.0528  155.7854 H   0  0  0  0  0  0  0  0  0  0  0  0  # atno 11005 bound_to 11000
  146.3404  140.2346  142.8594 LP  0  0  0  0  0  0  0  0  0  0  0  0  # atno 17320 bound_to 7965
  144.9884  140.8524  143.5354 LP  0  0  0  0  0  0  0  0  0  0  0  0  # atno 17321 bound_to 7965
  139.7089  144.7623  151.1145 LP  0  0  0  0  0  0  0  0  0  0  0  0  # atno 17342 bound_to 10162
  140.7722  143.5357  150.9371 LP  0  0  0  0  0  0  0  0  0  0  0  0  # atno 17343 bound_to 10162
  157.5372  130.8096  149.7985 LP  0  0  0  0  0  0  0  0  0  0  0  0  # atno 17370 bound_to 10713
  156.0162  130.3813  150.2105 LP  0  0  0  0  0  0  0  0  0  0  0  0  # atno 17371 bound_to 10713
  141.1317  133.9291  157.2522 LP  0  0  0  0  0  0  0  0  0  0  0  0  # atno 17394 bound_to 11000
  139.9588  135.0159  156.9204 LP  0  0  0  0  0  0  0  0  0  0  0  0  # atno 17395 bound_to 11000

$$$$
