AV-unprocessed.smi:1966|AV-procd|sdf|7949|dock7
  -GOLD-   2272010113D 1   1.00000     0.00000
 Structure written by MMmdl.
 53 54  0  0  0  0  0  0  0  0  1 V2000
  148.8971  134.3507  153.9626 C   0  0  0  0  0  0  0  0  0  0  0  0
  147.8170  135.1938  154.6308 C   0  0  0  0  0  0  0  0  0  0  0  0
  147.4983  134.9775  155.7997 O   0  0  0  0  0  0  0  0  0  0  0  0
  147.2597  136.1532  153.8747 N   0  0  0  0  0  0  0  0  0  0  0  0
  146.2172  137.0827  154.3160 C   0  0  1  0  0  0  0  0  0  0  0  0
  146.8611  138.1604  155.2105 C   0  0  0  0  0  0  0  0  0  0  0  0
  146.1466  138.9382  155.8440 O   0  0  0  0  0  0  0  0  0  0  0  0
  148.2060  138.1435  155.2600 N   0  0  0  0  0  0  0  0  0  0  0  0
  149.0845  138.9919  155.9870 C   0  0  0  0  0  0  0  0  0  0  0  0
  150.4292  139.0552  155.5735 C   0  0  0  0  0  0  0  0  0  0  0  0
  151.3234  139.8976  156.2603 C   0  0  0  0  0  0  0  0  0  0  0  0
  150.8479  140.6695  157.3462 C   0  0  0  0  0  0  0  0  0  0  0  0
  151.7267  141.5219  158.0494 N   0  0  0  0  0  0  0  0  0  0  0  0
  151.3641  142.9364  158.0488 C   0  0  0  0  0  0  0  0  0  0  0  0
  152.5343  143.7938  158.5678 C   0  0  1  0  0  0  0  0  0  0  0  0
  152.1485  145.2703  158.7025 C   0  0  0  0  0  0  0  0  0  0  0  0
  152.9349  143.3185  159.8500 O   0  0  0  0  0  0  0  0  0  0  0  0
  153.3934  141.9701  159.8107 C   0  0  1  0  0  0  0  0  0  0  0  0
  153.8900  141.5901  161.2094 C   0  0  0  0  0  0  0  0  0  0  0  0
  152.2442  141.0612  159.3363 C   0  0  0  0  0  0  0  0  0  0  0  0
  149.5519  140.6141  157.7396 N   0  0  0  0  0  0  0  0  0  0  0  0
  148.6969  139.8058  157.0778 C   0  0  0  0  0  0  0  0  0  0  0  0
  145.5663  137.7433  153.0646 C   0  0  0  0  0  0  0  0  0  0  0  0
  145.2762  136.7365  151.9316 C   0  0  0  0  0  0  0  0  0  0  0  0
  146.4309  138.8914  152.5075 C   0  0  0  0  0  0  0  0  0  0  0  0
  149.7119  134.9838  153.6101 H   0  0  0  0  0  0  0  0  0  0  0  0
  148.4845  133.8100  153.1102 H   0  0  0  0  0  0  0  0  0  0  0  0
  149.3088  133.6228  154.6626 H   0  0  0  0  0  0  0  0  0  0  0  0
  147.5915  136.2618  152.9274 H   0  0  0  0  0  0  0  0  0  0  0  0
  145.4532  136.5381  154.8754 H   0  0  0  0  0  0  0  0  0  0  0  0
  148.6535  137.3994  154.7448 H   0  0  0  0  0  0  0  0  0  0  0  0
  150.7781  138.4603  154.7420 H   0  0  0  0  0  0  0  0  0  0  0  0
  152.3590  139.9314  155.9567 H   0  0  0  0  0  0  0  0  0  0  0  0
  151.0874  143.2789  157.0528 H   0  0  0  0  0  0  0  0  0  0  0  0
  150.4879  143.0717  158.6846 H   0  0  0  0  0  0  0  0  0  0  0  0
  153.3781  143.7176  157.8796 H   0  0  0  0  0  0  0  0  0  0  0  0
  151.8485  145.6864  157.7407 H   0  0  0  0  0  0  0  0  0  0  0  0
  152.9876  145.8596  159.0731 H   0  0  0  0  0  0  0  0  0  0  0  0
  151.3182  145.3991  159.3974 H   0  0  0  0  0  0  0  0  0  0  0  0
  154.2309  141.8969  159.1142 H   0  0  0  0  0  0  0  0  0  0  0  0
  154.2592  140.5644  161.2290 H   0  0  0  0  0  0  0  0  0  0  0  0
  153.0922  141.6742  161.9478 H   0  0  0  0  0  0  0  0  0  0  0  0
  154.7049  142.2431  161.5235 H   0  0  0  0  0  0  0  0  0  0  0  0
  151.4362  141.0624  160.0693 H   0  0  0  0  0  0  0  0  0  0  0  0
  152.6054  140.0355  159.2495 H   0  0  0  0  0  0  0  0  0  0  0  0
  147.6803  139.8423  157.4357 H   0  0  0  0  0  0  0  0  0  0  0  0
  144.6104  138.1794  153.3605 H   0  0  0  0  0  0  0  0  0  0  0  0
  146.1858  136.2227  151.6190 H   0  0  0  0  0  0  0  0  0  0  0  0
  144.8637  137.2391  151.0563 H   0  0  0  0  0  0  0  0  0  0  0  0
  144.5502  135.9796  152.2283 H   0  0  0  0  0  0  0  0  0  0  0  0
  147.4216  138.5355  152.2229 H   0  0  0  0  0  0  0  0  0  0  0  0
  146.5615  139.6947  153.2326 H   0  0  0  0  0  0  0  0  0  0  0  0
  145.9721  139.3350  151.6235 H   0  0  0  0  0  0  0  0  0  0  0  0
  1  2  1  0  0  0  0
  1 26  1  0  0  0  0
  1 27  1  0  0  0  0
  1 28  1  0  0  0  0
  2  3  2  0  0  0  0
  2  4  1  0  0  0  0
  4  5  1  0  0  0  0
  4 29  1  0  0  0  0
  5  6  1  0  0  0  0
  5 23  1  0  0  0  0
  5 30  1  0  0  0  0
  6  7  2  0  0  0  0
  6  8  1  0  0  0  0
  8  9  1  0  0  0  0
  8 31  1  0  0  0  0
  9 22  1  0  0  0  0
  9 10  2  0  0  0  0
 10 11  1  0  0  0  0
 10 32  1  0  0  0  0
 11 12  2  0  0  0  0
 11 33  1  0  0  0  0
 12 13  1  0  0  0  0
 12 21  1  0  0  0  0
 13 20  1  0  0  0  0
 13 14  1  0  0  0  0
 14 15  1  0  0  0  0
 14 34  1  0  0  0  0
 14 35  1  0  0  0  0
 15 16  1  0  0  0  0
 15 17  1  0  0  0  0
 15 36  1  0  0  0  0
 16 37  1  0  0  0  0
 16 38  1  0  0  0  0
 16 39  1  0  0  0  0
 17 18  1  0  0  0  0
 18 19  1  0  0  0  0
 18 20  1  0  0  0  0
 18 40  1  0  0  0  0
 19 41  1  0  0  0  0
 19 42  1  0  0  0  0
 19 43  1  0  0  0  0
 20 44  1  0  0  0  0
 20 45  1  0  0  0  0
 21 22  2  0  0  0  0
 22 46  1  0  0  0  0
 23 24  1  0  0  0  0
 23 25  1  0  0  0  0
 23 47  1  0  0  0  0
 24 48  1  0  0  0  0
 24 49  1  0  0  0  0
 24 50  1  0  0  0  0
 25 51  1  0  0  0  0
 25 52  1  0  0  0  0
 25 53  1  0  0  0  0
M  END
> <s_m_source_file>
AV-unprocessed.smi

> <i_m_source_file_index>
1966

> <i_lp_mmshare_version>
43012

> <i_f3d_flags>
0

> <s_epik_input>
W0NIM11DKD1PKVtOSF1bQ0BASF0oW0NIXShbQ0gzXSlbQ0gzXSlDKD1PKVtOSF1jMVtjSF1bY0hdYyhuW2NIXTEpTjJbQ0gyXVtDQEBIXShbQ0gzXSlPW0NAQEhdKFtDSDNdKVtDSDJdMg==

> <s_epik_cmdline>
J2VwaWtfcHl0aG9uJywgJy1waCcsICc3LjAnLCAnLXRuJywgJzgnLCAnLW1hJywgJzIwMCcsICctbWV0YWxfYmluZGluZycsICctaW1hZScsICc8aW5maWxlLm1hZT4nLCAnLW9tYWUnLCAnPG91dGZpbGUubWFlPic=

> <r_lp_tautomer_probability>
1

> <r_epik_Ionization_Penalty>
0.000679699

> <r_epik_Ionization_Penalty_Charging>
0

> <r_epik_Ionization_Penalty_Neutral>
0.000679699

> <r_epik_State_Penalty>
0.000430485

> <r_epik_Charging_Adjusted_Penalty>
0.000430485

> <i_epik_Tot_Q>
0

> <i_epik_Tot_abs_Q>
0

> <r_epik_Metal_State_Penalty>
-0

> <b_epik_Metal_Only>
0

> <s_lp_Force_Field>
OPLS_2005

> <r_lp_Energy>
24.6084

> <b_lp_Chiralities_Consistent>
1

> <s_lp_Variant>
AV-unprocessed.smi:1966-2

> <Gold.Version>
5.8.1

> <Gold.Id.Protein>
6NUR|6NUR_protein|mol2

> <Gold.PLP.Fitness>
39.7106

> <Gold.PLP.PLP>
-38.4251

> <Gold.PLP.part.hbond>
-0.9257

> <Gold.PLP.part.metal>
0.0000

> <Gold.PLP.part.buried>
-3.6127

> <Gold.PLP.part.nonpolar>
-33.0643

> <Gold.PLP.part.repulsive>
0.0809

> <Gold.PLP.ligand.clash>
0.0000

> <Gold.PLP.ligand.torsion>
1.0400

> <Gold.PLP.Chemscore.Hbond>
1.0000

> <Gold.PLP.Chemscore.CHOScore>
0.0000

> <Gold.PLP.Chemscore.Metal>
0.0000

> <Gold.Chemscore.Hbonds>
donor molecule, donor type, donor heavy atom, donor atom, acceptor molecule, acceptor atom, score
      L1  H     4    29       P1  7948  0.94

> <Gold.PLP.Chemscore.Internal.Correction>
0.3656

> <Gold.Rescore>
     Score         DG    S(hbond)    S(metal)    S(lipo)     H(rot)  DE(clash)    DE(int)     intcor
     13.62     -16.13       1.00        0.00      99.17       1.68       0.05       2.46       ----

> <Gold.Chemscore.Fitness>
13.6186

> <Gold.Chemscore.DG>
-16.1331

> <Gold.Chemscore.ZeroCoef>
-5.4800

> <Gold.Chemscore.Hbond>
1.0000

> <Gold.Chemscore.Metal>
0.0000

> <Gold.Chemscore.Lipo>
99.1742

> <Gold.Chemscore.Internal_Hbond>
0.0000

> <Gold.Chemscore.DEClash>
0.0529

> <Gold.Chemscore.DEInternal>
2.4616

> <Gold.Chemscore.Rot>
1.6759

> <Gold.Chemscore.Internal.Correction>
   9.000000E+99

> <Gold.Chemscore.Hbonds>
donor molecule, donor type, donor heavy atom, donor atom, acceptor molecule, acceptor atom, score
      L1  H     4    29       P1  7948  0.91

> <Gold.Chemscore.Hbond.Weighted>
-3.3399

> <Gold.Chemscore.Metal.Weighted>
-0.0000

> <Gold.Chemscore.Lipo.Weighted>
-11.6034

> <Gold.Chemscore.Internal_Hbond.Weighted>
0.0000

> <Gold.Chemscore.DEClash.Weighted>
0.0529

> <Gold.Chemscore.DEInternal.Weighted>
2.4616

> <Gold.Chemscore.Rot.Weighted>
4.2902

> <Gold.Chemscore.Internal.Correction.Weighted>
   9.000000E+99

> <Gold.Protein.RotatedTorsions>
[ 6907 6896 6895 6894 ] final  153.02 input  -60.11 | X-H torsion
[ 7974 7965 7964 7962 ] final  134.36 input  175.53 | X-H torsion
[ 8008 7997 7996 7995 ] final   47.06 input   59.86 | X-H torsion
[ 10167 10162 10161 10158 ] final  155.77 input  -65.29 | X-H torsion
[ 10718 10713 10712 10709 ] final  177.52 input   66.30 | X-H torsion
[ 10763 10752 10751 10750 ] final  162.41 input  -60.55 | X-H torsion
[ 11005 11000 10999 10996 ] final  -28.49 input  -57.11 | X-H torsion

> <Gold.Protein.ActiveResidues>
 VAL166  LYS551  ARG553  GLY616  TRP617  ASP618  TYR619  PRO620  LYS621  CYS622 
 ASP623  PHE694  ASN695  SER759  ASP760  ASP761  ALA762  ILE779  LEU786  VAL792 
 PHE793  MET794  SER795  GLU796  ALA797  LYS798  CYS799  TRP800  GLU811  SER814 

> <Gold.Protein.RotatedAtoms>
  152.0785  133.4141  159.4490 H   0  0  0  0  0  0  0  0  0  0  0  0  # atno 6907 bound_to 6896
  150.6862  134.3009  159.4715 H   0  0  0  0  0  0  0  0  0  0  0  0  # atno 6908 bound_to 6896
  152.0848  134.9446  160.0623 H   0  0  0  0  0  0  0  0  0  0  0  0  # atno 6909 bound_to 6896
  144.9771  139.4543  143.5404 H   0  0  0  0  0  0  0  0  0  0  0  0  # atno 7974 bound_to 7965
  155.3628  140.3419  155.4241 H   0  0  0  0  0  0  0  0  0  0  0  0  # atno 8008 bound_to 7997
  156.1705  140.1630  156.8491 H   0  0  0  0  0  0  0  0  0  0  0  0  # atno 8009 bound_to 7997
  154.5228  140.0763  156.8186 H   0  0  0  0  0  0  0  0  0  0  0  0  # atno 8010 bound_to 7997
  139.4821  144.5069  151.8084 H   0  0  0  0  0  0  0  0  0  0  0  0  # atno 10167 bound_to 10162
  156.9041  130.9888  151.3031 H   0  0  0  0  0  0  0  0  0  0  0  0  # atno 10718 bound_to 10713
  154.2779  135.2764  155.2710 H   0  0  0  0  0  0  0  0  0  0  0  0  # atno 10763 bound_to 10752
  154.5244  135.5747  153.6710 H   0  0  0  0  0  0  0  0  0  0  0  0  # atno 10764 bound_to 10752
  152.9934  135.6212  154.2937 H   0  0  0  0  0  0  0  0  0  0  0  0  # atno 10765 bound_to 10752
  140.9213  133.7397  156.0805 H   0  0  0  0  0  0  0  0  0  0  0  0  # atno 11005 bound_to 11000
  146.3398  139.9020  142.8793 LP  0  0  0  0  0  0  0  0  0  0  0  0  # atno 17320 bound_to 7965
  145.2474  141.0032  143.3900 LP  0  0  0  0  0  0  0  0  0  0  0  0  # atno 17321 bound_to 7965
  140.4568  144.1778  150.5902 LP  0  0  0  0  0  0  0  0  0  0  0  0  # atno 17342 bound_to 10162
  140.4527  143.2480  151.9326 LP  0  0  0  0  0  0  0  0  0  0  0  0  # atno 17343 bound_to 10162
  157.6008  130.8511  149.8799 LP  0  0  0  0  0  0  0  0  0  0  0  0  # atno 17370 bound_to 10713
  156.0567  130.3707  150.1074 LP  0  0  0  0  0  0  0  0  0  0  0  0  # atno 17371 bound_to 10713
  140.7984  134.3537  157.5446 LP  0  0  0  0  0  0  0  0  0  0  0  0  # atno 17394 bound_to 11000
  139.8776  134.9183  156.3198 LP  0  0  0  0  0  0  0  0  0  0  0  0  # atno 17395 bound_to 11000

$$$$
