AV-unprocessed.smi:2569|AV-procd|sdf|10104|dock1
  -GOLD-   2272014123D 1   1.00000     0.00000
 Structure written by MMmdl.
 40 42  0  0  0  0  0  0  0  0  2 V2000
  151.9627  144.8480  160.6880 C   0  0  0  0  0  0  0  0  0  0  0  0
  151.8639  143.7201  159.6747 C   0  0  0  0  0  0  0  0  0  0  0  0
  151.0620  143.9125  158.5274 C   0  0  0  0  0  0  0  0  0  0  0  0
  150.9936  142.8639  157.6178 C   0  0  0  0  0  0  0  0  0  0  0  0
  150.3002  142.7453  156.4116 N   0  3  0  0  0  0  0  0  0  0  0  0
  150.5407  141.5205  155.8678 C   0  0  0  0  0  0  0  0  0  0  0  0
  151.3795  140.8551  156.7077 N   0  0  0  0  0  0  0  0  0  0  0  0
  151.9422  139.5021  156.5884 C   0  0  0  0  0  0  0  0  0  0  0  0
  151.2867  138.4969  157.5545 C   0  0  2  0  0  0  0  0  0  0  0  0
  152.1956  137.4568  157.8635 O   0  0  0  0  0  0  0  0  0  0  0  0
  149.9900  137.9031  156.9712 C   0  0  0  0  0  0  0  0  0  0  0  0
  149.7076  136.5702  157.4780 N   0  0  0  0  0  0  0  0  0  0  0  0
  149.4566  136.3677  158.7948 N   0  0  0  0  0  0  0  0  0  0  0  0
  149.2413  135.0921  158.9428 N   0  0  0  0  0  0  0  0  0  0  0  0
  149.3419  134.4220  157.7378 N   0  0  0  0  0  0  0  0  0  0  0  0
  149.6307  135.3803  156.8671 C   0  0  0  0  0  0  0  0  0  0  0  0
  149.8454  135.1827  155.4027 C   0  0  0  0  0  0  0  0  0  0  0  0
  151.6885  141.6544  157.8155 C   0  0  0  0  0  0  0  0  0  0  0  0
  152.4813  141.4483  158.9427 C   0  0  0  0  0  0  0  0  0  0  0  0
  152.5639  142.5030  159.8799 C   0  0  0  0  0  0  0  0  0  0  0  0
  153.4216  142.3059  161.1186 C   0  0  0  0  0  0  0  0  0  0  0  0
  151.3406  145.6968  160.4022 H   0  0  0  0  0  0  0  0  0  0  0  0
  152.9914  145.2003  160.7678 H   0  0  0  0  0  0  0  0  0  0  0  0
  151.6338  144.5121  161.6715 H   0  0  0  0  0  0  0  0  0  0  0  0
  150.5254  144.8359  158.3649 H   0  0  0  0  0  0  0  0  0  0  0  0
  150.1371  141.1443  154.9387 H   0  0  0  0  0  0  0  0  0  0  0  0
  151.7830  139.1803  155.5585 H   0  0  0  0  0  0  0  0  0  0  0  0
  153.0223  139.5428  156.7296 H   0  0  0  0  0  0  0  0  0  0  0  0
  151.0520  139.0124  158.4868 H   0  0  0  0  0  0  0  0  0  0  0  0
  151.7302  136.6347  157.8506 H   0  0  0  0  0  0  0  0  0  0  0  0
  149.1420  138.5446  157.2155 H   0  0  0  0  0  0  0  0  0  0  0  0
  150.0420  137.8652  155.8828 H   0  0  0  0  0  0  0  0  0  0  0  0
  149.7798  134.1246  155.1482 H   0  0  0  0  0  0  0  0  0  0  0  0
  150.8308  135.5476  155.1134 H   0  0  0  0  0  0  0  0  0  0  0  0
  149.0875  135.7236  154.8359 H   0  0  0  0  0  0  0  0  0  0  0  0
  153.0130  140.5227  159.1043 H   0  0  0  0  0  0  0  0  0  0  0  0
  153.8985  141.3252  161.1230 H   0  0  0  0  0  0  0  0  0  0  0  0
  152.8141  142.3840  162.0204 H   0  0  0  0  0  0  0  0  0  0  0  0
  154.2088  143.0588  161.1639 H   0  0  0  0  0  0  0  0  0  0  0  0
  149.7047  143.4462  155.9893 H   0  0  0  0  0  0  0  0  0  0  0  0
  1  2  1  0  0  0  0
  1 22  1  0  0  0  0
  1 23  1  0  0  0  0
  1 24  1  0  0  0  0
  2 20  1  0  0  0  0
  2  3  2  0  0  0  0
  3  4  1  0  0  0  0
  3 25  1  0  0  0  0
  4 18  2  0  0  0  0
  4  5  1  0  0  0  0
  5  6  2  0  0  0  0
  5 40  1  0  0  0  0
  6  7  1  0  0  0  0
  6 26  1  0  0  0  0
  7  8  1  0  0  0  0
  7 18  1  0  0  0  0
  8  9  1  0  0  0  0
  8 27  1  0  0  0  0
  8 28  1  0  0  0  0
  9 10  1  0  0  0  0
  9 11  1  0  0  0  0
  9 29  1  0  0  0  0
 10 30  1  0  0  0  0
 11 12  1  0  0  0  0
 11 31  1  0  0  0  0
 11 32  1  0  0  0  0
 12 16  1  0  0  0  0
 12 13  1  0  0  0  0
 13 14  2  0  0  0  0
 14 15  1  0  0  0  0
 15 16  2  0  0  0  0
 16 17  1  0  0  0  0
 17 33  1  0  0  0  0
 17 34  1  0  0  0  0
 17 35  1  0  0  0  0
 18 19  1  0  0  0  0
 19 20  2  0  0  0  0
 19 36  1  0  0  0  0
 20 21  1  0  0  0  0
 21 37  1  0  0  0  0
 21 38  1  0  0  0  0
 21 39  1  0  0  0  0
M  CHG  1   5   1
M  END
> <s_m_source_file>
AV-unprocessed.smi

> <i_m_source_file_index>
2569

> <i_lp_mmshare_version>
43012

> <i_f3d_flags>
0

> <s_epik_input>
W0NIM11jKFtjSF0xKWMoW0NIM10pW2NIXWMoYzEyKW4oW2NIXW4yKVtDSDJdW0NASF0oW09IXSlbQ0gyXW4zbm5uYzNbQ0gzXQ==

> <s_epik_cmdline>
J2VwaWtfcHl0aG9uJywgJy1waCcsICc3LjAnLCAnLXRuJywgJzgnLCAnLW1hJywgJzIwMCcsICctbWV0YWxfYmluZGluZycsICctaW1hZScsICc8aW5maWxlLm1hZT4nLCAnLW9tYWUnLCAnPG91dGZpbGUubWFlPic=

> <r_lp_tautomer_probability>
1

> <r_epik_Ionization_Penalty>
1.13338

> <r_epik_Ionization_Penalty_Charging>
1.13335

> <r_epik_Ionization_Penalty_Neutral>
3.02334e-05

> <r_epik_State_Penalty>
1.19324

> <r_epik_Charging_Adjusted_Penalty>
2.3266

> <i_epik_Tot_Q>
1

> <i_epik_Tot_abs_Q>
1

> <r_epik_Metal_State_Penalty>
1.27602

> <b_epik_Metal_Only>
0

> <s_lp_Force_Field>
OPLS_2005

> <r_lp_Energy>
15.9129

> <b_lp_Chiralities_Consistent>
1

> <s_lp_Variant>
AV-unprocessed.smi:2569-3

> <Gold.Version>
5.8.1

> <Gold.Id.Protein>
6NUR|6NUR_protein|mol2

> <Gold.PLP.Fitness>
45.6943

> <Gold.PLP.PLP>
-38.3282

> <Gold.PLP.part.hbond>
-3.4198

> <Gold.PLP.part.metal>
0.0000

> <Gold.PLP.part.buried>
-6.0801

> <Gold.PLP.part.nonpolar>
-30.2229

> <Gold.PLP.part.repulsive>
0.0851

> <Gold.PLP.ligand.clash>
0.0000

> <Gold.PLP.ligand.torsion>
0.8312

> <Gold.PLP.Chemscore.Hbond>
3.0000

> <Gold.PLP.Chemscore.CHOScore>
0.0000

> <Gold.PLP.Chemscore.Metal>
0.0000

> <Gold.Chemscore.Hbonds>
donor molecule, donor type, donor heavy atom, donor atom, acceptor molecule, acceptor atom, score
      L1  H     5    40       P1  8028  2.00
      P1  H  6896  6908       L1    14  0.90

> <Gold.PLP.Chemscore.Internal.Correction>
0.0285

> <Gold.Rescore>
     Score         DG    S(hbond)    S(metal)    S(lipo)     H(rot)  DE(clash)    DE(int)     intcor
     13.75     -14.57       1.15        0.00     101.52       2.59       0.05       0.78       ----

> <Gold.Chemscore.Fitness>
13.7457

> <Gold.Chemscore.DG>
-14.5732

> <Gold.Chemscore.ZeroCoef>
-5.4800

> <Gold.Chemscore.Hbond>
1.1479

> <Gold.Chemscore.Metal>
0.0000

> <Gold.Chemscore.Lipo>
101.5191

> <Gold.Chemscore.Internal_Hbond>
0.0000

> <Gold.Chemscore.DEClash>
0.0490

> <Gold.Chemscore.DEInternal>
0.7785

> <Gold.Chemscore.Rot>
2.5854

> <Gold.Chemscore.Internal.Correction>
   9.000000E+99

> <Gold.Chemscore.Hbonds>
donor molecule, donor type, donor heavy atom, donor atom, acceptor molecule, acceptor atom, score
      L1  H     5    40       P1  8028  0.95
      P1  H  6896  6908       L1    14  0.05

> <Gold.Chemscore.Hbond.Weighted>
-3.8341

> <Gold.Chemscore.Metal.Weighted>
-0.0000

> <Gold.Chemscore.Lipo.Weighted>
-11.8777

> <Gold.Chemscore.Internal_Hbond.Weighted>
0.0000

> <Gold.Chemscore.DEClash.Weighted>
0.0490

> <Gold.Chemscore.DEInternal.Weighted>
0.7785

> <Gold.Chemscore.Rot.Weighted>
6.6187

> <Gold.Chemscore.Internal.Correction.Weighted>
   9.000000E+99

> <Gold.Protein.RotatedTorsions>
[ 6907 6896 6895 6894 ] final  173.42 input  -60.11 | X-H torsion
[ 7974 7965 7964 7962 ] final   57.68 input  175.53 | X-H torsion
[ 8008 7997 7996 7995 ] final   96.63 input   59.86 | X-H torsion
[ 10167 10162 10161 10158 ] final  160.61 input  -65.29 | X-H torsion
[ 10718 10713 10712 10709 ] final   74.56 input   66.30 | X-H torsion
[ 10763 10752 10751 10750 ] final -117.06 input  -60.55 | X-H torsion
[ 11005 11000 10999 10996 ] final    5.73 input  -57.11 | X-H torsion

> <Gold.Protein.ActiveResidues>
 VAL166  LYS551  ARG553  GLY616  TRP617  ASP618  TYR619  PRO620  LYS621  CYS622 
 ASP623  PHE694  ASN695  SER759  ASP760  ASP761  ALA762  ILE779  LEU786  VAL792 
 PHE793  MET794  SER795  GLU796  ALA797  LYS798  CYS799  TRP800  GLU811  SER814 

> <Gold.Protein.RotatedAtoms>
  151.7685  133.3339  159.3437 H   0  0  0  0  0  0  0  0  0  0  0  0  # atno 6907 bound_to 6896
  150.7470  134.6040  159.6061 H   0  0  0  0  0  0  0  0  0  0  0  0  # atno 6908 bound_to 6896
  152.3357  134.7203  160.0329 H   0  0  0  0  0  0  0  0  0  0  0  0  # atno 6909 bound_to 6896
  145.9265  139.3772  143.0447 H   0  0  0  0  0  0  0  0  0  0  0  0  # atno 7974 bound_to 7965
  156.0816  140.3270  155.7701 H   0  0  0  0  0  0  0  0  0  0  0  0  # atno 8008 bound_to 7997
  155.5143  140.0580  157.2935 H   0  0  0  0  0  0  0  0  0  0  0  0  # atno 8009 bound_to 7997
  154.4585  140.1955  156.0327 H   0  0  0  0  0  0  0  0  0  0  0  0  # atno 8010 bound_to 7997
  139.4841  144.4617  151.8696 H   0  0  0  0  0  0  0  0  0  0  0  0  # atno 10167 bound_to 10162
  157.6597  130.9683  150.1228 H   0  0  0  0  0  0  0  0  0  0  0  0  # atno 10718 bound_to 10713
  154.8542  135.4323  154.1920 H   0  0  0  0  0  0  0  0  0  0  0  0  # atno 10763 bound_to 10752
  153.2986  135.6967  153.7230 H   0  0  0  0  0  0  0  0  0  0  0  0  # atno 10764 bound_to 10752
  153.6369  135.3475  155.3033 H   0  0  0  0  0  0  0  0  0  0  0  0  # atno 10765 bound_to 10752
  140.5674  134.0135  155.7995 H   0  0  0  0  0  0  0  0  0  0  0  0  # atno 11005 bound_to 11000
  145.8482  140.9543  143.0763 LP  0  0  0  0  0  0  0  0  0  0  0  0  # atno 17320 bound_to 7965
  144.6759  140.0373  143.7481 LP  0  0  0  0  0  0  0  0  0  0  0  0  # atno 17321 bound_to 7965
  140.4080  144.2407  150.5890 LP  0  0  0  0  0  0  0  0  0  0  0  0  # atno 17342 bound_to 10162
  140.4994  143.2322  151.8701 LP  0  0  0  0  0  0  0  0  0  0  0  0  # atno 17343 bound_to 10162
  156.2095  130.3665  149.8688 LP  0  0  0  0  0  0  0  0  0  0  0  0  # atno 17370 bound_to 10713
  156.6570  130.8767  151.3541 LP  0  0  0  0  0  0  0  0  0  0  0  0  # atno 17371 bound_to 10713
  141.1077  133.9667  157.2967 LP  0  0  0  0  0  0  0  0  0  0  0  0  # atno 17394 bound_to 11000
  139.9378  135.0194  156.8612 LP  0  0  0  0  0  0  0  0  0  0  0  0  # atno 17395 bound_to 11000

$$$$
