AV-unprocessed.smi:1833|AV-procd|sdf|7467|dock6
  -GOLD-   22720 9163D 1   1.00000     0.00000
 Structure written by MMmdl.
 42 43  0  0  0  0  0  0  0  0  2 V2000
  145.7868  132.2262  150.7705 C   0  0  0  0  0  0  0  0  0  0  0  0
  146.6617  133.4877  150.8118 C   0  0  0  0  0  0  0  0  0  0  0  0
  147.0814  133.8384  152.1916 N   0  3  1  0  0  0  0  0  0  0  0  0
  145.9266  134.1592  153.0707 C   0  0  0  0  0  0  0  0  0  0  0  0
  146.3963  134.6646  154.4461 C   0  0  0  0  0  0  0  0  0  0  0  0
  147.3564  133.6656  155.1135 C   0  0  0  0  0  0  0  0  0  0  0  0
  148.5184  133.3051  154.1710 C   0  0  2  0  0  0  0  0  0  0  0  0
  149.4056  134.4576  154.0110 N   0  0  0  0  0  0  0  0  0  0  0  0
  150.0398  135.0882  155.0089 C   0  0  0  0  0  0  0  0  0  0  0  0
  149.9755  134.7444  156.1889 O   0  0  0  0  0  0  0  0  0  0  0  0
  150.7396  136.1429  154.5665 N   0  0  0  0  0  0  0  0  0  0  0  0
  151.5106  137.0571  155.4060 C   0  0  0  0  0  0  0  0  0  0  0  0
  151.8099  138.3955  154.7036 C   0  0  0  0  0  0  0  0  0  0  0  0
  151.4658  139.6038  155.5143 C   0  0  0  0  0  0  0  0  0  0  0  0
  150.7768  140.6409  155.0302 N   0  0  0  0  0  0  0  0  0  0  0  0
  150.6204  141.6636  155.9687 C   0  0  0  0  0  0  0  0  0  0  0  0
  151.2073  141.3917  157.1783 C   0  0  0  0  0  0  0  0  0  0  0  0
  151.9822  139.8317  157.1832 S   0  0  0  0  0  0  0  0  0  0  0  0
  147.9616  132.8150  152.8159 C   0  0  0  0  0  0  0  0  0  0  0  0
  145.5653  131.9476  149.7401 H   0  0  0  0  0  0  0  0  0  0  0  0
  144.8328  132.3697  151.2768 H   0  0  0  0  0  0  0  0  0  0  0  0
  146.2921  131.3810  151.2387 H   0  0  0  0  0  0  0  0  0  0  0  0
  147.5466  133.2956  150.2038 H   0  0  0  0  0  0  0  0  0  0  0  0
  146.1473  134.3317  150.3498 H   0  0  0  0  0  0  0  0  0  0  0  0
  145.3065  134.9252  152.6033 H   0  0  0  0  0  0  0  0  0  0  0  0
  145.3007  133.2730  153.1881 H   0  0  0  0  0  0  0  0  0  0  0  0
  146.8893  135.6306  154.3302 H   0  0  0  0  0  0  0  0  0  0  0  0
  145.5349  134.8381  155.0919 H   0  0  0  0  0  0  0  0  0  0  0  0
  147.7350  134.0723  156.0523 H   0  0  0  0  0  0  0  0  0  0  0  0
  146.8080  132.7590  155.3723 H   0  0  0  0  0  0  0  0  0  0  0  0
  149.0934  132.4991  154.6307 H   0  0  0  0  0  0  0  0  0  0  0  0
  149.5115  134.8243  153.0762 H   0  0  0  0  0  0  0  0  0  0  0  0
  150.7241  136.3432  153.5771 H   0  0  0  0  0  0  0  0  0  0  0  0
  150.9969  137.2391  156.3513 H   0  0  0  0  0  0  0  0  0  0  0  0
  152.4493  136.5662  155.6631 H   0  0  0  0  0  0  0  0  0  0  0  0
  152.8679  138.4427  154.4431 H   0  0  0  0  0  0  0  0  0  0  0  0
  151.2620  138.4470  153.7622 H   0  0  0  0  0  0  0  0  0  0  0  0
  150.0764  142.5540  155.6899 H   0  0  0  0  0  0  0  0  0  0  0  0
  151.2308  142.0121  158.0618 H   0  0  0  0  0  0  0  0  0  0  0  0
  147.3958  131.8929  152.9591 H   0  0  0  0  0  0  0  0  0  0  0  0
  148.7859  132.5627  152.1504 H   0  0  0  0  0  0  0  0  0  0  0  0
  147.6243  134.6868  152.1167 H   0  0  0  0  0  0  0  0  0  0  0  0
  1  2  1  0  0  0  0
  1 20  1  0  0  0  0
  1 21  1  0  0  0  0
  1 22  1  0  0  0  0
  2  3  1  0  0  0  0
  2 23  1  0  0  0  0
  2 24  1  0  0  0  0
  3 19  1  0  0  0  0
  3  4  1  0  0  0  0
  3 42  1  0  0  0  0
  4  5  1  0  0  0  0
  4 25  1  0  0  0  0
  4 26  1  0  0  0  0
  5  6  1  0  0  0  0
  5 27  1  0  0  0  0
  5 28  1  0  0  0  0
  6  7  1  0  0  0  0
  6 29  1  0  0  0  0
  6 30  1  0  0  0  0
  7  8  1  0  0  0  0
  7 19  1  0  0  0  0
  7 31  1  0  0  0  0
  8  9  1  0  0  0  0
  8 32  1  0  0  0  0
  9 10  2  0  0  0  0
  9 11  1  0  0  0  0
 11 12  1  0  0  0  0
 11 33  1  0  0  0  0
 12 13  1  0  0  0  0
 12 34  1  0  0  0  0
 12 35  1  0  0  0  0
 13 14  1  0  0  0  0
 13 36  1  0  0  0  0
 13 37  1  0  0  0  0
 14 18  1  0  0  0  0
 14 15  2  0  0  0  0
 15 16  1  0  0  0  0
 16 17  2  0  0  0  0
 16 38  1  0  0  0  0
 17 18  1  0  0  0  0
 17 39  1  0  0  0  0
 19 40  1  0  0  0  0
 19 41  1  0  0  0  0
M  CHG  1   3   1
M  END
> <s_m_source_file>
AV-unprocessed.smi

> <i_m_source_file_index>
1833

> <i_lp_mmshare_version>
43012

> <i_f3d_flags>
0

> <s_epik_input>
W0NIM11bQ0gyXU4xW0NIMl1bQ0gyXVtDSDJdW0NASF0oW0NIMl0xKVtOSF1DKD1PKVtOSF1bQ0gyXVtDSDJdYzJuW2NIXVtjSF1zMg==

> <s_epik_cmdline>
J2VwaWtfcHl0aG9uJywgJy1waCcsICc3LjAnLCAnLXRuJywgJzgnLCAnLW1hJywgJzIwMCcsICctbWV0YWxfYmluZGluZycsICctaW1hZScsICc8aW5maWxlLm1hZT4nLCAnLW9tYWUnLCAnPG91dGZpbGUubWFlPic=

> <r_lp_tautomer_probability>
1

> <r_epik_Ionization_Penalty>
0.00269629

> <r_epik_Ionization_Penalty_Charging>
0.00233899

> <r_epik_Ionization_Penalty_Neutral>
0.000357304

> <r_epik_State_Penalty>
-0

> <r_epik_Charging_Adjusted_Penalty>
0.00233899

> <i_epik_Tot_Q>
1

> <i_epik_Tot_abs_Q>
1

> <r_epik_Metal_State_Penalty>
-0

> <b_epik_Metal_Only>
0

> <s_lp_Force_Field>
OPLS_2005

> <r_lp_Energy>
15.7918

> <b_lp_Chiralities_Consistent>
1

> <s_lp_Variant>
AV-unprocessed.smi:1833-3

> <Gold.Version>
5.8.1

> <Gold.Id.Protein>
6NUR|6NUR_protein|mol2

> <Gold.PLP.Fitness>
44.4852

> <Gold.PLP.PLP>
-32.1371

> <Gold.PLP.part.hbond>
-4.2775

> <Gold.PLP.part.metal>
0.0000

> <Gold.PLP.part.buried>
-3.1428

> <Gold.PLP.part.nonpolar>
-24.8880

> <Gold.PLP.part.repulsive>
0.2346

> <Gold.PLP.ligand.clash>
0.0000

> <Gold.PLP.ligand.torsion>
0.6056

> <Gold.PLP.Chemscore.Hbond>
3.5001

> <Gold.PLP.Chemscore.CHOScore>
1.0000

> <Gold.PLP.Chemscore.Metal>
0.0000

> <Gold.Chemscore.Hbonds>
donor molecule, donor type, donor heavy atom, donor atom, acceptor molecule, acceptor atom, score
      L1  H     3    42       P1  7948  2.00
      L1  H     8    32       P1  7948  0.14
      L1  H    11    33       P1  7949  0.41
      P1  H  7989  7998       L1    15  0.94
      L1  C    16    38       P1  8028  1.00

> <Gold.PLP.Chemscore.Internal.Correction>
0.0592

> <Gold.Rescore>
     Score         DG    S(hbond)    S(metal)    S(lipo)     H(rot)  DE(clash)    DE(int)     intcor
     14.51     -15.24       1.80        0.00      69.53       1.71       0.07       0.66       ----

> <Gold.Chemscore.Fitness>
14.5066

> <Gold.Chemscore.DG>
-15.2413

> <Gold.Chemscore.ZeroCoef>
-5.4800

> <Gold.Chemscore.Hbond>
1.8012

> <Gold.Chemscore.Metal>
0.0000

> <Gold.Chemscore.Lipo>
69.5290

> <Gold.Chemscore.Internal_Hbond>
0.0000

> <Gold.Chemscore.DEClash>
0.0739

> <Gold.Chemscore.DEInternal>
0.6609

> <Gold.Chemscore.Rot>
1.7147

> <Gold.Chemscore.Internal.Correction>
   9.000000E+99

> <Gold.Chemscore.Hbonds>
donor molecule, donor type, donor heavy atom, donor atom, acceptor molecule, acceptor atom, score
      L1  H     3    42       P1  7948  0.67
      L1  H    11    33       P1  7949  0.03
      P1  H  7989  7998       L1    15  0.23

> <Gold.Chemscore.Hbond.Weighted>
-6.0160

> <Gold.Chemscore.Metal.Weighted>
-0.0000

> <Gold.Chemscore.Lipo.Weighted>
-8.1349

> <Gold.Chemscore.Internal_Hbond.Weighted>
0.0000

> <Gold.Chemscore.DEClash.Weighted>
0.0739

> <Gold.Chemscore.DEInternal.Weighted>
0.6609

> <Gold.Chemscore.Rot.Weighted>
4.3896

> <Gold.Chemscore.Internal.Correction.Weighted>
   9.000000E+99

> <Gold.Protein.RotatedTorsions>
[ 6907 6896 6895 6894 ] final  -20.95 input  -60.11 | X-H torsion
[ 7974 7965 7964 7962 ] final  115.34 input  175.53 | X-H torsion
[ 8008 7997 7996 7995 ] final  -69.12 input   59.86 | X-H torsion
[ 10167 10162 10161 10158 ] final  171.46 input  -65.29 | X-H torsion
[ 10718 10713 10712 10709 ] final -156.89 input   66.30 | X-H torsion
[ 10763 10752 10751 10750 ] final  -94.03 input  -60.55 | X-H torsion
[ 11005 11000 10999 10996 ] final    8.40 input  -57.11 | X-H torsion

> <Gold.Protein.ActiveResidues>
 VAL166  LYS551  ARG553  GLY616  TRP617  ASP618  TYR619  PRO620  LYS621  CYS622 
 ASP623  PHE694  ASN695  SER759  ASP760  ASP761  ALA762  ILE779  LEU786  VAL792 
 PHE793  MET794  SER795  GLU796  ALA797  LYS798  CYS799  TRP800  GLU811  SER814 

> <Gold.Protein.RotatedAtoms>
  151.2406  135.0587  159.9023 H   0  0  0  0  0  0  0  0  0  0  0  0  # atno 6907 bound_to 6896
  152.5393  134.0438  159.8090 H   0  0  0  0  0  0  0  0  0  0  0  0  # atno 6908 bound_to 6896
  151.0632  133.5478  159.2664 H   0  0  0  0  0  0  0  0  0  0  0  0  # atno 6909 bound_to 6896
  145.1932  139.2989  143.4357 H   0  0  0  0  0  0  0  0  0  0  0  0  # atno 7974 bound_to 7965
  154.4916  140.0859  156.7606 H   0  0  0  0  0  0  0  0  0  0  0  0  # atno 8008 bound_to 7997
  155.4218  140.3446  155.4254 H   0  0  0  0  0  0  0  0  0  0  0  0  # atno 8009 bound_to 7997
  156.1337  140.1509  156.9015 H   0  0  0  0  0  0  0  0  0  0  0  0  # atno 8010 bound_to 7997
  139.5047  144.3483  151.9948 H   0  0  0  0  0  0  0  0  0  0  0  0  # atno 10167 bound_to 10162
  156.5328  130.8528  151.2722 H   0  0  0  0  0  0  0  0  0  0  0  0  # atno 10718 bound_to 10713
  154.7016  135.5173  153.8534 H   0  0  0  0  0  0  0  0  0  0  0  0  # atno 10763 bound_to 10752
  153.0708  135.6600  154.0261 H   0  0  0  0  0  0  0  0  0  0  0  0  # atno 10764 bound_to 10752
  154.0119  135.3001  155.3371 H   0  0  0  0  0  0  0  0  0  0  0  0  # atno 10765 bound_to 10752
  140.5374  134.0407  155.7893 H   0  0  0  0  0  0  0  0  0  0  0  0  # atno 11005 bound_to 11000
  146.3432  140.2152  142.8590 LP  0  0  0  0  0  0  0  0  0  0  0  0  # atno 17320 bound_to 7965
  145.0021  140.8640  143.5275 LP  0  0  0  0  0  0  0  0  0  0  0  0  # atno 17321 bound_to 7965
  140.2920  144.3743  150.6085 LP  0  0  0  0  0  0  0  0  0  0  0  0  # atno 17342 bound_to 10162
  140.5939  143.2167  151.7201 LP  0  0  0  0  0  0  0  0  0  0  0  0  # atno 17343 bound_to 10162
  157.7419  130.9879  150.2476 LP  0  0  0  0  0  0  0  0  0  0  0  0  # atno 17370 bound_to 10713
  156.3044  130.3763  149.7720 LP  0  0  0  0  0  0  0  0  0  0  0  0  # atno 17371 bound_to 10713
  141.1246  133.9404  157.2660 LP  0  0  0  0  0  0  0  0  0  0  0  0  # atno 17394 bound_to 11000
  139.9522  135.0173  156.9025 LP  0  0  0  0  0  0  0  0  0  0  0  0  # atno 17395 bound_to 11000

$$$$
