AV-unprocessed.smi:2188|AV-procd|sdf|8880|dock1
  -GOLD-   2272012 83D 1   1.00000     0.00000
 Structure written by MMmdl.
 39 41  0  0  0  0  0  0  0  0  1 V2000
  151.5486  140.6864  155.5842 O   0  0  0  0  0  0  0  0  0  0  0  0
  150.9170  141.5795  156.1516 C   0  0  0  0  0  0  0  0  0  0  0  0
  149.7067  141.9785  155.7149 N   0  0  0  0  0  0  0  0  0  0  0  0
  148.9739  141.4172  154.5828 C   0  0  0  0  0  0  0  0  0  0  0  0
  147.5817  140.9015  154.9932 C   0  0  0  0  0  0  0  0  0  0  0  0
  146.5199  141.9867  155.0330 C   0  0  0  0  0  0  0  0  0  0  0  0
  146.1702  142.7064  153.8714 C   0  0  0  0  0  0  0  0  0  0  0  0
  145.1937  143.7160  153.9673 C   0  0  0  0  0  0  0  0  0  0  0  0
  144.6043  143.9614  155.2237 C   0  0  0  0  0  0  0  0  0  0  0  0
  144.9283  143.2766  156.3415 N   0  0  0  0  0  0  0  0  0  0  0  0
  145.8683  142.3124  156.2415 C   0  0  0  0  0  0  0  0  0  0  0  0
  151.3741  142.3064  157.3474 C   0  0  0  0  0  0  0  0  0  0  0  0
  150.9087  143.5637  157.5686 C   0  0  0  0  0  0  0  0  0  0  0  0
  151.3236  144.3350  158.7142 C   0  0  0  0  0  0  0  0  0  0  0  0
  152.1683  143.7673  159.5819 C   0  0  0  0  0  0  0  0  0  0  0  0
  152.6608  142.4717  159.4330 N   0  0  0  0  0  0  0  0  0  0  0  0
  153.5044  141.9597  160.5085 C   0  0  0  0  0  0  0  0  0  0  0  0
  154.6441  141.1306  159.9441 C   0  0  0  0  0  0  0  0  0  0  0  0
  153.8583  139.7063  159.1092 S   0  0  0  0  0  0  0  0  0  0  0  0
  154.8940  138.9964  158.3432 O   0  0  0  0  0  0  0  0  0  0  0  0
  153.0662  138.9708  160.1075 O   0  0  0  0  0  0  0  0  0  0  0  0
  152.8233  140.5060  158.0635 N   0  0  0  0  0  0  0  0  0  0  0  0
  152.3198  141.6852  158.2961 C   0  0  0  0  0  0  0  0  0  0  0  0
  149.2498  142.7218  156.2226 H   0  0  0  0  0  0  0  0  0  0  0  0
  148.8645  142.2002  153.8322 H   0  0  0  0  0  0  0  0  0  0  0  0
  149.5450  140.6195  154.1051 H   0  0  0  0  0  0  0  0  0  0  0  0
  147.2630  140.1161  154.3065 H   0  0  0  0  0  0  0  0  0  0  0  0
  147.6401  140.4356  155.9775 H   0  0  0  0  0  0  0  0  0  0  0  0
  146.6476  142.4967  152.9254 H   0  0  0  0  0  0  0  0  0  0  0  0
  144.9046  144.2907  153.1000 H   0  0  0  0  0  0  0  0  0  0  0  0
  143.8521  144.7285  155.3335 H   0  0  0  0  0  0  0  0  0  0  0  0
  146.1112  141.7878  157.1540 H   0  0  0  0  0  0  0  0  0  0  0  0
  150.2007  144.0243  156.8944 H   0  0  0  0  0  0  0  0  0  0  0  0
  150.9634  145.3417  158.8667 H   0  0  0  0  0  0  0  0  0  0  0  0
  152.5136  144.2941  160.4598 H   0  0  0  0  0  0  0  0  0  0  0  0
  153.9245  142.7806  161.0906 H   0  0  0  0  0  0  0  0  0  0  0  0
  152.8963  141.3700  161.1952 H   0  0  0  0  0  0  0  0  0  0  0  0
  155.2428  141.6894  159.2239 H   0  0  0  0  0  0  0  0  0  0  0  0
  155.3020  140.7579  160.7289 H   0  0  0  0  0  0  0  0  0  0  0  0
  1  2  2  0  0  0  0
  2  3  1  0  0  0  0
  2 12  1  0  0  0  0
  3  4  1  0  0  0  0
  3 24  1  0  0  0  0
  4  5  1  0  0  0  0
  4 25  1  0  0  0  0
  4 26  1  0  0  0  0
  5  6  1  0  0  0  0
  5 27  1  0  0  0  0
  5 28  1  0  0  0  0
  6 11  1  0  0  0  0
  6  7  2  0  0  0  0
  7  8  1  0  0  0  0
  7 29  1  0  0  0  0
  8  9  2  0  0  0  0
  8 30  1  0  0  0  0
  9 10  1  0  0  0  0
  9 31  1  0  0  0  0
 10 11  2  0  0  0  0
 11 32  1  0  0  0  0
 12 23  1  0  0  0  0
 12 13  2  0  0  0  0
 13 14  1  0  0  0  0
 13 33  1  0  0  0  0
 14 15  2  0  0  0  0
 14 34  1  0  0  0  0
 15 16  1  0  0  0  0
 15 35  1  0  0  0  0
 16 23  1  0  0  0  0
 16 17  1  0  0  0  0
 17 18  1  0  0  0  0
 17 36  1  0  0  0  0
 17 37  1  0  0  0  0
 18 19  1  0  0  0  0
 18 38  1  0  0  0  0
 18 39  1  0  0  0  0
 19 20  2  0  0  0  0
 19 21  2  0  0  0  0
 19 22  1  0  0  0  0
 22 23  2  0  0  0  0
M  END
> <s_m_source_file>
AV-unprocessed.smi

> <i_m_source_file_index>
2188

> <i_lp_mmshare_version>
43012

> <i_f3d_flags>
0

> <s_epik_input>
W0NIMl0xW0NIMl1TKD1PKSg9TylOPUMoTjEyKUMoPVtDSF1bQ0hdPVtDSF0yKUMoPU8pW05IXVtDSDJdW0NIMl1jM1tjSF1bY0hdW2NIXW5bY0hdMw==

> <s_epik_cmdline>
J2VwaWtfcHl0aG9uJywgJy1waCcsICc3LjAnLCAnLXRuJywgJzgnLCAnLW1hJywgJzIwMCcsICctbWV0YWxfYmluZGluZycsICctaW1hZScsICc8aW5maWxlLm1hZT4nLCAnLW9tYWUnLCAnPG91dGZpbGUubWFlPic=

> <r_epik_Ionization_Penalty>
0.00945125

> <r_epik_Ionization_Penalty_Charging>
8.06468e-09

> <r_epik_Ionization_Penalty_Neutral>
0.00945124

> <r_epik_State_Penalty>
0.0071398

> <r_epik_Charging_Adjusted_Penalty>
0.0071398

> <i_epik_Tot_Q>
0

> <i_epik_Tot_abs_Q>
0

> <r_epik_Metal_State_Penalty>
0.0479458

> <b_epik_Metal_Only>
0

> <s_lp_Force_Field>
OPLS_2005

> <r_lp_Energy>
29.0495

> <b_lp_Chiralities_Consistent>
1

> <s_lp_Variant>
AV-unprocessed.smi:2188-1

> <Gold.Version>
5.8.1

> <Gold.Id.Protein>
6NUR|6NUR_protein|mol2

> <Gold.PLP.Fitness>
52.4642

> <Gold.PLP.PLP>
-47.4908

> <Gold.PLP.part.hbond>
-4.0000

> <Gold.PLP.part.metal>
0.0000

> <Gold.PLP.part.buried>
-2.3719

> <Gold.PLP.part.nonpolar>
-39.6643

> <Gold.PLP.part.repulsive>
0.2686

> <Gold.PLP.ligand.clash>
1.1141

> <Gold.PLP.ligand.torsion>
0.4289

> <Gold.PLP.Chemscore.Hbond>
2.2064

> <Gold.PLP.Chemscore.CHOScore>
0.0000

> <Gold.PLP.Chemscore.Metal>
0.0000

> <Gold.Chemscore.Hbonds>
donor molecule, donor type, donor heavy atom, donor atom, acceptor molecule, acceptor atom, score
      L1  H     3    24       P1  8028  0.49
      P1  H  7989  7998       L1     1  0.63
      P1  H  7997  8010       L1    20  0.91

> <Gold.PLP.Chemscore.Internal.Correction>
0.3261

> <Gold.Rescore>
     Score         DG    S(hbond)    S(metal)    S(lipo)     H(rot)  DE(clash)    DE(int)     intcor
     17.07     -19.09       1.67        0.00     100.89       1.47       0.18       1.84       ----

> <Gold.Chemscore.Fitness>
17.0688

> <Gold.Chemscore.DG>
-19.0905

> <Gold.Chemscore.ZeroCoef>
-5.4800

> <Gold.Chemscore.Hbond>
1.6658

> <Gold.Chemscore.Metal>
0.0000

> <Gold.Chemscore.Lipo>
100.8939

> <Gold.Chemscore.Internal_Hbond>
0.0000

> <Gold.Chemscore.DEClash>
0.1823

> <Gold.Chemscore.DEInternal>
1.8395

> <Gold.Chemscore.Rot>
1.4679

> <Gold.Chemscore.Internal.Correction>
   9.000000E+99

> <Gold.Chemscore.Hbonds>
donor molecule, donor type, donor heavy atom, donor atom, acceptor molecule, acceptor atom, score
      L1  H     3    24       P1  8028  0.48
      P1  H  7989  7998       L1     1  0.54
      P1  H  7997  8010       L1    20  0.42

> <Gold.Chemscore.Hbond.Weighted>
-5.5637

> <Gold.Chemscore.Metal.Weighted>
-0.0000

> <Gold.Chemscore.Lipo.Weighted>
-11.8046

> <Gold.Chemscore.Internal_Hbond.Weighted>
0.0000

> <Gold.Chemscore.DEClash.Weighted>
0.1823

> <Gold.Chemscore.DEInternal.Weighted>
1.8395

> <Gold.Chemscore.Rot.Weighted>
3.7578

> <Gold.Chemscore.Internal.Correction.Weighted>
   9.000000E+99

> <Gold.Protein.RotatedTorsions>
[ 6907 6896 6895 6894 ] final  -86.16 input  -60.11 | X-H torsion
[ 7974 7965 7964 7962 ] final  173.52 input  175.53 | X-H torsion
[ 8008 7997 7996 7995 ] final  -16.93 input   59.86 | X-H torsion
[ 10167 10162 10161 10158 ] final    3.57 input  -65.29 | X-H torsion
[ 10718 10713 10712 10709 ] final  106.90 input   66.30 | X-H torsion
[ 10763 10752 10751 10750 ] final  -74.67 input  -60.55 | X-H torsion
[ 11005 11000 10999 10996 ] final    2.89 input  -57.11 | X-H torsion

> <Gold.Protein.ActiveResidues>
 VAL166  LYS551  ARG553  GLY616  TRP617  ASP618  TYR619  PRO620  LYS621  CYS622 
 ASP623  PHE694  ASN695  SER759  ASP760  ASP761  ALA762  ILE779  LEU786  VAL792 
 PHE793  MET794  SER795  GLU796  ALA797  LYS798  CYS799  TRP800  GLU811  SER814 

> <Gold.Protein.RotatedAtoms>
  150.6867  134.3093  159.4739 H   0  0  0  0  0  0  0  0  0  0  0  0  # atno 6907 bound_to 6896
  152.0980  134.9358  160.0579 H   0  0  0  0  0  0  0  0  0  0  0  0  # atno 6908 bound_to 6896
  152.0648  133.4044  159.4470 H   0  0  0  0  0  0  0  0  0  0  0  0  # atno 6909 bound_to 6896
  144.7242  139.9660  143.6436 H   0  0  0  0  0  0  0  0  0  0  0  0  # atno 7974 bound_to 7965
  154.5016  140.2156  155.9335 H   0  0  0  0  0  0  0  0  0  0  0  0  # atno 8008 bound_to 7997
  156.1441  140.3174  155.8510 H   0  0  0  0  0  0  0  0  0  0  0  0  # atno 8009 bound_to 7997
  155.4064  140.0487  157.3025 H   0  0  0  0  0  0  0  0  0  0  0  0  # atno 8010 bound_to 7997
  140.6579  143.7380  150.7686 H   0  0  0  0  0  0  0  0  0  0  0  0  # atno 10167 bound_to 10162
  157.6650  131.0861  150.6075 H   0  0  0  0  0  0  0  0  0  0  0  0  # atno 10718 bound_to 10713
  154.4762  135.5856  153.6357 H   0  0  0  0  0  0  0  0  0  0  0  0  # atno 10763 bound_to 10752
  152.9841  135.6079  154.3304 H   0  0  0  0  0  0  0  0  0  0  0  0  # atno 10764 bound_to 10752
  154.3190  135.2844  155.2508 H   0  0  0  0  0  0  0  0  0  0  0  0  # atno 10765 bound_to 10752
  140.5993  133.9851  155.8124 H   0  0  0  0  0  0  0  0  0  0  0  0  # atno 11005 bound_to 11000
  146.0600  139.3594  143.0587 LP  0  0  0  0  0  0  0  0  0  0  0  0  # atno 17320 bound_to 7965
  145.8104  140.9728  143.0951 LP  0  0  0  0  0  0  0  0  0  0  0  0  # atno 17321 bound_to 7965
  140.1043  143.4758  152.2407 LP  0  0  0  0  0  0  0  0  0  0  0  0  # atno 17342 bound_to 10162
  139.5805  144.7508  151.3651 LP  0  0  0  0  0  0  0  0  0  0  0  0  # atno 17343 bound_to 10162
  156.6376  130.4449  149.5764 LP  0  0  0  0  0  0  0  0  0  0  0  0  # atno 17370 bound_to 10713
  156.2233  130.6750  151.1391 LP  0  0  0  0  0  0  0  0  0  0  0  0  # atno 17371 bound_to 10713
  141.0883  133.9956  157.3278 LP  0  0  0  0  0  0  0  0  0  0  0  0  # atno 17394 bound_to 11000
  139.9239  135.0201  156.8166 LP  0  0  0  0  0  0  0  0  0  0  0  0  # atno 17395 bound_to 11000

$$$$
