AV-unprocessed.smi:1593|AV-procd|sdf|6411|dock5
  -GOLD-   22720 7 43D 1   1.00000     0.00000
 Structure written by MMmdl.
 35 36  0  0  0  0  0  0  0  0  2 V2000
  148.8027  134.4576  154.4996 C   0  0  0  0  0  0  0  0  0  0  0  0
  149.8430  135.3539  155.0796 C   0  0  0  0  0  0  0  0  0  0  0  0
  150.1159  136.6828  154.9199 C   0  0  0  0  0  0  0  0  0  0  0  0
  151.2462  136.8855  155.7583 C   0  0  0  0  0  0  0  0  0  0  0  0
  151.8868  138.0480  155.9554 N   0  5  0  0  0  0  0  0  0  0  0  0
  151.3882  139.1973  155.4436 C   0  0  0  0  0  0  0  0  0  0  0  0
  151.0266  139.3841  154.2794 O   0  0  0  0  0  0  0  0  0  0  0  0
  151.3038  140.1934  156.3350 N   0  0  0  0  0  0  0  0  0  0  0  0
  150.8251  141.5405  156.0496 C   0  0  0  0  0  0  0  0  0  0  0  0
  150.4208  142.2682  157.3441 C   0  0  0  0  0  0  0  0  0  0  0  0
  151.5291  142.6831  158.2056 N   0  0  0  0  0  0  0  0  0  0  0  0
  151.2254  143.8862  158.9772 C   0  0  0  0  0  0  0  0  0  0  0  0
  152.3956  144.2914  159.8907 C   0  0  0  0  0  0  0  0  0  0  0  0
  152.7346  143.2058  160.7478 O   0  0  0  0  0  0  0  0  0  0  0  0
  153.0843  142.0284  160.0274 C   0  0  0  0  0  0  0  0  0  0  0  0
  151.9127  141.6142  159.1207 C   0  0  0  0  0  0  0  0  0  0  0  0
  151.6150  135.7808  156.3850 N   0  0  0  0  0  0  0  0  0  0  0  0
  150.7243  134.7922  155.9501 O   0  0  0  0  0  0  0  0  0  0  0  0
  147.8053  134.8602  154.6761 H   0  0  0  0  0  0  0  0  0  0  0  0
  148.8484  133.4627  154.9434 H   0  0  0  0  0  0  0  0  0  0  0  0
  148.9412  134.3543  153.4234 H   0  0  0  0  0  0  0  0  0  0  0  0
  149.5946  137.3960  154.2994 H   0  0  0  0  0  0  0  0  0  0  0  0
  151.6158  140.0076  157.2770 H   0  0  0  0  0  0  0  0  0  0  0  0
  151.5866  142.1027  155.5081 H   0  0  0  0  0  0  0  0  0  0  0  0
  149.9616  141.4724  155.3869 H   0  0  0  0  0  0  0  0  0  0  0  0
  149.8102  143.1359  157.0907 H   0  0  0  0  0  0  0  0  0  0  0  0
  149.7678  141.6003  157.9073 H   0  0  0  0  0  0  0  0  0  0  0  0
  151.0034  144.7182  158.3095 H   0  0  0  0  0  0  0  0  0  0  0  0
  150.3330  143.7222  159.5832 H   0  0  0  0  0  0  0  0  0  0  0  0
  153.2646  144.5809  159.2978 H   0  0  0  0  0  0  0  0  0  0  0  0
  152.1211  145.1538  160.4983 H   0  0  0  0  0  0  0  0  0  0  0  0
  153.9847  142.2074  159.4375 H   0  0  0  0  0  0  0  0  0  0  0  0
  153.3170  141.2327  160.7351 H   0  0  0  0  0  0  0  0  0  0  0  0
  151.0593  141.3340  159.7401 H   0  0  0  0  0  0  0  0  0  0  0  0
  152.1932  140.7252  158.5545 H   0  0  0  0  0  0  0  0  0  0  0  0
  1  2  1  0  0  0  0
  1 19  1  0  0  0  0
  1 20  1  0  0  0  0
  1 21  1  0  0  0  0
  2 18  1  0  0  0  0
  2  3  2  0  0  0  0
  3  4  1  0  0  0  0
  3 22  1  0  0  0  0
  4  5  1  0  0  0  0
  4 17  2  0  0  0  0
  5  6  1  0  0  0  0
  6  7  2  0  0  0  0
  6  8  1  0  0  0  0
  8  9  1  0  0  0  0
  8 23  1  0  0  0  0
  9 10  1  0  0  0  0
  9 24  1  0  0  0  0
  9 25  1  0  0  0  0
 10 11  1  0  0  0  0
 10 26  1  0  0  0  0
 10 27  1  0  0  0  0
 11 16  1  0  0  0  0
 11 12  1  0  0  0  0
 12 13  1  0  0  0  0
 12 28  1  0  0  0  0
 12 29  1  0  0  0  0
 13 14  1  0  0  0  0
 13 30  1  0  0  0  0
 13 31  1  0  0  0  0
 14 15  1  0  0  0  0
 15 16  1  0  0  0  0
 15 32  1  0  0  0  0
 15 33  1  0  0  0  0
 16 34  1  0  0  0  0
 16 35  1  0  0  0  0
 17 18  1  0  0  0  0
M  CHG  1   5  -1
M  END
> <s_m_source_file>
AV-unprocessed.smi

> <i_m_source_file_index>
1593

> <i_lp_mmshare_version>
43012

> <i_f3d_flags>
0

> <s_epik_input>
W0NIM11jMVtjSF1jKG5vMSlbTkhdQyg9TylbTkhdW0NIMl1bQ0gyXU4yW0NIMl1bQ0gyXU9bQ0gyXVtDSDJdMg==

> <s_epik_cmdline>
J2VwaWtfcHl0aG9uJywgJy1waCcsICc3LjAnLCAnLXRuJywgJzgnLCAnLW1hJywgJzIwMCcsICctbWV0YWxfYmluZGluZycsICctaW1hZScsICc8aW5maWxlLm1hZT4nLCAnLW9tYWUnLCAnPG91dGZpbGUubWFlPic=

> <r_epik_Ionization_Penalty>
6.88366

> <r_epik_Ionization_Penalty_Charging>
6.57198

> <r_epik_Ionization_Penalty_Neutral>
0.311678

> <r_epik_State_Penalty>
6.77619

> <r_epik_Charging_Adjusted_Penalty>
13.3482

> <i_epik_Tot_Q>
-1

> <i_epik_Tot_abs_Q>
1

> <r_epik_Metal_State_Penalty>
2.70533

> <b_epik_Metal_Only>
1

> <s_lp_Force_Field>
OPLS_2005

> <r_lp_Energy>
18.6523

> <b_lp_Chiralities_Consistent>
1

> <s_lp_Variant>
AV-unprocessed.smi:1593-3

> <Gold.Version>
5.8.1

> <Gold.Id.Protein>
6NUR|6NUR_protein|mol2

> <Gold.PLP.Fitness>
34.8598

> <Gold.PLP.PLP>
-30.9159

> <Gold.PLP.part.hbond>
-2.3207

> <Gold.PLP.part.metal>
0.0000

> <Gold.PLP.part.buried>
-5.4914

> <Gold.PLP.part.nonpolar>
-24.6012

> <Gold.PLP.part.repulsive>
0.3702

> <Gold.PLP.ligand.clash>
0.0000

> <Gold.PLP.ligand.torsion>
0.9677

> <Gold.PLP.Chemscore.Hbond>
1.9500

> <Gold.PLP.Chemscore.CHOScore>
0.0000

> <Gold.PLP.Chemscore.Metal>
0.0000

> <Gold.Chemscore.Hbonds>
donor molecule, donor type, donor heavy atom, donor atom, acceptor molecule, acceptor atom, score
      P1  H  7989  7998       L1     7  1.00
      P1  H 10752 10764       L1    17  0.58

> <Gold.PLP.Chemscore.Internal.Correction>
0.0292

> <Gold.Rescore>
     Score         DG    S(hbond)    S(metal)    S(lipo)     H(rot)  DE(clash)    DE(int)     intcor
     13.39     -14.99       1.69        0.00      67.37       1.57       0.03       1.57       ----

> <Gold.Chemscore.Fitness>
13.3932

> <Gold.Chemscore.DG>
-14.9940

> <Gold.Chemscore.ZeroCoef>
-5.4800

> <Gold.Chemscore.Hbond>
1.6943

> <Gold.Chemscore.Metal>
0.0000

> <Gold.Chemscore.Lipo>
67.3680

> <Gold.Chemscore.Internal_Hbond>
0.0000

> <Gold.Chemscore.DEClash>
0.0259

> <Gold.Chemscore.DEInternal>
1.5749

> <Gold.Chemscore.Rot>
1.5731

> <Gold.Chemscore.Internal.Correction>
   9.000000E+99

> <Gold.Chemscore.Hbonds>
donor molecule, donor type, donor heavy atom, donor atom, acceptor molecule, acceptor atom, score
      P1  H  7989  7998       L1     7  0.94
      P1  H 10752 10764       L1    17  0.06

> <Gold.Chemscore.Hbond.Weighted>
-5.6591

> <Gold.Chemscore.Metal.Weighted>
-0.0000

> <Gold.Chemscore.Lipo.Weighted>
-7.8821

> <Gold.Chemscore.Internal_Hbond.Weighted>
0.0000

> <Gold.Chemscore.DEClash.Weighted>
0.0259

> <Gold.Chemscore.DEInternal.Weighted>
1.5749

> <Gold.Chemscore.Rot.Weighted>
4.0271

> <Gold.Chemscore.Internal.Correction.Weighted>
   9.000000E+99

> <Gold.Protein.RotatedTorsions>
[ 6907 6896 6895 6894 ] final  -22.48 input  -60.11 | X-H torsion
[ 7974 7965 7964 7962 ] final   34.31 input  175.53 | X-H torsion
[ 8008 7997 7996 7995 ] final -105.23 input   59.86 | X-H torsion
[ 10167 10162 10161 10158 ] final -116.10 input  -65.29 | X-H torsion
[ 10718 10713 10712 10709 ] final  123.23 input   66.30 | X-H torsion
[ 10763 10752 10751 10750 ] final   -5.83 input  -60.55 | X-H torsion
[ 11005 11000 10999 10996 ] final   84.26 input  -57.11 | X-H torsion

> <Gold.Protein.ActiveResidues>
 VAL166  LYS551  ARG553  GLY616  TRP617  ASP618  TYR619  PRO620  LYS621  CYS622 
 ASP623  PHE694  ASN695  SER759  ASP760  ASP761  ALA762  ILE779  LEU786  VAL792 
 PHE793  MET794  SER795  GLU796  ALA797  LYS798  CYS799  TRP800  GLU811  SER814 

> <Gold.Protein.RotatedAtoms>
  151.2180  135.0507  159.8937 H   0  0  0  0  0  0  0  0  0  0  0  0  # atno 6907 bound_to 6896
  152.5418  134.0671  159.8188 H   0  0  0  0  0  0  0  0  0  0  0  0  # atno 6908 bound_to 6896
  151.0834  133.5324  159.2651 H   0  0  0  0  0  0  0  0  0  0  0  0  # atno 6909 bound_to 6896
  146.1362  139.6286  142.9194 H   0  0  0  0  0  0  0  0  0  0  0  0  # atno 7974 bound_to 7965
  154.8968  140.0414  157.1870 H   0  0  0  0  0  0  0  0  0  0  0  0  # atno 8008 bound_to 7997
  154.8484  140.2925  155.5593 H   0  0  0  0  0  0  0  0  0  0  0  0  # atno 8009 bound_to 7997
  156.2995  140.2469  156.3438 H   0  0  0  0  0  0  0  0  0  0  0  0  # atno 8010 bound_to 7997
  140.0829  143.4771  152.1915 H   0  0  0  0  0  0  0  0  0  0  0  0  # atno 10167 bound_to 10162
  157.5681  131.1085  150.8417 H   0  0  0  0  0  0  0  0  0  0  0  0  # atno 10718 bound_to 10713
  153.4039  135.7005  153.6407 H   0  0  0  0  0  0  0  0  0  0  0  0  # atno 10763 bound_to 10752
  153.4929  135.3669  155.2501 H   0  0  0  0  0  0  0  0  0  0  0  0  # atno 10764 bound_to 10752
  154.8712  135.4093  154.3379 H   0  0  0  0  0  0  0  0  0  0  0  0  # atno 10765 bound_to 10752
  139.9006  134.8203  156.2420 H   0  0  0  0  0  0  0  0  0  0  0  0  # atno 11005 bound_to 11000
  145.5151  141.0434  143.2466 LP  0  0  0  0  0  0  0  0  0  0  0  0  # atno 17320 bound_to 7965
  144.7742  139.6667  143.7182 LP  0  0  0  0  0  0  0  0  0  0  0  0  # atno 17321 bound_to 7965
  139.5769  144.7492  151.3742 LP  0  0  0  0  0  0  0  0  0  0  0  0  # atno 17342 bound_to 10162
  140.7068  143.7492  150.7496 LP  0  0  0  0  0  0  0  0  0  0  0  0  # atno 17343 bound_to 10162
  156.8896  130.5208  149.5287 LP  0  0  0  0  0  0  0  0  0  0  0  0  # atno 17370 bound_to 10713
  156.0728  130.5757  150.9416 LP  0  0  0  0  0  0  0  0  0  0  0  0  # atno 17371 bound_to 10713
  141.0278  133.7005  156.1378 LP  0  0  0  0  0  0  0  0  0  0  0  0  # atno 17394 bound_to 11000
  140.7140  134.4431  157.5580 LP  0  0  0  0  0  0  0  0  0  0  0  0  # atno 17395 bound_to 11000

$$$$
