AV-unprocessed.smi:1693|AV-procd|sdf|6786|dock8
  -GOLD-   22720 7543D 1   1.00000     0.00000
 Structure written by MMmdl.
 35 36  0  0  0  0  0  0  0  0  2 V2000
  145.6629  133.2854  162.5158 C   0  0  0  0  0  0  0  0  0  0  0  0
  146.5538  134.1783  161.7220 C   0  0  0  0  0  0  0  0  0  0  0  0
  146.7751  134.0013  160.4173 N   0  0  0  0  0  0  0  0  0  0  0  0
  147.6351  134.9585  159.8986 N   0  0  0  0  0  0  0  0  0  0  0  0
  148.0451  135.8486  160.8134 C   0  0  0  0  0  0  0  0  0  0  0  0
  148.8838  136.8543  160.5139 N   0  5  0  0  0  0  0  0  0  0  0  0
  149.6602  136.7814  159.4087 C   0  0  0  0  0  0  0  0  0  0  0  0
  149.6644  135.8680  158.5802 O   0  0  0  0  0  0  0  0  0  0  0  0
  150.4743  137.8359  159.2516 N   0  0  0  0  0  0  0  0  0  0  0  0
  151.4254  138.0490  158.1605 C   0  0  0  0  0  0  0  0  0  0  0  0
  152.2945  139.3200  158.3406 C   0  0  0  0  0  0  0  0  0  0  0  0
  153.0650  139.4577  157.1595 O   0  0  0  0  0  0  0  0  0  0  0  0
  151.3759  140.5625  158.4378 C   0  0  0  0  0  0  0  0  0  0  0  0
  152.1462  141.8706  158.6920 C   0  0  0  0  0  0  0  0  0  0  0  0
  153.0360  141.7586  159.9370 C   0  0  0  0  0  0  0  0  0  0  0  0
  153.9998  140.5709  159.8143 C   0  0  0  0  0  0  0  0  0  0  0  0
  153.2431  139.2538  159.5655 C   0  0  0  0  0  0  0  0  0  0  0  0
  147.3964  135.5483  162.4258 S   0  0  0  0  0  0  0  0  0  0  0  0
  144.6195  133.5031  162.2879 H   0  0  0  0  0  0  0  0  0  0  0  0
  145.8277  133.4361  163.5827 H   0  0  0  0  0  0  0  0  0  0  0  0
  145.8654  132.2412  162.2765 H   0  0  0  0  0  0  0  0  0  0  0  0
  150.4257  138.5610  159.9521 H   0  0  0  0  0  0  0  0  0  0  0  0
  152.0601  137.1651  158.0863 H   0  0  0  0  0  0  0  0  0  0  0  0
  150.8911  138.1001  157.2106 H   0  0  0  0  0  0  0  0  0  0  0  0
  152.5634  139.1157  156.4358 H   0  0  0  0  0  0  0  0  0  0  0  0
  150.7756  140.6610  157.5322 H   0  0  0  0  0  0  0  0  0  0  0  0
  150.6659  140.4192  159.2538 H   0  0  0  0  0  0  0  0  0  0  0  0
  152.7582  142.1164  157.8234 H   0  0  0  0  0  0  0  0  0  0  0  0
  151.4430  142.6950  158.8128 H   0  0  0  0  0  0  0  0  0  0  0  0
  153.5981  142.6820  160.0780 H   0  0  0  0  0  0  0  0  0  0  0  0
  152.4135  141.6353  160.8242 H   0  0  0  0  0  0  0  0  0  0  0  0
  154.7026  140.7524  159.0004 H   0  0  0  0  0  0  0  0  0  0  0  0
  154.5989  140.4854  160.7211 H   0  0  0  0  0  0  0  0  0  0  0  0
  152.6602  139.0107  160.4551 H   0  0  0  0  0  0  0  0  0  0  0  0
  153.9684  138.4476  159.4488 H   0  0  0  0  0  0  0  0  0  0  0  0
  1  2  1  0  0  0  0
  1 19  1  0  0  0  0
  1 20  1  0  0  0  0
  1 21  1  0  0  0  0
  2 18  1  0  0  0  0
  2  3  2  0  0  0  0
  3  4  1  0  0  0  0
  4  5  2  0  0  0  0
  5  6  1  0  0  0  0
  5 18  1  0  0  0  0
  6  7  1  0  0  0  0
  7  8  2  0  0  0  0
  7  9  1  0  0  0  0
  9 10  1  0  0  0  0
  9 22  1  0  0  0  0
 10 11  1  0  0  0  0
 10 23  1  0  0  0  0
 10 24  1  0  0  0  0
 11 17  1  0  0  0  0
 11 12  1  0  0  0  0
 11 13  1  0  0  0  0
 12 25  1  0  0  0  0
 13 14  1  0  0  0  0
 13 26  1  0  0  0  0
 13 27  1  0  0  0  0
 14 15  1  0  0  0  0
 14 28  1  0  0  0  0
 14 29  1  0  0  0  0
 15 16  1  0  0  0  0
 15 30  1  0  0  0  0
 15 31  1  0  0  0  0
 16 17  1  0  0  0  0
 16 32  1  0  0  0  0
 16 33  1  0  0  0  0
 17 34  1  0  0  0  0
 17 35  1  0  0  0  0
M  CHG  1   6  -1
M  END
> <s_m_source_file>
AV-unprocessed.smi

> <i_m_source_file_index>
1693

> <i_lp_mmshare_version>
43012

> <i_f3d_flags>
0

> <s_epik_input>
W0NIM11jMW5uYyhzMSlbTkhdQyg9TylbTkhdW0NIMl1DMihbT0hdKVtDSDJdW0NIMl1bQ0gyXVtDSDJdW0NIMl0y

> <s_epik_cmdline>
J2VwaWtfcHl0aG9uJywgJy1waCcsICc3LjAnLCAnLXRuJywgJzgnLCAnLW1hJywgJzIwMCcsICctbWV0YWxfYmluZGluZycsICctaW1hZScsICc8aW5maWxlLm1hZT4nLCAnLW9tYWUnLCAnPG91dGZpbGUubWFlPic=

> <r_lp_tautomer_probability>
1

> <r_epik_Ionization_Penalty>
4.37877

> <r_epik_Ionization_Penalty_Charging>
4.24206

> <r_epik_Ionization_Penalty_Neutral>
0.136706

> <r_epik_State_Penalty>
4.2416

> <r_epik_Charging_Adjusted_Penalty>
8.48367

> <i_epik_Tot_Q>
-1

> <i_epik_Tot_abs_Q>
1

> <r_epik_Metal_State_Penalty>
0.704476

> <b_epik_Metal_Only>
1

> <s_lp_Force_Field>
OPLS_2005

> <r_lp_Energy>
12.2595

> <b_lp_Chiralities_Consistent>
1

> <s_lp_Variant>
AV-unprocessed.smi:1693-2

> <Gold.Version>
5.8.1

> <Gold.Id.Protein>
6NUR|6NUR_protein|mol2

> <Gold.PLP.Fitness>
43.1077

> <Gold.PLP.PLP>
-32.9084

> <Gold.PLP.part.hbond>
-3.1496

> <Gold.PLP.part.metal>
0.0000

> <Gold.PLP.part.buried>
-4.6997

> <Gold.PLP.part.nonpolar>
-25.3250

> <Gold.PLP.part.repulsive>
0.2263

> <Gold.PLP.ligand.clash>
0.0000

> <Gold.PLP.ligand.torsion>
0.1194

> <Gold.PLP.Chemscore.Hbond>
3.4720

> <Gold.PLP.Chemscore.CHOScore>
0.0000

> <Gold.PLP.Chemscore.Metal>
0.0000

> <Gold.Chemscore.Hbonds>
donor molecule, donor type, donor heavy atom, donor atom, acceptor molecule, acceptor atom, score
      P1  H  6896  6909       L1     8  1.00
      P1  H  6931  6943       L1     6  1.57
      P1  H  7997  8010       L1    12  1.00

> <Gold.PLP.Chemscore.Internal.Correction>
0.0219

> <Gold.Rescore>
     Score         DG    S(hbond)    S(metal)    S(lipo)     H(rot)  DE(clash)    DE(int)     intcor
     16.32     -18.16       2.62        0.00      73.55       1.83       0.04       1.80       ----

> <Gold.Chemscore.Fitness>
16.3211

> <Gold.Chemscore.DG>
-18.1588

> <Gold.Chemscore.ZeroCoef>
-5.4800

> <Gold.Chemscore.Hbond>
2.6224

> <Gold.Chemscore.Metal>
0.0000

> <Gold.Chemscore.Lipo>
73.5507

> <Gold.Chemscore.Internal_Hbond>
0.0000

> <Gold.Chemscore.DEClash>
0.0402

> <Gold.Chemscore.DEInternal>
1.7974

> <Gold.Chemscore.Rot>
1.8303

> <Gold.Chemscore.Internal.Correction>
   9.000000E+99

> <Gold.Chemscore.Hbonds>
donor molecule, donor type, donor heavy atom, donor atom, acceptor molecule, acceptor atom, score
      P1  H  6896  6909       L1     8  0.29
      P1  H  6931  6943       L1     6  0.71
      P1  H  7997  8010       L1    12  0.86

> <Gold.Chemscore.Hbond.Weighted>
-8.7588

> <Gold.Chemscore.Metal.Weighted>
-0.0000

> <Gold.Chemscore.Lipo.Weighted>
-8.6054

> <Gold.Chemscore.Internal_Hbond.Weighted>
0.0000

> <Gold.Chemscore.DEClash.Weighted>
0.0402

> <Gold.Chemscore.DEInternal.Weighted>
1.7974

> <Gold.Chemscore.Rot.Weighted>
4.6855

> <Gold.Chemscore.Internal.Correction.Weighted>
   9.000000E+99

> <Gold.Protein.RotatedTorsions>
[ 6907 6896 6895 6894 ] final   45.65 input  -60.11 | X-H torsion
[ 7974 7965 7964 7962 ] final  -87.08 input  175.53 | X-H torsion
[ 8008 7997 7996 7995 ] final   50.20 input   59.86 | X-H torsion
[ 10167 10162 10161 10158 ] final  163.64 input  -65.29 | X-H torsion
[ 10718 10713 10712 10709 ] final  -73.28 input   66.30 | X-H torsion
[ 10763 10752 10751 10750 ] final   11.00 input  -60.55 | X-H torsion
[ 11005 11000 10999 10996 ] final -114.07 input  -57.11 | X-H torsion

> <Gold.Protein.ActiveResidues>
 VAL166  LYS551  ARG553  GLY616  TRP617  ASP618  TYR619  PRO620  LYS621  CYS622 
 ASP623  PHE694  ASN695  SER759  ASP760  ASP761  ALA762  ILE779  LEU786  VAL792 
 PHE793  MET794  SER795  GLU796  ALA797  LYS798  CYS799  TRP800  GLU811  SER814 

> <Gold.Protein.RotatedAtoms>
  152.2471  134.8170  160.0451 H   0  0  0  0  0  0  0  0  0  0  0  0  # atno 6907 bound_to 6896
  151.8864  133.3501  159.3792 H   0  0  0  0  0  0  0  0  0  0  0  0  # atno 6908 bound_to 6896
  150.7072  134.4894  159.5552 H   0  0  0  0  0  0  0  0  0  0  0  0  # atno 6909 bound_to 6896
  145.4713  140.9559  143.1915 H   0  0  0  0  0  0  0  0  0  0  0  0  # atno 7974 bound_to 7965
  155.4148  140.3444  155.4266 H   0  0  0  0  0  0  0  0  0  0  0  0  # atno 8008 bound_to 7997
  156.1427  140.1547  156.8926 H   0  0  0  0  0  0  0  0  0  0  0  0  # atno 8009 bound_to 7997
  154.4985  140.0821  156.7728 H   0  0  0  0  0  0  0  0  0  0  0  0  # atno 8010 bound_to 7997
  139.4877  144.4316  151.9063 H   0  0  0  0  0  0  0  0  0  0  0  0  # atno 10167 bound_to 10162
  156.0286  130.4390  150.2718 H   0  0  0  0  0  0  0  0  0  0  0  0  # atno 10718 bound_to 10713
  153.1972  135.6851  153.8277 H   0  0  0  0  0  0  0  0  0  0  0  0  # atno 10763 bound_to 10752
  153.7555  135.3217  155.3329 H   0  0  0  0  0  0  0  0  0  0  0  0  # atno 10764 bound_to 10752
  154.8151  135.4691  154.0722 H   0  0  0  0  0  0  0  0  0  0  0  0  # atno 10765 bound_to 10752
  141.0575  133.9589  157.2728 H   0  0  0  0  0  0  0  0  0  0  0  0  # atno 11005 bound_to 11000
  144.7943  139.6265  143.7099 LP  0  0  0  0  0  0  0  0  0  0  0  0  # atno 17320 bound_to 7965
  146.2395  139.5972  142.9501 LP  0  0  0  0  0  0  0  0  0  0  0  0  # atno 17321 bound_to 7965
  140.3764  144.2791  150.5913 LP  0  0  0  0  0  0  0  0  0  0  0  0  # atno 17342 bound_to 10162
  140.5273  143.2251  151.8295 LP  0  0  0  0  0  0  0  0  0  0  0  0  # atno 17343 bound_to 10162
  157.0821  131.0146  151.3153 LP  0  0  0  0  0  0  0  0  0  0  0  0  # atno 17370 bound_to 10713
  157.4919  130.7827  149.7516 LP  0  0  0  0  0  0  0  0  0  0  0  0  # atno 17371 bound_to 10713
  139.9403  135.0192  156.8686 LP  0  0  0  0  0  0  0  0  0  0  0  0  # atno 17394 bound_to 11000
  140.5935  134.0239  155.7509 LP  0  0  0  0  0  0  0  0  0  0  0  0  # atno 17395 bound_to 11000

$$$$
