AV-unprocessed.smi:148|AV-procd|sdf|1215|dock9
  -GOLD-   2262018393D 1   1.00000     0.00000
 Structure written by MMmdl.
 63 67  0  0  0  0  0  0  0  0  1 V2000
  146.0021  129.2015  153.7493 O   0  0  0  0  0  0  0  0  0  0  0  0
  146.1647  129.8834  152.5230 C   0  0  0  0  0  0  0  0  0  0  0  0
  146.3535  131.3997  152.7630 C   0  0  1  0  0  0  0  0  0  0  0  0
  147.6283  131.6571  153.6051 C   0  0  0  0  0  0  0  0  0  0  0  0
  147.3480  132.1578  154.9394 N   0  0  0  0  0  0  0  0  0  0  0  0
  146.1208  132.5243  155.4437 C   0  0  0  0  0  0  0  0  0  0  0  0
  146.1303  132.9375  156.6814 N   0  0  0  0  0  0  0  0  0  0  0  0
  147.4670  132.8621  157.0550 C   0  0  0  0  0  0  0  0  0  0  0  0
  148.1878  133.1525  158.2487 C   0  0  0  0  0  0  0  0  0  0  0  0
  147.6379  133.6083  159.3980 N   0  0  0  0  0  0  0  0  0  0  0  0
  148.1432  134.9540  159.6743 C   0  0  0  0  0  0  0  0  0  0  0  0
  147.3892  135.6160  160.8345 C   0  0  0  0  0  0  0  0  0  0  0  0
  147.4362  134.7231  162.0781 C   0  0  0  0  0  0  0  0  0  0  0  0
  146.8702  133.3378  161.7420 C   0  0  0  0  0  0  0  0  0  0  0  0
  147.6224  132.6864  160.5492 C   0  0  1  0  0  0  0  0  0  0  0  0
  147.0924  131.2591  160.1982 C   0  0  1  0  0  0  0  0  0  0  0  0
  147.2959  130.2309  161.3319 C   0  0  0  0  0  0  0  0  0  0  0  0
  145.8966  129.8094  161.7825 C   0  0  0  0  0  0  0  0  0  0  0  0
  145.0581  129.9151  160.5135 C   0  0  0  0  0  0  0  0  0  0  0  0
  145.5904  131.1749  159.8257 C   0  0  2  0  0  0  0  0  0  0  0  0
  145.3862  131.0996  158.4300 O   0  0  0  0  0  0  0  0  0  0  0  0
  149.5247  132.9255  158.2544 N   0  0  0  0  0  0  0  0  0  0  0  0
  150.1303  132.4672  157.1547 C   0  0  0  0  0  0  0  0  0  0  0  0
  149.5939  132.1649  155.9704 N   0  0  0  0  0  0  0  0  0  0  0  0
  148.2463  132.3747  155.9686 C   0  0  0  0  0  0  0  0  0  0  0  0
  146.3199  132.2422  151.4569 C   0  0  2  0  0  0  0  0  0  0  0  0
  146.3936  133.7586  151.6433 C   0  0  0  0  0  0  0  0  0  0  0  0
  145.2785  134.3013  150.7479 C   0  0  0  0  0  0  0  0  0  0  0  0
  145.0257  133.2523  149.8265 O   0  0  0  0  0  0  0  0  0  0  0  0
  145.0899  132.0433  150.5632 C   0  0  0  0  0  0  0  0  0  0  0  0
  145.1250  129.3553  154.0659 H   0  0  0  0  0  0  0  0  0  0  0  0
  147.0198  129.4587  151.9967 H   0  0  0  0  0  0  0  0  0  0  0  0
  145.2852  129.6774  151.9148 H   0  0  0  0  0  0  0  0  0  0  0  0
  145.5016  131.7376  153.3556 H   0  0  0  0  0  0  0  0  0  0  0  0
  148.2081  130.7397  153.7120 H   0  0  0  0  0  0  0  0  0  0  0  0
  148.2759  132.3730  153.0975 H   0  0  0  0  0  0  0  0  0  0  0  0
  145.2106  132.4661  154.8645 H   0  0  0  0  0  0  0  0  0  0  0  0
  149.2066  134.8967  159.9130 H   0  0  0  0  0  0  0  0  0  0  0  0
  148.0526  135.5784  158.7839 H   0  0  0  0  0  0  0  0  0  0  0  0
  147.8245  136.5910  161.0548 H   0  0  0  0  0  0  0  0  0  0  0  0
  146.3526  135.7941  160.5454 H   0  0  0  0  0  0  0  0  0  0  0  0
  148.4643  134.6287  162.4299 H   0  0  0  0  0  0  0  0  0  0  0  0
  146.8664  135.1767  162.8895 H   0  0  0  0  0  0  0  0  0  0  0  0
  146.9298  132.7107  162.6305 H   0  0  0  0  0  0  0  0  0  0  0  0
  145.8099  133.4484  161.5199 H   0  0  0  0  0  0  0  0  0  0  0  0
  148.6572  132.5699  160.8715 H   0  0  0  0  0  0  0  0  0  0  0  0
  147.6748  130.8706  159.3618 H   0  0  0  0  0  0  0  0  0  0  0  0
  147.8158  129.3583  160.9338 H   0  0  0  0  0  0  0  0  0  0  0  0
  147.9041  130.6000  162.1576 H   0  0  0  0  0  0  0  0  0  0  0  0
  145.8788  128.8092  162.2166 H   0  0  0  0  0  0  0  0  0  0  0  0
  145.5218  130.5073  162.5324 H   0  0  0  0  0  0  0  0  0  0  0  0
  145.2365  129.0358  159.8919 H   0  0  0  0  0  0  0  0  0  0  0  0
  143.9882  129.9677  160.7169 H   0  0  0  0  0  0  0  0  0  0  0  0
  145.0403  132.0368  160.1980 H   0  0  0  0  0  0  0  0  0  0  0  0
  144.4828  130.8688  158.2713 H   0  0  0  0  0  0  0  0  0  0  0  0
  151.1971  132.3192  157.2358 H   0  0  0  0  0  0  0  0  0  0  0  0
  147.1921  131.9879  150.8540 H   0  0  0  0  0  0  0  0  0  0  0  0
  146.2702  134.0860  152.6752 H   0  0  0  0  0  0  0  0  0  0  0  0
  147.3642  134.1255  151.3064 H   0  0  0  0  0  0  0  0  0  0  0  0
  144.3762  134.4925  151.3310 H   0  0  0  0  0  0  0  0  0  0  0  0
  145.5583  135.2240  150.2390 H   0  0  0  0  0  0  0  0  0  0  0  0
  145.1847  131.1791  149.9054 H   0  0  0  0  0  0  0  0  0  0  0  0
  144.1701  131.9346  151.1382 H   0  0  0  0  0  0  0  0  0  0  0  0
  1  2  1  0  0  0  0
  1 31  1  0  0  0  0
  2  3  1  0  0  0  0
  2 32  1  0  0  0  0
  2 33  1  0  0  0  0
  3  4  1  0  0  0  0
  3 26  1  0  0  0  0
  3 34  1  0  0  0  0
  4  5  1  0  0  0  0
  4 35  1  0  0  0  0
  4 36  1  0  0  0  0
  5 25  1  0  0  0  0
  5  6  1  0  0  0  0
  6  7  2  0  0  0  0
  6 37  1  0  0  0  0
  7  8  1  0  0  0  0
  8 25  2  0  0  0  0
  8  9  1  0  0  0  0
  9 10  1  0  0  0  0
  9 22  2  0  0  0  0
 10 15  1  0  0  0  0
 10 11  1  0  0  0  0
 11 12  1  0  0  0  0
 11 38  1  0  0  0  0
 11 39  1  0  0  0  0
 12 13  1  0  0  0  0
 12 40  1  0  0  0  0
 12 41  1  0  0  0  0
 13 14  1  0  0  0  0
 13 42  1  0  0  0  0
 13 43  1  0  0  0  0
 14 15  1  0  0  0  0
 14 44  1  0  0  0  0
 14 45  1  0  0  0  0
 15 16  1  0  0  0  0
 15 46  1  0  0  0  0
 16 20  1  0  0  0  0
 16 17  1  0  0  0  0
 16 47  1  0  0  0  0
 17 18  1  0  0  0  0
 17 48  1  0  0  0  0
 17 49  1  0  0  0  0
 18 19  1  0  0  0  0
 18 50  1  0  0  0  0
 18 51  1  0  0  0  0
 19 20  1  0  0  0  0
 19 52  1  0  0  0  0
 19 53  1  0  0  0  0
 20 21  1  0  0  0  0
 20 54  1  0  0  0  0
 21 55  1  0  0  0  0
 22 23  1  0  0  0  0
 23 24  2  0  0  0  0
 23 56  1  0  0  0  0
 24 25  1  0  0  0  0
 26 30  1  0  0  0  0
 26 27  1  0  0  0  0
 26 57  1  0  0  0  0
 27 28  1  0  0  0  0
 27 58  1  0  0  0  0
 27 59  1  0  0  0  0
 28 29  1  0  0  0  0
 28 60  1  0  0  0  0
 28 61  1  0  0  0  0
 29 30  1  0  0  0  0
 30 62  1  0  0  0  0
 30 63  1  0  0  0  0
M  END
> <s_m_source_file>
AV-unprocessed.smi

> <i_m_source_file_index>
148

> <i_lp_mmshare_version>
43012

> <i_f3d_flags>
0

> <s_epik_input>
W0NIMl0xT1tDSDJdW0NIMl1bQ0BIXTFbQ0BIXShbQ0gyXVtPSF0pW0NIMl1uKFtjSF1uMiljKGMyMyluW2NIXW5jM040W0NIMl1bQ0gyXVtDSDJdW0NIMl1bQ0BIXTRbQ0BASF01W0NIMl1bQ0gyXVtDSDJdW0NASF01W09IXQ==

> <s_epik_cmdline>
J2VwaWtfcHl0aG9uJywgJy1waCcsICc3LjAnLCAnLXRuJywgJzgnLCAnLW1hJywgJzIwMCcsICctbWV0YWxfYmluZGluZycsICctaW1hZScsICc8aW5maWxlLm1hZT4nLCAnLW9tYWUnLCAnPG91dGZpbGUubWFlPic=

> <r_lp_tautomer_probability>
1

> <r_epik_Ionization_Penalty>
0.00556303

> <r_epik_Ionization_Penalty_Charging>
0

> <r_epik_Ionization_Penalty_Neutral>
0.00556303

> <r_epik_State_Penalty>
0.00401767

> <r_epik_Charging_Adjusted_Penalty>
0.00401767

> <i_epik_Tot_Q>
0

> <i_epik_Tot_abs_Q>
0

> <r_epik_Metal_State_Penalty>
-0

> <b_epik_Metal_Only>
0

> <s_lp_Force_Field>
OPLS_2005

> <r_lp_Energy>
68.8828

> <b_lp_Chiralities_Consistent>
1

> <s_lp_Variant>
AV-unprocessed.smi:148-14

> <Gold.Version>
5.8.1

> <Gold.Id.Protein>
6NUR|6NUR_protein|mol2

> <Gold.PLP.Fitness>
43.2377

> <Gold.PLP.PLP>
-35.7842

> <Gold.PLP.part.hbond>
-2.0000

> <Gold.PLP.part.metal>
0.0000

> <Gold.PLP.part.buried>
-6.6738

> <Gold.PLP.part.nonpolar>
-28.0926

> <Gold.PLP.part.repulsive>
0.2170

> <Gold.PLP.ligand.clash>
0.0000

> <Gold.PLP.ligand.torsion>
0.9474

> <Gold.PLP.Chemscore.Hbond>
2.0000

> <Gold.PLP.Chemscore.CHOScore>
1.0000

> <Gold.PLP.Chemscore.Metal>
0.0000

> <Gold.Chemscore.Hbonds>
donor molecule, donor type, donor heavy atom, donor atom, acceptor molecule, acceptor atom, score
      L1  H     1    31       P1 10956  1.00
      P1  H  6896  6907       L1    22  1.00
      L1  C     6    37       P1 10957  0.78

> <Gold.PLP.Chemscore.Internal.Correction>
0.3483

> <Gold.Rescore>
     Score         DG    S(hbond)    S(metal)    S(lipo)     H(rot)  DE(clash)    DE(int)     intcor
     13.86     -14.96       1.95        0.00      98.01       3.32       0.10       1.00       ----

> <Gold.Chemscore.Fitness>
13.8581

> <Gold.Chemscore.DG>
-14.9627

> <Gold.Chemscore.ZeroCoef>
-5.4800

> <Gold.Chemscore.Hbond>
1.9507

> <Gold.Chemscore.Metal>
0.0000

> <Gold.Chemscore.Lipo>
98.0113

> <Gold.Chemscore.Internal_Hbond>
0.0000

> <Gold.Chemscore.DEClash>
0.0998

> <Gold.Chemscore.DEInternal>
1.0048

> <Gold.Chemscore.Rot>
3.3203

> <Gold.Chemscore.Internal.Correction>
   9.000000E+99

> <Gold.Chemscore.Hbonds>
donor molecule, donor type, donor heavy atom, donor atom, acceptor molecule, acceptor atom, score
      L1  H     1    31       P1 10956  0.92
      P1  H  6896  6907       L1    22  0.45

> <Gold.Chemscore.Hbond.Weighted>
-6.5154

> <Gold.Chemscore.Metal.Weighted>
-0.0000

> <Gold.Chemscore.Lipo.Weighted>
-11.4673

> <Gold.Chemscore.Internal_Hbond.Weighted>
0.0000

> <Gold.Chemscore.DEClash.Weighted>
0.0998

> <Gold.Chemscore.DEInternal.Weighted>
1.0048

> <Gold.Chemscore.Rot.Weighted>
8.5000

> <Gold.Chemscore.Internal.Correction.Weighted>
   9.000000E+99

> <Gold.Protein.RotatedTorsions>
[ 6907 6896 6895 6894 ] final -130.05 input  -60.11 | X-H torsion
[ 7974 7965 7964 7962 ] final -158.27 input  175.53 | X-H torsion
[ 8008 7997 7996 7995 ] final -103.36 input   59.86 | X-H torsion
[ 10167 10162 10161 10158 ] final  108.75 input  -65.29 | X-H torsion
[ 10718 10713 10712 10709 ] final   47.60 input   66.30 | X-H torsion
[ 10763 10752 10751 10750 ] final -173.40 input  -60.55 | X-H torsion
[ 11005 11000 10999 10996 ] final    0.16 input  -57.11 | X-H torsion

> <Gold.Protein.ActiveResidues>
 VAL166  LYS551  ARG553  GLY616  TRP617  ASP618  TYR619  PRO620  LYS621  CYS622 
 ASP623  PHE694  ASN695  SER759  ASP760  ASP761  ALA762  ILE779  LEU786  VAL792 
 PHE793  MET794  SER795  GLU796  ALA797  LYS798  CYS799  TRP800  GLU811  SER814 

> <Gold.Protein.RotatedAtoms>
  150.9354  133.6718  159.2801 H   0  0  0  0  0  0  0  0  0  0  0  0  # atno 6907 bound_to 6896
  151.4125  135.0986  159.9599 H   0  0  0  0  0  0  0  0  0  0  0  0  # atno 6908 bound_to 6896
  152.5045  133.8824  159.7408 H   0  0  0  0  0  0  0  0  0  0  0  0  # atno 6909 bound_to 6896
  144.7512  140.3850  143.6046 H   0  0  0  0  0  0  0  0  0  0  0  0  # atno 7974 bound_to 7965
  154.8697  140.0423  157.1717 H   0  0  0  0  0  0  0  0  0  0  0  0  # atno 8008 bound_to 7997
  154.8752  140.2964  155.5437 H   0  0  0  0  0  0  0  0  0  0  0  0  # atno 8009 bound_to 7997
  156.2999  140.2421  156.3746 H   0  0  0  0  0  0  0  0  0  0  0  0  # atno 8010 bound_to 7997
  139.6821  144.7117  151.1497 H   0  0  0  0  0  0  0  0  0  0  0  0  # atno 10167 bound_to 10162
  157.4601  130.8191  149.7877 H   0  0  0  0  0  0  0  0  0  0  0  0  # atno 10718 bound_to 10713
  154.6083  135.2862  155.0460 H   0  0  0  0  0  0  0  0  0  0  0  0  # atno 10763 bound_to 10752
  154.1699  135.6474  153.5011 H   0  0  0  0  0  0  0  0  0  0  0  0  # atno 10764 bound_to 10752
  153.0184  135.5398  154.6827 H   0  0  0  0  0  0  0  0  0  0  0  0  # atno 10765 bound_to 10752
  140.6296  133.9587  155.8267 H   0  0  0  0  0  0  0  0  0  0  0  0  # atno 11005 bound_to 11000
  145.6936  139.1645  143.2632 LP  0  0  0  0  0  0  0  0  0  0  0  0  # atno 17320 bound_to 7965
  146.1465  140.6985  142.9342 LP  0  0  0  0  0  0  0  0  0  0  0  0  # atno 17321 bound_to 7965
  140.7655  143.5684  150.9023 LP  0  0  0  0  0  0  0  0  0  0  0  0  # atno 17342 bound_to 10162
  139.9356  143.6442  152.3066 LP  0  0  0  0  0  0  0  0  0  0  0  0  # atno 17343 bound_to 10162
  156.0025  130.3872  150.2553 LP  0  0  0  0  0  0  0  0  0  0  0  0  # atno 17370 bound_to 10713
  157.0730  131.0122  151.3183 LP  0  0  0  0  0  0  0  0  0  0  0  0  # atno 17371 bound_to 10713
  141.0685  134.0241  157.3560 LP  0  0  0  0  0  0  0  0  0  0  0  0  # atno 17394 bound_to 11000
  139.9121  135.0192  156.7734 LP  0  0  0  0  0  0  0  0  0  0  0  0  # atno 17395 bound_to 11000

$$$$
