AV-unprocessed.smi:877|AV-procd|sdf|4030|dock3
  -GOLD-   22720 1523D 1   1.00000     0.00000
 Structure written by MMmdl.
 44 46  0  0  0  0  0  0  0  0  2 V2000
  143.8169  143.4754  156.2266 C   0  0  0  0  0  0  0  0  0  0  0  0
  144.2850  142.8217  155.0558 O   0  0  0  0  0  0  0  0  0  0  0  0
  145.6011  142.4135  155.0234 C   0  0  0  0  0  0  0  0  0  0  0  0
  146.3794  142.3237  153.8418 C   0  0  0  0  0  0  0  0  0  0  0  0
  147.7200  141.8958  153.9007 C   0  0  0  0  0  0  0  0  0  0  0  0
  148.3038  141.5515  155.1365 C   0  0  0  0  0  0  0  0  0  0  0  0
  149.7501  141.0940  155.2013 C   0  0  0  0  0  0  0  0  0  0  0  0
  150.5048  141.7417  156.3193 C   0  0  0  0  0  0  0  0  0  0  0  0
  150.5780  143.0827  156.5529 N   0  3  0  0  0  0  0  0  0  0  0  0
  151.3502  143.3251  157.6882 C   0  0  0  0  0  0  0  0  0  0  0  0
  151.6970  144.5191  158.3126 C   0  0  0  0  0  0  0  0  0  0  0  0
  152.4990  144.4194  159.4679 C   0  0  0  0  0  0  0  0  0  0  0  0
  152.9236  143.1684  159.9598 C   0  0  0  0  0  0  0  0  0  0  0  0
  152.5665  141.9647  159.3170 C   0  0  0  0  0  0  0  0  0  0  0  0
  151.7748  142.0706  158.1724 C   0  0  0  0  0  0  0  0  0  0  0  0
  151.2335  141.1219  157.2935 N   0  0  0  0  0  0  0  0  0  0  0  0
  151.4996  139.6896  157.5111 C   0  0  0  0  0  0  0  0  0  0  0  0
  151.7889  138.9146  156.2089 C   0  0  1  0  0  0  0  0  0  0  0  0
  153.0246  139.3830  155.7110 O   0  0  0  0  0  0  0  0  0  0  0  0
  151.8759  137.3862  156.3855 C   0  0  0  0  0  0  0  0  0  0  0  0
  151.8898  136.7527  155.1236 O   0  0  0  0  0  0  0  0  0  0  0  0
  147.5341  141.6392  156.3143 C   0  0  0  0  0  0  0  0  0  0  0  0
  146.1946  142.0674  156.2544 C   0  0  0  0  0  0  0  0  0  0  0  0
  142.7671  143.7378  156.0961 H   0  0  0  0  0  0  0  0  0  0  0  0
  144.3665  144.3989  156.4146 H   0  0  0  0  0  0  0  0  0  0  0  0
  143.8882  142.8271  157.1011 H   0  0  0  0  0  0  0  0  0  0  0  0
  145.9705  142.5777  152.8757 H   0  0  0  0  0  0  0  0  0  0  0  0
  148.2973  141.8338  152.9897 H   0  0  0  0  0  0  0  0  0  0  0  0
  149.7695  140.0103  155.3128 H   0  0  0  0  0  0  0  0  0  0  0  0
  150.2576  141.3168  154.2621 H   0  0  0  0  0  0  0  0  0  0  0  0
  151.3705  145.4784  157.9385 H   0  0  0  0  0  0  0  0  0  0  0  0
  152.7930  145.3197  159.9878 H   0  0  0  0  0  0  0  0  0  0  0  0
  153.5352  143.1305  160.8497 H   0  0  0  0  0  0  0  0  0  0  0  0
  152.8965  141.0152  159.7109 H   0  0  0  0  0  0  0  0  0  0  0  0
  152.3552  139.6191  158.1839 H   0  0  0  0  0  0  0  0  0  0  0  0
  150.6648  139.2438  158.0510 H   0  0  0  0  0  0  0  0  0  0  0  0
  151.0163  139.1528  155.4778 H   0  0  0  0  0  0  0  0  0  0  0  0
  153.1187  139.0812  154.8199 H   0  0  0  0  0  0  0  0  0  0  0  0
  152.7586  137.1018  156.9594 H   0  0  0  0  0  0  0  0  0  0  0  0
  151.0068  137.0043  156.9204 H   0  0  0  0  0  0  0  0  0  0  0  0
  151.0006  136.6851  154.8100 H   0  0  0  0  0  0  0  0  0  0  0  0
  147.9675  141.3820  157.2692 H   0  0  0  0  0  0  0  0  0  0  0  0
  145.6159  142.1308  157.1643 H   0  0  0  0  0  0  0  0  0  0  0  0
  150.1229  143.7798  155.9775 H   0  0  0  0  0  0  0  0  0  0  0  0
  1  2  1  0  0  0  0
  1 24  1  0  0  0  0
  1 25  1  0  0  0  0
  1 26  1  0  0  0  0
  2  3  1  0  0  0  0
  3 23  1  0  0  0  0
  3  4  2  0  0  0  0
  4  5  1  0  0  0  0
  4 27  1  0  0  0  0
  5  6  2  0  0  0  0
  5 28  1  0  0  0  0
  6  7  1  0  0  0  0
  6 22  1  0  0  0  0
  7  8  1  0  0  0  0
  7 29  1  0  0  0  0
  7 30  1  0  0  0  0
  8 16  1  0  0  0  0
  8  9  2  0  0  0  0
  9 10  1  0  0  0  0
  9 44  1  0  0  0  0
 10 15  2  0  0  0  0
 10 11  1  0  0  0  0
 11 12  2  0  0  0  0
 11 31  1  0  0  0  0
 12 13  1  0  0  0  0
 12 32  1  0  0  0  0
 13 14  2  0  0  0  0
 13 33  1  0  0  0  0
 14 15  1  0  0  0  0
 14 34  1  0  0  0  0
 15 16  1  0  0  0  0
 16 17  1  0  0  0  0
 17 18  1  0  0  0  0
 17 35  1  0  0  0  0
 17 36  1  0  0  0  0
 18 19  1  0  0  0  0
 18 20  1  0  0  0  0
 18 37  1  0  0  0  0
 19 38  1  0  0  0  0
 20 21  1  0  0  0  0
 20 39  1  0  0  0  0
 20 40  1  0  0  0  0
 21 41  1  0  0  0  0
 22 23  2  0  0  0  0
 22 42  1  0  0  0  0
 23 43  1  0  0  0  0
M  CHG  1   9   1
M  END
> <s_m_source_file>
AV-unprocessed.smi

> <i_m_source_file_index>
877

> <i_lp_mmshare_version>
43012

> <i_f3d_flags>
0

> <s_epik_input>
W0NIM11PYzFbY0hdW2NIXWMoW2NIXVtjSF0xKVtDSDJdYyhuMiluKFtDSDJdW0NASF0oW09IXSlbQ0gyXVtPSF0pYyhjMjMpW2NIXVtjSF1bY0hdW2NIXTM=

> <s_epik_cmdline>
J2VwaWtfcHl0aG9uJywgJy1waCcsICc3LjAnLCAnLXRuJywgJzgnLCAnLW1hJywgJzIwMCcsICctbWV0YWxfYmluZGluZycsICctaW1hZScsICc8aW5maWxlLm1hZT4nLCAnLW9tYWUnLCAnPG91dGZpbGUubWFlPic=

> <r_lp_tautomer_probability>
1

> <r_epik_Ionization_Penalty>
1.37112

> <r_epik_Ionization_Penalty_Charging>
1.37111

> <r_epik_Ionization_Penalty_Neutral>
4.48252e-07

> <r_epik_State_Penalty>
1.45083

> <r_epik_Charging_Adjusted_Penalty>
2.82194

> <i_epik_Tot_Q>
1

> <i_epik_Tot_abs_Q>
1

> <r_epik_Metal_State_Penalty>
5.49009

> <b_epik_Metal_Only>
0

> <s_lp_Force_Field>
OPLS_2005

> <r_lp_Energy>
24.4283

> <b_lp_Chiralities_Consistent>
1

> <s_lp_Variant>
AV-unprocessed.smi:877-4

> <Gold.Version>
5.8.1

> <Gold.Id.Protein>
6NUR|6NUR_protein|mol2

> <Gold.PLP.Fitness>
59.8456

> <Gold.PLP.PLP>
-49.7494

> <Gold.PLP.part.hbond>
-2.8912

> <Gold.PLP.part.metal>
0.0000

> <Gold.PLP.part.buried>
-6.7579

> <Gold.PLP.part.nonpolar>
-40.6531

> <Gold.PLP.part.repulsive>
0.2410

> <Gold.PLP.ligand.clash>
0.0000

> <Gold.PLP.ligand.torsion>
0.9777

> <Gold.PLP.Chemscore.Hbond>
4.0000

> <Gold.PLP.Chemscore.CHOScore>
0.0000

> <Gold.PLP.Chemscore.Metal>
0.0000

> <Gold.Chemscore.Hbonds>
donor molecule, donor type, donor heavy atom, donor atom, acceptor molecule, acceptor atom, score
      L1  H     9    44       P1  8028  2.00
      P1  H  7997  8008       L1    19  1.00
      P1  H 10752 10764       L1    21  1.00

> <Gold.PLP.Chemscore.Internal.Correction>
0.0517

> <Gold.Rescore>
     Score         DG    S(hbond)    S(metal)    S(lipo)     H(rot)  DE(clash)    DE(int)     intcor
     20.15     -21.10       2.88        0.00     122.05       3.23       0.02       0.94       ----

> <Gold.Chemscore.Fitness>
20.1458

> <Gold.Chemscore.DG>
-21.1044

> <Gold.Chemscore.ZeroCoef>
-5.4800

> <Gold.Chemscore.Hbond>
2.8794

> <Gold.Chemscore.Metal>
0.0000

> <Gold.Chemscore.Lipo>
122.0503

> <Gold.Chemscore.Internal_Hbond>
0.0000

> <Gold.Chemscore.DEClash>
0.0182

> <Gold.Chemscore.DEInternal>
0.9404

> <Gold.Chemscore.Rot>
3.2315

> <Gold.Chemscore.Internal.Correction>
   9.000000E+99

> <Gold.Chemscore.Hbonds>
donor molecule, donor type, donor heavy atom, donor atom, acceptor molecule, acceptor atom, score
      L1  H     9    44       P1  8028  0.94
      P1  H  7997  8008       L1    19  0.87
      P1  H 10752 10764       L1    21  0.88

> <Gold.Chemscore.Hbond.Weighted>
-9.6172

> <Gold.Chemscore.Metal.Weighted>
-0.0000

> <Gold.Chemscore.Lipo.Weighted>
-14.2799

> <Gold.Chemscore.Internal_Hbond.Weighted>
0.0000

> <Gold.Chemscore.DEClash.Weighted>
0.0182

> <Gold.Chemscore.DEInternal.Weighted>
0.9404

> <Gold.Chemscore.Rot.Weighted>
8.2727

> <Gold.Chemscore.Internal.Correction.Weighted>
   9.000000E+99

> <Gold.Protein.RotatedTorsions>
[ 6907 6896 6895 6894 ] final -171.24 input  -60.11 | X-H torsion
[ 7974 7965 7964 7962 ] final -124.92 input  175.53 | X-H torsion
[ 8008 7997 7996 7995 ] final  -41.96 input   59.86 | X-H torsion
[ 10167 10162 10161 10158 ] final  159.62 input  -65.29 | X-H torsion
[ 10718 10713 10712 10709 ] final  178.62 input   66.30 | X-H torsion
[ 10763 10752 10751 10750 ] final  -66.42 input  -60.55 | X-H torsion
[ 11005 11000 10999 10996 ] final   57.46 input  -57.11 | X-H torsion

> <Gold.Protein.ActiveResidues>
 VAL166  LYS551  ARG553  GLY616  TRP617  ASP618  TYR619  PRO620  LYS621  CYS622 
 ASP623  PHE694  ASN695  SER759  ASP760  ASP761  ALA762  ILE779  LEU786  VAL792 
 PHE793  MET794  SER795  GLU796  ALA797  LYS798  CYS799  TRP800  GLU811  SER814 

> <Gold.Protein.RotatedAtoms>
  151.5206  133.3467  159.2900 H   0  0  0  0  0  0  0  0  0  0  0  0  # atno 6907 bound_to 6896
  150.8655  134.8019  159.7126 H   0  0  0  0  0  0  0  0  0  0  0  0  # atno 6908 bound_to 6896
  152.4661  134.5082  159.9797 H   0  0  0  0  0  0  0  0  0  0  0  0  # atno 6909 bound_to 6896
  145.0030  140.7837  143.4485 H   0  0  0  0  0  0  0  0  0  0  0  0  # atno 7974 bound_to 7965
  154.4001  140.1486  156.3277 H   0  0  0  0  0  0  0  0  0  0  0  0  # atno 8008 bound_to 7997
  155.8471  140.3459  155.5648 H   0  0  0  0  0  0  0  0  0  0  0  0  # atno 8009 bound_to 7997
  155.8024  140.0872  157.1940 H   0  0  0  0  0  0  0  0  0  0  0  0  # atno 8010 bound_to 7997
  139.4834  144.4712  151.8573 H   0  0  0  0  0  0  0  0  0  0  0  0  # atno 10167 bound_to 10162
  156.8879  130.9837  151.3053 H   0  0  0  0  0  0  0  0  0  0  0  0  # atno 10718 bound_to 10713
  154.3595  135.6119  153.5683 H   0  0  0  0  0  0  0  0  0  0  0  0  # atno 10763 bound_to 10752
  152.9794  135.5812  154.4649 H   0  0  0  0  0  0  0  0  0  0  0  0  # atno 10764 bound_to 10752
  154.4384  135.2849  155.1842 H   0  0  0  0  0  0  0  0  0  0  0  0  # atno 10765 bound_to 10752
  140.0451  134.5818  155.9333 H   0  0  0  0  0  0  0  0  0  0  0  0  # atno 11005 bound_to 11000
  145.2127  139.2197  143.5134 LP  0  0  0  0  0  0  0  0  0  0  0  0  # atno 17320 bound_to 7965
  146.3455  140.1969  142.8589 LP  0  0  0  0  0  0  0  0  0  0  0  0  # atno 17321 bound_to 7965
  140.4181  144.2279  150.5887 LP  0  0  0  0  0  0  0  0  0  0  0  0  # atno 17342 bound_to 10162
  140.4900  143.2350  151.8832 LP  0  0  0  0  0  0  0  0  0  0  0  0  # atno 17343 bound_to 10162
  157.6101  130.8577  149.8939 LP  0  0  0  0  0  0  0  0  0  0  0  0  # atno 17370 bound_to 10713
  156.0644  130.3694  150.0911 LP  0  0  0  0  0  0  0  0  0  0  0  0  # atno 17371 bound_to 10713
  141.1903  133.6568  156.5404 LP  0  0  0  0  0  0  0  0  0  0  0  0  # atno 17394 bound_to 11000
  140.4007  134.7359  157.4778 LP  0  0  0  0  0  0  0  0  0  0  0  0  # atno 17395 bound_to 11000

$$$$
