AV-unprocessed.smi:2669|AV-procd|sdf|10344|dock4
  -GOLD-   2272014363D 1   1.00000     0.00000
 Structure written by MMmdl.
 39 41  0  0  0  0  0  0  0  0  1 V2000
  147.3454  133.8661  153.7398 C   0  0  0  0  0  0  0  0  0  0  0  0
  148.6443  134.4717  153.9860 N   0  0  0  0  0  0  0  0  0  0  0  0
  149.4263  134.0643  155.0761 C   0  0  0  0  0  0  0  0  0  0  0  0
  149.3489  132.7898  155.5249 N   0  0  0  0  0  0  0  0  0  0  0  0
  150.1153  132.4454  156.5682 C   0  0  0  0  0  0  0  0  0  0  0  0
  150.9832  133.1959  157.2645 N   0  0  0  0  0  0  0  0  0  0  0  0
  151.0671  134.4599  156.8276 C   0  0  0  0  0  0  0  0  0  0  0  0
  151.8785  135.4497  157.3552 N   0  0  0  0  0  0  0  0  0  0  0  0
  151.5839  136.4856  156.5737 C   0  0  0  0  0  0  0  0  0  0  0  0
  150.6759  136.2902  155.5970 N   0  0  0  0  0  0  0  0  0  0  0  0
  150.2088  137.2757  154.6367 C   0  0  0  0  0  0  0  0  0  0  0  0
  150.7563  138.6882  154.9236 C   0  0  1  0  0  0  0  0  0  0  0  0
  150.4938  139.5192  153.8088 O   0  0  0  0  0  0  0  0  0  0  0  0
  150.1050  139.3141  156.1672 C   0  0  0  0  0  0  0  0  0  0  0  0
  151.0971  139.4777  157.1718 O   0  0  0  0  0  0  0  0  0  0  0  0
  151.4384  140.7578  157.5522 C   0  0  0  0  0  0  0  0  0  0  0  0
  152.4257  140.8855  158.5511 C   0  0  0  0  0  0  0  0  0  0  0  0
  152.8350  142.1548  159.0029 C   0  0  0  0  0  0  0  0  0  0  0  0
  152.2576  143.3157  158.4558 C   0  0  0  0  0  0  0  0  0  0  0  0
  152.7571  144.8724  159.0076 Cl  0  0  0  0  0  0  0  0  0  0  0  0
  151.2720  143.2033  157.4576 C   0  0  0  0  0  0  0  0  0  0  0  0
  150.8626  141.9332  157.0063 C   0  0  0  0  0  0  0  0  0  0  0  0
  150.3046  134.9537  155.7264 C   0  0  0  0  0  0  0  0  0  0  0  0
  146.8788  134.3269  152.8692 H   0  0  0  0  0  0  0  0  0  0  0  0
  146.6842  134.0068  154.5954 H   0  0  0  0  0  0  0  0  0  0  0  0
  147.4475  132.7977  153.5470 H   0  0  0  0  0  0  0  0  0  0  0  0
  148.9603  135.2207  153.3872 H   0  0  0  0  0  0  0  0  0  0  0  0
  150.0219  131.4202  156.8943 H   0  0  0  0  0  0  0  0  0  0  0  0
  152.0548  137.4465  156.7220 H   0  0  0  0  0  0  0  0  0  0  0  0
  150.4986  136.9527  153.6357 H   0  0  0  0  0  0  0  0  0  0  0  0
  149.1186  137.2776  154.6535 H   0  0  0  0  0  0  0  0  0  0  0  0
  151.8356  138.6288  155.0687 H   0  0  0  0  0  0  0  0  0  0  0  0
  150.1053  138.9942  153.1261 H   0  0  0  0  0  0  0  0  0  0  0  0
  149.6215  140.2602  155.9171 H   0  0  0  0  0  0  0  0  0  0  0  0
  149.3384  138.6388  156.5507 H   0  0  0  0  0  0  0  0  0  0  0  0
  152.8743  139.9999  158.9771 H   0  0  0  0  0  0  0  0  0  0  0  0
  153.5915  142.2353  159.7696 H   0  0  0  0  0  0  0  0  0  0  0  0
  150.8263  144.0922  157.0356 H   0  0  0  0  0  0  0  0  0  0  0  0
  150.1037  141.8887  156.2401 H   0  0  0  0  0  0  0  0  0  0  0  0
  1  2  1  0  0  0  0
  1 24  1  0  0  0  0
  1 25  1  0  0  0  0
  1 26  1  0  0  0  0
  2  3  1  0  0  0  0
  2 27  1  0  0  0  0
  3 23  1  0  0  0  0
  3  4  2  0  0  0  0
  4  5  1  0  0  0  0
  5  6  2  0  0  0  0
  5 28  1  0  0  0  0
  6  7  1  0  0  0  0
  7 23  2  0  0  0  0
  7  8  1  0  0  0  0
  8  9  2  0  0  0  0
  9 10  1  0  0  0  0
  9 29  1  0  0  0  0
 10 11  1  0  0  0  0
 10 23  1  0  0  0  0
 11 12  1  0  0  0  0
 11 30  1  0  0  0  0
 11 31  1  0  0  0  0
 12 13  1  0  0  0  0
 12 14  1  0  0  0  0
 12 32  1  0  0  0  0
 13 33  1  0  0  0  0
 14 15  1  0  0  0  0
 14 34  1  0  0  0  0
 14 35  1  0  0  0  0
 15 16  1  0  0  0  0
 16 22  1  0  0  0  0
 16 17  2  0  0  0  0
 17 18  1  0  0  0  0
 17 36  1  0  0  0  0
 18 19  2  0  0  0  0
 18 37  1  0  0  0  0
 19 20  1  0  0  0  0
 19 21  1  0  0  0  0
 21 22  2  0  0  0  0
 21 38  1  0  0  0  0
 22 39  1  0  0  0  0
M  END
> <s_m_source_file>
AV-unprocessed.smi

> <i_m_source_file_index>
2669

> <i_lp_mmshare_version>
43012

> <i_f3d_flags>
0

> <s_epik_input>
bjFbY0hdbmMoW05IXVtDSDNdKWMoYzEyKW4oW2NIXW4yKVtDSDJdW0NASF0oW09IXSlbQ0gyXU9jM1tjSF1bY0hdYyhDbClbY0hdW2NIXTM=

> <s_epik_cmdline>
J2VwaWtfcHl0aG9uJywgJy1waCcsICc3LjAnLCAnLXRuJywgJzgnLCAnLW1hJywgJzIwMCcsICctbWV0YWxfYmluZGluZycsICctaW1hZScsICc8aW5maWxlLm1hZT4nLCAnLW9tYWUnLCAnPG91dGZpbGUubWFlPic=

> <r_lp_tautomer_probability>
1

> <r_epik_Ionization_Penalty>
0.00733592

> <r_epik_Ionization_Penalty_Charging>
0

> <r_epik_Ionization_Penalty_Neutral>
0.00733592

> <r_epik_State_Penalty>
-0

> <r_epik_Charging_Adjusted_Penalty>
0

> <i_epik_Tot_Q>
0

> <i_epik_Tot_abs_Q>
0

> <r_epik_Metal_State_Penalty>
-0

> <b_epik_Metal_Only>
0

> <s_lp_Force_Field>
OPLS_2005

> <r_lp_Energy>
13.4458

> <b_lp_Chiralities_Consistent>
1

> <s_lp_Variant>
AV-unprocessed.smi:2669-2

> <Gold.Version>
5.8.1

> <Gold.Id.Protein>
6NUR|6NUR_protein|mol2

> <Gold.PLP.Fitness>
44.3849

> <Gold.PLP.PLP>
-38.4714

> <Gold.PLP.part.hbond>
-4.9536

> <Gold.PLP.part.metal>
0.0000

> <Gold.PLP.part.buried>
-3.3597

> <Gold.PLP.part.nonpolar>
-31.0398

> <Gold.PLP.part.repulsive>
0.0000

> <Gold.PLP.ligand.clash>
0.0000

> <Gold.PLP.ligand.torsion>
1.4075

> <Gold.PLP.Chemscore.Hbond>
2.8642

> <Gold.PLP.Chemscore.CHOScore>
0.0000

> <Gold.PLP.Chemscore.Metal>
0.0000

> <Gold.Chemscore.Hbonds>
donor molecule, donor type, donor heavy atom, donor atom, acceptor molecule, acceptor atom, score
      L1  H     2    27       P1  7948  1.00
      L1  H    13    33       P1  7957  0.14
      P1  H  6896  6908       L1     6  0.88
      P1  H  7989  7998       L1    13  1.00

> <Gold.PLP.Chemscore.Internal.Correction>
0.1358

> <Gold.Rescore>
     Score         DG    S(hbond)    S(metal)    S(lipo)     H(rot)  DE(clash)    DE(int)     intcor
     15.78     -17.66       2.88        0.00      87.15       2.97       0.07       1.81       ----

> <Gold.Chemscore.Fitness>
15.7786

> <Gold.Chemscore.DG>
-17.6643

> <Gold.Chemscore.ZeroCoef>
-5.4800

> <Gold.Chemscore.Hbond>
2.8751

> <Gold.Chemscore.Metal>
0.0000

> <Gold.Chemscore.Lipo>
87.1494

> <Gold.Chemscore.Internal_Hbond>
0.0000

> <Gold.Chemscore.DEClash>
0.0721

> <Gold.Chemscore.DEInternal>
1.8136

> <Gold.Chemscore.Rot>
2.9746

> <Gold.Chemscore.Internal.Correction>
   9.000000E+99

> <Gold.Chemscore.Hbonds>
donor molecule, donor type, donor heavy atom, donor atom, acceptor molecule, acceptor atom, score
      L1  H     2    27       P1  7948  0.49
      L1  H    13    33       P1  7957  0.13
      P1  H  6896  6908       L1     6  0.26
      P1  H  7989  7998       L1    13  0.90

> <Gold.Chemscore.Hbond.Weighted>
-9.6028

> <Gold.Chemscore.Metal.Weighted>
-0.0000

> <Gold.Chemscore.Lipo.Weighted>
-10.1965

> <Gold.Chemscore.Internal_Hbond.Weighted>
0.0000

> <Gold.Chemscore.DEClash.Weighted>
0.0721

> <Gold.Chemscore.DEInternal.Weighted>
1.8136

> <Gold.Chemscore.Rot.Weighted>
7.6150

> <Gold.Chemscore.Internal.Correction.Weighted>
   9.000000E+99

> <Gold.Protein.RotatedTorsions>
[ 6907 6896 6895 6894 ] final   90.22 input  -60.11 | X-H torsion
[ 7974 7965 7964 7962 ] final  -38.57 input  175.53 | X-H torsion
[ 8008 7997 7996 7995 ] final -131.77 input   59.86 | X-H torsion
[ 10167 10162 10161 10158 ] final   27.36 input  -65.29 | X-H torsion
[ 10718 10713 10712 10709 ] final -121.48 input   66.30 | X-H torsion
[ 10763 10752 10751 10750 ] final  113.48 input  -60.55 | X-H torsion
[ 11005 11000 10999 10996 ] final  164.27 input  -57.11 | X-H torsion

> <Gold.Protein.ActiveResidues>
 VAL166  LYS551  ARG553  GLY616  TRP617  ASP618  TYR619  PRO620  LYS621  CYS622 
 ASP623  PHE694  ASN695  SER759  ASP760  ASP761  ALA762  ILE779  LEU786  VAL792 
 PHE793  MET794  SER795  GLU796  ALA797  LYS798  CYS799  TRP800  GLU811  SER814 

> <Gold.Protein.RotatedAtoms>
  152.5443  134.1845  159.8648 H   0  0  0  0  0  0  0  0  0  0  0  0  # atno 6907 bound_to 6896
  151.1845  133.4697  159.2602 H   0  0  0  0  0  0  0  0  0  0  0  0  # atno 6908 bound_to 6896
  151.1145  135.0057  159.8565 H   0  0  0  0  0  0  0  0  0  0  0  0  # atno 6909 bound_to 6896
  146.0475  140.6526  142.9058 H   0  0  0  0  0  0  0  0  0  0  0  0  # atno 7974 bound_to 7965
  155.3178  140.0460  157.3038 H   0  0  0  0  0  0  0  0  0  0  0  0  # atno 8008 bound_to 7997
  154.5397  140.2284  155.8628 H   0  0  0  0  0  0  0  0  0  0  0  0  # atno 8009 bound_to 7997
  156.1869  140.3060  155.9262 H   0  0  0  0  0  0  0  0  0  0  0  0  # atno 8010 bound_to 7997
  140.4945  144.0414  150.6309 H   0  0  0  0  0  0  0  0  0  0  0  0  # atno 10167 bound_to 10162
  156.1340  130.6417  150.9667 H   0  0  0  0  0  0  0  0  0  0  0  0  # atno 10718 bound_to 10713
  153.4931  135.3654  155.2502 H   0  0  0  0  0  0  0  0  0  0  0  0  # atno 10763 bound_to 10752
  154.8751  135.3982  154.3565 H   0  0  0  0  0  0  0  0  0  0  0  0  # atno 10764 bound_to 10752
  153.4188  135.7079  153.6374 H   0  0  0  0  0  0  0  0  0  0  0  0  # atno 10765 bound_to 10752
  140.2443  134.8027  157.3440 H   0  0  0  0  0  0  0  0  0  0  0  0  # atno 11005 bound_to 11000
  144.7105  140.4021  143.7084 LP  0  0  0  0  0  0  0  0  0  0  0  0  # atno 17320 bound_to 7965
  145.6781  139.1613  143.2716 LP  0  0  0  0  0  0  0  0  0  0  0  0  # atno 17321 bound_to 7965
  140.3692  143.2864  152.0297 LP  0  0  0  0  0  0  0  0  0  0  0  0  # atno 17342 bound_to 10162
  139.4858  144.6243  151.7195 LP  0  0  0  0  0  0  0  0  0  0  0  0  # atno 17343 bound_to 10162
  157.6515  131.0896  150.8040 LP  0  0  0  0  0  0  0  0  0  0  0  0  # atno 17370 bound_to 10713
  156.8122  130.4956  149.5354 LP  0  0  0  0  0  0  0  0  0  0  0  0  # atno 17371 bound_to 10713
  140.1622  134.4714  155.7887 LP  0  0  0  0  0  0  0  0  0  0  0  0  # atno 17394 bound_to 11000
  141.2208  133.6906  156.7564 LP  0  0  0  0  0  0  0  0  0  0  0  0  # atno 17395 bound_to 11000

$$$$
