AV-unprocessed.smi:55|AV-procd|sdf|574|dock4
  -GOLD-   2262016473D 1   1.00000     0.00000
 Structure written by MMmdl.
 30 31  0  0  0  0  0  0  0  0  2 V2000
  148.5143  141.6334  154.7834 C   0  0  0  0  0  0  0  0  0  0  0  0
  149.7203  141.2322  155.6145 C   0  0  0  0  0  0  0  0  0  0  0  0
  150.4016  142.1200  156.3727 C   0  0  0  0  0  0  0  0  0  0  0  0
  151.5013  141.7487  157.1260 N   0  0  0  0  0  0  0  0  0  0  0  0
  152.2552  142.7697  157.9435 C   0  0  1  0  0  0  0  0  0  0  0  0
  151.6578  144.1600  157.7696 C   0  0  0  0  0  0  0  0  0  0  0  0
  151.9707  144.8122  159.1112 C   0  0  1  0  0  0  0  0  0  0  0  0
  150.8389  145.5216  159.5808 O   0  0  0  0  0  0  0  0  0  0  0  0
  152.4271  143.6497  160.0275 C   0  0  1  0  0  0  0  0  0  0  0  0
  151.7688  143.5790  161.4184 C   0  0  0  0  0  0  0  0  0  0  0  0
  152.0834  142.3528  162.0437 O   0  0  0  0  0  0  0  0  0  0  0  0
  152.1162  142.4720  159.2925 O   0  0  0  0  0  0  0  0  0  0  0  0
  151.9607  140.4070  157.0863 C   0  0  0  0  0  0  0  0  0  0  0  0
  152.9684  140.1191  157.7326 O   0  0  0  0  0  0  0  0  0  0  0  0
  151.2742  139.5021  156.3316 N   0  5  0  0  0  0  0  0  0  0  0  0
  150.1752  139.8364  155.5955 C   0  0  0  0  0  0  0  0  0  0  0  0
  149.5635  139.0082  154.9208 O   0  0  0  0  0  0  0  0  0  0  0  0
  153.3101  142.7015  157.6710 H   0  0  0  0  0  0  0  0  0  0  0  0
  152.7895  145.5239  158.9983 H   0  0  0  0  0  0  0  0  0  0  0  0
  153.5124  143.7095  160.1308 H   0  0  0  0  0  0  0  0  0  0  0  0
  148.2944  142.6959  154.8902 H   0  0  0  0  0  0  0  0  0  0  0  0
  147.6329  141.0729  155.0957 H   0  0  0  0  0  0  0  0  0  0  0  0
  148.6961  141.4308  153.7275 H   0  0  0  0  0  0  0  0  0  0  0  0
  150.0784  143.1504  156.3823 H   0  0  0  0  0  0  0  0  0  0  0  0
  152.0992  144.6709  156.9135 H   0  0  0  0  0  0  0  0  0  0  0  0
  150.5810  144.0695  157.6145 H   0  0  0  0  0  0  0  0  0  0  0  0
  150.1021  145.3128  159.0274 H   0  0  0  0  0  0  0  0  0  0  0  0
  152.1527  144.3682  162.0651 H   0  0  0  0  0  0  0  0  0  0  0  0
  150.6877  143.7056  161.3509 H   0  0  0  0  0  0  0  0  0  0  0  0
  152.9320  142.4329  162.4518 H   0  0  0  0  0  0  0  0  0  0  0  0
  1  2  1  0  0  0  0
  1 21  1  0  0  0  0
  1 22  1  0  0  0  0
  1 23  1  0  0  0  0
  2 16  1  0  0  0  0
  2  3  2  0  0  0  0
  3  4  1  0  0  0  0
  3 24  1  0  0  0  0
  4  5  1  0  0  0  0
  4 13  1  0  0  0  0
  5 18  1  0  0  0  0
  5 12  1  0  0  0  0
  5  6  1  0  0  0  0
  6  7  1  0  0  0  0
  6 25  1  0  0  0  0
  6 26  1  0  0  0  0
  7 19  1  0  0  0  0
  7  8  1  0  0  0  0
  7  9  1  0  0  0  0
  8 27  1  0  0  0  0
  9 20  1  0  0  0  0
  9 10  1  0  0  0  0
  9 12  1  0  0  0  0
 10 11  1  0  0  0  0
 10 28  1  0  0  0  0
 10 29  1  0  0  0  0
 11 30  1  0  0  0  0
 13 14  2  0  0  0  0
 13 15  1  0  0  0  0
 15 16  1  0  0  0  0
 16 17  2  0  0  0  0
M  CHG  1  15  -1
M  END
> <s_m_source_file>
AV-unprocessed.smi

> <i_m_source_file_index>
55

> <i_lp_mmshare_version>
43012

> <i_f3d_flags>
0

> <s_epik_input>
Tz1jMVtuSF1jKD1PKW4oW2NIXWMxW0NIM10pW0NAQEhdMltDSDJdW0NAQEhdKFtPSF0pW0NAQEhdKE8yKVtDSDJdW09IXQ==

> <s_epik_cmdline>
J2VwaWtfcHl0aG9uJywgJy1waCcsICc3LjAnLCAnLXRuJywgJzgnLCAnLW1hJywgJzIwMCcsICctbWV0YWxfYmluZGluZycsICctaW1hZScsICc8aW5maWxlLm1hZT4nLCAnLW9tYWUnLCAnPG91dGZpbGUubWFlPic=

> <r_lp_tautomer_probability>
0.999537

> <r_epik_Ionization_Penalty>
3.66603

> <r_epik_Ionization_Penalty_Charging>
1.09773e-07

> <r_epik_Ionization_Penalty_Neutral>
3.66603

> <r_epik_State_Penalty>
3.66562

> <r_epik_Charging_Adjusted_Penalty>
3.66562

> <i_epik_Tot_Q>
-1

> <i_epik_Tot_abs_Q>
1

> <r_epik_Metal_State_Penalty>
0.234536

> <b_epik_Metal_Only>
1

> <s_epik_Chemistry_Notes>
This compound contains an acetal/aminal-like group ( X-CH(R)-Y where X, Y are N, S, or O) that may be acid/base labile, releasing an aldehyde.

> <s_lp_Force_Field>
OPLS_2005

> <r_lp_Energy>
40.7451

> <b_lp_Chiralities_Consistent>
1

> <s_lp_Variant>
AV-unprocessed.smi:55-14

> <Gold.Version>
5.8.1

> <Gold.Id.Protein>
6NUR|6NUR_protein|mol2

> <Gold.PLP.Fitness>
42.4256

> <Gold.PLP.PLP>
-33.8492

> <Gold.PLP.part.hbond>
-4.9142

> <Gold.PLP.part.metal>
0.0000

> <Gold.PLP.part.buried>
-3.7902

> <Gold.PLP.part.nonpolar>
-26.5029

> <Gold.PLP.part.repulsive>
0.0752

> <Gold.PLP.ligand.clash>
0.0000

> <Gold.PLP.ligand.torsion>
0.1045

> <Gold.PLP.Chemscore.Hbond>
1.9204

> <Gold.PLP.Chemscore.CHOScore>
1.0000

> <Gold.PLP.Chemscore.Metal>
0.0000

> <Gold.Chemscore.Hbonds>
donor molecule, donor type, donor heavy atom, donor atom, acceptor molecule, acceptor atom, score
      P1  H  6933  6945       L1    11  0.50
      P1  H  7997  8009       L1    14  1.00
      L1  C     3    24       P1  8028  1.00

> <Gold.PLP.Chemscore.Internal.Correction>
0.0242

> <Gold.Rescore>
     Score         DG    S(hbond)    S(metal)    S(lipo)     H(rot)  DE(clash)    DE(int)     intcor
      9.79     -12.07       1.53        0.00      71.43       2.69       1.87       0.41       ----

> <Gold.Chemscore.Fitness>
9.7920

> <Gold.Chemscore.DG>
-12.0693

> <Gold.Chemscore.ZeroCoef>
-5.4800

> <Gold.Chemscore.Hbond>
1.5304

> <Gold.Chemscore.Metal>
0.0000

> <Gold.Chemscore.Lipo>
71.4252

> <Gold.Chemscore.Internal_Hbond>
0.0000

> <Gold.Chemscore.DEClash>
1.8656

> <Gold.Chemscore.DEInternal>
0.4117

> <Gold.Chemscore.Rot>
2.6871

> <Gold.Chemscore.Internal.Correction>
   9.000000E+99

> <Gold.Chemscore.Hbonds>
donor molecule, donor type, donor heavy atom, donor atom, acceptor molecule, acceptor atom, score
      P1  H  6933  6945       L1    11  0.05
      P1  H  7997  8009       L1    14  0.93

> <Gold.Chemscore.Hbond.Weighted>
-5.1116

> <Gold.Chemscore.Metal.Weighted>
-0.0000

> <Gold.Chemscore.Lipo.Weighted>
-8.3567

> <Gold.Chemscore.Internal_Hbond.Weighted>
0.0000

> <Gold.Chemscore.DEClash.Weighted>
1.8656

> <Gold.Chemscore.DEInternal.Weighted>
0.4117

> <Gold.Chemscore.Rot.Weighted>
6.8791

> <Gold.Chemscore.Internal.Correction.Weighted>
   9.000000E+99

> <Gold.Protein.RotatedTorsions>
[ 6907 6896 6895 6894 ] final   13.93 input  -60.11 | X-H torsion
[ 7974 7965 7964 7962 ] final  123.79 input  175.53 | X-H torsion
[ 8008 7997 7996 7995 ] final  160.68 input   59.86 | X-H torsion
[ 10167 10162 10161 10158 ] final   64.22 input  -65.29 | X-H torsion
[ 10718 10713 10712 10709 ] final -126.18 input   66.30 | X-H torsion
[ 10763 10752 10751 10750 ] final   45.52 input  -60.55 | X-H torsion
[ 11005 11000 10999 10996 ] final  -80.29 input  -57.11 | X-H torsion

> <Gold.Protein.ActiveResidues>
 VAL166  LYS551  ARG553  GLY616  TRP617  ASP618  TYR619  PRO620  LYS621  CYS622 
 ASP623  PHE694  ASN695  SER759  ASP760  ASP761  ALA762  ILE779  LEU786  VAL792 
 PHE793  MET794  SER795  GLU796  ALA797  LYS798  CYS799  TRP800  GLU811  SER814 

> <Gold.Protein.RotatedAtoms>
  151.7942  135.0727  160.0391 H   0  0  0  0  0  0  0  0  0  0  0  0  # atno 6907 bound_to 6896
  152.3135  133.5773  159.5705 H   0  0  0  0  0  0  0  0  0  0  0  0  # atno 6908 bound_to 6896
  150.7332  134.0033  159.3687 H   0  0  0  0  0  0  0  0  0  0  0  0  # atno 6909 bound_to 6896
  145.0919  139.3581  143.4856 H   0  0  0  0  0  0  0  0  0  0  0  0  # atno 7974 bound_to 7965
  156.2156  140.1798  156.7597 H   0  0  0  0  0  0  0  0  0  0  0  0  # atno 8008 bound_to 7997
  154.5786  140.0670  156.9100 H   0  0  0  0  0  0  0  0  0  0  0  0  # atno 8009 bound_to 7997
  155.2543  140.3331  155.4281 H   0  0  0  0  0  0  0  0  0  0  0  0  # atno 8010 bound_to 7997
  140.1245  144.4700  150.6901 H   0  0  0  0  0  0  0  0  0  0  0  0  # atno 10167 bound_to 10162
  156.1741  130.6688  151.0219 H   0  0  0  0  0  0  0  0  0  0  0  0  # atno 10718 bound_to 10713
  152.9823  135.6037  154.3451 H   0  0  0  0  0  0  0  0  0  0  0  0  # atno 10763 bound_to 10752
  154.3144  135.2770  155.2552 H   0  0  0  0  0  0  0  0  0  0  0  0  # atno 10764 bound_to 10752
  154.4746  135.5933  153.6402 H   0  0  0  0  0  0  0  0  0  0  0  0  # atno 10765 bound_to 10752
  141.1668  133.7143  156.8251 H   0  0  0  0  0  0  0  0  0  0  0  0  # atno 11005 bound_to 11000
  146.3531  140.0757  142.8620 LP  0  0  0  0  0  0  0  0  0  0  0  0  # atno 17320 bound_to 7965
  145.1056  140.9373  143.4687 LP  0  0  0  0  0  0  0  0  0  0  0  0  # atno 17321 bound_to 7965
  140.6853  143.2347  151.5277 LP  0  0  0  0  0  0  0  0  0  0  0  0  # atno 17342 bound_to 10162
  139.5551  144.2295  152.1599 LP  0  0  0  0  0  0  0  0  0  0  0  0  # atno 17343 bound_to 10162
  157.6824  131.0834  150.7335 LP  0  0  0  0  0  0  0  0  0  0  0  0  # atno 17370 bound_to 10713
  156.7393  130.4734  149.5481 LP  0  0  0  0  0  0  0  0  0  0  0  0  # atno 17371 bound_to 10713
  140.2091  134.8840  157.3255 LP  0  0  0  0  0  0  0  0  0  0  0  0  # atno 17394 bound_to 11000
  140.2105  134.4144  155.7615 LP  0  0  0  0  0  0  0  0  0  0  0  0  # atno 17395 bound_to 11000

$$$$
