AV-unprocessed.smi:338|AV-procd|sdf|2376|dock7
  -GOLD-   2262022293D 1   1.00000     0.00000
 Structure written by MMmdl.
 42 44  0  0  0  0  0  0  0  0  2 V2000
  154.5799  140.3813  161.7720 C   0  0  0  0  0  0  0  0  0  0  0  0
  154.2124  140.4472  160.2902 C   0  0  0  0  0  0  0  0  0  0  0  0
  154.7986  139.7038  159.5039 O   0  0  0  0  0  0  0  0  0  0  0  0
  153.1557  141.4152  159.8770 C   0  0  0  0  0  0  0  0  0  0  0  0
  152.8027  142.5185  160.6886 C   0  0  0  0  0  0  0  0  0  0  0  0
  151.8009  143.4142  160.2727 C   0  0  0  0  0  0  0  0  0  0  0  0
  151.1425  143.2177  159.0458 C   0  0  0  0  0  0  0  0  0  0  0  0
  151.4759  142.1279  158.2181 C   0  0  0  0  0  0  0  0  0  0  0  0
  150.7801  142.0099  157.0338 O   0  0  0  0  0  0  0  0  0  0  0  0
  151.1458  140.9708  156.1350 C   0  0  0  0  0  0  0  0  0  0  0  0
  149.9489  140.6540  155.2261 C   0  0  2  0  0  0  0  0  0  0  0  0
  150.4249  139.9818  154.0766 O   0  0  0  0  0  0  0  0  0  0  0  0
  149.1710  141.9199  154.8143 C   0  0  0  0  0  0  0  0  0  0  0  0
  147.7692  141.6412  154.4707 N   0  0  0  0  0  0  0  0  0  0  0  0
  147.2496  141.0632  153.3538 C   0  0  0  0  0  0  0  0  0  0  0  0
  145.8968  141.0193  153.5037 N   0  3  0  0  0  0  0  0  0  0  0  0
  145.5456  141.5793  154.7338 C   0  0  0  0  0  0  0  0  0  0  0  0
  144.3010  141.7588  155.3299 C   0  0  0  0  0  0  0  0  0  0  0  0
  144.2901  142.3719  156.5999 C   0  0  0  0  0  0  0  0  0  0  0  0
  145.4842  142.7812  157.2280 C   0  0  0  0  0  0  0  0  0  0  0  0
  146.7405  142.5930  156.6149 C   0  0  0  0  0  0  0  0  0  0  0  0
  146.7436  141.9838  155.3601 C   0  0  0  0  0  0  0  0  0  0  0  0
  152.4876  141.2298  158.6434 C   0  0  0  0  0  0  0  0  0  0  0  0
  153.7075  140.1214  162.3719 H   0  0  0  0  0  0  0  0  0  0  0  0
  154.9686  141.3413  162.1121 H   0  0  0  0  0  0  0  0  0  0  0  0
  155.3468  139.6251  161.9413 H   0  0  0  0  0  0  0  0  0  0  0  0
  153.2877  142.6990  161.6361 H   0  0  0  0  0  0  0  0  0  0  0  0
  151.5367  144.2550  160.8971 H   0  0  0  0  0  0  0  0  0  0  0  0
  150.3740  143.9110  158.7364 H   0  0  0  0  0  0  0  0  0  0  0  0
  152.0065  141.2664  155.5324 H   0  0  0  0  0  0  0  0  0  0  0  0
  151.4185  140.0798  156.7034 H   0  0  0  0  0  0  0  0  0  0  0  0
  149.2781  139.9711  155.7492 H   0  0  0  0  0  0  0  0  0  0  0  0
  149.7958  140.0953  153.3806 H   0  0  0  0  0  0  0  0  0  0  0  0
  149.1584  142.6329  155.6396 H   0  0  0  0  0  0  0  0  0  0  0  0
  149.6547  142.4299  153.9811 H   0  0  0  0  0  0  0  0  0  0  0  0
  147.8100  140.7033  152.5031 H   0  0  0  0  0  0  0  0  0  0  0  0
  143.3847  141.4478  154.8500 H   0  0  0  0  0  0  0  0  0  0  0  0
  143.3467  142.5333  157.1013 H   0  0  0  0  0  0  0  0  0  0  0  0
  145.4365  143.2508  158.1998 H   0  0  0  0  0  0  0  0  0  0  0  0
  147.6478  142.9163  157.1034 H   0  0  0  0  0  0  0  0  0  0  0  0
  152.7615  140.3862  158.0281 H   0  0  0  0  0  0  0  0  0  0  0  0
  145.2623  140.6354  152.8151 H   0  0  0  0  0  0  0  0  0  0  0  0
  1  2  1  0  0  0  0
  1 24  1  0  0  0  0
  1 25  1  0  0  0  0
  1 26  1  0  0  0  0
  2  3  2  0  0  0  0
  2  4  1  0  0  0  0
  4 23  1  0  0  0  0
  4  5  2  0  0  0  0
  5  6  1  0  0  0  0
  5 27  1  0  0  0  0
  6  7  2  0  0  0  0
  6 28  1  0  0  0  0
  7  8  1  0  0  0  0
  7 29  1  0  0  0  0
  8  9  1  0  0  0  0
  8 23  2  0  0  0  0
  9 10  1  0  0  0  0
 10 11  1  0  0  0  0
 10 30  1  0  0  0  0
 10 31  1  0  0  0  0
 11 12  1  0  0  0  0
 11 13  1  0  0  0  0
 11 32  1  0  0  0  0
 12 33  1  0  0  0  0
 13 14  1  0  0  0  0
 13 34  1  0  0  0  0
 13 35  1  0  0  0  0
 14 22  1  0  0  0  0
 14 15  1  0  0  0  0
 15 16  2  0  0  0  0
 15 36  1  0  0  0  0
 16 17  1  0  0  0  0
 16 42  1  0  0  0  0
 17 22  2  0  0  0  0
 17 18  1  0  0  0  0
 18 19  2  0  0  0  0
 18 37  1  0  0  0  0
 19 20  1  0  0  0  0
 19 38  1  0  0  0  0
 20 21  2  0  0  0  0
 20 39  1  0  0  0  0
 21 22  1  0  0  0  0
 21 40  1  0  0  0  0
 23 41  1  0  0  0  0
M  CHG  1  16   1
M  END
> <s_m_source_file>
AV-unprocessed.smi

> <i_m_source_file_index>
338

> <i_lp_mmshare_version>
43012

> <i_f3d_flags>
0

> <s_epik_input>
W0NIM11DKD1PKWMxW2NIXVtjSF1bY0hdYyhbY0hdMSlPW0NIMl1bQ0BIXShbT0hdKVtDSDJdbihbY0hdbjIpYyhjMjMpW2NIXVtjSF1bY0hdW2NIXTM=

> <s_epik_cmdline>
J2VwaWtfcHl0aG9uJywgJy1waCcsICc3LjAnLCAnLXRuJywgJzgnLCAnLW1hJywgJzIwMCcsICctbWV0YWxfYmluZGluZycsICctaW1hZScsICc8aW5maWxlLm1hZT4nLCAnLW9tYWUnLCAnPG91dGZpbGUubWFlPic=

> <r_lp_tautomer_probability>
0.99995

> <r_epik_Ionization_Penalty>
1.35015

> <r_epik_Ionization_Penalty_Charging>
1.35015

> <r_epik_Ionization_Penalty_Neutral>
2.3993e-06

> <r_epik_State_Penalty>
1.42814

> <r_epik_Charging_Adjusted_Penalty>
2.77829

> <i_epik_Tot_Q>
1

> <i_epik_Tot_abs_Q>
1

> <r_epik_Metal_State_Penalty>
5.46522

> <b_epik_Metal_Only>
0

> <s_lp_Force_Field>
OPLS_2005

> <r_lp_Energy>
26.3487

> <b_lp_Chiralities_Consistent>
1

> <s_lp_Variant>
AV-unprocessed.smi:338-3

> <Gold.Version>
5.8.1

> <Gold.Id.Protein>
6NUR|6NUR_protein|mol2

> <Gold.PLP.Fitness>
56.4264

> <Gold.PLP.PLP>
-42.4413

> <Gold.PLP.part.hbond>
-3.8260

> <Gold.PLP.part.metal>
0.0000

> <Gold.PLP.part.buried>
-1.1811

> <Gold.PLP.part.nonpolar>
-36.1855

> <Gold.PLP.part.repulsive>
0.0721

> <Gold.PLP.ligand.clash>
0.0000

> <Gold.PLP.ligand.torsion>
0.9643

> <Gold.PLP.Chemscore.Hbond>
4.2746

> <Gold.PLP.Chemscore.CHOScore>
1.0000

> <Gold.PLP.Chemscore.Metal>
0.0000

> <Gold.Chemscore.Hbonds>
donor molecule, donor type, donor heavy atom, donor atom, acceptor molecule, acceptor atom, score
      L1  H    12    33       P1  7957  0.42
      L1  H    16    42       P1 10175  1.70
      P1  H  7989  7998       L1    12  0.95
      P1  H  7997  8009       L1     3  0.55
      L1  C    15    36       P1  7957  1.00

> <Gold.PLP.Chemscore.Internal.Correction>
0.0901

> <Gold.Rescore>
     Score         DG    S(hbond)    S(metal)    S(lipo)     H(rot)  DE(clash)    DE(int)     intcor
     17.48     -20.12       2.68        0.00     103.08       2.48       1.40       1.24       ----

> <Gold.Chemscore.Fitness>
17.4837

> <Gold.Chemscore.DG>
-20.1204

> <Gold.Chemscore.ZeroCoef>
-5.4800

> <Gold.Chemscore.Hbond>
2.6764

> <Gold.Chemscore.Metal>
0.0000

> <Gold.Chemscore.Lipo>
103.0827

> <Gold.Chemscore.Internal_Hbond>
0.0000

> <Gold.Chemscore.DEClash>
1.3990

> <Gold.Chemscore.DEInternal>
1.2376

> <Gold.Chemscore.Rot>
2.4842

> <Gold.Chemscore.Internal.Correction>
   9.000000E+99

> <Gold.Chemscore.Hbonds>
donor molecule, donor type, donor heavy atom, donor atom, acceptor molecule, acceptor atom, score
      L1  H    12    33       P1  7957  0.42
      L1  H    16    42       P1 10175  0.50
      P1  H  7989  7998       L1    12  0.13
      P1  H  7997  8009       L1     3  0.56

> <Gold.Chemscore.Hbond.Weighted>
-8.9391

> <Gold.Chemscore.Metal.Weighted>
-0.0000

> <Gold.Chemscore.Lipo.Weighted>
-12.0607

> <Gold.Chemscore.Internal_Hbond.Weighted>
0.0000

> <Gold.Chemscore.DEClash.Weighted>
1.3990

> <Gold.Chemscore.DEInternal.Weighted>
1.2376

> <Gold.Chemscore.Rot.Weighted>
6.3594

> <Gold.Chemscore.Internal.Correction.Weighted>
   9.000000E+99

> <Gold.Protein.RotatedTorsions>
[ 6907 6896 6895 6894 ] final -112.00 input  -60.11 | X-H torsion
[ 7974 7965 7964 7962 ] final -169.18 input  175.53 | X-H torsion
[ 8008 7997 7996 7995 ] final  111.96 input   59.86 | X-H torsion
[ 10167 10162 10161 10158 ] final   55.25 input  -65.29 | X-H torsion
[ 10718 10713 10712 10709 ] final   40.15 input   66.30 | X-H torsion
[ 10763 10752 10751 10750 ] final  -14.09 input  -60.55 | X-H torsion
[ 11005 11000 10999 10996 ] final   92.92 input  -57.11 | X-H torsion

> <Gold.Protein.ActiveResidues>
 VAL166  LYS551  ARG553  GLY616  TRP617  ASP618  TYR619  PRO620  LYS621  CYS622 
 ASP623  PHE694  ASN695  SER759  ASP760  ASP761  ALA762  ILE779  LEU786  VAL792 
 PHE793  MET794  SER795  GLU796  ALA797  LYS798  CYS799  TRP800  GLU811  SER814 

> <Gold.Protein.RotatedAtoms>
  150.7728  133.9153  159.3381 H   0  0  0  0  0  0  0  0  0  0  0  0  # atno 6907 bound_to 6896
  151.7036  135.0924  160.0264 H   0  0  0  0  0  0  0  0  0  0  0  0  # atno 6908 bound_to 6896
  152.3753  133.6434  159.6154 H   0  0  0  0  0  0  0  0  0  0  0  0  # atno 6909 bound_to 6896
  144.7190  140.2259  143.6310 H   0  0  0  0  0  0  0  0  0  0  0  0  # atno 7974 bound_to 7965
  156.2159  140.3009  155.9839 H   0  0  0  0  0  0  0  0  0  0  0  0  # atno 8008 bound_to 7997
  155.2605  140.0429  157.3014 H   0  0  0  0  0  0  0  0  0  0  0  0  # atno 8009 bound_to 7997
  154.5768  140.2364  155.8120 H   0  0  0  0  0  0  0  0  0  0  0  0  # atno 8010 bound_to 7997
  140.2214  144.3784  150.6449 H   0  0  0  0  0  0  0  0  0  0  0  0  # atno 10167 bound_to 10162
  157.3788  130.7742  149.7177 H   0  0  0  0  0  0  0  0  0  0  0  0  # atno 10718 bound_to 10713
  153.5231  135.7015  153.5721 H   0  0  0  0  0  0  0  0  0  0  0  0  # atno 10763 bound_to 10752
  153.3761  135.3932  155.1823 H   0  0  0  0  0  0  0  0  0  0  0  0  # atno 10764 bound_to 10752
  154.8692  135.3824  154.4722 H   0  0  0  0  0  0  0  0  0  0  0  0  # atno 10765 bound_to 10752
  139.8817  134.8760  156.3642 H   0  0  0  0  0  0  0  0  0  0  0  0  # atno 11005 bound_to 11000
  145.8457  139.2151  143.1801 LP  0  0  0  0  0  0  0  0  0  0  0  0  # atno 17320 bound_to 7965
  146.0306  140.8261  142.9878 LP  0  0  0  0  0  0  0  0  0  0  0  0  # atno 17321 bound_to 7965
  140.6252  143.2180  151.6611 LP  0  0  0  0  0  0  0  0  0  0  0  0  # atno 17342 bound_to 10162
  139.5143  144.3416  152.0735 LP  0  0  0  0  0  0  0  0  0  0  0  0  # atno 17343 bound_to 10162
  155.9771  130.4067  150.3733 LP  0  0  0  0  0  0  0  0  0  0  0  0  # atno 17370 bound_to 10713
  157.1834  131.0398  151.2737 LP  0  0  0  0  0  0  0  0  0  0  0  0  # atno 17371 bound_to 10713
  140.9508  133.7452  156.0270 LP  0  0  0  0  0  0  0  0  0  0  0  0  # atno 17394 bound_to 11000
  140.8107  134.3402  157.5412 LP  0  0  0  0  0  0  0  0  0  0  0  0  # atno 17395 bound_to 11000

$$$$
