AV-unprocessed.smi:2072|AV-procd|sdf|8444|dock2
  -GOLD-   2272011143D 1   1.00000     0.00000
 Structure written by MMmdl.
 40 42  0  0  0  0  0  0  0  0  2 V2000
  145.4889  137.3078  154.6411 O   0  0  0  0  0  0  0  0  0  0  0  0
  146.4732  137.0379  153.9546 C   0  0  0  0  0  0  0  0  0  0  0  0
  147.4148  137.9098  153.5540 N   0  0  0  0  0  0  0  0  0  0  0  0
  147.5212  139.3070  153.8036 C   0  0  0  0  0  0  0  0  0  0  0  0
  146.4674  140.1343  154.2661 C   0  0  0  0  0  0  0  0  0  0  0  0
  146.7193  141.5042  154.4748 C   0  0  0  0  0  0  0  0  0  0  0  0
  148.0121  141.9989  154.2174 C   0  0  0  0  0  0  0  0  0  0  0  0
  149.0263  141.2236  153.7808 N   0  0  0  0  0  0  0  0  0  0  0  0
  148.7777  139.9114  153.5830 C   0  0  0  0  0  0  0  0  0  0  0  0
  146.7334  135.8043  153.4984 N   0  0  0  0  0  0  0  0  0  0  0  0
  145.9098  134.6250  153.7512 C   0  0  2  0  0  0  0  0  0  0  0  0
  146.5708  133.6285  154.7200 C   0  0  0  0  0  0  0  0  0  0  0  0
  146.1786  132.2316  154.1987 C   0  0  0  0  0  0  0  0  0  0  0  0
  145.2849  132.4781  153.0509 N   0  3  2  0  0  0  0  0  0  0  0  0
  145.1928  131.4144  152.0273 C   0  0  0  0  0  0  0  0  0  0  0  0
  144.1495  131.8192  150.9668 C   0  0  0  0  0  0  0  0  0  0  0  0
  144.4426  133.2150  150.3804 C   0  0  0  0  0  0  0  0  0  0  0  0
  144.6206  134.2619  151.4969 C   0  0  0  0  0  0  0  0  0  0  0  0
  145.6880  133.7788  152.4940 C   0  0  1  0  0  0  0  0  0  0  0  0
  148.1482  137.5263  152.9758 H   0  0  0  0  0  0  0  0  0  0  0  0
  145.4780  139.7596  154.4716 H   0  0  0  0  0  0  0  0  0  0  0  0
  145.9377  142.1614  154.8261 H   0  0  0  0  0  0  0  0  0  0  0  0
  148.2375  143.0442  154.3678 H   0  0  0  0  0  0  0  0  0  0  0  0
  149.6143  139.3233  153.2347 H   0  0  0  0  0  0  0  0  0  0  0  0
  147.5653  135.6700  152.9426 H   0  0  0  0  0  0  0  0  0  0  0  0
  144.9435  134.9166  154.1685 H   0  0  0  0  0  0  0  0  0  0  0  0
  147.6572  133.7289  154.7137 H   0  0  0  0  0  0  0  0  0  0  0  0
  146.2338  133.7912  155.7443 H   0  0  0  0  0  0  0  0  0  0  0  0
  147.0686  131.6900  153.8738 H   0  0  0  0  0  0  0  0  0  0  0  0
  145.6745  131.6314  154.9566 H   0  0  0  0  0  0  0  0  0  0  0  0
  146.1682  131.2574  151.5644 H   0  0  0  0  0  0  0  0  0  0  0  0
  144.9039  130.4752  152.5002 H   0  0  0  0  0  0  0  0  0  0  0  0
  144.1201  131.0769  150.1685 H   0  0  0  0  0  0  0  0  0  0  0  0
  143.1573  131.8225  151.4201 H   0  0  0  0  0  0  0  0  0  0  0  0
  145.3506  133.1705  149.7774 H   0  0  0  0  0  0  0  0  0  0  0  0
  143.6395  133.5162  149.7070 H   0  0  0  0  0  0  0  0  0  0  0  0
  144.9103  135.2184  151.0615 H   0  0  0  0  0  0  0  0  0  0  0  0
  143.6718  134.4249  152.0099 H   0  0  0  0  0  0  0  0  0  0  0  0
  146.6407  133.6544  151.9732 H   0  0  0  0  0  0  0  0  0  0  0  0
  144.3586  132.6083  153.4324 H   0  0  0  0  0  0  0  0  0  0  0  0
  1  2  2  0  0  0  0
  2  3  1  0  0  0  0
  2 10  1  0  0  0  0
  3  4  1  0  0  0  0
  3 20  1  0  0  0  0
  4  9  1  0  0  0  0
  4  5  2  0  0  0  0
  5  6  1  0  0  0  0
  5 21  1  0  0  0  0
  6  7  2  0  0  0  0
  6 22  1  0  0  0  0
  7  8  1  0  0  0  0
  7 23  1  0  0  0  0
  8  9  2  0  0  0  0
  9 24  1  0  0  0  0
 10 11  1  0  0  0  0
 10 25  1  0  0  0  0
 11 19  1  0  0  0  0
 11 12  1  0  0  0  0
 11 26  1  0  0  0  0
 12 13  1  0  0  0  0
 12 27  1  0  0  0  0
 12 28  1  0  0  0  0
 13 14  1  0  0  0  0
 13 29  1  0  0  0  0
 13 30  1  0  0  0  0
 14 19  1  0  0  0  0
 14 15  1  0  0  0  0
 14 40  1  0  0  0  0
 15 16  1  0  0  0  0
 15 31  1  0  0  0  0
 15 32  1  0  0  0  0
 16 17  1  0  0  0  0
 16 33  1  0  0  0  0
 16 34  1  0  0  0  0
 17 18  1  0  0  0  0
 17 35  1  0  0  0  0
 17 36  1  0  0  0  0
 18 19  1  0  0  0  0
 18 37  1  0  0  0  0
 18 38  1  0  0  0  0
 19 39  1  0  0  0  0
M  CHG  1  14   1
M  END
> <s_m_source_file>
AV-unprocessed.smi

> <i_m_source_file_index>
2072

> <i_lp_mmshare_version>
43012

> <i_f3d_flags>
0

> <s_epik_input>
W0NIMl0xW0NIMl1bQ0gyXVtDSDJdW0NASF0oTjEyKVtDQEBIXShbQ0gyXVtDSDJdMilbTkhdQyg9TylbTkhdYzNbY0hdW2NIXVtjSF1uW2NIXTM=

> <s_epik_cmdline>
J2VwaWtfcHl0aG9uJywgJy1waCcsICc3LjAnLCAnLXRuJywgJzgnLCAnLW1hJywgJzIwMCcsICctbWV0YWxfYmluZGluZycsICctaW1hZScsICc8aW5maWxlLm1hZT4nLCAnLW9tYWUnLCAnPG91dGZpbGUubWFlPic=

> <r_lp_tautomer_probability>
1

> <r_epik_Ionization_Penalty>
0.00482425

> <r_epik_Ionization_Penalty_Charging>
0.000974069

> <r_epik_Ionization_Penalty_Neutral>
0.00385018

> <r_epik_State_Penalty>
-0

> <r_epik_Charging_Adjusted_Penalty>
0.000974069

> <i_epik_Tot_Q>
1

> <i_epik_Tot_abs_Q>
1

> <r_epik_Metal_State_Penalty>
-0

> <b_epik_Metal_Only>
0

> <s_lp_Force_Field>
OPLS_2005

> <r_lp_Energy>
37.8924

> <b_lp_Chiralities_Consistent>
1

> <s_lp_Variant>
AV-unprocessed.smi:2072-3

> <Gold.Version>
5.8.1

> <Gold.Id.Protein>
6NUR|6NUR_protein|mol2

> <Gold.PLP.Fitness>
38.2954

> <Gold.PLP.PLP>
-24.3024

> <Gold.PLP.part.hbond>
-4.0392

> <Gold.PLP.part.metal>
0.0000

> <Gold.PLP.part.buried>
-0.8424

> <Gold.PLP.part.nonpolar>
-21.2790

> <Gold.PLP.part.repulsive>
1.4779

> <Gold.PLP.ligand.clash>
0.0000

> <Gold.PLP.ligand.torsion>
0.2197

> <Gold.PLP.Chemscore.Hbond>
3.4530

> <Gold.PLP.Chemscore.CHOScore>
1.3549

> <Gold.PLP.Chemscore.Metal>
0.0000

> <Gold.Chemscore.Hbonds>
donor molecule, donor type, donor heavy atom, donor atom, acceptor molecule, acceptor atom, score
      L1  H     3    20       P1  7948  1.00
      L1  H    10    25       P1  7948  1.00
      L1  H    14    40       P1 10957  0.54
      P1  H  8011  8017       L1     8  0.88
      L1  C     7    23       P1  8028  1.00
      L1  C     9    24       P1  7957  0.36

> <Gold.PLP.Chemscore.Internal.Correction>
0.0086

> <Gold.Rescore>
     Score         DG    S(hbond)    S(metal)    S(lipo)     H(rot)  DE(clash)    DE(int)     intcor
     17.03     -20.28       2.52        0.00      76.27       1.00       2.03       1.22       ----

> <Gold.Chemscore.Fitness>
17.0290

> <Gold.Chemscore.DG>
-20.2768

> <Gold.Chemscore.ZeroCoef>
-5.4800

> <Gold.Chemscore.Hbond>
2.5250

> <Gold.Chemscore.Metal>
0.0000

> <Gold.Chemscore.Lipo>
76.2690

> <Gold.Chemscore.Internal_Hbond>
0.0000

> <Gold.Chemscore.DEClash>
2.0322

> <Gold.Chemscore.DEInternal>
1.2156

> <Gold.Chemscore.Rot>
1.0000

> <Gold.Chemscore.Internal.Correction>
   9.000000E+99

> <Gold.Chemscore.Hbonds>
donor molecule, donor type, donor heavy atom, donor atom, acceptor molecule, acceptor atom, score
      L1  H     3    20       P1  7948  0.98
      L1  H    10    25       P1  7948  0.98
      L1  H    14    40       P1 10957  0.10
      P1  H  8011  8017       L1     8  0.21

> <Gold.Chemscore.Hbond.Weighted>
-8.4334

> <Gold.Chemscore.Metal.Weighted>
-0.0000

> <Gold.Chemscore.Lipo.Weighted>
-8.9235

> <Gold.Chemscore.Internal_Hbond.Weighted>
0.0000

> <Gold.Chemscore.DEClash.Weighted>
2.0322

> <Gold.Chemscore.DEInternal.Weighted>
1.2156

> <Gold.Chemscore.Rot.Weighted>
2.5600

> <Gold.Chemscore.Internal.Correction.Weighted>
   9.000000E+99

> <Gold.Protein.RotatedTorsions>
[ 6907 6896 6895 6894 ] final  -57.81 input  -60.11 | X-H torsion
[ 7974 7965 7964 7962 ] final  -42.58 input  175.53 | X-H torsion
[ 8008 7997 7996 7995 ] final  -90.88 input   59.86 | X-H torsion
[ 10167 10162 10161 10158 ] final   46.86 input  -65.29 | X-H torsion
[ 10718 10713 10712 10709 ] final   89.91 input   66.30 | X-H torsion
[ 10763 10752 10751 10750 ] final   -0.41 input  -60.55 | X-H torsion
[ 11005 11000 10999 10996 ] final  123.21 input  -57.11 | X-H torsion

> <Gold.Protein.ActiveResidues>
 VAL166  LYS551  ARG553  GLY616  TRP617  ASP618  TYR619  PRO620  LYS621  CYS622 
 ASP623  PHE694  ASN695  SER759  ASP760  ASP761  ALA762  ILE779  LEU786  VAL792 
 PHE793  MET794  SER795  GLU796  ALA797  LYS798  CYS799  TRP800  GLU811  SER814 

> <Gold.Protein.RotatedAtoms>
  150.8056  134.7179  159.6640 H   0  0  0  0  0  0  0  0  0  0  0  0  # atno 6907 bound_to 6896
  152.4175  134.6011  160.0010 H   0  0  0  0  0  0  0  0  0  0  0  0  # atno 6908 bound_to 6896
  151.6236  133.3300  159.3129 H   0  0  0  0  0  0  0  0  0  0  0  0  # atno 6909 bound_to 6896
  146.0102  140.6973  142.9228 H   0  0  0  0  0  0  0  0  0  0  0  0  # atno 7974 bound_to 7965
  154.7040  140.0525  157.0486 H   0  0  0  0  0  0  0  0  0  0  0  0  # atno 8008 bound_to 7997
  155.0646  140.3193  155.4631 H   0  0  0  0  0  0  0  0  0  0  0  0  # atno 8009 bound_to 7997
  156.2769  140.2093  156.5773 H   0  0  0  0  0  0  0  0  0  0  0  0  # atno 8010 bound_to 7997
  140.3096  144.2836  150.6202 H   0  0  0  0  0  0  0  0  0  0  0  0  # atno 10167 bound_to 10162
  157.6957  131.0351  150.3497 H   0  0  0  0  0  0  0  0  0  0  0  0  # atno 10718 bound_to 10713
  153.3316  135.6975  153.6943 H   0  0  0  0  0  0  0  0  0  0  0  0  # atno 10763 bound_to 10752
  153.5743  135.3510  155.2851 H   0  0  0  0  0  0  0  0  0  0  0  0  # atno 10764 bound_to 10752
  154.8619  135.4280  154.2506 H   0  0  0  0  0  0  0  0  0  0  0  0  # atno 10765 bound_to 10752
  139.9302  134.9641  156.8225 H   0  0  0  0  0  0  0  0  0  0  0  0  # atno 11005 bound_to 11000
  144.6950  140.3385  143.7203 LP  0  0  0  0  0  0  0  0  0  0  0  0  # atno 17320 bound_to 7965
  145.7353  139.1748  143.2407 LP  0  0  0  0  0  0  0  0  0  0  0  0  # atno 17321 bound_to 7965
  140.5580  143.2196  151.7815 LP  0  0  0  0  0  0  0  0  0  0  0  0  # atno 17342 bound_to 10162
  139.4896  144.4388  151.9788 LP  0  0  0  0  0  0  0  0  0  0  0  0  # atno 17343 bound_to 10162
  156.3947  130.3904  149.7004 LP  0  0  0  0  0  0  0  0  0  0  0  0  # atno 17370 bound_to 10713
  156.4342  130.7830  151.2850 LP  0  0  0  0  0  0  0  0  0  0  0  0  # atno 17371 bound_to 10713
  140.6222  133.9983  155.7623 LP  0  0  0  0  0  0  0  0  0  0  0  0  # atno 17394 bound_to 11000
  141.0886  133.9951  157.3273 LP  0  0  0  0  0  0  0  0  0  0  0  0  # atno 17395 bound_to 11000

$$$$
