AV-unprocessed.smi:6|AV-procd|sdf|42|dock10
  -GOLD-   2262015153D 1   1.00000     0.00000
 Structure written by MMmdl.
 37 38  0  0  0  0  0  0  0  0  3 V2000
  145.1411  137.0502  151.5652 C   0  0  0  0  0  0  0  0  0  0  0  0
  143.9997  136.0372  151.3883 C   0  0  0  0  0  0  0  0  0  0  0  0
  143.0178  136.0266  152.5698 C   0  0  0  0  0  0  0  0  0  0  0  0
  144.5190  134.6429  151.0672 C   0  0  0  0  0  0  0  0  0  0  0  0
  143.7283  133.7948  150.3894 N   0  3  0  0  0  0  0  0  0  0  0  0
  144.1739  132.5483  150.0980 C   0  0  0  0  0  0  0  0  0  0  0  0
  145.4581  132.1388  150.5017 C   0  0  0  0  0  0  0  0  0  0  0  0
  146.2350  133.0763  151.2036 C   0  0  0  0  0  0  0  0  0  0  0  0
  147.5201  132.7232  151.6339 N   0  0  0  0  0  0  0  0  0  0  0  0
  148.3763  133.7479  152.2195 C   0  0  0  0  0  0  0  0  0  0  0  0
  149.4869  133.1714  153.0848 C   0  0  0  0  0  0  0  0  0  0  0  0
  149.6525  131.8427  153.2529 C   0  0  0  0  0  0  0  0  0  0  0  0
  150.6632  131.3079  154.0684 N   0  0  0  0  0  0  0  0  0  0  0  0
  150.7668  129.8511  154.1811 C   0  0  0  0  0  0  0  0  0  0  0  0
  151.5211  132.1355  154.7298 C   0  0  0  0  0  0  0  0  0  0  0  0
  152.4022  131.6386  155.4324 O   0  0  0  0  0  0  0  0  0  0  0  0
  151.3689  133.4875  154.5872 N   0  5  0  0  0  0  0  0  0  0  0  0
  150.4013  134.0595  153.8127 C   0  0  0  0  0  0  0  0  0  0  0  0
  150.2784  135.2798  153.7091 O   0  0  0  0  0  0  0  0  0  0  0  0
  145.7515  134.3087  151.4766 N   0  0  0  0  0  0  0  0  0  0  0  0
  145.7798  137.0801  150.6821 H   0  0  0  0  0  0  0  0  0  0  0  0
  145.7677  136.7990  152.4217 H   0  0  0  0  0  0  0  0  0  0  0  0
  144.7513  138.0559  151.7248 H   0  0  0  0  0  0  0  0  0  0  0  0
  143.4290  136.3697  150.5195 H   0  0  0  0  0  0  0  0  0  0  0  0
  142.1820  135.3528  152.3796 H   0  0  0  0  0  0  0  0  0  0  0  0
  142.6062  137.0206  152.7467 H   0  0  0  0  0  0  0  0  0  0  0  0
  143.5048  135.7021  153.4903 H   0  0  0  0  0  0  0  0  0  0  0  0
  143.4876  131.9186  149.5511 H   0  0  0  0  0  0  0  0  0  0  0  0
  145.8288  131.1489  150.2776 H   0  0  0  0  0  0  0  0  0  0  0  0
  147.9885  131.9883  151.1225 H   0  0  0  0  0  0  0  0  0  0  0  0
  148.8216  134.3490  151.4255 H   0  0  0  0  0  0  0  0  0  0  0  0
  147.7690  134.4199  152.8273 H   0  0  0  0  0  0  0  0  0  0  0  0
  149.0209  131.1104  152.7717 H   0  0  0  0  0  0  0  0  0  0  0  0
  150.7078  129.5405  155.2253 H   0  0  0  0  0  0  0  0  0  0  0  0
  151.7196  129.5063  153.7769 H   0  0  0  0  0  0  0  0  0  0  0  0
  149.9739  129.3314  153.6424 H   0  0  0  0  0  0  0  0  0  0  0  0
  142.7945  134.0787  150.0917 H   0  0  0  0  0  0  0  0  0  0  0  0
  1  2  1  0  0  0  0
  1 21  1  0  0  0  0
  1 22  1  0  0  0  0
  1 23  1  0  0  0  0
  2  3  1  0  0  0  0
  2  4  1  0  0  0  0
  2 24  1  0  0  0  0
  3 25  1  0  0  0  0
  3 26  1  0  0  0  0
  3 27  1  0  0  0  0
  4 20  1  0  0  0  0
  4  5  2  0  0  0  0
  5  6  1  0  0  0  0
  5 37  1  0  0  0  0
  6  7  2  0  0  0  0
  6 28  1  0  0  0  0
  7  8  1  0  0  0  0
  7 29  1  0  0  0  0
  8  9  1  0  0  0  0
  8 20  2  0  0  0  0
  9 10  1  0  0  0  0
  9 30  1  0  0  0  0
 10 11  1  0  0  0  0
 10 31  1  0  0  0  0
 10 32  1  0  0  0  0
 11 18  1  0  0  0  0
 11 12  2  0  0  0  0
 12 13  1  0  0  0  0
 12 33  1  0  0  0  0
 13 14  1  0  0  0  0
 13 15  1  0  0  0  0
 14 34  1  0  0  0  0
 14 35  1  0  0  0  0
 14 36  1  0  0  0  0
 15 16  2  0  0  0  0
 15 17  1  0  0  0  0
 17 18  1  0  0  0  0
 18 19  2  0  0  0  0
M  CHG  1   5   1
M  CHG  1  17  -1
M  END
> <s_m_source_file>
AV-unprocessed.smi

> <i_m_source_file_index>
6

> <i_lp_mmshare_version>
43012

> <i_f3d_flags>
0

> <s_epik_input>
W0NIM11bQ0hdKFtDSDNdKWMxbltjSF1bY0hdYyhuMSlbTkhdW0NIMl1jMltjSF1uKFtDSDNdKWMoPU8pW25IXWMyPU8=

> <s_epik_cmdline>
J2VwaWtfcHl0aG9uJywgJy1waCcsICc3LjAnLCAnLXRuJywgJzgnLCAnLW1hJywgJzIwMCcsICctbWV0YWxfYmluZGluZycsICctaW1hZScsICc8aW5maWxlLm1hZT4nLCAnLW9tYWUnLCAnPG91dGZpbGUubWFlPic=

> <r_lp_tautomer_probability>
0.998874

> <r_epik_Ionization_Penalty>
4.8157

> <r_epik_Ionization_Penalty_Charging>
0.866709

> <r_epik_Ionization_Penalty_Neutral>
3.94899

> <r_epik_State_Penalty>
4.49389

> <r_epik_Charging_Adjusted_Penalty>
5.3606

> <i_epik_Tot_Q>
0

> <i_epik_Tot_abs_Q>
2

> <r_epik_Metal_State_Penalty>
1.28929

> <b_epik_Metal_Only>
1

> <s_lp_Force_Field>
OPLS_2005

> <r_lp_Energy>
16.1184

> <b_lp_Chiralities_Consistent>
1

> <s_lp_Variant>
AV-unprocessed.smi:6-4

> <Gold.Version>
5.8.1

> <Gold.Id.Protein>
6NUR|6NUR_protein|mol2

> <Gold.PLP.Fitness>
47.8021

> <Gold.PLP.PLP>
-37.7822

> <Gold.PLP.part.hbond>
-2.0000

> <Gold.PLP.part.metal>
0.0000

> <Gold.PLP.part.buried>
-6.0886

> <Gold.PLP.part.nonpolar>
-27.7895

> <Gold.PLP.part.repulsive>
0.2743

> <Gold.PLP.ligand.clash>
0.0000

> <Gold.PLP.ligand.torsion>
0.7686

> <Gold.PLP.Chemscore.Hbond>
3.0000

> <Gold.PLP.Chemscore.CHOScore>
0.8289

> <Gold.PLP.Chemscore.Metal>
0.0000

> <Gold.Chemscore.Hbonds>
donor molecule, donor type, donor heavy atom, donor atom, acceptor molecule, acceptor atom, score
      L1  H     5    37       P1 10186  2.00
      L1  H     9    30       P1 10747  1.00
      L1  C    12    33       P1 10747  0.82

> <Gold.PLP.Chemscore.Internal.Correction>
0.0702

> <Gold.Rescore>
     Score         DG    S(hbond)    S(metal)    S(lipo)     H(rot)  DE(clash)    DE(int)     intcor
     14.07     -14.56       1.99        0.00      56.83       1.65       0.00       0.49       ----

> <Gold.Chemscore.Fitness>
14.0721

> <Gold.Chemscore.DG>
-14.5595

> <Gold.Chemscore.ZeroCoef>
-5.4800

> <Gold.Chemscore.Hbond>
1.9907

> <Gold.Chemscore.Metal>
0.0000

> <Gold.Chemscore.Lipo>
56.8271

> <Gold.Chemscore.Internal_Hbond>
0.0000

> <Gold.Chemscore.DEClash>
0.0009

> <Gold.Chemscore.DEInternal>
0.4865

> <Gold.Chemscore.Rot>
1.6477

> <Gold.Chemscore.Internal.Correction>
   9.000000E+99

> <Gold.Chemscore.Hbonds>
donor molecule, donor type, donor heavy atom, donor atom, acceptor molecule, acceptor atom, score
      L1  H     5    37       P1 10186  0.98
      L1  H     9    30       P1 10747  1.00

> <Gold.Chemscore.Hbond.Weighted>
-6.6488

> <Gold.Chemscore.Metal.Weighted>
-0.0000

> <Gold.Chemscore.Lipo.Weighted>
-6.6488

> <Gold.Chemscore.Internal_Hbond.Weighted>
0.0000

> <Gold.Chemscore.DEClash.Weighted>
0.0009

> <Gold.Chemscore.DEInternal.Weighted>
0.4865

> <Gold.Chemscore.Rot.Weighted>
4.2180

> <Gold.Chemscore.Internal.Correction.Weighted>
   9.000000E+99

> <Gold.Protein.RotatedTorsions>
[ 6907 6896 6895 6894 ] final -155.54 input  -60.11 | X-H torsion
[ 7974 7965 7964 7962 ] final  -13.12 input  175.53 | X-H torsion
[ 8008 7997 7996 7995 ] final -108.32 input   59.86 | X-H torsion
[ 10167 10162 10161 10158 ] final   40.03 input  -65.29 | X-H torsion
[ 10718 10713 10712 10709 ] final -106.24 input   66.30 | X-H torsion
[ 10763 10752 10751 10750 ] final   77.08 input  -60.55 | X-H torsion
[ 11005 11000 10999 10996 ] final   25.02 input  -57.11 | X-H torsion

> <Gold.Protein.ActiveResidues>
 VAL166  LYS551  ARG553  GLY616  TRP617  ASP618  TYR619  PRO620  LYS621  CYS622 
 ASP623  PHE694  ASN695  SER759  ASP760  ASP761  ALA762  ILE779  LEU786  VAL792 
 PHE793  MET794  SER795  GLU796  ALA797  LYS798  CYS799  TRP800  GLU811  SER814 

> <Gold.Protein.RotatedAtoms>
  151.2740  133.4241  159.2622 H   0  0  0  0  0  0  0  0  0  0  0  0  # atno 6907 bound_to 6896
  151.0419  134.9614  159.8176 H   0  0  0  0  0  0  0  0  0  0  0  0  # atno 6908 bound_to 6896
  152.5367  134.2698  159.9019 H   0  0  0  0  0  0  0  0  0  0  0  0  # atno 6909 bound_to 6896
  146.2126  140.3157  142.8386 H   0  0  0  0  0  0  0  0  0  0  0  0  # atno 7974 bound_to 7965
  154.9425  140.0402  157.2103 H   0  0  0  0  0  0  0  0  0  0  0  0  # atno 8008 bound_to 7997
  154.8056  140.2859  155.5868 H   0  0  0  0  0  0  0  0  0  0  0  0  # atno 8009 bound_to 7997
  156.2966  140.2547  156.2933 H   0  0  0  0  0  0  0  0  0  0  0  0  # atno 8010 bound_to 7997
  140.3782  144.2015  150.6131 H   0  0  0  0  0  0  0  0  0  0  0  0  # atno 10167 bound_to 10162
  156.0381  130.5603  150.7652 H   0  0  0  0  0  0  0  0  0  0  0  0  # atno 10718 bound_to 10713
  153.0772  135.4927  154.8429 H   0  0  0  0  0  0  0  0  0  0  0  0  # atno 10763 bound_to 10752
  154.7103  135.3018  154.9209 H   0  0  0  0  0  0  0  0  0  0  0  0  # atno 10764 bound_to 10752
  153.9905  135.6779  153.4807 H   0  0  0  0  0  0  0  0  0  0  0  0  # atno 10765 bound_to 10752
  140.3524  134.2214  155.7679 H   0  0  0  0  0  0  0  0  0  0  0  0  # atno 11005 bound_to 11000
  144.8956  140.7579  143.5899 LP  0  0  0  0  0  0  0  0  0  0  0  0  # atno 17320 bound_to 7965
  145.3081  139.1828  143.4653 LP  0  0  0  0  0  0  0  0  0  0  0  0  # atno 17321 bound_to 7965
  140.4965  143.2331  151.8742 LP  0  0  0  0  0  0  0  0  0  0  0  0  # atno 17342 bound_to 10162
  139.4797  144.5108  151.8935 LP  0  0  0  0  0  0  0  0  0  0  0  0  # atno 17343 bound_to 10162
  157.5161  131.0928  151.0137 LP  0  0  0  0  0  0  0  0  0  0  0  0  # atno 17370 bound_to 10713
  157.0480  130.5776  149.5366 LP  0  0  0  0  0  0  0  0  0  0  0  0  # atno 17371 bound_to 10713
  141.2008  133.7978  157.0471 LP  0  0  0  0  0  0  0  0  0  0  0  0  # atno 17394 bound_to 11000
  140.0692  134.9711  157.1439 LP  0  0  0  0  0  0  0  0  0  0  0  0  # atno 17395 bound_to 11000

$$$$
