AV-unprocessed.smi:392|AV-procd|sdf|2480|dock2
  -GOLD-   2262022423D 1   1.00000     0.00000
 Structure written by MMmdl.
 32 34  0  0  0  0  0  0  0  0  1 V2000
  151.1251  144.3179  157.4030 O   0  0  0  0  0  0  0  0  0  0  0  0
  151.3923  143.0122  157.8740 C   0  0  2  0  0  0  0  0  0  0  0  0
  150.1028  142.1796  157.7377 C   0  0  0  0  0  0  0  0  0  0  0  0
  150.0532  141.4472  156.4855 N   0  0  0  0  0  0  0  0  0  0  0  0
  151.0535  140.7541  155.9077 C   0  0  0  0  0  0  0  0  0  0  0  0
  150.7926  140.1616  154.7458 N   0  0  0  0  0  0  0  0  0  0  0  0
  149.4669  140.5079  154.5474 C   0  0  0  0  0  0  0  0  0  0  0  0
  148.5846  140.1931  153.4891 C   0  0  0  0  0  0  0  0  0  0  0  0
  147.2555  140.6653  153.5025 C   0  0  0  0  0  0  0  0  0  0  0  0
  146.7889  141.4582  154.5712 C   0  0  0  0  0  0  0  0  0  0  0  0
  147.6496  141.7860  155.6363 C   0  0  0  0  0  0  0  0  0  0  0  0
  148.9743  141.3118  155.6194 C   0  0  0  0  0  0  0  0  0  0  0  0
  151.9305  143.0106  159.3007 C   0  0  0  0  0  0  0  0  0  0  0  0
  152.7354  141.9423  159.7559 C   0  0  0  0  0  0  0  0  0  0  0  0
  153.2508  141.9464  161.0661 C   0  0  0  0  0  0  0  0  0  0  0  0
  152.9675  143.0201  161.9308 C   0  0  0  0  0  0  0  0  0  0  0  0
  152.1696  144.0901  161.4832 C   0  0  0  0  0  0  0  0  0  0  0  0
  151.6530  144.0885  160.1728 C   0  0  0  0  0  0  0  0  0  0  0  0
  150.8968  145.1323  159.7558 F   0  0  0  0  0  0  0  0  0  0  0  0
  150.4532  144.2648  156.7403 H   0  0  0  0  0  0  0  0  0  0  0  0
  152.1505  142.6028  157.2057 H   0  0  0  0  0  0  0  0  0  0  0  0
  150.0066  141.4747  158.5650 H   0  0  0  0  0  0  0  0  0  0  0  0
  149.2275  142.8295  157.7779 H   0  0  0  0  0  0  0  0  0  0  0  0
  152.0311  140.6873  156.3625 H   0  0  0  0  0  0  0  0  0  0  0  0
  148.9312  139.5865  152.6656 H   0  0  0  0  0  0  0  0  0  0  0  0
  146.5903  140.4181  152.6883 H   0  0  0  0  0  0  0  0  0  0  0  0
  145.7694  141.8152  154.5726 H   0  0  0  0  0  0  0  0  0  0  0  0
  147.2969  142.3943  156.4558 H   0  0  0  0  0  0  0  0  0  0  0  0
  152.9649  141.1163  159.0988 H   0  0  0  0  0  0  0  0  0  0  0  0
  153.8656  141.1261  161.4067 H   0  0  0  0  0  0  0  0  0  0  0  0
  153.3637  143.0242  162.9355 H   0  0  0  0  0  0  0  0  0  0  0  0
  151.9555  144.9159  162.1457 H   0  0  0  0  0  0  0  0  0  0  0  0
  1  2  1  0  0  0  0
  1 20  1  0  0  0  0
  2  3  1  0  0  0  0
  2 13  1  0  0  0  0
  2 21  1  0  0  0  0
  3  4  1  0  0  0  0
  3 22  1  0  0  0  0
  3 23  1  0  0  0  0
  4 12  1  0  0  0  0
  4  5  1  0  0  0  0
  5  6  2  0  0  0  0
  5 24  1  0  0  0  0
  6  7  1  0  0  0  0
  7 12  2  0  0  0  0
  7  8  1  0  0  0  0
  8  9  2  0  0  0  0
  8 25  1  0  0  0  0
  9 10  1  0  0  0  0
  9 26  1  0  0  0  0
 10 11  2  0  0  0  0
 10 27  1  0  0  0  0
 11 12  1  0  0  0  0
 11 28  1  0  0  0  0
 13 18  1  0  0  0  0
 13 14  2  0  0  0  0
 14 15  1  0  0  0  0
 14 29  1  0  0  0  0
 15 16  2  0  0  0  0
 15 30  1  0  0  0  0
 16 17  1  0  0  0  0
 16 31  1  0  0  0  0
 17 18  2  0  0  0  0
 17 32  1  0  0  0  0
 18 19  1  0  0  0  0
M  END
> <s_m_source_file>
AV-unprocessed.smi

> <i_m_source_file_index>
392

> <i_lp_mmshare_version>
43012

> <i_f3d_flags>
0

> <s_epik_input>
RmMxW2NIXVtjSF1bY0hdW2NIXWMxW0NASF0oW09IXSlbQ0gyXW4oW2NIXW4yKWMoYzIzKVtjSF1bY0hdW2NIXVtjSF0z

> <s_epik_cmdline>
J2VwaWtfcHl0aG9uJywgJy1waCcsICc3LjAnLCAnLXRuJywgJzgnLCAnLW1hJywgJzIwMCcsICctbWV0YWxfYmluZGluZycsICctaW1hZScsICc8aW5maWxlLm1hZT4nLCAnLW9tYWUnLCAnPG91dGZpbGUubWFlPic=

> <r_epik_Ionization_Penalty>
0.0696512

> <r_epik_Ionization_Penalty_Charging>
0

> <r_epik_Ionization_Penalty_Neutral>
0.0696512

> <r_epik_State_Penalty>
0.0610247

> <r_epik_Charging_Adjusted_Penalty>
0.0610247

> <i_epik_Tot_Q>
0

> <i_epik_Tot_abs_Q>
0

> <r_epik_Metal_State_Penalty>
6.42746e-05

> <b_epik_Metal_Only>
0

> <s_lp_Force_Field>
OPLS_2005

> <r_lp_Energy>
12.7977

> <b_lp_Chiralities_Consistent>
1

> <s_lp_Variant>
AV-unprocessed.smi:392-1

> <Gold.Version>
5.8.1

> <Gold.Id.Protein>
6NUR|6NUR_protein|mol2

> <Gold.PLP.Fitness>
52.3392

> <Gold.PLP.PLP>
-49.0402

> <Gold.PLP.part.hbond>
-2.0000

> <Gold.PLP.part.metal>
0.0000

> <Gold.PLP.part.buried>
-0.2468

> <Gold.PLP.part.nonpolar>
-46.5634

> <Gold.PLP.part.repulsive>
0.0724

> <Gold.PLP.ligand.clash>
0.0000

> <Gold.PLP.ligand.torsion>
1.3639

> <Gold.PLP.Chemscore.Hbond>
2.0000

> <Gold.PLP.Chemscore.CHOScore>
0.0000

> <Gold.PLP.Chemscore.Metal>
0.0000

> <Gold.Chemscore.Hbonds>
donor molecule, donor type, donor heavy atom, donor atom, acceptor molecule, acceptor atom, score
      L1  H     1    20       P1  8028  1.00
      P1  H  7989  7998       L1     6  1.00

> <Gold.PLP.Chemscore.Internal.Correction>
0.0268

> <Gold.Rescore>
     Score         DG    S(hbond)    S(metal)    S(lipo)     H(rot)  DE(clash)    DE(int)     intcor
     15.90     -20.32       1.77        0.00     118.22       1.91       1.45       2.97       ----

> <Gold.Chemscore.Fitness>
15.9016

> <Gold.Chemscore.DG>
-20.3182

> <Gold.Chemscore.ZeroCoef>
-5.4800

> <Gold.Chemscore.Hbond>
1.7664

> <Gold.Chemscore.Metal>
0.0000

> <Gold.Chemscore.Lipo>
118.2226

> <Gold.Chemscore.Internal_Hbond>
0.0000

> <Gold.Chemscore.DEClash>
1.4470

> <Gold.Chemscore.DEInternal>
2.9697

> <Gold.Chemscore.Rot>
1.9116

> <Gold.Chemscore.Internal.Correction>
   9.000000E+99

> <Gold.Chemscore.Hbonds>
donor molecule, donor type, donor heavy atom, donor atom, acceptor molecule, acceptor atom, score
      L1  H     1    20       P1  8028  0.97
      P1  H  7989  7998       L1     6  0.39

> <Gold.Chemscore.Hbond.Weighted>
-5.8999

> <Gold.Chemscore.Metal.Weighted>
-0.0000

> <Gold.Chemscore.Lipo.Weighted>
-13.8320

> <Gold.Chemscore.Internal_Hbond.Weighted>
0.0000

> <Gold.Chemscore.DEClash.Weighted>
1.4470

> <Gold.Chemscore.DEInternal.Weighted>
2.9697

> <Gold.Chemscore.Rot.Weighted>
4.8937

> <Gold.Chemscore.Internal.Correction.Weighted>
   9.000000E+99

> <Gold.Protein.RotatedTorsions>
[ 6907 6896 6895 6894 ] final  -28.22 input  -60.11 | X-H torsion
[ 7974 7965 7964 7962 ] final    8.33 input  175.53 | X-H torsion
[ 8008 7997 7996 7995 ] final  -67.05 input   59.86 | X-H torsion
[ 10167 10162 10161 10158 ] final  -37.18 input  -65.29 | X-H torsion
[ 10718 10713 10712 10709 ] final  168.72 input   66.30 | X-H torsion
[ 10763 10752 10751 10750 ] final  -91.71 input  -60.55 | X-H torsion
[ 11005 11000 10999 10996 ] final   89.07 input  -57.11 | X-H torsion

> <Gold.Protein.ActiveResidues>
 VAL166  LYS551  ARG553  GLY616  TRP617  ASP618  TYR619  PRO620  LYS621  CYS622 
 ASP623  PHE694  ASN695  SER759  ASP760  ASP761  ALA762  ILE779  LEU786  VAL792 
 PHE793  MET794  SER795  GLU796  ALA797  LYS798  CYS799  TRP800  GLU811  SER814 

> <Gold.Protein.RotatedAtoms>
  151.1360  135.0155  159.8603 H   0  0  0  0  0  0  0  0  0  0  0  0  # atno 6907 bound_to 6896
  152.5452  134.1555  159.8546 H   0  0  0  0  0  0  0  0  0  0  0  0  # atno 6908 bound_to 6896
  151.1626  133.4790  159.2627 H   0  0  0  0  0  0  0  0  0  0  0  0  # atno 6909 bound_to 6896
  146.2417  139.9949  142.8422 H   0  0  0  0  0  0  0  0  0  0  0  0  # atno 7974 bound_to 7965
  154.4774  140.0900  156.7295 H   0  0  0  0  0  0  0  0  0  0  0  0  # atno 8008 bound_to 7997
  155.4560  140.3459  155.4288 H   0  0  0  0  0  0  0  0  0  0  0  0  # atno 8009 bound_to 7997
  156.1138  140.1455  156.9290 H   0  0  0  0  0  0  0  0  0  0  0  0  # atno 8010 bound_to 7997
  140.7124  143.3359  151.2464 H   0  0  0  0  0  0  0  0  0  0  0  0  # atno 10167 bound_to 10162
  157.0331  131.0265  151.2738 H   0  0  0  0  0  0  0  0  0  0  0  0  # atno 10718 bound_to 10713
  154.6788  135.5258  153.8235 H   0  0  0  0  0  0  0  0  0  0  0  0  # atno 10763 bound_to 10752
  153.0551  135.6547  154.0608 H   0  0  0  0  0  0  0  0  0  0  0  0  # atno 10764 bound_to 10752
  154.0498  135.2970  155.3322 H   0  0  0  0  0  0  0  0  0  0  0  0  # atno 10765 bound_to 10752
  139.8883  134.8528  156.3090 H   0  0  0  0  0  0  0  0  0  0  0  0  # atno 11005 bound_to 11000
  145.1469  140.9602  143.4456 LP  0  0  0  0  0  0  0  0  0  0  0  0  # atno 17320 bound_to 7965
  145.0242  139.3397  143.6057 LP  0  0  0  0  0  0  0  0  0  0  0  0  # atno 17321 bound_to 7965
  139.6854  143.9783  152.2831 LP  0  0  0  0  0  0  0  0  0  0  0  0  # atno 17342 bound_to 10162
  139.9427  144.6671  150.8250 LP  0  0  0  0  0  0  0  0  0  0  0  0  # atno 17343 bound_to 10162
  157.5162  130.7969  149.7759 LP  0  0  0  0  0  0  0  0  0  0  0  0  # atno 17370 bound_to 10713
  156.0063  130.3854  150.2420 LP  0  0  0  0  0  0  0  0  0  0  0  0  # atno 17371 bound_to 10713
  140.9863  133.7236  156.0747 LP  0  0  0  0  0  0  0  0  0  0  0  0  # atno 17394 bound_to 11000
  140.7684  134.3861  157.5512 LP  0  0  0  0  0  0  0  0  0  0  0  0  # atno 17395 bound_to 11000

$$$$
