AV-unprocessed.smi:54|AV-procd|sdf|543|dock5
  -GOLD-   2262016433D 1   1.00000     0.00000
 Structure written by MMmdl.
 44 46  0  0  0  0  0  0  0  0  1 V2000
  152.1622  143.7217  161.4759 C   0  0  0  0  0  0  0  0  0  0  0  0
  152.9966  143.2906  160.2591 C   0  0  0  0  0  0  0  0  0  0  0  0
  152.5576  144.0367  158.9886 C   0  0  0  0  0  0  0  0  0  0  0  0
  152.9068  141.7740  160.0541 C   0  0  0  0  0  0  0  0  0  0  0  0
  153.3276  140.9761  160.8928 O   0  0  0  0  0  0  0  0  0  0  0  0
  152.2877  141.3503  158.8104 N   0  0  0  0  0  0  0  0  0  0  0  0
  152.0777  140.0828  158.3848 C   0  0  0  0  0  0  0  0  0  0  0  0
  151.6023  139.7894  157.1830 N   0  0  0  0  0  0  0  0  0  0  0  0
  151.4704  138.4514  156.9330 C   0  0  0  0  0  0  0  0  0  0  0  0
  151.7670  137.4210  157.7998 C   0  0  0  0  0  0  0  0  0  0  0  0
  151.4980  136.1977  157.1984 N   0  0  0  0  0  0  0  0  0  0  0  0
  151.0601  136.5179  156.0125 C   0  0  0  0  0  0  0  0  0  0  0  0
  151.0255  137.8718  155.7635 N   0  0  0  0  0  0  0  0  0  0  0  0
  150.5785  138.6166  154.5369 C   0  0  2  0  0  0  0  0  0  0  0  0
  150.7782  139.9800  154.7485 O   0  0  0  0  0  0  0  0  0  0  0  0
  149.5851  140.6191  155.2209 C   0  0  1  0  0  0  0  0  0  0  0  0
  149.3069  141.8189  154.2995 C   0  0  0  0  0  0  0  0  0  0  0  0
  148.1047  142.4539  154.6795 O   0  0  0  0  0  0  0  0  0  0  0  0
  148.4726  139.5521  155.1538 C   0  0  2  0  0  0  0  0  0  0  0  0
  148.1751  139.0906  156.4599 O   0  0  0  0  0  0  0  0  0  0  0  0
  149.0762  138.4640  154.2746 C   0  0  2  0  0  0  0  0  0  0  0  0
  148.5379  137.1744  154.5073 O   0  0  0  0  0  0  0  0  0  0  0  0
  152.2710  137.7216  159.1086 C   0  0  0  0  0  0  0  0  0  0  0  0
  152.5827  136.9390  160.0037 O   0  0  0  0  0  0  0  0  0  0  0  0
  152.3994  139.1005  159.3214 N   0  0  0  0  0  0  0  0  0  0  0  0
  151.2147  138.2358  153.7370 H   0  0  0  0  0  0  0  0  0  0  0  0
  149.7213  140.9684  156.2457 H   0  0  0  0  0  0  0  0  0  0  0  0
  147.5465  139.9336  154.7224 H   0  0  0  0  0  0  0  0  0  0  0  0
  148.9105  138.7232  153.2282 H   0  0  0  0  0  0  0  0  0  0  0  0
  152.4728  143.1924  162.3777 H   0  0  0  0  0  0  0  0  0  0  0  0
  151.0997  143.5262  161.3240 H   0  0  0  0  0  0  0  0  0  0  0  0
  152.2767  144.7887  161.6684 H   0  0  0  0  0  0  0  0  0  0  0  0
  154.0387  143.5466  160.4564 H   0  0  0  0  0  0  0  0  0  0  0  0
  153.1386  143.7207  158.1215 H   0  0  0  0  0  0  0  0  0  0  0  0
  152.6976  145.1122  159.1009 H   0  0  0  0  0  0  0  0  0  0  0  0
  151.5040  143.8634  158.7644 H   0  0  0  0  0  0  0  0  0  0  0  0
  151.9655  142.0902  158.2041 H   0  0  0  0  0  0  0  0  0  0  0  0
  150.7555  135.7703  155.2959 H   0  0  0  0  0  0  0  0  0  0  0  0
  150.1333  142.5301  154.3098 H   0  0  0  0  0  0  0  0  0  0  0  0
  149.1805  141.4840  153.2696 H   0  0  0  0  0  0  0  0  0  0  0  0
  148.2958  143.3527  154.9001 H   0  0  0  0  0  0  0  0  0  0  0  0
  147.4062  139.5466  156.7673 H   0  0  0  0  0  0  0  0  0  0  0  0
  148.5112  136.7090  153.6848 H   0  0  0  0  0  0  0  0  0  0  0  0
  152.7540  139.3856  160.2225 H   0  0  0  0  0  0  0  0  0  0  0  0
  1  2  1  0  0  0  0
  1 30  1  0  0  0  0
  1 31  1  0  0  0  0
  1 32  1  0  0  0  0
  2  3  1  0  0  0  0
  2  4  1  0  0  0  0
  2 33  1  0  0  0  0
  3 34  1  0  0  0  0
  3 35  1  0  0  0  0
  3 36  1  0  0  0  0
  4  5  2  0  0  0  0
  4  6  1  0  0  0  0
  6 37  1  0  0  0  0
  6  7  1  0  0  0  0
  7 25  1  0  0  0  0
  7  8  2  0  0  0  0
  8  9  1  0  0  0  0
  9 13  1  0  0  0  0
  9 10  2  0  0  0  0
 10 11  1  0  0  0  0
 10 23  1  0  0  0  0
 11 12  2  0  0  0  0
 12 13  1  0  0  0  0
 12 38  1  0  0  0  0
 13 14  1  0  0  0  0
 14 26  1  0  0  0  0
 14 21  1  0  0  0  0
 14 15  1  0  0  0  0
 15 16  1  0  0  0  0
 16 27  1  0  0  0  0
 16 17  1  0  0  0  0
 16 19  1  0  0  0  0
 17 18  1  0  0  0  0
 17 39  1  0  0  0  0
 17 40  1  0  0  0  0
 18 41  1  0  0  0  0
 19 28  1  0  0  0  0
 19 20  1  0  0  0  0
 19 21  1  0  0  0  0
 20 42  1  0  0  0  0
 21 29  1  0  0  0  0
 21 22  1  0  0  0  0
 22 43  1  0  0  0  0
 23 24  2  0  0  0  0
 23 25  1  0  0  0  0
 25 44  1  0  0  0  0
M  END
> <s_m_source_file>
AV-unprocessed.smi

> <i_m_source_file_index>
54

> <i_lp_mmshare_version>
43012

> <i_f3d_flags>
0

> <s_epik_input>
W0NIM11bQ0hdKFtDSDNdKUMoPU8pW05IXWMobjEpW25IXWMoPU8pYyhjMTIpbltjSF1uMltDQEBIXTNPW0NASF0oW0NIMl1bT0hdKVtDQEBIXShbT0hdKVtDQEhdM1tPSF0=

> <s_epik_cmdline>
J2VwaWtfcHl0aG9uJywgJy1waCcsICc3LjAnLCAnLXRuJywgJzgnLCAnLW1hJywgJzIwMCcsICctbWV0YWxfYmluZGluZycsICctaW1hZScsICc8aW5maWxlLm1hZT4nLCAnLW9tYWUnLCAnPG91dGZpbGUubWFlPic=

> <r_lp_tautomer_probability>
0.85571

> <r_epik_Ionization_Penalty>
0.0316551

> <r_epik_Ionization_Penalty_Charging>
0.0316043

> <r_epik_Ionization_Penalty_Neutral>
5.07097e-05

> <r_epik_State_Penalty>
3.15494e-07

> <r_epik_Charging_Adjusted_Penalty>
0.0316047

> <i_epik_Tot_Q>
0

> <i_epik_Tot_abs_Q>
0

> <r_epik_Metal_State_Penalty>
0.421206

> <b_epik_Metal_Only>
0

> <s_epik_Chemistry_Notes>
This compound contains an acetal/aminal-like group ( X-CH(R)-Y where X, Y are N, S, or O) that may be acid/base labile, releasing an aldehyde.

> <s_lp_Force_Field>
OPLS_2005

> <r_lp_Energy>
46.2687

> <b_lp_Chiralities_Consistent>
1

> <s_lp_Variant>
AV-unprocessed.smi:54-15

> <Gold.Version>
5.8.1

> <Gold.Id.Protein>
6NUR|6NUR_protein|mol2

> <Gold.PLP.Fitness>
48.3234

> <Gold.PLP.PLP>
-38.0297

> <Gold.PLP.part.hbond>
-4.0000

> <Gold.PLP.part.metal>
0.0000

> <Gold.PLP.part.buried>
-4.6710

> <Gold.PLP.part.nonpolar>
-28.6828

> <Gold.PLP.part.repulsive>
0.2586

> <Gold.PLP.ligand.clash>
1.5930

> <Gold.PLP.ligand.torsion>
0.1286

> <Gold.PLP.Chemscore.Hbond>
4.0000

> <Gold.PLP.Chemscore.CHOScore>
0.0000

> <Gold.PLP.Chemscore.Metal>
0.0000

> <Gold.Chemscore.Hbonds>
donor molecule, donor type, donor heavy atom, donor atom, acceptor molecule, acceptor atom, score
      L1  H    18    41       P1  8028  1.00
      L1  H    22    43       P1  7948  1.00
      P1  H  6896  6908       L1    24  1.00
      P1  H  7989  7998       L1    15  1.00

> <Gold.PLP.Chemscore.Internal.Correction>
0.1439

> <Gold.Rescore>
     Score         DG    S(hbond)    S(metal)    S(lipo)     H(rot)  DE(clash)    DE(int)     intcor
     11.09     -15.66       3.87        0.00      65.21       4.05       0.62       3.96       ----

> <Gold.Chemscore.Fitness>
11.0857

> <Gold.Chemscore.DG>
-15.6595

> <Gold.Chemscore.ZeroCoef>
-5.4800

> <Gold.Chemscore.Hbond>
3.8671

> <Gold.Chemscore.Metal>
0.0000

> <Gold.Chemscore.Lipo>
65.2108

> <Gold.Chemscore.Internal_Hbond>
0.0000

> <Gold.Chemscore.DEClash>
0.6160

> <Gold.Chemscore.DEInternal>
3.9578

> <Gold.Chemscore.Rot>
4.0493

> <Gold.Chemscore.Internal.Correction>
   9.000000E+99

> <Gold.Chemscore.Hbonds>
donor molecule, donor type, donor heavy atom, donor atom, acceptor molecule, acceptor atom, score
      L1  H    18    41       P1  8028  0.98
      L1  H    22    43       P1  7948  0.99
      P1  H  6896  6908       L1    24  0.93
      P1  H  7989  7998       L1    15  0.83

> <Gold.Chemscore.Hbond.Weighted>
-12.9160

> <Gold.Chemscore.Metal.Weighted>
-0.0000

> <Gold.Chemscore.Lipo.Weighted>
-7.6297

> <Gold.Chemscore.Internal_Hbond.Weighted>
0.0000

> <Gold.Chemscore.DEClash.Weighted>
0.6160

> <Gold.Chemscore.DEInternal.Weighted>
3.9578

> <Gold.Chemscore.Rot.Weighted>
10.3662

> <Gold.Chemscore.Internal.Correction.Weighted>
   9.000000E+99

> <Gold.Protein.RotatedTorsions>
[ 6907 6896 6895 6894 ] final  -83.42 input  -60.11 | X-H torsion
[ 7974 7965 7964 7962 ] final -123.44 input  175.53 | X-H torsion
[ 8008 7997 7996 7995 ] final   -0.97 input   59.86 | X-H torsion
[ 10167 10162 10161 10158 ] final -115.14 input  -65.29 | X-H torsion
[ 10718 10713 10712 10709 ] final  141.67 input   66.30 | X-H torsion
[ 10763 10752 10751 10750 ] final  120.96 input  -60.55 | X-H torsion
[ 11005 11000 10999 10996 ] final   91.95 input  -57.11 | X-H torsion

> <Gold.Protein.ActiveResidues>
 VAL166  LYS551  ARG553  GLY616  TRP617  ASP618  TYR619  PRO620  LYS621  CYS622 
 ASP623  PHE694  ASN695  SER759  ASP760  ASP761  ALA762  ILE779  LEU786  VAL792 
 PHE793  MET794  SER795  GLU796  ALA797  LYS798  CYS799  TRP800  GLU811  SER814 

> <Gold.Protein.RotatedAtoms>
  150.6886  134.3515  159.4910 H   0  0  0  0  0  0  0  0  0  0  0  0  # atno 6907 bound_to 6896
  152.1355  134.9099  160.0566 H   0  0  0  0  0  0  0  0  0  0  0  0  # atno 6908 bound_to 6896
  152.0253  133.3880  159.4312 H   0  0  0  0  0  0  0  0  0  0  0  0  # atno 6909 bound_to 6896
  145.0187  140.7969  143.4394 H   0  0  0  0  0  0  0  0  0  0  0  0  # atno 7974 bound_to 7965
  154.6520  140.2571  155.7203 H   0  0  0  0  0  0  0  0  0  0  0  0  # atno 8008 bound_to 7997
  156.2579  140.2866  156.0879 H   0  0  0  0  0  0  0  0  0  0  0  0  # atno 8009 bound_to 7997
  155.1437  140.0381  157.2795 H   0  0  0  0  0  0  0  0  0  0  0  0  # atno 8010 bound_to 7997
  140.0933  143.4679  152.1856 H   0  0  0  0  0  0  0  0  0  0  0  0  # atno 10167 bound_to 10162
  157.3893  131.1002  151.0662 H   0  0  0  0  0  0  0  0  0  0  0  0  # atno 10718 bound_to 10713
  153.6066  135.3438  155.2964 H   0  0  0  0  0  0  0  0  0  0  0  0  # atno 10763 bound_to 10752
  154.8626  135.4240  154.2355 H   0  0  0  0  0  0  0  0  0  0  0  0  # atno 10764 bound_to 10752
  153.3196  135.7037  153.7114 H   0  0  0  0  0  0  0  0  0  0  0  0  # atno 10765 bound_to 10752
  139.8831  134.8704  156.3502 H   0  0  0  0  0  0  0  0  0  0  0  0  # atno 11005 bound_to 11000
  145.1925  139.2294  143.5235 LP  0  0  0  0  0  0  0  0  0  0  0  0  # atno 17320 bound_to 7965
  146.3482  140.1724  142.8589 LP  0  0  0  0  0  0  0  0  0  0  0  0  # atno 17321 bound_to 7965
  139.5712  144.7463  151.3886 LP  0  0  0  0  0  0  0  0  0  0  0  0  # atno 17342 bound_to 10162
  140.7017  143.7616  150.7413 LP  0  0  0  0  0  0  0  0  0  0  0  0  # atno 17343 bound_to 10162
  157.1702  130.6264  149.5638 LP  0  0  0  0  0  0  0  0  0  0  0  0  # atno 17370 bound_to 10713
  155.9794  130.4788  150.6714 LP  0  0  0  0  0  0  0  0  0  0  0  0  # atno 17371 bound_to 10713
  140.9600  133.7395  156.0387 LP  0  0  0  0  0  0  0  0  0  0  0  0  # atno 17394 bound_to 11000
  140.8002  134.3518  157.5441 LP  0  0  0  0  0  0  0  0  0  0  0  0  # atno 17395 bound_to 11000

$$$$
