AV-unprocessed.smi:1560|AV-procd|sdf|6280|dock8
  -GOLD-   22720 6473D 1   1.00000     0.00000
 Structure written by MMmdl.
 46 47  0  0  0  0  0  0  0  0  2 V2000
  146.7900  139.5238  152.9250 C   0  0  0  0  0  0  0  0  0  0  0  0
  146.4569  138.1771  152.2577 C   0  0  0  0  0  0  0  0  0  0  0  0
  145.9094  137.0643  153.2083 C   0  0  2  0  0  0  0  0  0  0  0  0
  144.5420  137.5776  153.7355 C   0  0  0  0  0  0  0  0  0  0  0  0
  146.8766  136.9189  154.4289 C   0  0  0  0  0  0  0  0  0  0  0  0
  148.2774  137.1810  154.1019 N   0  0  0  0  0  0  0  0  0  0  0  0
  149.0615  138.0983  154.6878 C   0  0  0  0  0  0  0  0  0  0  0  0
  148.6621  138.8883  155.5436 O   0  0  0  0  0  0  0  0  0  0  0  0
  150.5247  138.1280  154.2337 C   0  0  0  0  0  0  0  0  0  0  0  0
  151.4470  138.1188  155.3795 N   0  0  0  0  0  0  0  0  0  0  0  0
  151.5489  136.9350  156.1310 C   0  0  0  0  0  0  0  0  0  0  0  0
  152.3797  136.8334  157.1860 C   0  0  0  0  0  0  0  0  0  0  0  0
  153.1875  137.9933  157.5432 C   0  0  0  0  0  0  0  0  0  0  0  0
  153.9498  137.9194  158.5050 O   0  0  0  0  0  0  0  0  0  0  0  0
  153.0550  139.1182  156.7812 N   0  5  0  0  0  0  0  0  0  0  0  0
  152.2080  139.2065  155.7094 C   0  0  0  0  0  0  0  0  0  0  0  0
  152.1077  140.2304  155.0318 O   0  0  0  0  0  0  0  0  0  0  0  0
  145.7378  135.7770  152.4765 N   0  0  0  0  0  0  0  0  0  0  0  0
  144.8607  135.8356  151.3014 C   0  0  0  0  0  0  0  0  0  0  0  0
  144.8516  134.5093  150.5219 C   0  0  0  0  0  0  0  0  0  0  0  0
  144.4644  133.4466  151.3849 O   0  0  0  0  0  0  0  0  0  0  0  0
  145.3252  133.3203  152.5105 C   0  0  0  0  0  0  0  0  0  0  0  0
  145.3312  134.6362  153.3064 C   0  0  0  0  0  0  0  0  0  0  0  0
  147.1588  140.2327  152.1835 H   0  0  0  0  0  0  0  0  0  0  0  0
  147.5652  139.4179  153.6834 H   0  0  0  0  0  0  0  0  0  0  0  0
  145.9163  139.9731  153.3964 H   0  0  0  0  0  0  0  0  0  0  0  0
  145.7585  138.3520  151.4392 H   0  0  0  0  0  0  0  0  0  0  0  0
  147.3678  137.8335  151.7672 H   0  0  0  0  0  0  0  0  0  0  0  0
  144.5930  138.6170  154.0628 H   0  0  0  0  0  0  0  0  0  0  0  0
  144.1929  137.0028  154.5933 H   0  0  0  0  0  0  0  0  0  0  0  0
  143.7679  137.5214  152.9697 H   0  0  0  0  0  0  0  0  0  0  0  0
  146.6159  137.6316  155.2100 H   0  0  0  0  0  0  0  0  0  0  0  0
  146.7842  135.9337  154.8861 H   0  0  0  0  0  0  0  0  0  0  0  0
  148.7009  136.5767  153.4127 H   0  0  0  0  0  0  0  0  0  0  0  0
  150.7368  137.2872  153.5701 H   0  0  0  0  0  0  0  0  0  0  0  0
  150.6759  139.0201  153.6245 H   0  0  0  0  0  0  0  0  0  0  0  0
  150.9229  136.1213  155.7953 H   0  0  0  0  0  0  0  0  0  0  0  0
  152.4492  135.9155  157.7510 H   0  0  0  0  0  0  0  0  0  0  0  0
  143.8392  136.0687  151.6019 H   0  0  0  0  0  0  0  0  0  0  0  0
  145.1771  136.6211  150.6175 H   0  0  0  0  0  0  0  0  0  0  0  0
  144.1498  134.5645  149.6896 H   0  0  0  0  0  0  0  0  0  0  0  0
  145.8358  134.3039  150.0982 H   0  0  0  0  0  0  0  0  0  0  0  0
  144.9742  132.5003  153.1371 H   0  0  0  0  0  0  0  0  0  0  0  0
  146.3335  133.0635  152.1812 H   0  0  0  0  0  0  0  0  0  0  0  0
  146.0019  134.5093  154.1540 H   0  0  0  0  0  0  0  0  0  0  0  0
  144.3343  134.8007  153.7144 H   0  0  0  0  0  0  0  0  0  0  0  0
  1  2  1  0  0  0  0
  1 24  1  0  0  0  0
  1 25  1  0  0  0  0
  1 26  1  0  0  0  0
  2  3  1  0  0  0  0
  2 27  1  0  0  0  0
  2 28  1  0  0  0  0
  3  4  1  0  0  0  0
  3  5  1  0  0  0  0
  3 18  1  0  0  0  0
  4 29  1  0  0  0  0
  4 30  1  0  0  0  0
  4 31  1  0  0  0  0
  5  6  1  0  0  0  0
  5 32  1  0  0  0  0
  5 33  1  0  0  0  0
  6  7  1  0  0  0  0
  6 34  1  0  0  0  0
  7  8  2  0  0  0  0
  7  9  1  0  0  0  0
  9 10  1  0  0  0  0
  9 35  1  0  0  0  0
  9 36  1  0  0  0  0
 10 16  1  0  0  0  0
 10 11  1  0  0  0  0
 11 12  2  0  0  0  0
 11 37  1  0  0  0  0
 12 13  1  0  0  0  0
 12 38  1  0  0  0  0
 13 14  2  0  0  0  0
 13 15  1  0  0  0  0
 15 16  1  0  0  0  0
 16 17  2  0  0  0  0
 18 23  1  0  0  0  0
 18 19  1  0  0  0  0
 19 20  1  0  0  0  0
 19 39  1  0  0  0  0
 19 40  1  0  0  0  0
 20 21  1  0  0  0  0
 20 41  1  0  0  0  0
 20 42  1  0  0  0  0
 21 22  1  0  0  0  0
 22 23  1  0  0  0  0
 22 43  1  0  0  0  0
 22 44  1  0  0  0  0
 23 45  1  0  0  0  0
 23 46  1  0  0  0  0
M  CHG  1  15  -1
M  END
> <s_m_source_file>
AV-unprocessed.smi

> <i_m_source_file_index>
1560

> <i_lp_mmshare_version>
43012

> <i_f3d_flags>
0

> <s_epik_input>
W0NIMl0xW0NIMl1PW0NIMl1bQ0gyXU4xW0NAQF0oW0NIM10pKFtDSDJdW0NIM10pW0NIMl1bTkhdQyg9TylbQ0gyXW4yW2NIXVtjSF1jKD1PKVtuSF1jMj1P

> <s_epik_cmdline>
J2VwaWtfcHl0aG9uJywgJy1waCcsICc3LjAnLCAnLXRuJywgJzgnLCAnLW1hJywgJzIwMCcsICctbWV0YWxfYmluZGluZycsICctaW1hZScsICc8aW5maWxlLm1hZT4nLCAnLW9tYWUnLCAnPG91dGZpbGUubWFlPic=

> <r_lp_tautomer_probability>
0.999537

> <r_epik_Ionization_Penalty>
3.35108

> <r_epik_Ionization_Penalty_Charging>
2.65778e-08

> <r_epik_Ionization_Penalty_Neutral>
3.35108

> <r_epik_State_Penalty>
3.36199

> <r_epik_Charging_Adjusted_Penalty>
3.36199

> <i_epik_Tot_Q>
-1

> <i_epik_Tot_abs_Q>
1

> <r_epik_Metal_State_Penalty>
0.748914

> <b_epik_Metal_Only>
1

> <s_lp_Force_Field>
OPLS_2005

> <r_lp_Energy>
50.983

> <b_lp_Chiralities_Consistent>
1

> <s_lp_Variant>
AV-unprocessed.smi:1560-6

> <Gold.Version>
5.8.1

> <Gold.Id.Protein>
6NUR|6NUR_protein|mol2

> <Gold.PLP.Fitness>
37.2454

> <Gold.PLP.PLP>
-27.6658

> <Gold.PLP.part.hbond>
-2.8167

> <Gold.PLP.part.metal>
0.0000

> <Gold.PLP.part.buried>
-2.1938

> <Gold.PLP.part.nonpolar>
-23.5141

> <Gold.PLP.part.repulsive>
0.3348

> <Gold.PLP.ligand.clash>
0.0000

> <Gold.PLP.ligand.torsion>
0.8185

> <Gold.PLP.Chemscore.Hbond>
3.6960

> <Gold.PLP.Chemscore.CHOScore>
0.0000

> <Gold.PLP.Chemscore.Metal>
0.0000

> <Gold.Chemscore.Hbonds>
donor molecule, donor type, donor heavy atom, donor atom, acceptor molecule, acceptor atom, score
      L1  H     6    34       P1  7948  0.98
      P1  H  7989  7998       L1    17  0.70
      P1  H  7997  8008       L1    15  2.00

> <Gold.PLP.Chemscore.Internal.Correction>
0.1285

> <Gold.Rescore>
     Score         DG    S(hbond)    S(metal)    S(lipo)     H(rot)  DE(clash)    DE(int)     intcor
     13.61     -14.36       2.56        0.00      55.77       2.42       0.05       0.70       ----

> <Gold.Chemscore.Fitness>
13.6052

> <Gold.Chemscore.DG>
-14.3567

> <Gold.Chemscore.ZeroCoef>
-5.4800

> <Gold.Chemscore.Hbond>
2.5588

> <Gold.Chemscore.Metal>
0.0000

> <Gold.Chemscore.Lipo>
55.7657

> <Gold.Chemscore.Internal_Hbond>
0.0000

> <Gold.Chemscore.DEClash>
0.0466

> <Gold.Chemscore.DEInternal>
0.7049

> <Gold.Chemscore.Rot>
2.4197

> <Gold.Chemscore.Internal.Correction>
   9.000000E+99

> <Gold.Chemscore.Hbonds>
donor molecule, donor type, donor heavy atom, donor atom, acceptor molecule, acceptor atom, score
      L1  H     6    34       P1  7948  0.92
      P1  H  7989  7998       L1    17  0.70
      P1  H  7997  8008       L1    15  0.78

> <Gold.Chemscore.Hbond.Weighted>
-8.5465

> <Gold.Chemscore.Metal.Weighted>
-0.0000

> <Gold.Chemscore.Lipo.Weighted>
-6.5246

> <Gold.Chemscore.Internal_Hbond.Weighted>
0.0000

> <Gold.Chemscore.DEClash.Weighted>
0.0466

> <Gold.Chemscore.DEInternal.Weighted>
0.7049

> <Gold.Chemscore.Rot.Weighted>
6.1943

> <Gold.Chemscore.Internal.Correction.Weighted>
   9.000000E+99

> <Gold.Protein.RotatedTorsions>
[ 6907 6896 6895 6894 ] final   28.78 input  -60.11 | X-H torsion
[ 7974 7965 7964 7962 ] final   92.17 input  175.53 | X-H torsion
[ 8008 7997 7996 7995 ] final  -69.81 input   59.86 | X-H torsion
[ 10167 10162 10161 10158 ] final  110.11 input  -65.29 | X-H torsion
[ 10718 10713 10712 10709 ] final  128.86 input   66.30 | X-H torsion
[ 10763 10752 10751 10750 ] final   45.50 input  -60.55 | X-H torsion
[ 11005 11000 10999 10996 ] final  -60.75 input  -57.11 | X-H torsion

> <Gold.Protein.ActiveResidues>
 VAL166  LYS551  ARG553  GLY616  TRP617  ASP618  TYR619  PRO620  LYS621  CYS622 
 ASP623  PHE694  ASN695  SER759  ASP760  ASP761  ALA762  ILE779  LEU786  VAL792 
 PHE793  MET794  SER795  GLU796  ALA797  LYS798  CYS799  TRP800  GLU811  SER814 

> <Gold.Protein.RotatedAtoms>
  152.0219  134.9818  160.0570 H   0  0  0  0  0  0  0  0  0  0  0  0  # atno 6907 bound_to 6896
  152.1329  133.4413  159.4737 H   0  0  0  0  0  0  0  0  0  0  0  0  # atno 6908 bound_to 6896
  150.6858  134.2317  159.4480 H   0  0  0  0  0  0  0  0  0  0  0  0  # atno 6909 bound_to 6896
  145.4958  139.2276  143.2804 H   0  0  0  0  0  0  0  0  0  0  0  0  # atno 7974 bound_to 7965
  154.4965  140.0846  156.7708 H   0  0  0  0  0  0  0  0  0  0  0  0  # atno 8008 bound_to 7997
  155.4103  140.3441  155.4245 H   0  0  0  0  0  0  0  0  0  0  0  0  # atno 8009 bound_to 7997
  156.1401  140.1527  156.8921 H   0  0  0  0  0  0  0  0  0  0  0  0  # atno 8010 bound_to 7997
  139.6714  144.7125  151.1681 H   0  0  0  0  0  0  0  0  0  0  0  0  # atno 10167 bound_to 10162
  157.5207  131.1098  150.9158 H   0  0  0  0  0  0  0  0  0  0  0  0  # atno 10718 bound_to 10713
  152.9824  135.6037  154.3446 H   0  0  0  0  0  0  0  0  0  0  0  0  # atno 10763 bound_to 10752
  154.3141  135.2770  155.2554 H   0  0  0  0  0  0  0  0  0  0  0  0  # atno 10764 bound_to 10752
  154.4750  135.5932  153.6404 H   0  0  0  0  0  0  0  0  0  0  0  0  # atno 10765 bound_to 10752
  141.1299  133.6624  156.5271 H   0  0  0  0  0  0  0  0  0  0  0  0  # atno 11005 bound_to 11000
  146.2256  140.5756  142.8998 LP  0  0  0  0  0  0  0  0  0  0  0  0  # atno 17320 bound_to 7965
  144.7808  140.5835  143.6607 LP  0  0  0  0  0  0  0  0  0  0  0  0  # atno 17321 bound_to 7965
  140.7619  143.5839  150.8866 LP  0  0  0  0  0  0  0  0  0  0  0  0  # atno 17342 bound_to 10162
  139.9504  143.6278  152.3030 LP  0  0  0  0  0  0  0  0  0  0  0  0  # atno 17343 bound_to 10162
  156.9770  130.5512  149.5294 LP  0  0  0  0  0  0  0  0  0  0  0  0  # atno 17370 bound_to 10713
  156.0351  130.5439  150.8633 LP  0  0  0  0  0  0  0  0  0  0  0  0  # atno 17371 bound_to 10713
  140.4245  134.7157  157.4908 LP  0  0  0  0  0  0  0  0  0  0  0  0  # atno 17394 bound_to 11000
  140.0336  134.6369  155.9073 LP  0  0  0  0  0  0  0  0  0  0  0  0  # atno 17395 bound_to 11000

$$$$
