AV-unprocessed.smi:2940|AV-procd|sdf|11262|dock3
  -GOLD-   2272016153D 1   1.00000     0.00000
 Structure written by MMmdl.
 26 27  0  0  0  0  0  0  0  0  1 V2000
  148.6704  140.2587  153.7972 N   0  0  0  0  0  0  0  0  0  0  0  0
  149.4420  140.6699  154.8809 C   0  0  0  0  0  0  0  0  0  0  0  0
  148.8607  141.4339  155.9126 C   0  0  0  0  0  0  0  0  0  0  0  0
  149.6727  141.8313  156.9922 C   0  0  0  0  0  0  0  0  0  0  0  0
  151.0342  141.4512  157.0010 C   0  0  0  0  0  0  0  0  0  0  0  0
  151.9062  141.8099  158.0387 N   0  0  0  0  0  0  0  0  0  0  0  0
  151.9729  143.2479  158.2663 C   0  0  0  0  0  0  0  0  0  0  0  0
  153.0357  143.5636  159.3335 C   0  0  0  0  0  0  0  0  0  0  0  0
  152.7466  142.8383  160.5255 O   0  0  0  0  0  0  0  0  0  0  0  0
  152.7573  141.4299  160.3099 C   0  0  0  0  0  0  0  0  0  0  0  0
  151.6866  141.0591  159.2686 C   0  0  0  0  0  0  0  0  0  0  0  0
  151.5126  140.6858  155.9163 C   0  0  0  0  0  0  0  0  0  0  0  0
  150.7402  140.3006  154.8774 N   0  0  0  0  0  0  0  0  0  0  0  0
  149.0626  139.7109  153.0452 H   0  0  0  0  0  0  0  0  0  0  0  0
  147.6919  140.4988  153.7294 H   0  0  0  0  0  0  0  0  0  0  0  0
  147.8170  141.7110  155.8808 H   0  0  0  0  0  0  0  0  0  0  0  0
  149.2535  142.4182  157.7963 H   0  0  0  0  0  0  0  0  0  0  0  0
  152.2165  143.7596  157.3343 H   0  0  0  0  0  0  0  0  0  0  0  0
  151.0000  143.6167  158.5943 H   0  0  0  0  0  0  0  0  0  0  0  0
  154.0347  143.3105  158.9748 H   0  0  0  0  0  0  0  0  0  0  0  0
  153.0382  144.6301  159.5581 H   0  0  0  0  0  0  0  0  0  0  0  0
  153.7474  141.1093  159.9815 H   0  0  0  0  0  0  0  0  0  0  0  0
  152.5551  140.9243  161.2541 H   0  0  0  0  0  0  0  0  0  0  0  0
  150.6948  141.2790  159.6661 H   0  0  0  0  0  0  0  0  0  0  0  0
  151.7229  139.9890  159.0607 H   0  0  0  0  0  0  0  0  0  0  0  0
  152.5457  140.3724  155.8794 H   0  0  0  0  0  0  0  0  0  0  0  0
  1  2  1  0  0  0  0
  1 14  1  0  0  0  0
  1 15  1  0  0  0  0
  2 13  1  0  0  0  0
  2  3  2  0  0  0  0
  3  4  1  0  0  0  0
  3 16  1  0  0  0  0
  4  5  2  0  0  0  0
  4 17  1  0  0  0  0
  5  6  1  0  0  0  0
  5 12  1  0  0  0  0
  6 11  1  0  0  0  0
  6  7  1  0  0  0  0
  7  8  1  0  0  0  0
  7 18  1  0  0  0  0
  7 19  1  0  0  0  0
  8  9  1  0  0  0  0
  8 20  1  0  0  0  0
  8 21  1  0  0  0  0
  9 10  1  0  0  0  0
 10 11  1  0  0  0  0
 10 22  1  0  0  0  0
 10 23  1  0  0  0  0
 11 24  1  0  0  0  0
 11 25  1  0  0  0  0
 12 13  2  0  0  0  0
 12 26  1  0  0  0  0
M  END
> <s_m_source_file>
AV-unprocessed.smi

> <i_m_source_file_index>
2940

> <i_lp_mmshare_version>
43012

> <i_f3d_flags>
0

> <s_epik_input>
W05IMl1jMVtjSF1bY0hdYyhbY0hdbjEpTjJbQ0gyXVtDSDJdT1tDSDJdW0NIMl0y

> <s_epik_cmdline>
J2VwaWtfcHl0aG9uJywgJy1waCcsICc3LjAnLCAnLXRuJywgJzgnLCAnLW1hJywgJzIwMCcsICctbWV0YWxfYmluZGluZycsICctaW1hZScsICc8aW5maWxlLm1hZT4nLCAnLW9tYWUnLCAnPG91dGZpbGUubWFlPic=

> <r_lp_tautomer_probability>
1

> <r_epik_Ionization_Penalty>
0.109499

> <r_epik_Ionization_Penalty_Charging>
0

> <r_epik_Ionization_Penalty_Neutral>
0.109499

> <r_epik_State_Penalty>
0.0992404

> <r_epik_Charging_Adjusted_Penalty>
0.0992404

> <i_epik_Tot_Q>
0

> <i_epik_Tot_abs_Q>
0

> <r_epik_Metal_State_Penalty>
0.000108026

> <b_epik_Metal_Only>
0

> <s_lp_Force_Field>
OPLS_2005

> <r_lp_Energy>
21.5337

> <b_lp_Chiralities_Consistent>
1

> <s_lp_Variant>
AV-unprocessed.smi:2940-1

> <Gold.Version>
5.8.1

> <Gold.Id.Protein>
6NUR|6NUR_protein|mol2

> <Gold.PLP.Fitness>
31.3092

> <Gold.PLP.PLP>
-26.1656

> <Gold.PLP.part.hbond>
-2.0000

> <Gold.PLP.part.metal>
0.0000

> <Gold.PLP.part.buried>
-4.0504

> <Gold.PLP.part.nonpolar>
-20.1070

> <Gold.PLP.part.repulsive>
0.2229

> <Gold.PLP.ligand.clash>
0.0000

> <Gold.PLP.ligand.torsion>
0.1798

> <Gold.PLP.Chemscore.Hbond>
1.8000

> <Gold.PLP.Chemscore.CHOScore>
0.0000

> <Gold.PLP.Chemscore.Metal>
0.0000

> <Gold.Chemscore.Hbonds>
donor molecule, donor type, donor heavy atom, donor atom, acceptor molecule, acceptor atom, score
      L1  H     1    14       P1  7957  0.74
      P1  H  7989  7998       L1    13  1.00

> <Gold.PLP.Chemscore.Internal.Correction>
0.1032

> <Gold.Rescore>
     Score         DG    S(hbond)    S(metal)    S(lipo)     H(rot)  DE(clash)    DE(int)     intcor
     15.75     -16.00       1.75        0.00      61.79       1.00       0.14       0.11       ----

> <Gold.Chemscore.Fitness>
15.7510

> <Gold.Chemscore.DG>
-16.0000

> <Gold.Chemscore.ZeroCoef>
-5.4800

> <Gold.Chemscore.Hbond>
1.7515

> <Gold.Chemscore.Metal>
0.0000

> <Gold.Chemscore.Lipo>
61.7946

> <Gold.Chemscore.Internal_Hbond>
0.0000

> <Gold.Chemscore.DEClash>
0.1357

> <Gold.Chemscore.DEInternal>
0.1133

> <Gold.Chemscore.Rot>
1.0000

> <Gold.Chemscore.Internal.Correction>
   9.000000E+99

> <Gold.Chemscore.Hbonds>
donor molecule, donor type, donor heavy atom, donor atom, acceptor molecule, acceptor atom, score
      L1  H     1    14       P1  7957  0.71
      P1  H  7989  7998       L1    13  0.35

> <Gold.Chemscore.Hbond.Weighted>
-5.8500

> <Gold.Chemscore.Metal.Weighted>
-0.0000

> <Gold.Chemscore.Lipo.Weighted>
-7.2300

> <Gold.Chemscore.Internal_Hbond.Weighted>
0.0000

> <Gold.Chemscore.DEClash.Weighted>
0.1357

> <Gold.Chemscore.DEInternal.Weighted>
0.1133

> <Gold.Chemscore.Rot.Weighted>
2.5600

> <Gold.Chemscore.Internal.Correction.Weighted>
   9.000000E+99

> <Gold.Protein.RotatedTorsions>
[ 6907 6896 6895 6894 ] final  106.87 input  -60.11 | X-H torsion
[ 7974 7965 7964 7962 ] final  -81.15 input  175.53 | X-H torsion
[ 8008 7997 7996 7995 ] final   13.82 input   59.86 | X-H torsion
[ 10167 10162 10161 10158 ] final   13.43 input  -65.29 | X-H torsion
[ 10718 10713 10712 10709 ] final  154.09 input   66.30 | X-H torsion
[ 10763 10752 10751 10750 ] final  135.56 input  -60.55 | X-H torsion
[ 11005 11000 10999 10996 ] final  132.45 input  -57.11 | X-H torsion

> <Gold.Protein.ActiveResidues>
 VAL166  LYS551  ARG553  GLY616  TRP617  ASP618  TYR619  PRO620  LYS621  CYS622 
 ASP623  PHE694  ASN695  SER759  ASP760  ASP761  ALA762  ILE779  LEU786  VAL792 
 PHE793  MET794  SER795  GLU796  ALA797  LYS798  CYS799  TRP800  GLU811  SER814 

> <Gold.Protein.RotatedAtoms>
  152.5177  133.9317  159.7583 H   0  0  0  0  0  0  0  0  0  0  0  0  # atno 6907 bound_to 6896
  150.9666  133.6380  159.2752 H   0  0  0  0  0  0  0  0  0  0  0  0  # atno 6908 bound_to 6896
  151.3606  135.0908  159.9486 H   0  0  0  0  0  0  0  0  0  0  0  0  # atno 6909 bound_to 6896
  145.5505  140.9497  143.1502 H   0  0  0  0  0  0  0  0  0  0  0  0  # atno 7974 bound_to 7965
  154.8399  140.2913  155.5666 H   0  0  0  0  0  0  0  0  0  0  0  0  # atno 8008 bound_to 7997
  156.3011  140.2516  156.3271 H   0  0  0  0  0  0  0  0  0  0  0  0  # atno 8009 bound_to 7997
  154.9137  140.0388  157.1950 H   0  0  0  0  0  0  0  0  0  0  0  0  # atno 8010 bound_to 7997
  140.6003  143.8618  150.6958 H   0  0  0  0  0  0  0  0  0  0  0  0  # atno 10167 bound_to 10162
  157.2361  131.0749  151.1822 H   0  0  0  0  0  0  0  0  0  0  0  0  # atno 10718 bound_to 10713
  153.8420  135.3090  155.3427 H   0  0  0  0  0  0  0  0  0  0  0  0  # atno 10763 bound_to 10752
  154.7928  135.4772  154.0095 H   0  0  0  0  0  0  0  0  0  0  0  0  # atno 10764 bound_to 10752
  153.1570  135.6854  153.8890 H   0  0  0  0  0  0  0  0  0  0  0  0  # atno 10765 bound_to 10752
  139.9791  134.9554  156.9584 H   0  0  0  0  0  0  0  0  0  0  0  0  # atno 11005 bound_to 11000
  144.7532  139.7141  143.7265 LP  0  0  0  0  0  0  0  0  0  0  0  0  # atno 17320 bound_to 7965
  146.1920  139.5165  142.9799 LP  0  0  0  0  0  0  0  0  0  0  0  0  # atno 17321 bound_to 7965
  140.2163  143.3844  152.1679 LP  0  0  0  0  0  0  0  0  0  0  0  0  # atno 17342 bound_to 10162
  139.5286  144.7133  151.5137 LP  0  0  0  0  0  0  0  0  0  0  0  0  # atno 17343 bound_to 10162
  157.3427  130.7042  149.6392 LP  0  0  0  0  0  0  0  0  0  0  0  0  # atno 17370 bound_to 10713
  155.9672  130.4275  150.4747 LP  0  0  0  0  0  0  0  0  0  0  0  0  # atno 17371 bound_to 10713
  140.5133  134.0980  155.7275 LP  0  0  0  0  0  0  0  0  0  0  0  0  # atno 17394 bound_to 11000
  141.1465  133.9046  157.2202 LP  0  0  0  0  0  0  0  0  0  0  0  0  # atno 17395 bound_to 11000

$$$$
