AV-unprocessed.smi:1464|AV-procd|sdf|5945|dock6
  -GOLD-   22720 6 23D 1   1.00000     0.00000
 Structure written by MMmdl.
 41 42  0  0  0  0  0  0  0  0  1 V2000
  152.8169  142.8518  162.1483 C   0  0  0  0  0  0  0  0  0  0  0  0
  152.7512  143.4262  160.7212 C   0  0  2  0  0  0  0  0  0  0  0  0
  151.9835  144.7633  160.7403 C   0  0  0  0  0  0  0  0  0  0  0  0
  151.9139  145.4010  159.3487 C   0  0  0  0  0  0  0  0  0  0  0  0
  151.2628  144.4413  158.3490 C   0  0  0  0  0  0  0  0  0  0  0  0
  152.0154  143.0978  158.2904 C   0  0  2  0  0  0  0  0  0  0  0  0
  151.3340  142.2033  157.3562 N   0  0  0  0  0  0  0  0  0  0  0  0
  150.2729  141.4353  157.6462 C   0  0  0  0  0  0  0  0  0  0  0  0
  149.7671  141.3773  158.7678 O   0  0  0  0  0  0  0  0  0  0  0  0
  149.7186  140.5908  156.4899 C   0  0  0  0  0  0  0  0  0  0  0  0
  148.5928  141.2301  155.7938 N   0  0  0  0  0  0  0  0  0  0  0  0
  147.5379  141.5797  156.6231 N   0  0  0  0  0  0  0  0  0  0  0  0
  146.4972  142.1627  156.1315 C   0  0  0  0  0  0  0  0  0  0  0  0
  145.4768  142.4949  156.9885 O   0  0  0  0  0  0  0  0  0  0  0  0
  146.4026  142.4595  154.7187 C   0  0  0  0  0  0  0  0  0  0  0  0
  147.4328  142.1092  153.9178 C   0  0  0  0  0  0  0  0  0  0  0  0
  148.6277  141.4458  154.4427 C   0  0  0  0  0  0  0  0  0  0  0  0
  149.5790  141.1125  153.7360 O   0  0  0  0  0  0  0  0  0  0  0  0
  152.1323  142.4382  159.6916 C   0  0  1  0  0  0  0  0  0  0  0  0
  152.9221  141.1127  159.6159 C   0  0  0  0  0  0  0  0  0  0  0  0
  145.4382  141.7919  157.6184 H   0  0  0  0  0  0  0  0  0  0  0  0
  151.8335  142.5312  162.4933 H   0  0  0  0  0  0  0  0  0  0  0  0
  153.1867  143.5976  162.8526 H   0  0  0  0  0  0  0  0  0  0  0  0
  153.4920  141.9994  162.2142 H   0  0  0  0  0  0  0  0  0  0  0  0
  153.7742  143.6407  160.4084 H   0  0  0  0  0  0  0  0  0  0  0  0
  150.9723  144.6038  161.1178 H   0  0  0  0  0  0  0  0  0  0  0  0
  152.4622  145.4593  161.4301 H   0  0  0  0  0  0  0  0  0  0  0  0
  151.3484  146.3322  159.3930 H   0  0  0  0  0  0  0  0  0  0  0  0
  152.9175  145.6621  159.0105 H   0  0  0  0  0  0  0  0  0  0  0  0
  150.2230  144.2723  158.6326 H   0  0  0  0  0  0  0  0  0  0  0  0
  151.2422  144.9057  157.3623 H   0  0  0  0  0  0  0  0  0  0  0  0
  153.0276  143.2862  157.9263 H   0  0  0  0  0  0  0  0  0  0  0  0
  151.6871  142.1821  156.4106 H   0  0  0  0  0  0  0  0  0  0  0  0
  150.5168  140.3717  155.7778 H   0  0  0  0  0  0  0  0  0  0  0  0
  149.4140  139.6242  156.8951 H   0  0  0  0  0  0  0  0  0  0  0  0
  145.5254  142.9486  154.3216 H   0  0  0  0  0  0  0  0  0  0  0  0
  147.3759  142.3239  152.8609 H   0  0  0  0  0  0  0  0  0  0  0  0
  151.1228  142.1978  160.0296 H   0  0  0  0  0  0  0  0  0  0  0  0
  153.9611  141.2880  159.3351 H   0  0  0  0  0  0  0  0  0  0  0  0
  152.4965  140.4246  158.8856 H   0  0  0  0  0  0  0  0  0  0  0  0
  152.9177  140.5830  160.5676 H   0  0  0  0  0  0  0  0  0  0  0  0
  1  2  1  0  0  0  0
  1 22  1  0  0  0  0
  1 23  1  0  0  0  0
  1 24  1  0  0  0  0
  2 19  1  0  0  0  0
  2  3  1  0  0  0  0
  2 25  1  0  0  0  0
  3  4  1  0  0  0  0
  3 26  1  0  0  0  0
  3 27  1  0  0  0  0
  4  5  1  0  0  0  0
  4 28  1  0  0  0  0
  4 29  1  0  0  0  0
  5  6  1  0  0  0  0
  5 30  1  0  0  0  0
  5 31  1  0  0  0  0
  6  7  1  0  0  0  0
  6 19  1  0  0  0  0
  6 32  1  0  0  0  0
  7  8  1  0  0  0  0
  7 33  1  0  0  0  0
  8  9  2  0  0  0  0
  8 10  1  0  0  0  0
 10 34  1  0  0  0  0
 10 35  1  0  0  0  0
 10 11  1  0  0  0  0
 11 12  1  0  0  0  0
 11 17  1  0  0  0  0
 12 13  2  0  0  0  0
 13 14  1  0  0  0  0
 13 15  1  0  0  0  0
 14 21  1  0  0  0  0
 15 36  1  0  0  0  0
 15 16  2  0  0  0  0
 16 37  1  0  0  0  0
 16 17  1  0  0  0  0
 17 18  2  0  0  0  0
 19 20  1  0  0  0  0
 19 38  1  0  0  0  0
 20 39  1  0  0  0  0
 20 40  1  0  0  0  0
 20 41  1  0  0  0  0
M  END
> <s_m_source_file>
AV-unprocessed.smi

> <i_m_source_file_index>
1464

> <i_lp_mmshare_version>
43012

> <i_f3d_flags>
0

> <s_epik_input>
W0NIM11bQ0BASF0xW0NIMl1bQ0gyXVtDSDJdW0NASF0oW0NASF0xW0NIM10pW05IXUMoPU8pW0NIMl1uMltuSF1jKD1PKVtjSF1bY0hdYzI9Tw==

> <s_epik_cmdline>
J2VwaWtfcHl0aG9uJywgJy1waCcsICc3LjAnLCAnLXRuJywgJzgnLCAnLW1hJywgJzIwMCcsICctbWV0YWxfYmluZGluZycsICctaW1hZScsICc8aW5maWxlLm1hZT4nLCAnLW9tYWUnLCAnPG91dGZpbGUubWFlPic=

> <r_lp_tautomer_probability>
0.9996

> <r_epik_Ionization_Penalty>
2.10335

> <r_epik_Ionization_Penalty_Charging>
3.98079e-08

> <r_epik_Ionization_Penalty_Neutral>
2.10335

> <r_epik_State_Penalty>
1.67957

> <r_epik_Charging_Adjusted_Penalty>
1.67957

> <i_epik_Tot_Q>
0

> <i_epik_Tot_abs_Q>
0

> <r_epik_Metal_State_Penalty>
1.67957

> <b_epik_Metal_Only>
0

> <s_lp_Force_Field>
OPLS_2005

> <r_lp_Energy>
21.8095

> <b_lp_Chiralities_Consistent>
1

> <s_lp_Variant>
AV-unprocessed.smi:1464-11

> <Gold.Version>
5.8.1

> <Gold.Id.Protein>
6NUR|6NUR_protein|mol2

> <Gold.PLP.Fitness>
46.1083

> <Gold.PLP.PLP>
-43.8322

> <Gold.PLP.part.hbond>
-3.0000

> <Gold.PLP.part.metal>
0.0000

> <Gold.PLP.part.buried>
-6.0271

> <Gold.PLP.part.nonpolar>
-37.7100

> <Gold.PLP.part.repulsive>
2.4203

> <Gold.PLP.ligand.clash>
0.0000

> <Gold.PLP.ligand.torsion>
0.6728

> <Gold.PLP.Chemscore.Hbond>
1.2040

> <Gold.PLP.Chemscore.CHOScore>
0.0000

> <Gold.PLP.Chemscore.Metal>
0.0000

> <Gold.Chemscore.Hbonds>
donor molecule, donor type, donor heavy atom, donor atom, acceptor molecule, acceptor atom, score
      P1  H  7989  7998       L1    18  0.29
      P1  H  8011  8017       L1    18  0.93

> <Gold.PLP.Chemscore.Internal.Correction>
0.0097

> <Gold.Rescore>
     Score         DG    S(hbond)    S(metal)    S(lipo)     H(rot)  DE(clash)    DE(int)     intcor
     13.35     -15.73       1.05        0.00     106.39       2.22       0.49       1.89       ----

> <Gold.Chemscore.Fitness>
13.3531

> <Gold.Chemscore.DG>
-15.7349

> <Gold.Chemscore.ZeroCoef>
-5.4800

> <Gold.Chemscore.Hbond>
1.0469

> <Gold.Chemscore.Metal>
0.0000

> <Gold.Chemscore.Lipo>
106.3900

> <Gold.Chemscore.Internal_Hbond>
0.0000

> <Gold.Chemscore.DEClash>
0.4922

> <Gold.Chemscore.DEInternal>
1.8896

> <Gold.Chemscore.Rot>
2.2224

> <Gold.Chemscore.Internal.Correction>
   9.000000E+99

> <Gold.Chemscore.Hbonds>
donor molecule, donor type, donor heavy atom, donor atom, acceptor molecule, acceptor atom, score
      P1  H  7989  7998       L1    18  0.27
      P1  H  8011  8017       L1    18  0.63

> <Gold.Chemscore.Hbond.Weighted>
-3.4966

> <Gold.Chemscore.Metal.Weighted>
-0.0000

> <Gold.Chemscore.Lipo.Weighted>
-12.4476

> <Gold.Chemscore.Internal_Hbond.Weighted>
0.0000

> <Gold.Chemscore.DEClash.Weighted>
0.4922

> <Gold.Chemscore.DEInternal.Weighted>
1.8896

> <Gold.Chemscore.Rot.Weighted>
5.6893

> <Gold.Chemscore.Internal.Correction.Weighted>
   9.000000E+99

> <Gold.Protein.RotatedTorsions>
[ 6907 6896 6895 6894 ] final  132.12 input  -60.11 | X-H torsion
[ 7974 7965 7964 7962 ] final    9.51 input  175.53 | X-H torsion
[ 8008 7997 7996 7995 ] final  118.50 input   59.86 | X-H torsion
[ 10167 10162 10161 10158 ] final   61.60 input  -65.29 | X-H torsion
[ 10718 10713 10712 10709 ] final   64.53 input   66.30 | X-H torsion
[ 10763 10752 10751 10750 ] final -172.42 input  -60.55 | X-H torsion
[ 11005 11000 10999 10996 ] final  117.27 input  -57.11 | X-H torsion

> <Gold.Protein.ActiveResidues>
 VAL166  LYS551  ARG553  GLY616  TRP617  ASP618  TYR619  PRO620  LYS621  CYS622 
 ASP623  PHE694  ASN695  SER759  ASP760  ASP761  ALA762  ILE779  LEU786  VAL792 
 PHE793  MET794  SER795  GLU796  ALA797  LYS798  CYS799  TRP800  GLU811  SER814 

> <Gold.Protein.RotatedAtoms>
  152.3356  133.6008  159.5840 H   0  0  0  0  0  0  0  0  0  0  0  0  # atno 6907 bound_to 6896
  150.7448  133.9800  159.3582 H   0  0  0  0  0  0  0  0  0  0  0  0  # atno 6908 bound_to 6896
  151.7670  135.0796  160.0405 H   0  0  0  0  0  0  0  0  0  0  0  0  # atno 6909 bound_to 6896
  146.2402  139.9772  142.8440 H   0  0  0  0  0  0  0  0  0  0  0  0  # atno 7974 bound_to 7965
  156.2549  140.2873  156.0844 H   0  0  0  0  0  0  0  0  0  0  0  0  # atno 8008 bound_to 7997
  155.1531  140.0398  157.2843 H   0  0  0  0  0  0  0  0  0  0  0  0  # atno 8009 bound_to 7997
  154.6446  140.2530  155.7289 H   0  0  0  0  0  0  0  0  0  0  0  0  # atno 8010 bound_to 7997
  140.1530  144.4444  150.6749 H   0  0  0  0  0  0  0  0  0  0  0  0  # atno 10167 bound_to 10162
  157.6046  130.9165  149.9858 H   0  0  0  0  0  0  0  0  0  0  0  0  # atno 10718 bound_to 10713
  154.6194  135.2873  155.0343 H   0  0  0  0  0  0  0  0  0  0  0  0  # atno 10763 bound_to 10752
  154.1543  135.6498  153.4974 H   0  0  0  0  0  0  0  0  0  0  0  0  # atno 10764 bound_to 10752
  153.0229  135.5363  154.6978 H   0  0  0  0  0  0  0  0  0  0  0  0  # atno 10765 bound_to 10752
  139.9069  134.9608  156.7325 H   0  0  0  0  0  0  0  0  0  0  0  0  # atno 11005 bound_to 11000
  145.1625  140.9680  143.4368 LP  0  0  0  0  0  0  0  0  0  0  0  0  # atno 17320 bound_to 7965
  145.0103  139.3516  143.6123 LP  0  0  0  0  0  0  0  0  0  0  0  0  # atno 17321 bound_to 7965
  140.6690  143.2278  151.5671 LP  0  0  0  0  0  0  0  0  0  0  0  0  # atno 17342 bound_to 10162
  139.5416  144.2631  152.1363 LP  0  0  0  0  0  0  0  0  0  0  0  0  # atno 17343 bound_to 10162
  156.1128  130.3649  150.0020 LP  0  0  0  0  0  0  0  0  0  0  0  0  # atno 17370 bound_to 10713
  156.8115  130.9326  151.3644 LP  0  0  0  0  0  0  0  0  0  0  0  0  # atno 17371 bound_to 10713
  140.6914  133.9387  155.7968 LP  0  0  0  0  0  0  0  0  0  0  0  0  # atno 17394 bound_to 11000
  141.0439  134.0582  157.3868 LP  0  0  0  0  0  0  0  0  0  0  0  0  # atno 17395 bound_to 11000

$$$$
