AV-unprocessed.smi:1655|AV-procd|sdf|6645|dock5
  -GOLD-   22720 7343D 1   1.00000     0.00000
 Structure written by MMmdl.
 34 35  0  0  0  0  0  0  0  0  1 V2000
  155.3163  132.8045  160.4429 C   0  0  0  0  0  0  0  0  0  0  0  0
  154.9114  134.2255  160.2471 C   0  0  0  0  0  0  0  0  0  0  0  0
  155.0690  135.3500  161.0076 C   0  0  0  0  0  0  0  0  0  0  0  0
  154.4445  136.3565  160.2239 C   0  0  0  0  0  0  0  0  0  0  0  0
  154.3920  137.7005  160.6736 N   0  0  0  0  0  0  0  0  0  0  0  0
  154.2813  138.8112  159.9254 C   0  0  0  0  0  0  0  0  0  0  0  0
  154.2101  138.8351  158.6961 O   0  0  0  0  0  0  0  0  0  0  0  0
  154.2546  139.9126  160.6898 N   0  0  0  0  0  0  0  0  0  0  0  0
  154.1339  141.2771  160.1893 C   0  0  0  0  0  0  0  0  0  0  0  0
  152.8281  141.9393  160.6597 C   0  0  0  0  0  0  0  0  0  0  0  0
  152.7251  143.4120  160.2368 C   0  0  1  0  0  0  0  0  0  0  0  0
  152.8678  143.6374  158.7316 C   0  0  0  0  0  0  0  0  0  0  0  0
  152.0645  144.9045  158.4741 C   0  0  0  0  0  0  0  0  0  0  0  0
  151.3121  145.1469  159.7849 C   0  0  0  0  0  0  0  0  0  0  0  0
  151.4306  143.9281  160.5034 O   0  0  0  0  0  0  0  0  0  0  0  0
  153.9494  135.8888  159.0882 N   0  0  0  0  0  0  0  0  0  0  0  0
  154.2459  134.5206  159.0975 O   0  0  0  0  0  0  0  0  0  0  0  0
  156.1945  132.7361  161.0851 H   0  0  0  0  0  0  0  0  0  0  0  0
  155.5585  132.3333  159.4901 H   0  0  0  0  0  0  0  0  0  0  0  0
  154.5118  132.2345  160.9076 H   0  0  0  0  0  0  0  0  0  0  0  0
  155.5534  135.4350  161.9689 H   0  0  0  0  0  0  0  0  0  0  0  0
  154.4410  137.8301  161.6732 H   0  0  0  0  0  0  0  0  0  0  0  0
  154.3196  139.8007  161.6909 H   0  0  0  0  0  0  0  0  0  0  0  0
  154.9909  141.8444  160.5530 H   0  0  0  0  0  0  0  0  0  0  0  0
  154.1969  141.2841  159.0997 H   0  0  0  0  0  0  0  0  0  0  0  0
  151.9779  141.3946  160.2472 H   0  0  0  0  0  0  0  0  0  0  0  0
  152.7458  141.8628  161.7447 H   0  0  0  0  0  0  0  0  0  0  0  0
  153.4639  144.0135  160.7699 H   0  0  0  0  0  0  0  0  0  0  0  0
  153.9096  143.7262  158.4225 H   0  0  0  0  0  0  0  0  0  0  0  0
  152.4246  142.8082  158.1785 H   0  0  0  0  0  0  0  0  0  0  0  0
  152.7070  145.7513  158.2311 H   0  0  0  0  0  0  0  0  0  0  0  0
  151.3742  144.7566  157.6427 H   0  0  0  0  0  0  0  0  0  0  0  0
  151.7852  145.9465  160.3570 H   0  0  0  0  0  0  0  0  0  0  0  0
  150.2671  145.4137  159.6264 H   0  0  0  0  0  0  0  0  0  0  0  0
  1  2  1  0  0  0  0
  1 18  1  0  0  0  0
  1 19  1  0  0  0  0
  1 20  1  0  0  0  0
  2 17  1  0  0  0  0
  2  3  2  0  0  0  0
  3  4  1  0  0  0  0
  3 21  1  0  0  0  0
  4  5  1  0  0  0  0
  4 16  2  0  0  0  0
  5  6  1  0  0  0  0
  5 22  1  0  0  0  0
  6  7  2  0  0  0  0
  6  8  1  0  0  0  0
  8  9  1  0  0  0  0
  8 23  1  0  0  0  0
  9 10  1  0  0  0  0
  9 24  1  0  0  0  0
  9 25  1  0  0  0  0
 10 11  1  0  0  0  0
 10 26  1  0  0  0  0
 10 27  1  0  0  0  0
 11 15  1  0  0  0  0
 11 12  1  0  0  0  0
 11 28  1  0  0  0  0
 12 13  1  0  0  0  0
 12 29  1  0  0  0  0
 12 30  1  0  0  0  0
 13 14  1  0  0  0  0
 13 31  1  0  0  0  0
 13 32  1  0  0  0  0
 14 15  1  0  0  0  0
 14 33  1  0  0  0  0
 14 34  1  0  0  0  0
 16 17  1  0  0  0  0
M  END
> <s_m_source_file>
AV-unprocessed.smi

> <i_m_source_file_index>
1655

> <i_lp_mmshare_version>
43012

> <i_f3d_flags>
0

> <s_epik_input>
W0NIM11jMVtjSF1jKG5vMSlbTkhdQyg9TylbTkhdW0NIMl1bQ0gyXVtDQEBIXTJbQ0gyXVtDSDJdW0NIMl1PMg==

> <s_epik_cmdline>
J2VwaWtfcHl0aG9uJywgJy1waCcsICc3LjAnLCAnLXRuJywgJzgnLCAnLW1hJywgJzIwMCcsICctbWV0YWxfYmluZGluZycsICctaW1hZScsICc8aW5maWxlLm1hZT4nLCAnLW9tYWUnLCAnPG91dGZpbGUubWFlPic=

> <r_lp_tautomer_probability>
1

> <r_epik_Ionization_Penalty>
2.23964e-05

> <r_epik_Ionization_Penalty_Charging>
0

> <r_epik_Ionization_Penalty_Neutral>
2.23964e-05

> <r_epik_State_Penalty>
-0

> <r_epik_Charging_Adjusted_Penalty>
0

> <i_epik_Tot_Q>
0

> <i_epik_Tot_abs_Q>
0

> <r_epik_Metal_State_Penalty>
-0

> <b_epik_Metal_Only>
0

> <s_lp_Force_Field>
OPLS_2005

> <r_lp_Energy>
15.0992

> <b_lp_Chiralities_Consistent>
1

> <s_lp_Variant>
AV-unprocessed.smi:1655-2

> <Gold.Version>
5.8.1

> <Gold.Id.Protein>
6NUR|6NUR_protein|mol2

> <Gold.PLP.Fitness>
38.8981

> <Gold.PLP.PLP>
-33.4023

> <Gold.PLP.part.hbond>
-2.6402

> <Gold.PLP.part.metal>
0.0000

> <Gold.PLP.part.buried>
-5.0562

> <Gold.PLP.part.nonpolar>
-26.1526

> <Gold.PLP.part.repulsive>
0.1589

> <Gold.PLP.ligand.clash>
0.0000

> <Gold.PLP.ligand.torsion>
0.1736

> <Gold.PLP.Chemscore.Hbond>
1.9424

> <Gold.PLP.Chemscore.CHOScore>
0.0000

> <Gold.PLP.Chemscore.Metal>
0.0000

> <Gold.Chemscore.Hbonds>
donor molecule, donor type, donor heavy atom, donor atom, acceptor molecule, acceptor atom, score
      P1  H  6896  6909       L1    17  0.60
      P1  H  7997  8008       L1     7  1.00

> <Gold.PLP.Chemscore.Internal.Correction>
0.0158

> <Gold.Rescore>
     Score         DG    S(hbond)    S(metal)    S(lipo)     H(rot)  DE(clash)    DE(int)     intcor
     13.53     -14.92       0.99        0.00      86.47       1.55       0.10       1.29       ----

> <Gold.Chemscore.Fitness>
13.5329

> <Gold.Chemscore.DG>
-14.9230

> <Gold.Chemscore.ZeroCoef>
-5.4800

> <Gold.Chemscore.Hbond>
0.9863

> <Gold.Chemscore.Metal>
0.0000

> <Gold.Chemscore.Lipo>
86.4727

> <Gold.Chemscore.Internal_Hbond>
0.0000

> <Gold.Chemscore.DEClash>
0.1018

> <Gold.Chemscore.DEInternal>
1.2883

> <Gold.Chemscore.Rot>
1.5503

> <Gold.Chemscore.Internal.Correction>
   9.000000E+99

> <Gold.Chemscore.Hbonds>
donor molecule, donor type, donor heavy atom, donor atom, acceptor molecule, acceptor atom, score
      P1  H  6896  6909       L1    17  0.01
      P1  H  7997  8008       L1     7  0.97

> <Gold.Chemscore.Hbond.Weighted>
-3.2944

> <Gold.Chemscore.Metal.Weighted>
-0.0000

> <Gold.Chemscore.Lipo.Weighted>
-10.1173

> <Gold.Chemscore.Internal_Hbond.Weighted>
0.0000

> <Gold.Chemscore.DEClash.Weighted>
0.1018

> <Gold.Chemscore.DEInternal.Weighted>
1.2883

> <Gold.Chemscore.Rot.Weighted>
3.9687

> <Gold.Chemscore.Internal.Correction.Weighted>
   9.000000E+99

> <Gold.Protein.RotatedTorsions>
[ 6907 6896 6895 6894 ] final -133.49 input  -60.11 | X-H torsion
[ 7974 7965 7964 7962 ] final  -22.84 input  175.53 | X-H torsion
[ 8008 7997 7996 7995 ] final -116.25 input   59.86 | X-H torsion
[ 10167 10162 10161 10158 ] final   10.91 input  -65.29 | X-H torsion
[ 10718 10713 10712 10709 ] final   19.92 input   66.30 | X-H torsion
[ 10763 10752 10751 10750 ] final  -62.67 input  -60.55 | X-H torsion
[ 11005 11000 10999 10996 ] final  146.01 input  -57.11 | X-H torsion

> <Gold.Protein.ActiveResidues>
 VAL166  LYS551  ARG553  GLY616  TRP617  ASP618  TYR619  PRO620  LYS621  CYS622 
 ASP623  PHE694  ASN695  SER759  ASP760  ASP761  ALA762  ILE779  LEU786  VAL792 
 PHE793  MET794  SER795  GLU796  ALA797  LYS798  CYS799  TRP800  GLU811  SER814 

> <Gold.Protein.RotatedAtoms>
  150.9746  133.6308  159.2732 H   0  0  0  0  0  0  0  0  0  0  0  0  # atno 6907 bound_to 6896
  151.3585  135.0898  159.9436 H   0  0  0  0  0  0  0  0  0  0  0  0  # atno 6908 bound_to 6896
  152.5195  133.9324  159.7641 H   0  0  0  0  0  0  0  0  0  0  0  0  # atno 6909 bound_to 6896
  146.1652  140.4534  142.8555 H   0  0  0  0  0  0  0  0  0  0  0  0  # atno 7974 bound_to 7965
  155.0649  140.0393  157.2589 H   0  0  0  0  0  0  0  0  0  0  0  0  # atno 8008 bound_to 7997
  154.7030  140.2677  155.6677 H   0  0  0  0  0  0  0  0  0  0  0  0  # atno 8009 bound_to 7997
  156.2766  140.2737  156.1646 H   0  0  0  0  0  0  0  0  0  0  0  0  # atno 8010 bound_to 7997
  140.6165  143.8298  150.7124 H   0  0  0  0  0  0  0  0  0  0  0  0  # atno 10167 bound_to 10162
  157.1173  130.6534  149.5914 H   0  0  0  0  0  0  0  0  0  0  0  0  # atno 10718 bound_to 10713
  154.3034  135.6230  153.5434 H   0  0  0  0  0  0  0  0  0  0  0  0  # atno 10763 bound_to 10752
  152.9838  135.5684  154.5258 H   0  0  0  0  0  0  0  0  0  0  0  0  # atno 10764 bound_to 10752
  154.4893  135.2866  155.1485 H   0  0  0  0  0  0  0  0  0  0  0  0  # atno 10765 bound_to 10752
  140.0758  134.9126  157.1420 H   0  0  0  0  0  0  0  0  0  0  0  0  # atno 11005 bound_to 11000
  144.8082  140.6338  143.6433 LP  0  0  0  0  0  0  0  0  0  0  0  0  # atno 17320 bound_to 7965
  145.4486  139.1526  143.3931 LP  0  0  0  0  0  0  0  0  0  0  0  0  # atno 17321 bound_to 7965
  140.1878  143.4061  152.1886 LP  0  0  0  0  0  0  0  0  0  0  0  0  # atno 17342 bound_to 10162
  139.5402  144.7249  151.4757 LP  0  0  0  0  0  0  0  0  0  0  0  0  # atno 17343 bound_to 10162
  155.9836  130.4857  150.6943 LP  0  0  0  0  0  0  0  0  0  0  0  0  # atno 17370 bound_to 10713
  157.4507  131.0872  151.0849 LP  0  0  0  0  0  0  0  0  0  0  0  0  # atno 17371 bound_to 10713
  140.3560  134.2546  155.7192 LP  0  0  0  0  0  0  0  0  0  0  0  0  # atno 17394 bound_to 11000
  141.2029  133.7926  157.0368 LP  0  0  0  0  0  0  0  0  0  0  0  0  # atno 17395 bound_to 11000

$$$$
