AV-unprocessed.smi:2993|AV-procd|sdf|11403|dock2
  -GOLD-   2272016323D 1   1.00000     0.00000
 Structure written by MMmdl.
 34 35  0  0  0  0  0  0  0  0  1 V2000
  151.8149  137.0608  156.6726 C   0  0  0  0  0  0  0  0  0  0  0  0
  151.3199  138.3273  156.0348 C   0  0  0  0  0  0  0  0  0  0  0  0
  151.2063  138.3834  154.7187 N   0  0  0  0  0  0  0  0  0  0  0  0
  150.7424  139.6697  154.4276 O   0  0  0  0  0  0  0  0  0  0  0  0
  150.5958  140.3469  155.5945 C   0  0  0  0  0  0  0  0  0  0  0  0
  150.1136  141.7546  155.4980 C   0  0  0  0  0  0  0  0  0  0  0  0
  150.9414  139.5543  156.6541 C   0  0  0  0  0  0  0  0  0  0  0  0
  150.9327  139.9005  158.1211 C   0  0  0  0  0  0  0  0  0  0  0  0
  152.0279  140.9266  158.4089 C   0  0  0  0  0  0  0  0  0  0  0  0
  153.1962  140.5602  158.5326 O   0  0  0  0  0  0  0  0  0  0  0  0
  151.6319  142.2037  158.5244 N   0  0  0  0  0  0  0  0  0  0  0  0
  152.4948  143.3326  158.8532 C   0  0  1  0  0  0  0  0  0  0  0  0
  151.6903  144.6290  158.6873 C   0  0  0  0  0  0  0  0  0  0  0  0
  153.0937  143.2429  160.2467 C   0  0  0  0  0  0  0  0  0  0  0  0
  152.9729  141.9792  161.0647 C   0  0  0  0  0  0  0  0  0  0  0  0
  152.2219  143.2235  161.4801 C   0  0  0  0  0  0  0  0  0  0  0  0
  152.8848  136.9343  156.5064 H   0  0  0  0  0  0  0  0  0  0  0  0
  151.3071  136.1875  156.2627 H   0  0  0  0  0  0  0  0  0  0  0  0
  151.6463  137.0625  157.7490 H   0  0  0  0  0  0  0  0  0  0  0  0
  150.6857  142.4042  156.1609 H   0  0  0  0  0  0  0  0  0  0  0  0
  149.0634  141.8219  155.7819 H   0  0  0  0  0  0  0  0  0  0  0  0
  150.2161  142.1366  154.4821 H   0  0  0  0  0  0  0  0  0  0  0  0
  149.9708  140.3160  158.4242 H   0  0  0  0  0  0  0  0  0  0  0  0
  151.0869  139.0195  158.7446 H   0  0  0  0  0  0  0  0  0  0  0  0
  150.6501  142.4046  158.4026 H   0  0  0  0  0  0  0  0  0  0  0  0
  153.3148  143.3651  158.1331 H   0  0  0  0  0  0  0  0  0  0  0  0
  152.3143  145.5042  158.8707 H   0  0  0  0  0  0  0  0  0  0  0  0
  150.8521  144.6678  159.3838 H   0  0  0  0  0  0  0  0  0  0  0  0
  151.2899  144.7182  157.6767 H   0  0  0  0  0  0  0  0  0  0  0  0
  154.0393  143.7734  160.3458 H   0  0  0  0  0  0  0  0  0  0  0  0
  152.3918  141.1586  160.6485 H   0  0  0  0  0  0  0  0  0  0  0  0
  153.8324  141.6855  161.6639 H   0  0  0  0  0  0  0  0  0  0  0  0
  152.5811  143.7619  162.3548 H   0  0  0  0  0  0  0  0  0  0  0  0
  151.1425  143.2255  161.3423 H   0  0  0  0  0  0  0  0  0  0  0  0
  1  2  1  0  0  0  0
  1 17  1  0  0  0  0
  1 18  1  0  0  0  0
  1 19  1  0  0  0  0
  2  7  1  0  0  0  0
  2  3  2  0  0  0  0
  3  4  1  0  0  0  0
  4  5  1  0  0  0  0
  5  6  1  0  0  0  0
  5  7  2  0  0  0  0
  6 20  1  0  0  0  0
  6 21  1  0  0  0  0
  6 22  1  0  0  0  0
  7  8  1  0  0  0  0
  8  9  1  0  0  0  0
  8 23  1  0  0  0  0
  8 24  1  0  0  0  0
  9 10  2  0  0  0  0
  9 11  1  0  0  0  0
 11 12  1  0  0  0  0
 11 25  1  0  0  0  0
 12 13  1  0  0  0  0
 12 14  1  0  0  0  0
 12 26  1  0  0  0  0
 13 27  1  0  0  0  0
 13 28  1  0  0  0  0
 13 29  1  0  0  0  0
 14 16  1  0  0  0  0
 14 15  1  0  0  0  0
 14 30  1  0  0  0  0
 15 16  1  0  0  0  0
 15 31  1  0  0  0  0
 15 32  1  0  0  0  0
 16 33  1  0  0  0  0
 16 34  1  0  0  0  0
M  END
> <s_m_source_file>
AV-unprocessed.smi

> <i_m_source_file_index>
2993

> <i_lp_mmshare_version>
43012

> <i_f3d_flags>
0

> <s_epik_input>
W0NIM11jMW5vYyhbQ0gzXSljMVtDSDJdQyg9TylbTkhdW0NASF0oW0NIM10pW0NIXTJbQ0gyXVtDSDJdMg==

> <s_epik_cmdline>
J2VwaWtfcHl0aG9uJywgJy1waCcsICc3LjAnLCAnLXRuJywgJzgnLCAnLW1hJywgJzIwMCcsICctbWV0YWxfYmluZGluZycsICctaW1hZScsICc8aW5maWxlLm1hZT4nLCAnLW9tYWUnLCAnPG91dGZpbGUubWFlPic=

> <r_lp_tautomer_probability>
1

> <r_epik_Ionization_Penalty>
1.92533e-08

> <r_epik_Ionization_Penalty_Charging>
0

> <r_epik_Ionization_Penalty_Neutral>
1.92533e-08

> <r_epik_State_Penalty>
-0

> <r_epik_Charging_Adjusted_Penalty>
0

> <i_epik_Tot_Q>
0

> <i_epik_Tot_abs_Q>
0

> <r_epik_Metal_State_Penalty>
-0

> <b_epik_Metal_Only>
0

> <s_lp_Force_Field>
OPLS_2005

> <r_lp_Energy>
6.29181

> <b_lp_Chiralities_Consistent>
1

> <s_lp_Variant>
AV-unprocessed.smi:2993-2

> <Gold.Version>
5.8.1

> <Gold.Id.Protein>
6NUR|6NUR_protein|mol2

> <Gold.PLP.Fitness>
37.2397

> <Gold.PLP.PLP>
-33.0249

> <Gold.PLP.part.hbond>
-2.0000

> <Gold.PLP.part.metal>
0.0000

> <Gold.PLP.part.buried>
-3.3768

> <Gold.PLP.part.nonpolar>
-28.0089

> <Gold.PLP.part.repulsive>
0.3288

> <Gold.PLP.ligand.clash>
0.0000

> <Gold.PLP.ligand.torsion>
1.0794

> <Gold.PLP.Chemscore.Hbond>
1.7680

> <Gold.PLP.Chemscore.CHOScore>
0.0000

> <Gold.PLP.Chemscore.Metal>
0.0000

> <Gold.Chemscore.Hbonds>
donor molecule, donor type, donor heavy atom, donor atom, acceptor molecule, acceptor atom, score
      P1  H  7989  7998       L1     4  1.00
      P1  H  7997  8009       L1    10  0.62

> <Gold.PLP.Chemscore.Internal.Correction>
1.0695

> <Gold.Rescore>
     Score         DG    S(hbond)    S(metal)    S(lipo)     H(rot)  DE(clash)    DE(int)     intcor
     15.28     -16.74       1.19        0.00      94.12       1.46       0.23       1.23       ----

> <Gold.Chemscore.Fitness>
15.2850

> <Gold.Chemscore.DG>
-16.7418

> <Gold.Chemscore.ZeroCoef>
-5.4800

> <Gold.Chemscore.Hbond>
1.1926

> <Gold.Chemscore.Metal>
0.0000

> <Gold.Chemscore.Lipo>
94.1189

> <Gold.Chemscore.Internal_Hbond>
0.0000

> <Gold.Chemscore.DEClash>
0.2279

> <Gold.Chemscore.DEInternal>
1.2290

> <Gold.Chemscore.Rot>
1.4584

> <Gold.Chemscore.Internal.Correction>
   9.000000E+99

> <Gold.Chemscore.Hbonds>
donor molecule, donor type, donor heavy atom, donor atom, acceptor molecule, acceptor atom, score
      P1  H  7989  7998       L1     4  0.25
      P1  H  7997  8009       L1    10  0.61

> <Gold.Chemscore.Hbond.Weighted>
-3.9833

> <Gold.Chemscore.Metal.Weighted>
-0.0000

> <Gold.Chemscore.Lipo.Weighted>
-11.0119

> <Gold.Chemscore.Internal_Hbond.Weighted>
0.0000

> <Gold.Chemscore.DEClash.Weighted>
0.2279

> <Gold.Chemscore.DEInternal.Weighted>
1.2290

> <Gold.Chemscore.Rot.Weighted>
3.7334

> <Gold.Chemscore.Internal.Correction.Weighted>
   9.000000E+99

> <Gold.Protein.RotatedTorsions>
[ 6907 6896 6895 6894 ] final  119.68 input  -60.11 | X-H torsion
[ 7974 7965 7964 7962 ] final   92.40 input  175.53 | X-H torsion
[ 8008 7997 7996 7995 ] final  155.94 input   59.86 | X-H torsion
[ 10167 10162 10161 10158 ] final  112.81 input  -65.29 | X-H torsion
[ 10718 10713 10712 10709 ] final -130.84 input   66.30 | X-H torsion
[ 10763 10752 10751 10750 ] final  -35.26 input  -60.55 | X-H torsion
[ 11005 11000 10999 10996 ] final   56.90 input  -57.11 | X-H torsion

> <Gold.Protein.ActiveResidues>
 VAL166  LYS551  ARG553  GLY616  TRP617  ASP618  TYR619  PRO620  LYS621  CYS622 
 ASP623  PHE694  ASN695  SER759  ASP760  ASP761  ALA762  ILE779  LEU786  VAL792 
 PHE793  MET794  SER795  GLU796  ALA797  LYS798  CYS799  TRP800  GLU811  SER814 

> <Gold.Protein.RotatedAtoms>
  152.4454  133.7526  159.6702 H   0  0  0  0  0  0  0  0  0  0  0  0  # atno 6907 bound_to 6896
  150.8353  133.8014  159.3088 H   0  0  0  0  0  0  0  0  0  0  0  0  # atno 6908 bound_to 6896
  151.5655  135.1067  160.0034 H   0  0  0  0  0  0  0  0  0  0  0  0  # atno 6909 bound_to 6896
  145.4928  139.2276  143.2820 H   0  0  0  0  0  0  0  0  0  0  0  0  # atno 7974 bound_to 7965
  156.2450  140.1926  156.6879 H   0  0  0  0  0  0  0  0  0  0  0  0  # atno 8008 bound_to 7997
  154.6273  140.0600  156.9715 H   0  0  0  0  0  0  0  0  0  0  0  0  # atno 8009 bound_to 7997
  155.1766  140.3273  155.4385 H   0  0  0  0  0  0  0  0  0  0  0  0  # atno 8010 bound_to 7997
  139.6507  144.7128  151.2053 H   0  0  0  0  0  0  0  0  0  0  0  0  # atno 10167 bound_to 10162
  156.2184  130.6963  151.0728 H   0  0  0  0  0  0  0  0  0  0  0  0  # atno 10718 bound_to 10713
  153.8603  135.6840  153.4783 H   0  0  0  0  0  0  0  0  0  0  0  0  # atno 10763 bound_to 10752
  153.1345  135.4683  154.9399 H   0  0  0  0  0  0  0  0  0  0  0  0  # atno 10764 bound_to 10752
  154.7761  135.3254  154.8037 H   0  0  0  0  0  0  0  0  0  0  0  0  # atno 10765 bound_to 10752
  140.0493  134.5760  155.9283 H   0  0  0  0  0  0  0  0  0  0  0  0  # atno 11005 bound_to 11000
  146.2274  140.5723  142.8990 LP  0  0  0  0  0  0  0  0  0  0  0  0  # atno 17320 bound_to 7965
  144.7824  140.5867  143.6596 LP  0  0  0  0  0  0  0  0  0  0  0  0  # atno 17321 bound_to 7965
  140.7536  143.6154  150.8564 LP  0  0  0  0  0  0  0  0  0  0  0  0  # atno 17342 bound_to 10162
  139.9802  143.5960  152.2945 LP  0  0  0  0  0  0  0  0  0  0  0  0  # atno 17343 bound_to 10162
  157.7075  131.0750  150.6617 LP  0  0  0  0  0  0  0  0  0  0  0  0  # atno 17370 bound_to 10713
  156.6679  130.4531  149.5666 LP  0  0  0  0  0  0  0  0  0  0  0  0  # atno 17371 bound_to 10713
  141.1922  133.6574  156.5493 LP  0  0  0  0  0  0  0  0  0  0  0  0  # atno 17394 bound_to 11000
  140.3943  134.7413  157.4741 LP  0  0  0  0  0  0  0  0  0  0  0  0  # atno 17395 bound_to 11000

$$$$
