AV-unprocessed.smi:2483|AV-procd|sdf|9785|dock5
  -GOLD-   2272013423D 1   1.00000     0.00000
 Structure written by MMmdl.
 37 38  0  0  0  0  0  0  0  0  1 V2000
  146.2748  141.3474  156.4155 C   0  0  0  0  0  0  0  0  0  0  0  0
  147.1933  141.7434  155.3553 N   0  0  0  0  0  0  0  0  0  0  0  0
  146.5918  142.3807  154.1920 C   0  0  0  0  0  0  0  0  0  0  0  0
  148.2020  140.8166  155.0231 C   0  0  0  0  0  0  0  0  0  0  0  0
  147.8271  139.6532  154.4374 N   0  0  0  0  0  0  0  0  0  0  0  0
  148.7883  138.7894  154.1081 C   0  0  0  0  0  0  0  0  0  0  0  0
  150.0982  138.9437  154.3006 N   0  0  0  0  0  0  0  0  0  0  0  0
  150.4946  140.0936  154.8846 C   0  0  0  0  0  0  0  0  0  0  0  0
  149.5717  141.0974  155.2706 C   0  0  0  0  0  0  0  0  0  0  0  0
  149.9506  142.2985  155.9332 N   0  0  0  0  0  0  0  0  0  0  0  0
  150.9657  142.4876  156.7917 C   0  0  0  0  0  0  0  0  0  0  0  0
  151.7534  141.6168  157.1603 O   0  0  0  0  0  0  0  0  0  0  0  0
  151.0291  143.7688  157.1876 N   0  0  0  0  0  0  0  0  0  0  0  0
  152.0125  144.3633  158.1035 C   0  0  0  0  0  0  0  0  0  0  0  0
  153.2035  144.9122  157.3162 C   0  0  0  0  0  0  0  0  0  0  0  0
  151.3335  145.2551  159.1683 C   0  0  0  0  0  0  0  0  0  0  0  0
  151.1847  144.0289  160.0719 C   0  0  0  0  0  0  0  0  0  0  0  0
  152.2972  143.3726  159.2502 C   0  0  0  0  0  0  0  0  0  0  0  0
  146.8160  140.9224  157.2615 H   0  0  0  0  0  0  0  0  0  0  0  0
  145.5583  140.6088  156.0545 H   0  0  0  0  0  0  0  0  0  0  0  0
  145.7187  142.2133  156.7751 H   0  0  0  0  0  0  0  0  0  0  0  0
  147.3401  142.8576  153.5594 H   0  0  0  0  0  0  0  0  0  0  0  0
  145.8829  143.1483  154.5036 H   0  0  0  0  0  0  0  0  0  0  0  0
  146.0547  141.6463  153.5909 H   0  0  0  0  0  0  0  0  0  0  0  0
  148.4724  137.8683  153.6413 H   0  0  0  0  0  0  0  0  0  0  0  0
  151.5553  140.1820  155.0617 H   0  0  0  0  0  0  0  0  0  0  0  0
  149.4411  143.1242  155.6541 H   0  0  0  0  0  0  0  0  0  0  0  0
  150.3337  144.4002  156.8177 H   0  0  0  0  0  0  0  0  0  0  0  0
  153.9917  145.2590  157.9847 H   0  0  0  0  0  0  0  0  0  0  0  0
  152.9220  145.7585  156.6897 H   0  0  0  0  0  0  0  0  0  0  0  0
  153.6395  144.1505  156.6690 H   0  0  0  0  0  0  0  0  0  0  0  0
  152.0162  145.9955  159.5884 H   0  0  0  0  0  0  0  0  0  0  0  0
  150.3896  145.7178  158.8784 H   0  0  0  0  0  0  0  0  0  0  0  0
  151.4310  144.2012  161.1200 H   0  0  0  0  0  0  0  0  0  0  0  0
  150.2207  143.5313  159.9563 H   0  0  0  0  0  0  0  0  0  0  0  0
  152.1286  142.3210  159.0143 H   0  0  0  0  0  0  0  0  0  0  0  0
  153.2810  143.5197  159.6990 H   0  0  0  0  0  0  0  0  0  0  0  0
  1  2  1  0  0  0  0
  1 19  1  0  0  0  0
  1 20  1  0  0  0  0
  1 21  1  0  0  0  0
  2  3  1  0  0  0  0
  2  4  1  0  0  0  0
  3 22  1  0  0  0  0
  3 23  1  0  0  0  0
  3 24  1  0  0  0  0
  4  9  1  0  0  0  0
  4  5  2  0  0  0  0
  5  6  1  0  0  0  0
  6  7  2  0  0  0  0
  6 25  1  0  0  0  0
  7  8  1  0  0  0  0
  8  9  2  0  0  0  0
  8 26  1  0  0  0  0
  9 10  1  0  0  0  0
 10 11  1  0  0  0  0
 10 27  1  0  0  0  0
 11 12  2  0  0  0  0
 11 13  1  0  0  0  0
 13 14  1  0  0  0  0
 13 28  1  0  0  0  0
 14 18  1  0  0  0  0
 14 15  1  0  0  0  0
 14 16  1  0  0  0  0
 15 29  1  0  0  0  0
 15 30  1  0  0  0  0
 15 31  1  0  0  0  0
 16 17  1  0  0  0  0
 16 32  1  0  0  0  0
 16 33  1  0  0  0  0
 17 18  1  0  0  0  0
 17 34  1  0  0  0  0
 17 35  1  0  0  0  0
 18 36  1  0  0  0  0
 18 37  1  0  0  0  0
M  END
> <s_m_source_file>
AV-unprocessed.smi

> <i_m_source_file_index>
2483

> <i_lp_mmshare_version>
43012

> <i_f3d_flags>
0

> <s_epik_input>
W0NIM11OKFtDSDNdKWMxbltjSF1uW2NIXWMxW05IXUMoPU8pW05IXUMyKFtDSDNdKVtDSDJdW0NIMl1bQ0gyXTI=

> <s_epik_cmdline>
J2VwaWtfcHl0aG9uJywgJy1waCcsICc3LjAnLCAnLXRuJywgJzgnLCAnLW1hJywgJzIwMCcsICctbWV0YWxfYmluZGluZycsICctaW1hZScsICc8aW5maWxlLm1hZT4nLCAnLW9tYWUnLCAnPG91dGZpbGUubWFlPic=

> <r_lp_tautomer_probability>
1

> <r_epik_Ionization_Penalty>
0.0189547

> <r_epik_Ionization_Penalty_Charging>
0

> <r_epik_Ionization_Penalty_Neutral>
0.0189547

> <r_epik_State_Penalty>
0.0144869

> <r_epik_Charging_Adjusted_Penalty>
0.0144869

> <i_epik_Tot_Q>
0

> <i_epik_Tot_abs_Q>
0

> <r_epik_Metal_State_Penalty>
0.0140538

> <b_epik_Metal_Only>
0

> <s_lp_Force_Field>
OPLS_2005

> <r_lp_Energy>
16.2772

> <b_lp_Chiralities_Consistent>
1

> <s_lp_Variant>
AV-unprocessed.smi:2483-1

> <Gold.Version>
5.8.1

> <Gold.Id.Protein>
6NUR|6NUR_protein|mol2

> <Gold.PLP.Fitness>
42.8595

> <Gold.PLP.PLP>
-34.8598

> <Gold.PLP.part.hbond>
-2.0000

> <Gold.PLP.part.metal>
0.0000

> <Gold.PLP.part.buried>
-4.7124

> <Gold.PLP.part.nonpolar>
-28.0228

> <Gold.PLP.part.repulsive>
0.5934

> <Gold.PLP.ligand.clash>
0.0000

> <Gold.PLP.ligand.torsion>
0.7996

> <Gold.PLP.Chemscore.Hbond>
1.9920

> <Gold.PLP.Chemscore.CHOScore>
1.0000

> <Gold.PLP.Chemscore.Metal>
0.0000

> <Gold.Chemscore.Hbonds>
donor molecule, donor type, donor heavy atom, donor atom, acceptor molecule, acceptor atom, score
      L1  H    10    27       P1  8028  1.00
      L1  H    13    28       P1  8028  1.00
      L1  C     6    25       P1  7948  1.00

> <Gold.PLP.Chemscore.Internal.Correction>
0.6229

> <Gold.Rescore>
     Score         DG    S(hbond)    S(metal)    S(lipo)     H(rot)  DE(clash)    DE(int)     intcor
     14.43     -18.57       1.85        0.00      86.66       1.26       1.03       3.11       ----

> <Gold.Chemscore.Fitness>
14.4304

> <Gold.Chemscore.DG>
-18.5697

> <Gold.Chemscore.ZeroCoef>
-5.4800

> <Gold.Chemscore.Hbond>
1.8463

> <Gold.Chemscore.Metal>
0.0000

> <Gold.Chemscore.Lipo>
86.6623

> <Gold.Chemscore.Internal_Hbond>
0.0000

> <Gold.Chemscore.DEClash>
1.0343

> <Gold.Chemscore.DEInternal>
3.1051

> <Gold.Chemscore.Rot>
1.2564

> <Gold.Chemscore.Internal.Correction>
   9.000000E+99

> <Gold.Chemscore.Hbonds>
donor molecule, donor type, donor heavy atom, donor atom, acceptor molecule, acceptor atom, score
      L1  H    10    27       P1  8028  1.00
      L1  H    13    28       P1  8028  0.88

> <Gold.Chemscore.Hbond.Weighted>
-6.1667

> <Gold.Chemscore.Metal.Weighted>
-0.0000

> <Gold.Chemscore.Lipo.Weighted>
-10.1395

> <Gold.Chemscore.Internal_Hbond.Weighted>
0.0000

> <Gold.Chemscore.DEClash.Weighted>
1.0343

> <Gold.Chemscore.DEInternal.Weighted>
3.1051

> <Gold.Chemscore.Rot.Weighted>
3.2165

> <Gold.Chemscore.Internal.Correction.Weighted>
   9.000000E+99

> <Gold.Protein.RotatedTorsions>
[ 6907 6896 6895 6894 ] final -100.44 input  -60.11 | X-H torsion
[ 7974 7965 7964 7962 ] final -152.78 input  175.53 | X-H torsion
[ 8008 7997 7996 7995 ] final   37.64 input   59.86 | X-H torsion
[ 10167 10162 10161 10158 ] final   77.47 input  -65.29 | X-H torsion
[ 10718 10713 10712 10709 ] final  107.96 input   66.30 | X-H torsion
[ 10763 10752 10751 10750 ] final   87.65 input  -60.55 | X-H torsion
[ 11005 11000 10999 10996 ] final   47.48 input  -57.11 | X-H torsion

> <Gold.Protein.ActiveResidues>
 VAL166  LYS551  ARG553  GLY616  TRP617  ASP618  TYR619  PRO620  LYS621  CYS622 
 ASP623  PHE694  ASN695  SER759  ASP760  ASP761  ALA762  ILE779  LEU786  VAL792 
 PHE793  MET794  SER795  GLU796  ALA797  LYS798  CYS799  TRP800  GLU811  SER814 

> <Gold.Protein.RotatedAtoms>
  150.7116  134.0887  159.3923 H   0  0  0  0  0  0  0  0  0  0  0  0  # atno 6907 bound_to 6896
  151.8873  135.0428  160.0504 H   0  0  0  0  0  0  0  0  0  0  0  0  # atno 6908 bound_to 6896
  152.2520  133.5188  159.5367 H   0  0  0  0  0  0  0  0  0  0  0  0  # atno 6909 bound_to 6896
  144.7776  140.4615  143.5862 H   0  0  0  0  0  0  0  0  0  0  0  0  # atno 7974 bound_to 7965
  155.2070  140.3320  155.4334 H   0  0  0  0  0  0  0  0  0  0  0  0  # atno 8008 bound_to 7997
  156.2385  140.1883  156.7103 H   0  0  0  0  0  0  0  0  0  0  0  0  # atno 8009 bound_to 7997
  154.6103  140.0610  156.9471 H   0  0  0  0  0  0  0  0  0  0  0  0  # atno 8010 bound_to 7997
  139.9813  144.5824  150.7898 H   0  0  0  0  0  0  0  0  0  0  0  0  # atno 10167 bound_to 10162
  157.6606  131.0884  150.6234 H   0  0  0  0  0  0  0  0  0  0  0  0  # atno 10718 bound_to 10713
  153.1689  135.4536  154.9876 H   0  0  0  0  0  0  0  0  0  0  0  0  # atno 10763 bound_to 10752
  154.7952  135.3235  154.7686 H   0  0  0  0  0  0  0  0  0  0  0  0  # atno 10764 bound_to 10752
  153.8165  135.6950  153.4888 H   0  0  0  0  0  0  0  0  0  0  0  0  # atno 10765 bound_to 10752
  140.1275  134.4749  155.8547 H   0  0  0  0  0  0  0  0  0  0  0  0  # atno 11005 bound_to 11000
  145.6143  139.1516  143.3058 LP  0  0  0  0  0  0  0  0  0  0  0  0  # atno 17320 bound_to 7965
  146.1964  140.6257  142.9122 LP  0  0  0  0  0  0  0  0  0  0  0  0  # atno 17321 bound_to 7965
  140.7488  143.2928  151.3284 LP  0  0  0  0  0  0  0  0  0  0  0  0  # atno 17342 bound_to 10162
  139.6408  144.0543  152.2553 LP  0  0  0  0  0  0  0  0  0  0  0  0  # atno 17343 bound_to 10162
  156.6537  130.4492  149.5710 LP  0  0  0  0  0  0  0  0  0  0  0  0  # atno 17370 bound_to 10713
  156.2118  130.6683  151.1278 LP  0  0  0  0  0  0  0  0  0  0  0  0  # atno 17371 bound_to 10713
  141.2164  133.6783  156.7007 LP  0  0  0  0  0  0  0  0  0  0  0  0  # atno 17394 bound_to 11000
  140.2885  134.8260  157.3995 LP  0  0  0  0  0  0  0  0  0  0  0  0  # atno 17395 bound_to 11000

$$$$
