AV-unprocessed.smi:109|AV-procd|sdf|1035|dock4
  -GOLD-   2262018 53D 1   1.00000     0.00000
 Structure written by MMmdl.
 58 61  0  0  0  0  0  0  0  0  1 V2000
  144.3577  143.2877  154.6258 O   0  0  0  0  0  0  0  0  0  0  0  0
  145.7128  142.9791  154.3801 C   0  0  0  0  0  0  0  0  0  0  0  0
  145.8490  141.4951  153.9993 C   0  0  0  0  0  0  0  0  0  0  0  0
  147.3102  140.9898  153.9062 C   0  0  2  0  0  0  0  0  0  0  0  0
  147.3636  139.7991  153.0551 N   0  0  0  0  0  0  0  0  0  0  0  0
  146.5438  138.7402  153.2416 C   0  0  0  0  0  0  0  0  0  0  0  0
  146.0096  138.4599  154.4580 N   0  0  0  0  0  0  0  0  0  0  0  0
  145.2063  137.4034  154.6078 C   0  0  0  0  0  0  0  0  0  0  0  0
  144.8175  136.5157  153.6906 N   0  0  0  0  0  0  0  0  0  0  0  0
  145.3529  136.7866  152.4635 C   0  0  0  0  0  0  0  0  0  0  0  0
  146.2147  137.8791  152.1630 C   0  0  0  0  0  0  0  0  0  0  0  0
  146.5460  137.8618  150.8161 N   0  0  0  0  0  0  0  0  0  0  0  0
  145.9062  136.8248  150.3485 C   0  0  0  0  0  0  0  0  0  0  0  0
  145.1913  136.0941  151.2756 N   0  0  0  0  0  0  0  0  0  0  0  0
  144.3363  134.8792  151.0262 C   0  0  2  0  0  0  0  0  0  0  0  0
  144.6141  133.9216  152.0009 O   0  0  0  0  0  0  0  0  0  0  0  0
  145.6594  133.0775  151.5382 C   0  0  1  0  0  0  0  0  0  0  0  0
  145.7908  131.8186  152.4115 C   0  0  0  0  0  0  0  0  0  0  0  0
  145.5576  132.1501  153.7636 O   0  0  0  0  0  0  0  0  0  0  0  0
  145.2314  132.8461  150.0842 C   0  0  1  0  0  0  0  0  0  0  0  0
  144.2467  131.8271  150.0052 O   0  0  0  0  0  0  0  0  0  0  0  0
  144.6973  134.2219  149.6749 C   0  0  1  0  0  0  0  0  0  0  0  0
  143.6008  134.1487  148.7835 O   0  0  0  0  0  0  0  0  0  0  0  0
  147.9398  140.6583  155.2908 C   0  0  0  0  0  0  0  0  0  0  0  0
  147.1551  141.2615  156.4835 C   0  0  0  0  0  0  0  0  0  0  0  0
  147.8121  140.9469  157.8380 C   0  0  0  0  0  0  0  0  0  0  0  0
  149.2703  141.4185  157.8800 C   0  0  0  0  0  0  0  0  0  0  0  0
  150.0671  140.8115  156.7194 C   0  0  0  0  0  0  0  0  0  0  0  0
  149.4132  141.1359  155.3673 C   0  0  0  0  0  0  0  0  0  0  0  0
  143.3122  135.2474  151.1008 H   0  0  0  0  0  0  0  0  0  0  0  0
  146.6003  133.6328  151.5396 H   0  0  0  0  0  0  0  0  0  0  0  0
  146.0765  132.5450  149.4643 H   0  0  0  0  0  0  0  0  0  0  0  0
  145.5011  134.7746  149.1887 H   0  0  0  0  0  0  0  0  0  0  0  0
  143.8558  143.0701  153.8553 H   0  0  0  0  0  0  0  0  0  0  0  0
  146.0762  143.6282  153.5835 H   0  0  0  0  0  0  0  0  0  0  0  0
  146.2932  143.2005  155.2762 H   0  0  0  0  0  0  0  0  0  0  0  0
  145.3097  140.9306  154.7578 H   0  0  0  0  0  0  0  0  0  0  0  0
  145.3359  141.3091  153.0548 H   0  0  0  0  0  0  0  0  0  0  0  0
  147.9124  141.7910  153.4775 H   0  0  0  0  0  0  0  0  0  0  0  0
  147.9787  139.8690  152.2573 H   0  0  0  0  0  0  0  0  0  0  0  0
  144.8218  137.2457  155.6045 H   0  0  0  0  0  0  0  0  0  0  0  0
  145.9432  136.5621  149.3011 H   0  0  0  0  0  0  0  0  0  0  0  0
  145.1039  131.0349  152.0907 H   0  0  0  0  0  0  0  0  0  0  0  0
  146.8021  131.4166  152.3426 H   0  0  0  0  0  0  0  0  0  0  0  0
  144.6588  131.9430  153.9706 H   0  0  0  0  0  0  0  0  0  0  0  0
  143.8002  131.7786  150.8371 H   0  0  0  0  0  0  0  0  0  0  0  0
  142.8316  134.4626  149.2342 H   0  0  0  0  0  0  0  0  0  0  0  0
  147.9338  139.5733  155.4093 H   0  0  0  0  0  0  0  0  0  0  0  0
  147.0700  142.3421  156.3602 H   0  0  0  0  0  0  0  0  0  0  0  0
  146.1396  140.8713  156.5198 H   0  0  0  0  0  0  0  0  0  0  0  0
  147.2473  141.4186  158.6425 H   0  0  0  0  0  0  0  0  0  0  0  0
  147.7709  139.8723  158.0212 H   0  0  0  0  0  0  0  0  0  0  0  0
  149.3068  142.5070  157.8225 H   0  0  0  0  0  0  0  0  0  0  0  0
  149.7257  141.1410  158.8310 H   0  0  0  0  0  0  0  0  0  0  0  0
  151.0905  141.1873  156.7364 H   0  0  0  0  0  0  0  0  0  0  0  0
  150.1317  139.7297  156.8438 H   0  0  0  0  0  0  0  0  0  0  0  0
  150.0124  140.6755  154.5817 H   0  0  0  0  0  0  0  0  0  0  0  0
  149.4584  142.2118  155.1925 H   0  0  0  0  0  0  0  0  0  0  0  0
  1  2  1  0  0  0  0
  1 34  1  0  0  0  0
  2  3  1  0  0  0  0
  2 35  1  0  0  0  0
  2 36  1  0  0  0  0
  3  4  1  0  0  0  0
  3 37  1  0  0  0  0
  3 38  1  0  0  0  0
  4  5  1  0  0  0  0
  4 24  1  0  0  0  0
  4 39  1  0  0  0  0
  5  6  1  0  0  0  0
  5 40  1  0  0  0  0
  6 11  1  0  0  0  0
  6  7  2  0  0  0  0
  7  8  1  0  0  0  0
  8  9  2  0  0  0  0
  8 41  1  0  0  0  0
  9 10  1  0  0  0  0
 10 14  1  0  0  0  0
 10 11  2  0  0  0  0
 11 12  1  0  0  0  0
 12 13  2  0  0  0  0
 13 14  1  0  0  0  0
 13 42  1  0  0  0  0
 14 15  1  0  0  0  0
 15 30  1  0  0  0  0
 15 22  1  0  0  0  0
 15 16  1  0  0  0  0
 16 17  1  0  0  0  0
 17 31  1  0  0  0  0
 17 18  1  0  0  0  0
 17 20  1  0  0  0  0
 18 19  1  0  0  0  0
 18 43  1  0  0  0  0
 18 44  1  0  0  0  0
 19 45  1  0  0  0  0
 20 32  1  0  0  0  0
 20 21  1  0  0  0  0
 20 22  1  0  0  0  0
 21 46  1  0  0  0  0
 22 33  1  0  0  0  0
 22 23  1  0  0  0  0
 23 47  1  0  0  0  0
 24 29  1  0  0  0  0
 24 25  1  0  0  0  0
 24 48  1  0  0  0  0
 25 26  1  0  0  0  0
 25 49  1  0  0  0  0
 25 50  1  0  0  0  0
 26 27  1  0  0  0  0
 26 51  1  0  0  0  0
 26 52  1  0  0  0  0
 27 28  1  0  0  0  0
 27 53  1  0  0  0  0
 27 54  1  0  0  0  0
 28 29  1  0  0  0  0
 28 55  1  0  0  0  0
 28 56  1  0  0  0  0
 29 57  1  0  0  0  0
 29 58  1  0  0  0  0
M  END
> <s_m_source_file>
AV-unprocessed.smi

> <i_m_source_file_index>
109

> <i_lp_mmshare_version>
43012

> <i_f3d_flags>
0

> <s_epik_input>
W0NIMl0xW0NIMl1bQ0gyXVtDSDJdW0NIMl1bQ0hdMVtDQEhdKFtDSDJdW0NIMl1bT0hdKVtOSF1jKG5bY0hdbjIpYyhjMjMpbltjSF1uM1tDQEBIXTRPW0NASF0oW0NIMl1bT0hdKVtDQEBIXShbT0hdKVtDQEhdNFtPSF0=

> <s_epik_cmdline>
J2VwaWtfcHl0aG9uJywgJy1waCcsICc3LjAnLCAnLXRuJywgJzgnLCAnLW1hJywgJzIwMCcsICctbWV0YWxfYmluZGluZycsICctaW1hZScsICc8aW5maWxlLm1hZT4nLCAnLW9tYWUnLCAnPG91dGZpbGUubWFlPic=

> <r_lp_tautomer_probability>
1

> <r_epik_Ionization_Penalty>
0.000793976

> <r_epik_Ionization_Penalty_Charging>
0

> <r_epik_Ionization_Penalty_Neutral>
0.000793976

> <r_epik_State_Penalty>
-0

> <r_epik_Charging_Adjusted_Penalty>
0

> <i_epik_Tot_Q>
0

> <i_epik_Tot_abs_Q>
0

> <r_epik_Metal_State_Penalty>
-0

> <b_epik_Metal_Only>
0

> <s_epik_Chemistry_Notes>
This compound contains an acetal/aminal-like group ( X-CH(R)-Y where X, Y are N, S, or O) that may be acid/base labile, releasing an aldehyde.

> <s_lp_Force_Field>
OPLS_2005

> <r_lp_Energy>
57.9127

> <b_lp_Chiralities_Consistent>
1

> <s_lp_Variant>
AV-unprocessed.smi:109-5

> <Gold.Version>
5.8.1

> <Gold.Id.Protein>
6NUR|6NUR_protein|mol2

> <Gold.PLP.Fitness>
52.4588

> <Gold.PLP.PLP>
-39.7262

> <Gold.PLP.part.hbond>
-6.0000

> <Gold.PLP.part.metal>
0.0000

> <Gold.PLP.part.buried>
-0.5123

> <Gold.PLP.part.nonpolar>
-38.2493

> <Gold.PLP.part.repulsive>
2.3127

> <Gold.PLP.ligand.clash>
0.0000

> <Gold.PLP.ligand.torsion>
2.2810

> <Gold.PLP.Chemscore.Hbond>
4.7310

> <Gold.PLP.Chemscore.CHOScore>
1.0000

> <Gold.PLP.Chemscore.Metal>
0.0000

> <Gold.Chemscore.Hbonds>
donor molecule, donor type, donor heavy atom, donor atom, acceptor molecule, acceptor atom, score
      L1  H     1    34       P1 10174  0.60
      L1  H     5    40       P1  7957  1.00
      L1  H    19    45       P1 10957  0.45
      L1  H    23    47       P1 10186  1.00
      P1  H  7954  7966       L1    12  1.00
      P1  H 10785 10796       L1    21  0.14
      L1  C    13    42       P1  7921  1.00

> <Gold.PLP.Chemscore.Internal.Correction>
0.1016

> <Gold.Rescore>
     Score         DG    S(hbond)    S(metal)    S(lipo)     H(rot)  DE(clash)    DE(int)     intcor
      3.83     -11.33       2.97        0.00      84.86       5.47       3.84       3.66       ----

> <Gold.Chemscore.Fitness>
3.8296

> <Gold.Chemscore.DG>
-11.3281

> <Gold.Chemscore.ZeroCoef>
-5.4800

> <Gold.Chemscore.Hbond>
2.9681

> <Gold.Chemscore.Metal>
0.0000

> <Gold.Chemscore.Lipo>
84.8567

> <Gold.Chemscore.Internal_Hbond>
0.0000

> <Gold.Chemscore.DEClash>
3.8411

> <Gold.Chemscore.DEInternal>
3.6575

> <Gold.Chemscore.Rot>
5.4662

> <Gold.Chemscore.Internal.Correction>
   9.000000E+99

> <Gold.Chemscore.Hbonds>
donor molecule, donor type, donor heavy atom, donor atom, acceptor molecule, acceptor atom, score
      L1  H     1    34       P1 10174  0.12
      L1  H     5    40       P1  7957  0.99
      L1  H    19    45       P1 10957  0.03
      L1  H    23    47       P1 10186  0.95
      P1  H  7954  7966       L1    12  0.44
      P1  H 10785 10796       L1    21  0.06

> <Gold.Chemscore.Hbond.Weighted>
-9.9134

> <Gold.Chemscore.Metal.Weighted>
-0.0000

> <Gold.Chemscore.Lipo.Weighted>
-9.9282

> <Gold.Chemscore.Internal_Hbond.Weighted>
0.0000

> <Gold.Chemscore.DEClash.Weighted>
3.8411

> <Gold.Chemscore.DEInternal.Weighted>
3.6575

> <Gold.Chemscore.Rot.Weighted>
13.9935

> <Gold.Chemscore.Internal.Correction.Weighted>
   9.000000E+99

> <Gold.Protein.RotatedTorsions>
[ 6907 6896 6895 6894 ] final   30.25 input  -60.11 | X-H torsion
[ 7974 7965 7964 7962 ] final  114.89 input  175.53 | X-H torsion
[ 8008 7997 7996 7995 ] final    5.24 input   59.86 | X-H torsion
[ 10167 10162 10161 10158 ] final   39.95 input  -65.29 | X-H torsion
[ 10718 10713 10712 10709 ] final  123.57 input   66.30 | X-H torsion
[ 10763 10752 10751 10750 ] final  -67.87 input  -60.55 | X-H torsion
[ 11005 11000 10999 10996 ] final   45.53 input  -57.11 | X-H torsion

> <Gold.Protein.ActiveResidues>
 VAL166  LYS551  ARG553  GLY616  TRP617  ASP618  TYR619  PRO620  LYS621  CYS622 
 ASP623  PHE694  ASN695  SER759  ASP760  ASP761  ALA762  ILE779  LEU786  VAL792 
 PHE793  MET794  SER795  GLU796  ALA797  LYS798  CYS799  TRP800  GLU811  SER814 

> <Gold.Protein.RotatedAtoms>
  152.0433  134.9698  160.0573 H   0  0  0  0  0  0  0  0  0  0  0  0  # atno 6907 bound_to 6896
  152.1128  133.4305  159.4647 H   0  0  0  0  0  0  0  0  0  0  0  0  # atno 6908 bound_to 6896
  150.6844  134.2546  159.4568 H   0  0  0  0  0  0  0  0  0  0  0  0  # atno 6909 bound_to 6896
  145.1988  139.2963  143.4329 H   0  0  0  0  0  0  0  0  0  0  0  0  # atno 7974 bound_to 7965
  154.7259  140.2721  155.6499 H   0  0  0  0  0  0  0  0  0  0  0  0  # atno 8008 bound_to 7997
  156.2836  140.2725  156.1869 H   0  0  0  0  0  0  0  0  0  0  0  0  # atno 8009 bound_to 7997
  155.0446  140.0371  157.2511 H   0  0  0  0  0  0  0  0  0  0  0  0  # atno 8010 bound_to 7997
  140.3789  144.2006  150.6131 H   0  0  0  0  0  0  0  0  0  0  0  0  # atno 10167 bound_to 10162
  157.5654  131.1087  150.8464 H   0  0  0  0  0  0  0  0  0  0  0  0  # atno 10718 bound_to 10713
  154.3808  135.6074  153.5790 H   0  0  0  0  0  0  0  0  0  0  0  0  # atno 10763 bound_to 10752
  152.9788  135.5860  154.4412 H   0  0  0  0  0  0  0  0  0  0  0  0  # atno 10764 bound_to 10752
  154.4181  135.2845  155.1971 H   0  0  0  0  0  0  0  0  0  0  0  0  # atno 10765 bound_to 10752
  140.1451  134.4533  155.8421 H   0  0  0  0  0  0  0  0  0  0  0  0  # atno 11005 bound_to 11000
  146.3422  140.2226  142.8591 LP  0  0  0  0  0  0  0  0  0  0  0  0  # atno 17320 bound_to 7965
  144.9968  140.8596  143.5306 LP  0  0  0  0  0  0  0  0  0  0  0  0  # atno 17321 bound_to 7965
  140.4957  143.2333  151.8753 LP  0  0  0  0  0  0  0  0  0  0  0  0  # atno 17342 bound_to 10162
  139.4797  144.5116  151.8925 LP  0  0  0  0  0  0  0  0  0  0  0  0  # atno 17343 bound_to 10162
  156.8950  130.5226  149.5285 LP  0  0  0  0  0  0  0  0  0  0  0  0  # atno 17370 bound_to 10713
  156.0703  130.5737  150.9369 LP  0  0  0  0  0  0  0  0  0  0  0  0  # atno 17371 bound_to 10713
  141.2191  133.6849  156.7319 LP  0  0  0  0  0  0  0  0  0  0  0  0  # atno 17394 bound_to 11000
  140.2674  134.8419  157.3815 LP  0  0  0  0  0  0  0  0  0  0  0  0  # atno 17395 bound_to 11000

$$$$
