AV-unprocessed.smi:1427|AV-procd|sdf|5810|dock9
  -GOLD-   22720 5463D 1   1.00000     0.00000
 Structure written by MMmdl.
 33 34  0  0  0  0  0  0  0  0  1 V2000
  147.2681  141.6873  155.7281 C   0  0  0  0  0  0  0  0  0  0  0  0
  148.6143  140.9703  155.8976 C   0  0  1  0  0  0  0  0  0  0  0  0
  149.0179  140.2175  154.6122 C   0  0  0  0  0  0  0  0  0  0  0  0
  150.1200  139.2954  154.8272 N   0  0  0  0  0  0  0  0  0  0  0  0
  150.1283  137.9237  154.6878 C   0  0  0  0  0  0  0  0  0  0  0  0
  151.3805  137.4897  155.0168 C   0  0  0  0  0  0  0  0  0  0  0  0
  152.0774  138.6858  155.3458 C   0  0  0  0  0  0  0  0  0  0  0  0
  151.3218  139.7655  155.2275 N   0  0  0  0  0  0  0  0  0  0  0  0
  149.6351  141.9506  156.2661 N   0  0  0  0  0  0  0  0  0  0  0  0
  150.4223  141.8907  157.3520 C   0  0  0  0  0  0  0  0  0  0  0  0
  150.3505  140.9923  158.1922 O   0  0  0  0  0  0  0  0  0  0  0  0
  151.4725  143.0026  157.4801 C   0  0  2  0  0  0  0  0  0  0  0  0
  152.2620  142.8744  158.8019 C   0  0  0  0  0  0  0  0  0  0  0  0
  152.3761  144.2976  159.3629 C   0  0  0  0  0  0  0  0  0  0  0  0
  151.3239  145.0587  158.5767 C   0  0  0  0  0  0  0  0  0  0  0  0
  150.9695  146.2032  158.8488 O   0  0  0  0  0  0  0  0  0  0  0  0
  150.8535  144.3148  157.5769 N   0  0  0  0  0  0  0  0  0  0  0  0
  146.4746  140.9787  155.4890 H   0  0  0  0  0  0  0  0  0  0  0  0
  147.3078  142.4252  154.9259 H   0  0  0  0  0  0  0  0  0  0  0  0
  146.9803  142.2047  156.6439 H   0  0  0  0  0  0  0  0  0  0  0  0
  148.4900  140.2415  156.7007 H   0  0  0  0  0  0  0  0  0  0  0  0
  148.1717  139.6413  154.2364 H   0  0  0  0  0  0  0  0  0  0  0  0
  149.2876  140.9219  153.8233 H   0  0  0  0  0  0  0  0  0  0  0  0
  149.2505  137.3767  154.3767 H   0  0  0  0  0  0  0  0  0  0  0  0
  151.7429  136.4727  155.0242 H   0  0  0  0  0  0  0  0  0  0  0  0
  153.1027  138.8012  155.6649 H   0  0  0  0  0  0  0  0  0  0  0  0
  149.7753  142.7193  155.6265 H   0  0  0  0  0  0  0  0  0  0  0  0
  152.1457  143.0000  156.6210 H   0  0  0  0  0  0  0  0  0  0  0  0
  151.7420  142.2454  159.5274 H   0  0  0  0  0  0  0  0  0  0  0  0
  153.2432  142.4277  158.6373 H   0  0  0  0  0  0  0  0  0  0  0  0
  152.1829  144.3363  160.4355 H   0  0  0  0  0  0  0  0  0  0  0  0
  153.3581  144.7282  159.1652 H   0  0  0  0  0  0  0  0  0  0  0  0
  150.1344  144.6201  156.9373 H   0  0  0  0  0  0  0  0  0  0  0  0
  1  2  1  0  0  0  0
  1 18  1  0  0  0  0
  1 19  1  0  0  0  0
  1 20  1  0  0  0  0
  2  3  1  0  0  0  0
  2  9  1  0  0  0  0
  2 21  1  0  0  0  0
  3  4  1  0  0  0  0
  3 22  1  0  0  0  0
  3 23  1  0  0  0  0
  4  8  1  0  0  0  0
  4  5  1  0  0  0  0
  5  6  2  0  0  0  0
  5 24  1  0  0  0  0
  6  7  1  0  0  0  0
  6 25  1  0  0  0  0
  7  8  2  0  0  0  0
  7 26  1  0  0  0  0
  9 10  1  0  0  0  0
  9 27  1  0  0  0  0
 10 11  2  0  0  0  0
 10 12  1  0  0  0  0
 12 17  1  0  0  0  0
 12 13  1  0  0  0  0
 12 28  1  0  0  0  0
 13 14  1  0  0  0  0
 13 29  1  0  0  0  0
 13 30  1  0  0  0  0
 14 15  1  0  0  0  0
 14 31  1  0  0  0  0
 14 32  1  0  0  0  0
 15 16  2  0  0  0  0
 15 17  1  0  0  0  0
 17 33  1  0  0  0  0
M  END
> <s_m_source_file>
AV-unprocessed.smi

> <i_m_source_file_index>
1427

> <i_lp_mmshare_version>
43012

> <i_f3d_flags>
0

> <s_epik_input>
bjFbY0hdW2NIXVtjSF1uMVtDSDJdW0NAQEhdKFtDSDNdKVtOSF1DKD1PKVtDQEBIXTJbQ0gyXVtDSDJdQyg9TylbTkhdMg==

> <s_epik_cmdline>
J2VwaWtfcHl0aG9uJywgJy1waCcsICc3LjAnLCAnLXRuJywgJzgnLCAnLW1hJywgJzIwMCcsICctbWV0YWxfYmluZGluZycsICctaW1hZScsICc8aW5maWxlLm1hZT4nLCAnLW9tYWUnLCAnPG91dGZpbGUubWFlPic=

> <r_lp_tautomer_probability>
1

> <r_epik_Ionization_Penalty>
0.000310707

> <r_epik_Ionization_Penalty_Charging>
0

> <r_epik_Ionization_Penalty_Neutral>
0.000310707

> <r_epik_State_Penalty>
-0

> <r_epik_Charging_Adjusted_Penalty>
0

> <i_epik_Tot_Q>
0

> <i_epik_Tot_abs_Q>
0

> <r_epik_Metal_State_Penalty>
-0

> <b_epik_Metal_Only>
0

> <s_lp_Force_Field>
OPLS_2005

> <r_lp_Energy>
14.2046

> <b_lp_Chiralities_Consistent>
1

> <s_lp_Variant>
AV-unprocessed.smi:1427-2

> <Gold.Version>
5.8.1

> <Gold.Id.Protein>
6NUR|6NUR_protein|mol2

> <Gold.PLP.Fitness>
47.3386

> <Gold.PLP.PLP>
-36.3668

> <Gold.PLP.part.hbond>
-5.0000

> <Gold.PLP.part.metal>
0.0000

> <Gold.PLP.part.buried>
-2.6995

> <Gold.PLP.part.nonpolar>
-29.4618

> <Gold.PLP.part.repulsive>
0.3924

> <Gold.PLP.ligand.clash>
0.0000

> <Gold.PLP.ligand.torsion>
0.1343

> <Gold.PLP.Chemscore.Hbond>
2.7820

> <Gold.PLP.Chemscore.CHOScore>
0.9532

> <Gold.PLP.Chemscore.Metal>
0.0000

> <Gold.Chemscore.Hbonds>
donor molecule, donor type, donor heavy atom, donor atom, acceptor molecule, acceptor atom, score
      L1  H     9    27       P1  8028  0.36
      L1  H    17    33       P1  8028  1.00
      P1  H  7989  7998       L1     8  0.67
      L1  C     5    24       P1  7948  0.37

> <Gold.PLP.Chemscore.Internal.Correction>
0.0349

> <Gold.Rescore>
     Score         DG    S(hbond)    S(metal)    S(lipo)     H(rot)  DE(clash)    DE(int)     intcor
      9.83     -13.48       1.21        0.00      75.03       1.88       3.27       0.38       ----

> <Gold.Chemscore.Fitness>
9.8272

> <Gold.Chemscore.DG>
-13.4828

> <Gold.Chemscore.ZeroCoef>
-5.4800

> <Gold.Chemscore.Hbond>
1.2102

> <Gold.Chemscore.Metal>
0.0000

> <Gold.Chemscore.Lipo>
75.0340

> <Gold.Chemscore.Internal_Hbond>
0.0000

> <Gold.Chemscore.DEClash>
3.2739

> <Gold.Chemscore.DEInternal>
0.3817

> <Gold.Chemscore.Rot>
1.8821

> <Gold.Chemscore.Internal.Correction>
   9.000000E+99

> <Gold.Chemscore.Hbonds>
donor molecule, donor type, donor heavy atom, donor atom, acceptor molecule, acceptor atom, score
      L1  H     9    27       P1  8028  0.35
      L1  H    17    33       P1  8028  0.60
      P1  H  7989  7998       L1     8  0.07

> <Gold.Chemscore.Hbond.Weighted>
-4.0419

> <Gold.Chemscore.Metal.Weighted>
-0.0000

> <Gold.Chemscore.Lipo.Weighted>
-8.7790

> <Gold.Chemscore.Internal_Hbond.Weighted>
0.0000

> <Gold.Chemscore.DEClash.Weighted>
3.2739

> <Gold.Chemscore.DEInternal.Weighted>
0.3817

> <Gold.Chemscore.Rot.Weighted>
4.8181

> <Gold.Chemscore.Internal.Correction.Weighted>
   9.000000E+99

> <Gold.Protein.RotatedTorsions>
[ 6907 6896 6895 6894 ] final  -44.32 input  -60.11 | X-H torsion
[ 7974 7965 7964 7962 ] final   -7.84 input  175.53 | X-H torsion
[ 8008 7997 7996 7995 ] final  -24.53 input   59.86 | X-H torsion
[ 10167 10162 10161 10158 ] final  -64.02 input  -65.29 | X-H torsion
[ 10718 10713 10712 10709 ] final  140.23 input   66.30 | X-H torsion
[ 10763 10752 10751 10750 ] final   14.86 input  -60.55 | X-H torsion
[ 11005 11000 10999 10996 ] final -114.08 input  -57.11 | X-H torsion

> <Gold.Protein.ActiveResidues>
 VAL166  LYS551  ARG553  GLY616  TRP617  ASP618  TYR619  PRO620  LYS621  CYS622 
 ASP623  PHE694  ASN695  SER759  ASP760  ASP761  ALA762  ILE779  LEU786  VAL792 
 PHE793  MET794  SER795  GLU796  ALA797  LYS798  CYS799  TRP800  GLU811  SER814 

> <Gold.Protein.RotatedAtoms>
  150.9341  134.8754  159.7569 H   0  0  0  0  0  0  0  0  0  0  0  0  # atno 6907 bound_to 6896
  152.5051  134.4036  159.9435 H   0  0  0  0  0  0  0  0  0  0  0  0  # atno 6908 bound_to 6896
  151.4061  133.3702  159.2773 H   0  0  0  0  0  0  0  0  0  0  0  0  # atno 6909 bound_to 6896
  146.2296  140.2380  142.8342 H   0  0  0  0  0  0  0  0  0  0  0  0  # atno 7974 bound_to 7965
  154.4524  140.1951  156.0479 H   0  0  0  0  0  0  0  0  0  0  0  0  # atno 8008 bound_to 7997
  156.0676  140.3288  155.7509 H   0  0  0  0  0  0  0  0  0  0  0  0  # atno 8009 bound_to 7997
  155.5314  140.0578  157.2879 H   0  0  0  0  0  0  0  0  0  0  0  0  # atno 8010 bound_to 7997
  140.5830  143.2330  151.6302 H   0  0  0  0  0  0  0  0  0  0  0  0  # atno 10167 bound_to 10162
  157.4056  131.1022  151.0507 H   0  0  0  0  0  0  0  0  0  0  0  0  # atno 10718 bound_to 10713
  153.1581  135.6791  153.8783 H   0  0  0  0  0  0  0  0  0  0  0  0  # atno 10763 bound_to 10752
  153.8188  135.3133  155.3409 H   0  0  0  0  0  0  0  0  0  0  0  0  # atno 10764 bound_to 10752
  154.7912  135.4833  154.0145 H   0  0  0  0  0  0  0  0  0  0  0  0  # atno 10765 bound_to 10752
  141.0574  133.9590  157.2729 H   0  0  0  0  0  0  0  0  0  0  0  0  # atno 11005 bound_to 11000
  144.9507  140.8175  143.5574 LP  0  0  0  0  0  0  0  0  0  0  0  0  # atno 17320 bound_to 7965
  145.2340  139.2102  143.5028 LP  0  0  0  0  0  0  0  0  0  0  0  0  # atno 17321 bound_to 7965
  139.5181  144.3295  152.0839 LP  0  0  0  0  0  0  0  0  0  0  0  0  # atno 17342 bound_to 10162
  140.2448  144.4231  150.6245 LP  0  0  0  0  0  0  0  0  0  0  0  0  # atno 17343 bound_to 10162
  157.1490  130.6176  149.5577 LP  0  0  0  0  0  0  0  0  0  0  0  0  # atno 17370 bound_to 10713
  155.9835  130.4855  150.6938 LP  0  0  0  0  0  0  0  0  0  0  0  0  # atno 17371 bound_to 10713
  139.9402  135.0192  156.8685 LP  0  0  0  0  0  0  0  0  0  0  0  0  # atno 17394 bound_to 11000
  140.5936  134.0238  155.7509 LP  0  0  0  0  0  0  0  0  0  0  0  0  # atno 17395 bound_to 11000

$$$$
