AV-unprocessed.smi:1836|AV-procd|sdf|7479|dock6
  -GOLD-   22720 9173D 1   1.00000     0.00000
 Structure written by MMmdl.
 32 33  0  0  0  0  0  0  0  0  2 V2000
  149.6470  136.4280  156.9678 C   0  0  0  0  0  0  0  0  0  0  0  0
  149.5804  137.8198  157.6113 C   0  0  2  0  0  0  0  0  0  0  0  0
  150.9659  138.5064  157.5960 C   0  0  0  0  0  0  0  0  0  0  0  0
  150.8764  139.9476  157.3652 N   0  0  0  0  0  0  0  0  0  0  0  0
  150.6986  140.8685  158.4764 C   0  0  0  0  0  0  0  0  0  0  0  0
  150.3214  142.2035  157.8211 C   0  0  0  0  0  0  0  0  0  0  0  0
  150.7347  142.0696  156.3517 C   0  0  0  0  0  0  0  0  0  0  0  0
  150.9381  140.5731  156.1834 C   0  0  0  0  0  0  0  0  0  0  0  0
  151.1223  140.0428  155.0887 O   0  0  0  0  0  0  0  0  0  0  0  0
  149.0987  137.6728  158.9850 N   0  0  0  0  0  0  0  0  0  0  0  0
  147.9167  137.1634  159.3639 C   0  0  0  0  0  0  0  0  0  0  0  0
  147.1357  136.7183  158.5197 O   0  0  0  0  0  0  0  0  0  0  0  0
  147.7012  137.2223  160.6974 N   0  5  0  0  0  0  0  0  0  0  0  0
  146.8513  136.3568  161.2741 C   0  0  0  0  0  0  0  0  0  0  0  0
  145.6798  136.0169  160.7134 N   0  0  0  0  0  0  0  0  0  0  0  0
  144.9543  135.1091  161.4734 N   0  0  0  0  0  0  0  0  0  0  0  0
  145.6046  134.7804  162.5893 C   0  0  0  0  0  0  0  0  0  0  0  0
  147.1630  135.5465  162.8124 S   0  0  0  0  0  0  0  0  0  0  0  0
  149.9756  136.4916  155.9303 H   0  0  0  0  0  0  0  0  0  0  0  0
  148.6688  135.9460  156.9730 H   0  0  0  0  0  0  0  0  0  0  0  0
  150.3429  135.7770  157.4983 H   0  0  0  0  0  0  0  0  0  0  0  0
  148.8721  138.4073  157.0249 H   0  0  0  0  0  0  0  0  0  0  0  0
  151.4953  138.3135  158.5305 H   0  0  0  0  0  0  0  0  0  0  0  0
  151.5834  138.0754  156.8064 H   0  0  0  0  0  0  0  0  0  0  0  0
  149.9286  140.5266  159.1693 H   0  0  0  0  0  0  0  0  0  0  0  0
  151.6377  140.9528  159.0243 H   0  0  0  0  0  0  0  0  0  0  0  0
  149.2430  142.3558  157.8868 H   0  0  0  0  0  0  0  0  0  0  0  0
  150.8051  143.0486  158.3119 H   0  0  0  0  0  0  0  0  0  0  0  0
  149.9709  142.4487  155.6721 H   0  0  0  0  0  0  0  0  0  0  0  0
  151.6734  142.5873  156.1524 H   0  0  0  0  0  0  0  0  0  0  0  0
  149.7031  138.0192  159.7156 H   0  0  0  0  0  0  0  0  0  0  0  0
  145.1652  134.0802  163.2840 H   0  0  0  0  0  0  0  0  0  0  0  0
  1  2  1  0  0  0  0
  1 19  1  0  0  0  0
  1 20  1  0  0  0  0
  1 21  1  0  0  0  0
  2  3  1  0  0  0  0
  2 10  1  0  0  0  0
  2 22  1  0  0  0  0
  3  4  1  0  0  0  0
  3 23  1  0  0  0  0
  3 24  1  0  0  0  0
  4  8  1  0  0  0  0
  4  5  1  0  0  0  0
  5  6  1  0  0  0  0
  5 25  1  0  0  0  0
  5 26  1  0  0  0  0
  6  7  1  0  0  0  0
  6 27  1  0  0  0  0
  6 28  1  0  0  0  0
  7  8  1  0  0  0  0
  7 29  1  0  0  0  0
  7 30  1  0  0  0  0
  8  9  2  0  0  0  0
 10 11  1  0  0  0  0
 10 31  1  0  0  0  0
 11 12  2  0  0  0  0
 11 13  1  0  0  0  0
 13 14  1  0  0  0  0
 14 18  1  0  0  0  0
 14 15  2  0  0  0  0
 15 16  1  0  0  0  0
 16 17  2  0  0  0  0
 17 18  1  0  0  0  0
 17 32  1  0  0  0  0
M  CHG  1  13  -1
M  END
> <s_m_source_file>
AV-unprocessed.smi

> <i_m_source_file_index>
1836

> <i_lp_mmshare_version>
43012

> <i_f3d_flags>
0

> <s_epik_input>
Tz1DMVtDSDJdW0NIMl1bQ0gyXU4xW0NIMl1bQ0BASF0oW0NIM10pW05IXUMoPU8pW05IXWMybm5bY0hdczI=

> <s_epik_cmdline>
J2VwaWtfcHl0aG9uJywgJy1waCcsICc3LjAnLCAnLXRuJywgJzgnLCAnLW1hJywgJzIwMCcsICctbWV0YWxfYmluZGluZycsICctaW1hZScsICc8aW5maWxlLm1hZT4nLCAnLW9tYWUnLCAnPG91dGZpbGUubWFlPic=

> <r_lp_tautomer_probability>
1

> <r_epik_Ionization_Penalty>
3.44722

> <r_epik_Ionization_Penalty_Charging>
3.40341

> <r_epik_Ionization_Penalty_Neutral>
0.0438099

> <r_epik_State_Penalty>
3.40151

> <r_epik_Charging_Adjusted_Penalty>
6.80491

> <i_epik_Tot_Q>
-1

> <i_epik_Tot_abs_Q>
1

> <r_epik_Metal_State_Penalty>
0.49534

> <b_epik_Metal_Only>
1

> <s_lp_Force_Field>
OPLS_2005

> <r_lp_Energy>
15.5322

> <b_lp_Chiralities_Consistent>
1

> <s_lp_Variant>
AV-unprocessed.smi:1836-3

> <Gold.Version>
5.8.1

> <Gold.Id.Protein>
6NUR|6NUR_protein|mol2

> <Gold.PLP.Fitness>
38.1225

> <Gold.PLP.PLP>
-27.6003

> <Gold.PLP.part.hbond>
-3.0000

> <Gold.PLP.part.metal>
0.0000

> <Gold.PLP.part.buried>
-5.4347

> <Gold.PLP.part.nonpolar>
-20.6230

> <Gold.PLP.part.repulsive>
0.2504

> <Gold.PLP.ligand.clash>
0.0000

> <Gold.PLP.ligand.torsion>
1.3381

> <Gold.PLP.Chemscore.Hbond>
4.3600

> <Gold.PLP.Chemscore.CHOScore>
0.0000

> <Gold.PLP.Chemscore.Metal>
0.0000

> <Gold.Chemscore.Hbonds>
donor molecule, donor type, donor heavy atom, donor atom, acceptor molecule, acceptor atom, score
      P1  H  6931  6943       L1    13  1.46
      P1  H  6934  6947       L1    13  1.82
      P1  H  7989  7998       L1     9  1.00

> <Gold.PLP.Chemscore.Internal.Correction>
0.1184

> <Gold.Rescore>
     Score         DG    S(hbond)    S(metal)    S(lipo)     H(rot)  DE(clash)    DE(int)     intcor
     10.31     -13.20       2.09        0.00      44.10       1.73       0.00       2.88       ----

> <Gold.Chemscore.Fitness>
10.3106

> <Gold.Chemscore.DG>
-13.1950

> <Gold.Chemscore.ZeroCoef>
-5.4800

> <Gold.Chemscore.Hbond>
2.0912

> <Gold.Chemscore.Metal>
0.0000

> <Gold.Chemscore.Lipo>
44.1018

> <Gold.Chemscore.Internal_Hbond>
0.0000

> <Gold.Chemscore.DEClash>
0.0000

> <Gold.Chemscore.DEInternal>
2.8845

> <Gold.Chemscore.Rot>
1.7302

> <Gold.Chemscore.Internal.Correction>
   9.000000E+99

> <Gold.Chemscore.Hbonds>
donor molecule, donor type, donor heavy atom, donor atom, acceptor molecule, acceptor atom, score
      P1  H  6931  6943       L1    13  0.65
      P1  H  6934  6947       L1    13  0.27
      P1  H  7989  7998       L1     9  1.00

> <Gold.Chemscore.Hbond.Weighted>
-6.9845

> <Gold.Chemscore.Metal.Weighted>
-0.0000

> <Gold.Chemscore.Lipo.Weighted>
-5.1599

> <Gold.Chemscore.Internal_Hbond.Weighted>
0.0000

> <Gold.Chemscore.DEClash.Weighted>
0.0000

> <Gold.Chemscore.DEInternal.Weighted>
2.8845

> <Gold.Chemscore.Rot.Weighted>
4.4294

> <Gold.Chemscore.Internal.Correction.Weighted>
   9.000000E+99

> <Gold.Protein.RotatedTorsions>
[ 6907 6896 6895 6894 ] final  -57.26 input  -60.11 | X-H torsion
[ 7974 7965 7964 7962 ] final   15.84 input  175.53 | X-H torsion
[ 8008 7997 7996 7995 ] final   69.08 input   59.86 | X-H torsion
[ 10167 10162 10161 10158 ] final  -93.11 input  -65.29 | X-H torsion
[ 10718 10713 10712 10709 ] final  -21.04 input   66.30 | X-H torsion
[ 10763 10752 10751 10750 ] final -119.25 input  -60.55 | X-H torsion
[ 11005 11000 10999 10996 ] final  117.95 input  -57.11 | X-H torsion

> <Gold.Protein.ActiveResidues>
 VAL166  LYS551  ARG553  GLY616  TRP617  ASP618  TYR619  PRO620  LYS621  CYS622 
 ASP623  PHE694  ASN695  SER759  ASP760  ASP761  ALA762  ILE779  LEU786  VAL792 
 PHE793  MET794  SER795  GLU796  ALA797  LYS798  CYS799  TRP800  GLU811  SER814 

> <Gold.Protein.RotatedAtoms>
  150.8100  134.7249  159.6678 H   0  0  0  0  0  0  0  0  0  0  0  0  # atno 6907 bound_to 6896
  152.4220  134.5934  159.9990 H   0  0  0  0  0  0  0  0  0  0  0  0  # atno 6908 bound_to 6896
  151.6147  133.3307  159.3111 H   0  0  0  0  0  0  0  0  0  0  0  0  # atno 6909 bound_to 6896
  146.2267  139.8835  142.8567 H   0  0  0  0  0  0  0  0  0  0  0  0  # atno 7974 bound_to 7965
  155.7182  140.3493  155.5004 H   0  0  0  0  0  0  0  0  0  0  0  0  # atno 8008 bound_to 7997
  155.9294  140.1081  157.1166 H   0  0  0  0  0  0  0  0  0  0  0  0  # atno 8009 bound_to 7997
  154.4082  140.1234  156.4769 H   0  0  0  0  0  0  0  0  0  0  0  0  # atno 8010 bound_to 7997
  140.3280  143.3011  151.9973 H   0  0  0  0  0  0  0  0  0  0  0  0  # atno 10167 bound_to 10162
  156.5236  130.4638  149.6584 H   0  0  0  0  0  0  0  0  0  0  0  0  # atno 10718 bound_to 10713
  154.8611  135.4245  154.2268 H   0  0  0  0  0  0  0  0  0  0  0  0  # atno 10763 bound_to 10752
  153.3262  135.6985  153.6993 H   0  0  0  0  0  0  0  0  0  0  0  0  # atno 10764 bound_to 10752
  153.6028  135.3533  155.2925 H   0  0  0  0  0  0  0  0  0  0  0  0  # atno 10765 bound_to 10752
  139.9092  134.9615  156.7429 H   0  0  0  0  0  0  0  0  0  0  0  0  # atno 11005 bound_to 11000
  145.2489  141.0036  143.3893 LP  0  0  0  0  0  0  0  0  0  0  0  0  # atno 17320 bound_to 7965
  144.9391  139.4210  143.6458 LP  0  0  0  0  0  0  0  0  0  0  0  0  # atno 17321 bound_to 7965
  139.4861  144.6258  151.7168 LP  0  0  0  0  0  0  0  0  0  0  0  0  # atno 17342 bound_to 10162
  140.5423  144.0559  150.6093 LP  0  0  0  0  0  0  0  0  0  0  0  0  # atno 17343 bound_to 10162
  156.3126  130.7237  151.2133 LP  0  0  0  0  0  0  0  0  0  0  0  0  # atno 17370 bound_to 10713
  157.7433  131.0477  150.4958 LP  0  0  0  0  0  0  0  0  0  0  0  0  # atno 17371 bound_to 10713
  140.6835  133.9453  155.7924 LP  0  0  0  0  0  0  0  0  0  0  0  0  # atno 17394 bound_to 11000
  141.0493  134.0508  157.3804 LP  0  0  0  0  0  0  0  0  0  0  0  0  # atno 17395 bound_to 11000

$$$$
