AV-unprocessed.smi:1498|AV-procd|sdf|6059|dock6
  -GOLD-   22720 6173D 1   1.00000     0.00000
 Structure written by MMmdl.
 38 39  0  0  0  0  0  0  0  0  2 V2000
  147.6213  143.0999  158.3526 C   0  0  0  0  0  0  0  0  0  0  0  0
  149.0514  143.2945  158.0323 N   0  3  0  0  0  0  0  0  0  0  0  0
  149.7394  142.0187  157.7032 C   0  0  0  0  0  0  0  0  0  0  0  0
  151.2277  142.2503  157.3791 C   0  0  0  0  0  0  0  0  0  0  0  0
  151.8592  142.9562  158.5051 N   0  0  0  0  0  0  0  0  0  0  0  0
  152.6951  142.4081  159.4232 C   0  0  0  0  0  0  0  0  0  0  0  0
  153.3768  143.0900  160.1890 O   0  0  0  0  0  0  0  0  0  0  0  0
  152.7640  141.0640  159.3735 N   0  0  0  0  0  0  0  0  0  0  0  0
  153.5353  140.2022  160.1941 C   0  0  0  0  0  0  0  0  0  0  0  0
  154.7305  140.5780  160.8602 C   0  0  0  0  0  0  0  0  0  0  0  0
  155.2303  139.5679  161.5554 N   0  0  0  0  0  0  0  0  0  0  0  0
  154.3710  138.5386  161.3482 N   0  0  0  0  0  0  0  0  0  0  0  0
  154.6207  137.2545  161.9793 C   0  0  0  0  0  0  0  0  0  0  0  0
  154.6783  136.1289  160.9448 C   0  0  0  0  0  0  0  0  0  0  0  0
  155.8032  135.4111  160.8858 N   0  0  0  0  0  0  0  0  0  0  0  0
  153.7207  135.9125  160.2057 O   0  0  0  0  0  0  0  0  0  0  0  0
  153.3247  138.8916  160.5181 C   0  0  0  0  0  0  0  0  0  0  0  0
  151.2470  144.2743  158.7030 C   0  0  0  0  0  0  0  0  0  0  0  0
  149.7618  144.0928  159.0651 C   0  0  0  0  0  0  0  0  0  0  0  0
  147.5005  142.5017  159.2568 H   0  0  0  0  0  0  0  0  0  0  0  0
  147.1098  142.5916  157.5347 H   0  0  0  0  0  0  0  0  0  0  0  0
  147.1278  144.0596  158.5085 H   0  0  0  0  0  0  0  0  0  0  0  0
  149.6485  141.3308  158.5455 H   0  0  0  0  0  0  0  0  0  0  0  0
  149.2448  141.5475  156.8531 H   0  0  0  0  0  0  0  0  0  0  0  0
  151.6975  141.2986  157.1315 H   0  0  0  0  0  0  0  0  0  0  0  0
  151.3219  142.8618  156.4805 H   0  0  0  0  0  0  0  0  0  0  0  0
  152.1915  140.6083  158.6779 H   0  0  0  0  0  0  0  0  0  0  0  0
  155.2414  141.5295  160.8634 H   0  0  0  0  0  0  0  0  0  0  0  0
  155.5656  137.3107  162.5214 H   0  0  0  0  0  0  0  0  0  0  0  0
  153.8413  137.0468  162.7145 H   0  0  0  0  0  0  0  0  0  0  0  0
  155.8885  134.6635  160.2122 H   0  0  0  0  0  0  0  0  0  0  0  0
  156.5676  135.6246  161.5100 H   0  0  0  0  0  0  0  0  0  0  0  0
  152.5484  138.1910  160.2485 H   0  0  0  0  0  0  0  0  0  0  0  0
  151.7510  144.8630  159.4711 H   0  0  0  0  0  0  0  0  0  0  0  0
  151.3397  144.8534  157.7830 H   0  0  0  0  0  0  0  0  0  0  0  0
  149.2833  145.0677  159.1653 H   0  0  0  0  0  0  0  0  0  0  0  0
  149.6754  143.5944  160.0322 H   0  0  0  0  0  0  0  0  0  0  0  0
  149.0798  143.8492  157.1885 H   0  0  0  0  0  0  0  0  0  0  0  0
  1  2  1  0  0  0  0
  1 20  1  0  0  0  0
  1 21  1  0  0  0  0
  1 22  1  0  0  0  0
  2 19  1  0  0  0  0
  2  3  1  0  0  0  0
  2 38  1  0  0  0  0
  3  4  1  0  0  0  0
  3 23  1  0  0  0  0
  3 24  1  0  0  0  0
  4  5  1  0  0  0  0
  4 25  1  0  0  0  0
  4 26  1  0  0  0  0
  5  6  1  0  0  0  0
  5 18  1  0  0  0  0
  6  7  2  0  0  0  0
  6  8  1  0  0  0  0
  8  9  1  0  0  0  0
  8 27  1  0  0  0  0
  9 17  2  0  0  0  0
  9 10  1  0  0  0  0
 10 11  2  0  0  0  0
 10 28  1  0  0  0  0
 11 12  1  0  0  0  0
 12 13  1  0  0  0  0
 12 17  1  0  0  0  0
 13 14  1  0  0  0  0
 13 29  1  0  0  0  0
 13 30  1  0  0  0  0
 14 15  1  0  0  0  0
 14 16  2  0  0  0  0
 15 31  1  0  0  0  0
 15 32  1  0  0  0  0
 17 33  1  0  0  0  0
 18 19  1  0  0  0  0
 18 34  1  0  0  0  0
 18 35  1  0  0  0  0
 19 36  1  0  0  0  0
 19 37  1  0  0  0  0
M  CHG  1   2   1
M  END
> <s_m_source_file>
AV-unprocessed.smi

> <i_m_source_file_index>
1498

> <i_lp_mmshare_version>
43012

> <i_f3d_flags>
0

> <s_epik_input>
W0NIM11OMVtDSDJdW0NIMl1OKFtDSDJdW0NIMl0xKUMoPU8pW05IXWMyW2NIXW5uKFtjSF0yKVtDSDJdQyg9TylbTkgyXQ==

> <s_epik_cmdline>
J2VwaWtfcHl0aG9uJywgJy1waCcsICc3LjAnLCAnLXRuJywgJzgnLCAnLW1hJywgJzIwMCcsICctbWV0YWxfYmluZGluZycsICctaW1hZScsICc8aW5maWxlLm1hZT4nLCAnLW9tYWUnLCAnPG91dGZpbGUubWFlPic=

> <r_lp_tautomer_probability>
1

> <r_epik_Ionization_Penalty>
0.25453

> <r_epik_Ionization_Penalty_Charging>
0.254506

> <r_epik_Ionization_Penalty_Neutral>
2.46477e-05

> <r_epik_State_Penalty>
0.245983

> <r_epik_Charging_Adjusted_Penalty>
0.500488

> <i_epik_Tot_Q>
1

> <i_epik_Tot_abs_Q>
1

> <r_epik_Metal_State_Penalty>
0.245984

> <b_epik_Metal_Only>
0

> <s_lp_Force_Field>
OPLS_2005

> <r_lp_Energy>
51.0402

> <b_lp_Chiralities_Consistent>
1

> <s_lp_Variant>
AV-unprocessed.smi:1498-1

> <Gold.Version>
5.8.1

> <Gold.Id.Protein>
6NUR|6NUR_protein|mol2

> <Gold.PLP.Fitness>
37.8228

> <Gold.PLP.PLP>
-29.4420

> <Gold.PLP.part.hbond>
-2.7743

> <Gold.PLP.part.metal>
0.0000

> <Gold.PLP.part.buried>
-3.5062

> <Gold.PLP.part.nonpolar>
-22.9480

> <Gold.PLP.part.repulsive>
0.1867

> <Gold.PLP.ligand.clash>
0.0000

> <Gold.PLP.ligand.torsion>
0.3350

> <Gold.PLP.Chemscore.Hbond>
3.0000

> <Gold.PLP.Chemscore.CHOScore>
0.0000

> <Gold.PLP.Chemscore.Metal>
0.0000

> <Gold.Chemscore.Hbonds>
donor molecule, donor type, donor heavy atom, donor atom, acceptor molecule, acceptor atom, score
      L1  H     2    38       P1  8028  2.00
      P1  H  6896  6908       L1    16  1.00

> <Gold.PLP.Chemscore.Internal.Correction>
0.0509

> <Gold.Rescore>
     Score         DG    S(hbond)    S(metal)    S(lipo)     H(rot)  DE(clash)    DE(int)     intcor
     13.52     -15.01       1.90        0.00      61.13       1.55       0.02       1.46       ----

> <Gold.Chemscore.Fitness>
13.5189

> <Gold.Chemscore.DG>
-15.0063

> <Gold.Chemscore.ZeroCoef>
-5.4800

> <Gold.Chemscore.Hbond>
1.8984

> <Gold.Chemscore.Metal>
0.0000

> <Gold.Chemscore.Lipo>
61.1309

> <Gold.Chemscore.Internal_Hbond>
0.0000

> <Gold.Chemscore.DEClash>
0.0230

> <Gold.Chemscore.DEInternal>
1.4644

> <Gold.Chemscore.Rot>
1.5494

> <Gold.Chemscore.Internal.Correction>
   9.000000E+99

> <Gold.Chemscore.Hbonds>
donor molecule, donor type, donor heavy atom, donor atom, acceptor molecule, acceptor atom, score
      L1  H     2    38       P1  8028  0.26
      P1  H  6896  6908       L1    16  1.00

> <Gold.Chemscore.Hbond.Weighted>
-6.3406

> <Gold.Chemscore.Metal.Weighted>
-0.0000

> <Gold.Chemscore.Lipo.Weighted>
-7.1523

> <Gold.Chemscore.Internal_Hbond.Weighted>
0.0000

> <Gold.Chemscore.DEClash.Weighted>
0.0230

> <Gold.Chemscore.DEInternal.Weighted>
1.4644

> <Gold.Chemscore.Rot.Weighted>
3.9665

> <Gold.Chemscore.Internal.Correction.Weighted>
   9.000000E+99

> <Gold.Protein.RotatedTorsions>
[ 6907 6896 6895 6894 ] final  -78.28 input  -60.11 | X-H torsion
[ 7974 7965 7964 7962 ] final  -13.34 input  175.53 | X-H torsion
[ 8008 7997 7996 7995 ] final  158.27 input   59.86 | X-H torsion
[ 10167 10162 10161 10158 ] final   10.39 input  -65.29 | X-H torsion
[ 10718 10713 10712 10709 ] final   31.80 input   66.30 | X-H torsion
[ 10763 10752 10751 10750 ] final  -85.07 input  -60.55 | X-H torsion
[ 11005 11000 10999 10996 ] final -158.37 input  -57.11 | X-H torsion

> <Gold.Protein.ActiveResidues>
 VAL166  LYS551  ARG553  GLY616  TRP617  ASP618  TYR619  PRO620  LYS621  CYS622 
 ASP623  PHE694  ASN695  SER759  ASP760  ASP761  ALA762  ILE779  LEU786  VAL792 
 PHE793  MET794  SER795  GLU796  ALA797  LYS798  CYS799  TRP800  GLU811  SER814 

> <Gold.Protein.RotatedAtoms>
  150.6977  134.4296  159.5242 H   0  0  0  0  0  0  0  0  0  0  0  0  # atno 6907 bound_to 6896
  152.2025  134.8572  160.0515 H   0  0  0  0  0  0  0  0  0  0  0  0  # atno 6908 bound_to 6896
  151.9487  133.3624  159.4029 H   0  0  0  0  0  0  0  0  0  0  0  0  # atno 6909 bound_to 6896
  146.2118  140.3189  142.8389 H   0  0  0  0  0  0  0  0  0  0  0  0  # atno 7974 bound_to 7965
  156.2313  140.1863  156.7235 H   0  0  0  0  0  0  0  0  0  0  0  0  # atno 8008 bound_to 7997
  154.6027  140.0633  156.9417 H   0  0  0  0  0  0  0  0  0  0  0  0  # atno 8009 bound_to 7997
  155.2147  140.3302  155.4326 H   0  0  0  0  0  0  0  0  0  0  0  0  # atno 8010 bound_to 7997
  140.6197  143.8231  150.7160 H   0  0  0  0  0  0  0  0  0  0  0  0  # atno 10167 bound_to 10162
  157.2771  130.7237  149.6536 H   0  0  0  0  0  0  0  0  0  0  0  0  # atno 10718 bound_to 10713
  154.6068  135.5498  153.7432 H   0  0  0  0  0  0  0  0  0  0  0  0  # atno 10763 bound_to 10752
  153.0178  135.6380  154.1635 H   0  0  0  0  0  0  0  0  0  0  0  0  # atno 10764 bound_to 10752
  154.1574  135.2899  155.3098 H   0  0  0  0  0  0  0  0  0  0  0  0  # atno 10765 bound_to 10752
  140.6544  134.4416  157.5235 H   0  0  0  0  0  0  0  0  0  0  0  0  # atno 11005 bound_to 11000
  144.8934  140.7552  143.5912 LP  0  0  0  0  0  0  0  0  0  0  0  0  # atno 17320 bound_to 7965
  145.3112  139.1818  143.4637 LP  0  0  0  0  0  0  0  0  0  0  0  0  # atno 17321 bound_to 7965
  140.1819  143.4108  152.1927 LP  0  0  0  0  0  0  0  0  0  0  0  0  # atno 17342 bound_to 10162
  139.5428  144.7272  151.4679 LP  0  0  0  0  0  0  0  0  0  0  0  0  # atno 17343 bound_to 10162
  155.9664  130.4349  150.5071 LP  0  0  0  0  0  0  0  0  0  0  0  0  # atno 17370 bound_to 10713
  157.3007  131.0644  151.2070 LP  0  0  0  0  0  0  0  0  0  0  0  0  # atno 17371 bound_to 10713
  139.9035  134.8503  156.1800 LP  0  0  0  0  0  0  0  0  0  0  0  0  # atno 17394 bound_to 11000
  141.0513  133.6887  156.1777 LP  0  0  0  0  0  0  0  0  0  0  0  0  # atno 17395 bound_to 11000

$$$$
