AV-unprocessed.smi:735|AV-procd|sdf|3534|dock6
  -GOLD-   22720 0523D 1   1.00000     0.00000
 Structure written by MMmdl.
 16 16  0  0  0  0  0  0  0  0  3 V2000
  151.7204  136.4919  155.5578 O   0  0  0  0  0  0  0  0  0  0  0  0
  151.5086  137.5846  156.1308 C   0  0  0  0  0  0  0  0  0  0  0  0
  151.2261  137.7062  157.3448 O   0  5  0  0  0  0  0  0  0  0  0  0
  151.6790  138.8597  155.2851 C   0  0  0  0  0  0  0  0  0  0  0  0
  152.9252  138.8321  154.8056 F   0  0  0  0  0  0  0  0  0  0  0  0
  150.8637  138.7876  154.2293 F   0  0  0  0  0  0  0  0  0  0  0  0
  151.4642  140.1532  156.0851 C   0  0  0  0  0  0  0  0  0  0  0  0
  150.6019  141.1082  155.6671 C   0  0  0  0  0  0  0  0  0  0  0  0
  150.3642  142.2659  156.4095 N   0  0  0  0  0  0  0  0  0  0  0  0
  150.9669  142.4824  157.5969 C   0  0  0  0  0  0  0  0  0  0  0  0
  150.6923  143.5220  158.1925 O   0  0  0  0  0  0  0  0  0  0  0  0
  151.8395  141.5379  158.0608 N   0  5  0  0  0  0  0  0  0  0  0  0
  152.1387  140.3906  157.3766 C   0  0  0  0  0  0  0  0  0  0  0  0
  152.9589  139.5828  157.8109 O   0  0  0  0  0  0  0  0  0  0  0  0
  149.7165  142.9455  156.0386 H   0  0  0  0  0  0  0  0  0  0  0  0
  150.0332  141.0523  154.7509 H   0  0  0  0  0  0  0  0  0  0  0  0
  1  2  2  0  0  0  0
  2  3  1  0  0  0  0
  2  4  1  0  0  0  0
  4  5  1  0  0  0  0
  4  6  1  0  0  0  0
  4  7  1  0  0  0  0
  7 13  1  0  0  0  0
  7  8  2  0  0  0  0
  8  9  1  0  0  0  0
  8 16  1  0  0  0  0
  9 15  1  0  0  0  0
  9 10  1  0  0  0  0
 10 11  2  0  0  0  0
 10 12  1  0  0  0  0
 12 13  1  0  0  0  0
 13 14  2  0  0  0  0
M  CHG  1   3  -1
M  CHG  1  12  -1
M  END
> <s_m_source_file>
AV-unprocessed.smi

> <i_m_source_file_index>
735

> <i_lp_mmshare_version>
43012

> <i_f3d_flags>
0

> <s_epik_input>
Tz1DKFtPSF0pQyhGKShGKWMxW2NIXVtuSF1jKD1PKVtuSF1jMT1P

> <s_epik_cmdline>
J2VwaWtfcHl0aG9uJywgJy1waCcsICc3LjAnLCAnLXRuJywgJzgnLCAnLW1hJywgJzIwMCcsICctbWV0YWxfYmluZGluZycsICctaW1hZScsICc8aW5maWxlLm1hZT4nLCAnLW9tYWUnLCAnPG91dGZpbGUubWFlPic=

> <r_lp_tautomer_probability>
0.999514

> <r_epik_Ionization_Penalty>
1.58373

> <r_epik_Ionization_Penalty_Charging>
0.000433443

> <r_epik_Ionization_Penalty_Neutral>
1.5833

> <r_epik_State_Penalty>
2.35383

> <r_epik_Charging_Adjusted_Penalty>
2.35426

> <i_epik_Tot_Q>
-2

> <i_epik_Tot_abs_Q>
2

> <r_epik_Metal_State_Penalty>
1.75831

> <b_epik_Metal_Only>
1

> <s_lp_Force_Field>
OPLS_2005

> <r_lp_Energy>
21.8504

> <b_lp_Chiralities_Consistent>
1

> <s_lp_Variant>
AV-unprocessed.smi:735-3

> <Gold.Version>
5.8.1

> <Gold.Id.Protein>
6NUR|6NUR_protein|mol2

> <Gold.PLP.Fitness>
35.4539

> <Gold.PLP.PLP>
-24.0410

> <Gold.PLP.part.hbond>
-3.0000

> <Gold.PLP.part.metal>
0.0000

> <Gold.PLP.part.buried>
-3.2616

> <Gold.PLP.part.nonpolar>
-17.4489

> <Gold.PLP.part.repulsive>
0.3191

> <Gold.PLP.ligand.clash>
0.2744

> <Gold.PLP.ligand.torsion>
0.1942

> <Gold.PLP.Chemscore.Hbond>
4.0000

> <Gold.PLP.Chemscore.CHOScore>
0.0000

> <Gold.PLP.Chemscore.Metal>
0.0000

> <Gold.Chemscore.Hbonds>
donor molecule, donor type, donor heavy atom, donor atom, acceptor molecule, acceptor atom, score
      L1  H     9    15       P1  8028  1.00
      P1  H  7997  8008       L1    14  1.00
      P1  H 10752 10763       L1     1  2.00

> <Gold.PLP.Chemscore.Internal.Correction>
0.0756

> <Gold.Rescore>
     Score         DG    S(hbond)    S(metal)    S(lipo)     H(rot)  DE(clash)    DE(int)     intcor
      8.82     -13.11       2.92        0.00      21.41       1.81       0.04       4.26       ----

> <Gold.Chemscore.Fitness>
8.8193

> <Gold.Chemscore.DG>
-13.1128

> <Gold.Chemscore.ZeroCoef>
-5.4800

> <Gold.Chemscore.Hbond>
2.9199

> <Gold.Chemscore.Metal>
0.0000

> <Gold.Chemscore.Lipo>
21.4094

> <Gold.Chemscore.Internal_Hbond>
0.0000

> <Gold.Chemscore.DEClash>
0.0358

> <Gold.Chemscore.DEInternal>
4.2577

> <Gold.Chemscore.Rot>
1.8064

> <Gold.Chemscore.Internal.Correction>
   9.000000E+99

> <Gold.Chemscore.Hbonds>
donor molecule, donor type, donor heavy atom, donor atom, acceptor molecule, acceptor atom, score
      L1  H     9    15       P1  8028  0.96
      P1  H  7997  8008       L1    14  0.40
      P1  H 10752 10763       L1     1  1.00

> <Gold.Chemscore.Hbond.Weighted>
-9.7523

> <Gold.Chemscore.Metal.Weighted>
-0.0000

> <Gold.Chemscore.Lipo.Weighted>
-2.5049

> <Gold.Chemscore.Internal_Hbond.Weighted>
0.0000

> <Gold.Chemscore.DEClash.Weighted>
0.0358

> <Gold.Chemscore.DEInternal.Weighted>
4.2577

> <Gold.Chemscore.Rot.Weighted>
4.6244

> <Gold.Chemscore.Internal.Correction.Weighted>
   9.000000E+99

> <Gold.Protein.RotatedTorsions>
[ 6907 6896 6895 6894 ] final  124.50 input  -60.11 | X-H torsion
[ 7974 7965 7964 7962 ] final  129.65 input  175.53 | X-H torsion
[ 8008 7997 7996 7995 ] final  -79.46 input   59.86 | X-H torsion
[ 10167 10162 10161 10158 ] final -120.41 input  -65.29 | X-H torsion
[ 10718 10713 10712 10709 ] final   56.37 input   66.30 | X-H torsion
[ 10763 10752 10751 10750 ] final   64.82 input  -60.55 | X-H torsion
[ 11005 11000 10999 10996 ] final   90.08 input  -57.11 | X-H torsion

> <Gold.Protein.ActiveResidues>
 VAL166  LYS551  ARG553  GLY616  TRP617  ASP618  TYR619  PRO620  LYS621  CYS622 
 ASP623  PHE694  ASN695  SER759  ASP760  ASP761  ALA762  ILE779  LEU786  VAL792 
 PHE793  MET794  SER795  GLU796  ALA797  LYS798  CYS799  TRP800  GLU811  SER814 

> <Gold.Protein.RotatedAtoms>
  152.4073  133.6908  159.6366 H   0  0  0  0  0  0  0  0  0  0  0  0  # atno 6907 bound_to 6896
  150.7956  133.8687  159.3261 H   0  0  0  0  0  0  0  0  0  0  0  0  # atno 6908 bound_to 6896
  151.6438  135.1011  160.0198 H   0  0  0  0  0  0  0  0  0  0  0  0  # atno 6909 bound_to 6896
  145.0263  139.4086  143.5172 H   0  0  0  0  0  0  0  0  0  0  0  0  # atno 7974 bound_to 7965
  154.5787  140.0678  156.9072 H   0  0  0  0  0  0  0  0  0  0  0  0  # atno 8008 bound_to 7997
  155.2501  140.3351  155.4265 H   0  0  0  0  0  0  0  0  0  0  0  0  # atno 8009 bound_to 7997
  156.2173  140.1784  156.7543 H   0  0  0  0  0  0  0  0  0  0  0  0  # atno 8010 bound_to 7997
  140.0362  143.5199  152.2153 H   0  0  0  0  0  0  0  0  0  0  0  0  # atno 10167 bound_to 10162
  157.5425  130.8707  149.8843 H   0  0  0  0  0  0  0  0  0  0  0  0  # atno 10718 bound_to 10713
  153.0071  135.5379  154.6570 H   0  0  0  0  0  0  0  0  0  0  0  0  # atno 10763 bound_to 10752
  154.5788  135.2848  155.0755 H   0  0  0  0  0  0  0  0  0  0  0  0  # atno 10764 bound_to 10752
  154.1892  135.6503  153.5108 H   0  0  0  0  0  0  0  0  0  0  0  0  # atno 10765 bound_to 10752
  139.8863  134.8591  156.3233 H   0  0  0  0  0  0  0  0  0  0  0  0  # atno 11005 bound_to 11000
  146.3492  139.9789  142.8698 LP  0  0  0  0  0  0  0  0  0  0  0  0  # atno 17320 bound_to 7965
  145.1829  140.9775  143.4256 LP  0  0  0  0  0  0  0  0  0  0  0  0  # atno 17321 bound_to 7965
  139.6044  144.7592  151.3097 LP  0  0  0  0  0  0  0  0  0  0  0  0  # atno 17342 bound_to 10162
  140.7280  143.6946  150.7894 LP  0  0  0  0  0  0  0  0  0  0  0  0  # atno 17343 bound_to 10162
  156.0508  130.3718  150.1205 LP  0  0  0  0  0  0  0  0  0  0  0  0  # atno 17370 bound_to 10713
  156.9383  130.9736  151.3520 LP  0  0  0  0  0  0  0  0  0  0  0  0  # atno 17371 bound_to 10713
  140.9772  133.7290  156.0619 LP  0  0  0  0  0  0  0  0  0  0  0  0  # atno 17394 bound_to 11000
  140.7796  134.3740  157.5490 LP  0  0  0  0  0  0  0  0  0  0  0  0  # atno 17395 bound_to 11000

$$$$
