AV-unprocessed.smi:21|AV-procd|sdf|154|dock1
  -GOLD-   2262015383D 1   1.00000     0.00000
 Structure written by MMmdl.
 61 64  0  0  0  0  0  0  0  0  1 V2000
  150.4405  145.2748  160.1452 C   0  0  0  0  0  0  0  0  0  0  0  0
  151.5658  145.6747  159.3795 O   0  0  0  0  0  0  0  0  0  0  0  0
  152.2906  144.5833  158.8311 C   0  0  2  0  0  0  0  0  0  0  0  0
  151.4779  143.7761  157.8016 C   0  0  0  0  0  0  0  0  0  0  0  0
  151.4081  142.3563  158.3872 C   0  0  1  0  0  0  0  0  0  0  0  0
  151.3399  141.2477  157.3132 C   0  0  0  0  0  0  0  0  0  0  0  0
  150.0185  140.6286  157.2090 N   0  0  0  0  0  0  0  0  0  0  0  0
  149.8130  139.3402  157.8689 C   0  0  0  0  0  0  0  0  0  0  0  0
  149.1415  141.0191  156.2367 C   0  0  0  0  0  0  0  0  0  0  0  0
  149.3624  140.5954  154.9619 N   0  0  0  0  0  0  0  0  0  0  0  0
  148.5489  140.9520  153.9654 C   0  0  0  0  0  0  0  0  0  0  0  0
  147.4597  141.7173  154.0141 N   0  0  0  0  0  0  0  0  0  0  0  0
  147.2171  142.1446  155.2850 C   0  0  0  0  0  0  0  0  0  0  0  0
  147.9934  141.8472  156.4445 C   0  0  0  0  0  0  0  0  0  0  0  0
  147.4118  142.4604  157.5510 N   0  0  0  0  0  0  0  0  0  0  0  0
  146.3682  143.0814  157.0768 C   0  0  0  0  0  0  0  0  0  0  0  0
  146.1735  142.9401  155.7242 N   0  0  0  0  0  0  0  0  0  0  0  0
  145.0940  143.5148  154.9416 C   0  0  0  0  0  0  0  0  0  0  0  0
  143.7310  143.5532  155.6820 C   0  0  2  0  0  0  0  0  0  0  0  0
  143.0305  142.1700  155.7062 C   0  0  0  0  0  0  0  0  0  0  0  0
  142.4410  141.8568  154.4606 O   0  0  0  0  0  0  0  0  0  0  0  0
  142.8067  144.6313  155.0585 C   0  0  2  0  0  0  0  0  0  0  0  0
  143.3949  146.0318  155.0056 C   0  0  0  0  0  0  0  0  0  0  0  0
  142.1532  146.8930  154.8196 C   0  0  0  0  0  0  0  0  0  0  0  0
  141.1438  146.2521  155.5869 O   0  0  0  0  0  0  0  0  0  0  0  0
  141.5111  144.8983  155.8390 C   0  0  0  0  0  0  0  0  0  0  0  0
  152.5519  142.2624  159.2798 N   0  0  0  0  0  0  0  0  0  0  0  0
  152.4581  141.1711  160.2406 C   0  0  0  0  0  0  0  0  0  0  0  0
  152.5911  143.5583  159.9274 C   0  0  0  0  0  0  0  0  0  0  0  0
  153.2306  144.9206  158.3904 H   0  0  0  0  0  0  0  0  0  0  0  0
  150.5050  142.3080  158.9980 H   0  0  0  0  0  0  0  0  0  0  0  0
  149.9299  146.1569  160.5305 H   0  0  0  0  0  0  0  0  0  0  0  0
  150.7297  144.6577  160.9964 H   0  0  0  0  0  0  0  0  0  0  0  0
  149.7296  144.7159  159.5354 H   0  0  0  0  0  0  0  0  0  0  0  0
  150.4774  144.1791  157.6407 H   0  0  0  0  0  0  0  0  0  0  0  0
  151.9960  143.7828  156.8419 H   0  0  0  0  0  0  0  0  0  0  0  0
  151.6095  141.6753  156.3468 H   0  0  0  0  0  0  0  0  0  0  0  0
  152.0878  140.4768  157.4849 H   0  0  0  0  0  0  0  0  0  0  0  0
  148.8165  139.2869  158.3090 H   0  0  0  0  0  0  0  0  0  0  0  0
  150.5335  139.1875  158.6725 H   0  0  0  0  0  0  0  0  0  0  0  0
  149.9245  138.5195  157.1594 H   0  0  0  0  0  0  0  0  0  0  0  0
  148.8096  140.5703  152.9894 H   0  0  0  0  0  0  0  0  0  0  0  0
  145.7030  143.6558  157.7050 H   0  0  0  0  0  0  0  0  0  0  0  0
  145.4054  144.5200  154.6579 H   0  0  0  0  0  0  0  0  0  0  0  0
  144.9996  142.9508  154.0130 H   0  0  0  0  0  0  0  0  0  0  0  0
  143.9196  143.8513  156.7149 H   0  0  0  0  0  0  0  0  0  0  0  0
  143.7376  141.3696  155.9186 H   0  0  0  0  0  0  0  0  0  0  0  0
  142.2737  142.1321  156.4904 H   0  0  0  0  0  0  0  0  0  0  0  0
  143.1042  141.4872  153.8976 H   0  0  0  0  0  0  0  0  0  0  0  0
  142.5434  144.3355  154.0414 H   0  0  0  0  0  0  0  0  0  0  0  0
  143.8841  146.2790  155.9490 H   0  0  0  0  0  0  0  0  0  0  0  0
  144.1157  146.1681  154.1989 H   0  0  0  0  0  0  0  0  0  0  0  0
  142.3050  147.9251  155.1367 H   0  0  0  0  0  0  0  0  0  0  0  0
  141.8473  146.8996  153.7727 H   0  0  0  0  0  0  0  0  0  0  0  0
  140.7067  144.2234  155.5464 H   0  0  0  0  0  0  0  0  0  0  0  0
  141.6701  144.7855  156.9122 H   0  0  0  0  0  0  0  0  0  0  0  0
  153.3107  141.1848  160.9203 H   0  0  0  0  0  0  0  0  0  0  0  0
  152.4555  140.2047  159.7369 H   0  0  0  0  0  0  0  0  0  0  0  0
  151.5480  141.2457  160.8374 H   0  0  0  0  0  0  0  0  0  0  0  0
  153.5507  143.7386  160.4129 H   0  0  0  0  0  0  0  0  0  0  0  0
  151.8166  143.6107  160.6949 H   0  0  0  0  0  0  0  0  0  0  0  0
  1  2  1  0  0  0  0
  1 32  1  0  0  0  0
  1 33  1  0  0  0  0
  1 34  1  0  0  0  0
  2  3  1  0  0  0  0
  3 30  1  0  0  0  0
  3 29  1  0  0  0  0
  3  4  1  0  0  0  0
  4  5  1  0  0  0  0
  4 35  1  0  0  0  0
  4 36  1  0  0  0  0
  5 31  1  0  0  0  0
  5  6  1  0  0  0  0
  5 27  1  0  0  0  0
  6  7  1  0  0  0  0
  6 37  1  0  0  0  0
  6 38  1  0  0  0  0
  7  8  1  0  0  0  0
  7  9  1  0  0  0  0
  8 39  1  0  0  0  0
  8 40  1  0  0  0  0
  8 41  1  0  0  0  0
  9 14  1  0  0  0  0
  9 10  2  0  0  0  0
 10 11  1  0  0  0  0
 11 12  2  0  0  0  0
 11 42  1  0  0  0  0
 12 13  1  0  0  0  0
 13 17  1  0  0  0  0
 13 14  2  0  0  0  0
 14 15  1  0  0  0  0
 15 16  2  0  0  0  0
 16 17  1  0  0  0  0
 16 43  1  0  0  0  0
 17 18  1  0  0  0  0
 18 19  1  0  0  0  0
 18 44  1  0  0  0  0
 18 45  1  0  0  0  0
 19 20  1  0  0  0  0
 19 22  1  0  0  0  0
 19 46  1  0  0  0  0
 20 21  1  0  0  0  0
 20 47  1  0  0  0  0
 20 48  1  0  0  0  0
 21 49  1  0  0  0  0
 22 26  1  0  0  0  0
 22 23  1  0  0  0  0
 22 50  1  0  0  0  0
 23 24  1  0  0  0  0
 23 51  1  0  0  0  0
 23 52  1  0  0  0  0
 24 25  1  0  0  0  0
 24 53  1  0  0  0  0
 24 54  1  0  0  0  0
 25 26  1  0  0  0  0
 26 55  1  0  0  0  0
 26 56  1  0  0  0  0
 27 28  1  0  0  0  0
 27 29  1  0  0  0  0
 28 57  1  0  0  0  0
 28 58  1  0  0  0  0
 28 59  1  0  0  0  0
 29 60  1  0  0  0  0
 29 61  1  0  0  0  0
M  END
> <s_m_source_file>
AV-unprocessed.smi

> <i_m_source_file_index>
21

> <i_lp_mmshare_version>
43012

> <i_f3d_flags>
0

> <s_epik_input>
W0NIM11PW0NASF0xW0NIMl1bQ0BIXShOKFtDSDNdKVtDSDJdMSlbQ0gyXU4oW0NIM10pYyhuW2NIXW4yKWMoYzIzKW5bY0hdbjNbQ0gyXVtDQEhdKFtDSDJdW09IXSlbQ0BASF00W0NIMl1bQ0gyXU9bQ0gyXTQ=

> <s_epik_cmdline>
J2VwaWtfcHl0aG9uJywgJy1waCcsICc3LjAnLCAnLXRuJywgJzgnLCAnLW1hJywgJzIwMCcsICctbWV0YWxfYmluZGluZycsICctaW1hZScsICc8aW5maWxlLm1hZT4nLCAnLW9tYWUnLCAnPG91dGZpbGUubWFlPic=

> <r_lp_tautomer_probability>
1

> <r_epik_Ionization_Penalty>
2.17574

> <r_epik_Ionization_Penalty_Charging>
0

> <r_epik_Ionization_Penalty_Neutral>
2.17574

> <r_epik_State_Penalty>
2.31336

> <r_epik_Charging_Adjusted_Penalty>
2.31336

> <i_epik_Tot_Q>
0

> <i_epik_Tot_abs_Q>
0

> <r_epik_Metal_State_Penalty>
2.31025

> <b_epik_Metal_Only>
0

> <s_lp_Force_Field>
OPLS_2005

> <r_lp_Energy>
69.0307

> <b_lp_Chiralities_Consistent>
1

> <s_lp_Variant>
AV-unprocessed.smi:21-34

> <Gold.Version>
5.8.1

> <Gold.Id.Protein>
6NUR|6NUR_protein|mol2

> <Gold.PLP.Fitness>
47.4147

> <Gold.PLP.PLP>
-46.2445

> <Gold.PLP.part.hbond>
-3.0000

> <Gold.PLP.part.metal>
0.0000

> <Gold.PLP.part.buried>
-7.3158

> <Gold.PLP.part.nonpolar>
-36.9580

> <Gold.PLP.part.repulsive>
0.5373

> <Gold.PLP.ligand.clash>
0.0000

> <Gold.PLP.ligand.torsion>
3.0902

> <Gold.PLP.Chemscore.Hbond>
1.0000

> <Gold.PLP.Chemscore.CHOScore>
1.0000

> <Gold.PLP.Chemscore.Metal>
0.0000

> <Gold.Chemscore.Hbonds>
donor molecule, donor type, donor heavy atom, donor atom, acceptor molecule, acceptor atom, score
      L1  H    21    49       P1 10175  0.40
      L1  C    11    42       P1  7957  1.00

> <Gold.PLP.Chemscore.Internal.Correction>
1.3507

> <Gold.Rescore>
     Score         DG    S(hbond)    S(metal)    S(lipo)     H(rot)  DE(clash)    DE(int)     intcor
      9.69     -12.49       0.77        0.00     103.53       3.00       0.01       2.80       ----

> <Gold.Chemscore.Fitness>
9.6891

> <Gold.Chemscore.DG>
-12.4909

> <Gold.Chemscore.ZeroCoef>
-5.4800

> <Gold.Chemscore.Hbond>
0.7741

> <Gold.Chemscore.Metal>
0.0000

> <Gold.Chemscore.Lipo>
103.5346

> <Gold.Chemscore.Internal_Hbond>
0.0000

> <Gold.Chemscore.DEClash>
0.0063

> <Gold.Chemscore.DEInternal>
2.7955

> <Gold.Chemscore.Rot>
3.0031

> <Gold.Chemscore.Internal.Correction>
   9.000000E+99

> <Gold.Chemscore.Hbonds>
donor molecule, donor type, donor heavy atom, donor atom, acceptor molecule, acceptor atom, score
      L1  H    21    49       P1 10175  0.01

> <Gold.Chemscore.Hbond.Weighted>
-2.5854

> <Gold.Chemscore.Metal.Weighted>
-0.0000

> <Gold.Chemscore.Lipo.Weighted>
-12.1135

> <Gold.Chemscore.Internal_Hbond.Weighted>
0.0000

> <Gold.Chemscore.DEClash.Weighted>
0.0063

> <Gold.Chemscore.DEInternal.Weighted>
2.7955

> <Gold.Chemscore.Rot.Weighted>
7.6880

> <Gold.Chemscore.Internal.Correction.Weighted>
   9.000000E+99

> <Gold.Protein.RotatedTorsions>
[ 6907 6896 6895 6894 ] final -166.58 input  -60.11 | X-H torsion
[ 7974 7965 7964 7962 ] final -163.11 input  175.53 | X-H torsion
[ 8008 7997 7996 7995 ] final   61.58 input   59.86 | X-H torsion
[ 10167 10162 10161 10158 ] final  106.45 input  -65.29 | X-H torsion
[ 10718 10713 10712 10709 ] final -105.34 input   66.30 | X-H torsion
[ 10763 10752 10751 10750 ] final -112.69 input  -60.55 | X-H torsion
[ 11005 11000 10999 10996 ] final  100.85 input  -57.11 | X-H torsion

> <Gold.Protein.ActiveResidues>
 VAL166  LYS551  ARG553  GLY616  TRP617  ASP618  TYR619  PRO620  LYS621  CYS622 
 ASP623  PHE694  ASN695  SER759  ASP760  ASP761  ALA762  ILE779  LEU786  VAL792 
 PHE793  MET794  SER795  GLU796  ALA797  LYS798  CYS799  TRP800  GLU811  SER814 

> <Gold.Protein.RotatedAtoms>
  151.4459  133.3630  159.2788 H   0  0  0  0  0  0  0  0  0  0  0  0  # atno 6907 bound_to 6896
  150.9125  134.8543  159.7445 H   0  0  0  0  0  0  0  0  0  0  0  0  # atno 6908 bound_to 6896
  152.4939  134.4390  159.9589 H   0  0  0  0  0  0  0  0  0  0  0  0  # atno 6909 bound_to 6896
  144.7336  140.3155  143.6180 H   0  0  0  0  0  0  0  0  0  0  0  0  # atno 7974 bound_to 7965
  155.6006  140.3494  155.4592 H   0  0  0  0  0  0  0  0  0  0  0  0  # atno 8008 bound_to 7997
  156.0231  140.1258  157.0361 H   0  0  0  0  0  0  0  0  0  0  0  0  # atno 8009 bound_to 7997
  154.4323  140.1058  156.5979 H   0  0  0  0  0  0  0  0  0  0  0  0  # atno 8010 bound_to 7997
  139.7008  144.7094  151.1189 H   0  0  0  0  0  0  0  0  0  0  0  0  # atno 10167 bound_to 10162
  156.0342  130.5559  150.7525 H   0  0  0  0  0  0  0  0  0  0  0  0  # atno 10718 bound_to 10713
  154.8361  135.4481  154.1233 H   0  0  0  0  0  0  0  0  0  0  0  0  # atno 10763 bound_to 10752
  153.2463  135.6922  153.7734 H   0  0  0  0  0  0  0  0  0  0  0  0  # atno 10764 bound_to 10752
  153.7063  135.3364  155.3212 H   0  0  0  0  0  0  0  0  0  0  0  0  # atno 10765 bound_to 10752
  139.8772  134.9158  156.4818 H   0  0  0  0  0  0  0  0  0  0  0  0  # atno 11005 bound_to 11000
  145.7622  139.1828  143.2260 LP  0  0  0  0  0  0  0  0  0  0  0  0  # atno 17320 bound_to 7965
  146.0977  140.7581  142.9564 LP  0  0  0  0  0  0  0  0  0  0  0  0  # atno 17321 bound_to 7965
  140.7709  143.5427  150.9295 LP  0  0  0  0  0  0  0  0  0  0  0  0  # atno 17342 bound_to 10162
  139.9108  143.6722  152.3115 LP  0  0  0  0  0  0  0  0  0  0  0  0  # atno 17343 bound_to 10162
  157.5065  131.0922  151.0250 LP  0  0  0  0  0  0  0  0  0  0  0  0  # atno 17370 bound_to 10713
  157.0617  130.5828  149.5387 LP  0  0  0  0  0  0  0  0  0  0  0  0  # atno 17371 bound_to 10713
  140.8722  133.7980  155.9376 LP  0  0  0  0  0  0  0  0  0  0  0  0  # atno 17394 bound_to 11000
  140.8941  134.2459  157.5078 LP  0  0  0  0  0  0  0  0  0  0  0  0  # atno 17395 bound_to 11000

$$$$
