AV-unprocessed.smi:232|AV-procd|sdf|1768|dock5
  -GOLD-   2262020303D 1   1.00000     0.00000
 Structure written by MMmdl.
 52 55  0  0  0  0  0  0  0  0  1 V2000
  151.2968  145.0647  158.9483 C   0  0  0  0  0  0  0  0  0  0  0  0
  151.1220  143.5937  158.5515 C   0  0  0  0  0  0  0  0  0  0  0  0
  152.3944  142.7493  158.7780 C   0  0  1  0  0  0  0  0  0  0  0  0
  153.0916  143.0235  160.1192 C   0  0  0  0  0  0  0  0  0  0  0  0
  153.7079  141.6796  160.5263 C   0  0  0  0  0  0  0  0  0  0  0  0
  153.3348  140.7235  159.3881 C   0  0  1  0  0  0  0  0  0  0  0  0
  153.1221  139.2727  159.8497 C   0  0  0  0  0  0  0  0  0  0  0  0
  152.1436  141.3124  158.7861 N   0  0  0  0  0  0  0  0  0  0  0  0
  151.7530  140.7987  157.5955 C   0  0  0  0  0  0  0  0  0  0  0  0
  152.6083  140.0478  156.8513 N   0  0  0  0  0  0  0  0  0  0  0  0
  152.2163  139.5650  155.6679 C   0  0  0  0  0  0  0  0  0  0  0  0
  151.0409  139.7147  155.0520 N   0  0  0  0  0  0  0  0  0  0  0  0
  150.1850  140.4707  155.7982 C   0  0  0  0  0  0  0  0  0  0  0  0
  150.4578  141.0444  157.0705 C   0  0  0  0  0  0  0  0  0  0  0  0
  149.3508  141.7497  157.5252 N   0  0  0  0  0  0  0  0  0  0  0  0
  148.4715  141.6048  156.5710 C   0  0  0  0  0  0  0  0  0  0  0  0
  148.8913  140.8540  155.4959 N   0  0  0  0  0  0  0  0  0  0  0  0
  148.1300  140.5418  154.3000 C   0  0  0  0  0  0  0  0  0  0  0  0
  148.0691  139.0264  154.0271 C   0  0  2  0  0  0  0  0  0  0  0  0
  149.2039  138.6075  153.2920 O   0  0  0  0  0  0  0  0  0  0  0  0
  146.7692  138.5977  153.3168 C   0  0  2  0  0  0  0  0  0  0  0  0
  146.3529  137.1333  153.4816 C   0  0  0  0  0  0  0  0  0  0  0  0
  145.4789  136.9367  152.2635 C   0  0  0  0  0  0  0  0  0  0  0  0
  146.2244  137.7539  151.2115 C   0  0  0  0  0  0  0  0  0  0  0  0
  146.8199  138.8419  151.9130 O   0  0  0  0  0  0  0  0  0  0  0  0
  150.3913  145.6326  158.7340 H   0  0  0  0  0  0  0  0  0  0  0  0
  152.1164  145.5253  158.3960 H   0  0  0  0  0  0  0  0  0  0  0  0
  151.5077  145.1692  160.0126 H   0  0  0  0  0  0  0  0  0  0  0  0
  150.2866  143.1616  159.1039 H   0  0  0  0  0  0  0  0  0  0  0  0
  150.8383  143.5620  157.4992 H   0  0  0  0  0  0  0  0  0  0  0  0
  153.1021  142.9605  157.9744 H   0  0  0  0  0  0  0  0  0  0  0  0
  153.8397  143.8113  160.0272 H   0  0  0  0  0  0  0  0  0  0  0  0
  152.3723  143.3371  160.8772 H   0  0  0  0  0  0  0  0  0  0  0  0
  154.7882  141.7409  160.6606 H   0  0  0  0  0  0  0  0  0  0  0  0
  153.2745  141.3506  161.4717 H   0  0  0  0  0  0  0  0  0  0  0  0
  154.1461  140.7430  158.6586 H   0  0  0  0  0  0  0  0  0  0  0  0
  154.0186  138.8836  160.3326 H   0  0  0  0  0  0  0  0  0  0  0  0
  152.8919  138.6176  159.0091 H   0  0  0  0  0  0  0  0  0  0  0  0
  152.3003  139.2003  160.5628 H   0  0  0  0  0  0  0  0  0  0  0  0
  152.9505  138.9768  155.1376 H   0  0  0  0  0  0  0  0  0  0  0  0
  147.4884  142.0498  156.6218 H   0  0  0  0  0  0  0  0  0  0  0  0
  147.1241  140.9452  154.4218 H   0  0  0  0  0  0  0  0  0  0  0  0
  148.5776  141.0670  153.4552 H   0  0  0  0  0  0  0  0  0  0  0  0
  148.1109  138.5018  154.9826 H   0  0  0  0  0  0  0  0  0  0  0  0
  149.3461  139.2189  152.5856 H   0  0  0  0  0  0  0  0  0  0  0  0
  145.9539  139.2170  153.6949 H   0  0  0  0  0  0  0  0  0  0  0  0
  147.2090  136.4606  153.4268 H   0  0  0  0  0  0  0  0  0  0  0  0
  145.8296  136.9438  154.4193 H   0  0  0  0  0  0  0  0  0  0  0  0
  145.3587  135.8898  151.9841 H   0  0  0  0  0  0  0  0  0  0  0  0
  144.4894  137.3611  152.4389 H   0  0  0  0  0  0  0  0  0  0  0  0
  147.0185  137.1567  150.7618 H   0  0  0  0  0  0  0  0  0  0  0  0
  145.5697  138.1037  150.4132 H   0  0  0  0  0  0  0  0  0  0  0  0
  1  2  1  0  0  0  0
  1 26  1  0  0  0  0
  1 27  1  0  0  0  0
  1 28  1  0  0  0  0
  2  3  1  0  0  0  0
  2 29  1  0  0  0  0
  2 30  1  0  0  0  0
  3  8  1  0  0  0  0
  3  4  1  0  0  0  0
  3 31  1  0  0  0  0
  4  5  1  0  0  0  0
  4 32  1  0  0  0  0
  4 33  1  0  0  0  0
  5  6  1  0  0  0  0
  5 34  1  0  0  0  0
  5 35  1  0  0  0  0
  6  7  1  0  0  0  0
  6  8  1  0  0  0  0
  6 36  1  0  0  0  0
  7 37  1  0  0  0  0
  7 38  1  0  0  0  0
  7 39  1  0  0  0  0
  8  9  1  0  0  0  0
  9 14  1  0  0  0  0
  9 10  2  0  0  0  0
 10 11  1  0  0  0  0
 11 12  2  0  0  0  0
 11 40  1  0  0  0  0
 12 13  1  0  0  0  0
 13 17  1  0  0  0  0
 13 14  2  0  0  0  0
 14 15  1  0  0  0  0
 15 16  2  0  0  0  0
 16 17  1  0  0  0  0
 16 41  1  0  0  0  0
 17 18  1  0  0  0  0
 18 19  1  0  0  0  0
 18 42  1  0  0  0  0
 18 43  1  0  0  0  0
 19 20  1  0  0  0  0
 19 21  1  0  0  0  0
 19 44  1  0  0  0  0
 20 45  1  0  0  0  0
 21 25  1  0  0  0  0
 21 22  1  0  0  0  0
 21 46  1  0  0  0  0
 22 23  1  0  0  0  0
 22 47  1  0  0  0  0
 22 48  1  0  0  0  0
 23 24  1  0  0  0  0
 23 49  1  0  0  0  0
 23 50  1  0  0  0  0
 24 25  1  0  0  0  0
 24 51  1  0  0  0  0
 24 52  1  0  0  0  0
M  END
> <s_m_source_file>
AV-unprocessed.smi

> <i_m_source_file_index>
232

> <i_lp_mmshare_version>
43012

> <i_f3d_flags>
0

> <s_epik_input>
W0NIM11bQ0gyXVtDQEBIXTFbQ0gyXVtDSDJdW0NAQEhdKFtDSDNdKU4xYyhuW2NIXW4yKWMoYzIzKW5bY0hdbjNbQ0gyXVtDQEhdKFtPSF0pW0NAQEhdNFtDSDJdW0NIMl1bQ0gyXU80

> <s_epik_cmdline>
J2VwaWtfcHl0aG9uJywgJy1waCcsICc3LjAnLCAnLXRuJywgJzgnLCAnLW1hJywgJzIwMCcsICctbWV0YWxfYmluZGluZycsICctaW1hZScsICc8aW5maWxlLm1hZT4nLCAnLW9tYWUnLCAnPG91dGZpbGUubWFlPic=

> <r_lp_tautomer_probability>
1

> <r_epik_Ionization_Penalty>
0.00258048

> <r_epik_Ionization_Penalty_Charging>
0

> <r_epik_Ionization_Penalty_Neutral>
0.00258048

> <r_epik_State_Penalty>
0.00168551

> <r_epik_Charging_Adjusted_Penalty>
0.00168551

> <i_epik_Tot_Q>
0

> <i_epik_Tot_abs_Q>
0

> <r_epik_Metal_State_Penalty>
-0

> <b_epik_Metal_Only>
0

> <s_lp_Force_Field>
OPLS_2005

> <r_lp_Energy>
54.3711

> <b_lp_Chiralities_Consistent>
1

> <s_lp_Variant>
AV-unprocessed.smi:232-2

> <Gold.Version>
5.8.1

> <Gold.Id.Protein>
6NUR|6NUR_protein|mol2

> <Gold.PLP.Fitness>
52.9412

> <Gold.PLP.PLP>
-46.3137

> <Gold.PLP.part.hbond>
-3.7862

> <Gold.PLP.part.metal>
0.0000

> <Gold.PLP.part.buried>
-1.0090

> <Gold.PLP.part.nonpolar>
-42.4139

> <Gold.PLP.part.repulsive>
1.3362

> <Gold.PLP.ligand.clash>
0.0000

> <Gold.PLP.ligand.torsion>
1.2284

> <Gold.PLP.Chemscore.Hbond>
3.0000

> <Gold.PLP.Chemscore.CHOScore>
0.0000

> <Gold.PLP.Chemscore.Metal>
0.0000

> <Gold.Chemscore.Hbonds>
donor molecule, donor type, donor heavy atom, donor atom, acceptor molecule, acceptor atom, score
      L1  H    20    45       P1  7957  1.00
      P1  H  7989  7998       L1    12  0.95
      P1  H  7997  8008       L1    10  1.00

> <Gold.PLP.Chemscore.Internal.Correction>
0.0844

> <Gold.Rescore>
     Score         DG    S(hbond)    S(metal)    S(lipo)     H(rot)  DE(clash)    DE(int)     intcor
     13.47     -18.68       1.82        0.00     114.01       2.43       1.78       3.43       ----

> <Gold.Chemscore.Fitness>
13.4717

> <Gold.Chemscore.DG>
-18.6800

> <Gold.Chemscore.ZeroCoef>
-5.4800

> <Gold.Chemscore.Hbond>
1.8177

> <Gold.Chemscore.Metal>
0.0000

> <Gold.Chemscore.Lipo>
114.0132

> <Gold.Chemscore.Internal_Hbond>
0.0000

> <Gold.Chemscore.DEClash>
1.7784

> <Gold.Chemscore.DEInternal>
3.4300

> <Gold.Chemscore.Rot>
2.4260

> <Gold.Chemscore.Internal.Correction>
   9.000000E+99

> <Gold.Chemscore.Hbonds>
donor molecule, donor type, donor heavy atom, donor atom, acceptor molecule, acceptor atom, score
      L1  H    20    45       P1  7957  0.99
      P1  H  7989  7998       L1    12  0.12
      P1  H  7997  8008       L1    10  0.25

> <Gold.Chemscore.Hbond.Weighted>
-6.0712

> <Gold.Chemscore.Metal.Weighted>
-0.0000

> <Gold.Chemscore.Lipo.Weighted>
-13.3395

> <Gold.Chemscore.Internal_Hbond.Weighted>
0.0000

> <Gold.Chemscore.DEClash.Weighted>
1.7784

> <Gold.Chemscore.DEInternal.Weighted>
3.4300

> <Gold.Chemscore.Rot.Weighted>
6.2107

> <Gold.Chemscore.Internal.Correction.Weighted>
   9.000000E+99

> <Gold.Protein.RotatedTorsions>
[ 6907 6896 6895 6894 ] final -132.03 input  -60.11 | X-H torsion
[ 7974 7965 7964 7962 ] final -176.03 input  175.53 | X-H torsion
[ 8008 7997 7996 7995 ] final  -58.77 input   59.86 | X-H torsion
[ 10167 10162 10161 10158 ] final  -19.07 input  -65.29 | X-H torsion
[ 10718 10713 10712 10709 ] final  -16.11 input   66.30 | X-H torsion
[ 10763 10752 10751 10750 ] final   12.02 input  -60.55 | X-H torsion
[ 11005 11000 10999 10996 ] final  -68.56 input  -57.11 | X-H torsion

> <Gold.Protein.ActiveResidues>
 VAL166  LYS551  ARG553  GLY616  TRP617  ASP618  TYR619  PRO620  LYS621  CYS622 
 ASP623  PHE694  ASN695  SER759  ASP760  ASP761  ALA762  ILE779  LEU786  VAL792 
 PHE793  MET794  SER795  GLU796  ALA797  LYS798  CYS799  TRP800  GLU811  SER814 

> <Gold.Protein.RotatedAtoms>
  150.9577  133.6479  159.2759 H   0  0  0  0  0  0  0  0  0  0  0  0  # atno 6907 bound_to 6896
  151.3812  135.0939  159.9506 H   0  0  0  0  0  0  0  0  0  0  0  0  # atno 6908 bound_to 6896
  152.5135  133.9111  159.7543 H   0  0  0  0  0  0  0  0  0  0  0  0  # atno 6909 bound_to 6896
  144.7127  140.1232  143.6404 H   0  0  0  0  0  0  0  0  0  0  0  0  # atno 7974 bound_to 7965
  154.4323  140.1076  156.6010 H   0  0  0  0  0  0  0  0  0  0  0  0  # atno 8008 bound_to 7997
  155.5911  140.3492  155.4548 H   0  0  0  0  0  0  0  0  0  0  0  0  # atno 8009 bound_to 7997
  156.0245  140.1247  157.0312 H   0  0  0  0  0  0  0  0  0  0  0  0  # atno 8010 bound_to 7997
  140.7265  143.4854  151.0062 H   0  0  0  0  0  0  0  0  0  0  0  0  # atno 10167 bound_to 10162
  156.5922  130.4802  149.6275 H   0  0  0  0  0  0  0  0  0  0  0  0  # atno 10718 bound_to 10713
  153.1866  135.6836  153.8407 H   0  0  0  0  0  0  0  0  0  0  0  0  # atno 10763 bound_to 10752
  153.7721  135.3194  155.3354 H   0  0  0  0  0  0  0  0  0  0  0  0  # atno 10764 bound_to 10752
  154.8092  135.4728  154.0569 H   0  0  0  0  0  0  0  0  0  0  0  0  # atno 10765 bound_to 10752
  141.1535  133.6744  156.6465 H   0  0  0  0  0  0  0  0  0  0  0  0  # atno 11005 bound_to 11000
  145.9353  139.2633  143.1301 LP  0  0  0  0  0  0  0  0  0  0  0  0  # atno 17320 bound_to 7965
  145.9481  140.8930  143.0273 LP  0  0  0  0  0  0  0  0  0  0  0  0  # atno 17321 bound_to 7965
  139.8555  143.7382  152.3176 LP  0  0  0  0  0  0  0  0  0  0  0  0  # atno 17342 bound_to 10162
  139.7579  144.7515  151.0407 LP  0  0  0  0  0  0  0  0  0  0  0  0  # atno 17343 bound_to 10162
  156.2540  130.6924  151.1671 LP  0  0  0  0  0  0  0  0  0  0  0  0  # atno 17370 bound_to 10713
  157.7301  131.0619  150.5744 LP  0  0  0  0  0  0  0  0  0  0  0  0  # atno 17371 bound_to 10713
  140.3353  134.7895  157.4357 LP  0  0  0  0  0  0  0  0  0  0  0  0  # atno 17394 bound_to 11000
  140.0983  134.5507  155.8377 LP  0  0  0  0  0  0  0  0  0  0  0  0  # atno 17395 bound_to 11000

$$$$
