AV-unprocessed.smi:847|AV-procd|sdf|3937|dock6
  -GOLD-   22720 1403D 1   1.00000     0.00000
 Structure written by MMmdl.
 46 47  0  0  0  0  0  0  0  0  1 V2000
  152.0912  145.0597  158.8627 C   0  0  0  0  0  0  0  0  0  0  0  0
  151.4727  143.7998  158.6695 O   0  0  0  0  0  0  0  0  0  0  0  0
  151.3181  143.4757  157.2977 C   0  0  0  0  0  0  0  0  0  0  0  0
  151.1045  141.9655  157.1598 C   0  0  0  0  0  0  0  0  0  0  0  0
  150.8032  141.6652  155.8003 O   0  0  0  0  0  0  0  0  0  0  0  0
  150.0304  140.5554  155.5266 C   0  0  0  0  0  0  0  0  0  0  0  0
  149.0832  140.1414  156.4845 C   0  0  0  0  0  0  0  0  0  0  0  0
  148.2925  139.0090  156.2119 C   0  0  0  0  0  0  0  0  0  0  0  0
  148.4755  138.3234  154.9940 C   0  0  0  0  0  0  0  0  0  0  0  0
  147.6294  137.0995  154.6712 C   0  0  0  0  0  0  0  0  0  0  0  0
  148.4017  135.9168  154.3070 N   0  0  0  0  0  0  0  0  0  0  0  0
  148.7489  134.9311  155.1521 C   0  0  0  0  0  0  0  0  0  0  0  0
  148.4322  134.9311  156.3413 O   0  0  0  0  0  0  0  0  0  0  0  0
  149.5903  133.7620  154.5966 C   0  0  2  0  0  0  0  0  0  0  0  0
  148.6608  132.7842  153.8589 C   0  0  0  0  0  0  0  0  0  0  0  0
  149.3269  131.4284  153.9950 C   0  0  0  0  0  0  0  0  0  0  0  0
  150.1119  131.5052  155.3033 C   0  0  0  0  0  0  0  0  0  0  0  0
  150.3165  132.9297  155.5793 N   0  0  0  0  0  0  0  0  0  0  0  0
  151.1412  133.3856  156.5537 C   0  0  0  0  0  0  0  0  0  0  0  0
  151.3778  134.8934  156.6693 C   0  0  0  0  0  0  0  0  0  0  0  0
  151.7039  132.6420  157.3570 O   0  0  0  0  0  0  0  0  0  0  0  0
  149.4462  138.8204  154.0960 C   0  0  0  0  0  0  0  0  0  0  0  0
  150.2082  139.9054  154.3496 N   0  0  0  0  0  0  0  0  0  0  0  0
  150.3295  134.1593  153.8987 H   0  0  0  0  0  0  0  0  0  0  0  0
  152.2002  145.2547  159.9294 H   0  0  0  0  0  0  0  0  0  0  0  0
  151.4910  145.8630  158.4331 H   0  0  0  0  0  0  0  0  0  0  0  0
  153.0846  145.0852  158.4124 H   0  0  0  0  0  0  0  0  0  0  0  0
  150.4493  144.0023  156.9001 H   0  0  0  0  0  0  0  0  0  0  0  0
  152.1874  143.7938  156.7197 H   0  0  0  0  0  0  0  0  0  0  0  0
  151.9919  141.4283  157.4986 H   0  0  0  0  0  0  0  0  0  0  0  0
  150.2675  141.6639  157.7915 H   0  0  0  0  0  0  0  0  0  0  0  0
  148.9656  140.6826  157.4116 H   0  0  0  0  0  0  0  0  0  0  0  0
  147.5591  138.6726  156.9299 H   0  0  0  0  0  0  0  0  0  0  0  0
  146.9763  136.8658  155.5137 H   0  0  0  0  0  0  0  0  0  0  0  0
  146.9761  137.3474  153.8346 H   0  0  0  0  0  0  0  0  0  0  0  0
  148.6957  135.8410  153.3441 H   0  0  0  0  0  0  0  0  0  0  0  0
  147.6791  132.7378  154.3349 H   0  0  0  0  0  0  0  0  0  0  0  0
  148.5043  133.0648  152.8168 H   0  0  0  0  0  0  0  0  0  0  0  0
  148.6170  130.6009  153.9741 H   0  0  0  0  0  0  0  0  0  0  0  0
  150.0219  131.2884  153.1662 H   0  0  0  0  0  0  0  0  0  0  0  0
  149.5311  131.0655  156.1155 H   0  0  0  0  0  0  0  0  0  0  0  0
  151.0518  130.9578  155.2210 H   0  0  0  0  0  0  0  0  0  0  0  0
  151.7154  135.3092  155.7197 H   0  0  0  0  0  0  0  0  0  0  0  0
  152.1440  135.1053  157.4159 H   0  0  0  0  0  0  0  0  0  0  0  0
  150.4647  135.4054  156.9734 H   0  0  0  0  0  0  0  0  0  0  0  0
  149.6198  138.3406  153.1441 H   0  0  0  0  0  0  0  0  0  0  0  0
  1  2  1  0  0  0  0
  1 25  1  0  0  0  0
  1 26  1  0  0  0  0
  1 27  1  0  0  0  0
  2  3  1  0  0  0  0
  3  4  1  0  0  0  0
  3 28  1  0  0  0  0
  3 29  1  0  0  0  0
  4  5  1  0  0  0  0
  4 30  1  0  0  0  0
  4 31  1  0  0  0  0
  5  6  1  0  0  0  0
  6 23  1  0  0  0  0
  6  7  2  0  0  0  0
  7  8  1  0  0  0  0
  7 32  1  0  0  0  0
  8  9  2  0  0  0  0
  8 33  1  0  0  0  0
  9 10  1  0  0  0  0
  9 22  1  0  0  0  0
 10 11  1  0  0  0  0
 10 34  1  0  0  0  0
 10 35  1  0  0  0  0
 11 12  1  0  0  0  0
 11 36  1  0  0  0  0
 12 13  2  0  0  0  0
 12 14  1  0  0  0  0
 14 24  1  0  0  0  0
 14 18  1  0  0  0  0
 14 15  1  0  0  0  0
 15 16  1  0  0  0  0
 15 37  1  0  0  0  0
 15 38  1  0  0  0  0
 16 17  1  0  0  0  0
 16 39  1  0  0  0  0
 16 40  1  0  0  0  0
 17 18  1  0  0  0  0
 17 41  1  0  0  0  0
 17 42  1  0  0  0  0
 18 19  1  0  0  0  0
 19 20  1  0  0  0  0
 19 21  2  0  0  0  0
 20 43  1  0  0  0  0
 20 44  1  0  0  0  0
 20 45  1  0  0  0  0
 22 23  2  0  0  0  0
 22 46  1  0  0  0  0
M  END
> <s_m_source_file>
AV-unprocessed.smi

> <i_m_source_file_index>
847

> <i_lp_mmshare_version>
43012

> <i_f3d_flags>
0

> <s_epik_input>
W0NIM11PW0NIMl1bQ0gyXU9jMVtjSF1bY0hdYyhbY0hdbjEpW0NIMl1bTkhdQyg9TylbQ0BASF0yW0NIMl1bQ0gyXVtDSDJdTjJDKD1PKVtDSDNd

> <s_epik_cmdline>
J2VwaWtfcHl0aG9uJywgJy1waCcsICc3LjAnLCAnLXRuJywgJzgnLCAnLW1hJywgJzIwMCcsICctbWV0YWxfYmluZGluZycsICctaW1hZScsICc8aW5maWxlLm1hZT4nLCAnLW9tYWUnLCAnPG91dGZpbGUubWFlPic=

> <r_lp_tautomer_probability>
1

> <r_epik_Ionization_Penalty>
6.04138e-05

> <r_epik_Ionization_Penalty_Charging>
0

> <r_epik_Ionization_Penalty_Neutral>
6.04138e-05

> <r_epik_State_Penalty>
-0

> <r_epik_Charging_Adjusted_Penalty>
0

> <i_epik_Tot_Q>
0

> <i_epik_Tot_abs_Q>
0

> <r_epik_Metal_State_Penalty>
-0

> <b_epik_Metal_Only>
0

> <s_lp_Force_Field>
OPLS_2005

> <r_lp_Energy>
14.576

> <b_lp_Chiralities_Consistent>
1

> <s_lp_Variant>
AV-unprocessed.smi:847-1

> <Gold.Version>
5.8.1

> <Gold.Id.Protein>
6NUR|6NUR_protein|mol2

> <Gold.PLP.Fitness>
44.6661

> <Gold.PLP.PLP>
-35.0400

> <Gold.PLP.part.hbond>
-3.3130

> <Gold.PLP.part.metal>
0.0000

> <Gold.PLP.part.buried>
-3.1317

> <Gold.PLP.part.nonpolar>
-29.4571

> <Gold.PLP.part.repulsive>
0.2746

> <Gold.PLP.ligand.clash>
0.0000

> <Gold.PLP.ligand.torsion>
1.3919

> <Gold.PLP.Chemscore.Hbond>
2.5351

> <Gold.PLP.Chemscore.CHOScore>
1.5455

> <Gold.PLP.Chemscore.Metal>
0.0000

> <Gold.Chemscore.Hbonds>
donor molecule, donor type, donor heavy atom, donor atom, acceptor molecule, acceptor atom, score
      L1  H    11    36       P1  7948  1.00
      P1  H  6896  6907       L1    21  0.62
      P1  H  7989  7998       L1    23  1.00
      L1  C    22    46       P1  7948  1.00
      L1  C    22    46       P1  7957  0.56

> <Gold.PLP.Chemscore.Internal.Correction>
0.1683

> <Gold.Rescore>
     Score         DG    S(hbond)    S(metal)    S(lipo)     H(rot)  DE(clash)    DE(int)     intcor
     13.69     -17.12       2.64        0.00      74.72       2.31       0.01       3.42       ----

> <Gold.Chemscore.Fitness>
13.6893

> <Gold.Chemscore.DG>
-17.1212

> <Gold.Chemscore.ZeroCoef>
-5.4800

> <Gold.Chemscore.Hbond>
2.6357

> <Gold.Chemscore.Metal>
0.0000

> <Gold.Chemscore.Lipo>
74.7174

> <Gold.Chemscore.Internal_Hbond>
0.0000

> <Gold.Chemscore.DEClash>
0.0090

> <Gold.Chemscore.DEInternal>
3.4228

> <Gold.Chemscore.Rot>
2.3062

> <Gold.Chemscore.Internal.Correction>
   9.000000E+99

> <Gold.Chemscore.Hbonds>
donor molecule, donor type, donor heavy atom, donor atom, acceptor molecule, acceptor atom, score
      L1  H    11    36       P1  7948  0.94
      P1  H  6896  6907       L1    21  0.56
      P1  H  7989  7998       L1    23  0.44

> <Gold.Chemscore.Hbond.Weighted>
-8.8031

> <Gold.Chemscore.Metal.Weighted>
-0.0000

> <Gold.Chemscore.Lipo.Weighted>
-8.7419

> <Gold.Chemscore.Internal_Hbond.Weighted>
0.0000

> <Gold.Chemscore.DEClash.Weighted>
0.0090

> <Gold.Chemscore.DEInternal.Weighted>
3.4228

> <Gold.Chemscore.Rot.Weighted>
5.9038

> <Gold.Chemscore.Internal.Correction.Weighted>
   9.000000E+99

> <Gold.Protein.RotatedTorsions>
[ 6907 6896 6895 6894 ] final  163.18 input  -60.11 | X-H torsion
[ 7974 7965 7964 7962 ] final  153.49 input  175.53 | X-H torsion
[ 8008 7997 7996 7995 ] final  -58.44 input   59.86 | X-H torsion
[ 10167 10162 10161 10158 ] final -105.53 input  -65.29 | X-H torsion
[ 10718 10713 10712 10709 ] final  168.64 input   66.30 | X-H torsion
[ 10763 10752 10751 10750 ] final   29.78 input  -60.55 | X-H torsion
[ 11005 11000 10999 10996 ] final  -59.46 input  -57.11 | X-H torsion

> <Gold.Protein.ActiveResidues>
 VAL166  LYS551  ARG553  GLY616  TRP617  ASP618  TYR619  PRO620  LYS621  CYS622 
 ASP623  PHE694  ASN695  SER759  ASP760  ASP761  ALA762  ILE779  LEU786  VAL792 
 PHE793  MET794  SER795  GLU796  ALA797  LYS798  CYS799  TRP800  GLU811  SER814 

> <Gold.Protein.RotatedAtoms>
  151.9292  133.3606  159.3924 H   0  0  0  0  0  0  0  0  0  0  0  0  # atno 6907 bound_to 6896
  150.7020  134.4555  159.5365 H   0  0  0  0  0  0  0  0  0  0  0  0  # atno 6908 bound_to 6896
  152.2192  134.8428  160.0539 H   0  0  0  0  0  0  0  0  0  0  0  0  # atno 6909 bound_to 6896
  144.8151  139.6808  143.6125 H   0  0  0  0  0  0  0  0  0  0  0  0  # atno 7974 bound_to 7965
  154.4309  140.1084  156.5957 H   0  0  0  0  0  0  0  0  0  0  0  0  # atno 8008 bound_to 7997
  155.5964  140.3493  155.4562 H   0  0  0  0  0  0  0  0  0  0  0  0  # atno 8009 bound_to 7997
  156.0207  140.1239  157.0350 H   0  0  0  0  0  0  0  0  0  0  0  0  # atno 8010 bound_to 7997
  140.1976  143.3844  152.1156 H   0  0  0  0  0  0  0  0  0  0  0  0  # atno 10167 bound_to 10162
  157.0342  131.0268  151.2734 H   0  0  0  0  0  0  0  0  0  0  0  0  # atno 10718 bound_to 10713
  153.0410  135.6480  154.0944 H   0  0  0  0  0  0  0  0  0  0  0  0  # atno 10763 bound_to 10752
  154.0651  135.2885  155.3319 H   0  0  0  0  0  0  0  0  0  0  0  0  # atno 10764 bound_to 10752
  154.6632  135.5384  153.8109 H   0  0  0  0  0  0  0  0  0  0  0  0  # atno 10765 bound_to 10752
  141.1249  133.6616  156.5076 H   0  0  0  0  0  0  0  0  0  0  0  0  # atno 11005 bound_to 11000
  146.2453  139.6085  142.9464 LP  0  0  0  0  0  0  0  0  0  0  0  0  # atno 17320 bound_to 7965
  145.5234  141.0431  143.2423 LP  0  0  0  0  0  0  0  0  0  0  0  0  # atno 17321 bound_to 7965
  139.5230  144.7066  151.5334 LP  0  0  0  0  0  0  0  0  0  0  0  0  # atno 17342 bound_to 10162
  140.6413  143.8883  150.6694 LP  0  0  0  0  0  0  0  0  0  0  0  0  # atno 17343 bound_to 10162
  157.5154  130.7964  149.7750 LP  0  0  0  0  0  0  0  0  0  0  0  0  # atno 17370 bound_to 10713
  156.0059  130.3856  150.2433 LP  0  0  0  0  0  0  0  0  0  0  0  0  # atno 17371 bound_to 10713
  140.4395  134.7028  157.4984 LP  0  0  0  0  0  0  0  0  0  0  0  0  # atno 17394 bound_to 11000
  140.0238  134.6507  155.9201 LP  0  0  0  0  0  0  0  0  0  0  0  0  # atno 17395 bound_to 11000

$$$$
