AV-unprocessed.smi:2220|AV-procd|sdf|8979|dock7
  -GOLD-   2272012193D 1   1.00000     0.00000
 Structure written by MMmdl.
 38 39  0  0  0  0  0  0  0  0  1 V2000
  153.7262  135.8636  164.1600 C   0  0  0  0  0  0  0  0  0  0  0  0
  154.4334  137.1290  164.1677 N   0  0  0  0  0  0  0  0  0  0  0  0
  154.9169  137.7702  165.2406 C   0  0  0  0  0  0  0  0  0  0  0  0
  155.5244  138.9174  164.9694 N   0  0  0  0  0  0  0  0  0  0  0  0
  155.4227  139.0263  163.5853 C   0  0  0  0  0  0  0  0  0  0  0  0
  154.7542  137.9341  163.0771 C   0  0  0  0  0  0  0  0  0  0  0  0
  154.4107  137.6011  161.6603 C   0  0  0  0  0  0  0  0  0  0  0  0
  154.9180  138.6487  160.6560 C   0  0  0  0  0  0  0  0  0  0  0  0
  154.0328  139.8058  160.5963 N   0  0  0  0  0  0  0  0  0  0  0  0
  153.3970  140.2348  159.4949 C   0  0  0  0  0  0  0  0  0  0  0  0
  153.4961  139.6799  158.4000 O   0  0  0  0  0  0  0  0  0  0  0  0
  152.5174  141.4823  159.6538 C   0  0  0  0  0  0  0  0  0  0  0  0
  151.8703  141.8764  158.3097 C   0  0  0  0  0  0  0  0  0  0  0  0
  150.9847  143.1233  158.4646 C   0  0  0  0  0  0  0  0  0  0  0  0
  151.7723  144.3008  159.0640 C   0  0  0  0  0  0  0  0  0  0  0  0
  152.6993  144.7019  158.1927 F   0  0  0  0  0  0  0  0  0  0  0  0
  150.9389  145.3180  159.2814 F   0  0  0  0  0  0  0  0  0  0  0  0
  152.4512  143.9142  160.3892 C   0  0  0  0  0  0  0  0  0  0  0  0
  153.3295  142.6631  160.2259 C   0  0  0  0  0  0  0  0  0  0  0  0
  153.5446  135.5265  165.1811 H   0  0  0  0  0  0  0  0  0  0  0  0
  154.3208  135.1120  163.6411 H   0  0  0  0  0  0  0  0  0  0  0  0
  152.7681  135.9776  163.6527 H   0  0  0  0  0  0  0  0  0  0  0  0
  154.8221  137.3872  166.2462 H   0  0  0  0  0  0  0  0  0  0  0  0
  155.8371  139.8759  163.0629 H   0  0  0  0  0  0  0  0  0  0  0  0
  154.8149  136.6211  161.4054 H   0  0  0  0  0  0  0  0  0  0  0  0
  153.3278  137.5063  161.5734 H   0  0  0  0  0  0  0  0  0  0  0  0
  155.9316  138.9630  160.9111 H   0  0  0  0  0  0  0  0  0  0  0  0
  154.9711  138.2158  159.6573 H   0  0  0  0  0  0  0  0  0  0  0  0
  153.8946  140.3193  161.4546 H   0  0  0  0  0  0  0  0  0  0  0  0
  151.7178  141.2485  160.3592 H   0  0  0  0  0  0  0  0  0  0  0  0
  152.6411  142.0739  157.5632 H   0  0  0  0  0  0  0  0  0  0  0  0
  151.2716  141.0506  157.9229 H   0  0  0  0  0  0  0  0  0  0  0  0
  150.5649  143.4052  157.4985 H   0  0  0  0  0  0  0  0  0  0  0  0
  150.1386  142.8846  159.1105 H   0  0  0  0  0  0  0  0  0  0  0  0
  153.0515  144.7456  160.7600 H   0  0  0  0  0  0  0  0  0  0  0  0
  151.6898  143.7220  161.1464 H   0  0  0  0  0  0  0  0  0  0  0  0
  153.7604  142.3923  161.1909 H   0  0  0  0  0  0  0  0  0  0  0  0
  154.1686  142.8975  159.5691 H   0  0  0  0  0  0  0  0  0  0  0  0
  1  2  1  0  0  0  0
  1 20  1  0  0  0  0
  1 21  1  0  0  0  0
  1 22  1  0  0  0  0
  2  6  1  0  0  0  0
  2  3  1  0  0  0  0
  3  4  2  0  0  0  0
  3 23  1  0  0  0  0
  4  5  1  0  0  0  0
  5  6  2  0  0  0  0
  5 24  1  0  0  0  0
  6  7  1  0  0  0  0
  7  8  1  0  0  0  0
  7 25  1  0  0  0  0
  7 26  1  0  0  0  0
  8  9  1  0  0  0  0
  8 27  1  0  0  0  0
  8 28  1  0  0  0  0
  9 10  1  0  0  0  0
  9 29  1  0  0  0  0
 10 11  2  0  0  0  0
 10 12  1  0  0  0  0
 12 19  1  0  0  0  0
 12 13  1  0  0  0  0
 12 30  1  0  0  0  0
 13 14  1  0  0  0  0
 13 31  1  0  0  0  0
 13 32  1  0  0  0  0
 14 15  1  0  0  0  0
 14 33  1  0  0  0  0
 14 34  1  0  0  0  0
 15 16  1  0  0  0  0
 15 17  1  0  0  0  0
 15 18  1  0  0  0  0
 18 19  1  0  0  0  0
 18 35  1  0  0  0  0
 18 36  1  0  0  0  0
 19 37  1  0  0  0  0
 19 38  1  0  0  0  0
M  END
> <s_m_source_file>
AV-unprocessed.smi

> <i_m_source_file_index>
2220

> <i_lp_mmshare_version>
43012

> <i_f3d_flags>
0

> <s_epik_input>
W0NIM11uMVtjSF1uW2NIXWMxW0NIMl1bQ0gyXVtOSF1DKD1PKVtDSF0oW0NIMl1bQ0gyXTIpW0NIMl1bQ0gyXUMyKEYpRg==

> <s_epik_cmdline>
J2VwaWtfcHl0aG9uJywgJy1waCcsICc3LjAnLCAnLXRuJywgJzgnLCAnLW1hJywgJzIwMCcsICctbWV0YWxfYmluZGluZycsICctaW1hZScsICc8aW5maWxlLm1hZT4nLCAnLW9tYWUnLCAnPG91dGZpbGUubWFlPic=

> <r_lp_tautomer_probability>
1

> <r_epik_Ionization_Penalty>
0.872556

> <r_epik_Ionization_Penalty_Charging>
0.872556

> <r_epik_Ionization_Penalty_Neutral>
1.72153e-08

> <r_epik_State_Penalty>
0.910028

> <r_epik_Charging_Adjusted_Penalty>
1.78258

> <i_epik_Tot_Q>
0

> <i_epik_Tot_abs_Q>
0

> <r_epik_Metal_State_Penalty>
0.360885

> <b_epik_Metal_Only>
0

> <s_lp_Force_Field>
OPLS_2005

> <r_lp_Energy>
9.62652

> <b_lp_Chiralities_Consistent>
1

> <s_lp_Variant>
AV-unprocessed.smi:2220-2

> <Gold.Version>
5.8.1

> <Gold.Id.Protein>
6NUR|6NUR_protein|mol2

> <Gold.PLP.Fitness>
49.5162

> <Gold.PLP.PLP>
-46.7286

> <Gold.PLP.part.hbond>
-1.0000

> <Gold.PLP.part.metal>
0.0000

> <Gold.PLP.part.buried>
-5.6660

> <Gold.PLP.part.nonpolar>
-40.2702

> <Gold.PLP.part.repulsive>
0.0569

> <Gold.PLP.ligand.clash>
0.0000

> <Gold.PLP.ligand.torsion>
0.1181

> <Gold.PLP.Chemscore.Hbond>
1.0000

> <Gold.PLP.Chemscore.CHOScore>
0.0000

> <Gold.PLP.Chemscore.Metal>
0.0000

> <Gold.Chemscore.Hbonds>
donor molecule, donor type, donor heavy atom, donor atom, acceptor molecule, acceptor atom, score
      P1  H  7997  8010       L1    11  1.00

> <Gold.PLP.Chemscore.Internal.Correction>
0.0238

> <Gold.Rescore>
     Score         DG    S(hbond)    S(metal)    S(lipo)     H(rot)  DE(clash)    DE(int)     intcor
     15.39     -15.68       0.99        0.00      98.49       1.80       0.02       0.27       ----

> <Gold.Chemscore.Fitness>
15.3920

> <Gold.Chemscore.DG>
-15.6782

> <Gold.Chemscore.ZeroCoef>
-5.4800

> <Gold.Chemscore.Hbond>
0.9850

> <Gold.Chemscore.Metal>
0.0000

> <Gold.Chemscore.Lipo>
98.4925

> <Gold.Chemscore.Internal_Hbond>
0.0000

> <Gold.Chemscore.DEClash>
0.0172

> <Gold.Chemscore.DEInternal>
0.2690

> <Gold.Chemscore.Rot>
1.8029

> <Gold.Chemscore.Internal.Correction>
   9.000000E+99

> <Gold.Chemscore.Hbonds>
donor molecule, donor type, donor heavy atom, donor atom, acceptor molecule, acceptor atom, score
      P1  H  7997  8010       L1    11  0.94

> <Gold.Chemscore.Hbond.Weighted>
-3.2901

> <Gold.Chemscore.Metal.Weighted>
-0.0000

> <Gold.Chemscore.Lipo.Weighted>
-11.5236

> <Gold.Chemscore.Internal_Hbond.Weighted>
0.0000

> <Gold.Chemscore.DEClash.Weighted>
0.0172

> <Gold.Chemscore.DEInternal.Weighted>
0.2690

> <Gold.Chemscore.Rot.Weighted>
4.6155

> <Gold.Chemscore.Internal.Correction.Weighted>
   9.000000E+99

> <Gold.Protein.RotatedTorsions>
[ 6907 6896 6895 6894 ] final -166.11 input  -60.11 | X-H torsion
[ 7974 7965 7964 7962 ] final  -88.51 input  175.53 | X-H torsion
[ 8008 7997 7996 7995 ] final   12.13 input   59.86 | X-H torsion
[ 10167 10162 10161 10158 ] final  102.21 input  -65.29 | X-H torsion
[ 10718 10713 10712 10709 ] final -142.50 input   66.30 | X-H torsion
[ 10763 10752 10751 10750 ] final   44.39 input  -60.55 | X-H torsion
[ 11005 11000 10999 10996 ] final  -49.88 input  -57.11 | X-H torsion

> <Gold.Protein.ActiveResidues>
 VAL166  LYS551  ARG553  GLY616  TRP617  ASP618  TYR619  PRO620  LYS621  CYS622 
 ASP623  PHE694  ASN695  SER759  ASP760  ASP761  ALA762  ILE779  LEU786  VAL792 
 PHE793  MET794  SER795  GLU796  ALA797  LYS798  CYS799  TRP800  GLU811  SER814 

> <Gold.Protein.RotatedAtoms>
  151.4384  133.3650  159.2778 H   0  0  0  0  0  0  0  0  0  0  0  0  # atno 6907 bound_to 6896
  150.9175  134.8594  159.7477 H   0  0  0  0  0  0  0  0  0  0  0  0  # atno 6908 bound_to 6896
  152.4964  134.4319  159.9567 H   0  0  0  0  0  0  0  0  0  0  0  0  # atno 6909 bound_to 6896
  145.4522  140.9561  143.2016 H   0  0  0  0  0  0  0  0  0  0  0  0  # atno 7974 bound_to 7965
  154.8163  140.2876  155.5818 H   0  0  0  0  0  0  0  0  0  0  0  0  # atno 8008 bound_to 7997
  156.2993  140.2558  156.2992 H   0  0  0  0  0  0  0  0  0  0  0  0  # atno 8009 bound_to 7997
  154.9389  140.0382  157.2076 H   0  0  0  0  0  0  0  0  0  0  0  0  # atno 8010 bound_to 7997
  139.7370  144.7021  151.0634 H   0  0  0  0  0  0  0  0  0  0  0  0  # atno 10167 bound_to 10162
  156.3466  130.7666  151.1811 H   0  0  0  0  0  0  0  0  0  0  0  0  # atno 10718 bound_to 10713
  152.9842  135.6072  154.3266 H   0  0  0  0  0  0  0  0  0  0  0  0  # atno 10763 bound_to 10752
  154.2972  135.2773  155.2630 H   0  0  0  0  0  0  0  0  0  0  0  0  # atno 10764 bound_to 10752
  154.4898  135.5895  153.6507 H   0  0  0  0  0  0  0  0  0  0  0  0  # atno 10765 bound_to 10752
  141.0784  133.6659  156.3650 H   0  0  0  0  0  0  0  0  0  0  0  0  # atno 11005 bound_to 11000
  144.8054  139.6061  143.7053 LP  0  0  0  0  0  0  0  0  0  0  0  0  # atno 17320 bound_to 7965
  146.2498  139.6175  142.9435 LP  0  0  0  0  0  0  0  0  0  0  0  0  # atno 17321 bound_to 7965
  140.7780  143.4971  150.9818 LP  0  0  0  0  0  0  0  0  0  0  0  0  # atno 17342 bound_to 10162
  139.8660  143.7253  152.3170 LP  0  0  0  0  0  0  0  0  0  0  0  0  # atno 17343 bound_to 10162
  157.7455  131.0439  150.4768 LP  0  0  0  0  0  0  0  0  0  0  0  0  # atno 17370 bound_to 10713
  156.4956  130.4105  149.6381 LP  0  0  0  0  0  0  0  0  0  0  0  0  # atno 17371 bound_to 10713
  140.5522  134.6017  157.5411 LP  0  0  0  0  0  0  0  0  0  0  0  0  # atno 17394 bound_to 11000
  139.9597  134.7473  156.0263 LP  0  0  0  0  0  0  0  0  0  0  0  0  # atno 17395 bound_to 11000

$$$$
