AV-unprocessed.smi:2648|AV-procd|sdf|10287|dock1
  -GOLD-   2272014303D 1   1.00000     0.00000
 Structure written by MMmdl.
 31 32  0  0  0  0  0  0  0  0  2 V2000
  144.7290  137.0178  152.2628 O   0  0  0  0  0  0  0  0  0  0  0  0
  145.9302  136.7813  152.1349 C   0  0  0  0  0  0  0  0  0  0  0  0
  146.8941  137.6508  152.4696 N   0  0  0  0  0  0  0  0  0  0  0  0
  146.6631  138.9767  153.0291 C   0  0  0  0  0  0  0  0  0  0  0  0
  147.1730  139.0716  154.4783 C   0  0  0  0  0  0  0  0  0  0  0  0
  148.6371  139.0405  154.5259 N   0  0  0  0  0  0  0  0  0  0  0  0
  149.3564  137.9593  154.8415 C   0  0  0  0  0  0  0  0  0  0  0  0
  148.9453  136.8404  155.1500 O   0  0  0  0  0  0  0  0  0  0  0  0
  150.8157  138.3395  154.7451 C   0  0  0  0  0  0  0  0  0  0  0  0
  150.7473  139.7246  154.3375 N   0  5  0  0  0  0  0  0  0  0  0  0
  149.4446  140.0746  154.2220 C   0  0  0  0  0  0  0  0  0  0  0  0
  149.0062  141.1736  153.8838 O   0  0  0  0  0  0  0  0  0  0  0  0
  146.4527  135.6327  151.6710 N   0  0  0  0  0  0  0  0  0  0  0  0
  145.7750  134.4735  151.2048 C   0  0  0  0  0  0  0  0  0  0  0  0
  146.5585  133.3702  150.8074 C   0  0  0  0  0  0  0  0  0  0  0  0
  145.9107  132.2147  150.3263 C   0  0  0  0  0  0  0  0  0  0  0  0
  144.5700  132.1085  150.2146 N   0  0  0  0  0  0  0  0  0  0  0  0
  143.8223  133.1707  150.5813 C   0  0  0  0  0  0  0  0  0  0  0  0
  144.3688  134.3719  151.0756 C   0  0  0  0  0  0  0  0  0  0  0  0
  147.8557  137.3747  152.3369 H   0  0  0  0  0  0  0  0  0  0  0  0
  147.1835  139.7017  152.4025 H   0  0  0  0  0  0  0  0  0  0  0  0
  145.6021  139.2277  152.9771 H   0  0  0  0  0  0  0  0  0  0  0  0
  146.8064  139.9853  154.9493 H   0  0  0  0  0  0  0  0  0  0  0  0
  146.7652  138.2517  155.0721 H   0  0  0  0  0  0  0  0  0  0  0  0
  151.3004  138.1980  155.7114 H   0  0  0  0  0  0  0  0  0  0  0  0
  151.3186  137.7010  154.0181 H   0  0  0  0  0  0  0  0  0  0  0  0
  147.4588  135.5596  151.7053 H   0  0  0  0  0  0  0  0  0  0  0  0
  147.6363  133.4015  150.8734 H   0  0  0  0  0  0  0  0  0  0  0  0
  146.4860  131.3533  150.0209 H   0  0  0  0  0  0  0  0  0  0  0  0
  142.7533  133.0632  150.4712 H   0  0  0  0  0  0  0  0  0  0  0  0
  143.7056  135.1840  151.3302 H   0  0  0  0  0  0  0  0  0  0  0  0
  1  2  2  0  0  0  0
  2  3  1  0  0  0  0
  2 13  1  0  0  0  0
  3  4  1  0  0  0  0
  3 20  1  0  0  0  0
  4  5  1  0  0  0  0
  4 21  1  0  0  0  0
  4 22  1  0  0  0  0
  5  6  1  0  0  0  0
  5 23  1  0  0  0  0
  5 24  1  0  0  0  0
  6 11  1  0  0  0  0
  6  7  1  0  0  0  0
  7  8  2  0  0  0  0
  7  9  1  0  0  0  0
  9 10  1  0  0  0  0
  9 25  1  0  0  0  0
  9 26  1  0  0  0  0
 10 11  1  0  0  0  0
 11 12  2  0  0  0  0
 13 14  1  0  0  0  0
 13 27  1  0  0  0  0
 14 19  1  0  0  0  0
 14 15  2  0  0  0  0
 15 16  1  0  0  0  0
 15 28  1  0  0  0  0
 16 17  2  0  0  0  0
 16 29  1  0  0  0  0
 17 18  1  0  0  0  0
 18 19  2  0  0  0  0
 18 30  1  0  0  0  0
 19 31  1  0  0  0  0
M  CHG  1  10  -1
M  END
> <s_m_source_file>
AV-unprocessed.smi

> <i_m_source_file_index>
2648

> <i_lp_mmshare_version>
43012

> <i_f3d_flags>
0

> <s_epik_input>
W2NIXTFbY0hdbltjSF1bY0hdYzFbTkhdQyg9TylbTkhdW0NIMl1bQ0gyXU4yQyg9TylbQ0gyXVtOSF1DMj1P

> <s_epik_cmdline>
J2VwaWtfcHl0aG9uJywgJy1waCcsICc3LjAnLCAnLXRuJywgJzgnLCAnLW1hJywgJzIwMCcsICctbWV0YWxfYmluZGluZycsICctaW1hZScsICc8aW5maWxlLm1hZT4nLCAnLW9tYWUnLCAnPG91dGZpbGUubWFlPic=

> <r_lp_tautomer_probability>
1

> <r_epik_Ionization_Penalty>
5.93063

> <r_epik_Ionization_Penalty_Charging>
5.82164

> <r_epik_Ionization_Penalty_Neutral>
0.10899

> <r_epik_State_Penalty>
5.92035

> <r_epik_Charging_Adjusted_Penalty>
11.742

> <i_epik_Tot_Q>
-1

> <i_epik_Tot_abs_Q>
1

> <r_epik_Metal_State_Penalty>
1.97767

> <b_epik_Metal_Only>
1

> <s_lp_Force_Field>
OPLS_2005

> <r_lp_Energy>
14.3233

> <b_lp_Chiralities_Consistent>
1

> <s_lp_Variant>
AV-unprocessed.smi:2648-3

> <Gold.Version>
5.8.1

> <Gold.Id.Protein>
6NUR|6NUR_protein|mol2

> <Gold.PLP.Fitness>
45.1663

> <Gold.PLP.PLP>
-28.2376

> <Gold.PLP.part.hbond>
-4.4661

> <Gold.PLP.part.metal>
0.0000

> <Gold.PLP.part.buried>
-2.7429

> <Gold.PLP.part.nonpolar>
-22.9433

> <Gold.PLP.part.repulsive>
2.1338

> <Gold.PLP.ligand.clash>
0.0000

> <Gold.PLP.ligand.torsion>
0.2904

> <Gold.PLP.Chemscore.Hbond>
3.8270

> <Gold.PLP.Chemscore.CHOScore>
2.0000

> <Gold.PLP.Chemscore.Metal>
0.0000

> <Gold.Chemscore.Hbonds>
donor molecule, donor type, donor heavy atom, donor atom, acceptor molecule, acceptor atom, score
      L1  H     3    20       P1  7948  0.99
      L1  H    13    27       P1  7948  1.00
      P1  H  7989  7998       L1    10  1.00
      P1  H  8011  8017       L1    12  0.63
      L1  C    16    29       P1 10747  0.98
      L1  C    18    30       P1 10186  1.00

> <Gold.PLP.Chemscore.Internal.Correction>
0.0287

> <Gold.Rescore>
     Score         DG    S(hbond)    S(metal)    S(lipo)     H(rot)  DE(clash)    DE(int)     intcor
     15.00     -17.66       3.22        0.00      53.55       1.90       1.10       1.56       ----

> <Gold.Chemscore.Fitness>
14.9971

> <Gold.Chemscore.DG>
-17.6580

> <Gold.Chemscore.ZeroCoef>
-5.4800

> <Gold.Chemscore.Hbond>
3.2242

> <Gold.Chemscore.Metal>
0.0000

> <Gold.Chemscore.Lipo>
53.5488

> <Gold.Chemscore.Internal_Hbond>
0.0000

> <Gold.Chemscore.DEClash>
1.0988

> <Gold.Chemscore.DEInternal>
1.5621

> <Gold.Chemscore.Rot>
1.8969

> <Gold.Chemscore.Internal.Correction>
   9.000000E+99

> <Gold.Chemscore.Hbonds>
donor molecule, donor type, donor heavy atom, donor atom, acceptor molecule, acceptor atom, score
      L1  H     3    20       P1  7948  0.94
      L1  H    13    27       P1  7948  0.95
      P1  H  7989  7998       L1    10  0.60
      P1  H  8011  8017       L1    12  0.62

> <Gold.Chemscore.Hbond.Weighted>
-10.7689

> <Gold.Chemscore.Metal.Weighted>
-0.0000

> <Gold.Chemscore.Lipo.Weighted>
-6.2652

> <Gold.Chemscore.Internal_Hbond.Weighted>
0.0000

> <Gold.Chemscore.DEClash.Weighted>
1.0988

> <Gold.Chemscore.DEInternal.Weighted>
1.5621

> <Gold.Chemscore.Rot.Weighted>
4.8561

> <Gold.Chemscore.Internal.Correction.Weighted>
   9.000000E+99

> <Gold.Protein.RotatedTorsions>
[ 6907 6896 6895 6894 ] final  -32.33 input  -60.11 | X-H torsion
[ 7974 7965 7964 7962 ] final  -90.93 input  175.53 | X-H torsion
[ 8008 7997 7996 7995 ] final   -3.31 input   59.86 | X-H torsion
[ 10167 10162 10161 10158 ] final  165.64 input  -65.29 | X-H torsion
[ 10718 10713 10712 10709 ] final   87.87 input   66.30 | X-H torsion
[ 10763 10752 10751 10750 ] final -144.87 input  -60.55 | X-H torsion
[ 11005 11000 10999 10996 ] final  178.79 input  -57.11 | X-H torsion

> <Gold.Protein.ActiveResidues>
 VAL166  LYS551  ARG553  GLY616  TRP617  ASP618  TYR619  PRO620  LYS621  CYS622 
 ASP623  PHE694  ASN695  SER759  ASP760  ASP761  ALA762  ILE779  LEU786  VAL792 
 PHE793  MET794  SER795  GLU796  ALA797  LYS798  CYS799  TRP800  GLU811  SER814 

> <Gold.Protein.RotatedAtoms>
  151.0802  134.9853  159.8352 H   0  0  0  0  0  0  0  0  0  0  0  0  # atno 6907 bound_to 6896
  152.5419  134.2191  159.8790 H   0  0  0  0  0  0  0  0  0  0  0  0  # atno 6908 bound_to 6896
  151.2220  133.4453  159.2634 H   0  0  0  0  0  0  0  0  0  0  0  0  # atno 6909 bound_to 6896
  145.4198  140.9550  143.2187 H   0  0  0  0  0  0  0  0  0  0  0  0  # atno 7974 bound_to 7965
  154.6263  140.2512  155.7488 H   0  0  0  0  0  0  0  0  0  0  0  0  # atno 8008 bound_to 7997
  156.2455  140.2916  156.0513 H   0  0  0  0  0  0  0  0  0  0  0  0  # atno 8009 bound_to 7997
  155.1816  140.0389  157.2873 H   0  0  0  0  0  0  0  0  0  0  0  0  # atno 8010 bound_to 7997
  139.4909  144.4110  151.9299 H   0  0  0  0  0  0  0  0  0  0  0  0  # atno 10167 bound_to 10162
  157.6944  131.0272  150.3189 H   0  0  0  0  0  0  0  0  0  0  0  0  # atno 10718 bound_to 10713
  154.8409  135.3428  154.6415 H   0  0  0  0  0  0  0  0  0  0  0  0  # atno 10763 bound_to 10752
  153.7026  135.6968  153.5063 H   0  0  0  0  0  0  0  0  0  0  0  0  # atno 10764 bound_to 10752
  153.2511  135.4353  155.0753 H   0  0  0  0  0  0  0  0  0  0  0  0  # atno 10765 bound_to 10752
  140.3990  134.6794  157.4551 H   0  0  0  0  0  0  0  0  0  0  0  0  # atno 11005 bound_to 11000
  144.8252  139.5721  143.6968 LP  0  0  0  0  0  0  0  0  0  0  0  0  # atno 17320 bound_to 7965
  146.2662  139.6526  142.9328 LP  0  0  0  0  0  0  0  0  0  0  0  0  # atno 17321 bound_to 7965
  140.3552  144.3041  150.5942 LP  0  0  0  0  0  0  0  0  0  0  0  0  # atno 17342 bound_to 10162
  140.5451  143.2216  151.8021 LP  0  0  0  0  0  0  0  0  0  0  0  0  # atno 17343 bound_to 10162
  156.3679  130.3858  149.7198 LP  0  0  0  0  0  0  0  0  0  0  0  0  # atno 17370 bound_to 10713
  156.4623  130.7957  151.2977 LP  0  0  0  0  0  0  0  0  0  0  0  0  # atno 17371 bound_to 10713
  140.0350  134.6350  155.9055 LP  0  0  0  0  0  0  0  0  0  0  0  0  # atno 17394 bound_to 11000
  141.1863  133.6557  156.5235 LP  0  0  0  0  0  0  0  0  0  0  0  0  # atno 17395 bound_to 11000

$$$$
