AV-unprocessed.smi:1291|AV-procd|sdf|5394|dock7
  -GOLD-   22720 4553D 1   1.00000     0.00000
 Structure written by MMmdl.
 44 46  0  0  0  0  0  0  0  0  2 V2000
  149.0131  142.1301  154.4216 O   0  0  0  0  0  0  0  0  0  0  0  0
  149.5636  141.0517  155.1474 C   0  0  0  0  0  0  0  0  0  0  0  0
  150.3710  141.4934  156.3260 C   0  0  0  0  0  0  0  0  0  0  0  0
  150.3509  142.7336  156.8926 N   0  3  0  0  0  0  0  0  0  0  0  0
  151.2276  142.7744  157.9768 C   0  0  0  0  0  0  0  0  0  0  0  0
  151.5458  143.8081  158.8522 C   0  0  0  0  0  0  0  0  0  0  0  0
  152.4899  143.5165  159.8585 C   0  0  0  0  0  0  0  0  0  0  0  0
  153.0793  142.2401  159.9644 C   0  0  0  0  0  0  0  0  0  0  0  0
  152.7492  141.2005  159.0703 C   0  0  0  0  0  0  0  0  0  0  0  0
  151.8122  141.4955  158.0798 C   0  0  0  0  0  0  0  0  0  0  0  0
  151.2526  140.7383  157.0429 N   0  0  0  0  0  0  0  0  0  0  0  0
  151.6523  139.3316  156.8744 C   0  0  0  0  0  0  0  0  0  0  0  0
  150.9509  138.3861  157.8711 C   0  0  1  0  0  0  0  0  0  0  0  0
  151.5461  138.4333  159.1523 O   0  0  0  0  0  0  0  0  0  0  0  0
  149.4423  138.6476  158.0070 C   0  0  0  0  0  0  0  0  0  0  0  0
  148.9514  138.0485  159.1962 O   0  0  0  0  0  0  0  0  0  0  0  0
  148.1452  136.9095  158.9502 C   0  0  0  0  0  0  0  0  0  0  0  0
  147.8598  136.1540  160.2335 C   0  0  0  0  0  0  0  0  0  0  0  0
  147.5412  136.8632  161.4107 C   0  0  0  0  0  0  0  0  0  0  0  0
  147.2811  136.1688  162.6083 C   0  0  0  0  0  0  0  0  0  0  0  0
  147.3381  134.7620  162.6333 C   0  0  0  0  0  0  0  0  0  0  0  0
  147.6591  134.0504  161.4613 C   0  0  0  0  0  0  0  0  0  0  0  0
  147.9218  134.7433  160.2633 C   0  0  0  0  0  0  0  0  0  0  0  0
  148.2360  134.0472  159.1443 F   0  0  0  0  0  0  0  0  0  0  0  0
  149.1939  142.9311  154.8901 H   0  0  0  0  0  0  0  0  0  0  0  0
  148.7561  140.4054  155.4917 H   0  0  0  0  0  0  0  0  0  0  0  0
  150.1870  140.4627  154.4746 H   0  0  0  0  0  0  0  0  0  0  0  0
  151.0969  144.7873  158.7713 H   0  0  0  0  0  0  0  0  0  0  0  0
  152.7689  144.2876  160.5621 H   0  0  0  0  0  0  0  0  0  0  0  0
  153.8007  142.0541  160.7468 H   0  0  0  0  0  0  0  0  0  0  0  0
  153.2126  140.2287  159.1585 H   0  0  0  0  0  0  0  0  0  0  0  0
  151.4707  139.0324  155.8422 H   0  0  0  0  0  0  0  0  0  0  0  0
  152.7325  139.2807  157.0150 H   0  0  0  0  0  0  0  0  0  0  0  0
  151.0784  137.3609  157.5222 H   0  0  0  0  0  0  0  0  0  0  0  0
  152.3397  137.9211  159.1322 H   0  0  0  0  0  0  0  0  0  0  0  0
  149.2674  139.7236  158.0536 H   0  0  0  0  0  0  0  0  0  0  0  0
  148.9065  138.2725  157.1335 H   0  0  0  0  0  0  0  0  0  0  0  0
  147.2018  137.2144  158.4942 H   0  0  0  0  0  0  0  0  0  0  0  0
  148.6387  136.2445  158.2397 H   0  0  0  0  0  0  0  0  0  0  0  0
  147.4972  137.9425  161.3990 H   0  0  0  0  0  0  0  0  0  0  0  0
  147.0389  136.7150  163.5082 H   0  0  0  0  0  0  0  0  0  0  0  0
  147.1381  134.2292  163.5511 H   0  0  0  0  0  0  0  0  0  0  0  0
  147.7061  132.9716  161.4811 H   0  0  0  0  0  0  0  0  0  0  0  0
  149.7772  143.4954  156.5539 H   0  0  0  0  0  0  0  0  0  0  0  0
  1  2  1  0  0  0  0
  1 25  1  0  0  0  0
  2  3  1  0  0  0  0
  2 26  1  0  0  0  0
  2 27  1  0  0  0  0
  3 11  1  0  0  0  0
  3  4  2  0  0  0  0
  4  5  1  0  0  0  0
  4 44  1  0  0  0  0
  5 10  2  0  0  0  0
  5  6  1  0  0  0  0
  6  7  2  0  0  0  0
  6 28  1  0  0  0  0
  7  8  1  0  0  0  0
  7 29  1  0  0  0  0
  8  9  2  0  0  0  0
  8 30  1  0  0  0  0
  9 10  1  0  0  0  0
  9 31  1  0  0  0  0
 10 11  1  0  0  0  0
 11 12  1  0  0  0  0
 12 13  1  0  0  0  0
 12 32  1  0  0  0  0
 12 33  1  0  0  0  0
 13 14  1  0  0  0  0
 13 15  1  0  0  0  0
 13 34  1  0  0  0  0
 14 35  1  0  0  0  0
 15 16  1  0  0  0  0
 15 36  1  0  0  0  0
 15 37  1  0  0  0  0
 16 17  1  0  0  0  0
 17 18  1  0  0  0  0
 17 38  1  0  0  0  0
 17 39  1  0  0  0  0
 18 23  1  0  0  0  0
 18 19  2  0  0  0  0
 19 20  1  0  0  0  0
 19 40  1  0  0  0  0
 20 21  2  0  0  0  0
 20 41  1  0  0  0  0
 21 22  1  0  0  0  0
 21 42  1  0  0  0  0
 22 23  2  0  0  0  0
 22 43  1  0  0  0  0
 23 24  1  0  0  0  0
M  CHG  1   4   1
M  END
> <s_m_source_file>
AV-unprocessed.smi

> <i_m_source_file_index>
1291

> <i_lp_mmshare_version>
43012

> <i_f3d_flags>
0

> <s_epik_input>
W2NIXTFbY0hdW2NIXVtjSF1jKGMxMiluKGMobjIpW0NIMl1bT0hdKVtDSDJdW0NASF0oW09IXSlbQ0gyXU9bQ0gyXWMzW2NIXVtjSF1bY0hdW2NIXWMzRg==

> <s_epik_cmdline>
J2VwaWtfcHl0aG9uJywgJy1waCcsICc3LjAnLCAnLXRuJywgJzgnLCAnLW1hJywgJzIwMCcsICctbWV0YWxfYmluZGluZycsICctaW1hZScsICc8aW5maWxlLm1hZT4nLCAnLW9tYWUnLCAnPG91dGZpbGUubWFlPic=

> <r_epik_Ionization_Penalty>
1.34314

> <r_epik_Ionization_Penalty_Charging>
1.34228

> <r_epik_Ionization_Penalty_Neutral>
0.000856861

> <r_epik_State_Penalty>
1.41963

> <r_epik_Charging_Adjusted_Penalty>
2.76191

> <i_epik_Tot_Q>
1

> <i_epik_Tot_abs_Q>
1

> <r_epik_Metal_State_Penalty>
5.45585

> <b_epik_Metal_Only>
0

> <s_lp_Force_Field>
OPLS_2005

> <r_lp_Energy>
19.0817

> <b_lp_Chiralities_Consistent>
1

> <s_lp_Variant>
AV-unprocessed.smi:1291-4

> <Gold.Version>
5.8.1

> <Gold.Id.Protein>
6NUR|6NUR_protein|mol2

> <Gold.PLP.Fitness>
58.4130

> <Gold.PLP.PLP>
-51.5049

> <Gold.PLP.part.hbond>
-5.0000

> <Gold.PLP.part.metal>
0.0000

> <Gold.PLP.part.buried>
-3.7225

> <Gold.PLP.part.nonpolar>
-42.6100

> <Gold.PLP.part.repulsive>
0.0316

> <Gold.PLP.ligand.clash>
0.0000

> <Gold.PLP.ligand.torsion>
1.4015

> <Gold.PLP.Chemscore.Hbond>
3.1747

> <Gold.PLP.Chemscore.CHOScore>
0.0000

> <Gold.PLP.Chemscore.Metal>
0.0000

> <Gold.Chemscore.Hbonds>
donor molecule, donor type, donor heavy atom, donor atom, acceptor molecule, acceptor atom, score
      L1  H     1    25       P1  8028  1.00
      L1  H     4    44       P1  8028  2.00
      P1  H  8011  8017       L1     1  0.15

> <Gold.PLP.Chemscore.Internal.Correction>
0.1871

> <Gold.Rescore>
     Score         DG    S(hbond)    S(metal)    S(lipo)     H(rot)  DE(clash)    DE(int)     intcor
     17.02     -18.17       1.98        0.00     127.14       3.44       0.04       1.11       ----

> <Gold.Chemscore.Fitness>
17.0191

> <Gold.Chemscore.DG>
-18.1651

> <Gold.Chemscore.ZeroCoef>
-5.4800

> <Gold.Chemscore.Hbond>
1.9773

> <Gold.Chemscore.Metal>
0.0000

> <Gold.Chemscore.Lipo>
127.1402

> <Gold.Chemscore.Internal_Hbond>
0.0000

> <Gold.Chemscore.DEClash>
0.0397

> <Gold.Chemscore.DEInternal>
1.1063

> <Gold.Chemscore.Rot>
3.4353

> <Gold.Chemscore.Internal.Correction>
   9.000000E+99

> <Gold.Chemscore.Hbonds>
donor molecule, donor type, donor heavy atom, donor atom, acceptor molecule, acceptor atom, score
      L1  H     1    25       P1  8028  0.98
      L1  H     4    44       P1  8028  1.00
      P1  H  8011  8017       L1     1  0.07

> <Gold.Chemscore.Hbond.Weighted>
-6.6041

> <Gold.Chemscore.Metal.Weighted>
-0.0000

> <Gold.Chemscore.Lipo.Weighted>
-14.8754

> <Gold.Chemscore.Internal_Hbond.Weighted>
0.0000

> <Gold.Chemscore.DEClash.Weighted>
0.0397

> <Gold.Chemscore.DEInternal.Weighted>
1.1063

> <Gold.Chemscore.Rot.Weighted>
8.7944

> <Gold.Chemscore.Internal.Correction.Weighted>
   9.000000E+99

> <Gold.Protein.RotatedTorsions>
[ 6907 6896 6895 6894 ] final  148.40 input  -60.11 | X-H torsion
[ 7974 7965 7964 7962 ] final  134.26 input  175.53 | X-H torsion
[ 8008 7997 7996 7995 ] final  -91.11 input   59.86 | X-H torsion
[ 10167 10162 10161 10158 ] final -156.38 input  -65.29 | X-H torsion
[ 10718 10713 10712 10709 ] final  -41.35 input   66.30 | X-H torsion
[ 10763 10752 10751 10750 ] final   85.69 input  -60.55 | X-H torsion
[ 11005 11000 10999 10996 ] final   16.84 input  -57.11 | X-H torsion

> <Gold.Protein.ActiveResidues>
 VAL166  LYS551  ARG553  GLY616  TRP617  ASP618  TYR619  PRO620  LYS621  CYS622 
 ASP623  PHE694  ASN695  SER759  ASP760  ASP761  ALA762  ILE779  LEU786  VAL792 
 PHE793  MET794  SER795  GLU796  ALA797  LYS798  CYS799  TRP800  GLU811  SER814 

> <Gold.Protein.RotatedAtoms>
  152.1420  133.4470  159.4771 H   0  0  0  0  0  0  0  0  0  0  0  0  # atno 6907 bound_to 6896
  150.6887  134.2293  159.4437 H   0  0  0  0  0  0  0  0  0  0  0  0  # atno 6908 bound_to 6896
  152.0185  134.9836  160.0620 H   0  0  0  0  0  0  0  0  0  0  0  0  # atno 6909 bound_to 6896
  144.9781  139.4533  143.5400 H   0  0  0  0  0  0  0  0  0  0  0  0  # atno 7974 bound_to 7965
  154.7067  140.0523  157.0511 H   0  0  0  0  0  0  0  0  0  0  0  0  # atno 8008 bound_to 7997
  155.0610  140.3189  155.4641 H   0  0  0  0  0  0  0  0  0  0  0  0  # atno 8009 bound_to 7997
  156.2777  140.2099  156.5737 H   0  0  0  0  0  0  0  0  0  0  0  0  # atno 8010 bound_to 7997
  139.6854  143.9509  152.2358 H   0  0  0  0  0  0  0  0  0  0  0  0  # atno 10167 bound_to 10162
  156.2713  130.4207  149.8435 H   0  0  0  0  0  0  0  0  0  0  0  0  # atno 10718 bound_to 10713
  153.1499  135.4608  154.9621 H   0  0  0  0  0  0  0  0  0  0  0  0  # atno 10763 bound_to 10752
  154.7816  135.3190  154.7980 H   0  0  0  0  0  0  0  0  0  0  0  0  # atno 10764 bound_to 10752
  153.8487  135.6923  153.4849 H   0  0  0  0  0  0  0  0  0  0  0  0  # atno 10765 bound_to 10752
  140.4426  134.1306  155.7692 H   0  0  0  0  0  0  0  0  0  0  0  0  # atno 11005 bound_to 11000
  146.3401  139.9036  142.8790 LP  0  0  0  0  0  0  0  0  0  0  0  0  # atno 17320 bound_to 7965
  145.2461  141.0027  143.3908 LP  0  0  0  0  0  0  0  0  0  0  0  0  # atno 17321 bound_to 7965
  139.9311  144.6741  150.8362 LP  0  0  0  0  0  0  0  0  0  0  0  0  # atno 17342 bound_to 10162
  140.7666  143.3308  151.2414 LP  0  0  0  0  0  0  0  0  0  0  0  0  # atno 17343 bound_to 10162
  156.5915  130.8508  151.3409 LP  0  0  0  0  0  0  0  0  0  0  0  0  # atno 17370 bound_to 10713
  157.7285  130.9657  150.1744 LP  0  0  0  0  0  0  0  0  0  0  0  0  # atno 17371 bound_to 10713
  141.1699  133.8630  157.1603 LP  0  0  0  0  0  0  0  0  0  0  0  0  # atno 17394 bound_to 11000
  140.0060  135.0008  157.0292 LP  0  0  0  0  0  0  0  0  0  0  0  0  # atno 17395 bound_to 11000

$$$$
