AV-unprocessed.smi:2340|AV-procd|sdf|9348|dock10
  -GOLD-   2272012573D 1   1.00000     0.00000
 Structure written by MMmdl.
 40 41  0  0  0  0  0  0  0  0  1 V2000
  145.3029  144.6929  153.1216 C   0  0  0  0  0  0  0  0  0  0  0  0
  145.7098  143.5327  153.9742 C   0  0  0  0  0  0  0  0  0  0  0  0
  144.9589  142.9164  154.9438 C   0  0  0  0  0  0  0  0  0  0  0  0
  145.8213  141.6024  155.6948 S   0  0  0  0  0  0  0  0  0  0  0  0
  147.1961  141.9428  154.6455 C   0  0  0  0  0  0  0  0  0  0  0  0
  148.4781  141.1698  154.6800 C   0  0  2  0  0  0  0  0  0  0  0  0
  148.2951  139.7554  154.1032 C   0  0  0  0  0  0  0  0  0  0  0  0
  149.1016  141.1856  156.0923 C   0  0  0  0  0  0  0  0  0  0  0  0
  149.6001  142.5026  156.4764 N   0  0  0  0  0  0  0  0  0  0  0  0
  150.4071  142.7440  157.5186 C   0  0  0  0  0  0  0  0  0  0  0  0
  150.8243  141.8746  158.2837 O   0  0  0  0  0  0  0  0  0  0  0  0
  150.7088  144.0458  157.6216 N   0  0  0  0  0  0  0  0  0  0  0  0
  151.5643  144.6370  158.6512 C   0  0  2  0  0  0  0  0  0  0  0  0
  152.7631  143.7331  158.9364 C   0  0  0  0  0  0  0  0  0  0  0  0
  152.7856  143.6114  160.4564 C   0  0  0  0  0  0  0  0  0  0  0  0
  151.4196  143.7291  160.8118 O   0  0  0  0  0  0  0  0  0  0  0  0
  150.8740  144.7802  160.0284 C   0  0  2  0  0  0  0  0  0  0  0  0
  149.3382  144.7229  160.0676 C   0  0  0  0  0  0  0  0  0  0  0  0
  146.9788  142.9683  153.8169 N   0  0  0  0  0  0  0  0  0  0  0  0
  144.3183  145.0683  153.4017 H   0  0  0  0  0  0  0  0  0  0  0  0
  145.2614  144.4116  152.0692 H   0  0  0  0  0  0  0  0  0  0  0  0
  146.0088  145.5184  153.2168 H   0  0  0  0  0  0  0  0  0  0  0  0
  143.9544  143.1547  155.2609 H   0  0  0  0  0  0  0  0  0  0  0  0
  149.1706  141.6890  154.0153 H   0  0  0  0  0  0  0  0  0  0  0  0
  147.8826  139.7965  153.0947 H   0  0  0  0  0  0  0  0  0  0  0  0
  147.6169  139.1607  154.7158 H   0  0  0  0  0  0  0  0  0  0  0  0
  149.2432  139.2207  154.0433 H   0  0  0  0  0  0  0  0  0  0  0  0
  148.3728  140.8449  156.8299 H   0  0  0  0  0  0  0  0  0  0  0  0
  149.9359  140.4854  156.1410 H   0  0  0  0  0  0  0  0  0  0  0  0
  149.3127  143.2836  155.9050 H   0  0  0  0  0  0  0  0  0  0  0  0
  150.3211  144.6787  156.9375 H   0  0  0  0  0  0  0  0  0  0  0  0
  151.9193  145.6165  158.3256 H   0  0  0  0  0  0  0  0  0  0  0  0
  152.6200  142.7433  158.4996 H   0  0  0  0  0  0  0  0  0  0  0  0
  153.6967  144.1351  158.5419 H   0  0  0  0  0  0  0  0  0  0  0  0
  153.2126  142.6686  160.7989 H   0  0  0  0  0  0  0  0  0  0  0  0
  153.3517  144.4292  160.9050 H   0  0  0  0  0  0  0  0  0  0  0  0
  151.1972  145.7207  160.4786 H   0  0  0  0  0  0  0  0  0  0  0  0
  148.8991  145.5178  159.4642 H   0  0  0  0  0  0  0  0  0  0  0  0
  148.9750  144.8461  161.0880 H   0  0  0  0  0  0  0  0  0  0  0  0
  148.9611  143.7687  159.6993 H   0  0  0  0  0  0  0  0  0  0  0  0
  1  2  1  0  0  0  0
  1 20  1  0  0  0  0
  1 21  1  0  0  0  0
  1 22  1  0  0  0  0
  2 19  1  0  0  0  0
  2  3  2  0  0  0  0
  3  4  1  0  0  0  0
  3 23  1  0  0  0  0
  4  5  1  0  0  0  0
  5  6  1  0  0  0  0
  5 19  2  0  0  0  0
  6  7  1  0  0  0  0
  6  8  1  0  0  0  0
  6 24  1  0  0  0  0
  7 25  1  0  0  0  0
  7 26  1  0  0  0  0
  7 27  1  0  0  0  0
  8  9  1  0  0  0  0
  8 28  1  0  0  0  0
  8 29  1  0  0  0  0
  9 10  1  0  0  0  0
  9 30  1  0  0  0  0
 10 11  2  0  0  0  0
 10 12  1  0  0  0  0
 12 13  1  0  0  0  0
 12 31  1  0  0  0  0
 13 17  1  0  0  0  0
 13 14  1  0  0  0  0
 13 32  1  0  0  0  0
 14 15  1  0  0  0  0
 14 33  1  0  0  0  0
 14 34  1  0  0  0  0
 15 16  1  0  0  0  0
 15 35  1  0  0  0  0
 15 36  1  0  0  0  0
 16 17  1  0  0  0  0
 17 18  1  0  0  0  0
 17 37  1  0  0  0  0
 18 38  1  0  0  0  0
 18 39  1  0  0  0  0
 18 40  1  0  0  0  0
M  END
> <s_m_source_file>
AV-unprocessed.smi

> <i_m_source_file_index>
2340

> <i_lp_mmshare_version>
43012

> <i_f3d_flags>
0

> <s_epik_input>
W0NIM11jMVtjSF1zYyhuMSlbQ0BIXShbQ0gzXSlbQ0gyXVtOSF1DKD1PKVtOSF1bQ0BASF0yW0NIMl1bQ0gyXU9bQ0BIXTJbQ0gzXQ==

> <s_epik_cmdline>
J2VwaWtfcHl0aG9uJywgJy1waCcsICc3LjAnLCAnLXRuJywgJzgnLCAnLW1hJywgJzIwMCcsICctbWV0YWxfYmluZGluZycsICctaW1hZScsICc8aW5maWxlLm1hZT4nLCAnLW9tYWUnLCAnPG91dGZpbGUubWFlPic=

> <r_epik_Ionization_Penalty>
0.00156622

> <r_epik_Ionization_Penalty_Charging>
0

> <r_epik_Ionization_Penalty_Neutral>
0.00156622

> <r_epik_State_Penalty>
0.00101902

> <r_epik_Charging_Adjusted_Penalty>
0.00101902

> <i_epik_Tot_Q>
0

> <i_epik_Tot_abs_Q>
0

> <r_epik_Metal_State_Penalty>
-0

> <b_epik_Metal_Only>
0

> <s_lp_Force_Field>
OPLS_2005

> <r_lp_Energy>
6.07196

> <b_lp_Chiralities_Consistent>
1

> <s_lp_Variant>
AV-unprocessed.smi:2340-5

> <Gold.Version>
5.8.1

> <Gold.Id.Protein>
6NUR|6NUR_protein|mol2

> <Gold.PLP.Fitness>
45.0294

> <Gold.PLP.PLP>
-40.4860

> <Gold.PLP.part.hbond>
-2.9473

> <Gold.PLP.part.metal>
0.0000

> <Gold.PLP.part.buried>
-4.7697

> <Gold.PLP.part.nonpolar>
-32.7844

> <Gold.PLP.part.repulsive>
0.4781

> <Gold.PLP.ligand.clash>
0.0000

> <Gold.PLP.ligand.torsion>
0.5355

> <Gold.PLP.Chemscore.Hbond>
1.8437

> <Gold.PLP.Chemscore.CHOScore>
0.0000

> <Gold.PLP.Chemscore.Metal>
0.0000

> <Gold.Chemscore.Hbonds>
donor molecule, donor type, donor heavy atom, donor atom, acceptor molecule, acceptor atom, score
      L1  H     9    30       P1  8028  0.98
      L1  H    12    31       P1  8028  0.80
      P1  H  8022  8030       L1    19  0.04

> <Gold.PLP.Chemscore.Internal.Correction>
0.0834

> <Gold.Rescore>
     Score         DG    S(hbond)    S(metal)    S(lipo)     H(rot)  DE(clash)    DE(int)     intcor
     16.89     -18.78       1.78        0.00      96.47       1.53       0.11       1.78       ----

> <Gold.Chemscore.Fitness>
16.8945

> <Gold.Chemscore.DG>
-18.7847

> <Gold.Chemscore.ZeroCoef>
-5.4800

> <Gold.Chemscore.Hbond>
1.7787

> <Gold.Chemscore.Metal>
0.0000

> <Gold.Chemscore.Lipo>
96.4697

> <Gold.Chemscore.Internal_Hbond>
0.0000

> <Gold.Chemscore.DEClash>
0.1074

> <Gold.Chemscore.DEInternal>
1.7827

> <Gold.Chemscore.Rot>
1.5325

> <Gold.Chemscore.Internal.Correction>
   9.000000E+99

> <Gold.Chemscore.Hbonds>
donor molecule, donor type, donor heavy atom, donor atom, acceptor molecule, acceptor atom, score
      L1  H     9    30       P1  8028  0.89
      L1  H    12    31       P1  8028  0.52
      P1  H  8022  8030       L1    19  0.03

> <Gold.Chemscore.Hbond.Weighted>
-5.9410

> <Gold.Chemscore.Metal.Weighted>
-0.0000

> <Gold.Chemscore.Lipo.Weighted>
-11.2870

> <Gold.Chemscore.Internal_Hbond.Weighted>
0.0000

> <Gold.Chemscore.DEClash.Weighted>
0.1074

> <Gold.Chemscore.DEInternal.Weighted>
1.7827

> <Gold.Chemscore.Rot.Weighted>
3.9233

> <Gold.Chemscore.Internal.Correction.Weighted>
   9.000000E+99

> <Gold.Protein.RotatedTorsions>
[ 6907 6896 6895 6894 ] final  134.46 input  -60.11 | X-H torsion
[ 7974 7965 7964 7962 ] final   12.90 input  175.53 | X-H torsion
[ 8008 7997 7996 7995 ] final   70.38 input   59.86 | X-H torsion
[ 10167 10162 10161 10158 ] final -112.62 input  -65.29 | X-H torsion
[ 10718 10713 10712 10709 ] final -108.72 input   66.30 | X-H torsion
[ 10763 10752 10751 10750 ] final  -12.51 input  -60.55 | X-H torsion
[ 11005 11000 10999 10996 ] final  125.09 input  -57.11 | X-H torsion

> <Gold.Protein.ActiveResidues>
 VAL166  LYS551  ARG553  GLY616  TRP617  ASP618  TYR619  PRO620  LYS621  CYS622 
 ASP623  PHE694  ASN695  SER759  ASP760  ASP761  ALA762  ILE779  LEU786  VAL792 
 PHE793  MET794  SER795  GLU796  ALA797  LYS798  CYS799  TRP800  GLU811  SER814 

> <Gold.Protein.RotatedAtoms>
  152.3110  133.5753  159.5680 H   0  0  0  0  0  0  0  0  0  0  0  0  # atno 6907 bound_to 6896
  150.7323  134.0152  159.3692 H   0  0  0  0  0  0  0  0  0  0  0  0  # atno 6908 bound_to 6896
  151.8045  135.0699  160.0455 H   0  0  0  0  0  0  0  0  0  0  0  0  # atno 6909 bound_to 6896
  146.2341  139.9268  142.8502 H   0  0  0  0  0  0  0  0  0  0  0  0  # atno 7974 bound_to 7965
  155.7379  140.3491  155.5090 H   0  0  0  0  0  0  0  0  0  0  0  0  # atno 8008 bound_to 7997
  155.9122  140.1052  157.1292 H   0  0  0  0  0  0  0  0  0  0  0  0  # atno 8009 bound_to 7997
  154.4057  140.1266  156.4558 H   0  0  0  0  0  0  0  0  0  0  0  0  # atno 8010 bound_to 7997
  140.1207  143.4446  152.1692 H   0  0  0  0  0  0  0  0  0  0  0  0  # atno 10167 bound_to 10162
  156.0500  130.5727  150.8000 H   0  0  0  0  0  0  0  0  0  0  0  0  # atno 10718 bound_to 10713
  153.4995  135.7017  153.5840 H   0  0  0  0  0  0  0  0  0  0  0  0  # atno 10763 bound_to 10752
  153.3977  135.3880  155.1967 H   0  0  0  0  0  0  0  0  0  0  0  0  # atno 10764 bound_to 10752
  154.8711  135.3874  154.4464 H   0  0  0  0  0  0  0  0  0  0  0  0  # atno 10765 bound_to 10752
  139.9390  134.9637  156.8506 H   0  0  0  0  0  0  0  0  0  0  0  0  # atno 11005 bound_to 11000
  145.2083  140.9884  143.4115 LP  0  0  0  0  0  0  0  0  0  0  0  0  # atno 17320 bound_to 7965
  144.9713  139.3877  143.6307 LP  0  0  0  0  0  0  0  0  0  0  0  0  # atno 17321 bound_to 7965
  139.5570  144.7380  151.4265 LP  0  0  0  0  0  0  0  0  0  0  0  0  # atno 17342 bound_to 10162
  140.6873  143.7943  150.7205 LP  0  0  0  0  0  0  0  0  0  0  0  0  # atno 17343 bound_to 10162
  157.5416  131.0941  150.9819 LP  0  0  0  0  0  0  0  0  0  0  0  0  # atno 17370 bound_to 10713
  157.0101  130.5633  149.5320 LP  0  0  0  0  0  0  0  0  0  0  0  0  # atno 17371 bound_to 10713
  140.6002  134.0179  155.7534 LP  0  0  0  0  0  0  0  0  0  0  0  0  # atno 17394 bound_to 11000
  141.1016  133.9759  157.3069 LP  0  0  0  0  0  0  0  0  0  0  0  0  # atno 17395 bound_to 11000

$$$$
