AV-unprocessed.smi:1381|AV-procd|sdf|5616|dock5
  -GOLD-   22720 5223D 1   1.00000     0.00000
 Structure written by MMmdl.
 42 43  0  0  0  0  0  0  0  0  3 V2000
  150.6226  140.5554  154.9621 C   0  0  0  0  0  0  0  0  0  0  0  0
  150.8723  139.1319  154.5983 C   0  0  0  0  0  0  0  0  0  0  0  0
  150.0841  138.0160  154.6178 C   0  0  0  0  0  0  0  0  0  0  0  0
  150.9564  136.9981  154.1484 C   0  0  0  0  0  0  0  0  0  0  0  0
  150.5042  135.6577  154.0236 N   0  0  0  0  0  0  0  0  0  0  0  0
  149.7860  134.9260  154.8951 C   0  0  0  0  0  0  0  0  0  0  0  0
  149.4425  135.4072  155.9815 O   0  0  0  0  0  0  0  0  0  0  0  0
  149.5284  133.6731  154.4273 N   0  5  0  0  0  0  0  0  0  0  0  0
  149.1691  133.3553  153.0459 C   0  0  0  0  0  0  0  0  0  0  0  0
  147.6525  133.5217  152.8368 C   0  0  0  0  0  0  0  0  0  0  0  0
  147.1275  132.4870  151.9094 N   0  3  1  0  0  0  0  0  0  0  0  0
  146.7203  131.2330  152.5872 C   0  0  0  0  0  0  0  0  0  0  0  0
  146.2864  130.1820  151.5487 C   0  0  1  0  0  0  0  0  0  0  0  0
  145.7849  128.8916  152.2061 C   0  0  0  0  0  0  0  0  0  0  0  0
  145.2309  130.7184  150.7575 O   0  0  0  0  0  0  0  0  0  0  0  0
  145.6237  131.8785  150.0308 C   0  0  1  0  0  0  0  0  0  0  0  0
  144.4464  132.3132  149.1513 C   0  0  0  0  0  0  0  0  0  0  0  0
  146.0423  132.9772  151.0253 C   0  0  0  0  0  0  0  0  0  0  0  0
  152.1682  137.4538  153.8669 N   0  0  0  0  0  0  0  0  0  0  0  0
  152.1207  138.8229  154.1546 O   0  0  0  0  0  0  0  0  0  0  0  0
  149.5638  140.7988  154.8734 H   0  0  0  0  0  0  0  0  0  0  0  0
  151.1787  141.2283  154.3090 H   0  0  0  0  0  0  0  0  0  0  0  0
  150.9298  140.7493  155.9897 H   0  0  0  0  0  0  0  0  0  0  0  0
  149.0503  137.9414  154.9206 H   0  0  0  0  0  0  0  0  0  0  0  0
  150.7517  135.1936  153.1626 H   0  0  0  0  0  0  0  0  0  0  0  0
  149.7013  133.9787  152.3259 H   0  0  0  0  0  0  0  0  0  0  0  0
  149.4445  132.3300  152.7975 H   0  0  0  0  0  0  0  0  0  0  0  0
  147.1443  133.4602  153.8007 H   0  0  0  0  0  0  0  0  0  0  0  0
  147.4348  134.5190  152.4504 H   0  0  0  0  0  0  0  0  0  0  0  0
  147.5544  130.8491  153.1762 H   0  0  0  0  0  0  0  0  0  0  0  0
  145.9042  131.4417  153.2811 H   0  0  0  0  0  0  0  0  0  0  0  0
  147.1297  129.9351  150.9012 H   0  0  0  0  0  0  0  0  0  0  0  0
  146.5647  128.4319  152.8140 H   0  0  0  0  0  0  0  0  0  0  0  0
  145.4798  128.1645  151.4533 H   0  0  0  0  0  0  0  0  0  0  0  0
  144.9270  129.0836  152.8511 H   0  0  0  0  0  0  0  0  0  0  0  0
  146.4660  131.6282  149.3833 H   0  0  0  0  0  0  0  0  0  0  0  0
  144.7011  133.1947  148.5624 H   0  0  0  0  0  0  0  0  0  0  0  0
  143.5706  132.5548  149.7544 H   0  0  0  0  0  0  0  0  0  0  0  0
  144.1645  131.5207  148.4575 H   0  0  0  0  0  0  0  0  0  0  0  0
  145.1887  133.2833  151.6326 H   0  0  0  0  0  0  0  0  0  0  0  0
  146.3842  133.8595  150.4821 H   0  0  0  0  0  0  0  0  0  0  0  0
  147.9016  132.2453  151.3070 H   0  0  0  0  0  0  0  0  0  0  0  0
  1  2  1  0  0  0  0
  1 21  1  0  0  0  0
  1 22  1  0  0  0  0
  1 23  1  0  0  0  0
  2 20  1  0  0  0  0
  2  3  2  0  0  0  0
  3  4  1  0  0  0  0
  3 24  1  0  0  0  0
  4  5  1  0  0  0  0
  4 19  2  0  0  0  0
  5  6  1  0  0  0  0
  5 25  1  0  0  0  0
  6  7  2  0  0  0  0
  6  8  1  0  0  0  0
  8  9  1  0  0  0  0
  9 10  1  0  0  0  0
  9 26  1  0  0  0  0
  9 27  1  0  0  0  0
 10 11  1  0  0  0  0
 10 28  1  0  0  0  0
 10 29  1  0  0  0  0
 11 18  1  0  0  0  0
 11 12  1  0  0  0  0
 11 42  1  0  0  0  0
 12 13  1  0  0  0  0
 12 30  1  0  0  0  0
 12 31  1  0  0  0  0
 13 14  1  0  0  0  0
 13 15  1  0  0  0  0
 13 32  1  0  0  0  0
 14 33  1  0  0  0  0
 14 34  1  0  0  0  0
 14 35  1  0  0  0  0
 15 16  1  0  0  0  0
 16 17  1  0  0  0  0
 16 18  1  0  0  0  0
 16 36  1  0  0  0  0
 17 37  1  0  0  0  0
 17 38  1  0  0  0  0
 17 39  1  0  0  0  0
 18 40  1  0  0  0  0
 18 41  1  0  0  0  0
 19 20  1  0  0  0  0
M  CHG  1   8  -1
M  CHG  1  11   1
M  END
> <s_m_source_file>
AV-unprocessed.smi

> <i_m_source_file_index>
1381

> <i_lp_mmshare_version>
43012

> <i_f3d_flags>
0

> <s_epik_input>
W0NIM11jMVtjSF1jKG5vMSlbTkhdQyg9TylbTkhdW0NIMl1bQ0gyXU4yW0NIMl1bQ0BASF0oW0NIM10pT1tDQEBIXShbQ0gzXSlbQ0gyXTI=

> <s_epik_cmdline>
J2VwaWtfcHl0aG9uJywgJy1waCcsICc3LjAnLCAnLXRuJywgJzgnLCAnLW1hJywgJzIwMCcsICctbWV0YWxfYmluZGluZycsICctaW1hZScsICc8aW5maWxlLm1hZT4nLCAnLW9tYWUnLCAnPG91dGZpbGUubWFlPic=

> <r_epik_Ionization_Penalty>
6.8073

> <r_epik_Ionization_Penalty_Charging>
6.80729

> <r_epik_Ionization_Penalty_Neutral>
5.65391e-06

> <r_epik_State_Penalty>
7.47323

> <r_epik_Charging_Adjusted_Penalty>
14.2805

> <i_epik_Tot_Q>
0

> <i_epik_Tot_abs_Q>
2

> <r_epik_Metal_State_Penalty>
3.40035

> <b_epik_Metal_Only>
1

> <s_lp_Force_Field>
OPLS_2005

> <r_lp_Energy>
11.4992

> <b_lp_Chiralities_Consistent>
1

> <s_lp_Variant>
AV-unprocessed.smi:1381-15

> <Gold.Version>
5.8.1

> <Gold.Id.Protein>
6NUR|6NUR_protein|mol2

> <Gold.PLP.Fitness>
38.0100

> <Gold.PLP.PLP>
-35.5449

> <Gold.PLP.part.hbond>
-4.0993

> <Gold.PLP.part.metal>
0.0000

> <Gold.PLP.part.buried>
-1.1602

> <Gold.PLP.part.nonpolar>
-30.5105

> <Gold.PLP.part.repulsive>
0.5118

> <Gold.PLP.ligand.clash>
0.0000

> <Gold.PLP.ligand.torsion>
1.5291

> <Gold.PLP.Chemscore.Hbond>
1.8083

> <Gold.PLP.Chemscore.CHOScore>
0.0000

> <Gold.PLP.Chemscore.Metal>
0.0000

> <Gold.Chemscore.Hbonds>
donor molecule, donor type, donor heavy atom, donor atom, acceptor molecule, acceptor atom, score
      L1  H     5    25       P1  7949  0.18
      L1  H    11    42       P1 10747  0.99
      P1  H 10752 10764       L1    19  0.58

> <Gold.PLP.Chemscore.Internal.Correction>
0.0985

> <Gold.Rescore>
     Score         DG    S(hbond)    S(metal)    S(lipo)     H(rot)  DE(clash)    DE(int)     intcor
     12.90     -15.39       1.07        0.00      88.72       1.58       0.88       1.61       ----

> <Gold.Chemscore.Fitness>
12.8980

> <Gold.Chemscore.DG>
-15.3880

> <Gold.Chemscore.ZeroCoef>
-5.4800

> <Gold.Chemscore.Hbond>
1.0689

> <Gold.Chemscore.Metal>
0.0000

> <Gold.Chemscore.Lipo>
88.7230

> <Gold.Chemscore.Internal_Hbond>
0.0000

> <Gold.Chemscore.DEClash>
0.8829

> <Gold.Chemscore.DEInternal>
1.6071

> <Gold.Chemscore.Rot>
1.5792

> <Gold.Chemscore.Internal.Correction>
   9.000000E+99

> <Gold.Chemscore.Hbonds>
donor molecule, donor type, donor heavy atom, donor atom, acceptor molecule, acceptor atom, score
      L1  H    11    42       P1 10747  0.88
      P1  H 10752 10764       L1    19  0.05

> <Gold.Chemscore.Hbond.Weighted>
-3.5703

> <Gold.Chemscore.Metal.Weighted>
-0.0000

> <Gold.Chemscore.Lipo.Weighted>
-10.3806

> <Gold.Chemscore.Internal_Hbond.Weighted>
0.0000

> <Gold.Chemscore.DEClash.Weighted>
0.8829

> <Gold.Chemscore.DEInternal.Weighted>
1.6071

> <Gold.Chemscore.Rot.Weighted>
4.0428

> <Gold.Chemscore.Internal.Correction.Weighted>
   9.000000E+99

> <Gold.Protein.RotatedTorsions>
[ 6907 6896 6895 6894 ] final  150.54 input  -60.11 | X-H torsion
[ 7974 7965 7964 7962 ] final  133.41 input  175.53 | X-H torsion
[ 8008 7997 7996 7995 ] final  138.63 input   59.86 | X-H torsion
[ 10167 10162 10161 10158 ] final   82.33 input  -65.29 | X-H torsion
[ 10718 10713 10712 10709 ] final  -49.97 input   66.30 | X-H torsion
[ 10763 10752 10751 10750 ] final  -88.01 input  -60.55 | X-H torsion
[ 11005 11000 10999 10996 ] final -128.42 input  -57.11 | X-H torsion

> <Gold.Protein.ActiveResidues>
 VAL166  LYS551  ARG553  GLY616  TRP617  ASP618  TYR619  PRO620  LYS621  CYS622 
 ASP623  PHE694  ASN695  SER759  ASP760  ASP761  ALA762  ILE779  LEU786  VAL792 
 PHE793  MET794  SER795  GLU796  ALA797  LYS798  CYS799  TRP800  GLU811  SER814 

> <Gold.Protein.RotatedAtoms>
  152.1130  133.4311  159.4639 H   0  0  0  0  0  0  0  0  0  0  0  0  # atno 6907 bound_to 6896
  150.6868  134.2626  159.4564 H   0  0  0  0  0  0  0  0  0  0  0  0  # atno 6908 bound_to 6896
  152.0496  134.9661  160.0625 H   0  0  0  0  0  0  0  0  0  0  0  0  # atno 6909 bound_to 6896
  144.9868  139.4447  143.5359 H   0  0  0  0  0  0  0  0  0  0  0  0  # atno 7974 bound_to 7965
  156.2996  140.2388  156.4105 H   0  0  0  0  0  0  0  0  0  0  0  0  # atno 8008 bound_to 7997
  154.8445  140.0427  157.1584 H   0  0  0  0  0  0  0  0  0  0  0  0  # atno 8009 bound_to 7997
  154.9066  140.2984  155.5292 H   0  0  0  0  0  0  0  0  0  0  0  0  # atno 8010 bound_to 7997
  139.9299  144.6159  150.8355 H   0  0  0  0  0  0  0  0  0  0  0  0  # atno 10167 bound_to 10162
  156.1843  130.4151  149.9461 H   0  0  0  0  0  0  0  0  0  0  0  0  # atno 10718 bound_to 10713
  154.6399  135.5392  153.7777 H   0  0  0  0  0  0  0  0  0  0  0  0  # atno 10763 bound_to 10752
  153.0328  135.6456  154.1175 H   0  0  0  0  0  0  0  0  0  0  0  0  # atno 10764 bound_to 10752
  154.1100  135.2927  155.3212 H   0  0  0  0  0  0  0  0  0  0  0  0  # atno 10765 bound_to 10752
  140.9517  134.1056  157.4055 H   0  0  0  0  0  0  0  0  0  0  0  0  # atno 11005 bound_to 11000
  146.3422  139.9175  142.8771 LP  0  0  0  0  0  0  0  0  0  0  0  0  # atno 17320 bound_to 7965
  145.2342  140.9985  143.3973 LP  0  0  0  0  0  0  0  0  0  0  0  0  # atno 17321 bound_to 7965
  140.7640  143.3238  151.2563 LP  0  0  0  0  0  0  0  0  0  0  0  0  # atno 17342 bound_to 10162
  139.6791  143.9886  152.2798 LP  0  0  0  0  0  0  0  0  0  0  0  0  # atno 17343 bound_to 10162
  156.7222  130.9011  151.3619 LP  0  0  0  0  0  0  0  0  0  0  0  0  # atno 17370 bound_to 10713
  157.6889  130.9213  150.0459 LP  0  0  0  0  0  0  0  0  0  0  0  0  # atno 17371 bound_to 10713
  139.8850  135.0068  156.6403 LP  0  0  0  0  0  0  0  0  0  0  0  0  # atno 17394 bound_to 11000
  140.7592  133.8831  155.8405 LP  0  0  0  0  0  0  0  0  0  0  0  0  # atno 17395 bound_to 11000

$$$$
