AV-unprocessed.smi:1769|AV-procd|sdf|7152|dock6
  -GOLD-   22720 8393D 1   1.00000     0.00000
 Structure written by MMmdl.
 41 42  0  0  0  0  0  0  0  0  1 V2000
  154.0756  141.3179  160.2337 C   0  0  0  0  0  0  0  0  0  0  0  0
  153.1012  140.6638  159.2514 C   0  0  0  0  0  0  0  0  0  0  0  0
  153.3992  139.5628  158.7877 O   0  0  0  0  0  0  0  0  0  0  0  0
  151.9569  141.3109  158.9237 N   0  0  0  0  0  0  0  0  0  0  0  0
  151.5845  142.6594  159.3704 C   0  0  0  0  0  0  0  0  0  0  0  0
  151.6876  143.6219  158.1733 C   0  0  0  0  0  0  0  0  0  0  0  0
  150.8191  143.1348  156.9969 C   0  0  0  0  0  0  0  0  0  0  0  0
  151.0986  141.6521  156.6542 C   0  0  2  0  0  0  0  0  0  0  0  0
  150.1357  141.1271  155.5824 C   0  0  0  0  0  0  0  0  0  0  0  0
  150.3398  140.0381  155.0451 O   0  0  0  0  0  0  0  0  0  0  0  0
  149.1050  141.9266  155.2633 N   0  0  0  0  0  0  0  0  0  0  0  0
  148.1273  141.6713  154.2080 C   0  0  0  0  0  0  0  0  0  0  0  0
  146.6934  141.5550  154.7614 C   0  0  0  0  0  0  0  0  0  0  0  0
  145.8771  142.8268  154.6087 C   0  0  0  0  0  0  0  0  0  0  0  0
  145.7350  143.4533  153.3529 C   0  0  0  0  0  0  0  0  0  0  0  0
  144.9394  144.6108  153.2582 C   0  0  0  0  0  0  0  0  0  0  0  0
  144.3227  145.0977  154.4279 C   0  0  0  0  0  0  0  0  0  0  0  0
  144.4571  144.5108  155.6366 N   0  0  0  0  0  0  0  0  0  0  0  0
  145.2186  143.3987  155.7178 C   0  0  0  0  0  0  0  0  0  0  0  0
  151.0084  140.7889  157.9326 C   0  0  0  0  0  0  0  0  0  0  0  0
  154.4092  142.2869  159.8612 H   0  0  0  0  0  0  0  0  0  0  0  0
  154.9592  140.6939  160.3723 H   0  0  0  0  0  0  0  0  0  0  0  0
  153.6076  141.4539  161.2089 H   0  0  0  0  0  0  0  0  0  0  0  0
  150.5603  142.6410  159.7454 H   0  0  0  0  0  0  0  0  0  0  0  0
  152.1888  143.0289  160.1977 H   0  0  0  0  0  0  0  0  0  0  0  0
  151.3824  144.6253  158.4711 H   0  0  0  0  0  0  0  0  0  0  0  0
  152.7281  143.6957  157.8545 H   0  0  0  0  0  0  0  0  0  0  0  0
  149.7690  143.2637  157.2639 H   0  0  0  0  0  0  0  0  0  0  0  0
  150.9930  143.7647  156.1235 H   0  0  0  0  0  0  0  0  0  0  0  0
  152.1169  141.5810  156.2662 H   0  0  0  0  0  0  0  0  0  0  0  0
  149.0188  142.8027  155.7580 H   0  0  0  0  0  0  0  0  0  0  0  0
  148.1712  142.4498  153.4444 H   0  0  0  0  0  0  0  0  0  0  0  0
  148.4014  140.7427  153.7072 H   0  0  0  0  0  0  0  0  0  0  0  0
  146.1715  140.7417  154.2559 H   0  0  0  0  0  0  0  0  0  0  0  0
  146.7287  141.2810  155.8164 H   0  0  0  0  0  0  0  0  0  0  0  0
  146.2133  143.0468  152.4739 H   0  0  0  0  0  0  0  0  0  0  0  0
  144.8012  145.1107  152.3108 H   0  0  0  0  0  0  0  0  0  0  0  0
  143.7046  145.9825  154.3914 H   0  0  0  0  0  0  0  0  0  0  0  0
  145.2983  142.9466  156.6955 H   0  0  0  0  0  0  0  0  0  0  0  0
  151.1907  139.7396  157.6958 H   0  0  0  0  0  0  0  0  0  0  0  0
  150.0005  140.8233  158.3500 H   0  0  0  0  0  0  0  0  0  0  0  0
  1  2  1  0  0  0  0
  1 21  1  0  0  0  0
  1 22  1  0  0  0  0
  1 23  1  0  0  0  0
  2  3  2  0  0  0  0
  2  4  1  0  0  0  0
  4 20  1  0  0  0  0
  4  5  1  0  0  0  0
  5  6  1  0  0  0  0
  5 24  1  0  0  0  0
  5 25  1  0  0  0  0
  6  7  1  0  0  0  0
  6 26  1  0  0  0  0
  6 27  1  0  0  0  0
  7  8  1  0  0  0  0
  7 28  1  0  0  0  0
  7 29  1  0  0  0  0
  8  9  1  0  0  0  0
  8 20  1  0  0  0  0
  8 30  1  0  0  0  0
  9 10  2  0  0  0  0
  9 11  1  0  0  0  0
 11 12  1  0  0  0  0
 11 31  1  0  0  0  0
 12 13  1  0  0  0  0
 12 32  1  0  0  0  0
 12 33  1  0  0  0  0
 13 14  1  0  0  0  0
 13 34  1  0  0  0  0
 13 35  1  0  0  0  0
 14 19  1  0  0  0  0
 14 15  2  0  0  0  0
 15 16  1  0  0  0  0
 15 36  1  0  0  0  0
 16 17  2  0  0  0  0
 16 37  1  0  0  0  0
 17 18  1  0  0  0  0
 17 38  1  0  0  0  0
 18 19  2  0  0  0  0
 19 39  1  0  0  0  0
 20 40  1  0  0  0  0
 20 41  1  0  0  0  0
M  END
> <s_m_source_file>
AV-unprocessed.smi

> <i_m_source_file_index>
1769

> <i_lp_mmshare_version>
43012

> <i_f3d_flags>
0

> <s_epik_input>
W0NIM11DKD1PKU4xW0NIMl1bQ0gyXVtDSDJdW0NASF0oW0NIMl0xKUMoPU8pW05IXVtDSDJdW0NIMl1jMltjSF1bY0hdW2NIXW5bY0hdMg==

> <s_epik_cmdline>
J2VwaWtfcHl0aG9uJywgJy1waCcsICc3LjAnLCAnLXRuJywgJzgnLCAnLW1hJywgJzIwMCcsICctbWV0YWxfYmluZGluZycsICctaW1hZScsICc8aW5maWxlLm1hZT4nLCAnLW9tYWUnLCAnPG91dGZpbGUubWFlPic=

> <r_epik_Ionization_Penalty>
0.0134099

> <r_epik_Ionization_Penalty_Charging>
0

> <r_epik_Ionization_Penalty_Neutral>
0.0134099

> <r_epik_State_Penalty>
0.010434

> <r_epik_Charging_Adjusted_Penalty>
0.010434

> <i_epik_Tot_Q>
0

> <i_epik_Tot_abs_Q>
0

> <r_epik_Metal_State_Penalty>
0.0102025

> <b_epik_Metal_Only>
0

> <s_lp_Force_Field>
OPLS_2005

> <r_lp_Energy>
22.8084

> <b_lp_Chiralities_Consistent>
1

> <s_lp_Variant>
AV-unprocessed.smi:1769-2

> <Gold.Version>
5.8.1

> <Gold.Id.Protein>
6NUR|6NUR_protein|mol2

> <Gold.PLP.Fitness>
49.3246

> <Gold.PLP.PLP>
-42.8227

> <Gold.PLP.part.hbond>
-3.0000

> <Gold.PLP.part.metal>
0.0000

> <Gold.PLP.part.buried>
-4.6158

> <Gold.PLP.part.nonpolar>
-34.6029

> <Gold.PLP.part.repulsive>
0.3396

> <Gold.PLP.ligand.clash>
1.0525

> <Gold.PLP.ligand.torsion>
0.4867

> <Gold.PLP.Chemscore.Hbond>
2.8320

> <Gold.PLP.Chemscore.CHOScore>
0.0000

> <Gold.PLP.Chemscore.Metal>
0.0000

> <Gold.Chemscore.Hbonds>
donor molecule, donor type, donor heavy atom, donor atom, acceptor molecule, acceptor atom, score
      L1  H    11    31       P1  8028  0.94
      P1  H  7989  7998       L1    10  0.44
      P1  H  7997  8009       L1     3  0.55

> <Gold.PLP.Chemscore.Internal.Correction>
0.0318

> <Gold.Rescore>
     Score         DG    S(hbond)    S(metal)    S(lipo)     H(rot)  DE(clash)    DE(int)     intcor
     18.33     -19.11       1.95        0.00      94.16       1.52       0.34       0.44       ----

> <Gold.Chemscore.Fitness>
18.3331

> <Gold.Chemscore.DG>
-19.1110

> <Gold.Chemscore.ZeroCoef>
-5.4800

> <Gold.Chemscore.Hbond>
1.9482

> <Gold.Chemscore.Metal>
0.0000

> <Gold.Chemscore.Lipo>
94.1595

> <Gold.Chemscore.Internal_Hbond>
0.0000

> <Gold.Chemscore.DEClash>
0.3407

> <Gold.Chemscore.DEInternal>
0.4372

> <Gold.Chemscore.Rot>
1.5205

> <Gold.Chemscore.Internal.Correction>
   9.000000E+99

> <Gold.Chemscore.Hbonds>
donor molecule, donor type, donor heavy atom, donor atom, acceptor molecule, acceptor atom, score
      L1  H    11    31       P1  8028  0.91
      P1  H  7989  7998       L1    10  0.05
      P1  H  7997  8009       L1     3  0.24

> <Gold.Chemscore.Hbond.Weighted>
-6.5069

> <Gold.Chemscore.Metal.Weighted>
-0.0000

> <Gold.Chemscore.Lipo.Weighted>
-11.0167

> <Gold.Chemscore.Internal_Hbond.Weighted>
0.0000

> <Gold.Chemscore.DEClash.Weighted>
0.3407

> <Gold.Chemscore.DEInternal.Weighted>
0.4372

> <Gold.Chemscore.Rot.Weighted>
3.8926

> <Gold.Chemscore.Internal.Correction.Weighted>
   9.000000E+99

> <Gold.Protein.RotatedTorsions>
[ 6907 6896 6895 6894 ] final  -58.15 input  -60.11 | X-H torsion
[ 7974 7965 7964 7962 ] final  169.09 input  175.53 | X-H torsion
[ 8008 7997 7996 7995 ] final  128.05 input   59.86 | X-H torsion
[ 10167 10162 10161 10158 ] final   44.25 input  -65.29 | X-H torsion
[ 10718 10713 10712 10709 ] final  -88.63 input   66.30 | X-H torsion
[ 10763 10752 10751 10750 ] final  -96.84 input  -60.55 | X-H torsion
[ 11005 11000 10999 10996 ] final   36.75 input  -57.11 | X-H torsion

> <Gold.Protein.ActiveResidues>
 VAL166  LYS551  ARG553  GLY616  TRP617  ASP618  TYR619  PRO620  LYS621  CYS622 
 ASP623  PHE694  ASN695  SER759  ASP760  ASP761  ALA762  ILE779  LEU786  VAL792 
 PHE793  MET794  SER795  GLU796  ALA797  LYS798  CYS799  TRP800  GLU811  SER814 

> <Gold.Protein.RotatedAtoms>
  150.8030  134.7136  159.6617 H   0  0  0  0  0  0  0  0  0  0  0  0  # atno 6907 bound_to 6896
  152.4148  134.6058  160.0022 H   0  0  0  0  0  0  0  0  0  0  0  0  # atno 6908 bound_to 6896
  151.6291  133.3296  159.3141 H   0  0  0  0  0  0  0  0  0  0  0  0  # atno 6909 bound_to 6896
  144.7366  139.9003  143.6409 H   0  0  0  0  0  0  0  0  0  0  0  0  # atno 7974 bound_to 7965
  156.2906  140.2654  156.2373 H   0  0  0  0  0  0  0  0  0  0  0  0  # atno 8008 bound_to 7997
  155.0012  140.0388  157.2379 H   0  0  0  0  0  0  0  0  0  0  0  0  # atno 8009 bound_to 7997
  154.7599  140.2759  155.6227 H   0  0  0  0  0  0  0  0  0  0  0  0  # atno 8010 bound_to 7997
  140.3361  144.2528  150.6161 H   0  0  0  0  0  0  0  0  0  0  0  0  # atno 10167 bound_to 10162
  155.9983  130.4842  150.5048 H   0  0  0  0  0  0  0  0  0  0  0  0  # atno 10718 bound_to 10713
  154.7275  135.5069  153.8910 H   0  0  0  0  0  0  0  0  0  0  0  0  # atno 10763 bound_to 10752
  153.0918  135.6661  153.9847 H   0  0  0  0  0  0  0  0  0  0  0  0  # atno 10764 bound_to 10752
  153.9656  135.3043  155.3410 H   0  0  0  0  0  0  0  0  0  0  0  0  # atno 10765 bound_to 10752
  140.2294  134.3545  155.7970 H   0  0  0  0  0  0  0  0  0  0  0  0  # atno 11005 bound_to 11000
  146.1076  139.4078  143.0307 LP  0  0  0  0  0  0  0  0  0  0  0  0  # atno 17320 bound_to 7965
  145.7489  140.9980  143.1261 LP  0  0  0  0  0  0  0  0  0  0  0  0  # atno 17321 bound_to 7965
  140.5352  143.2235  151.8174 LP  0  0  0  0  0  0  0  0  0  0  0  0  # atno 17342 bound_to 10162
  139.4848  144.4670  151.9471 LP  0  0  0  0  0  0  0  0  0  0  0  0  # atno 17343 bound_to 10162
  157.3028  131.0648  151.2056 LP  0  0  0  0  0  0  0  0  0  0  0  0  # atno 17370 bound_to 10713
  157.3029  130.6852  149.6174 LP  0  0  0  0  0  0  0  0  0  0  0  0  # atno 17371 bound_to 10713
  141.2218  133.7237  156.8707 LP  0  0  0  0  0  0  0  0  0  0  0  0  # atno 17394 bound_to 11000
  140.1766  134.9063  157.2898 LP  0  0  0  0  0  0  0  0  0  0  0  0  # atno 17395 bound_to 11000

$$$$
