AV-unprocessed.smi:1721|AV-procd|sdf|6939|dock4
  -GOLD-   22720 8143D 1   1.00000     0.00000
 Structure written by MMmdl.
 44 46  0  0  0  0  0  0  0  0  2 V2000
  151.3882  138.1025  154.5786 C   0  0  0  0  0  0  0  0  0  0  0  0
  150.0596  138.1287  154.0677 O   0  0  0  0  0  0  0  0  0  0  0  0
  149.3630  139.3218  154.1030 C   0  0  0  0  0  0  0  0  0  0  0  0
  149.9678  140.4060  154.6500 N   0  0  0  0  0  0  0  0  0  0  0  0
  149.2876  141.5702  154.6890 C   0  0  0  0  0  0  0  0  0  0  0  0
  147.9779  141.7139  154.1959 C   0  0  0  0  0  0  0  0  0  0  0  0
  147.3485  140.5910  153.6276 C   0  0  0  0  0  0  0  0  0  0  0  0
  148.0556  139.3656  153.5647 C   0  0  0  0  0  0  0  0  0  0  0  0
  147.5082  138.1679  153.0278 N   0  0  0  0  0  0  0  0  0  0  0  0
  146.2329  137.9090  152.6937 C   0  0  0  0  0  0  0  0  0  0  0  0
  145.2917  138.6934  152.8085 O   0  0  0  0  0  0  0  0  0  0  0  0
  146.1075  136.6770  152.1797 N   0  0  0  0  0  0  0  0  0  0  0  0
  144.8578  136.0829  151.7064 C   0  0  2  0  0  0  0  0  0  0  0  0
  143.8206  135.8926  152.8302 C   0  0  0  0  0  0  0  0  0  0  0  0
  143.1884  134.5257  152.5484 C   0  0  0  0  0  0  0  0  0  0  0  0
  144.2985  133.7641  151.9646 N   0  3  1  0  0  0  0  0  0  0  0  0
  144.0059  132.4608  151.3342 C   0  0  0  0  0  0  0  0  0  0  0  0
  145.3444  131.7837  150.9683 C   0  0  0  0  0  0  0  0  0  0  0  0
  146.2589  132.7077  150.1322 C   0  0  0  0  0  0  0  0  0  0  0  0
  146.4196  134.0987  150.7829 C   0  0  0  0  0  0  0  0  0  0  0  0
  145.0240  134.6820  151.0692 C   0  0  2  0  0  0  0  0  0  0  0  0
  151.7936  137.0961  154.4768 H   0  0  0  0  0  0  0  0  0  0  0  0
  151.4138  138.3641  155.6374 H   0  0  0  0  0  0  0  0  0  0  0  0
  152.0416  138.7795  154.0264 H   0  0  0  0  0  0  0  0  0  0  0  0
  149.8011  142.4106  155.1321 H   0  0  0  0  0  0  0  0  0  0  0  0
  147.4658  142.6628  154.2564 H   0  0  0  0  0  0  0  0  0  0  0  0
  146.3367  140.6880  153.2661 H   0  0  0  0  0  0  0  0  0  0  0  0
  148.1835  137.4539  152.7966 H   0  0  0  0  0  0  0  0  0  0  0  0
  146.9369  136.1043  152.1188 H   0  0  0  0  0  0  0  0  0  0  0  0
  144.4180  136.7461  150.9586 H   0  0  0  0  0  0  0  0  0  0  0  0
  144.3152  135.8650  153.8026 H   0  0  0  0  0  0  0  0  0  0  0  0
  143.0818  136.6942  152.8609 H   0  0  0  0  0  0  0  0  0  0  0  0
  142.7940  134.0501  153.4469 H   0  0  0  0  0  0  0  0  0  0  0  0
  142.3807  134.6176  151.8204 H   0  0  0  0  0  0  0  0  0  0  0  0
  143.4440  131.8337  152.0274 H   0  0  0  0  0  0  0  0  0  0  0  0
  143.3850  132.6020  150.4481 H   0  0  0  0  0  0  0  0  0  0  0  0
  145.8652  131.5053  151.8854 H   0  0  0  0  0  0  0  0  0  0  0  0
  145.1585  130.8544  150.4289 H   0  0  0  0  0  0  0  0  0  0  0  0
  147.2356  132.2434  149.9945 H   0  0  0  0  0  0  0  0  0  0  0  0
  145.8330  132.8256  149.1348 H   0  0  0  0  0  0  0  0  0  0  0  0
  146.9953  134.0166  151.7060 H   0  0  0  0  0  0  0  0  0  0  0  0
  146.9797  134.7525  150.1141 H   0  0  0  0  0  0  0  0  0  0  0  0
  144.4779  134.7134  150.1236 H   0  0  0  0  0  0  0  0  0  0  0  0
  144.9256  133.5748  152.7334 H   0  0  0  0  0  0  0  0  0  0  0  0
  1  2  1  0  0  0  0
  1 22  1  0  0  0  0
  1 23  1  0  0  0  0
  1 24  1  0  0  0  0
  2  3  1  0  0  0  0
  3  8  1  0  0  0  0
  3  4  2  0  0  0  0
  4  5  1  0  0  0  0
  5  6  2  0  0  0  0
  5 25  1  0  0  0  0
  6  7  1  0  0  0  0
  6 26  1  0  0  0  0
  7  8  2  0  0  0  0
  7 27  1  0  0  0  0
  8  9  1  0  0  0  0
  9 10  1  0  0  0  0
  9 28  1  0  0  0  0
 10 11  2  0  0  0  0
 10 12  1  0  0  0  0
 12 13  1  0  0  0  0
 12 29  1  0  0  0  0
 13 21  1  0  0  0  0
 13 14  1  0  0  0  0
 13 30  1  0  0  0  0
 14 15  1  0  0  0  0
 14 31  1  0  0  0  0
 14 32  1  0  0  0  0
 15 16  1  0  0  0  0
 15 33  1  0  0  0  0
 15 34  1  0  0  0  0
 16 21  1  0  0  0  0
 16 17  1  0  0  0  0
 16 44  1  0  0  0  0
 17 18  1  0  0  0  0
 17 35  1  0  0  0  0
 17 36  1  0  0  0  0
 18 19  1  0  0  0  0
 18 37  1  0  0  0  0
 18 38  1  0  0  0  0
 19 20  1  0  0  0  0
 19 39  1  0  0  0  0
 19 40  1  0  0  0  0
 20 21  1  0  0  0  0
 20 41  1  0  0  0  0
 20 42  1  0  0  0  0
 21 43  1  0  0  0  0
M  CHG  1  16   1
M  END
> <s_m_source_file>
AV-unprocessed.smi

> <i_m_source_file_index>
1721

> <i_lp_mmshare_version>
43012

> <i_f3d_flags>
0

> <s_epik_input>
W0NIM11PYzFuW2NIXVtjSF1bY0hdYzFbTkhdQyg9TylbTkhdW0NASF0oW0NIMl1bQ0gyXTIpW0NAQEhdKE4yMylbQ0gyXVtDSDJdW0NIMl1bQ0gyXTM=

> <s_epik_cmdline>
J2VwaWtfcHl0aG9uJywgJy1waCcsICc3LjAnLCAnLXRuJywgJzgnLCAnLW1hJywgJzIwMCcsICctbWV0YWxfYmluZGluZycsICctaW1hZScsICc8aW5maWxlLm1hZT4nLCAnLW9tYWUnLCAnPG91dGZpbGUubWFlPic=

> <r_lp_tautomer_probability>
1

> <r_epik_Ionization_Penalty>
0.00104793

> <r_epik_Ionization_Penalty_Charging>
0.000974069

> <r_epik_Ionization_Penalty_Neutral>
7.38649e-05

> <r_epik_State_Penalty>
0.000633842

> <r_epik_Charging_Adjusted_Penalty>
0.00160791

> <i_epik_Tot_Q>
1

> <i_epik_Tot_abs_Q>
1

> <r_epik_Metal_State_Penalty>
-0

> <b_epik_Metal_Only>
0

> <s_lp_Force_Field>
OPLS_2005

> <r_lp_Energy>
43.7376

> <b_lp_Chiralities_Consistent>
1

> <s_lp_Variant>
AV-unprocessed.smi:1721-5

> <Gold.Version>
5.8.1

> <Gold.Id.Protein>
6NUR|6NUR_protein|mol2

> <Gold.PLP.Fitness>
45.6114

> <Gold.PLP.PLP>
-34.7068

> <Gold.PLP.part.hbond>
-3.0000

> <Gold.PLP.part.metal>
0.0000

> <Gold.PLP.part.buried>
-3.1914

> <Gold.PLP.part.nonpolar>
-33.1300

> <Gold.PLP.part.repulsive>
5.4349

> <Gold.PLP.ligand.clash>
0.0000

> <Gold.PLP.ligand.torsion>
0.0539

> <Gold.PLP.Chemscore.Hbond>
2.7066

> <Gold.PLP.Chemscore.CHOScore>
0.9637

> <Gold.PLP.Chemscore.Metal>
0.0000

> <Gold.Chemscore.Hbonds>
donor molecule, donor type, donor heavy atom, donor atom, acceptor molecule, acceptor atom, score
      L1  H     9    28       P1  7948  1.00
      L1  H    12    29       P1  7948  0.85
      P1  H  7989  7998       L1     4  0.84
      L1  C     5    25       P1  8028  0.96

> <Gold.PLP.Chemscore.Internal.Correction>
0.0012

> <Gold.Rescore>
     Score         DG    S(hbond)    S(metal)    S(lipo)     H(rot)  DE(clash)    DE(int)     intcor
     16.36     -19.48       2.16        0.00      85.39       1.25       1.85       1.27       ----

> <Gold.Chemscore.Fitness>
16.3602

> <Gold.Chemscore.DG>
-19.4809

> <Gold.Chemscore.ZeroCoef>
-5.4800

> <Gold.Chemscore.Hbond>
2.1569

> <Gold.Chemscore.Metal>
0.0000

> <Gold.Chemscore.Lipo>
85.3870

> <Gold.Chemscore.Internal_Hbond>
0.0000

> <Gold.Chemscore.DEClash>
1.8479

> <Gold.Chemscore.DEInternal>
1.2728

> <Gold.Chemscore.Rot>
1.2474

> <Gold.Chemscore.Internal.Correction>
   9.000000E+99

> <Gold.Chemscore.Hbonds>
donor molecule, donor type, donor heavy atom, donor atom, acceptor molecule, acceptor atom, score
      L1  H     9    28       P1  7948  0.99
      L1  H    12    29       P1  7948  0.79
      P1  H  7989  7998       L1     4  0.18

> <Gold.Chemscore.Hbond.Weighted>
-7.2040

> <Gold.Chemscore.Metal.Weighted>
-0.0000

> <Gold.Chemscore.Lipo.Weighted>
-9.9903

> <Gold.Chemscore.Internal_Hbond.Weighted>
0.0000

> <Gold.Chemscore.DEClash.Weighted>
1.8479

> <Gold.Chemscore.DEInternal.Weighted>
1.2728

> <Gold.Chemscore.Rot.Weighted>
3.1934

> <Gold.Chemscore.Internal.Correction.Weighted>
   9.000000E+99

> <Gold.Protein.RotatedTorsions>
[ 6907 6896 6895 6894 ] final -155.20 input  -60.11 | X-H torsion
[ 7974 7965 7964 7962 ] final  -12.95 input  175.53 | X-H torsion
[ 8008 7997 7996 7995 ] final   94.39 input   59.86 | X-H torsion
[ 10167 10162 10161 10158 ] final   57.65 input  -65.29 | X-H torsion
[ 10718 10713 10712 10709 ] final  -19.22 input   66.30 | X-H torsion
[ 10763 10752 10751 10750 ] final  -89.78 input  -60.55 | X-H torsion
[ 11005 11000 10999 10996 ] final  106.32 input  -57.11 | X-H torsion

> <Gold.Protein.ActiveResidues>
 VAL166  LYS551  ARG553  GLY616  TRP617  ASP618  TYR619  PRO620  LYS621  CYS622 
 ASP623  PHE694  ASN695  SER759  ASP760  ASP761  ALA762  ILE779  LEU786  VAL792 
 PHE793  MET794  SER795  GLU796  ALA797  LYS798  CYS799  TRP800  GLU811  SER814 

> <Gold.Protein.RotatedAtoms>
  151.2689  133.4265  159.2619 H   0  0  0  0  0  0  0  0  0  0  0  0  # atno 6907 bound_to 6896
  151.0463  134.9642  159.8198 H   0  0  0  0  0  0  0  0  0  0  0  0  # atno 6908 bound_to 6896
  152.5374  134.2645  159.9000 H   0  0  0  0  0  0  0  0  0  0  0  0  # atno 6909 bound_to 6896
  146.2133  140.3132  142.8384 H   0  0  0  0  0  0  0  0  0  0  0  0  # atno 7974 bound_to 7965
  156.0574  140.3300  155.7421 H   0  0  0  0  0  0  0  0  0  0  0  0  # atno 8008 bound_to 7997
  155.5508  140.0610  157.2868 H   0  0  0  0  0  0  0  0  0  0  0  0  # atno 8009 bound_to 7997
  154.4464  140.1894  156.0672 H   0  0  0  0  0  0  0  0  0  0  0  0  # atno 8010 bound_to 7997
  140.1957  144.4039  150.6551 H   0  0  0  0  0  0  0  0  0  0  0  0  # atno 10167 bound_to 10162
  156.5487  130.4696  149.6462 H   0  0  0  0  0  0  0  0  0  0  0  0  # atno 10718 bound_to 10713
  154.6589  135.5328  153.7993 H   0  0  0  0  0  0  0  0  0  0  0  0  # atno 10763 bound_to 10752
  153.0430  135.6501  154.0902 H   0  0  0  0  0  0  0  0  0  0  0  0  # atno 10764 bound_to 10752
  154.0813  135.2947  155.3270 H   0  0  0  0  0  0  0  0  0  0  0  0  # atno 10765 bound_to 10752
  139.8812  134.9365  156.5649 H   0  0  0  0  0  0  0  0  0  0  0  0  # atno 11005 bound_to 11000
  144.8973  140.7599  143.5889 LP  0  0  0  0  0  0  0  0  0  0  0  0  # atno 17320 bound_to 7965
  145.3057  139.1835  143.4666 LP  0  0  0  0  0  0  0  0  0  0  0  0  # atno 17321 bound_to 7965
  140.6425  143.2206  151.6259 LP  0  0  0  0  0  0  0  0  0  0  0  0  # atno 17342 bound_to 10162
  139.5237  144.3124  152.0981 LP  0  0  0  0  0  0  0  0  0  0  0  0  # atno 17343 bound_to 10162
  156.2904  130.7121  151.1968 LP  0  0  0  0  0  0  0  0  0  0  0  0  # atno 17370 bound_to 10713
  157.7391  131.0532  150.5249 LP  0  0  0  0  0  0  0  0  0  0  0  0  # atno 17371 bound_to 10713
  140.8142  133.8405  155.8837 LP  0  0  0  0  0  0  0  0  0  0  0  0  # atno 17394 bound_to 11000
  140.9478  134.1817  157.4750 LP  0  0  0  0  0  0  0  0  0  0  0  0  # atno 17395 bound_to 11000

$$$$
