AV-unprocessed.smi:1720|AV-procd|sdf|6933|dock7
  -GOLD-   22720 8143D 1   1.00000     0.00000
 Structure written by MMmdl.
 32 33  0  0  0  0  0  0  0  0  1 V2000
  150.9709  145.3101  159.3143 C   0  0  0  0  0  0  0  0  0  0  0  0
  151.6621  144.0719  158.7249 C   0  0  2  0  0  0  0  0  0  0  0  0
  150.8668  143.5804  157.6006 N   0  0  0  0  0  0  0  0  0  0  0  0
  150.9598  142.3638  157.0444 C   0  0  0  0  0  0  0  0  0  0  0  0
  151.7391  141.4923  157.4300 O   0  0  0  0  0  0  0  0  0  0  0  0
  150.0937  142.2277  156.0271 N   0  0  0  0  0  0  0  0  0  0  0  0
  149.9026  141.0878  155.2058 C   0  0  0  0  0  0  0  0  0  0  0  0
  150.6806  139.9004  155.2754 C   0  0  0  0  0  0  0  0  0  0  0  0
  150.2754  139.0038  154.3876 N   0  0  0  0  0  0  0  0  0  0  0  0
  149.2447  139.6068  153.7531 N   0  0  0  0  0  0  0  0  0  0  0  0
  148.9813  140.8761  154.2186 C   0  0  0  0  0  0  0  0  0  0  0  0
  151.8512  142.9620  159.7797 C   0  0  1  0  0  0  0  0  0  0  0  0
  153.1837  142.2125  159.7001 C   0  0  0  0  0  0  0  0  0  0  0  0
  153.3319  141.6993  161.1133 C   0  0  0  0  0  0  0  0  0  0  0  0
  152.7951  142.8744  161.9239 C   0  0  0  0  0  0  0  0  0  0  0  0
  151.8276  143.5134  161.0951 O   0  0  0  0  0  0  0  0  0  0  0  0
  148.7370  139.1448  153.0120 H   0  0  0  0  0  0  0  0  0  0  0  0
  151.5574  145.7386  160.1275 H   0  0  0  0  0  0  0  0  0  0  0  0
  149.9840  145.0657  159.7090 H   0  0  0  0  0  0  0  0  0  0  0  0
  150.8455  146.0865  158.5587 H   0  0  0  0  0  0  0  0  0  0  0  0
  152.6477  144.3840  158.3747 H   0  0  0  0  0  0  0  0  0  0  0  0
  150.1932  144.2247  157.2129 H   0  0  0  0  0  0  0  0  0  0  0  0
  149.5060  143.0219  155.8202 H   0  0  0  0  0  0  0  0  0  0  0  0
  151.5095  139.6643  155.9266 H   0  0  0  0  0  0  0  0  0  0  0  0
  148.1876  141.4869  153.8147 H   0  0  0  0  0  0  0  0  0  0  0  0
  151.0366  142.2384  159.7125 H   0  0  0  0  0  0  0  0  0  0  0  0
  153.1823  141.4171  158.9544 H   0  0  0  0  0  0  0  0  0  0  0  0
  153.9993  142.8988  159.4671 H   0  0  0  0  0  0  0  0  0  0  0  0
  152.7029  140.8201  161.2602 H   0  0  0  0  0  0  0  0  0  0  0  0
  154.3579  141.4354  161.3716 H   0  0  0  0  0  0  0  0  0  0  0  0
  152.3623  142.5610  162.8739 H   0  0  0  0  0  0  0  0  0  0  0  0
  153.5929  143.5874  162.1346 H   0  0  0  0  0  0  0  0  0  0  0  0
  1  2  1  0  0  0  0
  1 18  1  0  0  0  0
  1 19  1  0  0  0  0
  1 20  1  0  0  0  0
  2  3  1  0  0  0  0
  2 12  1  0  0  0  0
  2 21  1  0  0  0  0
  3  4  1  0  0  0  0
  3 22  1  0  0  0  0
  4  5  2  0  0  0  0
  4  6  1  0  0  0  0
  6  7  1  0  0  0  0
  6 23  1  0  0  0  0
  7 11  2  0  0  0  0
  7  8  1  0  0  0  0
  8  9  2  0  0  0  0
  8 24  1  0  0  0  0
  9 10  1  0  0  0  0
 10 17  1  0  0  0  0
 10 11  1  0  0  0  0
 11 25  1  0  0  0  0
 12 16  1  0  0  0  0
 12 13  1  0  0  0  0
 12 26  1  0  0  0  0
 13 14  1  0  0  0  0
 13 27  1  0  0  0  0
 13 28  1  0  0  0  0
 14 15  1  0  0  0  0
 14 29  1  0  0  0  0
 14 30  1  0  0  0  0
 15 16  1  0  0  0  0
 15 31  1  0  0  0  0
 15 32  1  0  0  0  0
M  END
> <s_m_source_file>
AV-unprocessed.smi

> <i_m_source_file_index>
1720

> <i_lp_mmshare_version>
43012

> <i_f3d_flags>
0

> <s_epik_input>
TzFbQ0gyXVtDSDJdW0NIMl1bQ0BIXTFbQ0BIXShbQ0gzXSlbTkhdQyg9TylbTkhdYzJbY0hdbltuSF1bY0hdMg==

> <s_epik_cmdline>
J2VwaWtfcHl0aG9uJywgJy1waCcsICc3LjAnLCAnLXRuJywgJzgnLCAnLW1hJywgJzIwMCcsICctbWV0YWxfYmluZGluZycsICctaW1hZScsICc8aW5maWxlLm1hZT4nLCAnLW9tYWUnLCAnPG91dGZpbGUubWFlPic=

> <r_lp_tautomer_probability>
1

> <r_epik_Ionization_Penalty>
4.95841e-05

> <r_epik_Ionization_Penalty_Charging>
0

> <r_epik_Ionization_Penalty_Neutral>
4.95841e-05

> <r_epik_State_Penalty>
-0

> <r_epik_Charging_Adjusted_Penalty>
0

> <i_epik_Tot_Q>
0

> <i_epik_Tot_abs_Q>
0

> <r_epik_Metal_State_Penalty>
-0

> <b_epik_Metal_Only>
0

> <s_lp_Force_Field>
OPLS_2005

> <r_lp_Energy>
20.0516

> <b_lp_Chiralities_Consistent>
1

> <s_lp_Variant>
AV-unprocessed.smi:1720-3

> <Gold.Version>
5.8.1

> <Gold.Id.Protein>
6NUR|6NUR_protein|mol2

> <Gold.PLP.Fitness>
42.7587

> <Gold.PLP.PLP>
-39.4684

> <Gold.PLP.part.hbond>
-3.0000

> <Gold.PLP.part.metal>
0.0000

> <Gold.PLP.part.buried>
-4.6234

> <Gold.PLP.part.nonpolar>
-32.0293

> <Gold.PLP.part.repulsive>
0.5543

> <Gold.PLP.ligand.clash>
0.0000

> <Gold.PLP.ligand.torsion>
1.3075

> <Gold.PLP.Chemscore.Hbond>
1.9652

> <Gold.PLP.Chemscore.CHOScore>
0.0000

> <Gold.PLP.Chemscore.Metal>
0.0000

> <Gold.Chemscore.Hbonds>
donor molecule, donor type, donor heavy atom, donor atom, acceptor molecule, acceptor atom, score
      L1  H     3    22       P1  8028  0.93
      L1  H     6    23       P1  8028  1.00
      L1  H    10    17       P1  7957  0.04

> <Gold.PLP.Chemscore.Internal.Correction>
0.0095

> <Gold.Rescore>
     Score         DG    S(hbond)    S(metal)    S(lipo)     H(rot)  DE(clash)    DE(int)     intcor
     13.57     -19.08       1.93        0.00      89.66       1.31       0.09       5.42       ----

> <Gold.Chemscore.Fitness>
13.5682

> <Gold.Chemscore.DG>
-19.0759

> <Gold.Chemscore.ZeroCoef>
-5.4800

> <Gold.Chemscore.Hbond>
1.9322

> <Gold.Chemscore.Metal>
0.0000

> <Gold.Chemscore.Lipo>
89.6633

> <Gold.Chemscore.Internal_Hbond>
0.0000

> <Gold.Chemscore.DEClash>
0.0914

> <Gold.Chemscore.DEInternal>
5.4164

> <Gold.Chemscore.Rot>
1.3079

> <Gold.Chemscore.Internal.Correction>
   9.000000E+99

> <Gold.Chemscore.Hbonds>
donor molecule, donor type, donor heavy atom, donor atom, acceptor molecule, acceptor atom, score
      L1  H     3    22       P1  8028  0.66
      L1  H     6    23       P1  8028  1.00
      L1  H    10    17       P1  7957  0.05

> <Gold.Chemscore.Hbond.Weighted>
-6.4536

> <Gold.Chemscore.Metal.Weighted>
-0.0000

> <Gold.Chemscore.Lipo.Weighted>
-10.4906

> <Gold.Chemscore.Internal_Hbond.Weighted>
0.0000

> <Gold.Chemscore.DEClash.Weighted>
0.0914

> <Gold.Chemscore.DEInternal.Weighted>
5.4164

> <Gold.Chemscore.Rot.Weighted>
3.3483

> <Gold.Chemscore.Internal.Correction.Weighted>
   9.000000E+99

> <Gold.Protein.RotatedTorsions>
[ 6907 6896 6895 6894 ] final  -28.58 input  -60.11 | X-H torsion
[ 7974 7965 7964 7962 ] final -128.13 input  175.53 | X-H torsion
[ 8008 7997 7996 7995 ] final  -10.52 input   59.86 | X-H torsion
[ 10167 10162 10161 10158 ] final  -65.56 input  -65.29 | X-H torsion
[ 10718 10713 10712 10709 ] final   90.89 input   66.30 | X-H torsion
[ 10763 10752 10751 10750 ] final   65.02 input  -60.55 | X-H torsion
[ 11005 11000 10999 10996 ] final  118.06 input  -57.11 | X-H torsion

> <Gold.Protein.ActiveResidues>
 VAL166  LYS551  ARG553  GLY616  TRP617  ASP618  TYR619  PRO620  LYS621  CYS622 
 ASP623  PHE694  ASN695  SER759  ASP760  ASP761  ALA762  ILE779  LEU786  VAL792 
 PHE793  MET794  SER795  GLU796  ALA797  LYS798  CYS799  TRP800  GLU811  SER814 

> <Gold.Protein.RotatedAtoms>
  151.1310  135.0130  159.8582 H   0  0  0  0  0  0  0  0  0  0  0  0  # atno 6907 bound_to 6896
  152.5451  134.1610  159.8568 H   0  0  0  0  0  0  0  0  0  0  0  0  # atno 6908 bound_to 6896
  151.1676  133.4759  159.2627 H   0  0  0  0  0  0  0  0  0  0  0  0  # atno 6909 bound_to 6896
  144.9701  140.7537  143.4676 H   0  0  0  0  0  0  0  0  0  0  0  0  # atno 7974 bound_to 7965
  154.5547  140.2326  155.8429 H   0  0  0  0  0  0  0  0  0  0  0  0  # atno 8008 bound_to 7997
  156.1977  140.3060  155.9422 H   0  0  0  0  0  0  0  0  0  0  0  0  # atno 8009 bound_to 7997
  155.3003  140.0431  157.3019 H   0  0  0  0  0  0  0  0  0  0  0  0  # atno 8010 bound_to 7997
  140.5721  143.2318  151.6517 H   0  0  0  0  0  0  0  0  0  0  0  0  # atno 10167 bound_to 10162
  157.6960  131.0387  150.3646 H   0  0  0  0  0  0  0  0  0  0  0  0  # atno 10718 bound_to 10713
  153.0079  135.5372  154.6602 H   0  0  0  0  0  0  0  0  0  0  0  0  # atno 10763 bound_to 10752
  154.5812  135.2850  155.0732 H   0  0  0  0  0  0  0  0  0  0  0  0  # atno 10764 bound_to 10752
  154.1861  135.6508  153.5099 H   0  0  0  0  0  0  0  0  0  0  0  0  # atno 10765 bound_to 10752
  139.9096  134.9616  156.7445 H   0  0  0  0  0  0  0  0  0  0  0  0  # atno 11005 bound_to 11000
  145.2571  139.2007  143.4911 LP  0  0  0  0  0  0  0  0  0  0  0  0  # atno 17320 bound_to 7965
  146.3379  140.2495  142.8598 LP  0  0  0  0  0  0  0  0  0  0  0  0  # atno 17321 bound_to 7965
  139.5123  144.3481  152.0678 LP  0  0  0  0  0  0  0  0  0  0  0  0  # atno 17342 bound_to 10162
  140.2620  144.4057  150.6182 LP  0  0  0  0  0  0  0  0  0  0  0  0  # atno 17343 bound_to 10162
  156.4078  130.3928  149.6913 LP  0  0  0  0  0  0  0  0  0  0  0  0  # atno 17370 bound_to 10713
  156.4208  130.7767  151.2784 LP  0  0  0  0  0  0  0  0  0  0  0  0  # atno 17371 bound_to 10713
  140.6823  133.9463  155.7917 LP  0  0  0  0  0  0  0  0  0  0  0  0  # atno 17394 bound_to 11000
  141.0501  134.0497  157.3794 LP  0  0  0  0  0  0  0  0  0  0  0  0  # atno 17395 bound_to 11000

$$$$
