AV-unprocessed.smi:1381|AV-procd|sdf|5617|dock10
  -GOLD-   22720 5233D 1   1.00000     0.00000
 Structure written by MMmdl.
 42 43  0  0  0  0  0  0  0  0  3 V2000
  149.1315  141.2829  154.6916 C   0  0  0  0  0  0  0  0  0  0  0  0
  149.6850  139.8998  154.6597 C   0  0  0  0  0  0  0  0  0  0  0  0
  149.1022  138.6673  154.5733 C   0  0  0  0  0  0  0  0  0  0  0  0
  150.2143  137.7838  154.5928 C   0  0  0  0  0  0  0  0  0  0  0  0
  150.0218  136.3791  154.5167 N   0  0  0  0  0  0  0  0  0  0  0  0
  150.3909  135.4276  155.3935 C   0  0  0  0  0  0  0  0  0  0  0  0
  150.9750  135.7346  156.4397 O   0  0  0  0  0  0  0  0  0  0  0  0
  150.0437  134.1805  154.9727 N   0  5  0  0  0  0  0  0  0  0  0  0
  148.8189  133.8622  154.2432 C   0  0  0  0  0  0  0  0  0  0  0  0
  149.1650  133.0362  152.9895 C   0  0  0  0  0  0  0  0  0  0  0  0
  147.9691  132.3648  152.4145 N   0  3  1  0  0  0  0  0  0  0  0  0
  147.3360  131.4100  153.3560 C   0  0  0  0  0  0  0  0  0  0  0  0
  146.1540  130.6749  152.6936 C   0  0  2  0  0  0  0  0  0  0  0  0
  146.5880  129.6064  151.6745 C   0  0  0  0  0  0  0  0  0  0  0  0
  145.2370  131.6149  152.1331 O   0  0  0  0  0  0  0  0  0  0  0  0
  145.8104  132.5261  151.1990 C   0  0  1  0  0  0  0  0  0  0  0  0
  144.6974  133.4550  150.7023 C   0  0  0  0  0  0  0  0  0  0  0  0
  146.9504  133.3040  151.8789 C   0  0  0  0  0  0  0  0  0  0  0  0
  151.3720  138.4216  154.6837 N   0  0  0  0  0  0  0  0  0  0  0  0
  151.0388  139.7806  154.7267 O   0  0  0  0  0  0  0  0  0  0  0  0
  148.0447  141.2693  154.6061 H   0  0  0  0  0  0  0  0  0  0  0  0
  149.5280  141.8766  153.8677 H   0  0  0  0  0  0  0  0  0  0  0  0
  149.3912  141.7812  155.6256 H   0  0  0  0  0  0  0  0  0  0  0  0
  148.0495  138.4360  154.5062 H   0  0  0  0  0  0  0  0  0  0  0  0
  149.5455  136.0502  153.6903 H   0  0  0  0  0  0  0  0  0  0  0  0
  148.1159  133.2956  154.8553 H   0  0  0  0  0  0  0  0  0  0  0  0
  148.2881  134.7645  153.9367 H   0  0  0  0  0  0  0  0  0  0  0  0
  149.5938  133.7140  152.2494 H   0  0  0  0  0  0  0  0  0  0  0  0
  149.9401  132.2990  153.2062 H   0  0  0  0  0  0  0  0  0  0  0  0
  148.0713  130.6854  153.7084 H   0  0  0  0  0  0  0  0  0  0  0  0
  146.9859  131.9574  154.2326 H   0  0  0  0  0  0  0  0  0  0  0  0
  145.6068  130.1534  153.4796 H   0  0  0  0  0  0  0  0  0  0  0  0
  147.1784  128.8287  152.1596 H   0  0  0  0  0  0  0  0  0  0  0  0
  147.1979  130.0214  150.8726 H   0  0  0  0  0  0  0  0  0  0  0  0
  145.7203  129.1260  151.2218 H   0  0  0  0  0  0  0  0  0  0  0  0
  146.2000  131.9792  150.3403 H   0  0  0  0  0  0  0  0  0  0  0  0
  145.0779  134.1650  149.9677 H   0  0  0  0  0  0  0  0  0  0  0  0
  144.2612  134.0246  151.5234 H   0  0  0  0  0  0  0  0  0  0  0  0
  143.8968  132.8853  150.2299 H   0  0  0  0  0  0  0  0  0  0  0  0
  146.5575  133.9168  152.6920 H   0  0  0  0  0  0  0  0  0  0  0  0
  147.4056  133.9855  151.1595 H   0  0  0  0  0  0  0  0  0  0  0  0
  148.3073  131.8142  151.6380 H   0  0  0  0  0  0  0  0  0  0  0  0
  1  2  1  0  0  0  0
  1 21  1  0  0  0  0
  1 22  1  0  0  0  0
  1 23  1  0  0  0  0
  2 20  1  0  0  0  0
  2  3  2  0  0  0  0
  3  4  1  0  0  0  0
  3 24  1  0  0  0  0
  4  5  1  0  0  0  0
  4 19  2  0  0  0  0
  5  6  1  0  0  0  0
  5 25  1  0  0  0  0
  6  7  2  0  0  0  0
  6  8  1  0  0  0  0
  8  9  1  0  0  0  0
  9 10  1  0  0  0  0
  9 26  1  0  0  0  0
  9 27  1  0  0  0  0
 10 11  1  0  0  0  0
 10 28  1  0  0  0  0
 10 29  1  0  0  0  0
 11 18  1  0  0  0  0
 11 12  1  0  0  0  0
 11 42  1  0  0  0  0
 12 13  1  0  0  0  0
 12 30  1  0  0  0  0
 12 31  1  0  0  0  0
 13 14  1  0  0  0  0
 13 15  1  0  0  0  0
 13 32  1  0  0  0  0
 14 33  1  0  0  0  0
 14 34  1  0  0  0  0
 14 35  1  0  0  0  0
 15 16  1  0  0  0  0
 16 17  1  0  0  0  0
 16 18  1  0  0  0  0
 16 36  1  0  0  0  0
 17 37  1  0  0  0  0
 17 38  1  0  0  0  0
 17 39  1  0  0  0  0
 18 40  1  0  0  0  0
 18 41  1  0  0  0  0
 19 20  1  0  0  0  0
M  CHG  1   8  -1
M  CHG  1  11   1
M  END
> <s_m_source_file>
AV-unprocessed.smi

> <i_m_source_file_index>
1381

> <i_lp_mmshare_version>
43012

> <i_f3d_flags>
0

> <s_epik_input>
W0NIM11jMVtjSF1jKG5vMSlbTkhdQyg9TylbTkhdW0NIMl1bQ0gyXU4yW0NIMl1bQ0BASF0oW0NIM10pT1tDQEBIXShbQ0gzXSlbQ0gyXTI=

> <s_epik_cmdline>
J2VwaWtfcHl0aG9uJywgJy1waCcsICc3LjAnLCAnLXRuJywgJzgnLCAnLW1hJywgJzIwMCcsICctbWV0YWxfYmluZGluZycsICctaW1hZScsICc8aW5maWxlLm1hZT4nLCAnLW9tYWUnLCAnPG91dGZpbGUubWFlPic=

> <r_epik_Ionization_Penalty>
6.8073

> <r_epik_Ionization_Penalty_Charging>
6.80729

> <r_epik_Ionization_Penalty_Neutral>
5.65391e-06

> <r_epik_State_Penalty>
7.47323

> <r_epik_Charging_Adjusted_Penalty>
14.2805

> <i_epik_Tot_Q>
0

> <i_epik_Tot_abs_Q>
2

> <r_epik_Metal_State_Penalty>
3.40035

> <b_epik_Metal_Only>
1

> <s_lp_Force_Field>
OPLS_2005

> <r_lp_Energy>
15.0618

> <b_lp_Chiralities_Consistent>
1

> <s_lp_Variant>
AV-unprocessed.smi:1381-16

> <Gold.Version>
5.8.1

> <Gold.Id.Protein>
6NUR|6NUR_protein|mol2

> <Gold.PLP.Fitness>
42.5968

> <Gold.PLP.PLP>
-35.3942

> <Gold.PLP.part.hbond>
-3.0052

> <Gold.PLP.part.metal>
0.0000

> <Gold.PLP.part.buried>
-5.6075

> <Gold.PLP.part.nonpolar>
-27.0559

> <Gold.PLP.part.repulsive>
0.4974

> <Gold.PLP.ligand.clash>
0.0000

> <Gold.PLP.ligand.torsion>
0.9265

> <Gold.PLP.Chemscore.Hbond>
3.0000

> <Gold.PLP.Chemscore.CHOScore>
0.0000

> <Gold.PLP.Chemscore.Metal>
0.0000

> <Gold.Chemscore.Hbonds>
donor molecule, donor type, donor heavy atom, donor atom, acceptor molecule, acceptor atom, score
      L1  H     5    25       P1  7948  1.00
      L1  H    11    42       P1 10747  1.00
      P1  H  7989  7998       L1    20  1.00

> <Gold.PLP.Chemscore.Internal.Correction>
0.0557

> <Gold.Rescore>
     Score         DG    S(hbond)    S(metal)    S(lipo)     H(rot)  DE(clash)    DE(int)     intcor
     17.96     -18.86       2.63        0.00      73.82       1.58       0.00       0.90       ----

> <Gold.Chemscore.Fitness>
17.9578

> <Gold.Chemscore.DG>
-18.8587

> <Gold.Chemscore.ZeroCoef>
-5.4800

> <Gold.Chemscore.Hbond>
2.6300

> <Gold.Chemscore.Metal>
0.0000

> <Gold.Chemscore.Lipo>
73.8224

> <Gold.Chemscore.Internal_Hbond>
0.0000

> <Gold.Chemscore.DEClash>
0.0029

> <Gold.Chemscore.DEInternal>
0.8980

> <Gold.Chemscore.Rot>
1.5792

> <Gold.Chemscore.Internal.Correction>
   9.000000E+99

> <Gold.Chemscore.Hbonds>
donor molecule, donor type, donor heavy atom, donor atom, acceptor molecule, acceptor atom, score
      L1  H     5    25       P1  7948  0.43
      L1  H    11    42       P1 10747  1.00
      P1  H  7989  7998       L1    20  0.49

> <Gold.Chemscore.Hbond.Weighted>
-8.7843

> <Gold.Chemscore.Metal.Weighted>
-0.0000

> <Gold.Chemscore.Lipo.Weighted>
-8.6372

> <Gold.Chemscore.Internal_Hbond.Weighted>
0.0000

> <Gold.Chemscore.DEClash.Weighted>
0.0029

> <Gold.Chemscore.DEInternal.Weighted>
0.8980

> <Gold.Chemscore.Rot.Weighted>
4.0428

> <Gold.Chemscore.Internal.Correction.Weighted>
   9.000000E+99

> <Gold.Protein.RotatedTorsions>
[ 6907 6896 6895 6894 ] final   78.63 input  -60.11 | X-H torsion
[ 7974 7965 7964 7962 ] final   -9.03 input  175.53 | X-H torsion
[ 8008 7997 7996 7995 ] final   -4.31 input   59.86 | X-H torsion
[ 10167 10162 10161 10158 ] final  131.65 input  -65.29 | X-H torsion
[ 10718 10713 10712 10709 ] final  -83.83 input   66.30 | X-H torsion
[ 10763 10752 10751 10750 ] final  -33.29 input  -60.55 | X-H torsion
[ 11005 11000 10999 10996 ] final -148.61 input  -57.11 | X-H torsion

> <Gold.Protein.ActiveResidues>
 VAL166  LYS551  ARG553  GLY616  TRP617  ASP618  TYR619  PRO620  LYS621  CYS622 
 ASP623  PHE694  ASN695  SER759  ASP760  ASP761  ALA762  ILE779  LEU786  VAL792 
 PHE793  MET794  SER795  GLU796  ALA797  LYS798  CYS799  TRP800  GLU811  SER814 

> <Gold.Protein.RotatedAtoms>
  152.5167  134.3634  159.9292 H   0  0  0  0  0  0  0  0  0  0  0  0  # atno 6907 bound_to 6896
  151.3587  133.3891  159.2695 H   0  0  0  0  0  0  0  0  0  0  0  0  # atno 6908 bound_to 6896
  150.9669  134.9067  159.7823 H   0  0  0  0  0  0  0  0  0  0  0  0  # atno 6909 bound_to 6896
  146.2263  140.2556  142.8349 H   0  0  0  0  0  0  0  0  0  0  0  0  # atno 7974 bound_to 7965
  154.6156  140.2487  155.7613 H   0  0  0  0  0  0  0  0  0  0  0  0  # atno 8008 bound_to 7997
  156.2397  140.2937  156.0359 H   0  0  0  0  0  0  0  0  0  0  0  0  # atno 8009 bound_to 7997
  155.1980  140.0393  157.2902 H   0  0  0  0  0  0  0  0  0  0  0  0  # atno 8010 bound_to 7997
  139.5374  144.6697  151.4738 H   0  0  0  0  0  0  0  0  0  0  0  0  # atno 10167 bound_to 10162
  156.0013  130.4678  150.4317 H   0  0  0  0  0  0  0  0  0  0  0  0  # atno 10718 bound_to 10713
  153.8278  135.6869  153.4818 H   0  0  0  0  0  0  0  0  0  0  0  0  # atno 10763 bound_to 10752
  153.1530  135.4610  154.9661 H   0  0  0  0  0  0  0  0  0  0  0  0  # atno 10764 bound_to 10752
  154.7900  135.3298  154.7744 H   0  0  0  0  0  0  0  0  0  0  0  0  # atno 10765 bound_to 10752
  140.7594  134.3315  157.5105 H   0  0  0  0  0  0  0  0  0  0  0  0  # atno 11005 bound_to 11000
  144.9379  140.8046  143.5649 LP  0  0  0  0  0  0  0  0  0  0  0  0  # atno 17320 bound_to 7965
  145.2505  139.2034  143.4945 LP  0  0  0  0  0  0  0  0  0  0  0  0  # atno 17321 bound_to 7965
  140.6588  143.8543  150.6864 LP  0  0  0  0  0  0  0  0  0  0  0  0  # atno 17342 bound_to 10162
  140.1931  143.4020  152.1848 LP  0  0  0  0  0  0  0  0  0  0  0  0  # atno 17343 bound_to 10162
  157.2365  131.0516  151.2462 LP  0  0  0  0  0  0  0  0  0  0  0  0  # atno 17370 bound_to 10713
  157.3661  130.7156  149.6534 LP  0  0  0  0  0  0  0  0  0  0  0  0  # atno 17371 bound_to 10713
  139.8773  134.9193  156.3223 LP  0  0  0  0  0  0  0  0  0  0  0  0  # atno 17394 bound_to 11000
  140.9677  133.7347  156.0490 LP  0  0  0  0  0  0  0  0  0  0  0  0  # atno 17395 bound_to 11000

$$$$
