AV-unprocessed.smi:276|AV-procd|sdf|2070|dock3
  -GOLD-   2262021323D 1   1.00000     0.00000
 Structure written by MMmdl.
 57 61  0  0  0  0  0  0  0  0  1 V2000
  153.1596  142.8726  163.0960 C   0  0  0  0  0  0  0  0  0  0  0  0
  152.4676  143.3811  161.9693 O   0  0  0  0  0  0  0  0  0  0  0  0
  152.2272  142.3902  160.9824 C   0  0  2  0  0  0  0  0  0  0  0  0
  153.4922  141.7246  160.4268 C   0  0  0  0  0  0  0  0  0  0  0  0
  152.8647  141.8000  159.0207 C   0  0  1  0  0  0  0  0  0  0  0  0
  152.1443  140.5641  158.6811 N   0  0  0  0  0  0  0  0  0  0  0  0
  152.7946  139.3147  159.0641 C   0  0  0  0  0  0  0  0  0  0  0  0
  151.6960  140.4724  157.4090 C   0  0  0  0  0  0  0  0  0  0  0  0
  152.5638  139.9910  156.4845 N   0  0  0  0  0  0  0  0  0  0  0  0
  152.1806  139.8620  155.2108 C   0  0  0  0  0  0  0  0  0  0  0  0
  151.0008  140.1547  154.6596 N   0  0  0  0  0  0  0  0  0  0  0  0
  150.1316  140.6543  155.5848 C   0  0  0  0  0  0  0  0  0  0  0  0
  150.3949  140.8520  156.9696 C   0  0  0  0  0  0  0  0  0  0  0  0
  149.2724  141.3862  157.5919 N   0  0  0  0  0  0  0  0  0  0  0  0
  148.3915  141.4829  156.6343 C   0  0  0  0  0  0  0  0  0  0  0  0
  148.8235  141.0634  155.3971 N   0  0  0  0  0  0  0  0  0  0  0  0
  148.0507  141.0545  154.1667 C   0  0  0  0  0  0  0  0  0  0  0  0
  147.3711  139.6907  153.9032 C   0  0  2  0  0  0  0  0  0  0  0  0
  146.4998  139.8499  152.7986 O   0  0  0  0  0  0  0  0  0  0  0  0
  146.5207  139.1661  155.0847 C   0  0  2  0  0  0  0  0  0  0  0  0
  147.3169  138.7001  156.3169 C   0  0  0  0  0  0  0  0  0  0  0  0
  147.4923  137.2178  156.0826 C   0  0  0  0  0  0  0  0  0  0  0  0
  146.1557  136.8678  155.4508 C   0  0  0  0  0  0  0  0  0  0  0  0
  145.8494  137.9867  154.6292 O   0  0  0  0  0  0  0  0  0  0  0  0
  151.9900  142.9592  159.5718 C   0  0  0  0  0  0  0  0  0  0  0  0
  152.3812  144.4148  159.2568 C   0  0  0  0  0  0  0  0  0  0  0  0
  150.9042  144.7876  159.4108 C   0  0  0  0  0  0  0  0  0  0  0  0
  150.5725  143.3277  159.0926 C   0  0  0  0  0  0  0  0  0  0  0  0
  153.3048  143.6693  163.8256 H   0  0  0  0  0  0  0  0  0  0  0  0
  154.1416  142.4876  162.8188 H   0  0  0  0  0  0  0  0  0  0  0  0
  152.5938  142.0742  163.5773 H   0  0  0  0  0  0  0  0  0  0  0  0
  151.4565  141.6697  161.2647 H   0  0  0  0  0  0  0  0  0  0  0  0
  154.3744  142.3601  160.5205 H   0  0  0  0  0  0  0  0  0  0  0  0
  153.6845  140.7293  160.8262 H   0  0  0  0  0  0  0  0  0  0  0  0
  153.5876  142.1159  158.2687 H   0  0  0  0  0  0  0  0  0  0  0  0
  152.3557  138.4509  158.5614 H   0  0  0  0  0  0  0  0  0  0  0  0
  152.6963  139.1457  160.1359 H   0  0  0  0  0  0  0  0  0  0  0  0
  153.8569  139.3440  158.8191 H   0  0  0  0  0  0  0  0  0  0  0  0
  152.9253  139.4644  154.5373 H   0  0  0  0  0  0  0  0  0  0  0  0
  147.3944  141.8619  156.8053 H   0  0  0  0  0  0  0  0  0  0  0  0
  147.3129  141.8514  154.2466 H   0  0  0  0  0  0  0  0  0  0  0  0
  148.7083  141.3197  153.3378 H   0  0  0  0  0  0  0  0  0  0  0  0
  148.1320  138.9552  153.6392 H   0  0  0  0  0  0  0  0  0  0  0  0
  145.6092  139.7701  153.1042 H   0  0  0  0  0  0  0  0  0  0  0  0
  145.7915  139.9194  155.3866 H   0  0  0  0  0  0  0  0  0  0  0  0
  148.2609  139.2145  156.4829 H   0  0  0  0  0  0  0  0  0  0  0  0
  146.7126  138.8492  157.2129 H   0  0  0  0  0  0  0  0  0  0  0  0
  148.3061  137.0378  155.3788 H   0  0  0  0  0  0  0  0  0  0  0  0
  147.6932  136.6578  156.9962 H   0  0  0  0  0  0  0  0  0  0  0  0
  146.1897  135.9432  154.8742 H   0  0  0  0  0  0  0  0  0  0  0  0
  145.3844  136.7676  156.2157 H   0  0  0  0  0  0  0  0  0  0  0  0
  153.0529  144.8899  159.9721 H   0  0  0  0  0  0  0  0  0  0  0  0
  152.7384  144.5398  158.2332 H   0  0  0  0  0  0  0  0  0  0  0  0
  150.6425  145.0679  160.4323 H   0  0  0  0  0  0  0  0  0  0  0  0
  150.5358  145.5110  158.6830 H   0  0  0  0  0  0  0  0  0  0  0  0
  150.4099  143.1869  158.0242 H   0  0  0  0  0  0  0  0  0  0  0  0
  149.7609  142.9022  159.6831 H   0  0  0  0  0  0  0  0  0  0  0  0
  1  2  1  0  0  0  0
  1 29  1  0  0  0  0
  1 30  1  0  0  0  0
  1 31  1  0  0  0  0
  2  3  1  0  0  0  0
  3 25  1  0  0  0  0
  3  4  1  0  0  0  0
  3 32  1  0  0  0  0
  4  5  1  0  0  0  0
  4 33  1  0  0  0  0
  4 34  1  0  0  0  0
  5  6  1  0  0  0  0
  5 25  1  0  0  0  0
  5 35  1  0  0  0  0
  6  7  1  0  0  0  0
  6  8  1  0  0  0  0
  7 36  1  0  0  0  0
  7 37  1  0  0  0  0
  7 38  1  0  0  0  0
  8 13  1  0  0  0  0
  8  9  2  0  0  0  0
  9 10  1  0  0  0  0
 10 11  2  0  0  0  0
 10 39  1  0  0  0  0
 11 12  1  0  0  0  0
 12 16  1  0  0  0  0
 12 13  2  0  0  0  0
 13 14  1  0  0  0  0
 14 15  2  0  0  0  0
 15 16  1  0  0  0  0
 15 40  1  0  0  0  0
 16 17  1  0  0  0  0
 17 18  1  0  0  0  0
 17 41  1  0  0  0  0
 17 42  1  0  0  0  0
 18 19  1  0  0  0  0
 18 20  1  0  0  0  0
 18 43  1  0  0  0  0
 19 44  1  0  0  0  0
 20 24  1  0  0  0  0
 20 21  1  0  0  0  0
 20 45  1  0  0  0  0
 21 22  1  0  0  0  0
 21 46  1  0  0  0  0
 21 47  1  0  0  0  0
 22 23  1  0  0  0  0
 22 48  1  0  0  0  0
 22 49  1  0  0  0  0
 23 24  1  0  0  0  0
 23 50  1  0  0  0  0
 23 51  1  0  0  0  0
 25 28  1  0  0  0  0
 25 26  1  0  0  0  0
 26 27  1  0  0  0  0
 26 52  1  0  0  0  0
 26 53  1  0  0  0  0
 27 28  1  0  0  0  0
 27 54  1  0  0  0  0
 27 55  1  0  0  0  0
 28 56  1  0  0  0  0
 28 57  1  0  0  0  0
M  END
> <s_m_source_file>
AV-unprocessed.smi

> <i_m_source_file_index>
276

> <i_lp_mmshare_version>
43012

> <i_f3d_flags>
0

> <s_epik_input>
W0NIMl0xW0NIMl1bQ0gyXUMxMltDQEhdKE9bQ0gzXSlbQ0gyXVtDQEhdMk4oW0NIM10pYyhuW2NIXW4zKWMoYzM0KW5bY0hdbjRbQ0gyXVtDQEhdKFtPSF0pW0NAQEhdNVtDSDJdW0NIMl1bQ0gyXU81

> <s_epik_cmdline>
J2VwaWtfcHl0aG9uJywgJy1waCcsICc3LjAnLCAnLXRuJywgJzgnLCAnLW1hJywgJzIwMCcsICctbWV0YWxfYmluZGluZycsICctaW1hZScsICc8aW5maWxlLm1hZT4nLCAnLW9tYWUnLCAnPG91dGZpbGUubWFlPic=

> <r_lp_tautomer_probability>
1

> <r_epik_Ionization_Penalty>
0.00204117

> <r_epik_Ionization_Penalty_Charging>
0

> <r_epik_Ionization_Penalty_Neutral>
0.00204117

> <r_epik_State_Penalty>
0.00127401

> <r_epik_Charging_Adjusted_Penalty>
0.00127401

> <i_epik_Tot_Q>
0

> <i_epik_Tot_abs_Q>
0

> <r_epik_Metal_State_Penalty>
-0

> <b_epik_Metal_Only>
0

> <s_lp_Force_Field>
OPLS_2005

> <r_lp_Energy>
59.1309

> <b_lp_Chiralities_Consistent>
1

> <s_lp_Variant>
AV-unprocessed.smi:276-1

> <Gold.Version>
5.8.1

> <Gold.Id.Protein>
6NUR|6NUR_protein|mol2

> <Gold.PLP.Fitness>
57.9701

> <Gold.PLP.PLP>
-51.0373

> <Gold.PLP.part.hbond>
-3.2986

> <Gold.PLP.part.metal>
0.0000

> <Gold.PLP.part.buried>
-3.0679

> <Gold.PLP.part.nonpolar>
-43.6590

> <Gold.PLP.part.repulsive>
0.4362

> <Gold.PLP.ligand.clash>
0.0023

> <Gold.PLP.ligand.torsion>
1.6562

> <Gold.PLP.Chemscore.Hbond>
2.9913

> <Gold.PLP.Chemscore.CHOScore>
0.1604

> <Gold.PLP.Chemscore.Metal>
0.0000

> <Gold.Chemscore.Hbonds>
donor molecule, donor type, donor heavy atom, donor atom, acceptor molecule, acceptor atom, score
      L1  H    19    44       P1 10175  0.51
      P1  H  7989  7998       L1    11  0.60
      P1  H  7997  8010       L1     9  1.00

> <Gold.PLP.Chemscore.Internal.Correction>
0.7925

> <Gold.Rescore>
     Score         DG    S(hbond)    S(metal)    S(lipo)     H(rot)  DE(clash)    DE(int)     intcor
     12.33     -17.52       1.70        0.00     113.93       2.72       0.72       4.47       ----

> <Gold.Chemscore.Fitness>
12.3253

> <Gold.Chemscore.DG>
-17.5162

> <Gold.Chemscore.ZeroCoef>
-5.4800

> <Gold.Chemscore.Hbond>
1.6955

> <Gold.Chemscore.Metal>
0.0000

> <Gold.Chemscore.Lipo>
113.9260

> <Gold.Chemscore.Internal_Hbond>
0.0000

> <Gold.Chemscore.DEClash>
0.7222

> <Gold.Chemscore.DEInternal>
4.4687

> <Gold.Chemscore.Rot>
2.7172

> <Gold.Chemscore.Internal.Correction>
   9.000000E+99

> <Gold.Chemscore.Hbonds>
donor molecule, donor type, donor heavy atom, donor atom, acceptor molecule, acceptor atom, score
      L1  H    19    44       P1 10175  0.51
      P1  H  7989  7998       L1    11  0.05
      P1  H  7997  8010       L1     9  0.65

> <Gold.Chemscore.Hbond.Weighted>
-5.6629

> <Gold.Chemscore.Metal.Weighted>
-0.0000

> <Gold.Chemscore.Lipo.Weighted>
-13.3293

> <Gold.Chemscore.Internal_Hbond.Weighted>
0.0000

> <Gold.Chemscore.DEClash.Weighted>
0.7222

> <Gold.Chemscore.DEInternal.Weighted>
4.4687

> <Gold.Chemscore.Rot.Weighted>
6.9560

> <Gold.Chemscore.Internal.Correction.Weighted>
   9.000000E+99

> <Gold.Protein.RotatedTorsions>
[ 6907 6896 6895 6894 ] final -136.93 input  -60.11 | X-H torsion
[ 7974 7965 7964 7962 ] final -141.07 input  175.53 | X-H torsion
[ 8008 7997 7996 7995 ] final   66.11 input   59.86 | X-H torsion
[ 10167 10162 10161 10158 ] final   10.63 input  -65.29 | X-H torsion
[ 10718 10713 10712 10709 ] final  -94.94 input   66.30 | X-H torsion
[ 10763 10752 10751 10750 ] final -162.45 input  -60.55 | X-H torsion
[ 11005 11000 10999 10996 ] final   39.87 input  -57.11 | X-H torsion

> <Gold.Protein.ActiveResidues>
 VAL166  LYS551  ARG553  GLY616  TRP617  ASP618  TYR619  PRO620  LYS621  CYS622 
 ASP623  PHE694  ASN695  SER759  ASP760  ASP761  ALA762  ILE779  LEU786  VAL792 
 PHE793  MET794  SER795  GLU796  ALA797  LYS798  CYS799  TRP800  GLU811  SER814 

> <Gold.Protein.RotatedAtoms>
  151.0161  133.5919  159.2676 H   0  0  0  0  0  0  0  0  0  0  0  0  # atno 6907 bound_to 6896
  151.3053  135.0779  159.9263 H   0  0  0  0  0  0  0  0  0  0  0  0  # atno 6908 bound_to 6896
  152.5312  133.9836  159.7872 H   0  0  0  0  0  0  0  0  0  0  0  0  # atno 6909 bound_to 6896
  144.8548  140.6124  143.5366 H   0  0  0  0  0  0  0  0  0  0  0  0  # atno 7974 bound_to 7965
  155.6722  140.3497  155.4823 H   0  0  0  0  0  0  0  0  0  0  0  0  # atno 8008 bound_to 7997
  155.9678  140.1150  157.0862 H   0  0  0  0  0  0  0  0  0  0  0  0  # atno 8009 bound_to 7997
  154.4159  140.1163  156.5252 H   0  0  0  0  0  0  0  0  0  0  0  0  # atno 8010 bound_to 7997
  140.6182  143.8261  150.7144 H   0  0  0  0  0  0  0  0  0  0  0  0  # atno 10167 bound_to 10162
  156.0035  130.5088  150.6001 H   0  0  0  0  0  0  0  0  0  0  0  0  # atno 10718 bound_to 10713
  154.7212  135.3026  154.9043 H   0  0  0  0  0  0  0  0  0  0  0  0  # atno 10763 bound_to 10752
  153.9915  135.6718  153.4758 H   0  0  0  0  0  0  0  0  0  0  0  0  # atno 10764 bound_to 10752
  153.0836  135.4996  154.8469 H   0  0  0  0  0  0  0  0  0  0  0  0  # atno 10765 bound_to 10752
  140.1985  134.3899  155.8108 H   0  0  0  0  0  0  0  0  0  0  0  0  # atno 11005 bound_to 11000
  145.4428  139.1533  143.3961 LP  0  0  0  0  0  0  0  0  0  0  0  0  # atno 17320 bound_to 7965
  146.2814  140.4550  142.8775 LP  0  0  0  0  0  0  0  0  0  0  0  0  # atno 17321 bound_to 7965
  140.1845  143.4087  152.1908 LP  0  0  0  0  0  0  0  0  0  0  0  0  # atno 17342 bound_to 10162
  139.5416  144.7262  151.4714 LP  0  0  0  0  0  0  0  0  0  0  0  0  # atno 17343 bound_to 10162
  157.3851  131.0787  151.1442 LP  0  0  0  0  0  0  0  0  0  0  0  0  # atno 17370 bound_to 10713
  157.2152  130.6456  149.5789 LP  0  0  0  0  0  0  0  0  0  0  0  0  # atno 17371 bound_to 10713
  141.2227  133.7082  156.8218 LP  0  0  0  0  0  0  0  0  0  0  0  0  # atno 17394 bound_to 11000
  140.2080  134.8848  157.3243 LP  0  0  0  0  0  0  0  0  0  0  0  0  # atno 17395 bound_to 11000

$$$$
