AV-unprocessed.smi:665|AV-procd|sdf|3253|dock2
  -GOLD-   22720 0203D 1   1.00000     0.00000
 Structure written by MMmdl.
 43 44  0  0  0  0  0  0  0  0  1 V2000
  153.4382  142.2055  162.5015 C   0  0  0  0  0  0  0  0  0  0  0  0
  152.7328  142.8674  161.4010 N   0  0  0  0  0  0  0  0  0  0  0  0
  152.2333  144.1602  161.6331 C   0  0  0  0  0  0  0  0  0  0  0  0
  151.5777  144.8418  160.6836 C   0  0  0  0  0  0  0  0  0  0  0  0
  151.3919  144.2178  159.3956 C   0  0  0  0  0  0  0  0  0  0  0  0
  151.8745  142.9741  159.1464 C   0  0  0  0  0  0  0  0  0  0  0  0
  151.7375  142.2927  157.9239 N   0  0  0  0  0  0  0  0  0  0  0  0
  150.6427  141.7339  157.3751 C   0  0  0  0  0  0  0  0  0  0  0  0
  149.5130  141.7339  157.8637 O   0  0  0  0  0  0  0  0  0  0  0  0
  150.9350  141.1826  156.1881 N   0  0  0  0  0  0  0  0  0  0  0  0
  149.9877  140.5255  155.2912 C   0  0  0  0  0  0  0  0  0  0  0  0
  148.8475  141.4921  154.9293 C   0  0  0  0  0  0  0  0  0  0  0  0
  147.7884  140.8056  154.0474 C   0  0  0  0  0  0  0  0  0  0  0  0
  147.2120  139.5093  154.6705 C   0  0  0  0  0  0  0  0  0  0  0  0
  146.3162  139.8338  155.8858 C   0  0  0  0  0  0  0  0  0  0  0  0
  146.3419  138.7946  153.6184 C   0  0  0  0  0  0  0  0  0  0  0  0
  148.3758  138.5715  155.0779 C   0  0  0  0  0  0  0  0  0  0  0  0
  149.4340  139.2566  155.9608 C   0  0  0  0  0  0  0  0  0  0  0  0
  152.5836  142.2265  160.2034 C   0  0  0  0  0  0  0  0  0  0  0  0
  153.0248  141.0876  160.0305 O   0  0  0  0  0  0  0  0  0  0  0  0
  153.4897  142.8210  163.4003 H   0  0  0  0  0  0  0  0  0  0  0  0
  154.4630  141.9692  162.2114 H   0  0  0  0  0  0  0  0  0  0  0  0
  152.9385  141.2747  162.7736 H   0  0  0  0  0  0  0  0  0  0  0  0
  152.4149  144.5590  162.6206 H   0  0  0  0  0  0  0  0  0  0  0  0
  151.2004  145.8353  160.8760 H   0  0  0  0  0  0  0  0  0  0  0  0
  150.8459  144.7770  158.6538 H   0  0  0  0  0  0  0  0  0  0  0  0
  152.5793  142.2634  157.3672 H   0  0  0  0  0  0  0  0  0  0  0  0
  151.8915  141.2345  155.8694 H   0  0  0  0  0  0  0  0  0  0  0  0
  150.4842  140.2275  154.3659 H   0  0  0  0  0  0  0  0  0  0  0  0
  148.3826  141.8804  155.8362 H   0  0  0  0  0  0  0  0  0  0  0  0
  149.2509  142.3579  154.4027 H   0  0  0  0  0  0  0  0  0  0  0  0
  146.9835  141.5084  153.8292 H   0  0  0  0  0  0  0  0  0  0  0  0
  148.2471  140.5704  153.0858 H   0  0  0  0  0  0  0  0  0  0  0  0
  145.8963  138.9254  156.3192 H   0  0  0  0  0  0  0  0  0  0  0  0
  145.4807  140.4736  155.5998 H   0  0  0  0  0  0  0  0  0  0  0  0
  146.8577  140.3477  156.6791 H   0  0  0  0  0  0  0  0  0  0  0  0
  145.9197  137.8698  154.0135 H   0  0  0  0  0  0  0  0  0  0  0  0
  146.9195  138.5359  152.7301 H   0  0  0  0  0  0  0  0  0  0  0  0
  145.5114  139.4235  153.2955 H   0  0  0  0  0  0  0  0  0  0  0  0
  147.9876  137.6904  155.5902 H   0  0  0  0  0  0  0  0  0  0  0  0
  148.8711  138.1999  154.1795 H   0  0  0  0  0  0  0  0  0  0  0  0
  150.2484  138.5582  156.1574 H   0  0  0  0  0  0  0  0  0  0  0  0
  149.0054  139.5022  156.9329 H   0  0  0  0  0  0  0  0  0  0  0  0
  1  2  1  0  0  0  0
  1 21  1  0  0  0  0
  1 22  1  0  0  0  0
  1 23  1  0  0  0  0
  2 19  1  0  0  0  0
  2  3  1  0  0  0  0
  3  4  2  0  0  0  0
  3 24  1  0  0  0  0
  4  5  1  0  0  0  0
  4 25  1  0  0  0  0
  5  6  2  0  0  0  0
  5 26  1  0  0  0  0
  6  7  1  0  0  0  0
  6 19  1  0  0  0  0
  7  8  1  0  0  0  0
  7 27  1  0  0  0  0
  8  9  2  0  0  0  0
  8 10  1  0  0  0  0
 10 11  1  0  0  0  0
 10 28  1  0  0  0  0
 11 18  1  0  0  0  0
 11 12  1  0  0  0  0
 11 29  1  0  0  0  0
 12 13  1  0  0  0  0
 12 30  1  0  0  0  0
 12 31  1  0  0  0  0
 13 14  1  0  0  0  0
 13 32  1  0  0  0  0
 13 33  1  0  0  0  0
 14 15  1  0  0  0  0
 14 16  1  0  0  0  0
 14 17  1  0  0  0  0
 15 34  1  0  0  0  0
 15 35  1  0  0  0  0
 15 36  1  0  0  0  0
 16 37  1  0  0  0  0
 16 38  1  0  0  0  0
 16 39  1  0  0  0  0
 17 18  1  0  0  0  0
 17 40  1  0  0  0  0
 17 41  1  0  0  0  0
 18 42  1  0  0  0  0
 18 43  1  0  0  0  0
 19 20  2  0  0  0  0
M  END
> <s_m_source_file>
AV-unprocessed.smi

> <i_m_source_file_index>
665

> <i_lp_mmshare_version>
43012

> <i_f3d_flags>
0

> <s_epik_input>
W0NIM11uMVtjSF1bY0hdW2NIXWMoYzE9TylbTkhdQyg9TylbTkhdW0NIXShbQ0gyXVtDSDJdMilbQ0gyXVtDSDJdQzIoW0NIM10pW0NIM10=

> <s_epik_cmdline>
J2VwaWtfcHl0aG9uJywgJy1waCcsICc3LjAnLCAnLXRuJywgJzgnLCAnLW1hJywgJzIwMCcsICctbWV0YWxfYmluZGluZycsICctaW1hZScsICc8aW5maWxlLm1hZT4nLCAnLW9tYWUnLCAnPG91dGZpbGUubWFlPic=

> <r_lp_tautomer_probability>
1

> <r_epik_Ionization_Penalty>
2.65253e-05

> <r_epik_Ionization_Penalty_Charging>
5.1221e-06

> <r_epik_Ionization_Penalty_Neutral>
2.14032e-05

> <r_epik_State_Penalty>
-0

> <r_epik_Charging_Adjusted_Penalty>
5.1221e-06

> <i_epik_Tot_Q>
0

> <i_epik_Tot_abs_Q>
0

> <r_epik_Metal_State_Penalty>
-0

> <b_epik_Metal_Only>
0

> <s_lp_Force_Field>
OPLS_2005

> <r_lp_Energy>
25.5106

> <b_lp_Chiralities_Consistent>
1

> <s_lp_Variant>
AV-unprocessed.smi:665-1

> <Gold.Version>
5.8.1

> <Gold.Id.Protein>
6NUR|6NUR_protein|mol2

> <Gold.PLP.Fitness>
38.6254

> <Gold.PLP.PLP>
-40.0217

> <Gold.PLP.part.hbond>
0.0000

> <Gold.PLP.part.metal>
0.0000

> <Gold.PLP.part.buried>
-0.3224

> <Gold.PLP.part.nonpolar>
-39.3128

> <Gold.PLP.part.repulsive>
0.2995

> <Gold.PLP.ligand.clash>
0.0000

> <Gold.PLP.ligand.torsion>
0.6993

> <Gold.PLP.Chemscore.Hbond>
0.0000

> <Gold.PLP.Chemscore.CHOScore>
0.0000

> <Gold.PLP.Chemscore.Metal>
0.0000

> <Gold.PLP.Chemscore.Internal.Correction>
0.0024

> <Gold.Rescore>
     Score         DG    S(hbond)    S(metal)    S(lipo)     H(rot)  DE(clash)    DE(int)     intcor
     11.78     -14.52       0.00        0.00      99.13       1.00       0.63       2.10       ----

> <Gold.Chemscore.Fitness>
11.7842

> <Gold.Chemscore.DG>
-14.5179

> <Gold.Chemscore.ZeroCoef>
-5.4800

> <Gold.Chemscore.Hbond>
0.0000

> <Gold.Chemscore.Metal>
0.0000

> <Gold.Chemscore.Lipo>
99.1276

> <Gold.Chemscore.Internal_Hbond>
0.0000

> <Gold.Chemscore.DEClash>
0.6334

> <Gold.Chemscore.DEInternal>
2.1003

> <Gold.Chemscore.Rot>
1.0000

> <Gold.Chemscore.Internal.Correction>
   9.000000E+99

> <Gold.Chemscore.Hbond.Weighted>
-0.0000

> <Gold.Chemscore.Metal.Weighted>
-0.0000

> <Gold.Chemscore.Lipo.Weighted>
-11.5979

> <Gold.Chemscore.Internal_Hbond.Weighted>
0.0000

> <Gold.Chemscore.DEClash.Weighted>
0.6334

> <Gold.Chemscore.DEInternal.Weighted>
2.1003

> <Gold.Chemscore.Rot.Weighted>
2.5600

> <Gold.Chemscore.Internal.Correction.Weighted>
   9.000000E+99

> <Gold.Protein.RotatedTorsions>
[ 6907 6896 6895 6894 ] final  -53.15 input  -60.11 | X-H torsion
[ 7974 7965 7964 7962 ] final   21.13 input  175.53 | X-H torsion
[ 8008 7997 7996 7995 ] final -153.73 input   59.86 | X-H torsion
[ 10167 10162 10161 10158 ] final  100.44 input  -65.29 | X-H torsion
[ 10718 10713 10712 10709 ] final   55.17 input   66.30 | X-H torsion
[ 10763 10752 10751 10750 ] final -130.38 input  -60.55 | X-H torsion
[ 11005 11000 10999 10996 ] final -111.57 input  -57.11 | X-H torsion

> <Gold.Protein.ActiveResidues>
 VAL166  LYS551  ARG553  GLY616  TRP617  ASP618  TYR619  PRO620  LYS621  CYS622 
 ASP623  PHE694  ASN695  SER759  ASP760  ASP761  ALA762  ILE779  LEU786  VAL792 
 PHE793  MET794  SER795  GLU796  ALA797  LYS798  CYS799  TRP800  GLU811  SER814 

> <Gold.Protein.RotatedAtoms>
  150.8452  134.7759  159.6964 H   0  0  0  0  0  0  0  0  0  0  0  0  # atno 6907 bound_to 6896
  152.4531  134.5348  159.9831 H   0  0  0  0  0  0  0  0  0  0  0  0  # atno 6908 bound_to 6896
  151.5480  133.3384  159.2983 H   0  0  0  0  0  0  0  0  0  0  0  0  # atno 6909 bound_to 6896
  146.2084  139.8071  142.8708 H   0  0  0  0  0  0  0  0  0  0  0  0  # atno 7974 bound_to 7965
  155.6754  140.0738  157.2504 H   0  0  0  0  0  0  0  0  0  0  0  0  # atno 8008 bound_to 7997
  154.4115  140.1691  156.1976 H   0  0  0  0  0  0  0  0  0  0  0  0  # atno 8009 bound_to 7997
  155.9580  140.3372  155.6469 H   0  0  0  0  0  0  0  0  0  0  0  0  # atno 8010 bound_to 7997
  139.7526  144.6979  151.0409 H   0  0  0  0  0  0  0  0  0  0  0  0  # atno 10167 bound_to 10162
  157.5322  130.8638  149.8703 H   0  0  0  0  0  0  0  0  0  0  0  0  # atno 10718 bound_to 10713
  154.8755  135.3864  154.4074 H   0  0  0  0  0  0  0  0  0  0  0  0  # atno 10763 bound_to 10752
  153.4791  135.7030  153.5953 H   0  0  0  0  0  0  0  0  0  0  0  0  # atno 10764 bound_to 10752
  153.4377  135.3863  155.2176 H   0  0  0  0  0  0  0  0  0  0  0  0  # atno 10765 bound_to 10752
  141.0726  133.9354  157.2454 H   0  0  0  0  0  0  0  0  0  0  0  0  # atno 11005 bound_to 11000
  145.3235  141.0250  143.3487 LP  0  0  0  0  0  0  0  0  0  0  0  0  # atno 17320 bound_to 7965
  144.8849  139.4853  143.6705 LP  0  0  0  0  0  0  0  0  0  0  0  0  # atno 17321 bound_to 7965
  140.7799  143.4790  151.0043 LP  0  0  0  0  0  0  0  0  0  0  0  0  # atno 17342 bound_to 10162
  139.8478  143.7479  152.3179 LP  0  0  0  0  0  0  0  0  0  0  0  0  # atno 17343 bound_to 10162
  156.0431  130.3734  150.1385 LP  0  0  0  0  0  0  0  0  0  0  0  0  # atno 17370 bound_to 10713
  156.9569  130.9792  151.3487 LP  0  0  0  0  0  0  0  0  0  0  0  0  # atno 17371 bound_to 10713
  139.9539  135.0169  156.9073 LP  0  0  0  0  0  0  0  0  0  0  0  0  # atno 17394 bound_to 11000
  140.5640  134.0507  155.7408 LP  0  0  0  0  0  0  0  0  0  0  0  0  # atno 17395 bound_to 11000

$$$$
