AV-unprocessed.smi:278|AV-procd|sdf|2088|dock6
  -GOLD-   2262021363D 1   1.00000     0.00000
 Structure written by MMmdl.
 50 54  0  0  0  0  0  0  0  0  1 V2000
  147.6402  137.1924  161.9886 O   0  0  0  0  0  0  0  0  0  0  0  0
  146.5885  136.1997  161.7183 S   0  0  0  0  0  0  0  0  0  0  0  0
  146.1422  135.2729  162.7694 O   0  0  0  0  0  0  0  0  0  0  0  0
  145.1245  137.0552  161.0167 C   0  0  0  0  0  0  0  0  0  0  0  0
  144.8309  136.3740  159.6732 C   0  0  0  0  0  0  0  0  0  0  0  0
  146.1445  135.8232  159.0882 C   0  0  1  0  0  0  0  0  0  0  0  0
  147.0602  136.9004  158.4969 C   0  0  0  0  0  0  0  0  0  0  0  0
  148.4157  136.3965  158.6752 N   0  0  0  0  0  0  0  0  0  0  0  0
  149.4915  137.1961  158.4499 C   0  0  0  0  0  0  0  0  0  0  0  0
  150.7253  136.7560  158.8162 N   0  0  0  0  0  0  0  0  0  0  0  0
  151.8088  137.5060  158.5971 C   0  0  0  0  0  0  0  0  0  0  0  0
  151.8869  138.7145  158.0386 N   0  0  0  0  0  0  0  0  0  0  0  0
  150.6530  139.1737  157.6855 C   0  0  0  0  0  0  0  0  0  0  0  0
  149.4140  138.4914  157.8566 C   0  0  0  0  0  0  0  0  0  0  0  0
  148.3750  139.2893  157.3874 N   0  0  0  0  0  0  0  0  0  0  0  0
  148.9653  140.3683  156.9518 C   0  0  0  0  0  0  0  0  0  0  0  0
  150.3342  140.3781  157.0852 N   0  0  0  0  0  0  0  0  0  0  0  0
  151.2431  141.4346  156.6775 C   0  0  0  0  0  0  0  0  0  0  0  0
  151.1913  142.6480  157.6272 C   0  0  1  0  0  0  0  0  0  0  0  0
  149.8708  143.1562  157.6565 O   0  0  0  0  0  0  0  0  0  0  0  0
  151.6215  142.2893  159.0614 C   0  0  2  0  0  0  0  0  0  0  0  0
  151.9272  143.4977  159.9498 C   0  0  0  0  0  0  0  0  0  0  0  0
  152.8657  142.8985  160.9710 C   0  0  0  0  0  0  0  0  0  0  0  0
  153.6934  141.9526  160.1076 C   0  0  0  0  0  0  0  0  0  0  0  0
  152.8367  141.5418  159.0451 O   0  0  0  0  0  0  0  0  0  0  0  0
  148.4499  135.4091  159.7471 C   0  0  0  0  0  0  0  0  0  0  0  0
  146.9975  135.2257  160.2076 C   0  0  1  0  0  0  0  0  0  0  0  0
  145.9469  135.0677  158.3264 H   0  0  0  0  0  0  0  0  0  0  0  0
  146.7502  134.1818  160.4022 H   0  0  0  0  0  0  0  0  0  0  0  0
  144.2874  137.0026  161.7130 H   0  0  0  0  0  0  0  0  0  0  0  0
  145.3867  138.1033  160.8709 H   0  0  0  0  0  0  0  0  0  0  0  0
  144.1536  135.5374  159.8482 H   0  0  0  0  0  0  0  0  0  0  0  0
  144.3264  137.0482  158.9804 H   0  0  0  0  0  0  0  0  0  0  0  0
  146.8379  137.0795  157.4443 H   0  0  0  0  0  0  0  0  0  0  0  0
  146.9503  137.8441  159.0331 H   0  0  0  0  0  0  0  0  0  0  0  0
  152.7478  137.0745  158.9116 H   0  0  0  0  0  0  0  0  0  0  0  0
  148.4158  141.1881  156.5120 H   0  0  0  0  0  0  0  0  0  0  0  0
  152.2543  141.0279  156.6305 H   0  0  0  0  0  0  0  0  0  0  0  0
  150.9798  141.7341  155.6623 H   0  0  0  0  0  0  0  0  0  0  0  0
  151.8444  143.4334  157.2444 H   0  0  0  0  0  0  0  0  0  0  0  0
  149.8118  143.8680  157.0376 H   0  0  0  0  0  0  0  0  0  0  0  0
  150.8603  141.6738  159.5439 H   0  0  0  0  0  0  0  0  0  0  0  0
  152.4419  144.2746  159.3820 H   0  0  0  0  0  0  0  0  0  0  0  0
  151.0337  143.9355  160.3957 H   0  0  0  0  0  0  0  0  0  0  0  0
  153.4697  143.6427  161.4908 H   0  0  0  0  0  0  0  0  0  0  0  0
  152.3000  142.3347  161.7139 H   0  0  0  0  0  0  0  0  0  0  0  0
  154.5472  142.4782  159.6782 H   0  0  0  0  0  0  0  0  0  0  0  0
  154.0698  141.0977  160.6698 H   0  0  0  0  0  0  0  0  0  0  0  0
  148.8342  134.4738  159.3393 H   0  0  0  0  0  0  0  0  0  0  0  0
  149.1010  135.7043  160.5698 H   0  0  0  0  0  0  0  0  0  0  0  0
  1  2  2  0  0  0  0
  2 27  1  0  0  0  0
  2  3  2  0  0  0  0
  2  4  1  0  0  0  0
  4  5  1  0  0  0  0
  4 30  1  0  0  0  0
  4 31  1  0  0  0  0
  5  6  1  0  0  0  0
  5 32  1  0  0  0  0
  5 33  1  0  0  0  0
  6 28  1  0  0  0  0
  6 27  1  0  0  0  0
  6  7  1  0  0  0  0
  7  8  1  0  0  0  0
  7 34  1  0  0  0  0
  7 35  1  0  0  0  0
  8  9  1  0  0  0  0
  8 26  1  0  0  0  0
  9 14  1  0  0  0  0
  9 10  2  0  0  0  0
 10 11  1  0  0  0  0
 11 12  2  0  0  0  0
 11 36  1  0  0  0  0
 12 13  1  0  0  0  0
 13 17  1  0  0  0  0
 13 14  2  0  0  0  0
 14 15  1  0  0  0  0
 15 16  2  0  0  0  0
 16 17  1  0  0  0  0
 16 37  1  0  0  0  0
 17 18  1  0  0  0  0
 18 19  1  0  0  0  0
 18 38  1  0  0  0  0
 18 39  1  0  0  0  0
 19 20  1  0  0  0  0
 19 21  1  0  0  0  0
 19 40  1  0  0  0  0
 20 41  1  0  0  0  0
 21 25  1  0  0  0  0
 21 22  1  0  0  0  0
 21 42  1  0  0  0  0
 22 23  1  0  0  0  0
 22 43  1  0  0  0  0
 22 44  1  0  0  0  0
 23 24  1  0  0  0  0
 23 45  1  0  0  0  0
 23 46  1  0  0  0  0
 24 25  1  0  0  0  0
 24 47  1  0  0  0  0
 24 48  1  0  0  0  0
 26 27  1  0  0  0  0
 26 49  1  0  0  0  0
 26 50  1  0  0  0  0
 27 29  1  0  0  0  0
M  END
> <s_m_source_file>
AV-unprocessed.smi

> <i_m_source_file_index>
278

> <i_lp_mmshare_version>
43012

> <i_f3d_flags>
0

> <s_epik_input>
W0NIMl0xW0NIMl1TKD1PKSg9TylbQ0BASF0oW0NAQEhdMTIpW0NIMl1OKFtDSDJdMiljKG5bY0hdbjMpYyhjMzQpbltjSF1uNFtDSDJdW0NASF0oW09IXSlbQ0BASF01W0NIMl1bQ0gyXVtDSDJdTzU=

> <s_epik_cmdline>
J2VwaWtfcHl0aG9uJywgJy1waCcsICc3LjAnLCAnLXRuJywgJzgnLCAnLW1hJywgJzIwMCcsICctbWV0YWxfYmluZGluZycsICctaW1hZScsICc8aW5maWxlLm1hZT4nLCAnLW9tYWUnLCAnPG91dGZpbGUubWFlPic=

> <r_lp_tautomer_probability>
1

> <r_epik_Ionization_Penalty>
0.000636766

> <r_epik_Ionization_Penalty_Charging>
0

> <r_epik_Ionization_Penalty_Neutral>
0.000636766

> <r_epik_State_Penalty>
0.000329976

> <r_epik_Charging_Adjusted_Penalty>
0.000329976

> <i_epik_Tot_Q>
0

> <i_epik_Tot_abs_Q>
0

> <r_epik_Metal_State_Penalty>
-0

> <b_epik_Metal_Only>
0

> <s_lp_Force_Field>
OPLS_2005

> <r_lp_Energy>
48.1975

> <b_lp_Chiralities_Consistent>
1

> <s_lp_Variant>
AV-unprocessed.smi:278-2

> <Gold.Version>
5.8.1

> <Gold.Id.Protein>
6NUR|6NUR_protein|mol2

> <Gold.PLP.Fitness>
46.9363

> <Gold.PLP.PLP>
-37.4720

> <Gold.PLP.part.hbond>
-4.0000

> <Gold.PLP.part.metal>
0.0000

> <Gold.PLP.part.buried>
-6.4992

> <Gold.PLP.part.nonpolar>
-26.7653

> <Gold.PLP.part.repulsive>
0.0000

> <Gold.PLP.ligand.clash>
0.0000

> <Gold.PLP.ligand.torsion>
0.5129

> <Gold.PLP.Chemscore.Hbond>
3.3982

> <Gold.PLP.Chemscore.CHOScore>
0.0000

> <Gold.PLP.Chemscore.Metal>
0.0000

> <Gold.Chemscore.Hbonds>
donor molecule, donor type, donor heavy atom, donor atom, acceptor molecule, acceptor atom, score
      L1  H    20    41       P1  8028  1.00
      P1  H  6896  6909       L1    10  1.00
      P1  H  6931  6943       L1     1  0.98
      P1  H  6934  6947       L1     1  0.45

> <Gold.PLP.Chemscore.Internal.Correction>
0.2955

> <Gold.Rescore>
     Score         DG    S(hbond)    S(metal)    S(lipo)     H(rot)  DE(clash)    DE(int)     intcor
     17.42     -19.85       3.42        0.00      71.80       2.13       0.00       2.42       ----

> <Gold.Chemscore.Fitness>
17.4245

> <Gold.Chemscore.DG>
-19.8454

> <Gold.Chemscore.ZeroCoef>
-5.4800

> <Gold.Chemscore.Hbond>
3.4220

> <Gold.Chemscore.Metal>
0.0000

> <Gold.Chemscore.Lipo>
71.7989

> <Gold.Chemscore.Internal_Hbond>
0.0000

> <Gold.Chemscore.DEClash>
0.0000

> <Gold.Chemscore.DEInternal>
2.4209

> <Gold.Chemscore.Rot>
2.1346

> <Gold.Chemscore.Internal.Correction>
   9.000000E+99

> <Gold.Chemscore.Hbonds>
donor molecule, donor type, donor heavy atom, donor atom, acceptor molecule, acceptor atom, score
      L1  H    20    41       P1  8028  0.86
      P1  H  6896  6909       L1    10  0.84
      P1  H  6931  6943       L1     1  0.93
      P1  H  6934  6947       L1     1  0.33

> <Gold.Chemscore.Hbond.Weighted>
-11.4296

> <Gold.Chemscore.Metal.Weighted>
-0.0000

> <Gold.Chemscore.Lipo.Weighted>
-8.4005

> <Gold.Chemscore.Internal_Hbond.Weighted>
0.0000

> <Gold.Chemscore.DEClash.Weighted>
0.0000

> <Gold.Chemscore.DEInternal.Weighted>
2.4209

> <Gold.Chemscore.Rot.Weighted>
5.4646

> <Gold.Chemscore.Internal.Correction.Weighted>
   9.000000E+99

> <Gold.Protein.RotatedTorsions>
[ 6907 6896 6895 6894 ] final   82.32 input  -60.11 | X-H torsion
[ 7974 7965 7964 7962 ] final  -81.49 input  175.53 | X-H torsion
[ 8008 7997 7996 7995 ] final   27.26 input   59.86 | X-H torsion
[ 10167 10162 10161 10158 ] final   67.66 input  -65.29 | X-H torsion
[ 10718 10713 10712 10709 ] final   -3.03 input   66.30 | X-H torsion
[ 10763 10752 10751 10750 ] final -136.15 input  -60.55 | X-H torsion
[ 11005 11000 10999 10996 ] final  149.15 input  -57.11 | X-H torsion

> <Gold.Protein.ActiveResidues>
 VAL166  LYS551  ARG553  GLY616  TRP617  ASP618  TYR619  PRO620  LYS621  CYS622 
 ASP623  PHE694  ASN695  SER759  ASP760  ASP761  ALA762  ILE779  LEU786  VAL792 
 PHE793  MET794  SER795  GLU796  ALA797  LYS798  CYS799  TRP800  GLU811  SER814 

> <Gold.Protein.RotatedAtoms>
  152.5295  134.3069  159.9098 H   0  0  0  0  0  0  0  0  0  0  0  0  # atno 6907 bound_to 6896
  151.3018  133.4112  159.2648 H   0  0  0  0  0  0  0  0  0  0  0  0  # atno 6908 bound_to 6896
  151.0112  134.9414  159.8065 H   0  0  0  0  0  0  0  0  0  0  0  0  # atno 6909 bound_to 6896
  145.5460  140.9503  143.1525 H   0  0  0  0  0  0  0  0  0  0  0  0  # atno 7974 bound_to 7965
  155.0402  140.3168  155.4727 H   0  0  0  0  0  0  0  0  0  0  0  0  # atno 8008 bound_to 7997
  156.2856  140.2164  156.5468 H   0  0  0  0  0  0  0  0  0  0  0  0  # atno 8009 bound_to 7997
  154.7297  140.0482  157.0702 H   0  0  0  0  0  0  0  0  0  0  0  0  # atno 8010 bound_to 7997
  140.0871  144.5020  150.7123 H   0  0  0  0  0  0  0  0  0  0  0  0  # atno 10167 bound_to 10162
  156.7821  130.5334  149.5749 H   0  0  0  0  0  0  0  0  0  0  0  0  # atno 10718 bound_to 10713
  154.8689  135.3681  154.5014 H   0  0  0  0  0  0  0  0  0  0  0  0  # atno 10763 bound_to 10752
  153.5654  135.7022  153.5533 H   0  0  0  0  0  0  0  0  0  0  0  0  # atno 10764 bound_to 10752
  153.3590  135.4051  155.1667 H   0  0  0  0  0  0  0  0  0  0  0  0  # atno 10765 bound_to 10752
  140.1020  134.8977  157.1810 H   0  0  0  0  0  0  0  0  0  0  0  0  # atno 11005 bound_to 11000
  144.7553  139.7090  143.7256 LP  0  0  0  0  0  0  0  0  0  0  0  0  # atno 17320 bound_to 7965
  146.1949  139.5210  142.9781 LP  0  0  0  0  0  0  0  0  0  0  0  0  # atno 17321 bound_to 7965
  140.7048  143.2460  151.4760 LP  0  0  0  0  0  0  0  0  0  0  0  0  # atno 17342 bound_to 10162
  139.5746  144.1849  152.1885 LP  0  0  0  0  0  0  0  0  0  0  0  0  # atno 17343 bound_to 10162
  156.1211  130.6111  151.0195 LP  0  0  0  0  0  0  0  0  0  0  0  0  # atno 17370 bound_to 10713
  157.6641  131.0875  150.7769 LP  0  0  0  0  0  0  0  0  0  0  0  0  # atno 17371 bound_to 10713
  140.3206  134.2920  155.7247 LP  0  0  0  0  0  0  0  0  0  0  0  0  # atno 17394 bound_to 11000
  141.2108  133.7708  156.9906 LP  0  0  0  0  0  0  0  0  0  0  0  0  # atno 17395 bound_to 11000

$$$$
