AV-unprocessed.smi:670|AV-procd|sdf|3272|dock1
  -GOLD-   22720 0233D 1   1.00000     0.00000
 Structure written by MMmdl.
 45 46  0  0  0  0  0  0  0  0  1 V2000
  151.2732  141.5214  157.4581 C   0  0  0  0  0  0  0  0  0  0  0  0
  151.7125  142.5464  158.5171 C   0  0  1  0  0  0  0  0  0  0  0  0
  150.5480  143.4915  158.8754 C   0  0  0  0  0  0  0  0  0  0  0  0
  150.9548  144.5196  159.9419 C   0  0  0  0  0  0  0  0  0  0  0  0
  151.4925  143.8242  161.2004 C   0  0  0  0  0  0  0  0  0  0  0  0
  152.6628  142.8912  160.8565 C   0  0  0  0  0  0  0  0  0  0  0  0
  152.2650  141.8554  159.7842 C   0  0  2  0  0  0  0  0  0  0  0  0
  153.4075  141.1010  159.4001 O   0  0  0  0  0  0  0  0  0  0  0  0
  153.6054  139.9059  160.1414 C   0  0  0  0  0  0  0  0  0  0  0  0
  153.3445  138.7068  159.2185 C   0  0  0  0  0  0  0  0  0  0  0  0
  151.9466  138.2923  159.2633 N   0  0  0  0  0  0  0  0  0  0  0  0
  151.4909  137.1708  159.8407 C   0  0  0  0  0  0  0  0  0  0  0  0
  152.2284  136.3356  160.3663 O   0  0  0  0  0  0  0  0  0  0  0  0
  149.9697  136.9642  159.8010 C   0  0  0  0  0  0  0  0  0  0  0  0
  149.4923  135.9651  160.7679 N   0  0  0  0  0  0  0  0  0  0  0  0
  148.6775  136.4835  161.7631 N   0  0  0  0  0  0  0  0  0  0  0  0
  148.1831  135.7028  162.6636 C   0  0  0  0  0  0  0  0  0  0  0  0
  147.3790  136.2573  163.6293 O   0  0  0  0  0  0  0  0  0  0  0  0
  148.4655  134.2841  162.6613 C   0  0  0  0  0  0  0  0  0  0  0  0
  149.2654  133.7894  161.6914 C   0  0  0  0  0  0  0  0  0  0  0  0
  149.8435  134.6471  160.6552 C   0  0  0  0  0  0  0  0  0  0  0  0
  150.5780  134.2239  159.7632 O   0  0  0  0  0  0  0  0  0  0  0  0
  147.9567  136.4727  164.3453 H   0  0  0  0  0  0  0  0  0  0  0  0
  150.4785  140.8776  157.8366 H   0  0  0  0  0  0  0  0  0  0  0  0
  152.1016  140.8806  157.1543 H   0  0  0  0  0  0  0  0  0  0  0  0
  150.9005  142.0177  156.5621 H   0  0  0  0  0  0  0  0  0  0  0  0
  152.5115  143.1499  158.0836 H   0  0  0  0  0  0  0  0  0  0  0  0
  150.2023  144.0128  157.9822 H   0  0  0  0  0  0  0  0  0  0  0  0
  149.6999  142.9095  159.2392 H   0  0  0  0  0  0  0  0  0  0  0  0
  151.7171  145.1862  159.5367 H   0  0  0  0  0  0  0  0  0  0  0  0
  150.1006  145.1463  160.1995 H   0  0  0  0  0  0  0  0  0  0  0  0
  151.8119  144.5688  161.9301 H   0  0  0  0  0  0  0  0  0  0  0  0
  150.6935  143.2508  161.6719 H   0  0  0  0  0  0  0  0  0  0  0  0
  153.5053  143.4838  160.4976 H   0  0  0  0  0  0  0  0  0  0  0  0
  153.0016  142.3922  161.7643 H   0  0  0  0  0  0  0  0  0  0  0  0
  151.4902  141.1959  160.1804 H   0  0  0  0  0  0  0  0  0  0  0  0
  154.6255  139.8614  160.5226 H   0  0  0  0  0  0  0  0  0  0  0  0
  152.9352  139.8713  161.0016 H   0  0  0  0  0  0  0  0  0  0  0  0
  153.5946  138.9684  158.1902 H   0  0  0  0  0  0  0  0  0  0  0  0
  153.9900  137.8709  159.4929 H   0  0  0  0  0  0  0  0  0  0  0  0
  151.2728  138.9222  158.8524 H   0  0  0  0  0  0  0  0  0  0  0  0
  149.4667  137.9174  159.9760 H   0  0  0  0  0  0  0  0  0  0  0  0
  149.6952  136.6700  158.7864 H   0  0  0  0  0  0  0  0  0  0  0  0
  148.0437  133.6424  163.4210 H   0  0  0  0  0  0  0  0  0  0  0  0
  149.4853  132.7320  161.6778 H   0  0  0  0  0  0  0  0  0  0  0  0
  1  2  1  0  0  0  0
  1 24  1  0  0  0  0
  1 25  1  0  0  0  0
  1 26  1  0  0  0  0
  2  7  1  0  0  0  0
  2  3  1  0  0  0  0
  2 27  1  0  0  0  0
  3  4  1  0  0  0  0
  3 28  1  0  0  0  0
  3 29  1  0  0  0  0
  4  5  1  0  0  0  0
  4 30  1  0  0  0  0
  4 31  1  0  0  0  0
  5  6  1  0  0  0  0
  5 32  1  0  0  0  0
  5 33  1  0  0  0  0
  6  7  1  0  0  0  0
  6 34  1  0  0  0  0
  6 35  1  0  0  0  0
  7  8  1  0  0  0  0
  7 36  1  0  0  0  0
  8  9  1  0  0  0  0
  9 10  1  0  0  0  0
  9 37  1  0  0  0  0
  9 38  1  0  0  0  0
 10 11  1  0  0  0  0
 10 39  1  0  0  0  0
 10 40  1  0  0  0  0
 11 12  1  0  0  0  0
 11 41  1  0  0  0  0
 12 13  2  0  0  0  0
 12 14  1  0  0  0  0
 14 42  1  0  0  0  0
 14 43  1  0  0  0  0
 14 15  1  0  0  0  0
 15 16  1  0  0  0  0
 15 21  1  0  0  0  0
 16 17  2  0  0  0  0
 17 18  1  0  0  0  0
 17 19  1  0  0  0  0
 18 23  1  0  0  0  0
 19 44  1  0  0  0  0
 19 20  2  0  0  0  0
 20 45  1  0  0  0  0
 20 21  1  0  0  0  0
 21 22  2  0  0  0  0
M  END
> <s_m_source_file>
AV-unprocessed.smi

> <i_m_source_file_index>
670

> <i_lp_mmshare_version>
43012

> <i_f3d_flags>
0

> <s_epik_input>
W0NIM11bQ0BASF0xW0NIMl1bQ0gyXVtDSDJdW0NIMl1bQ0BIXTFPW0NIMl1bQ0gyXVtOSF1DKD1PKVtDSDJdbjJbbkhdYyg9TylbY0hdW2NIXWMyPU8=

> <s_epik_cmdline>
J2VwaWtfcHl0aG9uJywgJy1waCcsICc3LjAnLCAnLXRuJywgJzgnLCAnLW1hJywgJzIwMCcsICctbWV0YWxfYmluZGluZycsICctaW1hZScsICc8aW5maWxlLm1hZT4nLCAnLW9tYWUnLCAnPG91dGZpbGUubWFlPic=

> <r_lp_tautomer_probability>
0.9996

> <r_epik_Ionization_Penalty>
2.12726

> <r_epik_Ionization_Penalty_Charging>
3.83395e-08

> <r_epik_Ionization_Penalty_Neutral>
2.12726

> <r_epik_State_Penalty>
1.70432

> <r_epik_Charging_Adjusted_Penalty>
1.70432

> <i_epik_Tot_Q>
0

> <i_epik_Tot_abs_Q>
0

> <r_epik_Metal_State_Penalty>
1.70432

> <b_epik_Metal_Only>
0

> <s_lp_Force_Field>
OPLS_2005

> <r_lp_Energy>
20.1935

> <b_lp_Chiralities_Consistent>
1

> <s_lp_Variant>
AV-unprocessed.smi:670-8

> <Gold.Version>
5.8.1

> <Gold.Id.Protein>
6NUR|6NUR_protein|mol2

> <Gold.PLP.Fitness>
49.5277

> <Gold.PLP.PLP>
-42.1750

> <Gold.PLP.part.hbond>
-3.9541

> <Gold.PLP.part.metal>
0.0000

> <Gold.PLP.part.buried>
-5.2694

> <Gold.PLP.part.nonpolar>
-32.9529

> <Gold.PLP.part.repulsive>
0.0936

> <Gold.PLP.ligand.clash>
0.0000

> <Gold.PLP.ligand.torsion>
1.2891

> <Gold.PLP.Chemscore.Hbond>
3.2800

> <Gold.PLP.Chemscore.CHOScore>
0.0000

> <Gold.PLP.Chemscore.Metal>
0.0000

> <Gold.Chemscore.Hbonds>
donor molecule, donor type, donor heavy atom, donor atom, acceptor molecule, acceptor atom, score
      P1  H  6896  6909       L1    13  0.44
      P1  H  6931  6943       L1    16  1.00

> <Gold.PLP.Chemscore.Internal.Correction>
0.0908

> <Gold.Rescore>
     Score         DG    S(hbond)    S(metal)    S(lipo)     H(rot)  DE(clash)    DE(int)     intcor
     13.04     -16.61       2.19        0.00     100.32       3.09       0.03       3.54       ----

> <Gold.Chemscore.Fitness>
13.0363

> <Gold.Chemscore.DG>
-16.6106

> <Gold.Chemscore.ZeroCoef>
-5.4800

> <Gold.Chemscore.Hbond>
2.1868

> <Gold.Chemscore.Metal>
0.0000

> <Gold.Chemscore.Lipo>
100.3179

> <Gold.Chemscore.Internal_Hbond>
0.0000

> <Gold.Chemscore.DEClash>
0.0311

> <Gold.Chemscore.DEInternal>
3.5433

> <Gold.Chemscore.Rot>
3.0901

> <Gold.Chemscore.Internal.Correction>
   9.000000E+99

> <Gold.Chemscore.Hbonds>
donor molecule, donor type, donor heavy atom, donor atom, acceptor molecule, acceptor atom, score
      P1  H  6896  6909       L1    13  0.32
      P1  H  6931  6943       L1    16  0.65

> <Gold.Chemscore.Hbond.Weighted>
-7.3040

> <Gold.Chemscore.Metal.Weighted>
-0.0000

> <Gold.Chemscore.Lipo.Weighted>
-11.7372

> <Gold.Chemscore.Internal_Hbond.Weighted>
0.0000

> <Gold.Chemscore.DEClash.Weighted>
0.0311

> <Gold.Chemscore.DEInternal.Weighted>
3.5433

> <Gold.Chemscore.Rot.Weighted>
7.9106

> <Gold.Chemscore.Internal.Correction.Weighted>
   9.000000E+99

> <Gold.Protein.RotatedTorsions>
[ 6907 6896 6895 6894 ] final  134.06 input  -60.11 | X-H torsion
[ 7974 7965 7964 7962 ] final   -2.16 input  175.53 | X-H torsion
[ 8008 7997 7996 7995 ] final  -87.55 input   59.86 | X-H torsion
[ 10167 10162 10161 10158 ] final  -82.61 input  -65.29 | X-H torsion
[ 10718 10713 10712 10709 ] final  -82.08 input   66.30 | X-H torsion
[ 10763 10752 10751 10750 ] final   70.36 input  -60.55 | X-H torsion
[ 11005 11000 10999 10996 ] final -151.93 input  -57.11 | X-H torsion

> <Gold.Protein.ActiveResidues>
 VAL166  LYS551  ARG553  GLY616  TRP617  ASP618  TYR619  PRO620  LYS621  CYS622 
 ASP623  PHE694  ASN695  SER759  ASP760  ASP761  ALA762  ILE779  LEU786  VAL792 
 PHE793  MET794  SER795  GLU796  ALA797  LYS798  CYS799  TRP800  GLU811  SER814 

> <Gold.Protein.RotatedAtoms>
  152.3153  133.5796  159.5707 H   0  0  0  0  0  0  0  0  0  0  0  0  # atno 6907 bound_to 6896
  150.7343  134.0092  159.3672 H   0  0  0  0  0  0  0  0  0  0  0  0  # atno 6908 bound_to 6896
  151.7981  135.0717  160.0447 H   0  0  0  0  0  0  0  0  0  0  0  0  # atno 6909 bound_to 6896
  146.2408  140.1529  142.8333 H   0  0  0  0  0  0  0  0  0  0  0  0  # atno 7974 bound_to 7965
  154.6645  140.0564  157.0099 H   0  0  0  0  0  0  0  0  0  0  0  0  # atno 8008 bound_to 7997
  155.1179  140.3244  155.4486 H   0  0  0  0  0  0  0  0  0  0  0  0  # atno 8009 bound_to 7997
  156.2632  140.2003  156.6301 H   0  0  0  0  0  0  0  0  0  0  0  0  # atno 8010 bound_to 7997
  140.4304  143.2551  151.8767 H   0  0  0  0  0  0  0  0  0  0  0  0  # atno 10167 bound_to 10162
  156.0039  130.4623  150.4050 H   0  0  0  0  0  0  0  0  0  0  0  0  # atno 10718 bound_to 10713
  153.0337  135.5177  154.7429 H   0  0  0  0  0  0  0  0  0  0  0  0  # atno 10763 bound_to 10752
  154.6423  135.2914  155.0091 H   0  0  0  0  0  0  0  0  0  0  0  0  # atno 10764 bound_to 10752
  154.1005  135.6637  153.4920 H   0  0  0  0  0  0  0  0  0  0  0  0  # atno 10765 bound_to 10752
  140.7243  134.3693  157.5178 H   0  0  0  0  0  0  0  0  0  0  0  0  # atno 11005 bound_to 11000
  145.0152  140.8748  143.5200 LP  0  0  0  0  0  0  0  0  0  0  0  0  # atno 17320 bound_to 7965
  145.1569  139.2481  143.5412 LP  0  0  0  0  0  0  0  0  0  0  0  0  # atno 17321 bound_to 7965
  139.4785  144.5341  151.8624 LP  0  0  0  0  0  0  0  0  0  0  0  0  # atno 17342 bound_to 10162
  140.4433  144.1956  150.5892 LP  0  0  0  0  0  0  0  0  0  0  0  0  # atno 17343 bound_to 10162
  157.2116  131.0462  151.2596 LP  0  0  0  0  0  0  0  0  0  0  0  0  # atno 17370 bound_to 10713
  157.3883  130.7268  149.6679 LP  0  0  0  0  0  0  0  0  0  0  0  0  # atno 17371 bound_to 10713
  139.8841  134.8975  156.2726 LP  0  0  0  0  0  0  0  0  0  0  0  0  # atno 17394 bound_to 11000
  140.9977  133.7170  156.0911 LP  0  0  0  0  0  0  0  0  0  0  0  0  # atno 17395 bound_to 11000

$$$$
