AV-unprocessed.smi:2078|AV-procd|sdf|8471|dock6
  -GOLD-   2272011173D 1   1.00000     0.00000
 Structure written by MMmdl.
 41 42  0  0  0  0  0  0  0  0  3 V2000
  151.3251  141.3553  157.7900 C   0  0  0  0  0  0  0  0  0  0  0  0
  150.7946  140.8622  156.4877 C   0  0  0  0  0  0  0  0  0  0  0  0
  149.5548  140.8997  155.9144 C   0  0  0  0  0  0  0  0  0  0  0  0
  149.7566  140.2470  154.6691 C   0  0  0  0  0  0  0  0  0  0  0  0
  148.6807  140.0812  153.7574 N   0  0  0  0  0  0  0  0  0  0  0  0
  147.3599  140.2143  153.9772 C   0  0  0  0  0  0  0  0  0  0  0  0
  146.9418  140.5301  155.0976 O   0  0  0  0  0  0  0  0  0  0  0  0
  146.6257  139.9663  152.8579 N   0  5  0  0  0  0  0  0  0  0  0  0
  146.9935  139.0046  151.8222 C   0  0  0  0  0  0  0  0  0  0  0  0
  145.8421  138.0020  151.6159 C   0  0  0  0  0  0  0  0  0  0  0  0
  146.2327  136.6176  151.9950 N   0  3  1  0  0  0  0  0  0  0  0  0
  146.0998  136.3639  153.4534 C   0  0  0  0  0  0  0  0  0  0  0  0
  146.6610  134.9828  153.8285 C   0  0  0  0  0  0  0  0  0  0  0  0
  145.9841  133.8720  153.0150 C   0  0  0  0  0  0  0  0  0  0  0  0
  146.1046  134.1638  151.5098 C   0  0  1  0  0  0  0  0  0  0  0  0
  145.4151  133.0799  150.6694 C   0  0  0  0  0  0  0  0  0  0  0  0
  145.5442  135.5649  151.1952 C   0  0  0  0  0  0  0  0  0  0  0  0
  151.0085  139.8485  154.4981 N   0  0  0  0  0  0  0  0  0  0  0  0
  151.6796  140.2404  155.6625 O   0  0  0  0  0  0  0  0  0  0  0  0
  150.5366  141.8239  158.3790 H   0  0  0  0  0  0  0  0  0  0  0  0
  152.1127  142.0919  157.6318 H   0  0  0  0  0  0  0  0  0  0  0  0
  151.7406  140.5338  158.3736 H   0  0  0  0  0  0  0  0  0  0  0  0
  148.6500  141.3252  156.3218 H   0  0  0  0  0  0  0  0  0  0  0  0
  148.9433  139.8298  152.8161 H   0  0  0  0  0  0  0  0  0  0  0  0
  147.2089  139.4938  150.8714 H   0  0  0  0  0  0  0  0  0  0  0  0
  147.8975  138.4544  152.0861 H   0  0  0  0  0  0  0  0  0  0  0  0
  145.0004  138.3288  152.2290 H   0  0  0  0  0  0  0  0  0  0  0  0
  145.4861  138.0200  150.5844 H   0  0  0  0  0  0  0  0  0  0  0  0
  146.6400  137.1293  154.0122 H   0  0  0  0  0  0  0  0  0  0  0  0
  145.0504  136.4386  153.7430 H   0  0  0  0  0  0  0  0  0  0  0  0
  147.7370  134.9645  153.6503 H   0  0  0  0  0  0  0  0  0  0  0  0
  146.5210  134.8010  154.8945 H   0  0  0  0  0  0  0  0  0  0  0  0
  146.4383  132.9093  153.2522 H   0  0  0  0  0  0  0  0  0  0  0  0
  144.9330  133.7996  153.2978 H   0  0  0  0  0  0  0  0  0  0  0  0
  147.1638  134.1581  151.2467 H   0  0  0  0  0  0  0  0  0  0  0  0
  144.3484  133.0257  150.8886 H   0  0  0  0  0  0  0  0  0  0  0  0
  145.8458  132.0977  150.8657 H   0  0  0  0  0  0  0  0  0  0  0  0
  145.5253  133.2799  149.6032 H   0  0  0  0  0  0  0  0  0  0  0  0
  144.4724  135.5979  151.3990 H   0  0  0  0  0  0  0  0  0  0  0  0
  145.6655  135.7675  150.1304 H   0  0  0  0  0  0  0  0  0  0  0  0
  147.2188  136.5473  151.7883 H   0  0  0  0  0  0  0  0  0  0  0  0
  1  2  1  0  0  0  0
  1 20  1  0  0  0  0
  1 21  1  0  0  0  0
  1 22  1  0  0  0  0
  2 19  1  0  0  0  0
  2  3  2  0  0  0  0
  3  4  1  0  0  0  0
  3 23  1  0  0  0  0
  4  5  1  0  0  0  0
  4 18  2  0  0  0  0
  5  6  1  0  0  0  0
  5 24  1  0  0  0  0
  6  7  2  0  0  0  0
  6  8  1  0  0  0  0
  8  9  1  0  0  0  0
  9 10  1  0  0  0  0
  9 25  1  0  0  0  0
  9 26  1  0  0  0  0
 10 11  1  0  0  0  0
 10 27  1  0  0  0  0
 10 28  1  0  0  0  0
 11 17  1  0  0  0  0
 11 12  1  0  0  0  0
 11 41  1  0  0  0  0
 12 13  1  0  0  0  0
 12 29  1  0  0  0  0
 12 30  1  0  0  0  0
 13 14  1  0  0  0  0
 13 31  1  0  0  0  0
 13 32  1  0  0  0  0
 14 15  1  0  0  0  0
 14 33  1  0  0  0  0
 14 34  1  0  0  0  0
 15 16  1  0  0  0  0
 15 17  1  0  0  0  0
 15 35  1  0  0  0  0
 16 36  1  0  0  0  0
 16 37  1  0  0  0  0
 16 38  1  0  0  0  0
 17 39  1  0  0  0  0
 17 40  1  0  0  0  0
 18 19  1  0  0  0  0
M  CHG  1   8  -1
M  CHG  1  11   1
M  END
> <s_m_source_file>
AV-unprocessed.smi

> <i_m_source_file_index>
2078

> <i_lp_mmshare_version>
43012

> <i_f3d_flags>
0

> <s_epik_input>
W0NIM11jMVtjSF1jKG5vMSlbTkhdQyg9TylbTkhdW0NIMl1bQ0gyXU4yW0NIMl1bQ0gyXVtDSDJdW0NAQEhdKFtDSDNdKVtDSDJdMg==

> <s_epik_cmdline>
J2VwaWtfcHl0aG9uJywgJy1waCcsICc3LjAnLCAnLXRuJywgJzgnLCAnLW1hJywgJzIwMCcsICctbWV0YWxfYmluZGluZycsICctaW1hZScsICc8aW5maWxlLm1hZT4nLCAnLW9tYWUnLCAnPG91dGZpbGUubWFlPic=

> <r_epik_Ionization_Penalty>
6.76934

> <r_epik_Ionization_Penalty_Charging>
6.76934

> <r_epik_Ionization_Penalty_Neutral>
5.77849e-06

> <r_epik_State_Penalty>
6.79457

> <r_epik_Charging_Adjusted_Penalty>
13.5639

> <i_epik_Tot_Q>
0

> <i_epik_Tot_abs_Q>
2

> <r_epik_Metal_State_Penalty>
2.72837

> <b_epik_Metal_Only>
1

> <s_lp_Force_Field>
OPLS_2005

> <r_lp_Energy>
13.3019

> <b_lp_Chiralities_Consistent>
1

> <s_lp_Variant>
AV-unprocessed.smi:2078-9

> <Gold.Version>
5.8.1

> <Gold.Id.Protein>
6NUR|6NUR_protein|mol2

> <Gold.PLP.Fitness>
38.3030

> <Gold.PLP.PLP>
-28.2027

> <Gold.PLP.part.hbond>
-3.8206

> <Gold.PLP.part.metal>
0.0000

> <Gold.PLP.part.buried>
2.5211

> <Gold.PLP.part.nonpolar>
-27.7777

> <Gold.PLP.part.repulsive>
0.9417

> <Gold.PLP.ligand.clash>
0.0000

> <Gold.PLP.ligand.torsion>
0.9706

> <Gold.PLP.Chemscore.Hbond>
4.0000

> <Gold.PLP.Chemscore.CHOScore>
0.0000

> <Gold.PLP.Chemscore.Metal>
0.0000

> <Gold.Chemscore.Hbonds>
donor molecule, donor type, donor heavy atom, donor atom, acceptor molecule, acceptor atom, score
      L1  H     5    24       P1  7957  1.00
      L1  H    11    41       P1  7948  2.00
      P1  H  7989  7998       L1    18  0.95

> <Gold.PLP.Chemscore.Internal.Correction>
0.0415

> <Gold.Rescore>
     Score         DG    S(hbond)    S(metal)    S(lipo)     H(rot)  DE(clash)    DE(int)     intcor
     13.20     -18.78       2.92        0.00      64.09       1.54       3.11       2.46       ----

> <Gold.Chemscore.Fitness>
13.2045

> <Gold.Chemscore.DG>
-18.7810

> <Gold.Chemscore.ZeroCoef>
-5.4800

> <Gold.Chemscore.Hbond>
2.9184

> <Gold.Chemscore.Metal>
0.0000

> <Gold.Chemscore.Lipo>
64.0878

> <Gold.Chemscore.Internal_Hbond>
0.0000

> <Gold.Chemscore.DEClash>
3.1134

> <Gold.Chemscore.DEInternal>
2.4631

> <Gold.Chemscore.Rot>
1.5409

> <Gold.Chemscore.Internal.Correction>
   9.000000E+99

> <Gold.Chemscore.Hbonds>
donor molecule, donor type, donor heavy atom, donor atom, acceptor molecule, acceptor atom, score
      L1  H     5    24       P1  7957  0.99
      L1  H    11    41       P1  7948  1.00
      P1  H  7989  7998       L1    18  0.11

> <Gold.Chemscore.Hbond.Weighted>
-9.7474

> <Gold.Chemscore.Metal.Weighted>
-0.0000

> <Gold.Chemscore.Lipo.Weighted>
-7.4983

> <Gold.Chemscore.Internal_Hbond.Weighted>
0.0000

> <Gold.Chemscore.DEClash.Weighted>
3.1134

> <Gold.Chemscore.DEInternal.Weighted>
2.4631

> <Gold.Chemscore.Rot.Weighted>
3.9446

> <Gold.Chemscore.Internal.Correction.Weighted>
   9.000000E+99

> <Gold.Protein.RotatedTorsions>
[ 6907 6896 6895 6894 ] final -106.54 input  -60.11 | X-H torsion
[ 7974 7965 7964 7962 ] final -136.49 input  175.53 | X-H torsion
[ 8008 7997 7996 7995 ] final  165.51 input   59.86 | X-H torsion
[ 10167 10162 10161 10158 ] final -135.78 input  -65.29 | X-H torsion
[ 10718 10713 10712 10709 ] final -127.88 input   66.30 | X-H torsion
[ 10763 10752 10751 10750 ] final  178.14 input  -60.55 | X-H torsion
[ 11005 11000 10999 10996 ] final -138.51 input  -57.11 | X-H torsion

> <Gold.Protein.ActiveResidues>
 VAL166  LYS551  ARG553  GLY616  TRP617  ASP618  TYR619  PRO620  LYS621  CYS622 
 ASP623  PHE694  ASN695  SER759  ASP760  ASP761  ALA762  ILE779  LEU786  VAL792 
 PHE793  MET794  SER795  GLU796  ALA797  LYS798  CYS799  TRP800  GLU811  SER814 

> <Gold.Protein.RotatedAtoms>
  150.7395  133.9960  159.3622 H   0  0  0  0  0  0  0  0  0  0  0  0  # atno 6907 bound_to 6896
  151.7911  135.0733  160.0397 H   0  0  0  0  0  0  0  0  0  0  0  0  # atno 6908 bound_to 6896
  152.3207  133.5814  159.5778 H   0  0  0  0  0  0  0  0  0  0  0  0  # atno 6909 bound_to 6896
  144.8922  140.6658  143.5138 H   0  0  0  0  0  0  0  0  0  0  0  0  # atno 7974 bound_to 7965
  156.1794  140.1668  156.8302 H   0  0  0  0  0  0  0  0  0  0  0  0  # atno 8008 bound_to 7997
  154.5343  140.0750  156.8433 H   0  0  0  0  0  0  0  0  0  0  0  0  # atno 8009 bound_to 7997
  155.3343  140.3381  155.4241 H   0  0  0  0  0  0  0  0  0  0  0  0  # atno 8010 bound_to 7997
  139.8744  143.6917  152.2636 H   0  0  0  0  0  0  0  0  0  0  0  0  # atno 10167 bound_to 10162
  156.1898  130.6788  151.0410 H   0  0  0  0  0  0  0  0  0  0  0  0  # atno 10718 bound_to 10713
  154.5038  135.2785  155.1399 H   0  0  0  0  0  0  0  0  0  0  0  0  # atno 10763 bound_to 10752
  154.3022  135.6246  153.5433 H   0  0  0  0  0  0  0  0  0  0  0  0  # atno 10764 bound_to 10752
  152.9907  135.5699  154.5487 H   0  0  0  0  0  0  0  0  0  0  0  0  # atno 10765 bound_to 10752
  140.8609  134.2170  157.4708 H   0  0  0  0  0  0  0  0  0  0  0  0  # atno 11005 bound_to 11000
  145.3762  139.1647  143.4305 LP  0  0  0  0  0  0  0  0  0  0  0  0  # atno 17320 bound_to 7965
  146.3060  140.3839  142.8687 LP  0  0  0  0  0  0  0  0  0  0  0  0  # atno 17321 bound_to 7965
  139.7254  144.7594  151.0888 LP  0  0  0  0  0  0  0  0  0  0  0  0  # atno 17342 bound_to 10162
  140.7755  143.5155  150.9600 LP  0  0  0  0  0  0  0  0  0  0  0  0  # atno 17343 bound_to 10162
  157.6922  131.0806  150.7074 LP  0  0  0  0  0  0  0  0  0  0  0  0  # atno 17370 bound_to 10713
  156.7131  130.4658  149.5542 LP  0  0  0  0  0  0  0  0  0  0  0  0  # atno 17371 bound_to 10713
  139.8707  134.9729  156.4789 LP  0  0  0  0  0  0  0  0  0  0  0  0  # atno 17394 bound_to 11000
  140.8684  133.8007  155.9338 LP  0  0  0  0  0  0  0  0  0  0  0  0  # atno 17395 bound_to 11000

$$$$
