AV-unprocessed.smi:3354|AV-procd|sdf|12962|dock4
  -GOLD-   2272019403D 1   1.00000     0.00000
 Structure written by MMmdl.
 38 40  0  0  0  0  0  0  0  0  1 V2000
  151.1661  143.5108  157.8347 C   0  0  0  0  0  0  0  0  0  0  0  0
  151.1723  142.0048  157.6854 C   0  0  1  0  0  0  0  0  0  0  0  0
  149.8917  141.2209  157.8612 C   0  0  0  0  0  0  0  0  0  0  0  0
  150.5258  141.3408  156.4897 C   0  0  2  0  0  0  0  0  0  0  0  0
  151.1766  140.2144  155.8918 N   0  0  0  0  0  0  0  0  0  0  0  0
  150.5399  139.5585  154.7621 C   0  0  0  0  0  0  0  0  0  0  0  0
  151.4795  138.4031  154.3776 C   0  0  2  0  0  0  0  0  0  0  0  0
  150.7223  137.1904  154.0801 N   0  0  0  0  0  0  0  0  0  0  0  0
  150.8303  136.0370  154.7539 C   0  0  0  0  0  0  0  0  0  0  0  0
  151.5837  135.8820  155.7148 O   0  0  0  0  0  0  0  0  0  0  0  0
  150.0018  135.1036  154.2554 N   0  0  0  0  0  0  0  0  0  0  0  0
  149.8458  133.7509  154.6621 C   0  0  0  0  0  0  0  0  0  0  0  0
  149.1704  132.7638  153.9040 C   0  0  0  0  0  0  0  0  0  0  0  0
  149.0631  131.4608  154.4270 C   0  0  0  0  0  0  0  0  0  0  0  0
  149.6274  131.1936  155.6893 C   0  0  0  0  0  0  0  0  0  0  0  0
  150.2627  132.1273  156.4283 N   0  0  0  0  0  0  0  0  0  0  0  0
  150.3611  133.3745  155.9208 C   0  0  0  0  0  0  0  0  0  0  0  0
  152.4208  138.2320  155.5803 C   0  0  0  0  0  0  0  0  0  0  0  0
  152.1427  139.4588  156.4323 C   0  0  0  0  0  0  0  0  0  0  0  0
  152.7374  139.6760  157.4871 O   0  0  0  0  0  0  0  0  0  0  0  0
  150.2457  143.9369  157.4338 H   0  0  0  0  0  0  0  0  0  0  0  0
  152.0107  143.9419  157.2970 H   0  0  0  0  0  0  0  0  0  0  0  0
  151.2471  143.7833  158.8870 H   0  0  0  0  0  0  0  0  0  0  0  0
  152.0733  141.5316  158.0719 H   0  0  0  0  0  0  0  0  0  0  0  0
  149.9685  140.2780  158.3993 H   0  0  0  0  0  0  0  0  0  0  0  0
  148.9738  141.7786  158.0359 H   0  0  0  0  0  0  0  0  0  0  0  0
  150.0111  142.0000  155.7929 H   0  0  0  0  0  0  0  0  0  0  0  0
  149.5573  139.1986  155.0721 H   0  0  0  0  0  0  0  0  0  0  0  0
  150.3976  140.2530  153.9331 H   0  0  0  0  0  0  0  0  0  0  0  0
  152.0633  138.6987  153.5035 H   0  0  0  0  0  0  0  0  0  0  0  0
  150.0756  137.2334  153.3061 H   0  0  0  0  0  0  0  0  0  0  0  0
  149.3775  135.4089  153.5232 H   0  0  0  0  0  0  0  0  0  0  0  0
  148.7223  132.9799  152.9469 H   0  0  0  0  0  0  0  0  0  0  0  0
  148.5545  130.6847  153.8743 H   0  0  0  0  0  0  0  0  0  0  0  0
  149.5609  130.2050  156.1192 H   0  0  0  0  0  0  0  0  0  0  0  0
  150.8726  134.0961  156.5411 H   0  0  0  0  0  0  0  0  0  0  0  0
  152.1949  137.3362  156.1609 H   0  0  0  0  0  0  0  0  0  0  0  0
  153.4676  138.1926  155.2763 H   0  0  0  0  0  0  0  0  0  0  0  0
  1  2  1  0  0  0  0
  1 21  1  0  0  0  0
  1 22  1  0  0  0  0
  1 23  1  0  0  0  0
  2  4  1  0  0  0  0
  2  3  1  0  0  0  0
  2 24  1  0  0  0  0
  3  4  1  0  0  0  0
  3 25  1  0  0  0  0
  3 26  1  0  0  0  0
  4  5  1  0  0  0  0
  4 27  1  0  0  0  0
  5 19  1  0  0  0  0
  5  6  1  0  0  0  0
  6  7  1  0  0  0  0
  6 28  1  0  0  0  0
  6 29  1  0  0  0  0
  7  8  1  0  0  0  0
  7 18  1  0  0  0  0
  7 30  1  0  0  0  0
  8  9  1  0  0  0  0
  8 31  1  0  0  0  0
  9 10  2  0  0  0  0
  9 11  1  0  0  0  0
 11 12  1  0  0  0  0
 11 32  1  0  0  0  0
 12 17  1  0  0  0  0
 12 13  2  0  0  0  0
 13 14  1  0  0  0  0
 13 33  1  0  0  0  0
 14 15  2  0  0  0  0
 14 34  1  0  0  0  0
 15 16  1  0  0  0  0
 15 35  1  0  0  0  0
 16 17  2  0  0  0  0
 17 36  1  0  0  0  0
 18 19  1  0  0  0  0
 18 37  1  0  0  0  0
 18 38  1  0  0  0  0
 19 20  2  0  0  0  0
M  END
> <s_m_source_file>
AV-unprocessed.smi

> <i_m_source_file_index>
3354

> <i_lp_mmshare_version>
43012

> <i_f3d_flags>
0

> <s_epik_input>
W0NIM11bQ0BASF0xW0NIMl1bQ0BIXTFOMltDSDJdW0NASF0oW0NIMl1DMj1PKVtOSF1DKD1PKVtOSF1jM1tjSF1bY0hdW2NIXW5bY0hdMw==

> <s_epik_cmdline>
J2VwaWtfcHl0aG9uJywgJy1waCcsICc3LjAnLCAnLXRuJywgJzgnLCAnLW1hJywgJzIwMCcsICctbWV0YWxfYmluZGluZycsICctaW1hZScsICc8aW5maWxlLm1hZT4nLCAnLW9tYWUnLCAnPG91dGZpbGUubWFlPic=

> <r_epik_Ionization_Penalty>
0.00456191

> <r_epik_Ionization_Penalty_Charging>
0

> <r_epik_Ionization_Penalty_Neutral>
0.00456191

> <r_epik_State_Penalty>
0.00327094

> <r_epik_Charging_Adjusted_Penalty>
0.00327094

> <i_epik_Tot_Q>
0

> <i_epik_Tot_abs_Q>
0

> <r_epik_Metal_State_Penalty>
-0

> <b_epik_Metal_Only>
0

> <s_lp_Force_Field>
OPLS_2005

> <r_lp_Energy>
40.9267

> <b_lp_Chiralities_Consistent>
1

> <s_lp_Variant>
AV-unprocessed.smi:3354-8

> <Gold.Version>
5.8.1

> <Gold.Id.Protein>
6NUR|6NUR_protein|mol2

> <Gold.PLP.Fitness>
41.9882

> <Gold.PLP.PLP>
-38.9402

> <Gold.PLP.part.hbond>
-5.4800

> <Gold.PLP.part.metal>
0.0000

> <Gold.PLP.part.buried>
-1.0497

> <Gold.PLP.part.nonpolar>
-32.5213

> <Gold.PLP.part.repulsive>
0.1935

> <Gold.PLP.ligand.clash>
8.7353

> <Gold.PLP.ligand.torsion>
0.2501

> <Gold.PLP.Chemscore.Hbond>
3.9680

> <Gold.PLP.Chemscore.CHOScore>
0.0000

> <Gold.PLP.Chemscore.Metal>
0.0000

> <Gold.Chemscore.Hbonds>
donor molecule, donor type, donor heavy atom, donor atom, acceptor molecule, acceptor atom, score
      L1  H     8    31       P1  7948  0.86
      L1  H    11    32       P1  7948  0.95
      P1  H  7997  8010       L1    20  0.90
      P1  H 10752 10764       L1    10  1.00

> <Gold.PLP.Chemscore.Internal.Correction>
0.3794

> <Gold.Rescore>
     Score         DG    S(hbond)    S(metal)    S(lipo)     H(rot)  DE(clash)    DE(int)     intcor
     16.51     -21.49       3.06        0.00      76.45       1.24       0.02       4.95       ----

> <Gold.Chemscore.Fitness>
16.5124

> <Gold.Chemscore.DG>
-21.4851

> <Gold.Chemscore.ZeroCoef>
-5.4800

> <Gold.Chemscore.Hbond>
3.0612

> <Gold.Chemscore.Metal>
0.0000

> <Gold.Chemscore.Lipo>
76.4539

> <Gold.Chemscore.Internal_Hbond>
0.0000

> <Gold.Chemscore.DEClash>
0.0230

> <Gold.Chemscore.DEInternal>
4.9498

> <Gold.Chemscore.Rot>
1.2361

> <Gold.Chemscore.Internal.Correction>
   9.000000E+99

> <Gold.Chemscore.Hbonds>
donor molecule, donor type, donor heavy atom, donor atom, acceptor molecule, acceptor atom, score
      L1  H     8    31       P1  7948  0.15
      L1  H    11    32       P1  7948  0.21
      P1  H  7997  8010       L1    20  0.18
      P1  H 10752 10764       L1    10  0.26

> <Gold.Chemscore.Hbond.Weighted>
-10.2243

> <Gold.Chemscore.Metal.Weighted>
-0.0000

> <Gold.Chemscore.Lipo.Weighted>
-8.9451

> <Gold.Chemscore.Internal_Hbond.Weighted>
0.0000

> <Gold.Chemscore.DEClash.Weighted>
0.0230

> <Gold.Chemscore.DEInternal.Weighted>
4.9498

> <Gold.Chemscore.Rot.Weighted>
3.1643

> <Gold.Chemscore.Internal.Correction.Weighted>
   9.000000E+99

> <Gold.Protein.RotatedTorsions>
[ 6907 6896 6895 6894 ] final -104.16 input  -60.11 | X-H torsion
[ 7974 7965 7964 7962 ] final -138.79 input  175.53 | X-H torsion
[ 8008 7997 7996 7995 ] final   52.29 input   59.86 | X-H torsion
[ 10167 10162 10161 10158 ] final   69.33 input  -65.29 | X-H torsion
[ 10718 10713 10712 10709 ] final -115.34 input   66.30 | X-H torsion
[ 10763 10752 10751 10750 ] final  -40.74 input  -60.55 | X-H torsion
[ 11005 11000 10999 10996 ] final  168.24 input  -57.11 | X-H torsion

> <Gold.Protein.ActiveResidues>
 VAL166  LYS551  ARG553  GLY616  TRP617  ASP618  TYR619  PRO620  LYS621  CYS622 
 ASP623  PHE694  ASN695  SER759  ASP760  ASP761  ALA762  ILE779  LEU786  VAL792 
 PHE793  MET794  SER795  GLU796  ALA797  LYS798  CYS799  TRP800  GLU811  SER814 

> <Gold.Protein.RotatedAtoms>
  150.7274  134.0319  159.3736 H   0  0  0  0  0  0  0  0  0  0  0  0  # atno 6907 bound_to 6896
  151.8289  135.0626  160.0443 H   0  0  0  0  0  0  0  0  0  0  0  0  # atno 6908 bound_to 6896
  152.2948  133.5561  159.5617 H   0  0  0  0  0  0  0  0  0  0  0  0  # atno 6909 bound_to 6896
  144.8730  140.6395  143.5255 H   0  0  0  0  0  0  0  0  0  0  0  0  # atno 7974 bound_to 7965
  155.4494  140.3457  155.4299 H   0  0  0  0  0  0  0  0  0  0  0  0  # atno 8008 bound_to 7997
  156.1230  140.1492  156.9207 H   0  0  0  0  0  0  0  0  0  0  0  0  # atno 8009 bound_to 7997
  154.4837  140.0862  156.7416 H   0  0  0  0  0  0  0  0  0  0  0  0  # atno 8010 bound_to 7997
  140.0689  144.5169  150.7241 H   0  0  0  0  0  0  0  0  0  0  0  0  # atno 10167 bound_to 10162
  156.0889  130.6075  150.8893 H   0  0  0  0  0  0  0  0  0  0  0  0  # atno 10718 bound_to 10713
  153.9509  135.6750  153.4744 H   0  0  0  0  0  0  0  0  0  0  0  0  # atno 10763 bound_to 10752
  153.0885  135.4887  154.8640 H   0  0  0  0  0  0  0  0  0  0  0  0  # atno 10764 bound_to 10752
  154.7326  135.3141  154.8825 H   0  0  0  0  0  0  0  0  0  0  0  0  # atno 10765 bound_to 10752
  140.2852  134.7718  157.3792 H   0  0  0  0  0  0  0  0  0  0  0  0  # atno 11005 bound_to 11000
  145.4095  139.1582  143.4133 LP  0  0  0  0  0  0  0  0  0  0  0  0  # atno 17320 bound_to 7965
  146.2943  140.4198  142.8727 LP  0  0  0  0  0  0  0  0  0  0  0  0  # atno 17321 bound_to 7965
  140.7135  143.2525  151.4507 LP  0  0  0  0  0  0  0  0  0  0  0  0  # atno 17342 bound_to 10162
  139.5848  144.1629  152.2014 LP  0  0  0  0  0  0  0  0  0  0  0  0  # atno 17343 bound_to 10162
  157.6032  131.0940  150.8924 LP  0  0  0  0  0  0  0  0  0  0  0  0  # atno 17370 bound_to 10713
  156.9078  130.5269  149.5281 LP  0  0  0  0  0  0  0  0  0  0  0  0  # atno 17371 bound_to 10713
  140.1246  134.5174  155.8155 LP  0  0  0  0  0  0  0  0  0  0  0  0  # atno 17394 bound_to 11000
  141.2156  133.6768  156.6929 LP  0  0  0  0  0  0  0  0  0  0  0  0  # atno 17395 bound_to 11000

$$$$
