AV-unprocessed.smi:2177|AV-procd|sdf|8850|dock5
  -GOLD-   2272012 43D 1   1.00000     0.00000
 Structure written by MMmdl.
 42 43  0  0  0  0  0  0  0  0  1 V2000
  154.2917  141.2181  161.7381 C   0  0  0  0  0  0  0  0  0  0  0  0
  153.4131  141.7131  160.6251 C   0  0  0  0  0  0  0  0  0  0  0  0
  153.3248  143.0125  160.3944 N   0  0  0  0  0  0  0  0  0  0  0  0
  152.4645  143.1212  159.3624 N   0  0  0  0  0  0  0  0  0  0  0  0
  152.1327  144.4373  158.8518 C   0  0  0  0  0  0  0  0  0  0  0  0
  152.0161  141.8870  158.9335 C   0  0  0  0  0  0  0  0  0  0  0  0
  151.0492  141.7399  157.8025 C   0  0  0  0  0  0  0  0  0  0  0  0
  152.6093  140.9454  159.7326 C   0  0  0  0  0  0  0  0  0  0  0  0
  152.4538  139.4450  159.7059 C   0  0  0  0  0  0  0  0  0  0  0  0
  153.8335  138.7926  159.6239 C   0  0  0  0  0  0  0  0  0  0  0  0
  154.6715  139.2156  158.8281 O   0  0  0  0  0  0  0  0  0  0  0  0
  154.0557  137.7731  160.4668 N   0  0  0  0  0  0  0  0  0  0  0  0
  155.3246  137.0781  160.6520 C   0  0  2  0  0  0  0  0  0  0  0  0
  155.3062  135.7465  159.8830 C   0  0  0  0  0  0  0  0  0  0  0  0
  155.5585  136.8817  162.1616 C   0  0  1  0  0  0  0  0  0  0  0  0
  155.2155  138.0923  163.0302 C   0  0  0  0  0  0  0  0  0  0  0  0
  154.9020  137.4822  164.3880 C   0  0  0  0  0  0  0  0  0  0  0  0
  154.7141  135.9910  164.0951 C   0  0  0  0  0  0  0  0  0  0  0  0
  154.6802  135.8934  162.6788 O   0  0  0  0  0  0  0  0  0  0  0  0
  153.7443  140.5403  162.3934 H   0  0  0  0  0  0  0  0  0  0  0  0
  154.6685  142.0369  162.3519 H   0  0  0  0  0  0  0  0  0  0  0  0
  155.1508  140.6759  161.3434 H   0  0  0  0  0  0  0  0  0  0  0  0
  152.6692  144.6120  157.9192 H   0  0  0  0  0  0  0  0  0  0  0  0
  152.4101  145.2089  159.5714 H   0  0  0  0  0  0  0  0  0  0  0  0
  151.0605  144.5032  158.6655 H   0  0  0  0  0  0  0  0  0  0  0  0
  150.9840  140.7042  157.4700 H   0  0  0  0  0  0  0  0  0  0  0  0
  151.3527  142.3440  156.9475 H   0  0  0  0  0  0  0  0  0  0  0  0
  150.0515  142.0572  158.1060 H   0  0  0  0  0  0  0  0  0  0  0  0
  151.9345  139.0774  160.5916 H   0  0  0  0  0  0  0  0  0  0  0  0
  151.8562  139.1228  158.8523 H   0  0  0  0  0  0  0  0  0  0  0  0
  153.3015  137.5021  161.0808 H   0  0  0  0  0  0  0  0  0  0  0  0
  156.1313  137.6993  160.2582 H   0  0  0  0  0  0  0  0  0  0  0  0
  156.2566  135.2211  159.9772 H   0  0  0  0  0  0  0  0  0  0  0  0
  155.1307  135.9081  158.8189 H   0  0  0  0  0  0  0  0  0  0  0  0
  154.5219  135.0849  160.2527 H   0  0  0  0  0  0  0  0  0  0  0  0
  156.5875  136.5684  162.3506 H   0  0  0  0  0  0  0  0  0  0  0  0
  156.0240  138.8228  163.0723 H   0  0  0  0  0  0  0  0  0  0  0  0
  154.3279  138.5953  162.6439 H   0  0  0  0  0  0  0  0  0  0  0  0
  155.7191  137.6342  165.0938 H   0  0  0  0  0  0  0  0  0  0  0  0
  154.0022  137.9260  164.8151 H   0  0  0  0  0  0  0  0  0  0  0  0
  155.5605  135.4159  164.4731 H   0  0  0  0  0  0  0  0  0  0  0  0
  153.8031  135.5878  164.5377 H   0  0  0  0  0  0  0  0  0  0  0  0
  1  2  1  0  0  0  0
  1 20  1  0  0  0  0
  1 21  1  0  0  0  0
  1 22  1  0  0  0  0
  2  8  1  0  0  0  0
  2  3  2  0  0  0  0
  3  4  1  0  0  0  0
  4  5  1  0  0  0  0
  4  6  1  0  0  0  0
  5 23  1  0  0  0  0
  5 24  1  0  0  0  0
  5 25  1  0  0  0  0
  6  7  1  0  0  0  0
  6  8  2  0  0  0  0
  7 26  1  0  0  0  0
  7 27  1  0  0  0  0
  7 28  1  0  0  0  0
  8  9  1  0  0  0  0
  9 10  1  0  0  0  0
  9 29  1  0  0  0  0
  9 30  1  0  0  0  0
 10 11  2  0  0  0  0
 10 12  1  0  0  0  0
 12 13  1  0  0  0  0
 12 31  1  0  0  0  0
 13 14  1  0  0  0  0
 13 15  1  0  0  0  0
 13 32  1  0  0  0  0
 14 33  1  0  0  0  0
 14 34  1  0  0  0  0
 14 35  1  0  0  0  0
 15 19  1  0  0  0  0
 15 16  1  0  0  0  0
 15 36  1  0  0  0  0
 16 17  1  0  0  0  0
 16 37  1  0  0  0  0
 16 38  1  0  0  0  0
 17 18  1  0  0  0  0
 17 39  1  0  0  0  0
 17 40  1  0  0  0  0
 18 19  1  0  0  0  0
 18 41  1  0  0  0  0
 18 42  1  0  0  0  0
M  END
> <s_m_source_file>
AV-unprocessed.smi

> <i_m_source_file_index>
2177

> <i_lp_mmshare_version>
43012

> <i_f3d_flags>
0

> <s_epik_input>
W0NIM11jMW5uKFtDSDNdKWMoW0NIM10pYzFbQ0gyXUMoPU8pW05IXVtDQEhdKFtDSDNdKVtDQEBIXTJbQ0gyXVtDSDJdW0NIMl1PMg==

> <s_epik_cmdline>
J2VwaWtfcHl0aG9uJywgJy1waCcsICc3LjAnLCAnLXRuJywgJzgnLCAnLW1hJywgJzIwMCcsICctbWV0YWxfYmluZGluZycsICctaW1hZScsICc8aW5maWxlLm1hZT4nLCAnLW9tYWUnLCAnPG91dGZpbGUubWFlPic=

> <r_lp_tautomer_probability>
1

> <r_epik_Ionization_Penalty>
0.00310467

> <r_epik_Ionization_Penalty_Charging>
0

> <r_epik_Ionization_Penalty_Neutral>
0.00310467

> <r_epik_State_Penalty>
0.00218493

> <r_epik_Charging_Adjusted_Penalty>
0.00218493

> <i_epik_Tot_Q>
0

> <i_epik_Tot_abs_Q>
0

> <r_epik_Metal_State_Penalty>
-0

> <b_epik_Metal_Only>
0

> <s_lp_Force_Field>
OPLS_2005

> <r_lp_Energy>
12.0116

> <b_lp_Chiralities_Consistent>
1

> <s_lp_Variant>
AV-unprocessed.smi:2177-3

> <Gold.Version>
5.8.1

> <Gold.Id.Protein>
6NUR|6NUR_protein|mol2

> <Gold.PLP.Fitness>
39.7139

> <Gold.PLP.PLP>
-37.9716

> <Gold.PLP.part.hbond>
-1.0000

> <Gold.PLP.part.metal>
0.0000

> <Gold.PLP.part.buried>
-5.0895

> <Gold.PLP.part.nonpolar>
-32.4393

> <Gold.PLP.part.repulsive>
0.0366

> <Gold.PLP.ligand.clash>
0.0000

> <Gold.PLP.ligand.torsion>
0.6431

> <Gold.PLP.Chemscore.Hbond>
1.0000

> <Gold.PLP.Chemscore.CHOScore>
0.0000

> <Gold.PLP.Chemscore.Metal>
0.0000

> <Gold.Chemscore.Hbonds>
donor molecule, donor type, donor heavy atom, donor atom, acceptor molecule, acceptor atom, score
      P1  H  7997  8010       L1    11  1.00

> <Gold.PLP.Chemscore.Internal.Correction>
0.0285

> <Gold.Rescore>
     Score         DG    S(hbond)    S(metal)    S(lipo)     H(rot)  DE(clash)    DE(int)     intcor
     16.13     -16.92       1.00        0.00     101.23       1.46       0.19       0.59       ----

> <Gold.Chemscore.Fitness>
16.1334

> <Gold.Chemscore.DG>
-16.9194

> <Gold.Chemscore.ZeroCoef>
-5.4800

> <Gold.Chemscore.Hbond>
1.0000

> <Gold.Chemscore.Metal>
0.0000

> <Gold.Chemscore.Lipo>
101.2292

> <Gold.Chemscore.Internal_Hbond>
0.0000

> <Gold.Chemscore.DEClash>
0.1914

> <Gold.Chemscore.DEInternal>
0.5946

> <Gold.Chemscore.Rot>
1.4627

> <Gold.Chemscore.Internal.Correction>
   9.000000E+99

> <Gold.Chemscore.Hbonds>
donor molecule, donor type, donor heavy atom, donor atom, acceptor molecule, acceptor atom, score
      P1  H  7997  8010       L1    11  1.00

> <Gold.Chemscore.Hbond.Weighted>
-3.3400

> <Gold.Chemscore.Metal.Weighted>
-0.0000

> <Gold.Chemscore.Lipo.Weighted>
-11.8438

> <Gold.Chemscore.Internal_Hbond.Weighted>
0.0000

> <Gold.Chemscore.DEClash.Weighted>
0.1914

> <Gold.Chemscore.DEInternal.Weighted>
0.5946

> <Gold.Chemscore.Rot.Weighted>
3.7445

> <Gold.Chemscore.Internal.Correction.Weighted>
   9.000000E+99

> <Gold.Protein.RotatedTorsions>
[ 6907 6896 6895 6894 ] final  131.34 input  -60.11 | X-H torsion
[ 7974 7965 7964 7962 ] final  -36.62 input  175.53 | X-H torsion
[ 8008 7997 7996 7995 ] final   15.57 input   59.86 | X-H torsion
[ 10167 10162 10161 10158 ] final -127.02 input  -65.29 | X-H torsion
[ 10718 10713 10712 10709 ] final  -96.95 input   66.30 | X-H torsion
[ 10763 10752 10751 10750 ] final -146.67 input  -60.55 | X-H torsion
[ 11005 11000 10999 10996 ] final  178.27 input  -57.11 | X-H torsion

> <Gold.Protein.ActiveResidues>
 VAL166  LYS551  ARG553  GLY616  TRP617  ASP618  TYR619  PRO620  LYS621  CYS622 
 ASP623  PHE694  ASN695  SER759  ASP760  ASP761  ALA762  ILE779  LEU786  VAL792 
 PHE793  MET794  SER795  GLU796  ALA797  LYS798  CYS799  TRP800  GLU811  SER814 

> <Gold.Protein.RotatedAtoms>
  152.3436  133.6096  159.5893 H   0  0  0  0  0  0  0  0  0  0  0  0  # atno 6907 bound_to 6896
  150.7494  133.9683  159.3546 H   0  0  0  0  0  0  0  0  0  0  0  0  # atno 6908 bound_to 6896
  151.7544  135.0826  160.0387 H   0  0  0  0  0  0  0  0  0  0  0  0  # atno 6909 bound_to 6896
  146.0646  140.6299  142.8981 H   0  0  0  0  0  0  0  0  0  0  0  0  # atno 7974 bound_to 7965
  154.8646  140.2949  155.5518 H   0  0  0  0  0  0  0  0  0  0  0  0  # atno 8008 bound_to 7997
  156.3020  140.2471  156.3558 H   0  0  0  0  0  0  0  0  0  0  0  0  # atno 8009 bound_to 7997
  154.8882  140.0395  157.1812 H   0  0  0  0  0  0  0  0  0  0  0  0  # atno 8010 bound_to 7997
  139.9652  143.5905  152.2431 H   0  0  0  0  0  0  0  0  0  0  0  0  # atno 10167 bound_to 10162
  156.0073  130.5173  150.6302 H   0  0  0  0  0  0  0  0  0  0  0  0  # atno 10718 bound_to 10713
  154.8325  135.3380  154.6697 H   0  0  0  0  0  0  0  0  0  0  0  0  # atno 10763 bound_to 10752
  153.7315  135.6951  153.4992 H   0  0  0  0  0  0  0  0  0  0  0  0  # atno 10764 bound_to 10752
  153.2308  135.4417  155.0545 H   0  0  0  0  0  0  0  0  0  0  0  0  # atno 10765 bound_to 10752
  140.3933  134.6843  157.4520 H   0  0  0  0  0  0  0  0  0  0  0  0  # atno 11005 bound_to 11000
  144.7195  140.4324  143.7019 LP  0  0  0  0  0  0  0  0  0  0  0  0  # atno 17320 bound_to 7965
  145.6500  139.1563  143.2867 LP  0  0  0  0  0  0  0  0  0  0  0  0  # atno 17321 bound_to 7965
  139.6523  144.7661  151.2124 LP  0  0  0  0  0  0  0  0  0  0  0  0  # atno 17342 bound_to 10162
  140.7540  143.6141  150.8576 LP  0  0  0  0  0  0  0  0  0  0  0  0  # atno 17343 bound_to 10162
  157.4101  131.0822  151.1229 LP  0  0  0  0  0  0  0  0  0  0  0  0  # atno 17370 bound_to 10713
  157.1863  130.6332  149.5689 LP  0  0  0  0  0  0  0  0  0  0  0  0  # atno 17371 bound_to 10713
  140.0390  134.6294  155.9005 LP  0  0  0  0  0  0  0  0  0  0  0  0  # atno 17394 bound_to 11000
  141.1883  133.6562  156.5319 LP  0  0  0  0  0  0  0  0  0  0  0  0  # atno 17395 bound_to 11000

$$$$
