AV-unprocessed.smi:1673|AV-procd|sdf|6709|dock1
  -GOLD-   22720 7453D 1   1.00000     0.00000
 Structure written by MMmdl.
 39 40  0  0  0  0  0  0  0  0  1 V2000
  149.8217  139.0065  154.5793 C   0  0  0  0  0  0  0  0  0  0  0  0
  148.6253  139.8366  154.2049 C   0  0  0  0  0  0  0  0  0  0  0  0
  147.7690  139.3649  153.3107 N   0  0  0  0  0  0  0  0  0  0  0  0
  146.8072  140.3662  153.1054 O   0  0  0  0  0  0  0  0  0  0  0  0
  147.1079  141.4324  153.8916 C   0  0  0  0  0  0  0  0  0  0  0  0
  146.2067  142.6172  153.8001 C   0  0  0  0  0  0  0  0  0  0  0  0
  148.2212  141.1388  154.6224 C   0  0  0  0  0  0  0  0  0  0  0  0
  148.8445  142.0261  155.5349 N   0  0  0  0  0  0  0  0  0  0  0  0
  149.3955  141.7076  156.7158 C   0  0  0  0  0  0  0  0  0  0  0  0
  149.3994  140.5790  157.2067 O   0  0  0  0  0  0  0  0  0  0  0  0
  149.9307  142.7839  157.3101 N   0  0  0  0  0  0  0  0  0  0  0  0
  150.6018  142.8003  158.6095 C   0  0  2  0  0  0  0  0  0  0  0  0
  150.6463  144.2527  159.1236 C   0  0  0  0  0  0  0  0  0  0  0  0
  151.3904  144.3599  160.4625 C   0  0  0  0  0  0  0  0  0  0  0  0
  152.8053  143.7767  160.3522 C   0  0  0  0  0  0  0  0  0  0  0  0
  152.7646  142.3234  159.8569 C   0  0  0  0  0  0  0  0  0  0  0  0
  152.0263  142.1949  158.5087 C   0  0  1  0  0  0  0  0  0  0  0  0
  152.0224  140.7297  158.0363 C   0  0  0  0  0  0  0  0  0  0  0  0
  150.6845  139.6343  154.8011 H   0  0  0  0  0  0  0  0  0  0  0  0
  150.1100  138.3350  153.7698 H   0  0  0  0  0  0  0  0  0  0  0  0
  149.6146  138.3951  155.4577 H   0  0  0  0  0  0  0  0  0  0  0  0
  146.5920  143.4503  154.3882 H   0  0  0  0  0  0  0  0  0  0  0  0
  145.2112  142.3739  154.1714 H   0  0  0  0  0  0  0  0  0  0  0  0
  146.1111  142.9503  152.7666 H   0  0  0  0  0  0  0  0  0  0  0  0
  148.7934  143.0076  155.3051 H   0  0  0  0  0  0  0  0  0  0  0  0
  149.8719  143.6669  156.8247 H   0  0  0  0  0  0  0  0  0  0  0  0
  150.0309  142.2135  159.3318 H   0  0  0  0  0  0  0  0  0  0  0  0
  151.1378  144.8910  158.3876 H   0  0  0  0  0  0  0  0  0  0  0  0
  149.6328  144.6390  159.2386 H   0  0  0  0  0  0  0  0  0  0  0  0
  151.4414  145.4023  160.7782 H   0  0  0  0  0  0  0  0  0  0  0  0
  150.8334  143.8287  161.2353 H   0  0  0  0  0  0  0  0  0  0  0  0
  153.3996  144.3822  159.6665 H   0  0  0  0  0  0  0  0  0  0  0  0
  153.3039  143.8263  161.3206 H   0  0  0  0  0  0  0  0  0  0  0  0
  153.7827  141.9445  159.7624 H   0  0  0  0  0  0  0  0  0  0  0  0
  152.2734  141.6998  160.6054 H   0  0  0  0  0  0  0  0  0  0  0  0
  152.5868  142.7725  157.7717 H   0  0  0  0  0  0  0  0  0  0  0  0
  151.4377  140.0998  158.7074 H   0  0  0  0  0  0  0  0  0  0  0  0
  153.0350  140.3272  158.0013 H   0  0  0  0  0  0  0  0  0  0  0  0
  151.6033  140.6288  157.0352 H   0  0  0  0  0  0  0  0  0  0  0  0
  1  2  1  0  0  0  0
  1 19  1  0  0  0  0
  1 20  1  0  0  0  0
  1 21  1  0  0  0  0
  2  7  1  0  0  0  0
  2  3  2  0  0  0  0
  3  4  1  0  0  0  0
  4  5  1  0  0  0  0
  5  6  1  0  0  0  0
  5  7  2  0  0  0  0
  6 22  1  0  0  0  0
  6 23  1  0  0  0  0
  6 24  1  0  0  0  0
  7  8  1  0  0  0  0
  8  9  1  0  0  0  0
  8 25  1  0  0  0  0
  9 10  2  0  0  0  0
  9 11  1  0  0  0  0
 11 12  1  0  0  0  0
 11 26  1  0  0  0  0
 12 17  1  0  0  0  0
 12 13  1  0  0  0  0
 12 27  1  0  0  0  0
 13 14  1  0  0  0  0
 13 28  1  0  0  0  0
 13 29  1  0  0  0  0
 14 15  1  0  0  0  0
 14 30  1  0  0  0  0
 14 31  1  0  0  0  0
 15 16  1  0  0  0  0
 15 32  1  0  0  0  0
 15 33  1  0  0  0  0
 16 17  1  0  0  0  0
 16 34  1  0  0  0  0
 16 35  1  0  0  0  0
 17 18  1  0  0  0  0
 17 36  1  0  0  0  0
 18 37  1  0  0  0  0
 18 38  1  0  0  0  0
 18 39  1  0  0  0  0
M  END
> <s_m_source_file>
AV-unprocessed.smi

> <i_m_source_file_index>
1673

> <i_lp_mmshare_version>
43012

> <i_f3d_flags>
0

> <s_epik_input>
W0NIM11jMW5vYyhbQ0gzXSljMVtOSF1DKD1PKVtOSF1bQ0BASF0yW0NIMl1bQ0gyXVtDSDJdW0NIMl1bQ0BIXTJbQ0gzXQ==

> <s_epik_cmdline>
J2VwaWtfcHl0aG9uJywgJy1waCcsICc3LjAnLCAnLXRuJywgJzgnLCAnLW1hJywgJzIwMCcsICctbWV0YWxfYmluZGluZycsICctaW1hZScsICc8aW5maWxlLm1hZT4nLCAnLW9tYWUnLCAnPG91dGZpbGUubWFlPic=

> <r_lp_tautomer_probability>
1

> <r_epik_Ionization_Penalty>
4.01865e-05

> <r_epik_Ionization_Penalty_Charging>
0

> <r_epik_Ionization_Penalty_Neutral>
4.01865e-05

> <r_epik_State_Penalty>
-0

> <r_epik_Charging_Adjusted_Penalty>
0

> <i_epik_Tot_Q>
0

> <i_epik_Tot_abs_Q>
0

> <r_epik_Metal_State_Penalty>
-0

> <b_epik_Metal_Only>
0

> <s_lp_Force_Field>
OPLS_2005

> <r_lp_Energy>
12.0287

> <b_lp_Chiralities_Consistent>
1

> <s_lp_Variant>
AV-unprocessed.smi:1673-1

> <Gold.Version>
5.8.1

> <Gold.Id.Protein>
6NUR|6NUR_protein|mol2

> <Gold.PLP.Fitness>
40.0498

> <Gold.PLP.PLP>
-35.0279

> <Gold.PLP.part.hbond>
-2.0000

> <Gold.PLP.part.metal>
0.0000

> <Gold.PLP.part.buried>
-6.6597

> <Gold.PLP.part.nonpolar>
-28.1850

> <Gold.PLP.part.repulsive>
2.1820

> <Gold.PLP.ligand.clash>
0.0000

> <Gold.PLP.ligand.torsion>
0.5402

> <Gold.PLP.Chemscore.Hbond>
1.9440

> <Gold.PLP.Chemscore.CHOScore>
0.0000

> <Gold.PLP.Chemscore.Metal>
0.0000

> <Gold.Chemscore.Hbonds>
donor molecule, donor type, donor heavy atom, donor atom, acceptor molecule, acceptor atom, score
      L1  H     8    25       P1  8028  1.00
      L1  H    11    26       P1  8028  0.94

> <Gold.PLP.Chemscore.Internal.Correction>
0.2704

> <Gold.Rescore>
     Score         DG    S(hbond)    S(metal)    S(lipo)     H(rot)  DE(clash)    DE(int)     intcor
     18.92     -21.03       1.95        0.00      99.14       1.00       0.16       1.94       ----

> <Gold.Chemscore.Fitness>
18.9234

> <Gold.Chemscore.DG>
-21.0252

> <Gold.Chemscore.ZeroCoef>
-5.4800

> <Gold.Chemscore.Hbond>
1.9480

> <Gold.Chemscore.Metal>
0.0000

> <Gold.Chemscore.Lipo>
99.1362

> <Gold.Chemscore.Internal_Hbond>
0.0000

> <Gold.Chemscore.DEClash>
0.1644

> <Gold.Chemscore.DEInternal>
1.9374

> <Gold.Chemscore.Rot>
1.0000

> <Gold.Chemscore.Internal.Correction>
   9.000000E+99

> <Gold.Chemscore.Hbonds>
donor molecule, donor type, donor heavy atom, donor atom, acceptor molecule, acceptor atom, score
      L1  H     8    25       P1  8028  0.99
      L1  H    11    26       P1  8028  0.91

> <Gold.Chemscore.Hbond.Weighted>
-6.5063

> <Gold.Chemscore.Metal.Weighted>
-0.0000

> <Gold.Chemscore.Lipo.Weighted>
-11.5989

> <Gold.Chemscore.Internal_Hbond.Weighted>
0.0000

> <Gold.Chemscore.DEClash.Weighted>
0.1644

> <Gold.Chemscore.DEInternal.Weighted>
1.9374

> <Gold.Chemscore.Rot.Weighted>
2.5600

> <Gold.Chemscore.Internal.Correction.Weighted>
   9.000000E+99

> <Gold.Protein.RotatedTorsions>
[ 6907 6896 6895 6894 ] final    6.81 input  -60.11 | X-H torsion
[ 7974 7965 7964 7962 ] final -130.34 input  175.53 | X-H torsion
[ 8008 7997 7996 7995 ] final  -12.76 input   59.86 | X-H torsion
[ 10167 10162 10161 10158 ] final   82.52 input  -65.29 | X-H torsion
[ 10718 10713 10712 10709 ] final   19.15 input   66.30 | X-H torsion
[ 10763 10752 10751 10750 ] final  -19.45 input  -60.55 | X-H torsion
[ 11005 11000 10999 10996 ] final -172.10 input  -57.11 | X-H torsion

> <Gold.Protein.ActiveResidues>
 VAL166  LYS551  ARG553  GLY616  TRP617  ASP618  TYR619  PRO620  LYS621  CYS622 
 ASP623  PHE694  ASN695  SER759  ASP760  ASP761  ALA762  ILE779  LEU786  VAL792 
 PHE793  MET794  SER795  GLU796  ALA797  LYS798  CYS799  TRP800  GLU811  SER814 

> <Gold.Protein.RotatedAtoms>
  151.6797  135.0963  160.0213 H   0  0  0  0  0  0  0  0  0  0  0  0  # atno 6907 bound_to 6896
  152.3843  133.6585  159.6194 H   0  0  0  0  0  0  0  0  0  0  0  0  # atno 6908 bound_to 6896
  150.7772  133.8978  159.3373 H   0  0  0  0  0  0  0  0  0  0  0  0  # atno 6909 bound_to 6896
  144.9484  140.7318  143.4803 H   0  0  0  0  0  0  0  0  0  0  0  0  # atno 7974 bound_to 7965
  154.5349  140.2267  155.8739 H   0  0  0  0  0  0  0  0  0  0  0  0  # atno 8008 bound_to 7997
  156.1801  140.3102  155.9096 H   0  0  0  0  0  0  0  0  0  0  0  0  # atno 8009 bound_to 7997
  155.3375  140.0448  157.3035 H   0  0  0  0  0  0  0  0  0  0  0  0  # atno 8010 bound_to 7997
  139.9279  144.6171  150.8374 H   0  0  0  0  0  0  0  0  0  0  0  0  # atno 10167 bound_to 10162
  157.1063  130.6490  149.5885 H   0  0  0  0  0  0  0  0  0  0  0  0  # atno 10718 bound_to 10713
  153.6050  135.6998  153.5369 H   0  0  0  0  0  0  0  0  0  0  0  0  # atno 10763 bound_to 10752
  153.3065  135.4113  155.1298 H   0  0  0  0  0  0  0  0  0  0  0  0  # atno 10764 bound_to 10752
  154.8575  135.3661  154.5586 H   0  0  0  0  0  0  0  0  0  0  0  0  # atno 10765 bound_to 10752
  140.5008  134.5896  157.4987 H   0  0  0  0  0  0  0  0  0  0  0  0  # atno 11005 bound_to 11000
  145.2881  139.1893  143.4755 LP  0  0  0  0  0  0  0  0  0  0  0  0  # atno 17320 bound_to 7965
  146.3312  140.2854  142.8612 LP  0  0  0  0  0  0  0  0  0  0  0  0  # atno 17321 bound_to 7965
  140.7645  143.3251  151.2535 LP  0  0  0  0  0  0  0  0  0  0  0  0  # atno 17342 bound_to 10162
  139.6807  143.9860  152.2806 LP  0  0  0  0  0  0  0  0  0  0  0  0  # atno 17343 bound_to 10162
  155.9861  130.4894  150.7063 LP  0  0  0  0  0  0  0  0  0  0  0  0  # atno 17370 bound_to 10713
  157.4597  131.0882  151.0758 LP  0  0  0  0  0  0  0  0  0  0  0  0  # atno 17371 bound_to 10713
  139.9715  134.7286  156.0033 LP  0  0  0  0  0  0  0  0  0  0  0  0  # atno 17394 bound_to 11000
  141.1437  133.6560  156.3803 LP  0  0  0  0  0  0  0  0  0  0  0  0  # atno 17395 bound_to 11000

$$$$
