AV-unprocessed.smi:2393|AV-procd|sdf|9488|dock2
  -GOLD-   2272013113D 1   1.00000     0.00000
 Structure written by MMmdl.
 43 44  0  0  0  0  0  0  0  0  1 V2000
  143.7622  133.0855  150.9368 C   0  0  0  0  0  0  0  0  0  0  0  0
  143.9315  134.2530  151.8863 C   0  0  0  0  0  0  0  0  0  0  0  0
  142.8266  134.7950  152.5705 C   0  0  0  0  0  0  0  0  0  0  0  0
  143.0511  135.8787  153.4423 C   0  0  0  0  0  0  0  0  0  0  0  0
  141.9088  136.5114  154.2094 C   0  0  0  0  0  0  0  0  0  0  0  0
  144.2726  136.4146  153.6517 N   0  0  0  0  0  0  0  0  0  0  0  0
  145.3440  135.9002  152.9986 C   0  0  0  0  0  0  0  0  0  0  0  0
  146.6666  136.3974  153.1421 N   0  0  0  0  0  0  0  0  0  0  0  0
  147.1508  137.2004  154.1060 C   0  0  0  0  0  0  0  0  0  0  0  0
  146.5196  137.5963  155.0865 O   0  0  0  0  0  0  0  0  0  0  0  0
  148.4335  137.5176  153.8757 N   0  0  0  0  0  0  0  0  0  0  0  0
  149.2539  138.3679  154.7339 C   0  0  2  0  0  0  0  0  0  0  0  0
  148.9381  139.8438  154.4662 C   0  0  0  0  0  0  0  0  0  0  0  0
  149.8699  140.7484  155.2844 C   0  0  0  0  0  0  0  0  0  0  0  0
  151.2346  140.4493  154.9964 O   0  0  0  0  0  0  0  0  0  0  0  0
  151.6576  139.1056  155.2527 C   0  0  0  0  0  0  0  0  0  0  0  0
  153.0941  139.0282  154.7098 C   0  0  0  0  0  0  0  0  0  0  0  0
  151.6788  138.8159  156.7693 C   0  0  0  0  0  0  0  0  0  0  0  0
  150.7510  138.1185  154.4780 C   0  0  0  0  0  0  0  0  0  0  0  0
  145.2051  134.8163  152.1028 C   0  0  0  0  0  0  0  0  0  0  0  0
  142.7096  132.8373  150.7970 H   0  0  0  0  0  0  0  0  0  0  0  0
  144.2723  132.2053  151.3288 H   0  0  0  0  0  0  0  0  0  0  0  0
  144.1879  133.3241  149.9619 H   0  0  0  0  0  0  0  0  0  0  0  0
  141.8341  134.3917  152.4312 H   0  0  0  0  0  0  0  0  0  0  0  0
  140.9458  136.1262  153.8731 H   0  0  0  0  0  0  0  0  0  0  0  0
  141.9080  137.5930  154.0710 H   0  0  0  0  0  0  0  0  0  0  0  0
  142.0079  136.3013  155.2746 H   0  0  0  0  0  0  0  0  0  0  0  0
  147.3148  136.1207  152.4199 H   0  0  0  0  0  0  0  0  0  0  0  0
  148.8750  137.1474  153.0468 H   0  0  0  0  0  0  0  0  0  0  0  0
  149.0189  138.1513  155.7771 H   0  0  0  0  0  0  0  0  0  0  0  0
  149.0619  140.0661  153.4051 H   0  0  0  0  0  0  0  0  0  0  0  0
  147.8980  140.0605  154.7125 H   0  0  0  0  0  0  0  0  0  0  0  0
  149.6868  141.7924  155.0306 H   0  0  0  0  0  0  0  0  0  0  0  0
  149.6684  140.6533  156.3514 H   0  0  0  0  0  0  0  0  0  0  0  0
  153.5140  138.0302  154.8386 H   0  0  0  0  0  0  0  0  0  0  0  0
  153.7491  139.7324  155.2242 H   0  0  0  0  0  0  0  0  0  0  0  0
  153.1299  139.2674  153.6464 H   0  0  0  0  0  0  0  0  0  0  0  0
  152.0940  137.8278  156.9709 H   0  0  0  0  0  0  0  0  0  0  0  0
  150.6871  138.8399  157.2186 H   0  0  0  0  0  0  0  0  0  0  0  0
  152.2939  139.5444  157.2985 H   0  0  0  0  0  0  0  0  0  0  0  0
  151.0132  137.0906  154.7321 H   0  0  0  0  0  0  0  0  0  0  0  0
  150.9423  138.2231  153.4087 H   0  0  0  0  0  0  0  0  0  0  0  0
  146.0667  134.4165  151.5875 H   0  0  0  0  0  0  0  0  0  0  0  0
  1  2  1  0  0  0  0
  1 21  1  0  0  0  0
  1 22  1  0  0  0  0
  1 23  1  0  0  0  0
  2 20  1  0  0  0  0
  2  3  2  0  0  0  0
  3  4  1  0  0  0  0
  3 24  1  0  0  0  0
  4  5  1  0  0  0  0
  4  6  2  0  0  0  0
  5 25  1  0  0  0  0
  5 26  1  0  0  0  0
  5 27  1  0  0  0  0
  6  7  1  0  0  0  0
  7  8  1  0  0  0  0
  7 20  2  0  0  0  0
  8  9  1  0  0  0  0
  8 28  1  0  0  0  0
  9 10  2  0  0  0  0
  9 11  1  0  0  0  0
 11 12  1  0  0  0  0
 11 29  1  0  0  0  0
 12 19  1  0  0  0  0
 12 13  1  0  0  0  0
 12 30  1  0  0  0  0
 13 14  1  0  0  0  0
 13 31  1  0  0  0  0
 13 32  1  0  0  0  0
 14 15  1  0  0  0  0
 14 33  1  0  0  0  0
 14 34  1  0  0  0  0
 15 16  1  0  0  0  0
 16 17  1  0  0  0  0
 16 18  1  0  0  0  0
 16 19  1  0  0  0  0
 17 35  1  0  0  0  0
 17 36  1  0  0  0  0
 17 37  1  0  0  0  0
 18 38  1  0  0  0  0
 18 39  1  0  0  0  0
 18 40  1  0  0  0  0
 19 41  1  0  0  0  0
 19 42  1  0  0  0  0
 20 43  1  0  0  0  0
M  END
> <s_m_source_file>
AV-unprocessed.smi

> <i_m_source_file_index>
2393

> <i_lp_mmshare_version>
43012

> <i_f3d_flags>
0

> <s_epik_input>
W0NIM11jMVtjSF1jKFtDSDNdKW5jKFtjSF0xKVtOSF1DKD1PKVtOSF1bQ0BASF0oW0NIMl0yKVtDSDJdW0NIMl1PQzIoW0NIM10pW0NIM10=

> <s_epik_cmdline>
J2VwaWtfcHl0aG9uJywgJy1waCcsICc3LjAnLCAnLXRuJywgJzgnLCAnLW1hJywgJzIwMCcsICctbWV0YWxfYmluZGluZycsICctaW1hZScsICc8aW5maWxlLm1hZT4nLCAnLW9tYWUnLCAnPG91dGZpbGUubWFlPic=

> <r_lp_tautomer_probability>
1

> <r_epik_Ionization_Penalty>
0.000261351

> <r_epik_Ionization_Penalty_Charging>
0

> <r_epik_Ionization_Penalty_Neutral>
0.000261351

> <r_epik_State_Penalty>
-0

> <r_epik_Charging_Adjusted_Penalty>
0

> <i_epik_Tot_Q>
0

> <i_epik_Tot_abs_Q>
0

> <r_epik_Metal_State_Penalty>
-0

> <b_epik_Metal_Only>
0

> <s_lp_Force_Field>
OPLS_2005

> <r_lp_Energy>
12.7135

> <b_lp_Chiralities_Consistent>
1

> <s_lp_Variant>
AV-unprocessed.smi:2393-1

> <Gold.Version>
5.8.1

> <Gold.Id.Protein>
6NUR|6NUR_protein|mol2

> <Gold.PLP.Fitness>
37.9214

> <Gold.PLP.PLP>
-29.9931

> <Gold.PLP.part.hbond>
-2.7419

> <Gold.PLP.part.metal>
0.0000

> <Gold.PLP.part.buried>
-2.6406

> <Gold.PLP.part.nonpolar>
-25.0357

> <Gold.PLP.part.repulsive>
0.1734

> <Gold.PLP.ligand.clash>
0.0000

> <Gold.PLP.ligand.torsion>
0.3414

> <Gold.PLP.Chemscore.Hbond>
2.8703

> <Gold.PLP.Chemscore.CHOScore>
0.0000

> <Gold.PLP.Chemscore.Metal>
0.0000

> <Gold.Chemscore.Hbonds>
donor molecule, donor type, donor heavy atom, donor atom, acceptor molecule, acceptor atom, score
      L1  H     8    28       P1  7948  0.93
      L1  H    11    29       P1  7948  0.88
      P1  H  7989  7998       L1    15  1.00

> <Gold.PLP.Chemscore.Internal.Correction>
0.0004

> <Gold.Rescore>
     Score         DG    S(hbond)    S(metal)    S(lipo)     H(rot)  DE(clash)    DE(int)     intcor
     18.60     -20.20       2.57        0.00      74.31       1.00       0.05       1.55       ----

> <Gold.Chemscore.Fitness>
18.6012

> <Gold.Chemscore.DG>
-20.1963

> <Gold.Chemscore.ZeroCoef>
-5.4800

> <Gold.Chemscore.Hbond>
2.5695

> <Gold.Chemscore.Metal>
0.0000

> <Gold.Chemscore.Lipo>
74.3080

> <Gold.Chemscore.Internal_Hbond>
0.0000

> <Gold.Chemscore.DEClash>
0.0487

> <Gold.Chemscore.DEInternal>
1.5464

> <Gold.Chemscore.Rot>
1.0000

> <Gold.Chemscore.Internal.Correction>
   9.000000E+99

> <Gold.Chemscore.Hbonds>
donor molecule, donor type, donor heavy atom, donor atom, acceptor molecule, acceptor atom, score
      L1  H     8    28       P1  7948  0.90
      L1  H    11    29       P1  7948  0.84
      P1  H  7989  7998       L1    15  0.57

> <Gold.Chemscore.Hbond.Weighted>
-8.5822

> <Gold.Chemscore.Metal.Weighted>
-0.0000

> <Gold.Chemscore.Lipo.Weighted>
-8.6940

> <Gold.Chemscore.Internal_Hbond.Weighted>
0.0000

> <Gold.Chemscore.DEClash.Weighted>
0.0487

> <Gold.Chemscore.DEInternal.Weighted>
1.5464

> <Gold.Chemscore.Rot.Weighted>
2.5600

> <Gold.Chemscore.Internal.Correction.Weighted>
   9.000000E+99

> <Gold.Protein.RotatedTorsions>
[ 6907 6896 6895 6894 ] final  -99.23 input  -60.11 | X-H torsion
[ 7974 7965 7964 7962 ] final   12.04 input  175.53 | X-H torsion
[ 8008 7997 7996 7995 ] final  111.56 input   59.86 | X-H torsion
[ 10167 10162 10161 10158 ] final -143.06 input  -65.29 | X-H torsion
[ 10718 10713 10712 10709 ] final  109.88 input   66.30 | X-H torsion
[ 10763 10752 10751 10750 ] final  -99.43 input  -60.55 | X-H torsion
[ 11005 11000 10999 10996 ] final -122.72 input  -57.11 | X-H torsion

> <Gold.Protein.ActiveResidues>
 VAL166  LYS551  ARG553  GLY616  TRP617  ASP618  TYR619  PRO620  LYS621  CYS622 
 ASP623  PHE694  ASN695  SER759  ASP760  ASP761  ALA762  ILE779  LEU786  VAL792 
 PHE793  MET794  SER795  GLU796  ALA797  LYS798  CYS799  TRP800  GLU811  SER814 

> <Gold.Protein.RotatedAtoms>
  150.7073  134.1072  159.3986 H   0  0  0  0  0  0  0  0  0  0  0  0  # atno 6907 bound_to 6896
  151.9058  135.0357  160.0519 H   0  0  0  0  0  0  0  0  0  0  0  0  # atno 6908 bound_to 6896
  152.2376  133.5073  159.5288 H   0  0  0  0  0  0  0  0  0  0  0  0  # atno 6909 bound_to 6896
  146.2359  139.9395  142.8485 H   0  0  0  0  0  0  0  0  0  0  0  0  # atno 7974 bound_to 7965
  156.2132  140.3017  155.9781 H   0  0  0  0  0  0  0  0  0  0  0  0  # atno 8008 bound_to 7997
  155.2670  140.0432  157.3020 H   0  0  0  0  0  0  0  0  0  0  0  0  # atno 8009 bound_to 7997
  154.5730  140.2353  155.8172 H   0  0  0  0  0  0  0  0  0  0  0  0  # atno 8010 bound_to 7997
  139.8029  143.7808  152.2659 H   0  0  0  0  0  0  0  0  0  0  0  0  # atno 10167 bound_to 10162
  157.6521  131.0922  150.6519 H   0  0  0  0  0  0  0  0  0  0  0  0  # atno 10718 bound_to 10713
  154.7497  135.4972  153.9266 H   0  0  0  0  0  0  0  0  0  0  0  0  # atno 10763 bound_to 10752
  153.1130  135.6714  153.9475 H   0  0  0  0  0  0  0  0  0  0  0  0  # atno 10764 bound_to 10752
  153.9229  135.3086  155.3426 H   0  0  0  0  0  0  0  0  0  0  0  0  # atno 10765 bound_to 10752
  140.9974  134.0452  157.3580 H   0  0  0  0  0  0  0  0  0  0  0  0  # atno 11005 bound_to 11000
  145.1966  140.9836  143.4180 LP  0  0  0  0  0  0  0  0  0  0  0  0  # atno 17320 bound_to 7965
  144.9810  139.3783  143.6262 LP  0  0  0  0  0  0  0  0  0  0  0  0  # atno 17321 bound_to 7965
  139.7934  144.7402  150.9924 LP  0  0  0  0  0  0  0  0  0  0  0  0  # atno 17342 bound_to 10162
  140.7820  143.4419  151.0539 LP  0  0  0  0  0  0  0  0  0  0  0  0  # atno 17343 bound_to 10162
  156.6829  130.4572  149.5622 LP  0  0  0  0  0  0  0  0  0  0  0  0  # atno 17370 bound_to 10713
  156.1916  130.6563  151.1067 LP  0  0  0  0  0  0  0  0  0  0  0  0  # atno 17371 bound_to 10713
  139.9021  135.0168  156.7319 LP  0  0  0  0  0  0  0  0  0  0  0  0  # atno 17394 bound_to 11000
  140.6944  133.9362  155.7986 LP  0  0  0  0  0  0  0  0  0  0  0  0  # atno 17395 bound_to 11000

$$$$
