AV-unprocessed.smi:2419|AV-procd|sdf|9553|dock6
  -GOLD-   2272013183D 1   1.00000     0.00000
 Structure written by MMmdl.
 27 28  0  0  0  0  0  0  0  0  2 V2000
  151.8364  139.7846  155.0045 O   0  0  0  0  0  0  0  0  0  0  0  0
  151.2193  140.2665  155.9572 C   0  0  0  0  0  0  0  0  0  0  0  0
  149.9367  140.6226  155.8085 N   0  0  0  0  0  0  0  0  0  0  0  0
  149.1602  140.4820  154.5819 C   0  0  0  0  0  0  0  0  0  0  0  0
  148.1123  141.5957  154.4558 C   0  0  0  0  0  0  0  0  0  0  0  0
  148.8506  142.7753  154.2017 O   0  0  0  0  0  0  0  0  0  0  0  0
  146.9622  141.3724  153.4565 C   0  0  0  0  0  0  0  0  0  0  0  0
  145.9914  141.9879  154.4659 C   0  0  0  0  0  0  0  0  0  0  0  0
  147.0375  141.7302  155.5514 C   0  0  0  0  0  0  0  0  0  0  0  0
  151.7071  140.4894  157.1990 N   0  5  0  0  0  0  0  0  0  0  0  0
  151.7151  141.7339  157.7043 C   0  0  0  0  0  0  0  0  0  0  0  0
  151.0113  142.7411  157.1746 N   0  0  0  0  0  0  0  0  0  0  0  0
  151.1715  143.9489  157.8561 C   0  0  0  0  0  0  0  0  0  0  0  0
  152.0253  143.8621  158.9236 C   0  0  0  0  0  0  0  0  0  0  0  0
  152.6561  142.2502  159.1068 S   0  0  0  0  0  0  0  0  0  0  0  0
  149.4648  141.0204  156.6071 H   0  0  0  0  0  0  0  0  0  0  0  0
  149.8309  140.4573  153.7209 H   0  0  0  0  0  0  0  0  0  0  0  0
  148.6670  139.5092  154.6091 H   0  0  0  0  0  0  0  0  0  0  0  0
  148.7707  143.3211  154.9686 H   0  0  0  0  0  0  0  0  0  0  0  0
  147.0494  141.9294  152.5229 H   0  0  0  0  0  0  0  0  0  0  0  0
  146.7545  140.3177  153.2690 H   0  0  0  0  0  0  0  0  0  0  0  0
  145.8178  143.0507  154.2908 H   0  0  0  0  0  0  0  0  0  0  0  0
  145.0583  141.4387  154.5936 H   0  0  0  0  0  0  0  0  0  0  0  0
  146.8596  140.7977  156.0897 H   0  0  0  0  0  0  0  0  0  0  0  0
  147.1862  142.5636  156.2392 H   0  0  0  0  0  0  0  0  0  0  0  0
  150.6400  144.8228  157.5098 H   0  0  0  0  0  0  0  0  0  0  0  0
  152.3212  144.6421  159.6087 H   0  0  0  0  0  0  0  0  0  0  0  0
  1  2  2  0  0  0  0
  2  3  1  0  0  0  0
  2 10  1  0  0  0  0
  3  4  1  0  0  0  0
  3 16  1  0  0  0  0
  4  5  1  0  0  0  0
  4 17  1  0  0  0  0
  4 18  1  0  0  0  0
  5  9  1  0  0  0  0
  5  6  1  0  0  0  0
  5  7  1  0  0  0  0
  6 19  1  0  0  0  0
  7  8  1  0  0  0  0
  7 20  1  0  0  0  0
  7 21  1  0  0  0  0
  8  9  1  0  0  0  0
  8 22  1  0  0  0  0
  8 23  1  0  0  0  0
  9 24  1  0  0  0  0
  9 25  1  0  0  0  0
 10 11  1  0  0  0  0
 11 15  1  0  0  0  0
 11 12  2  0  0  0  0
 12 13  1  0  0  0  0
 13 14  2  0  0  0  0
 13 26  1  0  0  0  0
 14 15  1  0  0  0  0
 14 27  1  0  0  0  0
M  CHG  1  10  -1
M  END
> <s_m_source_file>
AV-unprocessed.smi

> <i_m_source_file_index>
2419

> <i_lp_mmshare_version>
43012

> <i_f3d_flags>
0

> <s_epik_input>
czFbY0hdW2NIXW5jMVtOSF1DKD1PKVtOSF1bQ0gyXUMyKFtPSF0pW0NIMl1bQ0gyXVtDSDJdMg==

> <s_epik_cmdline>
J2VwaWtfcHl0aG9uJywgJy1waCcsICc3LjAnLCAnLXRuJywgJzgnLCAnLW1hJywgJzIwMCcsICctbWV0YWxfYmluZGluZycsICctaW1hZScsICc8aW5maWxlLm1hZT4nLCAnLW9tYWUnLCAnPG91dGZpbGUubWFlPic=

> <r_lp_tautomer_probability>
0.999

> <r_epik_Ionization_Penalty>
8.31551

> <r_epik_Ionization_Penalty_Charging>
6.6872

> <r_epik_Ionization_Penalty_Neutral>
1.62831

> <r_epik_State_Penalty>
6.68737

> <r_epik_Charging_Adjusted_Penalty>
13.3746

> <i_epik_Tot_Q>
-1

> <i_epik_Tot_abs_Q>
1

> <r_epik_Metal_State_Penalty>
2.60943

> <b_epik_Metal_Only>
1

> <s_lp_Force_Field>
OPLS_2005

> <r_lp_Energy>
8.45088

> <b_lp_Chiralities_Consistent>
1

> <s_lp_Variant>
AV-unprocessed.smi:2419-2

> <Gold.Version>
5.8.1

> <Gold.Id.Protein>
6NUR|6NUR_protein|mol2

> <Gold.PLP.Fitness>
37.6087

> <Gold.PLP.PLP>
-30.5819

> <Gold.PLP.part.hbond>
-3.2547

> <Gold.PLP.part.metal>
0.0000

> <Gold.PLP.part.buried>
-3.9701

> <Gold.PLP.part.nonpolar>
-24.0408

> <Gold.PLP.part.repulsive>
0.2285

> <Gold.PLP.ligand.clash>
0.0000

> <Gold.PLP.ligand.torsion>
0.8938

> <Gold.PLP.Chemscore.Hbond>
2.0151

> <Gold.PLP.Chemscore.CHOScore>
0.8914

> <Gold.PLP.Chemscore.Metal>
0.0000

> <Gold.Chemscore.Hbonds>
donor molecule, donor type, donor heavy atom, donor atom, acceptor molecule, acceptor atom, score
      L1  H     6    19       P1  8028  0.98
      P1  H  7989  7998       L1     1  0.98
      L1  C    13    26       P1  8028  0.88

> <Gold.PLP.Chemscore.Internal.Correction>
0.0950

> <Gold.Rescore>
     Score         DG    S(hbond)    S(metal)    S(lipo)     H(rot)  DE(clash)    DE(int)     intcor
     11.87     -14.32       1.79        0.00      65.54       1.88       0.03       2.42       ----

> <Gold.Chemscore.Fitness>
11.8700

> <Gold.Chemscore.DG>
-14.3194

> <Gold.Chemscore.ZeroCoef>
-5.4800

> <Gold.Chemscore.Hbond>
1.7891

> <Gold.Chemscore.Metal>
0.0000

> <Gold.Chemscore.Lipo>
65.5397

> <Gold.Chemscore.Internal_Hbond>
0.0000

> <Gold.Chemscore.DEClash>
0.0314

> <Gold.Chemscore.DEInternal>
2.4180

> <Gold.Chemscore.Rot>
1.8767

> <Gold.Chemscore.Internal.Correction>
   9.000000E+99

> <Gold.Chemscore.Hbonds>
donor molecule, donor type, donor heavy atom, donor atom, acceptor molecule, acceptor atom, score
      L1  H     6    19       P1  8028  0.88
      P1  H  7989  7998       L1     1  0.73
      P1  H  8011  8017       L1     6  0.02

> <Gold.Chemscore.Hbond.Weighted>
-5.9755

> <Gold.Chemscore.Metal.Weighted>
-0.0000

> <Gold.Chemscore.Lipo.Weighted>
-7.6681

> <Gold.Chemscore.Internal_Hbond.Weighted>
0.0000

> <Gold.Chemscore.DEClash.Weighted>
0.0314

> <Gold.Chemscore.DEInternal.Weighted>
2.4180

> <Gold.Chemscore.Rot.Weighted>
4.8043

> <Gold.Chemscore.Internal.Correction.Weighted>
   9.000000E+99

> <Gold.Protein.RotatedTorsions>
[ 6907 6896 6895 6894 ] final -143.26 input  -60.11 | X-H torsion
[ 7974 7965 7964 7962 ] final -177.19 input  175.53 | X-H torsion
[ 8008 7997 7996 7995 ] final -157.38 input   59.86 | X-H torsion
[ 10167 10162 10161 10158 ] final   50.30 input  -65.29 | X-H torsion
[ 10718 10713 10712 10709 ] final  -96.87 input   66.30 | X-H torsion
[ 10763 10752 10751 10750 ] final -114.30 input  -60.55 | X-H torsion
[ 11005 11000 10999 10996 ] final  118.20 input  -57.11 | X-H torsion

> <Gold.Protein.ActiveResidues>
 VAL166  LYS551  ARG553  GLY616  TRP617  ASP618  TYR619  PRO620  LYS621  CYS622 
 ASP623  PHE694  ASN695  SER759  ASP760  ASP761  ALA762  ILE779  LEU786  VAL792 
 PHE793  MET794  SER795  GLU796  ALA797  LYS798  CYS799  TRP800  GLU811  SER814 

> <Gold.Protein.RotatedAtoms>
  151.0981  133.5264  159.2611 H   0  0  0  0  0  0  0  0  0  0  0  0  # atno 6907 bound_to 6896
  151.2106  135.0479  159.8919 H   0  0  0  0  0  0  0  0  0  0  0  0  # atno 6908 bound_to 6896
  152.5440  134.0797  159.8283 H   0  0  0  0  0  0  0  0  0  0  0  0  # atno 6909 bound_to 6896
  144.7127  140.1056  143.6414 H   0  0  0  0  0  0  0  0  0  0  0  0  # atno 7974 bound_to 7965
  155.7315  140.0802  157.2287 H   0  0  0  0  0  0  0  0  0  0  0  0  # atno 8008 bound_to 7997
  154.4032  140.1594  156.2569 H   0  0  0  0  0  0  0  0  0  0  0  0  # atno 8009 bound_to 7997
  155.9105  140.3404  155.6097 H   0  0  0  0  0  0  0  0  0  0  0  0  # atno 8010 bound_to 7997
  140.2739  144.3234  150.6282 H   0  0  0  0  0  0  0  0  0  0  0  0  # atno 10167 bound_to 10162
  156.0071  130.5170  150.6290 H   0  0  0  0  0  0  0  0  0  0  0  0  # atno 10718 bound_to 10713
  154.8434  135.4423  154.1484 H   0  0  0  0  0  0  0  0  0  0  0  0  # atno 10763 bound_to 10752
  153.2651  135.6940  153.7544 H   0  0  0  0  0  0  0  0  0  0  0  0  # atno 10764 bound_to 10752
  153.6805  135.3403  155.3152 H   0  0  0  0  0  0  0  0  0  0  0  0  # atno 10765 bound_to 10752
  139.9101  134.9618  156.7466 H   0  0  0  0  0  0  0  0  0  0  0  0  # atno 11005 bound_to 11000
  145.9499  139.2727  143.1218 LP  0  0  0  0  0  0  0  0  0  0  0  0  # atno 17320 bound_to 7965
  145.9334  140.9032  143.0345 LP  0  0  0  0  0  0  0  0  0  0  0  0  # atno 17321 bound_to 7965
  140.5867  143.2169  151.7328 LP  0  0  0  0  0  0  0  0  0  0  0  0  # atno 17342 bound_to 10162
  139.4981  144.4000  152.0191 LP  0  0  0  0  0  0  0  0  0  0  0  0  # atno 17343 bound_to 10162
  157.4091  131.0821  151.1237 LP  0  0  0  0  0  0  0  0  0  0  0  0  # atno 17370 bound_to 10713
  157.1874  130.6337  149.5693 LP  0  0  0  0  0  0  0  0  0  0  0  0  # atno 17371 bound_to 10713
  140.6807  133.9477  155.7908 LP  0  0  0  0  0  0  0  0  0  0  0  0  # atno 17394 bound_to 11000
  141.0512  134.0481  157.3780 LP  0  0  0  0  0  0  0  0  0  0  0  0  # atno 17395 bound_to 11000

$$$$
