AV-unprocessed.smi:2143|AV-procd|sdf|8729|dock6
  -GOLD-   2272011493D 1   1.00000     0.00000
 Structure written by MMmdl.
 44 45  0  0  0  0  0  0  0  0  1 V2000
  150.7106  141.4146  157.7858 C   0  0  0  0  0  0  0  0  0  0  0  0
  150.0900  140.5819  156.6496 C   0  0  1  0  0  0  0  0  0  0  0  0
  149.3378  141.5110  155.6743 C   0  0  0  0  0  0  0  0  0  0  0  0
  148.6840  140.7351  154.5234 C   0  0  0  0  0  0  0  0  0  0  0  0
  149.7251  139.9005  153.7644 C   0  0  0  0  0  0  0  0  0  0  0  0
  150.4939  138.9518  154.7051 C   0  0  2  0  0  0  0  0  0  0  0  0
  149.6233  137.8762  155.1817 N   0  0  0  0  0  0  0  0  0  0  0  0
  149.9338  136.5717  155.2060 C   0  0  0  0  0  0  0  0  0  0  0  0
  151.0045  136.1221  154.7961 O   0  0  0  0  0  0  0  0  0  0  0  0
  148.8538  135.6327  155.7577 C   0  0  0  0  0  0  0  0  0  0  0  0
  149.1795  134.2157  155.5545 N   0  0  0  0  0  0  0  0  0  0  0  0
  149.2477  133.7031  154.2720 C   0  0  0  0  0  0  0  0  0  0  0  0
  149.5582  132.4169  153.9996 C   0  0  0  0  0  0  0  0  0  0  0  0
  149.8433  131.4716  155.0723 C   0  0  0  0  0  0  0  0  0  0  0  0
  150.1453  130.2957  154.8659 O   0  0  0  0  0  0  0  0  0  0  0  0
  149.7551  132.0195  156.3751 N   0  0  0  0  0  0  0  0  0  0  0  0
  150.0329  131.1678  157.5129 C   0  0  0  0  0  0  0  0  0  0  0  0
  149.4444  133.3692  156.6521 C   0  0  0  0  0  0  0  0  0  0  0  0
  149.4085  133.8049  157.8060 O   0  0  0  0  0  0  0  0  0  0  0  0
  151.1366  139.7190  155.8899 C   0  0  2  0  0  0  0  0  0  0  0  0
  151.9184  138.7629  156.8143 C   0  0  0  0  0  0  0  0  0  0  0  0
  151.5078  142.0599  157.4154 H   0  0  0  0  0  0  0  0  0  0  0  0
  151.1261  140.7831  158.5706 H   0  0  0  0  0  0  0  0  0  0  0  0
  149.9617  142.0518  158.2568 H   0  0  0  0  0  0  0  0  0  0  0  0
  149.3570  139.9125  157.1018 H   0  0  0  0  0  0  0  0  0  0  0  0
  148.5723  142.0729  156.2106 H   0  0  0  0  0  0  0  0  0  0  0  0
  150.0281  142.2494  155.2643 H   0  0  0  0  0  0  0  0  0  0  0  0
  147.8996  140.0863  154.9149 H   0  0  0  0  0  0  0  0  0  0  0  0
  148.1957  141.4289  153.8384 H   0  0  0  0  0  0  0  0  0  0  0  0
  149.2429  139.3374  152.9645 H   0  0  0  0  0  0  0  0  0  0  0  0
  150.4329  140.5712  153.2759 H   0  0  0  0  0  0  0  0  0  0  0  0
  151.3064  138.5016  154.1313 H   0  0  0  0  0  0  0  0  0  0  0  0
  148.7178  138.1516  155.5329 H   0  0  0  0  0  0  0  0  0  0  0  0
  148.6905  135.8308  156.8189 H   0  0  0  0  0  0  0  0  0  0  0  0
  147.9106  135.8735  155.2652 H   0  0  0  0  0  0  0  0  0  0  0  0
  149.0494  134.3653  153.4416 H   0  0  0  0  0  0  0  0  0  0  0  0
  149.5992  132.0829  152.9732 H   0  0  0  0  0  0  0  0  0  0  0  0
  149.2564  131.3377  158.2611 H   0  0  0  0  0  0  0  0  0  0  0  0
  151.0174  131.4508  157.8883 H   0  0  0  0  0  0  0  0  0  0  0  0
  150.0132  130.1164  157.2267 H   0  0  0  0  0  0  0  0  0  0  0  0
  151.8688  140.4038  155.4586 H   0  0  0  0  0  0  0  0  0  0  0  0
  151.2504  138.1233  157.3920 H   0  0  0  0  0  0  0  0  0  0  0  0
  152.5470  139.3085  157.5177 H   0  0  0  0  0  0  0  0  0  0  0  0
  152.5791  138.1155  156.2368 H   0  0  0  0  0  0  0  0  0  0  0  0
  1  2  1  0  0  0  0
  1 22  1  0  0  0  0
  1 23  1  0  0  0  0
  1 24  1  0  0  0  0
  2 20  1  0  0  0  0
  2  3  1  0  0  0  0
  2 25  1  0  0  0  0
  3  4  1  0  0  0  0
  3 26  1  0  0  0  0
  3 27  1  0  0  0  0
  4  5  1  0  0  0  0
  4 28  1  0  0  0  0
  4 29  1  0  0  0  0
  5  6  1  0  0  0  0
  5 30  1  0  0  0  0
  5 31  1  0  0  0  0
  6  7  1  0  0  0  0
  6 20  1  0  0  0  0
  6 32  1  0  0  0  0
  7  8  1  0  0  0  0
  7 33  1  0  0  0  0
  8  9  2  0  0  0  0
  8 10  1  0  0  0  0
 10 11  1  0  0  0  0
 10 34  1  0  0  0  0
 10 35  1  0  0  0  0
 11 18  1  0  0  0  0
 11 12  1  0  0  0  0
 12 13  2  0  0  0  0
 12 36  1  0  0  0  0
 13 14  1  0  0  0  0
 13 37  1  0  0  0  0
 14 15  2  0  0  0  0
 14 16  1  0  0  0  0
 16 17  1  0  0  0  0
 16 18  1  0  0  0  0
 17 38  1  0  0  0  0
 17 39  1  0  0  0  0
 17 40  1  0  0  0  0
 18 19  2  0  0  0  0
 20 21  1  0  0  0  0
 20 41  1  0  0  0  0
 21 42  1  0  0  0  0
 21 43  1  0  0  0  0
 21 44  1  0  0  0  0
M  END
> <s_m_source_file>
AV-unprocessed.smi

> <i_m_source_file_index>
2143

> <i_lp_mmshare_version>
43012

> <i_f3d_flags>
0

> <s_epik_input>
W0NIM11bQ0BASF0xW0NIMl1bQ0gyXVtDSDJdW0NASF0oW0NASF0xW0NIM10pW05IXUMoPU8pW0NIMl1uMltjSF1bY0hdYyg9TyluKFtDSDNdKWMyPU8=

> <s_epik_cmdline>
J2VwaWtfcHl0aG9uJywgJy1waCcsICc3LjAnLCAnLXRuJywgJzgnLCAnLW1hJywgJzIwMCcsICctbWV0YWxfYmluZGluZycsICctaW1hZScsICc8aW5maWxlLm1hZT4nLCAnLW9tYWUnLCAnPG91dGZpbGUubWFlPic=

> <r_lp_tautomer_probability>
1

> <r_epik_Ionization_Penalty>
3.18445e-08

> <r_epik_Ionization_Penalty_Charging>
1.27977e-08

> <r_epik_Ionization_Penalty_Neutral>
1.90469e-08

> <r_epik_State_Penalty>
-0

> <r_epik_Charging_Adjusted_Penalty>
1.27977e-08

> <i_epik_Tot_Q>
0

> <i_epik_Tot_abs_Q>
0

> <r_epik_Metal_State_Penalty>
-0

> <b_epik_Metal_Only>
0

> <s_lp_Force_Field>
OPLS_2005

> <r_lp_Energy>
18.9337

> <b_lp_Chiralities_Consistent>
1

> <s_lp_Variant>
AV-unprocessed.smi:2143-8

> <Gold.Version>
5.8.1

> <Gold.Id.Protein>
6NUR|6NUR_protein|mol2

> <Gold.PLP.Fitness>
41.5337

> <Gold.PLP.PLP>
-33.1495

> <Gold.PLP.part.hbond>
-2.0000

> <Gold.PLP.part.metal>
0.0000

> <Gold.PLP.part.buried>
-2.5769

> <Gold.PLP.part.nonpolar>
-29.5499

> <Gold.PLP.part.repulsive>
1.3815

> <Gold.PLP.ligand.clash>
0.0000

> <Gold.PLP.ligand.torsion>
0.3025

> <Gold.PLP.Chemscore.Hbond>
1.9920

> <Gold.PLP.Chemscore.CHOScore>
1.0000

> <Gold.PLP.Chemscore.Metal>
0.0000

> <Gold.Chemscore.Hbonds>
donor molecule, donor type, donor heavy atom, donor atom, acceptor molecule, acceptor atom, score
      P1  H  6896  6907       L1    19  0.86
      P1  H 10752 10763       L1     9  1.00
      L1  C    12    36       P1  7948  0.65

> <Gold.PLP.Chemscore.Internal.Correction>
0.0133

> <Gold.Rescore>
     Score         DG    S(hbond)    S(metal)    S(lipo)     H(rot)  DE(clash)    DE(int)     intcor
     14.42     -16.00       1.97        0.00      66.65       1.51       0.11       1.46       ----

> <Gold.Chemscore.Fitness>
14.4211

> <Gold.Chemscore.DG>
-15.9974

> <Gold.Chemscore.ZeroCoef>
-5.4800

> <Gold.Chemscore.Hbond>
1.9738

> <Gold.Chemscore.Metal>
0.0000

> <Gold.Chemscore.Lipo>
66.6539

> <Gold.Chemscore.Internal_Hbond>
0.0000

> <Gold.Chemscore.DEClash>
0.1133

> <Gold.Chemscore.DEInternal>
1.4630

> <Gold.Chemscore.Rot>
1.5131

> <Gold.Chemscore.Internal.Correction>
   9.000000E+99

> <Gold.Chemscore.Hbonds>
donor molecule, donor type, donor heavy atom, donor atom, acceptor molecule, acceptor atom, score
      P1  H  6896  6907       L1    19  0.79
      P1  H 10752 10763       L1     9  0.95

> <Gold.Chemscore.Hbond.Weighted>
-6.5923

> <Gold.Chemscore.Metal.Weighted>
-0.0000

> <Gold.Chemscore.Lipo.Weighted>
-7.7985

> <Gold.Chemscore.Internal_Hbond.Weighted>
0.0000

> <Gold.Chemscore.DEClash.Weighted>
0.1133

> <Gold.Chemscore.DEInternal.Weighted>
1.4630

> <Gold.Chemscore.Rot.Weighted>
3.8734

> <Gold.Chemscore.Internal.Correction.Weighted>
   9.000000E+99

> <Gold.Protein.RotatedTorsions>
[ 6907 6896 6895 6894 ] final -132.52 input  -60.11 | X-H torsion
[ 7974 7965 7964 7962 ] final  -89.74 input  175.53 | X-H torsion
[ 8008 7997 7996 7995 ] final -168.42 input   59.86 | X-H torsion
[ 10167 10162 10161 10158 ] final  122.20 input  -65.29 | X-H torsion
[ 10718 10713 10712 10709 ] final  -79.65 input   66.30 | X-H torsion
[ 10763 10752 10751 10750 ] final   62.33 input  -60.55 | X-H torsion
[ 11005 11000 10999 10996 ] final  -42.14 input  -57.11 | X-H torsion

> <Gold.Protein.ActiveResidues>
 VAL166  LYS551  ARG553  GLY616  TRP617  ASP618  TYR619  PRO620  LYS621  CYS622 
 ASP623  PHE694  ASN695  SER759  ASP760  ASP761  ALA762  ILE779  LEU786  VAL792 
 PHE793  MET794  SER795  GLU796  ALA797  LYS798  CYS799  TRP800  GLU811  SER814 

> <Gold.Protein.RotatedAtoms>
  150.9634  133.6421  159.2750 H   0  0  0  0  0  0  0  0  0  0  0  0  # atno 6907 bound_to 6896
  151.3735  135.0926  159.9483 H   0  0  0  0  0  0  0  0  0  0  0  0  # atno 6908 bound_to 6896
  152.5156  133.9183  159.7576 H   0  0  0  0  0  0  0  0  0  0  0  0  # atno 6909 bound_to 6896
  145.4357  140.9557  143.2103 H   0  0  0  0  0  0  0  0  0  0  0  0  # atno 7974 bound_to 7965
  155.8912  140.1025  157.1417 H   0  0  0  0  0  0  0  0  0  0  0  0  # atno 8008 bound_to 7997
  154.4015  140.1310  156.4382 H   0  0  0  0  0  0  0  0  0  0  0  0  # atno 8009 bound_to 7997
  155.7531  140.3464  155.5162 H   0  0  0  0  0  0  0  0  0  0  0  0  # atno 8010 bound_to 7997
  139.5873  144.7011  151.3378 H   0  0  0  0  0  0  0  0  0  0  0  0  # atno 10167 bound_to 10162
  156.0087  130.4552  150.3681 H   0  0  0  0  0  0  0  0  0  0  0  0  # atno 10718 bound_to 10713
  152.9979  135.5469  154.6176 H   0  0  0  0  0  0  0  0  0  0  0  0  # atno 10763 bound_to 10752
  154.5483  135.2825  155.1034 H   0  0  0  0  0  0  0  0  0  0  0  0  # atno 10764 bound_to 10752
  154.2284  135.6438  153.5220 H   0  0  0  0  0  0  0  0  0  0  0  0  # atno 10765 bound_to 10752
  141.0295  133.6826  156.2554 H   0  0  0  0  0  0  0  0  0  0  0  0  # atno 11005 bound_to 11000
  144.8154  139.5887  143.7011 LP  0  0  0  0  0  0  0  0  0  0  0  0  # atno 17320 bound_to 7965
  146.2583  139.6352  142.9379 LP  0  0  0  0  0  0  0  0  0  0  0  0  # atno 17321 bound_to 7965
  140.7142  143.7310  150.7624 LP  0  0  0  0  0  0  0  0  0  0  0  0  # atno 17342 bound_to 10162
  140.0857  143.4926  152.2506 LP  0  0  0  0  0  0  0  0  0  0  0  0  # atno 17343 bound_to 10162
  157.1767  131.0382  151.2769 LP  0  0  0  0  0  0  0  0  0  0  0  0  # atno 17370 bound_to 10713
  157.4182  130.7423  149.6892 LP  0  0  0  0  0  0  0  0  0  0  0  0  # atno 17371 bound_to 10713
  140.6432  134.5144  157.5571 LP  0  0  0  0  0  0  0  0  0  0  0  0  # atno 17394 bound_to 11000
  139.9198  134.8171  156.1247 LP  0  0  0  0  0  0  0  0  0  0  0  0  # atno 17395 bound_to 11000

$$$$
