AV-unprocessed.smi:1135|AV-procd|sdf|4859|dock6
  -GOLD-   22720 3433D 1   1.00000     0.00000
 Structure written by MMmdl.
 45 46  0  0  0  0  0  0  0  0  1 V2000
  144.6076  143.5627  155.5577 C   0  0  0  0  0  0  0  0  0  0  0  0
  145.8485  142.6814  155.3582 C   0  0  2  0  0  0  0  0  0  0  0  0
  146.2169  142.5558  153.8684 C   0  0  0  0  0  0  0  0  0  0  0  0
  147.4426  141.6458  153.6586 C   0  0  0  0  0  0  0  0  0  0  0  0
  147.2566  140.2346  154.2665 C   0  0  2  0  0  0  0  0  0  0  0  0
  148.5750  139.4457  154.1169 C   0  0  0  0  0  0  0  0  0  0  0  0
  146.1864  139.5635  153.5135 N   0  0  0  0  0  0  0  0  0  0  0  0
  146.0361  138.2530  153.2612 C   0  0  0  0  0  0  0  0  0  0  0  0
  146.8181  137.3745  153.6242 O   0  0  0  0  0  0  0  0  0  0  0  0
  144.9160  138.0129  152.5659 N   0  0  0  0  0  0  0  0  0  0  0  0
  144.4601  136.6909  152.1521 C   0  0  0  0  0  0  0  0  0  0  0  0
  145.5507  135.9354  151.3743 C   0  0  0  0  0  0  0  0  0  0  0  0
  145.1199  134.5293  151.0022 C   0  0  0  0  0  0  0  0  0  0  0  0
  143.7882  134.1082  151.2037 C   0  0  0  0  0  0  0  0  0  0  0  0
  143.4406  132.7896  150.8525 C   0  0  0  0  0  0  0  0  0  0  0  0
  144.4333  131.9465  150.3171 C   0  0  0  0  0  0  0  0  0  0  0  0
  145.7346  132.4625  150.1546 C   0  0  0  0  0  0  0  0  0  0  0  0
  146.0783  133.7254  150.4880 N   0  0  0  0  0  0  0  0  0  0  0  0
  146.8909  140.3955  155.7660 C   0  0  0  0  0  0  0  0  0  0  0  0
  145.6565  141.2887  155.9859 C   0  0  0  0  0  0  0  0  0  0  0  0
  143.7319  143.1311  155.0719 H   0  0  0  0  0  0  0  0  0  0  0  0
  144.7625  144.5585  155.1418 H   0  0  0  0  0  0  0  0  0  0  0  0
  144.3764  143.6806  156.6168 H   0  0  0  0  0  0  0  0  0  0  0  0
  146.6817  143.1667  155.8689 H   0  0  0  0  0  0  0  0  0  0  0  0
  145.3657  142.1670  153.3079 H   0  0  0  0  0  0  0  0  0  0  0  0
  146.4253  143.5433  153.4551 H   0  0  0  0  0  0  0  0  0  0  0  0
  147.6618  141.5713  152.5924 H   0  0  0  0  0  0  0  0  0  0  0  0
  148.3130  142.1254  154.1089 H   0  0  0  0  0  0  0  0  0  0  0  0
  149.4034  139.9666  154.5981 H   0  0  0  0  0  0  0  0  0  0  0  0
  148.8396  139.3100  153.0676 H   0  0  0  0  0  0  0  0  0  0  0  0
  148.5137  138.4569  154.5714 H   0  0  0  0  0  0  0  0  0  0  0  0
  145.4674  140.1746  153.1550 H   0  0  0  0  0  0  0  0  0  0  0  0
  144.3339  138.7971  152.3104 H   0  0  0  0  0  0  0  0  0  0  0  0
  144.1848  136.1319  153.0468 H   0  0  0  0  0  0  0  0  0  0  0  0
  143.5538  136.7796  151.5506 H   0  0  0  0  0  0  0  0  0  0  0  0
  145.8092  136.4784  150.4643 H   0  0  0  0  0  0  0  0  0  0  0  0
  146.4649  135.8810  151.9675 H   0  0  0  0  0  0  0  0  0  0  0  0
  143.0501  134.7778  151.6206 H   0  0  0  0  0  0  0  0  0  0  0  0
  142.4316  132.4314  150.9932 H   0  0  0  0  0  0  0  0  0  0  0  0
  144.2035  130.9289  150.0380 H   0  0  0  0  0  0  0  0  0  0  0  0
  146.5206  131.8437  149.7473 H   0  0  0  0  0  0  0  0  0  0  0  0
  146.7306  139.4266  156.2381 H   0  0  0  0  0  0  0  0  0  0  0  0
  147.7366  140.8368  156.2953 H   0  0  0  0  0  0  0  0  0  0  0  0
  145.4684  141.3878  157.0553 H   0  0  0  0  0  0  0  0  0  0  0  0
  144.7723  140.8081  155.5654 H   0  0  0  0  0  0  0  0  0  0  0  0
  1  2  1  0  0  0  0
  1 21  1  0  0  0  0
  1 22  1  0  0  0  0
  1 23  1  0  0  0  0
  2 20  1  0  0  0  0
  2  3  1  0  0  0  0
  2 24  1  0  0  0  0
  3  4  1  0  0  0  0
  3 25  1  0  0  0  0
  3 26  1  0  0  0  0
  4  5  1  0  0  0  0
  4 27  1  0  0  0  0
  4 28  1  0  0  0  0
  5  6  1  0  0  0  0
  5  7  1  0  0  0  0
  5 19  1  0  0  0  0
  6 29  1  0  0  0  0
  6 30  1  0  0  0  0
  6 31  1  0  0  0  0
  7  8  1  0  0  0  0
  7 32  1  0  0  0  0
  8  9  2  0  0  0  0
  8 10  1  0  0  0  0
 10 11  1  0  0  0  0
 10 33  1  0  0  0  0
 11 12  1  0  0  0  0
 11 34  1  0  0  0  0
 11 35  1  0  0  0  0
 12 13  1  0  0  0  0
 12 36  1  0  0  0  0
 12 37  1  0  0  0  0
 13 18  1  0  0  0  0
 13 14  2  0  0  0  0
 14 15  1  0  0  0  0
 14 38  1  0  0  0  0
 15 16  2  0  0  0  0
 15 39  1  0  0  0  0
 16 17  1  0  0  0  0
 16 40  1  0  0  0  0
 17 18  2  0  0  0  0
 17 41  1  0  0  0  0
 19 20  1  0  0  0  0
 19 42  1  0  0  0  0
 19 43  1  0  0  0  0
 20 44  1  0  0  0  0
 20 45  1  0  0  0  0
M  END
> <s_m_source_file>
AV-unprocessed.smi

> <i_m_source_file_index>
1135

> <i_lp_mmshare_version>
43012

> <i_f3d_flags>
0

> <s_epik_input>
W0NIMl0xW0NIMl1bQ0BIXShbQ0gzXSlbQ0gyXVtDSDJdW0NAQF0xKFtDSDNdKVtOSF1DKD1PKVtOSF1bQ0gyXVtDSDJdYzJbY0hdW2NIXVtjSF1bY0hdbjI=

> <s_epik_cmdline>
J2VwaWtfcHl0aG9uJywgJy1waCcsICc3LjAnLCAnLXRuJywgJzgnLCAnLW1hJywgJzIwMCcsICctbWV0YWxfYmluZGluZycsICctaW1hZScsICc8aW5maWxlLm1hZT4nLCAnLW9tYWUnLCAnPG91dGZpbGUubWFlPic=

> <r_epik_Ionization_Penalty>
0.0448679

> <r_epik_Ionization_Penalty_Charging>
0

> <r_epik_Ionization_Penalty_Neutral>
0.0448679

> <r_epik_State_Penalty>
0.0379931

> <r_epik_Charging_Adjusted_Penalty>
0.0379931

> <i_epik_Tot_Q>
0

> <i_epik_Tot_abs_Q>
0

> <r_epik_Metal_State_Penalty>
0.0353093

> <b_epik_Metal_Only>
0

> <s_lp_Force_Field>
OPLS_2005

> <r_lp_Energy>
6.34065

> <b_lp_Chiralities_Consistent>
1

> <s_lp_Variant>
AV-unprocessed.smi:1135-2

> <Gold.Version>
5.8.1

> <Gold.Id.Protein>
6NUR|6NUR_protein|mol2

> <Gold.PLP.Fitness>
44.4731

> <Gold.PLP.PLP>
-36.7745

> <Gold.PLP.part.hbond>
-2.8322

> <Gold.PLP.part.metal>
0.0000

> <Gold.PLP.part.buried>
-6.9685

> <Gold.PLP.part.nonpolar>
-28.0193

> <Gold.PLP.part.repulsive>
0.8979

> <Gold.PLP.ligand.clash>
0.0000

> <Gold.PLP.ligand.torsion>
0.6572

> <Gold.PLP.Chemscore.Hbond>
2.0000

> <Gold.PLP.Chemscore.CHOScore>
1.0000

> <Gold.PLP.Chemscore.Metal>
0.0000

> <Gold.Chemscore.Hbonds>
donor molecule, donor type, donor heavy atom, donor atom, acceptor molecule, acceptor atom, score
      L1  H     7    32       P1 10175  1.00
      L1  H    10    33       P1 10175  1.00
      L1  C    17    41       P1 10747  0.62

> <Gold.PLP.Chemscore.Internal.Correction>
0.0131

> <Gold.Rescore>
     Score         DG    S(hbond)    S(metal)    S(lipo)     H(rot)  DE(clash)    DE(int)     intcor
     15.10     -18.49       1.96        0.00      86.50       1.42       0.18       3.21       ----

> <Gold.Chemscore.Fitness>
15.1020

> <Gold.Chemscore.DG>
-18.4924

> <Gold.Chemscore.ZeroCoef>
-5.4800

> <Gold.Chemscore.Hbond>
1.9553

> <Gold.Chemscore.Metal>
0.0000

> <Gold.Chemscore.Lipo>
86.4981

> <Gold.Chemscore.Internal_Hbond>
0.0000

> <Gold.Chemscore.DEClash>
0.1802

> <Gold.Chemscore.DEInternal>
3.2103

> <Gold.Chemscore.Rot>
1.4213

> <Gold.Chemscore.Internal.Correction>
   9.000000E+99

> <Gold.Chemscore.Hbonds>
donor molecule, donor type, donor heavy atom, donor atom, acceptor molecule, acceptor atom, score
      L1  H     7    32       P1 10175  0.95
      L1  H    10    33       P1 10175  0.99

> <Gold.Chemscore.Hbond.Weighted>
-6.5306

> <Gold.Chemscore.Metal.Weighted>
-0.0000

> <Gold.Chemscore.Lipo.Weighted>
-10.1203

> <Gold.Chemscore.Internal_Hbond.Weighted>
0.0000

> <Gold.Chemscore.DEClash.Weighted>
0.1802

> <Gold.Chemscore.DEInternal.Weighted>
3.2103

> <Gold.Chemscore.Rot.Weighted>
3.6385

> <Gold.Chemscore.Internal.Correction.Weighted>
   9.000000E+99

> <Gold.Protein.RotatedTorsions>
[ 6907 6896 6895 6894 ] final   26.55 input  -60.11 | X-H torsion
[ 7974 7965 7964 7962 ] final -108.73 input  175.53 | X-H torsion
[ 8008 7997 7996 7995 ] final   32.35 input   59.86 | X-H torsion
[ 10167 10162 10161 10158 ] final  136.94 input  -65.29 | X-H torsion
[ 10718 10713 10712 10709 ] final -139.62 input   66.30 | X-H torsion
[ 10763 10752 10751 10750 ] final  -94.22 input  -60.55 | X-H torsion
[ 11005 11000 10999 10996 ] final   59.16 input  -57.11 | X-H torsion

> <Gold.Protein.ActiveResidues>
 VAL166  LYS551  ARG553  GLY616  TRP617  ASP618  TYR619  PRO620  LYS621  CYS622 
 ASP623  PHE694  ASN695  SER759  ASP760  ASP761  ALA762  ILE779  LEU786  VAL792 
 PHE793  MET794  SER795  GLU796  ALA797  LYS798  CYS799  TRP800  GLU811  SER814 

> <Gold.Protein.RotatedAtoms>
  151.9891  134.9988  160.0560 H   0  0  0  0  0  0  0  0  0  0  0  0  # atno 6907 bound_to 6896
  152.1625  133.4586  159.4876 H   0  0  0  0  0  0  0  0  0  0  0  0  # atno 6908 bound_to 6896
  150.6890  134.1972  159.4351 H   0  0  0  0  0  0  0  0  0  0  0  0  # atno 6909 bound_to 6896
  145.1892  140.9007  143.3434 H   0  0  0  0  0  0  0  0  0  0  0  0  # atno 7974 bound_to 7965
  155.1211  140.3248  155.4497 H   0  0  0  0  0  0  0  0  0  0  0  0  # atno 8008 bound_to 7997
  156.2662  140.2027  156.6281 H   0  0  0  0  0  0  0  0  0  0  0  0  # atno 8009 bound_to 7997
  154.6683  140.0539  157.0124 H   0  0  0  0  0  0  0  0  0  0  0  0  # atno 8010 bound_to 7997
  139.5162  144.6437  151.5498 H   0  0  0  0  0  0  0  0  0  0  0  0  # atno 10167 bound_to 10162
  156.3128  130.7491  151.1571 H   0  0  0  0  0  0  0  0  0  0  0  0  # atno 10718 bound_to 10713
  154.7034  135.5165  153.8560 H   0  0  0  0  0  0  0  0  0  0  0  0  # atno 10763 bound_to 10752
  153.0722  135.6605  154.0232 H   0  0  0  0  0  0  0  0  0  0  0  0  # atno 10764 bound_to 10752
  154.0087  135.3004  155.3374 H   0  0  0  0  0  0  0  0  0  0  0  0  # atno 10765 bound_to 10752
  140.0324  134.5993  155.9489 H   0  0  0  0  0  0  0  0  0  0  0  0  # atno 11005 bound_to 11000
  145.0058  139.3556  143.6145 LP  0  0  0  0  0  0  0  0  0  0  0  0  # atno 17320 bound_to 7965
  146.3439  139.9300  142.8755 LP  0  0  0  0  0  0  0  0  0  0  0  0  # atno 17321 bound_to 7965
  140.6214  143.9251  150.6529 LP  0  0  0  0  0  0  0  0  0  0  0  0  # atno 17342 bound_to 10162
  140.2526  143.3582  152.1392 LP  0  0  0  0  0  0  0  0  0  0  0  0  # atno 17343 bound_to 10162
  157.7395  131.0528  150.5229 LP  0  0  0  0  0  0  0  0  0  0  0  0  # atno 17370 bound_to 10713
  156.5371  130.4199  149.6172 LP  0  0  0  0  0  0  0  0  0  0  0  0  # atno 17371 bound_to 10713
  141.1838  133.6551  156.5132 LP  0  0  0  0  0  0  0  0  0  0  0  0  # atno 17394 bound_to 11000
  140.4203  134.7193  157.4886 LP  0  0  0  0  0  0  0  0  0  0  0  0  # atno 17395 bound_to 11000

$$$$
