AV-unprocessed.smi:2967|AV-procd|sdf|11327|dock1
  -GOLD-   2272016233D 1   1.00000     0.00000
 Structure written by MMmdl.
 37 38  0  0  0  0  0  0  0  0  2 V2000
  150.7612  140.7791  155.3441 O   0  0  0  0  0  0  0  0  0  0  0  0
  149.6763  141.3241  155.5457 C   0  0  0  0  0  0  0  0  0  0  0  0
  148.5256  141.0903  154.5511 C   0  0  0  0  0  0  0  0  0  0  0  0
  147.2833  141.8250  154.8548 N   0  0  0  0  0  0  0  0  0  0  0  0
  146.8482  142.7794  153.9186 C   0  0  0  0  0  0  0  0  0  0  0  0
  145.7212  143.4933  154.1024 C   0  0  0  0  0  0  0  0  0  0  0  0
  144.9433  143.2556  155.3118 C   0  0  0  0  0  0  0  0  0  0  0  0
  143.9112  143.8976  155.4962 O   0  0  0  0  0  0  0  0  0  0  0  0
  145.4060  142.3182  156.1897 N   0  5  0  0  0  0  0  0  0  0  0  0
  146.5532  141.5985  155.9889 C   0  0  0  0  0  0  0  0  0  0  0  0
  146.9466  140.7491  156.7885 O   0  0  0  0  0  0  0  0  0  0  0  0
  149.4443  142.1141  156.6082 N   0  0  0  0  0  0  0  0  0  0  0  0
  150.4100  142.4679  157.6444 C   0  0  0  0  0  0  0  0  0  0  0  0
  151.4706  143.4407  157.0843 C   0  0  0  0  0  0  0  0  0  0  0  0
  152.0509  144.3773  158.1591 C   0  0  0  0  0  0  0  0  0  0  0  0
  152.9978  143.7112  159.1679 C   0  0  0  0  0  0  0  0  0  0  0  0
  152.3897  142.5273  159.9385 C   0  0  0  0  0  0  0  0  0  0  0  0
  152.2621  141.2631  159.0742 C   0  0  0  0  0  0  0  0  0  0  0  0
  150.9849  141.1568  158.2209 C   0  0  0  0  0  0  0  0  0  0  0  0
  148.8778  141.3430  153.5497 H   0  0  0  0  0  0  0  0  0  0  0  0
  148.3242  140.0187  154.5151 H   0  0  0  0  0  0  0  0  0  0  0  0
  147.4781  142.8901  153.0479 H   0  0  0  0  0  0  0  0  0  0  0  0
  145.3999  144.2213  153.3721 H   0  0  0  0  0  0  0  0  0  0  0  0
  148.5238  142.5218  156.6898 H   0  0  0  0  0  0  0  0  0  0  0  0
  149.8667  142.9715  158.4463 H   0  0  0  0  0  0  0  0  0  0  0  0
  152.2635  142.8973  156.5690 H   0  0  0  0  0  0  0  0  0  0  0  0
  151.0104  144.0770  156.3272 H   0  0  0  0  0  0  0  0  0  0  0  0
  152.5976  145.1784  157.6604 H   0  0  0  0  0  0  0  0  0  0  0  0
  151.2360  144.8687  158.6924 H   0  0  0  0  0  0  0  0  0  0  0  0
  153.9100  143.3931  158.6615 H   0  0  0  0  0  0  0  0  0  0  0  0
  153.3115  144.4682  159.8875 H   0  0  0  0  0  0  0  0  0  0  0  0
  153.0576  142.2983  160.7696 H   0  0  0  0  0  0  0  0  0  0  0  0
  151.4342  142.7960  160.3906 H   0  0  0  0  0  0  0  0  0  0  0  0
  153.1363  141.1812  158.4274 H   0  0  0  0  0  0  0  0  0  0  0  0
  152.3052  140.3862  159.7212 H   0  0  0  0  0  0  0  0  0  0  0  0
  150.2039  140.6860  158.8198 H   0  0  0  0  0  0  0  0  0  0  0  0
  151.1880  140.4551  157.4102 H   0  0  0  0  0  0  0  0  0  0  0  0
  1  2  2  0  0  0  0
  2  3  1  0  0  0  0
  2 12  1  0  0  0  0
  3  4  1  0  0  0  0
  3 20  1  0  0  0  0
  3 21  1  0  0  0  0
  4 10  1  0  0  0  0
  4  5  1  0  0  0  0
  5  6  2  0  0  0  0
  5 22  1  0  0  0  0
  6  7  1  0  0  0  0
  6 23  1  0  0  0  0
  7  8  2  0  0  0  0
  7  9  1  0  0  0  0
  9 10  1  0  0  0  0
 10 11  2  0  0  0  0
 12 13  1  0  0  0  0
 12 24  1  0  0  0  0
 13 19  1  0  0  0  0
 13 14  1  0  0  0  0
 13 25  1  0  0  0  0
 14 15  1  0  0  0  0
 14 26  1  0  0  0  0
 14 27  1  0  0  0  0
 15 16  1  0  0  0  0
 15 28  1  0  0  0  0
 15 29  1  0  0  0  0
 16 17  1  0  0  0  0
 16 30  1  0  0  0  0
 16 31  1  0  0  0  0
 17 18  1  0  0  0  0
 17 32  1  0  0  0  0
 17 33  1  0  0  0  0
 18 19  1  0  0  0  0
 18 34  1  0  0  0  0
 18 35  1  0  0  0  0
 19 36  1  0  0  0  0
 19 37  1  0  0  0  0
M  CHG  1   9  -1
M  END
> <s_m_source_file>
AV-unprocessed.smi

> <i_m_source_file_index>
2967

> <i_lp_mmshare_version>
43012

> <i_f3d_flags>
0

> <s_epik_input>
W0NIMl0xW0NIMl1bQ0gyXVtDSDJdW0NIMl1bQ0gyXVtDSF0xW05IXUMoPU8pW0NIMl1uMltjSF1bY0hdYyg9TylbbkhdYzI9Tw==

> <s_epik_cmdline>
J2VwaWtfcHl0aG9uJywgJy1waCcsICc3LjAnLCAnLXRuJywgJzgnLCAnLW1hJywgJzIwMCcsICctbWV0YWxfYmluZGluZycsICctaW1hZScsICc8aW5maWxlLm1hZT4nLCAnLW9tYWUnLCAnPG91dGZpbGUubWFlPic=

> <r_lp_tautomer_probability>
0.999537

> <r_epik_Ionization_Penalty>
3.09244

> <r_epik_Ionization_Penalty_Charging>
2.84692e-08

> <r_epik_Ionization_Penalty_Neutral>
3.09244

> <r_epik_State_Penalty>
3.09149

> <r_epik_Charging_Adjusted_Penalty>
3.09149

> <i_epik_Tot_Q>
-1

> <i_epik_Tot_abs_Q>
1

> <r_epik_Metal_State_Penalty>
0.461034

> <b_epik_Metal_Only>
1

> <s_lp_Force_Field>
OPLS_2005

> <r_lp_Energy>
23.2827

> <b_lp_Chiralities_Consistent>
1

> <s_lp_Variant>
AV-unprocessed.smi:2967-2

> <Gold.Version>
5.8.1

> <Gold.Id.Protein>
6NUR|6NUR_protein|mol2

> <Gold.PLP.Fitness>
42.0247

> <Gold.PLP.PLP>
-39.7898

> <Gold.PLP.part.hbond>
-2.0000

> <Gold.PLP.part.metal>
0.0000

> <Gold.PLP.part.buried>
-4.7086

> <Gold.PLP.part.nonpolar>
-33.7537

> <Gold.PLP.part.repulsive>
0.2918

> <Gold.PLP.ligand.clash>
0.0000

> <Gold.PLP.ligand.torsion>
0.0925

> <Gold.PLP.Chemscore.Hbond>
0.8000

> <Gold.PLP.Chemscore.CHOScore>
0.0000

> <Gold.PLP.Chemscore.Metal>
0.0000

> <Gold.Chemscore.Hbonds>
donor molecule, donor type, donor heavy atom, donor atom, acceptor molecule, acceptor atom, score
      P1  H  7989  7998       L1     1  0.82

> <Gold.PLP.Chemscore.Internal.Correction>
0.0198

> <Gold.Rescore>
     Score         DG    S(hbond)    S(metal)    S(lipo)     H(rot)  DE(clash)    DE(int)     intcor
     12.96     -14.76       0.75        0.00      94.11       1.65       0.51       1.29       ----

> <Gold.Chemscore.Fitness>
12.9619

> <Gold.Chemscore.DG>
-14.7644

> <Gold.Chemscore.ZeroCoef>
-5.4800

> <Gold.Chemscore.Hbond>
0.7516

> <Gold.Chemscore.Metal>
0.0000

> <Gold.Chemscore.Lipo>
94.1083

> <Gold.Chemscore.Internal_Hbond>
0.0000

> <Gold.Chemscore.DEClash>
0.5091

> <Gold.Chemscore.DEInternal>
1.2934

> <Gold.Chemscore.Rot>
1.6549

> <Gold.Chemscore.Internal.Correction>
   9.000000E+99

> <Gold.Chemscore.Hbonds>
donor molecule, donor type, donor heavy atom, donor atom, acceptor molecule, acceptor atom, score
      P1  H  7989  7998       L1     1  0.75

> <Gold.Chemscore.Hbond.Weighted>
-2.5102

> <Gold.Chemscore.Metal.Weighted>
-0.0000

> <Gold.Chemscore.Lipo.Weighted>
-11.0107

> <Gold.Chemscore.Internal_Hbond.Weighted>
0.0000

> <Gold.Chemscore.DEClash.Weighted>
0.5091

> <Gold.Chemscore.DEInternal.Weighted>
1.2934

> <Gold.Chemscore.Rot.Weighted>
4.2364

> <Gold.Chemscore.Internal.Correction.Weighted>
   9.000000E+99

> <Gold.Protein.RotatedTorsions>
[ 6907 6896 6895 6894 ] final   72.20 input  -60.11 | X-H torsion
[ 7974 7965 7964 7962 ] final -129.29 input  175.53 | X-H torsion
[ 8008 7997 7996 7995 ] final -151.08 input   59.86 | X-H torsion
[ 10167 10162 10161 10158 ] final  -39.51 input  -65.29 | X-H torsion
[ 10718 10713 10712 10709 ] final -139.66 input   66.30 | X-H torsion
[ 10763 10752 10751 10750 ] final  -47.77 input  -60.55 | X-H torsion
[ 11005 11000 10999 10996 ] final  167.64 input  -57.11 | X-H torsion

> <Gold.Protein.ActiveResidues>
 VAL166  LYS551  ARG553  GLY616  TRP617  ASP618  TYR619  PRO620  LYS621  CYS622 
 ASP623  PHE694  ASN695  SER759  ASP760  ASP761  ALA762  ILE779  LEU786  VAL792 
 PHE793  MET794  SER795  GLU796  ALA797  LYS798  CYS799  TRP800  GLU811  SER814 

> <Gold.Protein.RotatedAtoms>
  152.4854  134.4607  159.9604 H   0  0  0  0  0  0  0  0  0  0  0  0  # atno 6907 bound_to 6896
  151.4605  133.3588  159.2816 H   0  0  0  0  0  0  0  0  0  0  0  0  # atno 6908 bound_to 6896
  150.8960  134.8393  159.7387 H   0  0  0  0  0  0  0  0  0  0  0  0  # atno 6909 bound_to 6896
  144.9586  140.7423  143.4743 H   0  0  0  0  0  0  0  0  0  0  0  0  # atno 7974 bound_to 7965
  155.6337  140.0694  157.2641 H   0  0  0  0  0  0  0  0  0  0  0  0  # atno 8008 bound_to 7997
  154.4200  140.1763  156.1548 H   0  0  0  0  0  0  0  0  0  0  0  0  # atno 8009 bound_to 7997
  155.9912  140.3345  155.6758 H   0  0  0  0  0  0  0  0  0  0  0  0  # atno 8010 bound_to 7997
  140.7062  143.3210  151.2793 H   0  0  0  0  0  0  0  0  0  0  0  0  # atno 10167 bound_to 10162
  156.3134  130.7494  151.1575 H   0  0  0  0  0  0  0  0  0  0  0  0  # atno 10718 bound_to 10713
  154.0669  135.6610  153.4819 H   0  0  0  0  0  0  0  0  0  0  0  0  # atno 10763 bound_to 10752
  153.0405  135.5148  154.7605 H   0  0  0  0  0  0  0  0  0  0  0  0  # atno 10764 bound_to 10752
  154.6658  135.3022  154.9774 H   0  0  0  0  0  0  0  0  0  0  0  0  # atno 10765 bound_to 10752
  140.2789  134.7767  157.3740 H   0  0  0  0  0  0  0  0  0  0  0  0  # atno 11005 bound_to 11000
  145.2733  139.1946  143.4830 LP  0  0  0  0  0  0  0  0  0  0  0  0  # atno 17320 bound_to 7965
  146.3346  140.2683  142.8605 LP  0  0  0  0  0  0  0  0  0  0  0  0  # atno 17321 bound_to 7965
  139.6664  144.0098  152.2725 LP  0  0  0  0  0  0  0  0  0  0  0  0  # atno 17342 bound_to 10162
  139.9682  144.6511  150.8014 LP  0  0  0  0  0  0  0  0  0  0  0  0  # atno 17343 bound_to 10162
  157.7396  131.0527  150.5221 LP  0  0  0  0  0  0  0  0  0  0  0  0  # atno 17370 bound_to 10713
  156.5364  130.4197  149.6176 LP  0  0  0  0  0  0  0  0  0  0  0  0  # atno 17371 bound_to 10713
  140.1302  134.5104  155.8111 LP  0  0  0  0  0  0  0  0  0  0  0  0  # atno 17394 bound_to 11000
  141.2166  133.6787  156.7026 LP  0  0  0  0  0  0  0  0  0  0  0  0  # atno 17395 bound_to 11000

$$$$
