AV-unprocessed.smi:474|AV-procd|sdf|2665|dock3
  -GOLD-   2262023 83D 1   1.00000     0.00000
 Structure written by MMmdl.
 37 38  0  0  0  0  0  0  0  0  1 V2000
  150.7033  141.8961  156.1539 C   0  0  0  0  0  0  0  0  0  0  0  0
  150.3076  140.6661  155.4114 C   0  0  0  0  0  0  0  0  0  0  0  0
  149.1166  140.0139  155.2603 C   0  0  0  0  0  0  0  0  0  0  0  0
  149.4592  138.9137  154.4211 C   0  0  0  0  0  0  0  0  0  0  0  0
  148.5757  137.9101  153.9467 N   0  0  0  0  0  0  0  0  0  0  0  0
  147.2514  137.8001  154.1454 C   0  0  0  0  0  0  0  0  0  0  0  0
  146.5637  138.5704  154.8157 O   0  0  0  0  0  0  0  0  0  0  0  0
  146.7542  136.7283  153.5114 N   0  0  0  0  0  0  0  0  0  0  0  0
  145.3519  136.3282  153.5129 C   0  0  0  0  0  0  0  0  0  0  0  0
  144.7978  136.2071  152.0826 C   0  0  0  0  0  0  0  0  0  0  0  0
  144.9867  134.8189  151.4942 C   0  0  0  0  0  0  0  0  0  0  0  0
  146.1972  134.3629  151.1176 C   0  0  0  0  0  0  0  0  0  0  0  0
  146.4424  132.9925  150.5109 C   0  0  0  0  0  0  0  0  0  0  0  0
  145.1410  132.3101  150.0571 C   0  0  0  0  0  0  0  0  0  0  0  0
  144.0315  132.4833  151.1014 C   0  0  0  0  0  0  0  0  0  0  0  0
  143.7273  133.9710  151.3537 C   0  0  0  0  0  0  0  0  0  0  0  0
  150.7391  138.9008  154.0970 N   0  0  0  0  0  0  0  0  0  0  0  0
  151.2914  140.0213  154.7284 O   0  0  0  0  0  0  0  0  0  0  0  0
  149.8262  142.4769  156.4402 H   0  0  0  0  0  0  0  0  0  0  0  0
  151.3423  142.5313  155.5402 H   0  0  0  0  0  0  0  0  0  0  0  0
  151.2505  141.6398  157.0610 H   0  0  0  0  0  0  0  0  0  0  0  0
  148.1653  140.2939  155.6865 H   0  0  0  0  0  0  0  0  0  0  0  0
  149.0036  137.1959  153.3762 H   0  0  0  0  0  0  0  0  0  0  0  0
  147.3909  136.1486  152.9843 H   0  0  0  0  0  0  0  0  0  0  0  0
  145.2834  135.3702  154.0282 H   0  0  0  0  0  0  0  0  0  0  0  0
  144.7595  137.0371  154.0940 H   0  0  0  0  0  0  0  0  0  0  0  0
  143.7353  136.4550  152.0785 H   0  0  0  0  0  0  0  0  0  0  0  0
  145.2829  136.9321  151.4279 H   0  0  0  0  0  0  0  0  0  0  0  0
  147.0707  134.9850  151.2494 H   0  0  0  0  0  0  0  0  0  0  0  0
  147.1239  133.0898  149.6653 H   0  0  0  0  0  0  0  0  0  0  0  0
  146.9480  132.3801  151.2578 H   0  0  0  0  0  0  0  0  0  0  0  0
  144.8121  132.7443  149.1119 H   0  0  0  0  0  0  0  0  0  0  0  0
  145.3219  131.2522  149.8648 H   0  0  0  0  0  0  0  0  0  0  0  0
  143.1254  131.9676  150.7822 H   0  0  0  0  0  0  0  0  0  0  0  0
  144.3421  132.0116  152.0347 H   0  0  0  0  0  0  0  0  0  0  0  0
  143.1181  134.0696  152.2528 H   0  0  0  0  0  0  0  0  0  0  0  0
  143.1386  134.3698  150.5272 H   0  0  0  0  0  0  0  0  0  0  0  0
  1  2  1  0  0  0  0
  1 19  1  0  0  0  0
  1 20  1  0  0  0  0
  1 21  1  0  0  0  0
  2 18  1  0  0  0  0
  2  3  2  0  0  0  0
  3  4  1  0  0  0  0
  3 22  1  0  0  0  0
  4  5  1  0  0  0  0
  4 17  2  0  0  0  0
  5  6  1  0  0  0  0
  5 23  1  0  0  0  0
  6  7  2  0  0  0  0
  6  8  1  0  0  0  0
  8  9  1  0  0  0  0
  8 24  1  0  0  0  0
  9 10  1  0  0  0  0
  9 25  1  0  0  0  0
  9 26  1  0  0  0  0
 10 11  1  0  0  0  0
 10 27  1  0  0  0  0
 10 28  1  0  0  0  0
 11 16  1  0  0  0  0
 11 12  2  0  0  0  0
 12 13  1  0  0  0  0
 12 29  1  0  0  0  0
 13 14  1  0  0  0  0
 13 30  1  0  0  0  0
 13 31  1  0  0  0  0
 14 15  1  0  0  0  0
 14 32  1  0  0  0  0
 14 33  1  0  0  0  0
 15 16  1  0  0  0  0
 15 34  1  0  0  0  0
 15 35  1  0  0  0  0
 16 36  1  0  0  0  0
 16 37  1  0  0  0  0
 17 18  1  0  0  0  0
M  END
> <s_m_source_file>
AV-unprocessed.smi

> <i_m_source_file_index>
474

> <i_lp_mmshare_version>
43012

> <i_f3d_flags>
0

> <s_epik_input>
W0NIM11jMVtjSF1jKG5vMSlbTkhdQyg9TylbTkhdW0NIMl1bQ0gyXUMyPVtDSF1bQ0gyXVtDSDJdW0NIMl1bQ0gyXTI=

> <s_epik_cmdline>
J2VwaWtfcHl0aG9uJywgJy1waCcsICc3LjAnLCAnLXRuJywgJzgnLCAnLW1hJywgJzIwMCcsICctbWV0YWxfYmluZGluZycsICctaW1hZScsICc8aW5maWxlLm1hZT4nLCAnLW9tYWUnLCAnPG91dGZpbGUubWFlPic=

> <r_lp_tautomer_probability>
1

> <r_epik_Ionization_Penalty>
2.87157e-05

> <r_epik_Ionization_Penalty_Charging>
0

> <r_epik_Ionization_Penalty_Neutral>
2.87157e-05

> <r_epik_State_Penalty>
-0

> <r_epik_Charging_Adjusted_Penalty>
0

> <i_epik_Tot_Q>
0

> <i_epik_Tot_abs_Q>
0

> <r_epik_Metal_State_Penalty>
0.00793999

> <b_epik_Metal_Only>
0

> <s_lp_Force_Field>
OPLS_2005

> <r_lp_Energy>
6.67712

> <b_lp_Chiralities_Consistent>
1

> <s_lp_Variant>
AV-unprocessed.smi:474-1

> <Gold.Version>
5.8.1

> <Gold.Id.Protein>
6NUR|6NUR_protein|mol2

> <Gold.PLP.Fitness>
38.8908

> <Gold.PLP.PLP>
-30.9934

> <Gold.PLP.part.hbond>
-3.4801

> <Gold.PLP.part.metal>
0.0000

> <Gold.PLP.part.buried>
-4.5912

> <Gold.PLP.part.nonpolar>
-23.3566

> <Gold.PLP.part.repulsive>
0.3504

> <Gold.PLP.ligand.clash>
0.0000

> <Gold.PLP.ligand.torsion>
0.3188

> <Gold.PLP.Chemscore.Hbond>
2.8400

> <Gold.PLP.Chemscore.CHOScore>
0.0000

> <Gold.PLP.Chemscore.Metal>
0.0000

> <Gold.Chemscore.Hbonds>
donor molecule, donor type, donor heavy atom, donor atom, acceptor molecule, acceptor atom, score
      L1  H     5    23       P1  7948  0.98
      L1  H     8    24       P1  7948  0.86
      P1  H  7989  7998       L1    18  1.00

> <Gold.PLP.Chemscore.Internal.Correction>
0.0150

> <Gold.Rescore>
     Score         DG    S(hbond)    S(metal)    S(lipo)     H(rot)  DE(clash)    DE(int)     intcor
     15.94     -17.43       2.25        0.00      70.22       1.48       0.11       1.37       ----

> <Gold.Chemscore.Fitness>
15.9393

> <Gold.Chemscore.DG>
-17.4262

> <Gold.Chemscore.ZeroCoef>
-5.4800

> <Gold.Chemscore.Hbond>
2.2526

> <Gold.Chemscore.Metal>
0.0000

> <Gold.Chemscore.Lipo>
70.2204

> <Gold.Chemscore.Internal_Hbond>
0.0000

> <Gold.Chemscore.DEClash>
0.1129

> <Gold.Chemscore.DEInternal>
1.3740

> <Gold.Chemscore.Rot>
1.4818

> <Gold.Chemscore.Internal.Correction>
   9.000000E+99

> <Gold.Chemscore.Hbonds>
donor molecule, donor type, donor heavy atom, donor atom, acceptor molecule, acceptor atom, score
      L1  H     5    23       P1  7948  0.93
      L1  H     8    24       P1  7948  0.84
      P1  H  7989  7998       L1    18  0.16

> <Gold.Chemscore.Hbond.Weighted>
-7.5237

> <Gold.Chemscore.Metal.Weighted>
-0.0000

> <Gold.Chemscore.Lipo.Weighted>
-8.2158

> <Gold.Chemscore.Internal_Hbond.Weighted>
0.0000

> <Gold.Chemscore.DEClash.Weighted>
0.1129

> <Gold.Chemscore.DEInternal.Weighted>
1.3740

> <Gold.Chemscore.Rot.Weighted>
3.7933

> <Gold.Chemscore.Internal.Correction.Weighted>
   9.000000E+99

> <Gold.Protein.RotatedTorsions>
[ 6907 6896 6895 6894 ] final  170.63 input  -60.11 | X-H torsion
[ 7974 7965 7964 7962 ] final  -73.48 input  175.53 | X-H torsion
[ 8008 7997 7996 7995 ] final  105.04 input   59.86 | X-H torsion
[ 10167 10162 10161 10158 ] final -136.99 input  -65.29 | X-H torsion
[ 10718 10713 10712 10709 ] final  168.89 input   66.30 | X-H torsion
[ 10763 10752 10751 10750 ] final   82.80 input  -60.55 | X-H torsion
[ 11005 11000 10999 10996 ] final -169.74 input  -57.11 | X-H torsion

> <Gold.Protein.ActiveResidues>
 VAL166  LYS551  ARG553  GLY616  TRP617  ASP618  TYR619  PRO620  LYS621  CYS622 
 ASP623  PHE694  ASN695  SER759  ASP760  ASP761  ALA762  ILE779  LEU786  VAL792 
 PHE793  MET794  SER795  GLU796  ALA797  LYS798  CYS799  TRP800  GLU811  SER814 

> <Gold.Protein.RotatedAtoms>
  151.8131  133.3384  159.3561 H   0  0  0  0  0  0  0  0  0  0  0  0  # atno 6907 bound_to 6896
  150.7319  134.5645  159.5868 H   0  0  0  0  0  0  0  0  0  0  0  0  # atno 6908 bound_to 6896
  152.3060  134.7555  160.0398 H   0  0  0  0  0  0  0  0  0  0  0  0  # atno 6909 bound_to 6896
  145.6515  140.9281  143.0982 H   0  0  0  0  0  0  0  0  0  0  0  0  # atno 7974 bound_to 7965
  156.1625  140.3137  155.8832 H   0  0  0  0  0  0  0  0  0  0  0  0  # atno 8008 bound_to 7997
  155.3753  140.0484  157.3062 H   0  0  0  0  0  0  0  0  0  0  0  0  # atno 8009 bound_to 7997
  154.5160  140.2181  155.9075 H   0  0  0  0  0  0  0  0  0  0  0  0  # atno 8010 bound_to 7997
  139.8623  143.7062  152.2649 H   0  0  0  0  0  0  0  0  0  0  0  0  # atno 10167 bound_to 10162
  157.0306  131.0258  151.2745 H   0  0  0  0  0  0  0  0  0  0  0  0  # atno 10718 bound_to 10713
  153.1234  135.4715  154.9233 H   0  0  0  0  0  0  0  0  0  0  0  0  # atno 10763 bound_to 10752
  154.7597  135.3128  154.8404 H   0  0  0  0  0  0  0  0  0  0  0  0  # atno 10764 bound_to 10752
  153.8963  135.6879  153.4811 H   0  0  0  0  0  0  0  0  0  0  0  0  # atno 10765 bound_to 10752
  140.5273  134.5650  157.5065 H   0  0  0  0  0  0  0  0  0  0  0  0  # atno 11005 bound_to 11000
  144.7121  139.8333  143.7411 LP  0  0  0  0  0  0  0  0  0  0  0  0  # atno 17320 bound_to 7965
  146.1199  139.4216  143.0234 LP  0  0  0  0  0  0  0  0  0  0  0  0  # atno 17321 bound_to 7965
  139.7362  144.7570  151.0724 LP  0  0  0  0  0  0  0  0  0  0  0  0  # atno 17342 bound_to 10162
  140.7773  143.5027  150.9751 LP  0  0  0  0  0  0  0  0  0  0  0  0  # atno 17343 bound_to 10162
  157.5180  130.7980  149.7778 LP  0  0  0  0  0  0  0  0  0  0  0  0  # atno 17370 bound_to 10713
  156.0071  130.3850  150.2394 LP  0  0  0  0  0  0  0  0  0  0  0  0  # atno 17371 bound_to 10713
  139.9573  134.7513  156.0314 LP  0  0  0  0  0  0  0  0  0  0  0  0  # atno 17394 bound_to 11000
  141.1301  133.6589  156.3441 LP  0  0  0  0  0  0  0  0  0  0  0  0  # atno 17395 bound_to 11000

$$$$
