AV-unprocessed.smi:1292|AV-procd|sdf|5398|dock10
  -GOLD-   22720 4553D 1   1.00000     0.00000
 Structure written by MMmdl.
 39 40  0  0  0  0  0  0  0  0  2 V2000
  153.0095  142.1078  160.5789 C   0  0  0  0  0  0  0  0  0  0  0  0
  151.9807  141.7486  159.4977 C   0  0  1  0  0  0  0  0  0  0  0  0
  151.3939  143.0062  158.8424 C   0  0  0  0  0  0  0  0  0  0  0  0
  150.3699  142.5986  157.7805 C   0  0  0  0  0  0  0  0  0  0  0  0
  150.9965  141.6622  156.7367 C   0  0  0  0  0  0  0  0  0  0  0  0
  151.6133  140.4771  157.3741 N   0  0  0  0  0  0  0  0  0  0  0  0
  151.9881  139.1172  156.3565 S   0  0  0  0  0  0  0  0  0  0  0  0
  151.8618  139.6012  154.9722 O   0  0  0  0  0  0  0  0  0  0  0  0
  153.3057  138.6222  156.7886 O   0  0  0  0  0  0  0  0  0  0  0  0
  150.7625  138.1613  156.8242 N   0  5  0  0  0  0  0  0  0  0  0  0
  150.6850  137.7194  158.2079 C   0  0  0  0  0  0  0  0  0  0  0  0
  149.2691  137.9430  158.7937 C   0  0  0  0  0  0  0  0  0  0  0  0
  148.7189  136.8085  159.6546 C   0  0  0  0  0  0  0  0  0  0  0  0
  148.6850  135.4815  159.1674 C   0  0  0  0  0  0  0  0  0  0  0  0
  148.1781  134.4687  160.0039 C   0  0  0  0  0  0  0  0  0  0  0  0
  147.7174  134.8159  161.2882 C   0  0  0  0  0  0  0  0  0  0  0  0
  147.7822  136.1677  161.6795 C   0  0  0  0  0  0  0  0  0  0  0  0
  148.2621  137.1472  160.8848 N   0  0  0  0  0  0  0  0  0  0  0  0
  152.5888  140.8153  158.4314 C   0  0  0  0  0  0  0  0  0  0  0  0
  153.8564  142.6491  160.1554 H   0  0  0  0  0  0  0  0  0  0  0  0
  153.3964  141.2120  161.0654 H   0  0  0  0  0  0  0  0  0  0  0  0
  152.5643  142.7358  161.3511 H   0  0  0  0  0  0  0  0  0  0  0  0
  151.1663  141.2110  159.9862 H   0  0  0  0  0  0  0  0  0  0  0  0
  150.9189  143.6398  159.5921 H   0  0  0  0  0  0  0  0  0  0  0  0
  152.1875  143.5983  158.3850 H   0  0  0  0  0  0  0  0  0  0  0  0
  149.5241  142.0999  158.2559 H   0  0  0  0  0  0  0  0  0  0  0  0
  149.9696  143.4858  157.2894 H   0  0  0  0  0  0  0  0  0  0  0  0
  150.2297  141.3573  156.0256 H   0  0  0  0  0  0  0  0  0  0  0  0
  151.7592  142.1905  156.1636 H   0  0  0  0  0  0  0  0  0  0  0  0
  150.9147  136.6559  158.2779 H   0  0  0  0  0  0  0  0  0  0  0  0
  151.4203  138.2121  158.8454 H   0  0  0  0  0  0  0  0  0  0  0  0
  149.2545  138.8682  159.3720 H   0  0  0  0  0  0  0  0  0  0  0  0
  148.5715  138.1034  157.9711 H   0  0  0  0  0  0  0  0  0  0  0  0
  149.0519  135.2445  158.1798 H   0  0  0  0  0  0  0  0  0  0  0  0
  148.1457  133.4432  159.6671 H   0  0  0  0  0  0  0  0  0  0  0  0
  147.3249  134.0651  161.9577 H   0  0  0  0  0  0  0  0  0  0  0  0
  147.4358  136.4708  162.6565 H   0  0  0  0  0  0  0  0  0  0  0  0
  153.4633  141.2748  157.9690 H   0  0  0  0  0  0  0  0  0  0  0  0
  152.9325  139.9029  158.9181 H   0  0  0  0  0  0  0  0  0  0  0  0
  1  2  1  0  0  0  0
  1 20  1  0  0  0  0
  1 21  1  0  0  0  0
  1 22  1  0  0  0  0
  2 19  1  0  0  0  0
  2  3  1  0  0  0  0
  2 23  1  0  0  0  0
  3  4  1  0  0  0  0
  3 24  1  0  0  0  0
  3 25  1  0  0  0  0
  4  5  1  0  0  0  0
  4 26  1  0  0  0  0
  4 27  1  0  0  0  0
  5  6  1  0  0  0  0
  5 28  1  0  0  0  0
  5 29  1  0  0  0  0
  6  7  1  0  0  0  0
  6 19  1  0  0  0  0
  7  8  2  0  0  0  0
  7  9  2  0  0  0  0
  7 10  1  0  0  0  0
 10 11  1  0  0  0  0
 11 12  1  0  0  0  0
 11 30  1  0  0  0  0
 11 31  1  0  0  0  0
 12 13  1  0  0  0  0
 12 32  1  0  0  0  0
 12 33  1  0  0  0  0
 13 18  1  0  0  0  0
 13 14  2  0  0  0  0
 14 15  1  0  0  0  0
 14 34  1  0  0  0  0
 15 16  2  0  0  0  0
 15 35  1  0  0  0  0
 16 17  1  0  0  0  0
 16 36  1  0  0  0  0
 17 18  2  0  0  0  0
 17 37  1  0  0  0  0
 19 38  1  0  0  0  0
 19 39  1  0  0  0  0
M  CHG  1  10  -1
M  END
> <s_m_source_file>
AV-unprocessed.smi

> <i_m_source_file_index>
1292

> <i_lp_mmshare_version>
43012

> <i_f3d_flags>
0

> <s_epik_input>
W0NIM11bQ0BASF0xW0NIMl1bQ0gyXVtDSDJdTihbQ0gyXTEpUyg9TykoPU8pW05IXVtDSDJdW0NIMl1jMltjSF1bY0hdW2NIXVtjSF1uMg==

> <s_epik_cmdline>
J2VwaWtfcHl0aG9uJywgJy1waCcsICc3LjAnLCAnLXRuJywgJzgnLCAnLW1hJywgJzIwMCcsICctbWV0YWxfYmluZGluZycsICctaW1hZScsICc8aW5maWxlLm1hZT4nLCAnLW9tYWUnLCAnPG91dGZpbGUubWFlPic=

> <r_epik_Ionization_Penalty>
2.02944

> <r_epik_Ionization_Penalty_Charging>
1.95606

> <r_epik_Ionization_Penalty_Neutral>
0.0733799

> <r_epik_State_Penalty>
2.47711

> <r_epik_Charging_Adjusted_Penalty>
4.43317

> <i_epik_Tot_Q>
-1

> <i_epik_Tot_abs_Q>
1

> <r_epik_Metal_State_Penalty>
0.729901

> <b_epik_Metal_Only>
0

> <s_lp_Force_Field>
OPLS_2005

> <r_lp_Energy>
9.691

> <b_lp_Chiralities_Consistent>
1

> <s_lp_Variant>
AV-unprocessed.smi:1292-4

> <Gold.Version>
5.8.1

> <Gold.Id.Protein>
6NUR|6NUR_protein|mol2

> <Gold.PLP.Fitness>
42.2748

> <Gold.PLP.PLP>
-32.5073

> <Gold.PLP.part.hbond>
-4.0000

> <Gold.PLP.part.metal>
0.0000

> <Gold.PLP.part.buried>
-4.6204

> <Gold.PLP.part.nonpolar>
-24.3866

> <Gold.PLP.part.repulsive>
0.0337

> <Gold.PLP.ligand.clash>
0.0000

> <Gold.PLP.ligand.torsion>
1.2671

> <Gold.PLP.Chemscore.Hbond>
3.5668

> <Gold.PLP.Chemscore.CHOScore>
0.0000

> <Gold.PLP.Chemscore.Metal>
0.0000

> <Gold.Chemscore.Hbonds>
donor molecule, donor type, donor heavy atom, donor atom, acceptor molecule, acceptor atom, score
      P1  H  6931  6943       L1    18  0.93
      P1  H  6934  6947       L1    18  0.44
      P1  H  7989  7998       L1     8  0.99
      P1  H  7997  8008       L1     9  0.99

> <Gold.PLP.Chemscore.Internal.Correction>
1.6013

> <Gold.Rescore>
     Score         DG    S(hbond)    S(metal)    S(lipo)     H(rot)  DE(clash)    DE(int)     intcor
     20.46     -22.03       3.03        0.00      85.99       1.42       0.14       1.43       ----

> <Gold.Chemscore.Fitness>
20.4611

> <Gold.Chemscore.DG>
-22.0307

> <Gold.Chemscore.ZeroCoef>
-5.4800

> <Gold.Chemscore.Hbond>
3.0327

> <Gold.Chemscore.Metal>
0.0000

> <Gold.Chemscore.Lipo>
85.9883

> <Gold.Chemscore.Internal_Hbond>
0.0000

> <Gold.Chemscore.DEClash>
0.1413

> <Gold.Chemscore.DEInternal>
1.4283

> <Gold.Chemscore.Rot>
1.4216

> <Gold.Chemscore.Internal.Correction>
   9.000000E+99

> <Gold.Chemscore.Hbonds>
donor molecule, donor type, donor heavy atom, donor atom, acceptor molecule, acceptor atom, score
      P1  H  6931  6943       L1    18  0.54
      P1  H  6934  6947       L1    18  0.37
      P1  H  7989  7998       L1     8  0.94
      P1  H  7997  8008       L1     9  0.62

> <Gold.Chemscore.Hbond.Weighted>
-10.1292

> <Gold.Chemscore.Metal.Weighted>
-0.0000

> <Gold.Chemscore.Lipo.Weighted>
-10.0606

> <Gold.Chemscore.Internal_Hbond.Weighted>
0.0000

> <Gold.Chemscore.DEClash.Weighted>
0.1413

> <Gold.Chemscore.DEInternal.Weighted>
1.4283

> <Gold.Chemscore.Rot.Weighted>
3.6392

> <Gold.Chemscore.Internal.Correction.Weighted>
   9.000000E+99

> <Gold.Protein.RotatedTorsions>
[ 6907 6896 6895 6894 ] final -173.89 input  -60.11 | X-H torsion
[ 7974 7965 7964 7962 ] final  170.98 input  175.53 | X-H torsion
[ 8008 7997 7996 7995 ] final  -70.16 input   59.86 | X-H torsion
[ 10167 10162 10161 10158 ] final  -74.35 input  -65.29 | X-H torsion
[ 10718 10713 10712 10709 ] final  -58.33 input   66.30 | X-H torsion
[ 10763 10752 10751 10750 ] final -143.54 input  -60.55 | X-H torsion
[ 11005 11000 10999 10996 ] final   98.64 input  -57.11 | X-H torsion

> <Gold.Protein.ActiveResidues>
 VAL166  LYS551  ARG553  GLY616  TRP617  ASP618  TYR619  PRO620  LYS621  CYS622 
 ASP623  PHE694  ASN695  SER759  ASP760  ASP761  ALA762  ILE779  LEU786  VAL792 
 PHE793  MET794  SER795  GLU796  ALA797  LYS798  CYS799  TRP800  GLU811  SER814 

> <Gold.Protein.RotatedAtoms>
  151.5635  133.3400  159.2975 H   0  0  0  0  0  0  0  0  0  0  0  0  # atno 6907 bound_to 6896
  150.8409  134.7703  159.6942 H   0  0  0  0  0  0  0  0  0  0  0  0  # atno 6908 bound_to 6896
  152.4476  134.5468  159.9907 H   0  0  0  0  0  0  0  0  0  0  0  0  # atno 6909 bound_to 6896
  144.7308  139.9282  143.6423 H   0  0  0  0  0  0  0  0  0  0  0  0  # atno 7974 bound_to 7965
  154.4991  140.0840  156.7760 H   0  0  0  0  0  0  0  0  0  0  0  0  # atno 8008 bound_to 7997
  155.4045  140.3438  155.4241 H   0  0  0  0  0  0  0  0  0  0  0  0  # atno 8009 bound_to 7997
  156.1433  140.1536  156.8874 H   0  0  0  0  0  0  0  0  0  0  0  0  # atno 8010 bound_to 7997
  140.5034  143.2357  151.7714 H   0  0  0  0  0  0  0  0  0  0  0  0  # atno 10167 bound_to 10162
  156.1143  130.4172  150.0562 H   0  0  0  0  0  0  0  0  0  0  0  0  # atno 10718 bound_to 10713
  154.8465  135.3465  154.6204 H   0  0  0  0  0  0  0  0  0  0  0  0  # atno 10763 bound_to 10752
  153.6813  135.6980  153.5122 H   0  0  0  0  0  0  0  0  0  0  0  0  # atno 10764 bound_to 10752
  153.2666  135.4306  155.0903 H   0  0  0  0  0  0  0  0  0  0  0  0  # atno 10765 bound_to 10752
  139.8772  134.9059  156.4487 H   0  0  0  0  0  0  0  0  0  0  0  0  # atno 11005 bound_to 11000
  146.0878  139.3867  143.0425 LP  0  0  0  0  0  0  0  0  0  0  0  0  # atno 17320 bound_to 7965
  145.7753  140.9879  143.1128 LP  0  0  0  0  0  0  0  0  0  0  0  0  # atno 17321 bound_to 7965
  139.4877  144.4491  151.9675 LP  0  0  0  0  0  0  0  0  0  0  0  0  # atno 17342 bound_to 10162
  140.3581  144.3007  150.5938 LP  0  0  0  0  0  0  0  0  0  0  0  0  # atno 17343 bound_to 10162
  156.8517  130.9461  151.3625 LP  0  0  0  0  0  0  0  0  0  0  0  0  # atno 17370 bound_to 10713
  157.6326  130.8741  149.9301 LP  0  0  0  0  0  0  0  0  0  0  0  0  # atno 17371 bound_to 10713
  140.8947  133.7822  155.9612 LP  0  0  0  0  0  0  0  0  0  0  0  0  # atno 17394 bound_to 11000
  140.8715  134.2720  157.5188 LP  0  0  0  0  0  0  0  0  0  0  0  0  # atno 17395 bound_to 11000

$$$$
