AV-unprocessed.smi:1000|AV-procd|sdf|4355|dock6
  -GOLD-   22720 2253D 1   1.00000     0.00000
 Structure written by MMmdl.
 40 41  0  0  0  0  0  0  0  0  1 V2000
  154.5023  137.4152  159.2248 C   0  0  0  0  0  0  0  0  0  0  0  0
  153.6782  137.3487  157.5649 S   0  0  2  0  0  0  0  0  0  0  0  0
  153.7674  138.7506  156.9590 O   0  0  0  0  0  0  0  0  0  0  0  0
  151.9820  137.2555  158.2383 C   0  0  0  0  0  0  0  0  0  0  0  0
  151.7018  136.9616  159.5114 N   0  0  0  0  0  0  0  0  0  0  0  0
  150.3225  136.9982  159.5901 N   0  0  0  0  0  0  0  0  0  0  0  0
  149.9205  137.3099  158.3564 C   0  0  0  0  0  0  0  0  0  0  0  0
  150.9062  137.4868  157.4623 N   0  0  0  0  0  0  0  0  0  0  0  0
  150.8072  137.8334  156.0538 C   0  0  0  0  0  0  0  0  0  0  0  0
  150.5413  139.3276  155.8603 C   0  0  0  0  0  0  0  0  0  0  0  0
  150.8934  139.8815  154.8194 O   0  0  0  0  0  0  0  0  0  0  0  0
  149.9343  139.9693  156.8709 N   0  0  0  0  0  0  0  0  0  0  0  0
  149.6704  141.4019  156.9126 C   0  0  0  0  0  0  0  0  0  0  0  0
  150.9423  142.2092  156.5988 C   0  0  0  0  0  0  0  0  0  0  0  0
  151.4895  142.9424  157.8118 C   0  0  0  0  0  0  0  0  0  0  0  0
  151.5766  144.2863  157.8526 C   0  0  0  0  0  0  0  0  0  0  0  0
  152.1008  145.0723  159.0416 C   0  0  0  0  0  0  0  0  0  0  0  0
  152.2014  144.2141  160.3139 C   0  0  0  0  0  0  0  0  0  0  0  0
  152.7936  142.8332  160.0052 C   0  0  0  0  0  0  0  0  0  0  0  0
  151.9338  142.0707  158.9811 C   0  0  0  0  0  0  0  0  0  0  0  0
  153.9306  136.8614  159.9698 H   0  0  0  0  0  0  0  0  0  0  0  0
  154.5972  138.4490  159.5571 H   0  0  0  0  0  0  0  0  0  0  0  0
  155.4988  136.9784  159.1637 H   0  0  0  0  0  0  0  0  0  0  0  0
  148.8766  137.4153  158.0998 H   0  0  0  0  0  0  0  0  0  0  0  0
  151.7326  137.5440  155.5540 H   0  0  0  0  0  0  0  0  0  0  0  0
  150.0010  137.2569  155.5985 H   0  0  0  0  0  0  0  0  0  0  0  0
  149.6752  139.4343  157.6872 H   0  0  0  0  0  0  0  0  0  0  0  0
  148.8707  141.6591  156.2157 H   0  0  0  0  0  0  0  0  0  0  0  0
  149.3041  141.6437  157.9103 H   0  0  0  0  0  0  0  0  0  0  0  0
  151.7193  141.5505  156.2086 H   0  0  0  0  0  0  0  0  0  0  0  0
  150.7321  142.9326  155.8093 H   0  0  0  0  0  0  0  0  0  0  0  0
  151.2693  144.8707  156.9976 H   0  0  0  0  0  0  0  0  0  0  0  0
  153.0810  145.4692  158.7762 H   0  0  0  0  0  0  0  0  0  0  0  0
  151.4500  145.9279  159.2222 H   0  0  0  0  0  0  0  0  0  0  0  0
  152.8033  144.7282  161.0638 H   0  0  0  0  0  0  0  0  0  0  0  0
  151.2088  144.0876  160.7479 H   0  0  0  0  0  0  0  0  0  0  0  0
  153.8036  142.9568  159.6122 H   0  0  0  0  0  0  0  0  0  0  0  0
  152.8884  142.2477  160.9202 H   0  0  0  0  0  0  0  0  0  0  0  0
  151.0421  141.6791  159.4713 H   0  0  0  0  0  0  0  0  0  0  0  0
  152.4915  141.2119  158.6059 H   0  0  0  0  0  0  0  0  0  0  0  0
  1  2  1  0  0  0  0
  1 21  1  0  0  0  0
  1 22  1  0  0  0  0
  1 23  1  0  0  0  0
  2  3  2  0  0  0  0
  2  4  1  0  0  0  0
  4  8  1  0  0  0  0
  4  5  2  0  0  0  0
  5  6  1  0  0  0  0
  6  7  2  0  0  0  0
  7  8  1  0  0  0  0
  7 24  1  0  0  0  0
  8  9  1  0  0  0  0
  9 10  1  0  0  0  0
  9 25  1  0  0  0  0
  9 26  1  0  0  0  0
 10 11  2  0  0  0  0
 10 12  1  0  0  0  0
 12 13  1  0  0  0  0
 12 27  1  0  0  0  0
 13 14  1  0  0  0  0
 13 28  1  0  0  0  0
 13 29  1  0  0  0  0
 14 15  1  0  0  0  0
 14 30  1  0  0  0  0
 14 31  1  0  0  0  0
 15 20  1  0  0  0  0
 15 16  2  0  0  0  0
 16 17  1  0  0  0  0
 16 32  1  0  0  0  0
 17 18  1  0  0  0  0
 17 33  1  0  0  0  0
 17 34  1  0  0  0  0
 18 19  1  0  0  0  0
 18 35  1  0  0  0  0
 18 36  1  0  0  0  0
 19 20  1  0  0  0  0
 19 37  1  0  0  0  0
 19 38  1  0  0  0  0
 20 39  1  0  0  0  0
 20 40  1  0  0  0  0
M  END
> <s_m_source_file>
AV-unprocessed.smi

> <i_m_source_file_index>
1000

> <i_lp_mmshare_version>
43012

> <i_f3d_flags>
0

> <s_epik_input>
W0NIM11bU0BdKD1PKWMxbm5bY0hdbjFbQ0gyXUMoPU8pW05IXVtDSDJdW0NIMl1DMj1bQ0hdW0NIMl1bQ0gyXVtDSDJdW0NIMl0y

> <s_epik_cmdline>
J2VwaWtfcHl0aG9uJywgJy1waCcsICc3LjAnLCAnLXRuJywgJzgnLCAnLW1hJywgJzIwMCcsICctbWV0YWxfYmluZGluZycsICctaW1hZScsICc8aW5maWxlLm1hZT4nLCAnLW9tYWUnLCAnPG91dGZpbGUubWFlPic=

> <r_lp_tautomer_probability>
1

> <r_epik_Ionization_Penalty>
9.22166e-08

> <r_epik_Ionization_Penalty_Charging>
0

> <r_epik_Ionization_Penalty_Neutral>
9.22166e-08

> <r_epik_State_Penalty>
-0

> <r_epik_Charging_Adjusted_Penalty>
0

> <i_epik_Tot_Q>
0

> <i_epik_Tot_abs_Q>
0

> <r_epik_Metal_State_Penalty>
-0

> <b_epik_Metal_Only>
0

> <s_lp_Force_Field>
OPLS_2005

> <r_lp_Energy>
5.87902

> <b_lp_Chiralities_Consistent>
1

> <s_lp_Variant>
AV-unprocessed.smi:1000-1

> <Gold.Version>
5.8.1

> <Gold.Id.Protein>
6NUR|6NUR_protein|mol2

> <Gold.PLP.Fitness>
45.2100

> <Gold.PLP.PLP>
-38.3972

> <Gold.PLP.part.hbond>
-3.8662

> <Gold.PLP.part.metal>
0.0000

> <Gold.PLP.part.buried>
-6.8988

> <Gold.PLP.part.nonpolar>
-27.0389

> <Gold.PLP.part.repulsive>
0.0761

> <Gold.PLP.ligand.clash>
0.0000

> <Gold.PLP.ligand.torsion>
1.5688

> <Gold.PLP.Chemscore.Hbond>
2.9296

> <Gold.PLP.Chemscore.CHOScore>
0.0000

> <Gold.PLP.Chemscore.Metal>
0.0000

> <Gold.Chemscore.Hbonds>
donor molecule, donor type, donor heavy atom, donor atom, acceptor molecule, acceptor atom, score
      P1  H  6896  6909       L1     5  0.05
      P1  H  7989  7998       L1    11  1.00
      P1  H  7997  8009       L1     3  0.73

> <Gold.PLP.Chemscore.Internal.Correction>
1.1615

> <Gold.Rescore>
     Score         DG    S(hbond)    S(metal)    S(lipo)     H(rot)  DE(clash)    DE(int)     intcor
     16.89     -19.60       2.81        0.00      89.94       2.26       0.01       2.70       ----

> <Gold.Chemscore.Fitness>
16.8903

> <Gold.Chemscore.DG>
-19.6013

> <Gold.Chemscore.ZeroCoef>
-5.4800

> <Gold.Chemscore.Hbond>
2.8126

> <Gold.Chemscore.Metal>
0.0000

> <Gold.Chemscore.Lipo>
89.9402

> <Gold.Chemscore.Internal_Hbond>
0.0000

> <Gold.Chemscore.DEClash>
0.0142

> <Gold.Chemscore.DEInternal>
2.6968

> <Gold.Chemscore.Rot>
2.2640

> <Gold.Chemscore.Internal.Correction>
   9.000000E+99

> <Gold.Chemscore.Hbonds>
donor molecule, donor type, donor heavy atom, donor atom, acceptor molecule, acceptor atom, score
      P1  H  7989  7998       L1    11  1.00
      P1  H  7997  8009       L1     3  0.70

> <Gold.Chemscore.Hbond.Weighted>
-9.3940

> <Gold.Chemscore.Metal.Weighted>
-0.0000

> <Gold.Chemscore.Lipo.Weighted>
-10.5230

> <Gold.Chemscore.Internal_Hbond.Weighted>
0.0000

> <Gold.Chemscore.DEClash.Weighted>
0.0142

> <Gold.Chemscore.DEInternal.Weighted>
2.6968

> <Gold.Chemscore.Rot.Weighted>
5.7957

> <Gold.Chemscore.Internal.Correction.Weighted>
   9.000000E+99

> <Gold.Protein.RotatedTorsions>
[ 6907 6896 6895 6894 ] final  107.84 input  -60.11 | X-H torsion
[ 7974 7965 7964 7962 ] final    3.25 input  175.53 | X-H torsion
[ 8008 7997 7996 7995 ] final  156.15 input   59.86 | X-H torsion
[ 10167 10162 10161 10158 ] final  -44.63 input  -65.29 | X-H torsion
[ 10718 10713 10712 10709 ] final  -15.69 input   66.30 | X-H torsion
[ 10763 10752 10751 10750 ] final  117.59 input  -60.55 | X-H torsion
[ 11005 11000 10999 10996 ] final   70.97 input  -57.11 | X-H torsion

> <Gold.Protein.ActiveResidues>
 VAL166  LYS551  ARG553  GLY616  TRP617  ASP618  TYR619  PRO620  LYS621  CYS622 
 ASP623  PHE694  ASN695  SER759  ASP760  ASP761  ALA762  ILE779  LEU786  VAL792 
 PHE793  MET794  SER795  GLU796  ALA797  LYS798  CYS799  TRP800  GLU811  SER814 

> <Gold.Protein.RotatedAtoms>
  152.5138  133.9176  159.7518 H   0  0  0  0  0  0  0  0  0  0  0  0  # atno 6907 bound_to 6896
  150.9555  133.6493  159.2771 H   0  0  0  0  0  0  0  0  0  0  0  0  # atno 6908 bound_to 6896
  151.3757  135.0936  159.9532 H   0  0  0  0  0  0  0  0  0  0  0  0  # atno 6909 bound_to 6896
  146.2445  140.0713  142.8362 H   0  0  0  0  0  0  0  0  0  0  0  0  # atno 7974 bound_to 7965
  156.2438  140.1920  156.6911 H   0  0  0  0  0  0  0  0  0  0  0  0  # atno 8008 bound_to 7997
  154.6251  140.0603  156.9689 H   0  0  0  0  0  0  0  0  0  0  0  0  # atno 8009 bound_to 7997
  155.1800  140.3275  155.4379 H   0  0  0  0  0  0  0  0  0  0  0  0  # atno 8010 bound_to 7997
  140.6889  143.2920  151.3523 H   0  0  0  0  0  0  0  0  0  0  0  0  # atno 10167 bound_to 10162
  156.5982  130.4817  149.6251 H   0  0  0  0  0  0  0  0  0  0  0  0  # atno 10718 bound_to 10713
  153.5547  135.3532  155.2774 H   0  0  0  0  0  0  0  0  0  0  0  0  # atno 10763 bound_to 10752
  154.8702  135.4122  154.2897 H   0  0  0  0  0  0  0  0  0  0  0  0  # atno 10764 bound_to 10752
  153.3631  135.7061  153.6765 H   0  0  0  0  0  0  0  0  0  0  0  0  # atno 10765 bound_to 10752
  139.9569  134.7129  156.0733 H   0  0  0  0  0  0  0  0  0  0  0  0  # atno 11005 bound_to 11000
  145.0813  140.9223  143.4823 LP  0  0  0  0  0  0  0  0  0  0  0  0  # atno 17320 bound_to 7965
  145.0867  139.2920  143.5756 LP  0  0  0  0  0  0  0  0  0  0  0  0  # atno 17321 bound_to 7965
  139.6273  144.0789  152.2446 LP  0  0  0  0  0  0  0  0  0  0  0  0  # atno 17342 bound_to 10162
  140.0252  144.6123  150.7533 LP  0  0  0  0  0  0  0  0  0  0  0  0  # atno 17343 bound_to 10162
  156.2491  130.6897  151.1628 LP  0  0  0  0  0  0  0  0  0  0  0  0  # atno 17370 bound_to 10713
  157.7286  131.0630  150.5811 LP  0  0  0  0  0  0  0  0  0  0  0  0  # atno 17371 bound_to 10713
  141.1241  133.6604  156.3291 LP  0  0  0  0  0  0  0  0  0  0  0  0  # atno 17394 bound_to 11000
  140.5589  134.5954  157.5428 LP  0  0  0  0  0  0  0  0  0  0  0  0  # atno 17395 bound_to 11000

$$$$
