AV-unprocessed.smi:1543|AV-procd|sdf|6205|dock7
  -GOLD-   22720 6373D 1   1.00000     0.00000
 Structure written by MMmdl.
 48 49  0  0  0  0  0  0  0  0  1 V2000
  147.2497  137.3872  158.0782 C   0  0  0  0  0  0  0  0  0  0  0  0
  146.5874  138.6190  157.4515 C   0  0  2  0  0  0  0  0  0  0  0  0
  147.4076  139.1803  156.2756 C   0  0  0  0  0  0  0  0  0  0  0  0
  146.8254  140.4121  155.7356 N   0  0  0  0  0  0  0  0  0  0  0  0
  147.4689  140.9218  154.4919 C   0  0  0  0  0  0  0  0  0  0  0  0
  147.2294  140.0048  153.2687 C   0  0  0  0  0  0  0  0  0  0  0  0
  146.9335  142.3289  154.1232 C   0  0  0  0  0  0  0  0  0  0  0  0
  149.0087  141.0748  154.6623 C   0  0  0  0  0  0  0  0  0  0  0  0
  149.3605  142.1435  155.5974 N   0  0  0  0  0  0  0  0  0  0  0  0
  150.1359  142.0182  156.6830 C   0  0  0  0  0  0  0  0  0  0  0  0
  150.6369  140.9536  157.0435 O   0  0  0  0  0  0  0  0  0  0  0  0
  150.2740  143.1980  157.3119 N   0  0  0  0  0  0  0  0  0  0  0  0
  150.9885  143.4988  158.5038 C   0  0  0  0  0  0  0  0  0  0  0  0
  151.9515  142.6488  159.1008 C   0  0  0  0  0  0  0  0  0  0  0  0
  152.5962  143.0737  160.2788 C   0  0  0  0  0  0  0  0  0  0  0  0
  152.2620  144.3333  160.8122 C   0  0  0  0  0  0  0  0  0  0  0  0
  151.3563  145.1591  160.2477 N   0  0  0  0  0  0  0  0  0  0  0  0
  150.7421  144.7447  159.1191 C   0  0  0  0  0  0  0  0  0  0  0  0
  146.7209  141.3921  156.8227 C   0  0  0  0  0  0  0  0  0  0  0  0
  145.9209  140.8603  158.0271 C   0  0  1  0  0  0  0  0  0  0  0  0
  144.4088  140.7743  157.7570 C   0  0  0  0  0  0  0  0  0  0  0  0
  146.4577  139.6124  158.4654 O   0  0  0  0  0  0  0  0  0  0  0  0
  147.3683  136.5891  157.3450 H   0  0  0  0  0  0  0  0  0  0  0  0
  146.6483  136.9969  158.8996 H   0  0  0  0  0  0  0  0  0  0  0  0
  148.2368  137.6284  158.4733 H   0  0  0  0  0  0  0  0  0  0  0  0
  145.5966  138.3320  157.0978 H   0  0  0  0  0  0  0  0  0  0  0  0
  148.4297  139.3637  156.6081 H   0  0  0  0  0  0  0  0  0  0  0  0
  147.4580  138.4065  155.5120 H   0  0  0  0  0  0  0  0  0  0  0  0
  147.7043  140.4126  152.3754 H   0  0  0  0  0  0  0  0  0  0  0  0
  146.1698  139.8953  153.0379 H   0  0  0  0  0  0  0  0  0  0  0  0
  147.6419  139.0069  153.4157 H   0  0  0  0  0  0  0  0  0  0  0  0
  147.5215  142.7846  153.3256 H   0  0  0  0  0  0  0  0  0  0  0  0
  146.9649  143.0079  154.9763 H   0  0  0  0  0  0  0  0  0  0  0  0
  145.9058  142.3005  153.7618 H   0  0  0  0  0  0  0  0  0  0  0  0
  149.4585  140.1507  155.0248 H   0  0  0  0  0  0  0  0  0  0  0  0
  149.4763  141.2388  153.6898 H   0  0  0  0  0  0  0  0  0  0  0  0
  148.9995  143.0609  155.3803 H   0  0  0  0  0  0  0  0  0  0  0  0
  149.7547  143.9689  156.9177 H   0  0  0  0  0  0  0  0  0  0  0  0
  152.2187  141.6923  158.6805 H   0  0  0  0  0  0  0  0  0  0  0  0
  153.3337  142.4490  160.7609 H   0  0  0  0  0  0  0  0  0  0  0  0
  152.7387  144.6889  161.7137 H   0  0  0  0  0  0  0  0  0  0  0  0
  150.0248  145.4323  158.6950 H   0  0  0  0  0  0  0  0  0  0  0  0
  147.7179  141.6687  157.1664 H   0  0  0  0  0  0  0  0  0  0  0  0
  146.2441  142.3098  156.4840 H   0  0  0  0  0  0  0  0  0  0  0  0
  146.0571  141.5579  158.8538 H   0  0  0  0  0  0  0  0  0  0  0  0
  144.0003  141.7595  157.5308 H   0  0  0  0  0  0  0  0  0  0  0  0
  143.8790  140.3890  158.6282 H   0  0  0  0  0  0  0  0  0  0  0  0
  144.1788  140.1266  156.9111 H   0  0  0  0  0  0  0  0  0  0  0  0
  1  2  1  0  0  0  0
  1 23  1  0  0  0  0
  1 24  1  0  0  0  0
  1 25  1  0  0  0  0
  2 22  1  0  0  0  0
  2  3  1  0  0  0  0
  2 26  1  0  0  0  0
  3  4  1  0  0  0  0
  3 27  1  0  0  0  0
  3 28  1  0  0  0  0
  4  5  1  0  0  0  0
  4 19  1  0  0  0  0
  5  6  1  0  0  0  0
  5  7  1  0  0  0  0
  5  8  1  0  0  0  0
  6 29  1  0  0  0  0
  6 30  1  0  0  0  0
  6 31  1  0  0  0  0
  7 32  1  0  0  0  0
  7 33  1  0  0  0  0
  7 34  1  0  0  0  0
  8  9  1  0  0  0  0
  8 35  1  0  0  0  0
  8 36  1  0  0  0  0
  9 10  1  0  0  0  0
  9 37  1  0  0  0  0
 10 11  2  0  0  0  0
 10 12  1  0  0  0  0
 12 13  1  0  0  0  0
 12 38  1  0  0  0  0
 13 18  1  0  0  0  0
 13 14  2  0  0  0  0
 14 15  1  0  0  0  0
 14 39  1  0  0  0  0
 15 16  2  0  0  0  0
 15 40  1  0  0  0  0
 16 17  1  0  0  0  0
 16 41  1  0  0  0  0
 17 18  2  0  0  0  0
 18 42  1  0  0  0  0
 19 20  1  0  0  0  0
 19 43  1  0  0  0  0
 19 44  1  0  0  0  0
 20 21  1  0  0  0  0
 20 22  1  0  0  0  0
 20 45  1  0  0  0  0
 21 46  1  0  0  0  0
 21 47  1  0  0  0  0
 21 48  1  0  0  0  0
M  END
> <s_m_source_file>
AV-unprocessed.smi

> <i_m_source_file_index>
1543

> <i_lp_mmshare_version>
43012

> <i_f3d_flags>
0

> <s_epik_input>
W0NIM11bQ0BASF0xW0NIMl1OKFtDSDJdW0NASF0oTzEpW0NIM10pQyhbQ0gzXSkoW0NIM10pW0NIMl1bTkhdQyg9TylbTkhdYzJbY0hdW2NIXVtjSF1uW2NIXTI=

> <s_epik_cmdline>
J2VwaWtfcHl0aG9uJywgJy1waCcsICc3LjAnLCAnLXRuJywgJzgnLCAnLW1hJywgJzIwMCcsICctbWV0YWxfYmluZGluZycsICctaW1hZScsICc8aW5maWxlLm1hZT4nLCAnLW9tYWUnLCAnPG91dGZpbGUubWFlPic=

> <r_epik_Ionization_Penalty>
0.270794

> <r_epik_Ionization_Penalty_Charging>
0

> <r_epik_Ionization_Penalty_Neutral>
0.270794

> <r_epik_State_Penalty>
0.268291

> <r_epik_Charging_Adjusted_Penalty>
0.268291

> <i_epik_Tot_Q>
0

> <i_epik_Tot_abs_Q>
0

> <r_epik_Metal_State_Penalty>
0.264827

> <b_epik_Metal_Only>
0

> <s_lp_Force_Field>
OPLS_2005

> <r_lp_Energy>
46.6988

> <b_lp_Chiralities_Consistent>
1

> <s_lp_Variant>
AV-unprocessed.smi:1543-1

> <Gold.Version>
5.8.1

> <Gold.Id.Protein>
6NUR|6NUR_protein|mol2

> <Gold.PLP.Fitness>
42.1193

> <Gold.PLP.PLP>
-33.7610

> <Gold.PLP.part.hbond>
-3.0000

> <Gold.PLP.part.metal>
0.0000

> <Gold.PLP.part.buried>
-5.8810

> <Gold.PLP.part.nonpolar>
-25.6957

> <Gold.PLP.part.repulsive>
0.4066

> <Gold.PLP.ligand.clash>
0.0000

> <Gold.PLP.ligand.torsion>
0.3401

> <Gold.PLP.Chemscore.Hbond>
2.0000

> <Gold.PLP.Chemscore.CHOScore>
0.9924

> <Gold.PLP.Chemscore.Metal>
0.0000

> <Gold.Chemscore.Hbonds>
donor molecule, donor type, donor heavy atom, donor atom, acceptor molecule, acceptor atom, score
      L1  H     9    37       P1  8028  1.00
      L1  H    12    38       P1  8028  1.00
      L1  C    18    42       P1  8029  0.84

> <Gold.PLP.Chemscore.Internal.Correction>
0.0612

> <Gold.Rescore>
     Score         DG    S(hbond)    S(metal)    S(lipo)     H(rot)  DE(clash)    DE(int)     intcor
     17.07     -18.72       1.95        0.00      88.63       1.43       0.04       1.61       ----

> <Gold.Chemscore.Fitness>
17.0692

> <Gold.Chemscore.DG>
-18.7177

> <Gold.Chemscore.ZeroCoef>
-5.4800

> <Gold.Chemscore.Hbond>
1.9542

> <Gold.Chemscore.Metal>
0.0000

> <Gold.Chemscore.Lipo>
88.6276

> <Gold.Chemscore.Internal_Hbond>
0.0000

> <Gold.Chemscore.DEClash>
0.0429

> <Gold.Chemscore.DEInternal>
1.6057

> <Gold.Chemscore.Rot>
1.4291

> <Gold.Chemscore.Internal.Correction>
   9.000000E+99

> <Gold.Chemscore.Hbonds>
donor molecule, donor type, donor heavy atom, donor atom, acceptor molecule, acceptor atom, score
      L1  H     9    37       P1  8028  0.97
      L1  H    12    38       P1  8028  0.88

> <Gold.Chemscore.Hbond.Weighted>
-6.5269

> <Gold.Chemscore.Metal.Weighted>
-0.0000

> <Gold.Chemscore.Lipo.Weighted>
-10.3694

> <Gold.Chemscore.Internal_Hbond.Weighted>
0.0000

> <Gold.Chemscore.DEClash.Weighted>
0.0429

> <Gold.Chemscore.DEInternal.Weighted>
1.6057

> <Gold.Chemscore.Rot.Weighted>
3.6586

> <Gold.Chemscore.Internal.Correction.Weighted>
   9.000000E+99

> <Gold.Protein.RotatedTorsions>
[ 6907 6896 6895 6894 ] final  132.97 input  -60.11 | X-H torsion
[ 7974 7965 7964 7962 ] final    1.23 input  175.53 | X-H torsion
[ 8008 7997 7996 7995 ] final  171.91 input   59.86 | X-H torsion
[ 10167 10162 10161 10158 ] final  -43.38 input  -65.29 | X-H torsion
[ 10718 10713 10712 10709 ] final -151.35 input   66.30 | X-H torsion
[ 10763 10752 10751 10750 ] final -101.42 input  -60.55 | X-H torsion
[ 11005 11000 10999 10996 ] final  -37.09 input  -57.11 | X-H torsion

> <Gold.Protein.ActiveResidues>
 VAL166  LYS551  ARG553  GLY616  TRP617  ASP618  TYR619  PRO620  LYS621  CYS622 
 ASP623  PHE694  ASN695  SER759  ASP760  ASP761  ALA762  ILE779  LEU786  VAL792 
 PHE793  MET794  SER795  GLU796  ALA797  LYS798  CYS799  TRP800  GLU811  SER814 

> <Gold.Protein.RotatedAtoms>
  152.3269  133.5915  159.5782 H   0  0  0  0  0  0  0  0  0  0  0  0  # atno 6907 bound_to 6896
  150.7401  133.9927  159.3621 H   0  0  0  0  0  0  0  0  0  0  0  0  # atno 6908 bound_to 6896
  151.7806  135.0763  160.0424 H   0  0  0  0  0  0  0  0  0  0  0  0  # atno 6909 bound_to 6896
  146.2439  140.1018  142.8347 H   0  0  0  0  0  0  0  0  0  0  0  0  # atno 7974 bound_to 7965
  156.1225  140.1499  156.9183 H   0  0  0  0  0  0  0  0  0  0  0  0  # atno 8008 bound_to 7997
  154.4847  140.0869  156.7500 H   0  0  0  0  0  0  0  0  0  0  0  0  # atno 8009 bound_to 7997
  155.4402  140.3430  155.4291 H   0  0  0  0  0  0  0  0  0  0  0  0  # atno 8010 bound_to 7997
  140.6936  143.2986  151.3344 H   0  0  0  0  0  0  0  0  0  0  0  0  # atno 10167 bound_to 10162
  156.4581  130.8200  151.2431 H   0  0  0  0  0  0  0  0  0  0  0  0  # atno 10718 bound_to 10713
  154.7656  135.4898  153.9548 H   0  0  0  0  0  0  0  0  0  0  0  0  # atno 10763 bound_to 10752
  153.1304  135.6751  153.9195 H   0  0  0  0  0  0  0  0  0  0  0  0  # atno 10764 bound_to 10752
  153.8900  135.3122  155.3426 H   0  0  0  0  0  0  0  0  0  0  0  0  # atno 10765 bound_to 10752
  140.9925  133.6997  156.1876 H   0  0  0  0  0  0  0  0  0  0  0  0  # atno 11005 bound_to 11000
  145.0562  140.9054  143.4966 LP  0  0  0  0  0  0  0  0  0  0  0  0  # atno 17320 bound_to 7965
  145.1124  139.2748  143.5630 LP  0  0  0  0  0  0  0  0  0  0  0  0  # atno 17321 bound_to 7965
  139.6365  144.0621  152.2520 LP  0  0  0  0  0  0  0  0  0  0  0  0  # atno 17342 bound_to 10162
  140.0112  144.6222  150.7645 LP  0  0  0  0  0  0  0  0  0  0  0  0  # atno 17343 bound_to 10162
  157.7499  131.0116  150.3351 LP  0  0  0  0  0  0  0  0  0  0  0  0  # atno 17370 bound_to 10713
  156.3745  130.3869  149.7150 LP  0  0  0  0  0  0  0  0  0  0  0  0  # atno 17371 bound_to 10713
  140.7017  134.4557  157.5586 LP  0  0  0  0  0  0  0  0  0  0  0  0  # atno 17394 bound_to 11000
  139.8999  134.8580  156.1941 LP  0  0  0  0  0  0  0  0  0  0  0  0  # atno 17395 bound_to 11000

$$$$
