AV-unprocessed.smi:2706|AV-procd|sdf|10445|dock2
  -GOLD-   2272014483D 1   1.00000     0.00000
 Structure written by MMmdl.
 43 46  0  0  0  0  0  0  0  0  1 V2000
  154.5737  143.8771  166.1944 C   0  0  0  0  0  0  0  0  0  0  0  0
  154.8820  142.5702  166.7668 N   0  0  0  0  0  0  0  0  0  0  0  0
  154.8749  142.3901  168.2130 C   0  0  0  0  0  0  0  0  0  0  0  0
  155.1007  141.4651  165.9133 C   0  0  0  0  0  0  0  0  0  0  0  0
  155.5029  140.2052  166.4180 C   0  0  0  0  0  0  0  0  0  0  0  0
  155.7003  139.1432  165.5174 C   0  0  0  0  0  0  0  0  0  0  0  0
  155.4938  139.3651  164.1442 C   0  0  0  0  0  0  0  0  0  0  0  0
  155.0970  140.6460  163.7063 C   0  0  0  0  0  0  0  0  0  0  0  0
  154.9115  140.7777  162.3043 N   0  0  0  0  0  0  0  0  0  0  0  0
  154.0146  141.5410  161.6545 C   0  0  0  0  0  0  0  0  0  0  0  0
  153.1969  142.2902  162.1903 O   0  0  0  0  0  0  0  0  0  0  0  0
  154.1207  141.3881  160.3274 N   0  0  0  0  0  0  0  0  0  0  0  0
  153.3263  142.0597  159.3505 C   0  0  2  0  0  0  0  0  0  0  0  0
  152.9484  143.5047  159.6363 C   0  0  1  0  0  0  0  0  0  0  0  0
  152.3469  144.4838  158.6323 C   0  0  2  0  0  0  0  0  0  0  0  0
  151.1872  145.2239  159.3303 C   0  0  0  0  0  0  0  0  0  0  0  0
  150.1106  144.1175  159.4528 C   0  0  0  0  0  0  0  0  0  0  0  0
  150.8057  142.9020  158.8047 C   0  0  1  0  0  0  0  0  0  0  0  0
  151.5554  143.5986  157.6683 C   0  0  0  0  0  0  0  0  0  0  0  0
  151.9068  142.4332  159.7514 C   0  0  1  0  0  0  0  0  0  0  0  0
  154.9095  141.6594  164.5859 N   0  0  0  0  0  0  0  0  0  0  0  0
  155.3807  144.2103  165.5411 H   0  0  0  0  0  0  0  0  0  0  0  0
  154.4418  144.6313  166.9703 H   0  0  0  0  0  0  0  0  0  0  0  0
  153.6534  143.8316  165.6117 H   0  0  0  0  0  0  0  0  0  0  0  0
  155.8527  142.0558  168.5610 H   0  0  0  0  0  0  0  0  0  0  0  0
  154.1271  141.6522  168.5055 H   0  0  0  0  0  0  0  0  0  0  0  0
  154.6392  143.3218  168.7272 H   0  0  0  0  0  0  0  0  0  0  0  0
  155.6625  140.0329  167.4716 H   0  0  0  0  0  0  0  0  0  0  0  0
  156.0059  138.1710  165.8753 H   0  0  0  0  0  0  0  0  0  0  0  0
  155.6412  138.5593  163.4398 H   0  0  0  0  0  0  0  0  0  0  0  0
  155.5295  140.2234  161.7307 H   0  0  0  0  0  0  0  0  0  0  0  0
  154.8206  140.7500  159.9784 H   0  0  0  0  0  0  0  0  0  0  0  0
  153.4949  141.7777  158.3135 H   0  0  0  0  0  0  0  0  0  0  0  0
  153.3251  143.9457  160.5578 H   0  0  0  0  0  0  0  0  0  0  0  0
  153.0939  145.1302  158.1714 H   0  0  0  0  0  0  0  0  0  0  0  0
  151.4795  145.6301  160.2996 H   0  0  0  0  0  0  0  0  0  0  0  0
  150.8239  146.0490  158.7164 H   0  0  0  0  0  0  0  0  0  0  0  0
  149.8257  143.9273  160.4884 H   0  0  0  0  0  0  0  0  0  0  0  0
  149.2098  144.3931  158.9027 H   0  0  0  0  0  0  0  0  0  0  0  0
  150.1359  142.0968  158.5025 H   0  0  0  0  0  0  0  0  0  0  0  0
  150.9031  144.1609  156.9970 H   0  0  0  0  0  0  0  0  0  0  0  0
  152.1691  142.9341  157.0611 H   0  0  0  0  0  0  0  0  0  0  0  0
  151.5802  142.1499  160.7506 H   0  0  0  0  0  0  0  0  0  0  0  0
  1  2  1  0  0  0  0
  1 22  1  0  0  0  0
  1 23  1  0  0  0  0
  1 24  1  0  0  0  0
  2  3  1  0  0  0  0
  2  4  1  0  0  0  0
  3 25  1  0  0  0  0
  3 26  1  0  0  0  0
  3 27  1  0  0  0  0
  4 21  1  0  0  0  0
  4  5  2  0  0  0  0
  5  6  1  0  0  0  0
  5 28  1  0  0  0  0
  6  7  2  0  0  0  0
  6 29  1  0  0  0  0
  7  8  1  0  0  0  0
  7 30  1  0  0  0  0
  8  9  1  0  0  0  0
  8 21  2  0  0  0  0
  9 10  1  0  0  0  0
  9 31  1  0  0  0  0
 10 11  2  0  0  0  0
 10 12  1  0  0  0  0
 12 13  1  0  0  0  0
 12 32  1  0  0  0  0
 13 20  1  0  0  0  0
 13 14  1  0  0  0  0
 13 33  1  0  0  0  0
 14 20  1  0  0  0  0
 14 15  1  0  0  0  0
 14 34  1  0  0  0  0
 15 19  1  0  0  0  0
 15 16  1  0  0  0  0
 15 35  1  0  0  0  0
 16 17  1  0  0  0  0
 16 36  1  0  0  0  0
 16 37  1  0  0  0  0
 17 18  1  0  0  0  0
 17 38  1  0  0  0  0
 17 39  1  0  0  0  0
 18 19  1  0  0  0  0
 18 20  1  0  0  0  0
 18 40  1  0  0  0  0
 19 41  1  0  0  0  0
 19 42  1  0  0  0  0
 20 43  1  0  0  0  0
M  END
> <s_m_source_file>
AV-unprocessed.smi

> <i_m_source_file_index>
2706

> <i_lp_mmshare_version>
43012

> <i_f3d_flags>
0

> <s_epik_input>
W0NIM11OKFtDSDNdKWMxW2NIXVtjSF1bY0hdYyhuMSlbTkhdQyg9TylbTkhdW0NASF0yW0NAQEhdM1tDQEBIXShbQ0gyXTQpW0NIMl1bQ0gyXVtDQEBIXTRbQ0BIXTIz

> <s_epik_cmdline>
J2VwaWtfcHl0aG9uJywgJy1waCcsICc3LjAnLCAnLXRuJywgJzgnLCAnLW1hJywgJzIwMCcsICctbWV0YWxfYmluZGluZycsICctaW1hZScsICc8aW5maWxlLm1hZT4nLCAnLW9tYWUnLCAnPG91dGZpbGUubWFlPic=

> <r_lp_tautomer_probability>
1

> <r_epik_Ionization_Penalty>
0.0296788

> <r_epik_Ionization_Penalty_Charging>
0

> <r_epik_Ionization_Penalty_Neutral>
0.0296788

> <r_epik_State_Penalty>
0.0248512

> <r_epik_Charging_Adjusted_Penalty>
0.0248512

> <i_epik_Tot_Q>
0

> <i_epik_Tot_abs_Q>
0

> <r_epik_Metal_State_Penalty>
0.0237882

> <b_epik_Metal_Only>
0

> <s_lp_Force_Field>
OPLS_2005

> <r_lp_Energy>
77.4142

> <b_lp_Chiralities_Consistent>
1

> <s_lp_Variant>
AV-unprocessed.smi:2706-2

> <Gold.Version>
5.8.1

> <Gold.Id.Protein>
6NUR|6NUR_protein|mol2

> <Gold.PLP.Fitness>
48.8310

> <Gold.PLP.PLP>
-50.0166

> <Gold.PLP.part.hbond>
-1.8944

> <Gold.PLP.part.metal>
0.0000

> <Gold.PLP.part.buried>
-4.6653

> <Gold.PLP.part.nonpolar>
-42.7533

> <Gold.PLP.part.repulsive>
0.0924

> <Gold.PLP.ligand.clash>
0.0000

> <Gold.PLP.ligand.torsion>
0.6087

> <Gold.PLP.Chemscore.Hbond>
0.0000

> <Gold.PLP.Chemscore.CHOScore>
0.0000

> <Gold.PLP.Chemscore.Metal>
0.0000

> <Gold.PLP.Chemscore.Internal.Correction>
0.0319

> <Gold.Rescore>
     Score         DG    S(hbond)    S(metal)    S(lipo)     H(rot)  DE(clash)    DE(int)     intcor
     10.72     -17.54       0.00        0.00     124.99       1.00       2.55       4.28       ----

> <Gold.Chemscore.Fitness>
10.7160

> <Gold.Chemscore.DG>
-17.5433

> <Gold.Chemscore.ZeroCoef>
-5.4800

> <Gold.Chemscore.Hbond>
0.0000

> <Gold.Chemscore.Metal>
0.0000

> <Gold.Chemscore.Lipo>
124.9856

> <Gold.Chemscore.Internal_Hbond>
0.0000

> <Gold.Chemscore.DEClash>
2.5471

> <Gold.Chemscore.DEInternal>
4.2801

> <Gold.Chemscore.Rot>
1.0000

> <Gold.Chemscore.Internal.Correction>
   9.000000E+99

> <Gold.Chemscore.Hbond.Weighted>
-0.0000

> <Gold.Chemscore.Metal.Weighted>
-0.0000

> <Gold.Chemscore.Lipo.Weighted>
-14.6233

> <Gold.Chemscore.Internal_Hbond.Weighted>
0.0000

> <Gold.Chemscore.DEClash.Weighted>
2.5471

> <Gold.Chemscore.DEInternal.Weighted>
4.2801

> <Gold.Chemscore.Rot.Weighted>
2.5600

> <Gold.Chemscore.Internal.Correction.Weighted>
   9.000000E+99

> <Gold.Protein.RotatedTorsions>
[ 6907 6896 6895 6894 ] final  -51.82 input  -60.11 | X-H torsion
[ 7974 7965 7964 7962 ] final -118.59 input  175.53 | X-H torsion
[ 8008 7997 7996 7995 ] final  126.92 input   59.86 | X-H torsion
[ 10167 10162 10161 10158 ] final   69.64 input  -65.29 | X-H torsion
[ 10718 10713 10712 10709 ] final  -35.95 input   66.30 | X-H torsion
[ 10763 10752 10751 10750 ] final  145.44 input  -60.55 | X-H torsion
[ 11005 11000 10999 10996 ] final   29.87 input  -57.11 | X-H torsion

> <Gold.Protein.ActiveResidues>
 VAL166  LYS551  ARG553  GLY616  TRP617  ASP618  TYR619  PRO620  LYS621  CYS622 
 ASP623  PHE694  ASN695  SER759  ASP760  ASP761  ALA762  ILE779  LEU786  VAL792 
 PHE793  MET794  SER795  GLU796  ALA797  LYS798  CYS799  TRP800  GLU811  SER814 

> <Gold.Protein.RotatedAtoms>
  150.8575  134.7918  159.7056 H   0  0  0  0  0  0  0  0  0  0  0  0  # atno 6907 bound_to 6896
  152.4622  134.5154  159.9776 H   0  0  0  0  0  0  0  0  0  0  0  0  # atno 6908 bound_to 6896
  151.5264  133.3419  159.2946 H   0  0  0  0  0  0  0  0  0  0  0  0  # atno 6909 bound_to 6896
  145.0720  140.8366  143.4090 H   0  0  0  0  0  0  0  0  0  0  0  0  # atno 7974 bound_to 7965
  156.2877  140.2681  156.2189 H   0  0  0  0  0  0  0  0  0  0  0  0  # atno 8008 bound_to 7997
  155.0188  140.0386  157.2447 H   0  0  0  0  0  0  0  0  0  0  0  0  # atno 8009 bound_to 7997
  154.7454  140.2733  155.6343 H   0  0  0  0  0  0  0  0  0  0  0  0  # atno 8010 bound_to 7997
  140.0656  144.5196  150.7263 H   0  0  0  0  0  0  0  0  0  0  0  0  # atno 10167 bound_to 10162
  156.3326  130.4281  149.7858 H   0  0  0  0  0  0  0  0  0  0  0  0  # atno 10718 bound_to 10713
  154.0055  135.2919  155.3398 H   0  0  0  0  0  0  0  0  0  0  0  0  # atno 10763 bound_to 10752
  154.7134  135.5140  153.8704 H   0  0  0  0  0  0  0  0  0  0  0  0  # atno 10764 bound_to 10752
  153.0747  135.6659  154.0292 H   0  0  0  0  0  0  0  0  0  0  0  0  # atno 10765 bound_to 10752
  140.3004  134.2763  155.7755 H   0  0  0  0  0  0  0  0  0  0  0  0  # atno 11005 bound_to 11000
  145.1281  139.2650  143.5554 LP  0  0  0  0  0  0  0  0  0  0  0  0  # atno 17320 bound_to 7965
  146.3529  140.0923  142.8612 LP  0  0  0  0  0  0  0  0  0  0  0  0  # atno 17321 bound_to 7965
  140.7151  143.2537  151.4460 LP  0  0  0  0  0  0  0  0  0  0  0  0  # atno 17342 bound_to 10162
  139.5867  144.1589  152.2038 LP  0  0  0  0  0  0  0  0  0  0  0  0  # atno 17343 bound_to 10162
  156.5125  130.8178  151.3174 LP  0  0  0  0  0  0  0  0  0  0  0  0  # atno 17370 bound_to 10713
  157.7433  130.9909  150.2582 LP  0  0  0  0  0  0  0  0  0  0  0  0  # atno 17371 bound_to 10713
  141.2129  133.7642  156.9758 LP  0  0  0  0  0  0  0  0  0  0  0  0  # atno 17394 bound_to 11000
  140.1114  134.9474  157.2071 LP  0  0  0  0  0  0  0  0  0  0  0  0  # atno 17395 bound_to 11000

$$$$
