AV-unprocessed.smi:1506|AV-procd|sdf|6078|dock9
  -GOLD-   22720 6203D 1   1.00000     0.00000
 Structure written by MMmdl.
 40 42  0  0  0  0  0  0  0  0  2 V2000
  153.4373  142.7560  162.4503 C   0  0  0  0  0  0  0  0  0  0  0  0
  152.7291  143.3215  161.2364 C   0  0  0  0  0  0  0  0  0  0  0  0
  152.2176  144.6339  161.2581 C   0  0  0  0  0  0  0  0  0  0  0  0
  151.5607  145.1501  160.1260 C   0  0  0  0  0  0  0  0  0  0  0  0
  151.4109  144.3584  158.9710 C   0  0  0  0  0  0  0  0  0  0  0  0
  151.9184  143.0349  158.9380 C   0  0  0  0  0  0  0  0  0  0  0  0
  151.8135  142.1909  157.8529 O   0  0  0  0  0  0  0  0  0  0  0  0
  152.7850  141.1640  157.7026 C   0  0  0  0  0  0  0  0  0  0  0  0
  152.2411  140.0954  156.7429 C   0  0  2  0  0  0  0  0  0  0  0  0
  153.2576  139.1378  156.5212 O   0  0  0  0  0  0  0  0  0  0  0  0
  151.7735  140.6976  155.4022 C   0  0  0  0  0  0  0  0  0  0  0  0
  150.9203  139.7838  154.6289 N   0  0  0  0  0  0  0  0  0  0  0  0
  151.1916  138.5389  154.1513 C   0  0  0  0  0  0  0  0  0  0  0  0
  150.0787  138.0946  153.5038 N   0  3  0  0  0  0  0  0  0  0  0  0
  149.0819  139.0706  153.5660 C   0  0  0  0  0  0  0  0  0  0  0  0
  147.7860  139.0827  153.0590 C   0  0  0  0  0  0  0  0  0  0  0  0
  147.0240  140.2456  153.2963 C   0  0  0  0  0  0  0  0  0  0  0  0
  147.5550  141.3380  154.0125 C   0  0  0  0  0  0  0  0  0  0  0  0
  148.8693  141.3139  154.5238 C   0  0  0  0  0  0  0  0  0  0  0  0
  149.6163  140.1603  154.2861 C   0  0  0  0  0  0  0  0  0  0  0  0
  152.5761  142.5308  160.0792 C   0  0  0  0  0  0  0  0  0  0  0  0
  153.6997  143.5432  163.1579 H   0  0  0  0  0  0  0  0  0  0  0  0
  154.3553  142.2475  162.1546 H   0  0  0  0  0  0  0  0  0  0  0  0
  152.7948  142.0378  162.9601 H   0  0  0  0  0  0  0  0  0  0  0  0
  152.3265  145.2483  162.1399 H   0  0  0  0  0  0  0  0  0  0  0  0
  151.1698  146.1567  160.1429 H   0  0  0  0  0  0  0  0  0  0  0  0
  150.9017  144.7913  158.1236 H   0  0  0  0  0  0  0  0  0  0  0  0
  153.7220  141.5681  157.3152 H   0  0  0  0  0  0  0  0  0  0  0  0
  152.9868  140.7160  158.6774 H   0  0  0  0  0  0  0  0  0  0  0  0
  151.4065  139.5793  157.2193 H   0  0  0  0  0  0  0  0  0  0  0  0
  152.9015  138.4400  155.9923 H   0  0  0  0  0  0  0  0  0  0  0  0
  151.1889  141.6000  155.5853 H   0  0  0  0  0  0  0  0  0  0  0  0
  152.6206  141.0052  154.7887 H   0  0  0  0  0  0  0  0  0  0  0  0
  152.1209  138.0000  154.2673 H   0  0  0  0  0  0  0  0  0  0  0  0
  147.3771  138.2479  152.5089 H   0  0  0  0  0  0  0  0  0  0  0  0
  146.0130  140.3018  152.9199 H   0  0  0  0  0  0  0  0  0  0  0  0
  146.9425  142.2135  154.1721 H   0  0  0  0  0  0  0  0  0  0  0  0
  149.2676  142.1591  155.0653 H   0  0  0  0  0  0  0  0  0  0  0  0
  152.9675  141.5239  160.0648 H   0  0  0  0  0  0  0  0  0  0  0  0
  150.0074  137.1909  153.0539 H   0  0  0  0  0  0  0  0  0  0  0  0
  1  2  1  0  0  0  0
  1 22  1  0  0  0  0
  1 23  1  0  0  0  0
  1 24  1  0  0  0  0
  2 21  1  0  0  0  0
  2  3  2  0  0  0  0
  3  4  1  0  0  0  0
  3 25  1  0  0  0  0
  4  5  2  0  0  0  0
  4 26  1  0  0  0  0
  5  6  1  0  0  0  0
  5 27  1  0  0  0  0
  6  7  1  0  0  0  0
  6 21  2  0  0  0  0
  7  8  1  0  0  0  0
  8  9  1  0  0  0  0
  8 28  1  0  0  0  0
  8 29  1  0  0  0  0
  9 10  1  0  0  0  0
  9 11  1  0  0  0  0
  9 30  1  0  0  0  0
 10 31  1  0  0  0  0
 11 12  1  0  0  0  0
 11 32  1  0  0  0  0
 11 33  1  0  0  0  0
 12 20  1  0  0  0  0
 12 13  1  0  0  0  0
 13 14  2  0  0  0  0
 13 34  1  0  0  0  0
 14 15  1  0  0  0  0
 14 40  1  0  0  0  0
 15 20  2  0  0  0  0
 15 16  1  0  0  0  0
 16 17  2  0  0  0  0
 16 35  1  0  0  0  0
 17 18  1  0  0  0  0
 17 36  1  0  0  0  0
 18 19  2  0  0  0  0
 18 37  1  0  0  0  0
 19 20  1  0  0  0  0
 19 38  1  0  0  0  0
 21 39  1  0  0  0  0
M  CHG  1  14   1
M  END
> <s_m_source_file>
AV-unprocessed.smi

> <i_m_source_file_index>
1506

> <i_lp_mmshare_version>
43012

> <i_f3d_flags>
0

> <s_epik_input>
W0NIM11jMVtjSF1bY0hdW2NIXWMoW2NIXTEpT1tDSDJdW0NASF0oW09IXSlbQ0gyXW4oW2NIXW4yKWMoYzIzKVtjSF1bY0hdW2NIXVtjSF0z

> <s_epik_cmdline>
J2VwaWtfcHl0aG9uJywgJy1waCcsICc3LjAnLCAnLXRuJywgJzgnLCAnLW1hJywgJzIwMCcsICctbWV0YWxfYmluZGluZycsICctaW1hZScsICc8aW5maWxlLm1hZT4nLCAnLW9tYWUnLCAnPG91dGZpbGUubWFlPic=

> <r_lp_tautomer_probability>
1

> <r_epik_Ionization_Penalty>
1.37864

> <r_epik_Ionization_Penalty_Charging>
1.37864

> <r_epik_Ionization_Penalty_Neutral>
2.3993e-06

> <r_epik_State_Penalty>
1.45896

> <r_epik_Charging_Adjusted_Penalty>
2.8376

> <i_epik_Tot_Q>
1

> <i_epik_Tot_abs_Q>
1

> <r_epik_Metal_State_Penalty>
5.49899

> <b_epik_Metal_Only>
0

> <s_lp_Force_Field>
OPLS_2005

> <r_lp_Energy>
20.022

> <b_lp_Chiralities_Consistent>
1

> <s_lp_Variant>
AV-unprocessed.smi:1506-3

> <Gold.Version>
5.8.1

> <Gold.Id.Protein>
6NUR|6NUR_protein|mol2

> <Gold.PLP.Fitness>
57.7775

> <Gold.PLP.PLP>
-50.3282

> <Gold.PLP.part.hbond>
-2.2460

> <Gold.PLP.part.metal>
0.0000

> <Gold.PLP.part.buried>
1.9081

> <Gold.PLP.part.nonpolar>
-47.9961

> <Gold.PLP.part.repulsive>
0.0734

> <Gold.PLP.ligand.clash>
0.0158

> <Gold.PLP.ligand.torsion>
0.5713

> <Gold.PLP.Chemscore.Hbond>
2.8615

> <Gold.PLP.Chemscore.CHOScore>
0.0000

> <Gold.PLP.Chemscore.Metal>
0.0000

> <Gold.Chemscore.Hbonds>
donor molecule, donor type, donor heavy atom, donor atom, acceptor molecule, acceptor atom, score
      L1  H    14    40       P1  7948  1.47
      P1  H  7997  8009       L1    10  0.68

> <Gold.PLP.Chemscore.Internal.Correction>
0.0232

> <Gold.Rescore>
     Score         DG    S(hbond)    S(metal)    S(lipo)     H(rot)  DE(clash)    DE(int)     intcor
     18.81     -21.04       1.71        0.00     133.97       2.27       1.65       0.58       ----

> <Gold.Chemscore.Fitness>
18.8081

> <Gold.Chemscore.DG>
-21.0428

> <Gold.Chemscore.ZeroCoef>
-5.4800

> <Gold.Chemscore.Hbond>
1.7081

> <Gold.Chemscore.Metal>
0.0000

> <Gold.Chemscore.Lipo>
133.9715

> <Gold.Chemscore.Internal_Hbond>
0.0000

> <Gold.Chemscore.DEClash>
1.6499

> <Gold.Chemscore.DEInternal>
0.5847

> <Gold.Chemscore.Rot>
2.2723

> <Gold.Chemscore.Internal.Correction>
   9.000000E+99

> <Gold.Chemscore.Hbonds>
donor molecule, donor type, donor heavy atom, donor atom, acceptor molecule, acceptor atom, score
      L1  H    14    40       P1  7948  0.12
      P1  H  7997  8009       L1    10  0.11

> <Gold.Chemscore.Hbond.Weighted>
-5.7052

> <Gold.Chemscore.Metal.Weighted>
-0.0000

> <Gold.Chemscore.Lipo.Weighted>
-15.6747

> <Gold.Chemscore.Internal_Hbond.Weighted>
0.0000

> <Gold.Chemscore.DEClash.Weighted>
1.6499

> <Gold.Chemscore.DEInternal.Weighted>
0.5847

> <Gold.Chemscore.Rot.Weighted>
5.8170

> <Gold.Chemscore.Internal.Correction.Weighted>
   9.000000E+99

> <Gold.Protein.RotatedTorsions>
[ 6907 6896 6895 6894 ] final -103.17 input  -60.11 | X-H torsion
[ 7974 7965 7964 7962 ] final   43.22 input  175.53 | X-H torsion
[ 8008 7997 7996 7995 ] final -177.53 input   59.86 | X-H torsion
[ 10167 10162 10161 10158 ] final  117.74 input  -65.29 | X-H torsion
[ 10718 10713 10712 10709 ] final  129.16 input   66.30 | X-H torsion
[ 10763 10752 10751 10750 ] final  131.71 input  -60.55 | X-H torsion
[ 11005 11000 10999 10996 ] final   12.62 input  -57.11 | X-H torsion

> <Gold.Protein.ActiveResidues>
 VAL166  LYS551  ARG553  GLY616  TRP617  ASP618  TYR619  PRO620  LYS621  CYS622 
 ASP623  PHE694  ASN695  SER759  ASP760  ASP761  ALA762  ILE779  LEU786  VAL792 
 PHE793  MET794  SER795  GLU796  ALA797  LYS798  CYS799  TRP800  GLU811  SER814 

> <Gold.Protein.RotatedAtoms>
  150.7228  134.0470  159.3784 H   0  0  0  0  0  0  0  0  0  0  0  0  # atno 6907 bound_to 6896
  151.8446  135.0576  160.0461 H   0  0  0  0  0  0  0  0  0  0  0  0  # atno 6908 bound_to 6896
  152.2837  133.5458  159.5550 H   0  0  0  0  0  0  0  0  0  0  0  0  # atno 6909 bound_to 6896
  146.0673  139.5211  142.9620 H   0  0  0  0  0  0  0  0  0  0  0  0  # atno 7974 bound_to 7965
  156.0081  140.1234  157.0481 H   0  0  0  0  0  0  0  0  0  0  0  0  # atno 8008 bound_to 7997
  154.4266  140.1093  156.5860 H   0  0  0  0  0  0  0  0  0  0  0  0  # atno 8009 bound_to 7997
  155.6119  140.3471  155.4627 H   0  0  0  0  0  0  0  0  0  0  0  0  # atno 8010 bound_to 7997
  139.6158  144.7091  151.2743 H   0  0  0  0  0  0  0  0  0  0  0  0  # atno 10167 bound_to 10162
  157.5180  131.1098  150.9196 H   0  0  0  0  0  0  0  0  0  0  0  0  # atno 10718 bound_to 10713
  153.7788  135.3171  155.3363 H   0  0  0  0  0  0  0  0  0  0  0  0  # atno 10763 bound_to 10752
  154.8169  135.4630  154.0672 H   0  0  0  0  0  0  0  0  0  0  0  0  # atno 10764 bound_to 10752
  153.1954  135.6914  153.8384 H   0  0  0  0  0  0  0  0  0  0  0  0  # atno 10765 bound_to 10752
  140.4899  134.0850  155.7769 H   0  0  0  0  0  0  0  0  0  0  0  0  # atno 11005 bound_to 11000
  145.6453  141.0275  143.1789 LP  0  0  0  0  0  0  0  0  0  0  0  0  # atno 17320 bound_to 7965
  144.7210  139.8030  143.7382 LP  0  0  0  0  0  0  0  0  0  0  0  0  # atno 17321 bound_to 7965
  140.7350  143.6750  150.8049 LP  0  0  0  0  0  0  0  0  0  0  0  0  # atno 17342 bound_to 10162
  140.0352  143.5402  152.2742 LP  0  0  0  0  0  0  0  0  0  0  0  0  # atno 17343 bound_to 10162
  156.9816  130.5529  149.5297 LP  0  0  0  0  0  0  0  0  0  0  0  0  # atno 17370 bound_to 10713
  156.0333  130.5423  150.8590 LP  0  0  0  0  0  0  0  0  0  0  0  0  # atno 17371 bound_to 10713
  141.1489  133.9005  157.2147 LP  0  0  0  0  0  0  0  0  0  0  0  0  # atno 17394 bound_to 11000
  139.9775  135.0109  156.9668 LP  0  0  0  0  0  0  0  0  0  0  0  0  # atno 17395 bound_to 11000

$$$$
