AV-unprocessed.smi:3225|AV-procd|sdf|12312|dock4
  -GOLD-   2272018153D 1   1.00000     0.00000
 Structure written by MMmdl.
 41 42  0  0  0  0  0  0  0  0  2 V2000
  145.7914  136.1052  150.7131 C   0  0  0  0  0  0  0  0  0  0  0  0
  145.6968  135.5006  152.1235 C   0  0  1  0  0  0  0  0  0  0  0  0
  146.0562  134.0011  152.1604 C   0  0  0  0  0  0  0  0  0  0  0  0
  145.3549  133.2245  151.1537 N   0  0  0  0  0  0  0  0  0  0  0  0
  145.8748  132.3302  150.2413 C   0  0  0  0  0  0  0  0  0  0  0  0
  144.8298  131.8439  149.5093 C   0  0  0  0  0  0  0  0  0  0  0  0
  143.6950  132.5029  150.0596 C   0  0  0  0  0  0  0  0  0  0  0  0
  144.0127  133.3272  151.0451 N   0  0  0  0  0  0  0  0  0  0  0  0
  146.5752  136.2482  153.0496 N   0  3  0  0  0  0  0  0  0  0  0  0
  146.3419  137.7059  153.0810 C   0  0  0  0  0  0  0  0  0  0  0  0
  147.6217  138.4627  153.4574 C   0  0  0  0  0  0  0  0  0  0  0  0
  147.4240  139.9879  153.4391 C   0  0  0  0  0  0  0  0  0  0  0  0
  148.1179  140.6363  154.5490 N   0  0  0  0  0  0  0  0  0  0  0  0
  147.3830  141.4183  155.5295 C   0  0  0  0  0  0  0  0  0  0  0  0
  148.4113  141.7794  156.6120 C   0  0  0  0  0  0  0  0  0  0  0  0
  149.7790  141.3772  156.0491 C   0  0  0  0  0  0  0  0  0  0  0  0
  149.4313  140.5864  154.8001 C   0  0  0  0  0  0  0  0  0  0  0  0
  150.2744  139.9925  154.1293 O   0  0  0  0  0  0  0  0  0  0  0  0
  145.0973  135.6232  150.0239 H   0  0  0  0  0  0  0  0  0  0  0  0
  146.7958  135.9996  150.3021 H   0  0  0  0  0  0  0  0  0  0  0  0
  145.5462  137.1678  150.7256 H   0  0  0  0  0  0  0  0  0  0  0  0
  144.6622  135.6079  152.4546 H   0  0  0  0  0  0  0  0  0  0  0  0
  147.1288  133.8657  152.0128 H   0  0  0  0  0  0  0  0  0  0  0  0
  145.8211  133.5798  153.1390 H   0  0  0  0  0  0  0  0  0  0  0  0
  146.9325  132.1181  150.1868 H   0  0  0  0  0  0  0  0  0  0  0  0
  144.8696  131.1248  148.7045 H   0  0  0  0  0  0  0  0  0  0  0  0
  142.6575  132.4067  149.7752 H   0  0  0  0  0  0  0  0  0  0  0  0
  146.4391  135.8830  153.9815 H   0  0  0  0  0  0  0  0  0  0  0  0
  145.9901  138.0333  152.1017 H   0  0  0  0  0  0  0  0  0  0  0  0
  145.5529  137.9262  153.8017 H   0  0  0  0  0  0  0  0  0  0  0  0
  147.9498  138.1445  154.4480 H   0  0  0  0  0  0  0  0  0  0  0  0
  148.4215  138.1943  152.7654 H   0  0  0  0  0  0  0  0  0  0  0  0
  147.7879  140.3984  152.4964 H   0  0  0  0  0  0  0  0  0  0  0  0
  146.3613  140.2309  153.4882 H   0  0  0  0  0  0  0  0  0  0  0  0
  146.9832  142.3140  155.0522 H   0  0  0  0  0  0  0  0  0  0  0  0
  146.5492  140.8500  155.9438 H   0  0  0  0  0  0  0  0  0  0  0  0
  148.3740  142.8407  156.8601 H   0  0  0  0  0  0  0  0  0  0  0  0
  148.2061  141.2232  157.5275 H   0  0  0  0  0  0  0  0  0  0  0  0
  150.3713  142.2508  155.7753 H   0  0  0  0  0  0  0  0  0  0  0  0
  150.3509  140.7722  156.7533 H   0  0  0  0  0  0  0  0  0  0  0  0
  147.5346  136.0847  152.7793 H   0  0  0  0  0  0  0  0  0  0  0  0
  1  2  1  0  0  0  0
  1 19  1  0  0  0  0
  1 20  1  0  0  0  0
  1 21  1  0  0  0  0
  2  3  1  0  0  0  0
  2  9  1  0  0  0  0
  2 22  1  0  0  0  0
  3  4  1  0  0  0  0
  3 23  1  0  0  0  0
  3 24  1  0  0  0  0
  4  8  1  0  0  0  0
  4  5  1  0  0  0  0
  5  6  2  0  0  0  0
  5 25  1  0  0  0  0
  6  7  1  0  0  0  0
  6 26  1  0  0  0  0
  7  8  2  0  0  0  0
  7 27  1  0  0  0  0
  9 10  1  0  0  0  0
  9 28  1  0  0  0  0
  9 41  1  0  0  0  0
 10 11  1  0  0  0  0
 10 29  1  0  0  0  0
 10 30  1  0  0  0  0
 11 12  1  0  0  0  0
 11 31  1  0  0  0  0
 11 32  1  0  0  0  0
 12 13  1  0  0  0  0
 12 33  1  0  0  0  0
 12 34  1  0  0  0  0
 13 17  1  0  0  0  0
 13 14  1  0  0  0  0
 14 15  1  0  0  0  0
 14 35  1  0  0  0  0
 14 36  1  0  0  0  0
 15 16  1  0  0  0  0
 15 37  1  0  0  0  0
 15 38  1  0  0  0  0
 16 17  1  0  0  0  0
 16 39  1  0  0  0  0
 16 40  1  0  0  0  0
 17 18  2  0  0  0  0
M  CHG  1   9   1
M  END
> <s_m_source_file>
AV-unprocessed.smi

> <i_m_source_file_index>
3225

> <i_lp_mmshare_version>
43012

> <i_f3d_flags>
0

> <s_epik_input>
bjFbY0hdW2NIXVtjSF1uMVtDSDJdW0NAQEhdKFtDSDNdKVtOSF1bQ0gyXVtDSDJdW0NIMl1OMltDSDJdW0NIMl1bQ0gyXUMyPU8=

> <s_epik_cmdline>
J2VwaWtfcHl0aG9uJywgJy1waCcsICc3LjAnLCAnLXRuJywgJzgnLCAnLW1hJywgJzIwMCcsICctbWV0YWxfYmluZGluZycsICctaW1hZScsICc8aW5maWxlLm1hZT4nLCAnLW9tYWUnLCAnPG91dGZpbGUubWFlPic=

> <r_lp_tautomer_probability>
1

> <r_epik_Ionization_Penalty>
0.00490443

> <r_epik_Ionization_Penalty_Charging>
0.00490019

> <r_epik_Ionization_Penalty_Neutral>
4.24076e-06

> <r_epik_State_Penalty>
0.00355741

> <r_epik_Charging_Adjusted_Penalty>
0.0084576

> <i_epik_Tot_Q>
1

> <i_epik_Tot_abs_Q>
1

> <r_epik_Metal_State_Penalty>
-0

> <b_epik_Metal_Only>
0

> <s_lp_Force_Field>
OPLS_2005

> <r_lp_Energy>
22.636

> <b_lp_Chiralities_Consistent>
1

> <s_lp_Variant>
AV-unprocessed.smi:3225-2

> <Gold.Version>
5.8.1

> <Gold.Id.Protein>
6NUR|6NUR_protein|mol2

> <Gold.PLP.Fitness>
44.5139

> <Gold.PLP.PLP>
-29.0591

> <Gold.PLP.part.hbond>
-2.0000

> <Gold.PLP.part.metal>
0.0000

> <Gold.PLP.part.buried>
-2.1743

> <Gold.PLP.part.nonpolar>
-26.9948

> <Gold.PLP.part.repulsive>
1.1258

> <Gold.PLP.ligand.clash>
0.0000

> <Gold.PLP.ligand.torsion>
0.5784

> <Gold.PLP.Chemscore.Hbond>
3.0000

> <Gold.PLP.Chemscore.CHOScore>
2.5175

> <Gold.PLP.Chemscore.Metal>
0.0000

> <Gold.Chemscore.Hbonds>
donor molecule, donor type, donor heavy atom, donor atom, acceptor molecule, acceptor atom, score
      L1  H     9    41       P1  7948  2.00
      P1  H  7989  7998       L1    18  1.00
      L1  C     5    25       P1 10747  1.00
      L1  C     7    27       P1 10186  0.72
      L1  C     7    27       P1 10952  0.43

> <Gold.PLP.Chemscore.Internal.Correction>
0.0591

> <Gold.Rescore>
     Score         DG    S(hbond)    S(metal)    S(lipo)     H(rot)  DE(clash)    DE(int)     intcor
     14.96     -15.90       1.91        0.00      82.31       2.19       0.24       0.70       ----

> <Gold.Chemscore.Fitness>
14.9595

> <Gold.Chemscore.DG>
-15.9010

> <Gold.Chemscore.ZeroCoef>
-5.4800

> <Gold.Chemscore.Hbond>
1.9142

> <Gold.Chemscore.Metal>
0.0000

> <Gold.Chemscore.Lipo>
82.3065

> <Gold.Chemscore.Internal_Hbond>
0.0000

> <Gold.Chemscore.DEClash>
0.2446

> <Gold.Chemscore.DEInternal>
0.6969

> <Gold.Chemscore.Rot>
2.1884

> <Gold.Chemscore.Internal.Correction>
   9.000000E+99

> <Gold.Chemscore.Hbonds>
donor molecule, donor type, donor heavy atom, donor atom, acceptor molecule, acceptor atom, score
      L1  H     9    41       P1  7948  0.99
      P1  H  7989  7998       L1    18  0.94

> <Gold.Chemscore.Hbond.Weighted>
-6.3934

> <Gold.Chemscore.Metal.Weighted>
-0.0000

> <Gold.Chemscore.Lipo.Weighted>
-9.6299

> <Gold.Chemscore.Internal_Hbond.Weighted>
0.0000

> <Gold.Chemscore.DEClash.Weighted>
0.2446

> <Gold.Chemscore.DEInternal.Weighted>
0.6969

> <Gold.Chemscore.Rot.Weighted>
5.6023

> <Gold.Chemscore.Internal.Correction.Weighted>
   9.000000E+99

> <Gold.Protein.RotatedTorsions>
[ 6907 6896 6895 6894 ] final   18.45 input  -60.11 | X-H torsion
[ 7974 7965 7964 7962 ] final   53.68 input  175.53 | X-H torsion
[ 8008 7997 7996 7995 ] final -170.04 input   59.86 | X-H torsion
[ 10167 10162 10161 10158 ] final  155.24 input  -65.29 | X-H torsion
[ 10718 10713 10712 10709 ] final  -69.57 input   66.30 | X-H torsion
[ 10763 10752 10751 10750 ] final -137.12 input  -60.55 | X-H torsion
[ 11005 11000 10999 10996 ] final  -22.64 input  -57.11 | X-H torsion

> <Gold.Protein.ActiveResidues>
 VAL166  LYS551  ARG553  GLY616  TRP617  ASP618  TYR619  PRO620  LYS621  CYS622 
 ASP623  PHE694  ASN695  SER759  ASP760  ASP761  ALA762  ILE779  LEU786  VAL792 
 PHE793  MET794  SER795  GLU796  ALA797  LYS798  CYS799  TRP800  GLU811  SER814 

> <Gold.Protein.RotatedAtoms>
  151.8655  135.0509  160.0473 H   0  0  0  0  0  0  0  0  0  0  0  0  # atno 6907 bound_to 6896
  152.2630  133.5309  159.5401 H   0  0  0  0  0  0  0  0  0  0  0  0  # atno 6908 bound_to 6896
  150.7123  134.0720  159.3910 H   0  0  0  0  0  0  0  0  0  0  0  0  # atno 6909 bound_to 6896
  145.9686  139.4127  143.0204 H   0  0  0  0  0  0  0  0  0  0  0  0  # atno 7974 bound_to 7965
  155.9130  140.1061  157.1265 H   0  0  0  0  0  0  0  0  0  0  0  0  # atno 8008 bound_to 7997
  154.4042  140.1270  156.4646 H   0  0  0  0  0  0  0  0  0  0  0  0  # atno 8009 bound_to 7997
  155.7287  140.3469  155.5052 H   0  0  0  0  0  0  0  0  0  0  0  0  # atno 8010 bound_to 7997
  139.4821  144.5116  151.8015 H   0  0  0  0  0  0  0  0  0  0  0  0  # atno 10167 bound_to 10162
  156.0449  130.4315  150.2168 H   0  0  0  0  0  0  0  0  0  0  0  0  # atno 10718 bound_to 10713
  154.8669  135.3652  154.5172 H   0  0  0  0  0  0  0  0  0  0  0  0  # atno 10763 bound_to 10752
  153.5804  135.7018  153.5471 H   0  0  0  0  0  0  0  0  0  0  0  0  # atno 10764 bound_to 10752
  153.3462  135.4084  155.1573 H   0  0  0  0  0  0  0  0  0  0  0  0  # atno 10765 bound_to 10752
  140.8676  133.7743  156.0148 H   0  0  0  0  0  0  0  0  0  0  0  0  # atno 11005 bound_to 11000
  145.7938  140.9802  143.1035 LP  0  0  0  0  0  0  0  0  0  0  0  0  # atno 17320 bound_to 7965
  144.6831  139.9715  143.7482 LP  0  0  0  0  0  0  0  0  0  0  0  0  # atno 17321 bound_to 7965
  140.4620  144.1709  150.5907 LP  0  0  0  0  0  0  0  0  0  0  0  0  # atno 17342 bound_to 10162
  140.4474  143.2501  151.9393 LP  0  0  0  0  0  0  0  0  0  0  0  0  # atno 17343 bound_to 10162
  157.0258  130.9993  151.3326 LP  0  0  0  0  0  0  0  0  0  0  0  0  # atno 17370 bound_to 10713
  157.5312  130.8059  149.7919 LP  0  0  0  0  0  0  0  0  0  0  0  0  # atno 17371 bound_to 10713
  140.8611  134.2840  157.5234 LP  0  0  0  0  0  0  0  0  0  0  0  0  # atno 17394 bound_to 11000
  139.8710  134.9518  156.4097 LP  0  0  0  0  0  0  0  0  0  0  0  0  # atno 17395 bound_to 11000

$$$$
