AV-unprocessed.smi:98|AV-procd|sdf|863|dock8
  -GOLD-   2262017313D 1   1.00000     0.00000
 Structure written by MMmdl.
 56 59  0  0  0  0  0  0  0  0  1 V2000
  149.5319  139.3381  155.3688 O   0  0  0  0  0  0  0  0  0  0  0  0
  150.6294  138.7835  155.4376 C   0  0  0  0  0  0  0  0  0  0  0  0
  151.9129  139.6130  155.6033 C   0  0  0  0  0  0  0  0  0  0  0  0
  151.9812  140.3510  156.8840 N   0  0  0  0  0  0  0  0  0  0  0  0
  152.7280  139.7878  157.9488 C   0  0  0  0  0  0  0  0  0  0  0  0
  153.2919  138.6993  157.8272 O   0  0  0  0  0  0  0  0  0  0  0  0
  152.7866  140.5856  159.1680 C   0  0  0  0  0  0  0  0  0  0  0  0
  153.4869  140.1381  160.2240 F   0  0  0  0  0  0  0  0  0  0  0  0
  152.1509  141.7723  159.2520 C   0  0  0  0  0  0  0  0  0  0  0  0
  151.4061  142.2993  158.2156 N   0  0  0  0  0  0  0  0  0  0  0  0
  150.7645  143.6571  158.3844 C   0  0  2  0  0  0  0  0  0  0  0  0
  151.7800  144.7982  158.5835 C   0  0  0  0  0  0  0  0  0  0  0  0
  151.3714  145.3867  159.9241 C   0  0  0  0  0  0  0  0  0  0  0  0
  149.9257  144.9253  160.0715 C   0  0  0  0  0  0  0  0  0  0  0  0
  149.9383  143.6234  159.5071 O   0  0  0  0  0  0  0  0  0  0  0  0
  151.3329  141.6055  156.9854 C   0  0  0  0  0  0  0  0  0  0  0  0
  150.7282  142.0815  156.0235 O   0  0  0  0  0  0  0  0  0  0  0  0
  150.8177  137.4531  155.3643 N   0  0  0  0  0  0  0  0  0  0  0  0
  149.8519  136.4236  155.1977 C   0  0  0  0  0  0  0  0  0  0  0  0
  150.3371  135.1209  154.9536 C   0  0  0  0  0  0  0  0  0  0  0  0
  149.4459  134.0431  154.7919 C   0  0  0  0  0  0  0  0  0  0  0  0
  148.0588  134.2657  154.8919 C   0  0  0  0  0  0  0  0  0  0  0  0
  146.9206  132.8995  154.6844 S   0  0  0  0  0  0  0  0  0  0  0  0
  147.3145  131.8250  155.6092 O   0  0  0  0  0  0  0  0  0  0  0  0
  145.5487  133.4305  154.7195 O   0  0  0  0  0  0  0  0  0  0  0  0
  147.2360  132.3481  153.0645 N   0  0  0  0  0  0  0  0  0  0  0  0
  147.3814  133.3300  151.9756 C   0  0  0  0  0  0  0  0  0  0  0  0
  146.1014  133.4067  151.1244 C   0  0  0  0  0  0  0  0  0  0  0  0
  145.7438  132.1113  150.6644 O   0  0  0  0  0  0  0  0  0  0  0  0
  145.4567  131.2296  151.7403 C   0  0  0  0  0  0  0  0  0  0  0  0
  146.7057  131.0471  152.6208 C   0  0  0  0  0  0  0  0  0  0  0  0
  147.5601  135.5588  155.1417 C   0  0  0  0  0  0  0  0  0  0  0  0
  148.4546  136.6342  155.3038 C   0  0  0  0  0  0  0  0  0  0  0  0
  152.7684  138.9465  155.4841 H   0  0  0  0  0  0  0  0  0  0  0  0
  151.9970  140.3013  154.7605 H   0  0  0  0  0  0  0  0  0  0  0  0
  152.2312  142.3267  160.1756 H   0  0  0  0  0  0  0  0  0  0  0  0
  150.1531  143.8139  157.4946 H   0  0  0  0  0  0  0  0  0  0  0  0
  152.8128  144.4488  158.5681 H   0  0  0  0  0  0  0  0  0  0  0  0
  151.6489  145.5233  157.7797 H   0  0  0  0  0  0  0  0  0  0  0  0
  151.9798  144.9612  160.7224 H   0  0  0  0  0  0  0  0  0  0  0  0
  151.4764  146.4710  159.9630 H   0  0  0  0  0  0  0  0  0  0  0  0
  149.5905  144.9123  161.1088 H   0  0  0  0  0  0  0  0  0  0  0  0
  149.2528  145.5651  159.4983 H   0  0  0  0  0  0  0  0  0  0  0  0
  151.7801  137.1478  155.3537 H   0  0  0  0  0  0  0  0  0  0  0  0
  151.4006  134.9432  154.8835 H   0  0  0  0  0  0  0  0  0  0  0  0
  149.8303  133.0520  154.6015 H   0  0  0  0  0  0  0  0  0  0  0  0
  147.6377  134.3114  152.3739 H   0  0  0  0  0  0  0  0  0  0  0  0
  148.2165  133.0224  151.3456 H   0  0  0  0  0  0  0  0  0  0  0  0
  145.2754  133.8425  151.6860 H   0  0  0  0  0  0  0  0  0  0  0  0
  146.2673  134.0521  150.2618 H   0  0  0  0  0  0  0  0  0  0  0  0
  144.6148  131.6098  152.3189 H   0  0  0  0  0  0  0  0  0  0  0  0
  145.1465  130.2678  151.3318 H   0  0  0  0  0  0  0  0  0  0  0  0
  147.4812  130.5388  152.0470 H   0  0  0  0  0  0  0  0  0  0  0  0
  146.4839  130.4099  153.4764 H   0  0  0  0  0  0  0  0  0  0  0  0
  146.4967  135.7288  155.2242 H   0  0  0  0  0  0  0  0  0  0  0  0
  148.0447  137.6080  155.5216 H   0  0  0  0  0  0  0  0  0  0  0  0
  1  2  2  0  0  0  0
  2  3  1  0  0  0  0
  2 18  1  0  0  0  0
  3  4  1  0  0  0  0
  3 34  1  0  0  0  0
  3 35  1  0  0  0  0
  4 16  1  0  0  0  0
  4  5  1  0  0  0  0
  5  6  2  0  0  0  0
  5  7  1  0  0  0  0
  7  8  1  0  0  0  0
  7  9  2  0  0  0  0
  9 10  1  0  0  0  0
  9 36  1  0  0  0  0
 10 11  1  0  0  0  0
 10 16  1  0  0  0  0
 11 15  1  0  0  0  0
 11 12  1  0  0  0  0
 11 37  1  0  0  0  0
 12 13  1  0  0  0  0
 12 38  1  0  0  0  0
 12 39  1  0  0  0  0
 13 14  1  0  0  0  0
 13 40  1  0  0  0  0
 13 41  1  0  0  0  0
 14 15  1  0  0  0  0
 14 42  1  0  0  0  0
 14 43  1  0  0  0  0
 16 17  2  0  0  0  0
 18 19  1  0  0  0  0
 18 44  1  0  0  0  0
 19 33  1  0  0  0  0
 19 20  2  0  0  0  0
 20 21  1  0  0  0  0
 20 45  1  0  0  0  0
 21 22  2  0  0  0  0
 21 46  1  0  0  0  0
 22 23  1  0  0  0  0
 22 32  1  0  0  0  0
 23 24  2  0  0  0  0
 23 25  2  0  0  0  0
 23 26  1  0  0  0  0
 26 31  1  0  0  0  0
 26 27  1  0  0  0  0
 27 28  1  0  0  0  0
 27 47  1  0  0  0  0
 27 48  1  0  0  0  0
 28 29  1  0  0  0  0
 28 49  1  0  0  0  0
 28 50  1  0  0  0  0
 29 30  1  0  0  0  0
 30 31  1  0  0  0  0
 30 51  1  0  0  0  0
 30 52  1  0  0  0  0
 31 53  1  0  0  0  0
 31 54  1  0  0  0  0
 32 33  2  0  0  0  0
 32 55  1  0  0  0  0
 33 56  1  0  0  0  0
M  END
> <s_m_source_file>
AV-unprocessed.smi

> <i_m_source_file_index>
98

> <i_lp_mmshare_version>
43012

> <i_f3d_flags>
0

> <s_epik_input>
TzFbQ0gyXVtDSDJdW0NIMl1bQ0BIXTFuKGMyPU8pW2NIXWMoRiljKD1PKW4yW0NIMl1DKD1PKVtOSF1jM1tjSF1bY0hdYyhbY0hdW2NIXTMpUyg9TykoPU8pTjRbQ0gyXVtDSDJdT1tDSDJdW0NIMl00

> <s_epik_cmdline>
J2VwaWtfcHl0aG9uJywgJy1waCcsICc3LjAnLCAnLXRuJywgJzgnLCAnLW1hJywgJzIwMCcsICctbWV0YWxfYmluZGluZycsICctaW1hZScsICc8aW5maWxlLm1hZT4nLCAnLW9tYWUnLCAnPG91dGZpbGUubWFlPic=

> <r_lp_tautomer_probability>
1

> <r_epik_Ionization_Penalty>
1.9271e-06

> <r_epik_Ionization_Penalty_Charging>
3.88729e-08

> <r_epik_Ionization_Penalty_Neutral>
1.88823e-06

> <r_epik_State_Penalty>
-0

> <r_epik_Charging_Adjusted_Penalty>
3.88729e-08

> <i_epik_Tot_Q>
0

> <i_epik_Tot_abs_Q>
0

> <r_epik_Metal_State_Penalty>
-0

> <b_epik_Metal_Only>
0

> <s_epik_Chemistry_Notes>
This compound contains an acetal/aminal-like group ( X-CH(R)-Y where X, Y are N, S, or O) that may be acid/base labile, releasing an aldehyde.

> <s_lp_Force_Field>
OPLS_2005

> <r_lp_Energy>
27.1293

> <b_lp_Chiralities_Consistent>
1

> <s_lp_Variant>
AV-unprocessed.smi:98-1

> <Gold.Version>
5.8.1

> <Gold.Id.Protein>
6NUR|6NUR_protein|mol2

> <Gold.PLP.Fitness>
50.2851

> <Gold.PLP.PLP>
-51.4817

> <Gold.PLP.part.hbond>
-2.0000

> <Gold.PLP.part.metal>
0.0000

> <Gold.PLP.part.buried>
-6.3846

> <Gold.PLP.part.nonpolar>
-43.0246

> <Gold.PLP.part.repulsive>
0.5778

> <Gold.PLP.ligand.clash>
0.0000

> <Gold.PLP.ligand.torsion>
2.6609

> <Gold.PLP.Chemscore.Hbond>
0.0000

> <Gold.PLP.Chemscore.CHOScore>
0.0000

> <Gold.PLP.Chemscore.Metal>
0.0000

> <Gold.PLP.Chemscore.Internal.Correction>
4.1252

> <Gold.Rescore>
     Score         DG    S(hbond)    S(metal)    S(lipo)     H(rot)  DE(clash)    DE(int)     intcor
      9.94     -13.95       0.00        0.00     109.05       1.67       0.03       3.98       ----

> <Gold.Chemscore.Fitness>
9.9361

> <Gold.Chemscore.DG>
-13.9519

> <Gold.Chemscore.ZeroCoef>
-5.4800

> <Gold.Chemscore.Hbond>
0.0000

> <Gold.Chemscore.Metal>
0.0000

> <Gold.Chemscore.Lipo>
109.0459

> <Gold.Chemscore.Internal_Hbond>
0.0000

> <Gold.Chemscore.DEClash>
0.0333

> <Gold.Chemscore.DEInternal>
3.9824

> <Gold.Chemscore.Rot>
1.6744

> <Gold.Chemscore.Internal.Correction>
   9.000000E+99

> <Gold.Chemscore.Hbond.Weighted>
-0.0000

> <Gold.Chemscore.Metal.Weighted>
-0.0000

> <Gold.Chemscore.Lipo.Weighted>
-12.7584

> <Gold.Chemscore.Internal_Hbond.Weighted>
0.0000

> <Gold.Chemscore.DEClash.Weighted>
0.0333

> <Gold.Chemscore.DEInternal.Weighted>
3.9824

> <Gold.Chemscore.Rot.Weighted>
4.2865

> <Gold.Chemscore.Internal.Correction.Weighted>
   9.000000E+99

> <Gold.Protein.RotatedTorsions>
[ 6907 6896 6895 6894 ] final  -51.75 input  -60.11 | X-H torsion
[ 7974 7965 7964 7962 ] final -113.93 input  175.53 | X-H torsion
[ 8008 7997 7996 7995 ] final  169.85 input   59.86 | X-H torsion
[ 10167 10162 10161 10158 ] final -113.84 input  -65.29 | X-H torsion
[ 10718 10713 10712 10709 ] final -105.78 input   66.30 | X-H torsion
[ 10763 10752 10751 10750 ] final   71.97 input  -60.55 | X-H torsion
[ 11005 11000 10999 10996 ] final   91.55 input  -57.11 | X-H torsion

> <Gold.Protein.ActiveResidues>
 VAL166  LYS551  ARG553  GLY616  TRP617  ASP618  TYR619  PRO620  LYS621  CYS622 
 ASP623  PHE694  ASN695  SER759  ASP760  ASP761  ALA762  ILE779  LEU786  VAL792 
 PHE793  MET794  SER795  GLU796  ALA797  LYS798  CYS799  TRP800  GLU811  SER814 

> <Gold.Protein.RotatedAtoms>
  150.8582  134.7926  159.7061 H   0  0  0  0  0  0  0  0  0  0  0  0  # atno 6907 bound_to 6896
  152.4627  134.5144  159.9773 H   0  0  0  0  0  0  0  0  0  0  0  0  # atno 6908 bound_to 6896
  151.5253  133.3421  159.2944 H   0  0  0  0  0  0  0  0  0  0  0  0  # atno 6909 bound_to 6896
  145.1262  140.8698  143.3785 H   0  0  0  0  0  0  0  0  0  0  0  0  # atno 7974 bound_to 7965
  156.1420  140.1553  156.8906 H   0  0  0  0  0  0  0  0  0  0  0  0  # atno 8008 bound_to 7997
  154.4995  140.0829  156.7807 H   0  0  0  0  0  0  0  0  0  0  0  0  # atno 8009 bound_to 7997
  155.4061  140.3416  155.4262 H   0  0  0  0  0  0  0  0  0  0  0  0  # atno 8010 bound_to 7997
  140.1075  143.4557  152.1773 H   0  0  0  0  0  0  0  0  0  0  0  0  # atno 10167 bound_to 10162
  156.0361  130.5580  150.7588 H   0  0  0  0  0  0  0  0  0  0  0  0  # atno 10718 bound_to 10713
  153.0430  135.5117  154.7673 H   0  0  0  0  0  0  0  0  0  0  0  0  # atno 10763 bound_to 10752
  154.6595  135.2936  154.9887 H   0  0  0  0  0  0  0  0  0  0  0  0  # atno 10764 bound_to 10752
  154.0743  135.6673  153.4881 H   0  0  0  0  0  0  0  0  0  0  0  0  # atno 10765 bound_to 10752
  139.8837  134.8681  156.3445 H   0  0  0  0  0  0  0  0  0  0  0  0  # atno 11005 bound_to 11000
  145.0686  139.3049  143.5844 LP  0  0  0  0  0  0  0  0  0  0  0  0  # atno 17320 bound_to 7965
  146.3517  140.0153  142.8663 LP  0  0  0  0  0  0  0  0  0  0  0  0  # atno 17321 bound_to 7965
  139.5637  144.7422  151.4082 LP  0  0  0  0  0  0  0  0  0  0  0  0  # atno 17342 bound_to 10162
  140.6944  143.7784  150.7304 LP  0  0  0  0  0  0  0  0  0  0  0  0  # atno 17343 bound_to 10162
  157.5113  131.0925  151.0195 LP  0  0  0  0  0  0  0  0  0  0  0  0  # atno 17370 bound_to 10713
  157.0549  130.5802  149.5376 LP  0  0  0  0  0  0  0  0  0  0  0  0  # atno 17371 bound_to 10713
  140.9636  133.7372  156.0436 LP  0  0  0  0  0  0  0  0  0  0  0  0  # atno 17394 bound_to 11000
  140.7959  134.3565  157.5452 LP  0  0  0  0  0  0  0  0  0  0  0  0  # atno 17395 bound_to 11000

$$$$
