AV-unprocessed.smi:1809|AV-procd|sdf|7329|dock1
  -GOLD-   22720 8583D 1   1.00000     0.00000
 Structure written by MMmdl.
 38 40  0  0  0  0  0  0  0  0  2 V2000
  146.7927  133.8693  162.4938 C   0  0  0  0  0  0  0  0  0  0  0  0
  147.2859  135.0026  161.6610 C   0  0  0  0  0  0  0  0  0  0  0  0
  147.2575  136.2709  162.0776 N   0  0  0  0  0  0  0  0  0  0  0  0
  147.7688  137.1444  161.1282 N   0  0  0  0  0  0  0  0  0  0  0  0
  148.1643  136.5279  160.0053 C   0  0  0  0  0  0  0  0  0  0  0  0
  148.6920  137.1931  158.9644 N   0  5  0  0  0  0  0  0  0  0  0  0
  149.9988  137.5418  158.9772 C   0  0  0  0  0  0  0  0  0  0  0  0
  150.9262  136.8858  159.4574 O   0  0  0  0  0  0  0  0  0  0  0  0
  150.2482  138.7245  158.4004 N   0  0  0  0  0  0  0  0  0  0  0  0
  151.5641  139.3393  158.2829 C   0  0  0  0  0  0  0  0  0  0  0  0
  151.6438  140.6232  159.1204 C   0  0  2  0  0  0  0  0  0  0  0  0
  150.6890  141.7164  158.5872 C   0  0  0  0  0  0  0  0  0  0  0  0
  150.8885  142.9503  159.3235 N   0  0  0  0  0  0  0  0  0  0  0  0
  150.1270  144.0995  158.8929 C   0  0  0  0  0  0  0  0  0  0  0  0
  150.8381  145.2942  159.5529 C   0  0  0  0  0  0  0  0  0  0  0  0
  152.2514  144.7659  159.8855 C   0  0  0  0  0  0  0  0  0  0  0  0
  152.2568  143.3828  159.2324 C   0  0  1  0  0  0  0  0  0  0  0  0
  153.2014  142.3218  159.8145 C   0  0  0  0  0  0  0  0  0  0  0  0
  152.9936  141.1066  159.0911 O   0  0  0  0  0  0  0  0  0  0  0  0
  147.9477  134.7782  160.0506 S   0  0  0  0  0  0  0  0  0  0  0  0
  145.7026  133.8540  162.4936 H   0  0  0  0  0  0  0  0  0  0  0  0
  147.1434  133.9748  163.5207 H   0  0  0  0  0  0  0  0  0  0  0  0
  147.1566  132.9214  162.0973 H   0  0  0  0  0  0  0  0  0  0  0  0
  149.4651  139.2375  158.0227 H   0  0  0  0  0  0  0  0  0  0  0  0
  152.3326  138.6336  158.6026 H   0  0  0  0  0  0  0  0  0  0  0  0
  151.7518  139.5679  157.2328 H   0  0  0  0  0  0  0  0  0  0  0  0
  151.3786  140.3936  160.1542 H   0  0  0  0  0  0  0  0  0  0  0  0
  150.8738  141.8826  157.5248 H   0  0  0  0  0  0  0  0  0  0  0  0
  149.6528  141.3906  158.6817 H   0  0  0  0  0  0  0  0  0  0  0  0
  150.1721  144.1954  157.8068 H   0  0  0  0  0  0  0  0  0  0  0  0
  149.0790  144.0205  159.1828 H   0  0  0  0  0  0  0  0  0  0  0  0
  150.8697  146.1521  158.8807 H   0  0  0  0  0  0  0  0  0  0  0  0
  150.3235  145.6009  160.4644 H   0  0  0  0  0  0  0  0  0  0  0  0
  153.0430  145.4077  159.4975 H   0  0  0  0  0  0  0  0  0  0  0  0
  152.3782  144.6841  160.9659 H   0  0  0  0  0  0  0  0  0  0  0  0
  152.5137  143.5173  158.1792 H   0  0  0  0  0  0  0  0  0  0  0  0
  154.2416  142.6308  159.7109 H   0  0  0  0  0  0  0  0  0  0  0  0
  153.0109  142.1615  160.8768 H   0  0  0  0  0  0  0  0  0  0  0  0
  1  2  1  0  0  0  0
  1 21  1  0  0  0  0
  1 22  1  0  0  0  0
  1 23  1  0  0  0  0
  2 20  1  0  0  0  0
  2  3  2  0  0  0  0
  3  4  1  0  0  0  0
  4  5  2  0  0  0  0
  5  6  1  0  0  0  0
  5 20  1  0  0  0  0
  6  7  1  0  0  0  0
  7  8  2  0  0  0  0
  7  9  1  0  0  0  0
  9 10  1  0  0  0  0
  9 24  1  0  0  0  0
 10 11  1  0  0  0  0
 10 25  1  0  0  0  0
 10 26  1  0  0  0  0
 11 19  1  0  0  0  0
 11 12  1  0  0  0  0
 11 27  1  0  0  0  0
 12 13  1  0  0  0  0
 12 28  1  0  0  0  0
 12 29  1  0  0  0  0
 13 17  1  0  0  0  0
 13 14  1  0  0  0  0
 14 15  1  0  0  0  0
 14 30  1  0  0  0  0
 14 31  1  0  0  0  0
 15 16  1  0  0  0  0
 15 32  1  0  0  0  0
 15 33  1  0  0  0  0
 16 17  1  0  0  0  0
 16 34  1  0  0  0  0
 16 35  1  0  0  0  0
 17 18  1  0  0  0  0
 17 36  1  0  0  0  0
 18 19  1  0  0  0  0
 18 37  1  0  0  0  0
 18 38  1  0  0  0  0
M  CHG  1   6  -1
M  END
> <s_m_source_file>
AV-unprocessed.smi

> <i_m_source_file_index>
1809

> <i_lp_mmshare_version>
43012

> <i_f3d_flags>
0

> <s_epik_input>
W0NIM11jMW5uYyhzMSlbTkhdQyg9TylbTkhdW0NIMl1bQ0BIXShbQ0gyXTIpT1tDSDJdW0NAQEhdKE4yMylbQ0gyXVtDSDJdW0NIMl0z

> <s_epik_cmdline>
J2VwaWtfcHl0aG9uJywgJy1waCcsICc3LjAnLCAnLXRuJywgJzgnLCAnLW1hJywgJzIwMCcsICctbWV0YWxfYmluZGluZycsICctaW1hZScsICc8aW5maWxlLm1hZT4nLCAnLW9tYWUnLCAnPG91dGZpbGUubWFlPic=

> <r_lp_tautomer_probability>
1

> <r_epik_Ionization_Penalty>
4.48809

> <r_epik_Ionization_Penalty_Charging>
3.27284

> <r_epik_Ionization_Penalty_Neutral>
1.21525

> <r_epik_State_Penalty>
4.69427

> <r_epik_Charging_Adjusted_Penalty>
7.96711

> <i_epik_Tot_Q>
-1

> <i_epik_Tot_abs_Q>
1

> <r_epik_Metal_State_Penalty>
1.91976

> <b_epik_Metal_Only>
1

> <s_lp_Force_Field>
OPLS_2005

> <r_lp_Energy>
45.7249

> <b_lp_Chiralities_Consistent>
1

> <s_lp_Variant>
AV-unprocessed.smi:1809-21

> <Gold.Version>
5.8.1

> <Gold.Id.Protein>
6NUR|6NUR_protein|mol2

> <Gold.PLP.Fitness>
46.4895

> <Gold.PLP.PLP>
-40.0841

> <Gold.PLP.part.hbond>
-3.1501

> <Gold.PLP.part.metal>
0.0000

> <Gold.PLP.part.buried>
-6.8373

> <Gold.PLP.part.nonpolar>
-30.0732

> <Gold.PLP.part.repulsive>
0.1845

> <Gold.PLP.ligand.clash>
0.0000

> <Gold.PLP.ligand.torsion>
1.0286

> <Gold.PLP.Chemscore.Hbond>
2.8080

> <Gold.PLP.Chemscore.CHOScore>
0.0000

> <Gold.PLP.Chemscore.Metal>
0.0000

> <Gold.Chemscore.Hbonds>
donor molecule, donor type, donor heavy atom, donor atom, acceptor molecule, acceptor atom, score
      P1  H  6896  6909       L1     8  1.00
      P1  H  6931  6943       L1     4  0.96
      P1  H  6934  6947       L1     4  0.83

> <Gold.PLP.Chemscore.Internal.Correction>
0.0386

> <Gold.Rescore>
     Score         DG    S(hbond)    S(metal)    S(lipo)     H(rot)  DE(clash)    DE(int)     intcor
     20.09     -21.05       2.49        0.00      90.71       1.31       0.01       0.96       ----

> <Gold.Chemscore.Fitness>
20.0852

> <Gold.Chemscore.DG>
-21.0537

> <Gold.Chemscore.ZeroCoef>
-5.4800

> <Gold.Chemscore.Hbond>
2.4857

> <Gold.Chemscore.Metal>
0.0000

> <Gold.Chemscore.Lipo>
90.7076

> <Gold.Chemscore.Internal_Hbond>
0.0000

> <Gold.Chemscore.DEClash>
0.0073

> <Gold.Chemscore.DEInternal>
0.9612

> <Gold.Chemscore.Rot>
1.3051

> <Gold.Chemscore.Internal.Correction>
   9.000000E+99

> <Gold.Chemscore.Hbonds>
donor molecule, donor type, donor heavy atom, donor atom, acceptor molecule, acceptor atom, score
      P1  H  6896  6909       L1     8  1.00
      P1  H  6931  6943       L1     4  0.62
      P1  H  6934  6947       L1     4  0.75

> <Gold.Chemscore.Hbond.Weighted>
-8.3021

> <Gold.Chemscore.Metal.Weighted>
-0.0000

> <Gold.Chemscore.Lipo.Weighted>
-10.6128

> <Gold.Chemscore.Internal_Hbond.Weighted>
0.0000

> <Gold.Chemscore.DEClash.Weighted>
0.0073

> <Gold.Chemscore.DEInternal.Weighted>
0.9612

> <Gold.Chemscore.Rot.Weighted>
3.3412

> <Gold.Chemscore.Internal.Correction.Weighted>
   9.000000E+99

> <Gold.Protein.RotatedTorsions>
[ 6907 6896 6895 6894 ] final   93.89 input  -60.11 | X-H torsion
[ 7974 7965 7964 7962 ] final  -97.93 input  175.53 | X-H torsion
[ 8008 7997 7996 7995 ] final   84.55 input   59.86 | X-H torsion
[ 10167 10162 10161 10158 ] final -113.58 input  -65.29 | X-H torsion
[ 10718 10713 10712 10709 ] final  116.89 input   66.30 | X-H torsion
[ 10763 10752 10751 10750 ] final  158.43 input  -60.55 | X-H torsion
[ 11005 11000 10999 10996 ] final -176.36 input  -57.11 | X-H torsion

> <Gold.Protein.ActiveResidues>
 VAL166  LYS551  ARG553  GLY616  TRP617  ASP618  TYR619  PRO620  LYS621  CYS622 
 ASP623  PHE694  ASN695  SER759  ASP760  ASP761  ALA762  ILE779  LEU786  VAL792 
 PHE793  MET794  SER795  GLU796  ALA797  LYS798  CYS799  TRP800  GLU811  SER814 

> <Gold.Protein.RotatedAtoms>
  152.5451  134.1278  159.8426 H   0  0  0  0  0  0  0  0  0  0  0  0  # atno 6907 bound_to 6896
  151.1327  133.5018  159.2606 H   0  0  0  0  0  0  0  0  0  0  0  0  # atno 6908 bound_to 6896
  151.1658  135.0305  159.8784 H   0  0  0  0  0  0  0  0  0  0  0  0  # atno 6909 bound_to 6896
  145.3273  140.9434  143.2682 H   0  0  0  0  0  0  0  0  0  0  0  0  # atno 7974 bound_to 7965
  155.9385  140.3409  155.6308 H   0  0  0  0  0  0  0  0  0  0  0  0  # atno 8008 bound_to 7997
  155.7069  140.0767  157.2406 H   0  0  0  0  0  0  0  0  0  0  0  0  # atno 8009 bound_to 7997
  154.4098  140.1630  156.2240 H   0  0  0  0  0  0  0  0  0  0  0  0  # atno 8010 bound_to 7997
  140.1103  143.4533  152.1756 H   0  0  0  0  0  0  0  0  0  0  0  0  # atno 10167 bound_to 10162
  157.6132  131.1031  150.7537 H   0  0  0  0  0  0  0  0  0  0  0  0  # atno 10718 bound_to 10713
  154.2160  135.2784  155.2942 H   0  0  0  0  0  0  0  0  0  0  0  0  # atno 10763 bound_to 10752
  154.5740  135.5609  153.7126 H   0  0  0  0  0  0  0  0  0  0  0  0  # atno 10764 bound_to 10752
  153.0053  135.6328  154.2299 H   0  0  0  0  0  0  0  0  0  0  0  0  # atno 10765 bound_to 10752
  140.4529  134.6326  157.4809 H   0  0  0  0  0  0  0  0  0  0  0  0  # atno 11005 bound_to 11000
  144.8892  139.4798  143.6686 LP  0  0  0  0  0  0  0  0  0  0  0  0  # atno 17320 bound_to 7965
  146.3059  139.7579  142.9056 LP  0  0  0  0  0  0  0  0  0  0  0  0  # atno 17321 bound_to 7965
  139.5623  144.7413  151.4121 LP  0  0  0  0  0  0  0  0  0  0  0  0  # atno 17342 bound_to 10162
  140.6929  143.7819  150.7282 LP  0  0  0  0  0  0  0  0  0  0  0  0  # atno 17343 bound_to 10162
  156.7910  130.4890  149.5385 LP  0  0  0  0  0  0  0  0  0  0  0  0  # atno 17370 bound_to 10713
  156.1243  130.6132  151.0240 LP  0  0  0  0  0  0  0  0  0  0  0  0  # atno 17371 bound_to 10713
  139.9995  134.6859  155.9554 LP  0  0  0  0  0  0  0  0  0  0  0  0  # atno 17394 bound_to 11000
  141.1656  133.6537  156.4468 LP  0  0  0  0  0  0  0  0  0  0  0  0  # atno 17395 bound_to 11000

$$$$
