AV-unprocessed.smi:972|AV-procd|sdf|4296|dock9
  -GOLD-   22720 2203D 1   1.00000     0.00000
 Structure written by MMmdl.
 51 53  0  0  0  0  0  0  0  0  2 V2000
  149.6511  141.4821  158.3010 C   0  0  0  0  0  0  0  0  0  0  0  0
  150.8531  141.1376  157.3898 C   0  0  0  0  0  0  0  0  0  0  0  0
  151.0823  142.3803  156.4974 C   0  0  0  0  0  0  0  0  0  0  0  0
  152.1011  140.8874  158.2559 C   0  0  0  0  0  0  0  0  0  0  0  0
  150.5628  139.8900  156.5371 C   0  0  0  0  0  0  0  0  0  0  0  0
  150.5153  140.0561  155.2089 N   0  0  0  0  0  0  0  0  0  0  0  0
  150.1352  139.0035  154.4539 C   0  0  0  0  0  0  0  0  0  0  0  0
  149.7580  137.7693  155.0363 C   0  0  0  0  0  0  0  0  0  0  0  0
  149.3573  136.6055  154.3242 N   0  0  0  0  0  0  0  0  0  0  0  0
  148.9944  135.4046  154.8064 C   0  0  0  0  0  0  0  0  0  0  0  0
  148.9754  135.0867  155.9947 O   0  0  0  0  0  0  0  0  0  0  0  0
  148.6593  134.5659  153.8151 N   0  0  0  0  0  0  0  0  0  0  0  0
  148.2096  133.1882  153.9970 C   0  0  2  0  0  0  0  0  0  0  0  0
  149.3696  132.1954  153.7924 C   0  0  0  0  0  0  0  0  0  0  0  0
  148.8776  130.7412  153.8854 C   0  0  0  0  0  0  0  0  0  0  0  0
  147.7871  130.4827  152.9127 N   0  3  1  0  0  0  0  0  0  0  0  0
  147.3714  129.0632  152.9054 C   0  0  0  0  0  0  0  0  0  0  0  0
  148.1701  128.1995  151.9570 C   0  0  0  0  0  0  0  0  0  0  0  0
  146.7610  128.6160  151.5975 C   0  0  0  0  0  0  0  0  0  0  0  0
  146.6389  131.4006  153.1175 C   0  0  0  0  0  0  0  0  0  0  0  0
  147.0789  132.8702  153.0044 C   0  0  0  0  0  0  0  0  0  0  0  0
  149.8127  137.7173  156.4436 C   0  0  0  0  0  0  0  0  0  0  0  0
  150.1944  138.7775  157.1858 N   0  0  0  0  0  0  0  0  0  0  0  0
  149.8346  142.3923  158.8728 H   0  0  0  0  0  0  0  0  0  0  0  0
  149.4473  140.6927  159.0253 H   0  0  0  0  0  0  0  0  0  0  0  0
  148.7426  141.6392  157.7186 H   0  0  0  0  0  0  0  0  0  0  0  0
  150.2250  142.5681  155.8499 H   0  0  0  0  0  0  0  0  0  0  0  0
  151.9606  142.2698  155.8602 H   0  0  0  0  0  0  0  0  0  0  0  0
  151.2418  143.2767  157.0979 H   0  0  0  0  0  0  0  0  0  0  0  0
  152.3371  141.7540  158.8743 H   0  0  0  0  0  0  0  0  0  0  0  0
  152.9752  140.6756  157.6390 H   0  0  0  0  0  0  0  0  0  0  0  0
  151.9559  140.0368  158.9228 H   0  0  0  0  0  0  0  0  0  0  0  0
  150.1493  139.1736  153.3894 H   0  0  0  0  0  0  0  0  0  0  0  0
  149.3683  136.6935  153.3185 H   0  0  0  0  0  0  0  0  0  0  0  0
  148.7076  134.9098  152.8671 H   0  0  0  0  0  0  0  0  0  0  0  0
  147.8174  133.0741  155.0096 H   0  0  0  0  0  0  0  0  0  0  0  0
  149.8326  132.3602  152.8183 H   0  0  0  0  0  0  0  0  0  0  0  0
  150.1486  132.3641  154.5367 H   0  0  0  0  0  0  0  0  0  0  0  0
  149.7100  130.0634  153.6915 H   0  0  0  0  0  0  0  0  0  0  0  0
  148.5244  130.5273  154.8954 H   0  0  0  0  0  0  0  0  0  0  0  0
  147.0134  128.6584  153.8505 H   0  0  0  0  0  0  0  0  0  0  0  0
  148.9865  128.6593  151.4029 H   0  0  0  0  0  0  0  0  0  0  0  0
  148.3260  127.1593  152.2358 H   0  0  0  0  0  0  0  0  0  0  0  0
  145.9895  127.8499  151.6392 H   0  0  0  0  0  0  0  0  0  0  0  0
  146.6429  129.3517  150.8037 H   0  0  0  0  0  0  0  0  0  0  0  0
  145.8675  131.1933  152.3748 H   0  0  0  0  0  0  0  0  0  0  0  0
  146.1933  131.2158  154.0965 H   0  0  0  0  0  0  0  0  0  0  0  0
  146.2255  133.5250  153.1862 H   0  0  0  0  0  0  0  0  0  0  0  0
  147.4113  133.0704  151.9844 H   0  0  0  0  0  0  0  0  0  0  0  0
  149.5411  136.8212  156.9822 H   0  0  0  0  0  0  0  0  0  0  0  0
  148.1601  130.6799  151.9950 H   0  0  0  0  0  0  0  0  0  0  0  0
  1  2  1  0  0  0  0
  1 24  1  0  0  0  0
  1 25  1  0  0  0  0
  1 26  1  0  0  0  0
  2  3  1  0  0  0  0
  2  4  1  0  0  0  0
  2  5  1  0  0  0  0
  3 27  1  0  0  0  0
  3 28  1  0  0  0  0
  3 29  1  0  0  0  0
  4 30  1  0  0  0  0
  4 31  1  0  0  0  0
  4 32  1  0  0  0  0
  5 23  1  0  0  0  0
  5  6  2  0  0  0  0
  6  7  1  0  0  0  0
  7  8  2  0  0  0  0
  7 33  1  0  0  0  0
  8  9  1  0  0  0  0
  8 22  1  0  0  0  0
  9 10  1  0  0  0  0
  9 34  1  0  0  0  0
 10 11  2  0  0  0  0
 10 12  1  0  0  0  0
 12 13  1  0  0  0  0
 12 35  1  0  0  0  0
 13 21  1  0  0  0  0
 13 14  1  0  0  0  0
 13 36  1  0  0  0  0
 14 15  1  0  0  0  0
 14 37  1  0  0  0  0
 14 38  1  0  0  0  0
 15 16  1  0  0  0  0
 15 39  1  0  0  0  0
 15 40  1  0  0  0  0
 16 17  1  0  0  0  0
 16 20  1  0  0  0  0
 16 51  1  0  0  0  0
 17 19  1  0  0  0  0
 17 18  1  0  0  0  0
 17 41  1  0  0  0  0
 18 19  1  0  0  0  0
 18 42  1  0  0  0  0
 18 43  1  0  0  0  0
 19 44  1  0  0  0  0
 19 45  1  0  0  0  0
 20 21  1  0  0  0  0
 20 46  1  0  0  0  0
 20 47  1  0  0  0  0
 21 48  1  0  0  0  0
 21 49  1  0  0  0  0
 22 23  2  0  0  0  0
 22 50  1  0  0  0  0
M  CHG  1  16   1
M  END
> <s_m_source_file>
AV-unprocessed.smi

> <i_m_source_file_index>
972

> <i_lp_mmshare_version>
43012

> <i_f3d_flags>
0

> <s_epik_input>
W0NIM11DKFtDSDNdKShbQ0gzXSljMW5bY0hdYyhbY0hdbjEpW05IXUMoPU8pW05IXVtDSF0yW0NIMl1bQ0gyXU4oW0NIMl1bQ0gyXTIpW0NIXTNbQ0gyXVtDSDJdMw==

> <s_epik_cmdline>
J2VwaWtfcHl0aG9uJywgJy1waCcsICc3LjAnLCAnLXRuJywgJzgnLCAnLW1hJywgJzIwMCcsICctbWV0YWxfYmluZGluZycsICctaW1hZScsICc8aW5maWxlLm1hZT4nLCAnLW9tYWUnLCAnPG91dGZpbGUubWFlPic=

> <r_lp_tautomer_probability>
1

> <r_epik_Ionization_Penalty>
0.123264

> <r_epik_Ionization_Penalty_Charging>
0.123242

> <r_epik_Ionization_Penalty_Neutral>
2.24743e-05

> <r_epik_State_Penalty>
0.112739

> <r_epik_Charging_Adjusted_Penalty>
0.235981

> <i_epik_Tot_Q>
1

> <i_epik_Tot_abs_Q>
1

> <r_epik_Metal_State_Penalty>
0.112739

> <b_epik_Metal_Only>
0

> <s_lp_Force_Field>
OPLS_2005

> <r_lp_Energy>
25.9284

> <b_lp_Chiralities_Consistent>
1

> <s_lp_Variant>
AV-unprocessed.smi:972-1

> <Gold.Version>
5.8.1

> <Gold.Id.Protein>
6NUR|6NUR_protein|mol2

> <Gold.PLP.Fitness>
46.4183

> <Gold.PLP.PLP>
-34.2317

> <Gold.PLP.part.hbond>
-3.4580

> <Gold.PLP.part.metal>
0.0000

> <Gold.PLP.part.buried>
-2.9960

> <Gold.PLP.part.nonpolar>
-26.8949

> <Gold.PLP.part.repulsive>
0.0969

> <Gold.PLP.ligand.clash>
0.0000

> <Gold.PLP.ligand.torsion>
1.0074

> <Gold.PLP.Chemscore.Hbond>
3.2685

> <Gold.PLP.Chemscore.CHOScore>
1.0000

> <Gold.PLP.Chemscore.Metal>
0.0000

> <Gold.Chemscore.Hbonds>
donor molecule, donor type, donor heavy atom, donor atom, acceptor molecule, acceptor atom, score
      L1  H     9    34       P1  7948  1.00
      L1  H    12    35       P1  7948  0.96
      L1  H    16    51       P1 10747  1.00
      P1  H  7989  7998       L1     6  0.29
      L1  C     7    33       P1  7957  1.00

> <Gold.PLP.Chemscore.Internal.Correction>
1.3959

> <Gold.Rescore>
     Score         DG    S(hbond)    S(metal)    S(lipo)     H(rot)  DE(clash)    DE(int)     intcor
     18.44     -21.01       2.61        0.00      87.11       1.32       0.16       2.40       ----

> <Gold.Chemscore.Fitness>
18.4445

> <Gold.Chemscore.DG>
-21.0054

> <Gold.Chemscore.ZeroCoef>
-5.4800

> <Gold.Chemscore.Hbond>
2.6093

> <Gold.Chemscore.Metal>
0.0000

> <Gold.Chemscore.Lipo>
87.1057

> <Gold.Chemscore.Internal_Hbond>
0.0000

> <Gold.Chemscore.DEClash>
0.1610

> <Gold.Chemscore.DEInternal>
2.3999

> <Gold.Chemscore.Rot>
1.3207

> <Gold.Chemscore.Internal.Correction>
   9.000000E+99

> <Gold.Chemscore.Hbonds>
donor molecule, donor type, donor heavy atom, donor atom, acceptor molecule, acceptor atom, score
      L1  H     9    34       P1  7948  0.83
      L1  H    12    35       P1  7948  0.23
      L1  H    16    51       P1 10747  0.99
      P1  H  7989  7998       L1     6  0.01

> <Gold.Chemscore.Hbond.Weighted>
-8.7149

> <Gold.Chemscore.Metal.Weighted>
-0.0000

> <Gold.Chemscore.Lipo.Weighted>
-10.1914

> <Gold.Chemscore.Internal_Hbond.Weighted>
0.0000

> <Gold.Chemscore.DEClash.Weighted>
0.1610

> <Gold.Chemscore.DEInternal.Weighted>
2.3999

> <Gold.Chemscore.Rot.Weighted>
3.3809

> <Gold.Chemscore.Internal.Correction.Weighted>
   9.000000E+99

> <Gold.Protein.RotatedTorsions>
[ 6907 6896 6895 6894 ] final -154.32 input  -60.11 | X-H torsion
[ 7974 7965 7964 7962 ] final  107.70 input  175.53 | X-H torsion
[ 8008 7997 7996 7995 ] final  148.55 input   59.86 | X-H torsion
[ 10167 10162 10161 10158 ] final  -33.04 input  -65.29 | X-H torsion
[ 10718 10713 10712 10709 ] final   -3.24 input   66.30 | X-H torsion
[ 10763 10752 10751 10750 ] final  -16.16 input  -60.55 | X-H torsion
[ 11005 11000 10999 10996 ] final   40.99 input  -57.11 | X-H torsion

> <Gold.Protein.ActiveResidues>
 VAL166  LYS551  ARG553  GLY616  TRP617  ASP618  TYR619  PRO620  LYS621  CYS622 
 ASP623  PHE694  ASN695  SER759  ASP760  ASP761  ALA762  ILE779  LEU786  VAL792 
 PHE793  MET794  SER795  GLU796  ALA797  LYS798  CYS799  TRP800  GLU811  SER814 

> <Gold.Protein.RotatedAtoms>
  151.2557  133.4327  159.2613 H   0  0  0  0  0  0  0  0  0  0  0  0  # atno 6907 bound_to 6896
  151.0576  134.9715  159.8254 H   0  0  0  0  0  0  0  0  0  0  0  0  # atno 6908 bound_to 6896
  152.5393  134.2509  159.8951 H   0  0  0  0  0  0  0  0  0  0  0  0  # atno 6909 bound_to 6896
  145.2902  139.2603  143.3869 H   0  0  0  0  0  0  0  0  0  0  0  0  # atno 7974 bound_to 7965
  156.2787  140.2126  156.5716 H   0  0  0  0  0  0  0  0  0  0  0  0  # atno 8008 bound_to 7997
  154.7131  140.0510  157.0592 H   0  0  0  0  0  0  0  0  0  0  0  0  # atno 8009 bound_to 7997
  155.0579  140.3163  155.4673 H   0  0  0  0  0  0  0  0  0  0  0  0  # atno 8010 bound_to 7997
  140.7211  143.3650  151.1888 H   0  0  0  0  0  0  0  0  0  0  0  0  # atno 10167 bound_to 10162
  156.7790  130.5324  149.5754 H   0  0  0  0  0  0  0  0  0  0  0  0  # atno 10718 bound_to 10713
  153.5542  135.7011  153.5577 H   0  0  0  0  0  0  0  0  0  0  0  0  # atno 10763 bound_to 10752
  153.3487  135.4001  155.1629 H   0  0  0  0  0  0  0  0  0  0  0  0  # atno 10764 bound_to 10752
  154.8657  135.3760  154.5056 H   0  0  0  0  0  0  0  0  0  0  0  0  # atno 10765 bound_to 10752
  140.1877  134.4025  155.8164 H   0  0  0  0  0  0  0  0  0  0  0  0  # atno 11005 bound_to 11000
  146.3187  140.3392  142.8646 LP  0  0  0  0  0  0  0  0  0  0  0  0  # atno 17320 bound_to 7965
  144.9179  140.7834  143.5767 LP  0  0  0  0  0  0  0  0  0  0  0  0  # atno 17321 bound_to 7965
  139.7210  143.9224  152.2985 LP  0  0  0  0  0  0  0  0  0  0  0  0  # atno 17342 bound_to 10162
  139.8980  144.6928  150.8696 LP  0  0  0  0  0  0  0  0  0  0  0  0  # atno 17343 bound_to 10162
  156.1230  130.6123  151.0222 LP  0  0  0  0  0  0  0  0  0  0  0  0  # atno 17370 bound_to 10713
  157.6655  131.0872  150.7738 LP  0  0  0  0  0  0  0  0  0  0  0  0  # atno 17371 bound_to 10713
  141.2225  133.7031  156.8041 LP  0  0  0  0  0  0  0  0  0  0  0  0  # atno 17394 bound_to 11000
  140.2195  134.8768  157.3362 LP  0  0  0  0  0  0  0  0  0  0  0  0  # atno 17395 bound_to 11000

$$$$
