AV-unprocessed.smi:1464|AV-procd|sdf|5945|dock7
  -GOLD-   22720 6 23D 1   1.00000     0.00000
 Structure written by MMmdl.
 41 42  0  0  0  0  0  0  0  0  1 V2000
  152.9572  142.7749  162.4687 C   0  0  0  0  0  0  0  0  0  0  0  0
  152.8318  143.4063  161.0699 C   0  0  2  0  0  0  0  0  0  0  0  0
  151.9734  144.6840  161.1578 C   0  0  0  0  0  0  0  0  0  0  0  0
  151.8403  145.3766  159.7975 C   0  0  0  0  0  0  0  0  0  0  0  0
  151.2437  144.4191  158.7623 C   0  0  0  0  0  0  0  0  0  0  0  0
  152.0870  143.1356  158.6347 C   0  0  2  0  0  0  0  0  0  0  0  0
  151.4565  142.2379  157.6683 N   0  0  0  0  0  0  0  0  0  0  0  0
  150.1853  141.8117  157.7148 C   0  0  0  0  0  0  0  0  0  0  0  0
  149.4038  142.1142  158.6176 O   0  0  0  0  0  0  0  0  0  0  0  0
  149.7452  140.8847  156.5727 C   0  0  0  0  0  0  0  0  0  0  0  0
  148.5844  141.3938  155.8284 N   0  0  0  0  0  0  0  0  0  0  0  0
  147.5296  141.8006  156.6313 N   0  0  0  0  0  0  0  0  0  0  0  0
  146.4593  142.2815  156.0949 C   0  0  0  0  0  0  0  0  0  0  0  0
  145.4401  142.6756  156.9267 O   0  0  0  0  0  0  0  0  0  0  0  0
  146.3311  142.4033  154.6590 C   0  0  0  0  0  0  0  0  0  0  0  0
  147.3616  141.9983  153.8849 C   0  0  0  0  0  0  0  0  0  0  0  0
  148.5898  141.4474  154.4607 C   0  0  0  0  0  0  0  0  0  0  0  0
  149.5423  141.0675  153.7797 O   0  0  0  0  0  0  0  0  0  0  0  0
  152.2689  142.4241  160.0032 C   0  0  1  0  0  0  0  0  0  0  0  0
  153.1478  141.1618  159.8590 C   0  0  0  0  0  0  0  0  0  0  0  0
  144.6462  142.3762  156.5114 H   0  0  0  0  0  0  0  0  0  0  0  0
  152.0034  142.3712  162.8093 H   0  0  0  0  0  0  0  0  0  0  0  0
  153.2840  143.5127  163.2021 H   0  0  0  0  0  0  0  0  0  0  0  0
  153.6908  141.9698  162.4885 H   0  0  0  0  0  0  0  0  0  0  0  0
  153.8330  143.7056  160.7561 H   0  0  0  0  0  0  0  0  0  0  0  0
  150.9811  144.4375  161.5386 H   0  0  0  0  0  0  0  0  0  0  0  0
  152.4121  145.3805  161.8734 H   0  0  0  0  0  0  0  0  0  0  0  0
  151.2121  146.2629  159.8901 H   0  0  0  0  0  0  0  0  0  0  0  0
  152.8185  145.7222  159.4607 H   0  0  0  0  0  0  0  0  0  0  0  0
  150.2222  144.1651  159.0492 H   0  0  0  0  0  0  0  0  0  0  0  0
  151.1771  144.9243  157.7980 H   0  0  0  0  0  0  0  0  0  0  0  0
  153.0784  143.4105  158.2687 H   0  0  0  0  0  0  0  0  0  0  0  0
  152.0280  141.9330  156.8939 H   0  0  0  0  0  0  0  0  0  0  0  0
  150.5801  140.7211  155.8883 H   0  0  0  0  0  0  0  0  0  0  0  0
  149.5214  139.9060  157.0010 H   0  0  0  0  0  0  0  0  0  0  0  0
  145.4293  142.8084  154.2242 H   0  0  0  0  0  0  0  0  0  0  0  0
  147.2800  142.0828  152.8113 H   0  0  0  0  0  0  0  0  0  0  0  0
  151.2834  142.0987  160.3408 H   0  0  0  0  0  0  0  0  0  0  0  0
  154.1682  141.4219  159.5752 H   0  0  0  0  0  0  0  0  0  0  0  0
  152.7610  140.4788  159.1029 H   0  0  0  0  0  0  0  0  0  0  0  0
  153.1935  140.5913  160.7857 H   0  0  0  0  0  0  0  0  0  0  0  0
  1  2  1  0  0  0  0
  1 22  1  0  0  0  0
  1 23  1  0  0  0  0
  1 24  1  0  0  0  0
  2 19  1  0  0  0  0
  2  3  1  0  0  0  0
  2 25  1  0  0  0  0
  3  4  1  0  0  0  0
  3 26  1  0  0  0  0
  3 27  1  0  0  0  0
  4  5  1  0  0  0  0
  4 28  1  0  0  0  0
  4 29  1  0  0  0  0
  5  6  1  0  0  0  0
  5 30  1  0  0  0  0
  5 31  1  0  0  0  0
  6  7  1  0  0  0  0
  6 19  1  0  0  0  0
  6 32  1  0  0  0  0
  7  8  1  0  0  0  0
  7 33  1  0  0  0  0
  8  9  2  0  0  0  0
  8 10  1  0  0  0  0
 10 34  1  0  0  0  0
 10 35  1  0  0  0  0
 10 11  1  0  0  0  0
 11 12  1  0  0  0  0
 11 17  1  0  0  0  0
 12 13  2  0  0  0  0
 13 14  1  0  0  0  0
 13 15  1  0  0  0  0
 14 21  1  0  0  0  0
 15 36  1  0  0  0  0
 15 16  2  0  0  0  0
 16 37  1  0  0  0  0
 16 17  1  0  0  0  0
 17 18  2  0  0  0  0
 19 20  1  0  0  0  0
 19 38  1  0  0  0  0
 20 39  1  0  0  0  0
 20 40  1  0  0  0  0
 20 41  1  0  0  0  0
M  END
> <s_m_source_file>
AV-unprocessed.smi

> <i_m_source_file_index>
1464

> <i_lp_mmshare_version>
43012

> <i_f3d_flags>
0

> <s_epik_input>
W0NIM11bQ0BASF0xW0NIMl1bQ0gyXVtDSDJdW0NASF0oW0NASF0xW0NIM10pW05IXUMoPU8pW0NIMl1uMltuSF1jKD1PKVtjSF1bY0hdYzI9Tw==

> <s_epik_cmdline>
J2VwaWtfcHl0aG9uJywgJy1waCcsICc3LjAnLCAnLXRuJywgJzgnLCAnLW1hJywgJzIwMCcsICctbWV0YWxfYmluZGluZycsICctaW1hZScsICc8aW5maWxlLm1hZT4nLCAnLW9tYWUnLCAnPG91dGZpbGUubWFlPic=

> <r_lp_tautomer_probability>
0.9996

> <r_epik_Ionization_Penalty>
2.10335

> <r_epik_Ionization_Penalty_Charging>
3.98079e-08

> <r_epik_Ionization_Penalty_Neutral>
2.10335

> <r_epik_State_Penalty>
1.67957

> <r_epik_Charging_Adjusted_Penalty>
1.67957

> <i_epik_Tot_Q>
0

> <i_epik_Tot_abs_Q>
0

> <r_epik_Metal_State_Penalty>
1.67957

> <b_epik_Metal_Only>
0

> <s_lp_Force_Field>
OPLS_2005

> <r_lp_Energy>
21.8095

> <b_lp_Chiralities_Consistent>
1

> <s_lp_Variant>
AV-unprocessed.smi:1464-11

> <Gold.Version>
5.8.1

> <Gold.Id.Protein>
6NUR|6NUR_protein|mol2

> <Gold.PLP.Fitness>
48.6896

> <Gold.PLP.PLP>
-45.1648

> <Gold.PLP.part.hbond>
-2.4396

> <Gold.PLP.part.metal>
0.0000

> <Gold.PLP.part.buried>
-6.0929

> <Gold.PLP.part.nonpolar>
-39.0387

> <Gold.PLP.part.repulsive>
2.5681

> <Gold.PLP.ligand.clash>
0.0000

> <Gold.PLP.ligand.torsion>
0.1732

> <Gold.PLP.Chemscore.Hbond>
1.2872

> <Gold.PLP.Chemscore.CHOScore>
0.0000

> <Gold.PLP.Chemscore.Metal>
0.0000

> <Gold.Chemscore.Hbonds>
donor molecule, donor type, donor heavy atom, donor atom, acceptor molecule, acceptor atom, score
      P1  H  7989  7998       L1    18  0.29
      P1  H  8011  8017       L1    18  0.94

> <Gold.PLP.Chemscore.Internal.Correction>
0.0097

> <Gold.Rescore>
     Score         DG    S(hbond)    S(metal)    S(lipo)     H(rot)  DE(clash)    DE(int)     intcor
     12.64     -15.92       0.98        0.00     109.84       2.22       0.96       2.32       ----

> <Gold.Chemscore.Fitness>
12.6426

> <Gold.Chemscore.DG>
-15.9222

> <Gold.Chemscore.ZeroCoef>
-5.4800

> <Gold.Chemscore.Hbond>
0.9822

> <Gold.Chemscore.Metal>
0.0000

> <Gold.Chemscore.Lipo>
109.8368

> <Gold.Chemscore.Internal_Hbond>
0.0000

> <Gold.Chemscore.DEClash>
0.9623

> <Gold.Chemscore.DEInternal>
2.3172

> <Gold.Chemscore.Rot>
2.2224

> <Gold.Chemscore.Internal.Correction>
   9.000000E+99

> <Gold.Chemscore.Hbonds>
donor molecule, donor type, donor heavy atom, donor atom, acceptor molecule, acceptor atom, score
      P1  H  7989  7998       L1    18  0.29
      P1  H  8011  8017       L1    18  0.53

> <Gold.Chemscore.Hbond.Weighted>
-3.2806

> <Gold.Chemscore.Metal.Weighted>
-0.0000

> <Gold.Chemscore.Lipo.Weighted>
-12.8509

> <Gold.Chemscore.Internal_Hbond.Weighted>
0.0000

> <Gold.Chemscore.DEClash.Weighted>
0.9623

> <Gold.Chemscore.DEInternal.Weighted>
2.3172

> <Gold.Chemscore.Rot.Weighted>
5.6893

> <Gold.Chemscore.Internal.Correction.Weighted>
   9.000000E+99

> <Gold.Protein.RotatedTorsions>
[ 6907 6896 6895 6894 ] final  150.97 input  -60.11 | X-H torsion
[ 7974 7965 7964 7962 ] final  -25.50 input  175.53 | X-H torsion
[ 8008 7997 7996 7995 ] final  150.86 input   59.86 | X-H torsion
[ 10167 10162 10161 10158 ] final  127.95 input  -65.29 | X-H torsion
[ 10718 10713 10712 10709 ] final -131.55 input   66.30 | X-H torsion
[ 10763 10752 10751 10750 ] final  -72.46 input  -60.55 | X-H torsion
[ 11005 11000 10999 10996 ] final   23.88 input  -57.11 | X-H torsion

> <Gold.Protein.ActiveResidues>
 VAL166  LYS551  ARG553  GLY616  TRP617  ASP618  TYR619  PRO620  LYS621  CYS622 
 ASP623  PHE694  ASN695  SER759  ASP760  ASP761  ALA762  ILE779  LEU786  VAL792 
 PHE793  MET794  SER795  GLU796  ALA797  LYS798  CYS799  TRP800  GLU811  SER814 

> <Gold.Protein.RotatedAtoms>
  152.1071  133.4280  159.4613 H   0  0  0  0  0  0  0  0  0  0  0  0  # atno 6907 bound_to 6896
  150.6866  134.2692  159.4590 H   0  0  0  0  0  0  0  0  0  0  0  0  # atno 6908 bound_to 6896
  152.0558  134.9625  160.0625 H   0  0  0  0  0  0  0  0  0  0  0  0  # atno 6909 bound_to 6896
  146.1487  140.4895  142.8621 H   0  0  0  0  0  0  0  0  0  0  0  0  # atno 7974 bound_to 7965
  156.2698  140.2063  156.6085 H   0  0  0  0  0  0  0  0  0  0  0  0  # atno 8008 bound_to 7997
  154.6850  140.0536  157.0329 H   0  0  0  0  0  0  0  0  0  0  0  0  # atno 8009 bound_to 7997
  155.0946  140.3200  155.4567 H   0  0  0  0  0  0  0  0  0  0  0  0  # atno 8010 bound_to 7997
  139.5552  144.6843  151.4204 H   0  0  0  0  0  0  0  0  0  0  0  0  # atno 10167 bound_to 10162
  156.2256  130.7005  151.0803 H   0  0  0  0  0  0  0  0  0  0  0  0  # atno 10718 bound_to 10713
  154.4459  135.5929  153.6160 H   0  0  0  0  0  0  0  0  0  0  0  0  # atno 10763 bound_to 10752
  152.9809  135.6009  154.3664 H   0  0  0  0  0  0  0  0  0  0  0  0  # atno 10764 bound_to 10752
  154.3520  135.2841  155.2346 H   0  0  0  0  0  0  0  0  0  0  0  0  # atno 10765 bound_to 10752
  140.3647  134.2087  155.7670 H   0  0  0  0  0  0  0  0  0  0  0  0  # atno 11005 bound_to 11000
  144.7877  140.5970  143.6562 LP  0  0  0  0  0  0  0  0  0  0  0  0  # atno 17320 bound_to 7965
  145.4876  139.1491  143.3727 LP  0  0  0  0  0  0  0  0  0  0  0  0  # atno 17321 bound_to 7965
  140.6823  143.8053  150.7138 LP  0  0  0  0  0  0  0  0  0  0  0  0  # atno 17342 bound_to 10162
  140.1510  143.4357  152.2131 LP  0  0  0  0  0  0  0  0  0  0  0  0  # atno 17343 bound_to 10162
  157.7109  131.0735  150.6505 LP  0  0  0  0  0  0  0  0  0  0  0  0  # atno 17370 bound_to 10713
  156.6570  130.4501  149.5700 LP  0  0  0  0  0  0  0  0  0  0  0  0  # atno 17371 bound_to 10713
  141.1973  133.8062  157.0633 LP  0  0  0  0  0  0  0  0  0  0  0  0  # atno 17394 bound_to 11000
  140.0598  134.9760  157.1285 LP  0  0  0  0  0  0  0  0  0  0  0  0  # atno 17395 bound_to 11000

$$$$
