AV-unprocessed.smi:2448|AV-procd|sdf|9653|dock9
  -GOLD-   2272013283D 1   1.00000     0.00000
 Structure written by MMmdl.
 37 38  0  0  0  0  0  0  0  0  1 V2000
  150.9695  144.1849  157.0429 O   0  0  0  0  0  0  0  0  0  0  0  0
  150.7907  143.3666  158.1852 C   0  0  1  0  0  0  0  0  0  0  0  0
  150.2074  142.0185  157.7153 C   0  0  0  0  0  0  0  0  0  0  0  0
  149.1379  142.1961  156.7317 N   0  0  0  0  0  0  0  0  0  0  0  0
  149.1076  141.2367  155.6172 C   0  0  1  0  0  0  0  0  0  0  0  0
  149.2942  139.7657  156.0750 C   0  0  0  0  0  0  0  0  0  0  0  0
  150.4394  139.0198  155.4079 C   0  0  0  0  0  0  0  0  0  0  0  0
  151.7664  139.4862  155.5215 C   0  0  0  0  0  0  0  0  0  0  0  0
  152.7934  138.7573  154.8891 C   0  0  0  0  0  0  0  0  0  0  0  0
  152.5744  137.6276  154.1829 N   0  0  0  0  0  0  0  0  0  0  0  0
  151.3044  137.1796  154.0872 C   0  0  0  0  0  0  0  0  0  0  0  0
  150.2060  137.8336  154.6802 C   0  0  0  0  0  0  0  0  0  0  0  0
  147.7933  141.4110  154.8269 C   0  0  0  0  0  0  0  0  0  0  0  0
  147.7429  142.6326  154.2936 F   0  0  0  0  0  0  0  0  0  0  0  0
  147.7290  140.5245  153.8332 F   0  0  0  0  0  0  0  0  0  0  0  0
  146.7377  141.2455  155.6248 F   0  0  0  0  0  0  0  0  0  0  0  0
  152.1188  143.2460  158.9542 C   0  0  0  0  0  0  0  0  0  0  0  0
  152.3842  144.5870  159.6458 C   0  0  0  0  0  0  0  0  0  0  0  0
  150.7836  145.2922  160.1116 S   0  0  0  0  0  0  0  0  0  0  0  0
  149.8287  144.0978  159.1375 C   0  0  0  0  0  0  0  0  0  0  0  0
  150.1353  144.2744  156.6079 H   0  0  0  0  0  0  0  0  0  0  0  0
  151.0053  141.4206  157.2730 H   0  0  0  0  0  0  0  0  0  0  0  0
  149.8489  141.4683  158.5828 H   0  0  0  0  0  0  0  0  0  0  0  0
  149.1788  143.1388  156.3570 H   0  0  0  0  0  0  0  0  0  0  0  0
  149.9060  141.4884  154.9187 H   0  0  0  0  0  0  0  0  0  0  0  0
  149.4014  139.7244  157.1597 H   0  0  0  0  0  0  0  0  0  0  0  0
  148.3944  139.1936  155.8486 H   0  0  0  0  0  0  0  0  0  0  0  0
  151.9960  140.3853  156.0743 H   0  0  0  0  0  0  0  0  0  0  0  0
  153.8186  139.0912  154.9530 H   0  0  0  0  0  0  0  0  0  0  0  0
  151.1582  136.2711  153.5218 H   0  0  0  0  0  0  0  0  0  0  0  0
  149.2099  137.4288  154.5775 H   0  0  0  0  0  0  0  0  0  0  0  0
  152.0246  142.4692  159.7145 H   0  0  0  0  0  0  0  0  0  0  0  0
  152.9511  142.9601  158.3098 H   0  0  0  0  0  0  0  0  0  0  0  0
  153.0330  144.4796  160.5151 H   0  0  0  0  0  0  0  0  0  0  0  0
  152.8694  145.2753  158.9533 H   0  0  0  0  0  0  0  0  0  0  0  0
  149.0042  144.5846  158.6153 H   0  0  0  0  0  0  0  0  0  0  0  0
  149.3903  143.3909  159.8427 H   0  0  0  0  0  0  0  0  0  0  0  0
  1  2  1  0  0  0  0
  1 21  1  0  0  0  0
  2 20  1  0  0  0  0
  2  3  1  0  0  0  0
  2 17  1  0  0  0  0
  3  4  1  0  0  0  0
  3 22  1  0  0  0  0
  3 23  1  0  0  0  0
  4  5  1  0  0  0  0
  4 24  1  0  0  0  0
  5  6  1  0  0  0  0
  5 13  1  0  0  0  0
  5 25  1  0  0  0  0
  6  7  1  0  0  0  0
  6 26  1  0  0  0  0
  6 27  1  0  0  0  0
  7 12  1  0  0  0  0
  7  8  2  0  0  0  0
  8  9  1  0  0  0  0
  8 28  1  0  0  0  0
  9 10  2  0  0  0  0
  9 29  1  0  0  0  0
 10 11  1  0  0  0  0
 11 12  2  0  0  0  0
 11 30  1  0  0  0  0
 12 31  1  0  0  0  0
 13 14  1  0  0  0  0
 13 15  1  0  0  0  0
 13 16  1  0  0  0  0
 17 18  1  0  0  0  0
 17 32  1  0  0  0  0
 17 33  1  0  0  0  0
 18 19  1  0  0  0  0
 18 34  1  0  0  0  0
 18 35  1  0  0  0  0
 19 20  1  0  0  0  0
 20 36  1  0  0  0  0
 20 37  1  0  0  0  0
M  END
> <s_m_source_file>
AV-unprocessed.smi

> <i_m_source_file_index>
2448

> <i_lp_mmshare_version>
43012

> <i_f3d_flags>
0

> <s_epik_input>
W0NIMl0xU1tDSDJdW0NIMl1bQ0BAXTEoW09IXSlbQ0gyXVtOSF1bQ0BASF0oQyhGKShGKUYpW0NIMl1jMltjSF1bY0hdbltjSF1bY0hdMg==

> <s_epik_cmdline>
J2VwaWtfcHl0aG9uJywgJy1waCcsICc3LjAnLCAnLXRuJywgJzgnLCAnLW1hJywgJzIwMCcsICctbWV0YWxfYmluZGluZycsICctaW1hZScsICc8aW5maWxlLm1hZT4nLCAnLW9tYWUnLCAnPG91dGZpbGUubWFlPic=

> <r_epik_Ionization_Penalty>
0.187708

> <r_epik_Ionization_Penalty_Charging>
0

> <r_epik_Ionization_Penalty_Neutral>
0.187708

> <r_epik_State_Penalty>
0.22769

> <r_epik_Charging_Adjusted_Penalty>
0.22769

> <i_epik_Tot_Q>
0

> <i_epik_Tot_abs_Q>
0

> <r_epik_Metal_State_Penalty>
0.176206

> <b_epik_Metal_Only>
0

> <s_lp_Force_Field>
OPLS_2005

> <r_lp_Energy>
32.0446

> <b_lp_Chiralities_Consistent>
1

> <s_lp_Variant>
AV-unprocessed.smi:2448-3

> <Gold.Version>
5.8.1

> <Gold.Id.Protein>
6NUR|6NUR_protein|mol2

> <Gold.PLP.Fitness>
45.1217

> <Gold.PLP.PLP>
-37.4786

> <Gold.PLP.part.hbond>
-3.0000

> <Gold.PLP.part.metal>
0.0000

> <Gold.PLP.part.buried>
-0.6565

> <Gold.PLP.part.nonpolar>
-35.8797

> <Gold.PLP.part.repulsive>
0.1175

> <Gold.PLP.ligand.clash>
0.0000

> <Gold.PLP.ligand.torsion>
1.2890

> <Gold.PLP.Chemscore.Hbond>
2.2728

> <Gold.PLP.Chemscore.CHOScore>
0.9764

> <Gold.PLP.Chemscore.Metal>
0.0000

> <Gold.Chemscore.Hbonds>
donor molecule, donor type, donor heavy atom, donor atom, acceptor molecule, acceptor atom, score
      L1  H     1    21       P1  8028  1.00
      L1  H     4    24       P1  8028  1.00
      P1  H 10752 10765       L1    10  0.23
      L1  C    11    30       P1  7949  1.00

> <Gold.PLP.Chemscore.Internal.Correction>
0.4736

> <Gold.Rescore>
     Score         DG    S(hbond)    S(metal)    S(lipo)     H(rot)  DE(clash)    DE(int)     intcor
     16.89     -19.97       2.22        0.00     111.15       2.31       1.84       1.24       ----

> <Gold.Chemscore.Fitness>
16.8857

> <Gold.Chemscore.DG>
-19.9711

> <Gold.Chemscore.ZeroCoef>
-5.4800

> <Gold.Chemscore.Hbond>
2.2165

> <Gold.Chemscore.Metal>
0.0000

> <Gold.Chemscore.Lipo>
111.1490

> <Gold.Chemscore.Internal_Hbond>
0.0000

> <Gold.Chemscore.DEClash>
1.8419

> <Gold.Chemscore.DEInternal>
1.2435

> <Gold.Chemscore.Rot>
2.3111

> <Gold.Chemscore.Internal.Correction>
   9.000000E+99

> <Gold.Chemscore.Hbonds>
donor molecule, donor type, donor heavy atom, donor atom, acceptor molecule, acceptor atom, score
      L1  H     1    21       P1  8028  0.97
      L1  H     4    24       P1  8028  1.00
      P1  H 10752 10765       L1    10  0.01

> <Gold.Chemscore.Hbond.Weighted>
-7.4030

> <Gold.Chemscore.Metal.Weighted>
-0.0000

> <Gold.Chemscore.Lipo.Weighted>
-13.0044

> <Gold.Chemscore.Internal_Hbond.Weighted>
0.0000

> <Gold.Chemscore.DEClash.Weighted>
1.8419

> <Gold.Chemscore.DEInternal.Weighted>
1.2435

> <Gold.Chemscore.Rot.Weighted>
5.9164

> <Gold.Chemscore.Internal.Correction.Weighted>
   9.000000E+99

> <Gold.Protein.RotatedTorsions>
[ 6907 6896 6895 6894 ] final  142.77 input  -60.11 | X-H torsion
[ 7974 7965 7964 7962 ] final   14.71 input  175.53 | X-H torsion
[ 8008 7997 7996 7995 ] final   70.59 input   59.86 | X-H torsion
[ 10167 10162 10161 10158 ] final  106.81 input  -65.29 | X-H torsion
[ 10718 10713 10712 10709 ] final  141.98 input   66.30 | X-H torsion
[ 10763 10752 10751 10750 ] final  122.23 input  -60.55 | X-H torsion
[ 11005 11000 10999 10996 ] final  165.61 input  -57.11 | X-H torsion

> <Gold.Protein.ActiveResidues>
 VAL166  LYS551  ARG553  GLY616  TRP617  ASP618  TYR619  PRO620  LYS621  CYS622 
 ASP623  PHE694  ASN695  SER759  ASP760  ASP761  ALA762  ILE779  LEU786  VAL792 
 PHE793  MET794  SER795  GLU796  ALA797  LYS798  CYS799  TRP800  GLU811  SER814 

> <Gold.Protein.RotatedAtoms>
  152.2146  133.4937  159.5128 H   0  0  0  0  0  0  0  0  0  0  0  0  # atno 6907 bound_to 6896
  150.6998  134.1423  159.4118 H   0  0  0  0  0  0  0  0  0  0  0  0  # atno 6908 bound_to 6896
  151.9342  135.0242  160.0582 H   0  0  0  0  0  0  0  0  0  0  0  0  # atno 6909 bound_to 6896
  146.2298  139.9001  142.8540 H   0  0  0  0  0  0  0  0  0  0  0  0  # atno 7974 bound_to 7965
  155.7411  140.3490  155.5104 H   0  0  0  0  0  0  0  0  0  0  0  0  # atno 8008 bound_to 7997
  155.9093  140.1047  157.1312 H   0  0  0  0  0  0  0  0  0  0  0  0  # atno 8009 bound_to 7997
  154.4054  140.1271  156.4524 H   0  0  0  0  0  0  0  0  0  0  0  0  # atno 8010 bound_to 7997
  139.6979  144.7099  151.1236 H   0  0  0  0  0  0  0  0  0  0  0  0  # atno 10167 bound_to 10162
  157.3858  131.0998  151.0695 H   0  0  0  0  0  0  0  0  0  0  0  0  # atno 10718 bound_to 10713
  153.6265  135.3404  155.3028 H   0  0  0  0  0  0  0  0  0  0  0  0  # atno 10763 bound_to 10752
  154.8589  135.4285  154.2152 H   0  0  0  0  0  0  0  0  0  0  0  0  # atno 10764 bound_to 10752
  153.3037  135.7026  153.7252 H   0  0  0  0  0  0  0  0  0  0  0  0  # atno 10765 bound_to 10752
  140.2579  134.7925  157.3563 H   0  0  0  0  0  0  0  0  0  0  0  0  # atno 11005 bound_to 11000
  145.2332  140.9981  143.3978 LP  0  0  0  0  0  0  0  0  0  0  0  0  # atno 17320 bound_to 7965
  144.9513  139.4080  143.6401 LP  0  0  0  0  0  0  0  0  0  0  0  0  # atno 17321 bound_to 7965
  140.7701  143.5466  150.9252 LP  0  0  0  0  0  0  0  0  0  0  0  0  # atno 17342 bound_to 10162
  139.9146  143.6678  152.3108 LP  0  0  0  0  0  0  0  0  0  0  0  0  # atno 17343 bound_to 10162
  157.1746  130.6282  149.5652 LP  0  0  0  0  0  0  0  0  0  0  0  0  # atno 17370 bound_to 10713
  155.9786  130.4773  150.6667 LP  0  0  0  0  0  0  0  0  0  0  0  0  # atno 17371 bound_to 10713
  140.1493  134.4870  155.7973 LP  0  0  0  0  0  0  0  0  0  0  0  0  # atno 17394 bound_to 11000
  141.2194  133.6856  156.7350 LP  0  0  0  0  0  0  0  0  0  0  0  0  # atno 17395 bound_to 11000

$$$$
