AV-unprocessed.smi:2790|AV-procd|sdf|10769|dock4
  -GOLD-   2272015203D 1   1.00000     0.00000
 Structure written by MMmdl.
 45 46  0  0  0  0  0  0  0  0  3 V2000
  146.5693  134.3594  153.3332 C   0  0  0  0  0  0  0  0  0  0  0  0
  147.9261  134.5191  153.8974 N   0  3  0  0  0  0  0  0  0  0  0  0
  148.7487  133.3003  153.7159 C   0  0  0  0  0  0  0  0  0  0  0  0
  147.9031  135.0108  155.2988 C   0  0  0  0  0  0  0  0  0  0  0  0
  147.2810  136.4097  155.3630 C   0  0  0  0  0  0  0  0  0  0  0  0
  146.1313  136.5609  154.9392 O   0  0  0  0  0  0  0  0  0  0  0  0
  148.1450  137.2985  155.9260 N   0  5  0  0  0  0  0  0  0  0  0  0
  147.8302  138.7103  156.1581 C   0  0  0  0  0  0  0  0  0  0  0  0
  148.7280  139.6602  155.2701 C   0  0  0  0  0  0  0  0  0  0  0  0
  150.2261  139.4384  155.6341 C   0  0  0  0  0  0  0  0  0  0  0  0
  150.7333  139.7704  156.9186 C   0  0  0  0  0  0  0  0  0  0  0  0
  152.0916  139.5413  157.2114 C   0  0  0  0  0  0  0  0  0  0  0  0
  152.9637  139.0172  156.3272 N   0  0  0  0  0  0  0  0  0  0  0  0
  152.4955  138.7025  155.1035 C   0  0  0  0  0  0  0  0  0  0  0  0
  151.1547  138.8843  154.7130 C   0  0  0  0  0  0  0  0  0  0  0  0
  148.4936  139.4196  153.7323 C   0  0  0  0  0  0  0  0  0  0  0  0
  147.1546  139.9299  153.1562 C   0  0  0  0  0  0  0  0  0  0  0  0
  146.9573  141.4195  153.4468 C   0  0  0  0  0  0  0  0  0  0  0  0
  147.0523  141.6866  154.9509 C   0  0  0  0  0  0  0  0  0  0  0  0
  148.3861  141.1705  155.5369 C   0  0  0  0  0  0  0  0  0  0  0  0
  146.0039  133.6047  153.8814 H   0  0  0  0  0  0  0  0  0  0  0  0
  146.6208  134.0580  152.2866 H   0  0  0  0  0  0  0  0  0  0  0  0
  146.0213  135.3012  153.3779 H   0  0  0  0  0  0  0  0  0  0  0  0
  148.3489  132.4680  154.2961 H   0  0  0  0  0  0  0  0  0  0  0  0
  149.7803  133.4704  154.0254 H   0  0  0  0  0  0  0  0  0  0  0  0
  148.7691  133.0049  152.6667 H   0  0  0  0  0  0  0  0  0  0  0  0
  147.3078  134.3447  155.9261 H   0  0  0  0  0  0  0  0  0  0  0  0
  148.9106  135.0149  155.7180 H   0  0  0  0  0  0  0  0  0  0  0  0
  146.7793  138.9083  155.9490 H   0  0  0  0  0  0  0  0  0  0  0  0
  147.9638  138.9932  157.2035 H   0  0  0  0  0  0  0  0  0  0  0  0
  150.0960  140.1786  157.6879 H   0  0  0  0  0  0  0  0  0  0  0  0
  152.4867  139.7823  158.1872 H   0  0  0  0  0  0  0  0  0  0  0  0
  153.2100  138.2780  154.4139 H   0  0  0  0  0  0  0  0  0  0  0  0
  150.8665  138.5844  153.7181 H   0  0  0  0  0  0  0  0  0  0  0  0
  149.2751  139.9463  153.1824 H   0  0  0  0  0  0  0  0  0  0  0  0
  148.6094  138.3692  153.4583 H   0  0  0  0  0  0  0  0  0  0  0  0
  147.1359  139.7644  152.0786 H   0  0  0  0  0  0  0  0  0  0  0  0
  146.3187  139.3581  153.5601 H   0  0  0  0  0  0  0  0  0  0  0  0
  147.7156  142.0011  152.9209 H   0  0  0  0  0  0  0  0  0  0  0  0
  145.9907  141.7513  153.0670 H   0  0  0  0  0  0  0  0  0  0  0  0
  146.9643  142.7576  155.1357 H   0  0  0  0  0  0  0  0  0  0  0  0
  146.2063  141.2256  155.4616 H   0  0  0  0  0  0  0  0  0  0  0  0
  148.4071  141.4164  156.5999 H   0  0  0  0  0  0  0  0  0  0  0  0
  149.1761  141.7780  155.0921 H   0  0  0  0  0  0  0  0  0  0  0  0
  148.3708  135.2545  153.3651 H   0  0  0  0  0  0  0  0  0  0  0  0
  1  2  1  0  0  0  0
  1 21  1  0  0  0  0
  1 22  1  0  0  0  0
  1 23  1  0  0  0  0
  2  3  1  0  0  0  0
  2  4  1  0  0  0  0
  2 45  1  0  0  0  0
  3 24  1  0  0  0  0
  3 25  1  0  0  0  0
  3 26  1  0  0  0  0
  4  5  1  0  0  0  0
  4 27  1  0  0  0  0
  4 28  1  0  0  0  0
  5  6  2  0  0  0  0
  5  7  1  0  0  0  0
  7  8  1  0  0  0  0
  8  9  1  0  0  0  0
  8 29  1  0  0  0  0
  8 30  1  0  0  0  0
  9 20  1  0  0  0  0
  9 10  1  0  0  0  0
  9 16  1  0  0  0  0
 10 15  1  0  0  0  0
 10 11  2  0  0  0  0
 11 12  1  0  0  0  0
 11 31  1  0  0  0  0
 12 13  2  0  0  0  0
 12 32  1  0  0  0  0
 13 14  1  0  0  0  0
 14 15  2  0  0  0  0
 14 33  1  0  0  0  0
 15 34  1  0  0  0  0
 16 17  1  0  0  0  0
 16 35  1  0  0  0  0
 16 36  1  0  0  0  0
 17 18  1  0  0  0  0
 17 37  1  0  0  0  0
 17 38  1  0  0  0  0
 18 19  1  0  0  0  0
 18 39  1  0  0  0  0
 18 40  1  0  0  0  0
 19 20  1  0  0  0  0
 19 41  1  0  0  0  0
 19 42  1  0  0  0  0
 20 43  1  0  0  0  0
 20 44  1  0  0  0  0
M  CHG  1   2   1
M  CHG  1   7  -1
M  END
> <s_m_source_file>
AV-unprocessed.smi

> <i_m_source_file_index>
2790

> <i_lp_mmshare_version>
43012

> <i_f3d_flags>
0

> <s_epik_input>
W0NIM11OKFtDSDNdKVtDSDJdQyg9TylbTkhdW0NIMl1DMShbQ0gyXVtDSDJdW0NIMl1bQ0gyXVtDSDJdMSljMltjSF1bY0hdbltjSF1bY0hdMg==

> <s_epik_cmdline>
J2VwaWtfcHl0aG9uJywgJy1waCcsICc3LjAnLCAnLXRuJywgJzgnLCAnLW1hJywgJzIwMCcsICctbWV0YWxfYmluZGluZycsICctaW1hZScsICc8aW5maWxlLm1hZT4nLCAnLW9tYWUnLCAnPG91dGZpbGUubWFlPic=

> <r_epik_Ionization_Penalty>
6.38592

> <r_epik_Ionization_Penalty_Charging>
6.21784

> <r_epik_Ionization_Penalty_Neutral>
0.168075

> <r_epik_State_Penalty>
6.29446

> <r_epik_Charging_Adjusted_Penalty>
12.5123

> <i_epik_Tot_Q>
0

> <i_epik_Tot_abs_Q>
2

> <r_epik_Metal_State_Penalty>
2.27801

> <b_epik_Metal_Only>
1

> <s_lp_Force_Field>
OPLS_2005

> <r_lp_Energy>
25.1562

> <b_lp_Chiralities_Consistent>
1

> <s_lp_Variant>
AV-unprocessed.smi:2790-4

> <Gold.Version>
5.8.1

> <Gold.Id.Protein>
6NUR|6NUR_protein|mol2

> <Gold.PLP.Fitness>
35.7680

> <Gold.PLP.PLP>
-27.0836

> <Gold.PLP.part.hbond>
-2.0000

> <Gold.PLP.part.metal>
0.0000

> <Gold.PLP.part.buried>
-0.0113

> <Gold.PLP.part.nonpolar>
-24.8715

> <Gold.PLP.part.repulsive>
0.0860

> <Gold.PLP.ligand.clash>
0.0000

> <Gold.PLP.ligand.torsion>
0.1936

> <Gold.PLP.Chemscore.Hbond>
3.0000

> <Gold.PLP.Chemscore.CHOScore>
0.0000

> <Gold.PLP.Chemscore.Metal>
0.0000

> <Gold.Chemscore.Hbonds>
donor molecule, donor type, donor heavy atom, donor atom, acceptor molecule, acceptor atom, score
      L1  H     2    45       P1  7948  2.00
      P1  H  7997  8008       L1    13  1.00

> <Gold.PLP.Chemscore.Internal.Correction>
0.0716

> <Gold.Rescore>
     Score         DG    S(hbond)    S(metal)    S(lipo)     H(rot)  DE(clash)    DE(int)     intcor
     13.80     -16.31       1.74        0.00      77.65       1.59       0.93       1.58       ----

> <Gold.Chemscore.Fitness>
13.8003

> <Gold.Chemscore.DG>
-16.3092

> <Gold.Chemscore.ZeroCoef>
-5.4800

> <Gold.Chemscore.Hbond>
1.7438

> <Gold.Chemscore.Metal>
0.0000

> <Gold.Chemscore.Lipo>
77.6516

> <Gold.Chemscore.Internal_Hbond>
0.0000

> <Gold.Chemscore.DEClash>
0.9259

> <Gold.Chemscore.DEInternal>
1.5830

> <Gold.Chemscore.Rot>
1.5938

> <Gold.Chemscore.Internal.Correction>
   9.000000E+99

> <Gold.Chemscore.Hbonds>
donor molecule, donor type, donor heavy atom, donor atom, acceptor molecule, acceptor atom, score
      L1  H     2    45       P1  7948  0.96
      P1  H  7997  8008       L1    13  0.42

> <Gold.Chemscore.Hbond.Weighted>
-5.8241

> <Gold.Chemscore.Metal.Weighted>
-0.0000

> <Gold.Chemscore.Lipo.Weighted>
-9.0852

> <Gold.Chemscore.Internal_Hbond.Weighted>
0.0000

> <Gold.Chemscore.DEClash.Weighted>
0.9259

> <Gold.Chemscore.DEInternal.Weighted>
1.5830

> <Gold.Chemscore.Rot.Weighted>
4.0802

> <Gold.Chemscore.Internal.Correction.Weighted>
   9.000000E+99

> <Gold.Protein.RotatedTorsions>
[ 6907 6896 6895 6894 ] final -159.69 input  -60.11 | X-H torsion
[ 7974 7965 7964 7962 ] final  -27.38 input  175.53 | X-H torsion
[ 8008 7997 7996 7995 ] final  -46.58 input   59.86 | X-H torsion
[ 10167 10162 10161 10158 ] final  -93.98 input  -65.29 | X-H torsion
[ 10718 10713 10712 10709 ] final  170.01 input   66.30 | X-H torsion
[ 10763 10752 10751 10750 ] final -151.37 input  -60.55 | X-H torsion
[ 11005 11000 10999 10996 ] final  -88.38 input  -57.11 | X-H torsion

> <Gold.Protein.ActiveResidues>
 VAL166  LYS551  ARG553  GLY616  TRP617  ASP618  TYR619  PRO620  LYS621  CYS622 
 ASP623  PHE694  ASN695  SER759  ASP760  ASP761  ALA762  ILE779  LEU786  VAL792 
 PHE793  MET794  SER795  GLU796  ALA797  LYS798  CYS799  TRP800  GLU811  SER814 

> <Gold.Protein.RotatedAtoms>
  151.3375  133.3976  159.2667 H   0  0  0  0  0  0  0  0  0  0  0  0  # atno 6907 bound_to 6896
  150.9905  134.9241  159.7907 H   0  0  0  0  0  0  0  0  0  0  0  0  # atno 6908 bound_to 6896
  152.5245  134.3340  159.9245 H   0  0  0  0  0  0  0  0  0  0  0  0  # atno 6909 bound_to 6896
  146.1362  140.5144  142.8672 H   0  0  0  0  0  0  0  0  0  0  0  0  # atno 7974 bound_to 7965
  154.4008  140.1368  156.4034 H   0  0  0  0  0  0  0  0  0  0  0  0  # atno 8008 bound_to 7997
  155.7802  140.3481  155.5273 H   0  0  0  0  0  0  0  0  0  0  0  0  # atno 8009 bound_to 7997
  155.8681  140.0967  157.1559 H   0  0  0  0  0  0  0  0  0  0  0  0  # atno 8010 bound_to 7997
  140.3191  143.3059  152.0065 H   0  0  0  0  0  0  0  0  0  0  0  0  # atno 10167 bound_to 10162
  157.0143  131.0213  151.2794 H   0  0  0  0  0  0  0  0  0  0  0  0  # atno 10718 bound_to 10713
  154.8062  135.3262  154.7425 H   0  0  0  0  0  0  0  0  0  0  0  0  # atno 10763 bound_to 10752
  153.8083  135.6898  153.4849 H   0  0  0  0  0  0  0  0  0  0  0  0  # atno 10764 bound_to 10752
  153.1809  135.4587  154.9972 H   0  0  0  0  0  0  0  0  0  0  0  0  # atno 10765 bound_to 10752
  141.1602  133.7566  156.9443 H   0  0  0  0  0  0  0  0  0  0  0  0  # atno 11005 bound_to 11000
  144.7742  140.5704  143.6649 LP  0  0  0  0  0  0  0  0  0  0  0  0  # atno 17320 bound_to 7965
  145.5151  139.1478  143.3583 LP  0  0  0  0  0  0  0  0  0  0  0  0  # atno 17321 bound_to 7965
  139.4878  144.6325  151.7042 LP  0  0  0  0  0  0  0  0  0  0  0  0  # atno 17342 bound_to 10162
  140.5499  144.0442  150.6123 LP  0  0  0  0  0  0  0  0  0  0  0  0  # atno 17343 bound_to 10162
  157.5297  130.8050  149.7902 LP  0  0  0  0  0  0  0  0  0  0  0  0  # atno 17370 bound_to 10713
  156.0125  130.3827  150.2219 LP  0  0  0  0  0  0  0  0  0  0  0  0  # atno 17371 bound_to 10713
  140.1300  134.9362  157.2324 LP  0  0  0  0  0  0  0  0  0  0  0  0  # atno 17394 bound_to 11000
  140.2965  134.3181  155.7301 LP  0  0  0  0  0  0  0  0  0  0  0  0  # atno 17395 bound_to 11000

$$$$
