AV-unprocessed.smi:516|AV-procd|sdf|2785|dock2
  -GOLD-   2262023263D 1   1.00000     0.00000
 Structure written by MMmdl.
 45 47  0  0  0  0  0  0  0  0  2 V2000
  150.9826  131.9684  156.6004 C   0  0  0  0  0  0  0  0  0  0  0  0
  150.2890  132.9064  157.4033 O   0  0  0  0  0  0  0  0  0  0  0  0
  149.2633  133.5810  156.6935 C   0  0  0  0  0  0  0  0  0  0  0  0
  149.8345  134.1864  155.4029 C   0  0  0  0  0  0  0  0  0  0  0  0
  149.2734  135.5036  155.1195 N   0  0  0  0  0  0  0  0  0  0  0  0
  148.0156  135.7965  154.6934 C   0  0  0  0  0  0  0  0  0  0  0  0
  146.9597  134.7584  154.4372 C   0  0  0  0  0  0  0  0  0  0  0  0
  146.7266  134.8084  152.9715 N   0  3  0  0  0  0  0  0  0  0  0  0
  146.4386  133.4707  152.4031 C   0  0  0  0  0  0  0  0  0  0  0  0
  146.2672  133.5586  150.8771 C   0  0  0  0  0  0  0  0  0  0  0  0
  145.2339  134.4846  150.5662 O   0  0  0  0  0  0  0  0  0  0  0  0
  145.5381  135.7948  151.0277 C   0  0  0  0  0  0  0  0  0  0  0  0
  145.6845  135.7829  152.5585 C   0  0  0  0  0  0  0  0  0  0  0  0
  147.7896  137.1020  154.5088 N   0  0  0  0  0  0  0  0  0  0  0  0
  149.0032  137.6842  154.8408 C   0  0  0  0  0  0  0  0  0  0  0  0
  149.9067  136.7436  155.2114 C   0  0  0  0  0  0  0  0  0  0  0  0
  151.2799  137.0858  155.6071 C   0  0  0  0  0  0  0  0  0  0  0  0
  152.1189  136.2521  155.9400 O   0  0  0  0  0  0  0  0  0  0  0  0
  151.5264  138.4178  155.5677 N   0  0  0  0  0  0  0  0  0  0  0  0
  150.6621  139.4152  155.2062 C   0  0  0  0  0  0  0  0  0  0  0  0
  151.0406  140.5857  155.2238 O   0  0  0  0  0  0  0  0  0  0  0  0
  149.3910  139.0521  154.8344 N   0  0  0  0  0  0  0  0  0  0  0  0
  148.3933  140.0395  154.4174 C   0  0  0  0  0  0  0  0  0  0  0  0
  152.4558  138.7084  155.8342 H   0  0  0  0  0  0  0  0  0  0  0  0
  151.7523  131.4762  157.1948 H   0  0  0  0  0  0  0  0  0  0  0  0
  151.4703  132.4568  155.7559 H   0  0  0  0  0  0  0  0  0  0  0  0
  150.3082  131.2001  156.2199 H   0  0  0  0  0  0  0  0  0  0  0  0
  148.4589  132.8834  156.4553 H   0  0  0  0  0  0  0  0  0  0  0  0
  148.8365  134.3705  157.3135 H   0  0  0  0  0  0  0  0  0  0  0  0
  150.9192  134.2629  155.4697 H   0  0  0  0  0  0  0  0  0  0  0  0
  149.6498  133.5234  154.5597 H   0  0  0  0  0  0  0  0  0  0  0  0
  147.3561  133.7867  154.7342 H   0  0  0  0  0  0  0  0  0  0  0  0
  146.0448  134.9287  155.0035 H   0  0  0  0  0  0  0  0  0  0  0  0
  147.2524  132.7847  152.6410 H   0  0  0  0  0  0  0  0  0  0  0  0
  145.5333  133.0664  152.8589 H   0  0  0  0  0  0  0  0  0  0  0  0
  147.1993  133.8591  150.3961 H   0  0  0  0  0  0  0  0  0  0  0  0
  146.0005  132.5824  150.4720 H   0  0  0  0  0  0  0  0  0  0  0  0
  146.4499  136.1600  150.5521 H   0  0  0  0  0  0  0  0  0  0  0  0
  144.7333  136.4683  150.7326 H   0  0  0  0  0  0  0  0  0  0  0  0
  144.7326  135.5195  153.0218 H   0  0  0  0  0  0  0  0  0  0  0  0
  145.9399  136.7859  152.9003 H   0  0  0  0  0  0  0  0  0  0  0  0
  148.7603  141.0662  154.4069 H   0  0  0  0  0  0  0  0  0  0  0  0
  147.5340  140.0060  155.0879 H   0  0  0  0  0  0  0  0  0  0  0  0
  148.0423  139.8107  153.4106 H   0  0  0  0  0  0  0  0  0  0  0  0
  147.5967  135.1118  152.5567 H   0  0  0  0  0  0  0  0  0  0  0  0
  1  2  1  0  0  0  0
  1 25  1  0  0  0  0
  1 26  1  0  0  0  0
  1 27  1  0  0  0  0
  2  3  1  0  0  0  0
  3  4  1  0  0  0  0
  3 28  1  0  0  0  0
  3 29  1  0  0  0  0
  4  5  1  0  0  0  0
  4 30  1  0  0  0  0
  4 31  1  0  0  0  0
  5 16  1  0  0  0  0
  5  6  1  0  0  0  0
  6  7  1  0  0  0  0
  6 14  2  0  0  0  0
  7  8  1  0  0  0  0
  7 32  1  0  0  0  0
  7 33  1  0  0  0  0
  8 13  1  0  0  0  0
  8  9  1  0  0  0  0
  8 45  1  0  0  0  0
  9 10  1  0  0  0  0
  9 34  1  0  0  0  0
  9 35  1  0  0  0  0
 10 11  1  0  0  0  0
 10 36  1  0  0  0  0
 10 37  1  0  0  0  0
 11 12  1  0  0  0  0
 12 13  1  0  0  0  0
 12 38  1  0  0  0  0
 12 39  1  0  0  0  0
 13 40  1  0  0  0  0
 13 41  1  0  0  0  0
 14 15  1  0  0  0  0
 15 22  1  0  0  0  0
 15 16  2  0  0  0  0
 16 17  1  0  0  0  0
 17 18  2  0  0  0  0
 17 19  1  0  0  0  0
 19 24  1  0  0  0  0
 19 20  1  0  0  0  0
 20 21  2  0  0  0  0
 20 22  1  0  0  0  0
 22 23  1  0  0  0  0
 23 42  1  0  0  0  0
 23 43  1  0  0  0  0
 23 44  1  0  0  0  0
M  CHG  1   8   1
M  END
> <s_m_source_file>
AV-unprocessed.smi

> <i_m_source_file_index>
516

> <i_lp_mmshare_version>
43012

> <i_f3d_flags>
0

> <s_epik_input>
W0NIM11uMWMoPU8pW25IXWMoPU8pYyhjMTIpbihbQ0gyXVtDSDJdT1tDSDNdKWMobjIpW0NIMl1OM1tDSDJdW0NIMl1PW0NIMl1bQ0gyXTM=

> <s_epik_cmdline>
J2VwaWtfcHl0aG9uJywgJy1waCcsICc3LjAnLCAnLXRuJywgJzgnLCAnLW1hJywgJzIwMCcsICctbWV0YWxfYmluZGluZycsICctaW1hZScsICc8aW5maWxlLm1hZT4nLCAnLW9tYWUnLCAnPG91dGZpbGUubWFlPic=

> <r_epik_Ionization_Penalty>
1.12077

> <r_epik_Ionization_Penalty_Charging>
1.12077

> <r_epik_Ionization_Penalty_Neutral>
4.43299e-09

> <r_epik_State_Penalty>
1.17893

> <r_epik_Charging_Adjusted_Penalty>
2.29969

> <i_epik_Tot_Q>
1

> <i_epik_Tot_abs_Q>
1

> <r_epik_Metal_State_Penalty>
1.32838

> <b_epik_Metal_Only>
0

> <s_lp_Force_Field>
OPLS_2005

> <r_lp_Energy>
36.1073

> <b_lp_Chiralities_Consistent>
1

> <s_lp_Variant>
AV-unprocessed.smi:516-2

> <Gold.Version>
5.8.1

> <Gold.Id.Protein>
6NUR|6NUR_protein|mol2

> <Gold.PLP.Fitness>
40.3358

> <Gold.PLP.PLP>
-27.2015

> <Gold.PLP.part.hbond>
-3.9270

> <Gold.PLP.part.metal>
0.0000

> <Gold.PLP.part.buried>
-3.3692

> <Gold.PLP.part.nonpolar>
-22.2048

> <Gold.PLP.part.repulsive>
1.5769

> <Gold.PLP.ligand.clash>
0.0000

> <Gold.PLP.ligand.torsion>
0.8680

> <Gold.PLP.Chemscore.Hbond>
4.9280

> <Gold.PLP.Chemscore.CHOScore>
0.0000

> <Gold.PLP.Chemscore.Metal>
0.0000

> <Gold.Chemscore.Hbonds>
donor molecule, donor type, donor heavy atom, donor atom, acceptor molecule, acceptor atom, score
      L1  H     8    45       P1  7948  2.00
      P1  H  6896  6907       L1     2  0.84
      P1  H  7989  7998       L1    21  0.93
      P1  H 10752 10763       L1    18  1.00

> <Gold.PLP.Chemscore.Internal.Correction>
0.0863

> <Gold.Rescore>
     Score         DG    S(hbond)    S(metal)    S(lipo)     H(rot)  DE(clash)    DE(int)     intcor
     15.79     -17.04       3.49        0.00      45.35       2.11       0.39       0.87       ----

> <Gold.Chemscore.Fitness>
15.7853

> <Gold.Chemscore.DG>
-17.0446

> <Gold.Chemscore.ZeroCoef>
-5.4800

> <Gold.Chemscore.Hbond>
3.4887

> <Gold.Chemscore.Metal>
0.0000

> <Gold.Chemscore.Lipo>
45.3481

> <Gold.Chemscore.Internal_Hbond>
0.0000

> <Gold.Chemscore.DEClash>
0.3921

> <Gold.Chemscore.DEInternal>
0.8672

> <Gold.Chemscore.Rot>
2.1069

> <Gold.Chemscore.Internal.Correction>
   9.000000E+99

> <Gold.Chemscore.Hbonds>
donor molecule, donor type, donor heavy atom, donor atom, acceptor molecule, acceptor atom, score
      L1  H     8    45       P1  7948  0.99
      P1  H  6896  6907       L1     2  0.74
      P1  H  7989  7998       L1    21  0.40
      P1  H 10752 10763       L1    18  0.92

> <Gold.Chemscore.Hbond.Weighted>
-11.6524

> <Gold.Chemscore.Metal.Weighted>
-0.0000

> <Gold.Chemscore.Lipo.Weighted>
-5.3057

> <Gold.Chemscore.Internal_Hbond.Weighted>
0.0000

> <Gold.Chemscore.DEClash.Weighted>
0.3921

> <Gold.Chemscore.DEInternal.Weighted>
0.8672

> <Gold.Chemscore.Rot.Weighted>
5.3936

> <Gold.Chemscore.Internal.Correction.Weighted>
   9.000000E+99

> <Gold.Protein.RotatedTorsions>
[ 6907 6896 6895 6894 ] final -154.27 input  -60.11 | X-H torsion
[ 7974 7965 7964 7962 ] final  179.57 input  175.53 | X-H torsion
[ 8008 7997 7996 7995 ] final  -84.20 input   59.86 | X-H torsion
[ 10167 10162 10161 10158 ] final   96.23 input  -65.29 | X-H torsion
[ 10718 10713 10712 10709 ] final -125.51 input   66.30 | X-H torsion
[ 10763 10752 10751 10750 ] final   69.64 input  -60.55 | X-H torsion
[ 11005 11000 10999 10996 ] final -176.66 input  -57.11 | X-H torsion

> <Gold.Protein.ActiveResidues>
 VAL166  LYS551  ARG553  GLY616  TRP617  ASP618  TYR619  PRO620  LYS621  CYS622 
 ASP623  PHE694  ASN695  SER759  ASP760  ASP761  ALA762  ILE779  LEU786  VAL792 
 PHE793  MET794  SER795  GLU796  ALA797  LYS798  CYS799  TRP800  GLU811  SER814 

> <Gold.Protein.RotatedAtoms>
  151.2550  133.4331  159.2613 H   0  0  0  0  0  0  0  0  0  0  0  0  # atno 6907 bound_to 6896
  151.0583  134.9719  159.8257 H   0  0  0  0  0  0  0  0  0  0  0  0  # atno 6908 bound_to 6896
  152.5394  134.2501  159.8948 H   0  0  0  0  0  0  0  0  0  0  0  0  # atno 6909 bound_to 6896
  144.7144  140.0569  143.6434 H   0  0  0  0  0  0  0  0  0  0  0  0  # atno 7974 bound_to 7965
  154.6273  140.0608  156.9688 H   0  0  0  0  0  0  0  0  0  0  0  0  # atno 8008 bound_to 7997
  155.1722  140.3292  155.4372 H   0  0  0  0  0  0  0  0  0  0  0  0  # atno 8009 bound_to 7997
  156.2464  140.1912  156.6824 H   0  0  0  0  0  0  0  0  0  0  0  0  # atno 8010 bound_to 7997
  139.7913  144.6851  150.9888 H   0  0  0  0  0  0  0  0  0  0  0  0  # atno 10167 bound_to 10162
  156.1682  130.6649  151.0144 H   0  0  0  0  0  0  0  0  0  0  0  0  # atno 10718 bound_to 10713
  153.0298  135.5203  154.7319 H   0  0  0  0  0  0  0  0  0  0  0  0  # atno 10763 bound_to 10752
  154.6344  135.2904  155.0181 H   0  0  0  0  0  0  0  0  0  0  0  0  # atno 10764 bound_to 10752
  154.1121  135.6620  153.4939 H   0  0  0  0  0  0  0  0  0  0  0  0  # atno 10765 bound_to 10752
  140.4496  134.6355  157.4795 H   0  0  0  0  0  0  0  0  0  0  0  0  # atno 11005 bound_to 11000
  145.9897  139.3005  143.0992 LP  0  0  0  0  0  0  0  0  0  0  0  0  # atno 17320 bound_to 7965
  145.8917  140.9300  143.0549 LP  0  0  0  0  0  0  0  0  0  0  0  0  # atno 17321 bound_to 7965
  140.7820  143.4377  151.0598 LP  0  0  0  0  0  0  0  0  0  0  0  0  # atno 17342 bound_to 10162
  139.8054  143.8025  152.3167 LP  0  0  0  0  0  0  0  0  0  0  0  0  # atno 17343 bound_to 10162
  157.6783  131.0844  150.7436 LP  0  0  0  0  0  0  0  0  0  0  0  0  # atno 17370 bound_to 10713
  156.7496  130.4764  149.5459 LP  0  0  0  0  0  0  0  0  0  0  0  0  # atno 17371 bound_to 10713
  140.0015  134.6828  155.9522 LP  0  0  0  0  0  0  0  0  0  0  0  0  # atno 17394 bound_to 11000
  141.1670  133.6537  156.4514 LP  0  0  0  0  0  0  0  0  0  0  0  0  # atno 17395 bound_to 11000

$$$$
