AV-unprocessed.smi:1952|AV-procd|sdf|7883|dock1
  -GOLD-   2272010 33D 1   1.00000     0.00000
 Structure written by MMmdl.
 39 40  0  0  0  0  0  0  0  0  1 V2000
  151.1216  141.1591  156.2642 C   0  0  0  0  0  0  0  0  0  0  0  0
  151.1533  139.7564  155.7619 C   0  0  0  0  0  0  0  0  0  0  0  0
  150.2174  138.9613  155.1624 C   0  0  0  0  0  0  0  0  0  0  0  0
  150.9200  137.7458  154.9479 C   0  0  0  0  0  0  0  0  0  0  0  0
  150.2859  136.6386  154.3289 N   0  0  0  0  0  0  0  0  0  0  0  0
  150.0121  135.4414  154.8742 C   0  0  0  0  0  0  0  0  0  0  0  0
  150.2750  135.1145  156.0318 O   0  0  0  0  0  0  0  0  0  0  0  0
  149.4041  134.6347  153.9912 N   0  0  0  0  0  0  0  0  0  0  0  0
  148.9403  133.2731  154.2535 C   0  0  2  0  0  0  0  0  0  0  0  0
  149.9939  132.5410  155.0953 C   0  0  0  0  0  0  0  0  0  0  0  0
  148.6770  132.5319  152.9246 C   0  0  0  0  0  0  0  0  0  0  0  0
  147.2940  132.5566  152.4463 N   0  0  0  0  0  0  0  0  0  0  0  0
  147.0269  133.7617  151.6693 C   0  0  0  0  0  0  0  0  0  0  0  0
  145.5729  133.8111  151.1685 C   0  0  0  0  0  0  0  0  0  0  0  0
  145.2917  132.6439  150.4033 O   0  0  0  0  0  0  0  0  0  0  0  0
  145.5005  131.4423  151.1381 C   0  0  0  0  0  0  0  0  0  0  0  0
  146.9548  131.3881  151.6367 C   0  0  0  0  0  0  0  0  0  0  0  0
  152.1714  137.7941  155.3787 N   0  0  0  0  0  0  0  0  0  0  0  0
  152.3273  139.0830  155.9022 O   0  0  0  0  0  0  0  0  0  0  0  0
  150.1214  141.5829  156.1737 H   0  0  0  0  0  0  0  0  0  0  0  0
  151.8081  141.7880  155.6972 H   0  0  0  0  0  0  0  0  0  0  0  0
  151.4125  141.2007  157.3138 H   0  0  0  0  0  0  0  0  0  0  0  0
  149.1959  139.2121  154.9177 H   0  0  0  0  0  0  0  0  0  0  0  0
  150.0101  136.7729  153.3676 H   0  0  0  0  0  0  0  0  0  0  0  0
  149.2303  134.9967  153.0651 H   0  0  0  0  0  0  0  0  0  0  0  0
  148.0266  133.2932  154.8482 H   0  0  0  0  0  0  0  0  0  0  0  0
  149.6713  131.5261  155.3290 H   0  0  0  0  0  0  0  0  0  0  0  0
  150.1683  133.0557  156.0409 H   0  0  0  0  0  0  0  0  0  0  0  0
  150.9476  132.4745  154.5708 H   0  0  0  0  0  0  0  0  0  0  0  0
  149.3198  132.9783  152.1641 H   0  0  0  0  0  0  0  0  0  0  0  0
  149.0070  131.4962  153.0178 H   0  0  0  0  0  0  0  0  0  0  0  0
  147.2276  134.6456  152.2754 H   0  0  0  0  0  0  0  0  0  0  0  0
  147.7040  133.8090  150.8150 H   0  0  0  0  0  0  0  0  0  0  0  0
  144.8779  133.8813  152.0065 H   0  0  0  0  0  0  0  0  0  0  0  0
  145.4161  134.6922  150.5461 H   0  0  0  0  0  0  0  0  0  0  0  0
  144.8042  131.3942  151.9769 H   0  0  0  0  0  0  0  0  0  0  0  0
  145.2872  130.5885  150.4948 H   0  0  0  0  0  0  0  0  0  0  0  0
  147.6281  131.3221  150.7807 H   0  0  0  0  0  0  0  0  0  0  0  0
  147.0899  130.4724  152.2104 H   0  0  0  0  0  0  0  0  0  0  0  0
  1  2  1  0  0  0  0
  1 20  1  0  0  0  0
  1 21  1  0  0  0  0
  1 22  1  0  0  0  0
  2 19  1  0  0  0  0
  2  3  2  0  0  0  0
  3  4  1  0  0  0  0
  3 23  1  0  0  0  0
  4  5  1  0  0  0  0
  4 18  2  0  0  0  0
  5  6  1  0  0  0  0
  5 24  1  0  0  0  0
  6  7  2  0  0  0  0
  6  8  1  0  0  0  0
  8  9  1  0  0  0  0
  8 25  1  0  0  0  0
  9 10  1  0  0  0  0
  9 11  1  0  0  0  0
  9 26  1  0  0  0  0
 10 27  1  0  0  0  0
 10 28  1  0  0  0  0
 10 29  1  0  0  0  0
 11 12  1  0  0  0  0
 11 30  1  0  0  0  0
 11 31  1  0  0  0  0
 12 17  1  0  0  0  0
 12 13  1  0  0  0  0
 13 14  1  0  0  0  0
 13 32  1  0  0  0  0
 13 33  1  0  0  0  0
 14 15  1  0  0  0  0
 14 34  1  0  0  0  0
 14 35  1  0  0  0  0
 15 16  1  0  0  0  0
 16 17  1  0  0  0  0
 16 36  1  0  0  0  0
 16 37  1  0  0  0  0
 17 38  1  0  0  0  0
 17 39  1  0  0  0  0
 18 19  1  0  0  0  0
M  END
> <s_m_source_file>
AV-unprocessed.smi

> <i_m_source_file_index>
1952

> <i_lp_mmshare_version>
43012

> <i_f3d_flags>
0

> <s_epik_input>
W0NIM11jMVtjSF1jKG5vMSlbTkhdQyg9TylbTkhdW0NASF0oW0NIM10pW0NIMl1OMltDSDJdW0NIMl1PW0NIMl1bQ0gyXTI=

> <s_epik_cmdline>
J2VwaWtfcHl0aG9uJywgJy1waCcsICc3LjAnLCAnLXRuJywgJzgnLCAnLW1hJywgJzIwMCcsICctbWV0YWxfYmluZGluZycsICctaW1hZScsICc8aW5maWxlLm1hZT4nLCAnLW9tYWUnLCAnPG91dGZpbGUubWFlPic=

> <r_epik_Ionization_Penalty>
0.214075

> <r_epik_Ionization_Penalty_Charging>
0

> <r_epik_Ionization_Penalty_Neutral>
0.214075

> <r_epik_State_Penalty>
0.204211

> <r_epik_Charging_Adjusted_Penalty>
0.204211

> <i_epik_Tot_Q>
0

> <i_epik_Tot_abs_Q>
0

> <r_epik_Metal_State_Penalty>
0.218782

> <b_epik_Metal_Only>
0

> <s_lp_Force_Field>
OPLS_2005

> <r_lp_Energy>
23.1599

> <b_lp_Chiralities_Consistent>
1

> <s_lp_Variant>
AV-unprocessed.smi:1952-1

> <Gold.Version>
5.8.1

> <Gold.Id.Protein>
6NUR|6NUR_protein|mol2

> <Gold.PLP.Fitness>
36.3485

> <Gold.PLP.PLP>
-29.9321

> <Gold.PLP.part.hbond>
-4.4198

> <Gold.PLP.part.metal>
0.0000

> <Gold.PLP.part.buried>
-4.1101

> <Gold.PLP.part.nonpolar>
-22.0067

> <Gold.PLP.part.repulsive>
0.4028

> <Gold.PLP.ligand.clash>
0.0000

> <Gold.PLP.ligand.torsion>
1.6508

> <Gold.PLP.Chemscore.Hbond>
3.2072

> <Gold.PLP.Chemscore.CHOScore>
0.0000

> <Gold.PLP.Chemscore.Metal>
0.0000

> <Gold.Chemscore.Hbonds>
donor molecule, donor type, donor heavy atom, donor atom, acceptor molecule, acceptor atom, score
      L1  H     5    24       P1  7948  0.85
      L1  H     8    25       P1  7948  0.55
      P1  H  7997  8009       L1    19  0.32

> <Gold.PLP.Chemscore.Internal.Correction>
0.0965

> <Gold.Rescore>
     Score         DG    S(hbond)    S(metal)    S(lipo)     H(rot)  DE(clash)    DE(int)     intcor
     12.02     -14.79       2.14        0.00      52.53       1.56       0.01       2.77       ----

> <Gold.Chemscore.Fitness>
12.0212

> <Gold.Chemscore.DG>
-14.7939

> <Gold.Chemscore.ZeroCoef>
-5.4800

> <Gold.Chemscore.Hbond>
2.1441

> <Gold.Chemscore.Metal>
0.0000

> <Gold.Chemscore.Lipo>
52.5251

> <Gold.Chemscore.Internal_Hbond>
0.0000

> <Gold.Chemscore.DEClash>
0.0059

> <Gold.Chemscore.DEInternal>
2.7668

> <Gold.Chemscore.Rot>
1.5597

> <Gold.Chemscore.Internal.Correction>
   9.000000E+99

> <Gold.Chemscore.Hbonds>
donor molecule, donor type, donor heavy atom, donor atom, acceptor molecule, acceptor atom, score
      L1  H     5    24       P1  7948  0.14
      L1  H     8    25       P1  7948  0.03
      P1  H  7997  8009       L1    19  0.33
      P1  H 10752 10763       L1    18  0.01

> <Gold.Chemscore.Hbond.Weighted>
-7.1612

> <Gold.Chemscore.Metal.Weighted>
-0.0000

> <Gold.Chemscore.Lipo.Weighted>
-6.1454

> <Gold.Chemscore.Internal_Hbond.Weighted>
0.0000

> <Gold.Chemscore.DEClash.Weighted>
0.0059

> <Gold.Chemscore.DEInternal.Weighted>
2.7668

> <Gold.Chemscore.Rot.Weighted>
3.9928

> <Gold.Chemscore.Internal.Correction.Weighted>
   9.000000E+99

> <Gold.Protein.RotatedTorsions>
[ 6907 6896 6895 6894 ] final  -31.47 input  -60.11 | X-H torsion
[ 7974 7965 7964 7962 ] final  -97.30 input  175.53 | X-H torsion
[ 8008 7997 7996 7995 ] final -154.20 input   59.86 | X-H torsion
[ 10167 10162 10161 10158 ] final   93.45 input  -65.29 | X-H torsion
[ 10718 10713 10712 10709 ] final  -78.61 input   66.30 | X-H torsion
[ 10763 10752 10751 10750 ] final   61.24 input  -60.55 | X-H torsion
[ 11005 11000 10999 10996 ] final  -28.53 input  -57.11 | X-H torsion

> <Gold.Protein.ActiveResidues>
 VAL166  LYS551  ARG553  GLY616  TRP617  ASP618  TYR619  PRO620  LYS621  CYS622 
 ASP623  PHE694  ASN695  SER759  ASP760  ASP761  ALA762  ILE779  LEU786  VAL792 
 PHE793  MET794  SER795  GLU796  ALA797  LYS798  CYS799  TRP800  GLU811  SER814 

> <Gold.Protein.RotatedAtoms>
  151.0917  134.9920  159.8405 H   0  0  0  0  0  0  0  0  0  0  0  0  # atno 6907 bound_to 6896
  152.5429  134.2058  159.8740 H   0  0  0  0  0  0  0  0  0  0  0  0  # atno 6908 bound_to 6896
  151.2094  133.4520  159.2631 H   0  0  0  0  0  0  0  0  0  0  0  0  # atno 6909 bound_to 6896
  145.3355  140.9450  143.2637 H   0  0  0  0  0  0  0  0  0  0  0  0  # atno 7974 bound_to 7965
  155.6827  140.0746  157.2478 H   0  0  0  0  0  0  0  0  0  0  0  0  # atno 8008 bound_to 7997
  154.4102  140.1679  156.2052 H   0  0  0  0  0  0  0  0  0  0  0  0  # atno 8009 bound_to 7997
  155.9520  140.3376  155.6419 H   0  0  0  0  0  0  0  0  0  0  0  0  # atno 8010 bound_to 7997
  139.8178  144.6745  150.9557 H   0  0  0  0  0  0  0  0  0  0  0  0  # atno 10167 bound_to 10162
  156.0113  130.4523  150.3523 H   0  0  0  0  0  0  0  0  0  0  0  0  # atno 10718 bound_to 10713
  152.9944  135.5507  154.6003 H   0  0  0  0  0  0  0  0  0  0  0  0  # atno 10763 bound_to 10752
  154.5345  135.2815  155.1152 H   0  0  0  0  0  0  0  0  0  0  0  0  # atno 10764 bound_to 10752
  154.2454  135.6408  153.5274 H   0  0  0  0  0  0  0  0  0  0  0  0  # atno 10765 bound_to 10752
  140.9216  133.7395  156.0809 H   0  0  0  0  0  0  0  0  0  0  0  0  # atno 11005 bound_to 11000
  144.8831  139.4877  143.6713 LP  0  0  0  0  0  0  0  0  0  0  0  0  # atno 17320 bound_to 7965
  146.3028  139.7483  142.9078 LP  0  0  0  0  0  0  0  0  0  0  0  0  # atno 17321 bound_to 7965
  140.7815  143.4121  151.0976 LP  0  0  0  0  0  0  0  0  0  0  0  0  # atno 17342 bound_to 10162
  139.7784  143.8392  152.3133 LP  0  0  0  0  0  0  0  0  0  0  0  0  # atno 17343 bound_to 10162
  157.1615  131.0346  151.2839 LP  0  0  0  0  0  0  0  0  0  0  0  0  # atno 17370 bound_to 10713
  157.4307  130.7489  149.6988 LP  0  0  0  0  0  0  0  0  0  0  0  0  # atno 17371 bound_to 10713
  140.7980  134.3541  157.5447 LP  0  0  0  0  0  0  0  0  0  0  0  0  # atno 17394 bound_to 11000
  139.8776  134.9180  156.3193 LP  0  0  0  0  0  0  0  0  0  0  0  0  # atno 17395 bound_to 11000

$$$$
