AV-unprocessed.smi:3205|AV-procd|sdf|12255|dock6
  -GOLD-   2272018 93D 1   1.00000     0.00000
 Structure written by MMmdl.
 38 39  0  0  0  0  0  0  0  0  2 V2000
  148.6760  141.2465  154.0107 C   0  0  0  0  0  0  0  0  0  0  0  0
  149.7132  141.1534  155.1472 C   0  0  1  0  0  0  0  0  0  0  0  0
  149.1745  141.7930  156.3694 N   0  3  0  0  0  0  0  0  0  0  0  0
  150.0206  141.6841  157.5775 C   0  0  0  0  0  0  0  0  0  0  0  0
  151.2424  142.6119  157.4886 C   0  0  0  0  0  0  0  0  0  0  0  0
  151.6273  143.1333  158.7882 N   0  0  0  0  0  0  0  0  0  0  0  0
  152.0446  142.4357  159.9023 C   0  0  0  0  0  0  0  0  0  0  0  0
  152.2823  143.3501  160.8881 C   0  0  0  0  0  0  0  0  0  0  0  0
  151.9801  144.5973  160.2738 C   0  0  0  0  0  0  0  0  0  0  0  0
  151.5861  144.4640  159.0174 N   0  0  0  0  0  0  0  0  0  0  0  0
  150.1319  139.6938  155.4662 C   0  0  0  0  0  0  0  0  0  0  0  0
  151.5991  139.6083  155.9427 C   0  0  0  0  0  0  0  0  0  0  0  0
  152.0255  138.1525  156.1884 C   0  0  0  0  0  0  0  0  0  0  0  0
  151.8449  137.3904  155.0022 O   0  0  0  0  0  0  0  0  0  0  0  0
  150.4850  137.3302  154.5919 C   0  0  0  0  0  0  0  0  0  0  0  0
  149.9692  138.7407  154.2633 C   0  0  0  0  0  0  0  0  0  0  0  0
  149.0776  140.8822  153.0658 H   0  0  0  0  0  0  0  0  0  0  0  0
  148.3652  142.2755  153.8319 H   0  0  0  0  0  0  0  0  0  0  0  0
  147.7816  140.6666  154.2409 H   0  0  0  0  0  0  0  0  0  0  0  0
  150.6087  141.6976  154.8434 H   0  0  0  0  0  0  0  0  0  0  0  0
  148.9762  142.7651  156.1806 H   0  0  0  0  0  0  0  0  0  0  0  0
  149.4366  141.9326  158.4649 H   0  0  0  0  0  0  0  0  0  0  0  0
  150.3546  140.6533  157.6929 H   0  0  0  0  0  0  0  0  0  0  0  0
  152.0920  142.0654  157.0771 H   0  0  0  0  0  0  0  0  0  0  0  0
  151.0494  143.4448  156.8106 H   0  0  0  0  0  0  0  0  0  0  0  0
  152.1352  141.3593  159.9022 H   0  0  0  0  0  0  0  0  0  0  0  0
  152.6218  143.1575  161.8951 H   0  0  0  0  0  0  0  0  0  0  0  0
  152.0334  145.5880  160.7005 H   0  0  0  0  0  0  0  0  0  0  0  0
  149.4943  139.3239  156.2711 H   0  0  0  0  0  0  0  0  0  0  0  0
  152.2576  140.0533  155.1955 H   0  0  0  0  0  0  0  0  0  0  0  0
  151.7448  140.1769  156.8613 H   0  0  0  0  0  0  0  0  0  0  0  0
  153.0771  138.1143  156.4732 H   0  0  0  0  0  0  0  0  0  0  0  0
  151.4575  137.7123  157.0096 H   0  0  0  0  0  0  0  0  0  0  0  0
  150.4128  136.6917  153.7113 H   0  0  0  0  0  0  0  0  0  0  0  0
  149.8785  136.8660  155.3711 H   0  0  0  0  0  0  0  0  0  0  0  0
  148.9236  138.6634  153.9670 H   0  0  0  0  0  0  0  0  0  0  0  0
  150.5120  139.1334  153.4024 H   0  0  0  0  0  0  0  0  0  0  0  0
  148.3027  141.3306  156.5872 H   0  0  0  0  0  0  0  0  0  0  0  0
  1  2  1  0  0  0  0
  1 17  1  0  0  0  0
  1 18  1  0  0  0  0
  1 19  1  0  0  0  0
  2  3  1  0  0  0  0
  2 11  1  0  0  0  0
  2 20  1  0  0  0  0
  3  4  1  0  0  0  0
  3 21  1  0  0  0  0
  3 38  1  0  0  0  0
  4  5  1  0  0  0  0
  4 22  1  0  0  0  0
  4 23  1  0  0  0  0
  5  6  1  0  0  0  0
  5 24  1  0  0  0  0
  5 25  1  0  0  0  0
  6 10  1  0  0  0  0
  6  7  1  0  0  0  0
  7  8  2  0  0  0  0
  7 26  1  0  0  0  0
  8  9  1  0  0  0  0
  8 27  1  0  0  0  0
  9 10  2  0  0  0  0
  9 28  1  0  0  0  0
 11 16  1  0  0  0  0
 11 12  1  0  0  0  0
 11 29  1  0  0  0  0
 12 13  1  0  0  0  0
 12 30  1  0  0  0  0
 12 31  1  0  0  0  0
 13 14  1  0  0  0  0
 13 32  1  0  0  0  0
 13 33  1  0  0  0  0
 14 15  1  0  0  0  0
 15 16  1  0  0  0  0
 15 34  1  0  0  0  0
 15 35  1  0  0  0  0
 16 36  1  0  0  0  0
 16 37  1  0  0  0  0
M  CHG  1   3   1
M  END
> <s_m_source_file>
AV-unprocessed.smi

> <i_m_source_file_index>
3205

> <i_lp_mmshare_version>
43012

> <i_f3d_flags>
0

> <s_epik_input>
W0NIMl0xW0NIMl1PW0NIMl1bQ0gyXVtDSF0xW0NASF0oW0NIM10pW05IXVtDSDJdW0NIMl1uMltjSF1bY0hdW2NIXW4y

> <s_epik_cmdline>
J2VwaWtfcHl0aG9uJywgJy1waCcsICc3LjAnLCAnLXRuJywgJzgnLCAnLW1hJywgJzIwMCcsICctbWV0YWxfYmluZGluZycsICctaW1hZScsICc8aW5maWxlLm1hZT4nLCAnLW9tYWUnLCAnPG91dGZpbGUubWFlPic=

> <r_lp_tautomer_probability>
1

> <r_epik_Ionization_Penalty>
0.00310903

> <r_epik_Ionization_Penalty_Charging>
0.00310601

> <r_epik_Ionization_Penalty_Neutral>
3.02836e-06

> <r_epik_State_Penalty>
-0

> <r_epik_Charging_Adjusted_Penalty>
0.00310601

> <i_epik_Tot_Q>
1

> <i_epik_Tot_abs_Q>
1

> <r_epik_Metal_State_Penalty>
-0

> <b_epik_Metal_Only>
0

> <s_lp_Force_Field>
OPLS_2005

> <r_lp_Energy>
14.7607

> <b_lp_Chiralities_Consistent>
1

> <s_lp_Variant>
AV-unprocessed.smi:3205-2

> <Gold.Version>
5.8.1

> <Gold.Id.Protein>
6NUR|6NUR_protein|mol2

> <Gold.PLP.Fitness>
45.3586

> <Gold.PLP.PLP>
-40.7285

> <Gold.PLP.part.hbond>
-2.0000

> <Gold.PLP.part.metal>
0.0000

> <Gold.PLP.part.buried>
-2.4580

> <Gold.PLP.part.nonpolar>
-36.0792

> <Gold.PLP.part.repulsive>
0.2450

> <Gold.PLP.ligand.clash>
0.0000

> <Gold.PLP.ligand.torsion>
1.1167

> <Gold.PLP.Chemscore.Hbond>
2.2746

> <Gold.PLP.Chemscore.CHOScore>
0.0000

> <Gold.PLP.Chemscore.Metal>
0.0000

> <Gold.Chemscore.Hbonds>
donor molecule, donor type, donor heavy atom, donor atom, acceptor molecule, acceptor atom, score
      L1  H     3    21       P1  8028  2.00
      P1  H 10752 10764       L1    14  0.69

> <Gold.PLP.Chemscore.Internal.Correction>
0.0399

> <Gold.Rescore>
     Score         DG    S(hbond)    S(metal)    S(lipo)     H(rot)  DE(clash)    DE(int)     intcor
     17.21     -18.99       1.80        0.00     100.54       1.66       0.12       1.67       ----

> <Gold.Chemscore.Fitness>
17.2057

> <Gold.Chemscore.DG>
-18.9932

> <Gold.Chemscore.ZeroCoef>
-5.4800

> <Gold.Chemscore.Hbond>
1.7959

> <Gold.Chemscore.Metal>
0.0000

> <Gold.Chemscore.Lipo>
100.5398

> <Gold.Chemscore.Internal_Hbond>
0.0000

> <Gold.Chemscore.DEClash>
0.1161

> <Gold.Chemscore.DEInternal>
1.6715

> <Gold.Chemscore.Rot>
1.6594

> <Gold.Chemscore.Internal.Correction>
   9.000000E+99

> <Gold.Chemscore.Hbonds>
donor molecule, donor type, donor heavy atom, donor atom, acceptor molecule, acceptor atom, score
      L1  H     3    21       P1  8028  0.93
      P1  H 10752 10764       L1    14  0.58

> <Gold.Chemscore.Hbond.Weighted>
-5.9982

> <Gold.Chemscore.Metal.Weighted>
-0.0000

> <Gold.Chemscore.Lipo.Weighted>
-11.7632

> <Gold.Chemscore.Internal_Hbond.Weighted>
0.0000

> <Gold.Chemscore.DEClash.Weighted>
0.1161

> <Gold.Chemscore.DEInternal.Weighted>
1.6715

> <Gold.Chemscore.Rot.Weighted>
4.2482

> <Gold.Chemscore.Internal.Correction.Weighted>
   9.000000E+99

> <Gold.Protein.RotatedTorsions>
[ 6907 6896 6895 6894 ] final   63.81 input  -60.11 | X-H torsion
[ 7974 7965 7964 7962 ] final  107.13 input  175.53 | X-H torsion
[ 8008 7997 7996 7995 ] final   -7.01 input   59.86 | X-H torsion
[ 10167 10162 10161 10158 ] final -100.57 input  -65.29 | X-H torsion
[ 10718 10713 10712 10709 ] final   54.47 input   66.30 | X-H torsion
[ 10763 10752 10751 10750 ] final  -65.90 input  -60.55 | X-H torsion
[ 11005 11000 10999 10996 ] final -175.12 input  -57.11 | X-H torsion

> <Gold.Protein.ActiveResidues>
 VAL166  LYS551  ARG553  GLY616  TRP617  ASP618  TYR619  PRO620  LYS621  CYS622 
 ASP623  PHE694  ASN695  SER759  ASP760  ASP761  ALA762  ILE779  LEU786  VAL792 
 PHE793  MET794  SER795  GLU796  ALA797  LYS798  CYS799  TRP800  GLU811  SER814 

> <Gold.Protein.RotatedAtoms>
  152.4282  134.5828  159.9952 H   0  0  0  0  0  0  0  0  0  0  0  0  # atno 6907 bound_to 6896
  151.5958  133.3356  159.3045 H   0  0  0  0  0  0  0  0  0  0  0  0  # atno 6908 bound_to 6896
  150.8173  134.7398  159.6806 H   0  0  0  0  0  0  0  0  0  0  0  0  # atno 6909 bound_to 6896
  145.2976  139.2580  143.3831 H   0  0  0  0  0  0  0  0  0  0  0  0  # atno 7974 bound_to 7965
  154.5880  140.2418  155.7960 H   0  0  0  0  0  0  0  0  0  0  0  0  # atno 8008 bound_to 7997
  156.2227  140.2992  155.9947 H   0  0  0  0  0  0  0  0  0  0  0  0  # atno 8009 bound_to 7997
  155.2423  140.0407  157.2967 H   0  0  0  0  0  0  0  0  0  0  0  0  # atno 8010 bound_to 7997
  140.2505  143.3476  152.0719 H   0  0  0  0  0  0  0  0  0  0  0  0  # atno 10167 bound_to 10162
  157.5260  130.8597  149.8622 H   0  0  0  0  0  0  0  0  0  0  0  0  # atno 10718 bound_to 10713
  154.3519  135.6134  153.5647 H   0  0  0  0  0  0  0  0  0  0  0  0  # atno 10763 bound_to 10752
  152.9798  135.5794  154.4733 H   0  0  0  0  0  0  0  0  0  0  0  0  # atno 10764 bound_to 10752
  154.4456  135.2851  155.1795 H   0  0  0  0  0  0  0  0  0  0  0  0  # atno 10765 bound_to 10752
  140.4668  134.6203  157.4866 H   0  0  0  0  0  0  0  0  0  0  0  0  # atno 11005 bound_to 11000
  146.3163  140.3483  142.8654 LP  0  0  0  0  0  0  0  0  0  0  0  0  # atno 17320 bound_to 7965
  144.9120  140.7768  143.5801 LP  0  0  0  0  0  0  0  0  0  0  0  0  # atno 17321 bound_to 7965
  139.5048  144.6782  151.6075 LP  0  0  0  0  0  0  0  0  0  0  0  0  # atno 17342 bound_to 10162
  140.6044  143.9550  150.6408 LP  0  0  0  0  0  0  0  0  0  0  0  0  # atno 17343 bound_to 10162
  156.0387  130.3744  150.1491 LP  0  0  0  0  0  0  0  0  0  0  0  0  # atno 17370 bound_to 10713
  156.9678  130.9825  151.3465 LP  0  0  0  0  0  0  0  0  0  0  0  0  # atno 17371 bound_to 10713
  139.9910  134.6985  155.9689 LP  0  0  0  0  0  0  0  0  0  0  0  0  # atno 17394 bound_to 11000
  141.1596  133.6540  156.4273 LP  0  0  0  0  0  0  0  0  0  0  0  0  # atno 17395 bound_to 11000

$$$$
