AV-unprocessed.smi:2886|AV-procd|sdf|11098|dock4
  -GOLD-   2272015563D 1   1.00000     0.00000
 Structure written by MMmdl.
 27 29  0  0  0  0  0  0  0  0  2 V2000
  151.5637  138.0909  154.5334 O   0  0  0  0  0  0  0  0  0  0  0  0
  151.1773  139.1718  154.9750 C   0  0  0  0  0  0  0  0  0  0  0  0
  150.3109  139.9727  154.2834 N   0  5  0  0  0  0  0  0  0  0  0  0
  149.8771  141.2310  154.8484 N   0  0  0  0  0  0  0  0  0  0  0  0
  150.2965  141.6192  155.9876 C   0  0  0  0  0  0  0  0  0  0  0  0
  151.2491  140.8210  156.7982 C   0  0  0  0  0  0  0  0  0  0  0  0
  151.7073  141.2428  158.0403 N   0  0  0  0  0  0  0  0  0  0  0  0
  151.3827  142.4624  158.7664 C   0  0  1  0  0  0  0  0  0  0  0  0
  152.0247  142.5065  160.1552 C   0  0  0  0  0  0  0  0  0  0  0  0
  152.8173  143.8185  160.0922 C   0  0  2  0  0  0  0  0  0  0  0  0
  151.9027  145.0508  160.0593 C   0  0  0  0  0  0  0  0  0  0  0  0
  151.3485  144.9910  158.6357 C   0  0  0  0  0  0  0  0  0  0  0  0
  151.9934  143.7058  158.0994 C   0  0  1  0  0  0  0  0  0  0  0  0
  153.2546  143.7805  158.7451 O   0  0  0  0  0  0  0  0  0  0  0  0
  151.6547  139.6316  156.2847 C   0  0  0  0  0  0  0  0  0  0  0  0
  152.7581  138.6209  157.1608 Cl  0  0  0  0  0  0  0  0  0  0  0  0
  149.9620  142.5650  156.4193 H   0  0  0  0  0  0  0  0  0  0  0  0
  152.4599  140.7039  158.4444 H   0  0  0  0  0  0  0  0  0  0  0  0
  150.3018  142.5858  158.8251 H   0  0  0  0  0  0  0  0  0  0  0  0
  151.2880  142.5010  160.9591 H   0  0  0  0  0  0  0  0  0  0  0  0
  152.7008  141.6644  160.3101 H   0  0  0  0  0  0  0  0  0  0  0  0
  153.6229  143.8834  160.8239 H   0  0  0  0  0  0  0  0  0  0  0  0
  151.1231  145.0066  160.8205 H   0  0  0  0  0  0  0  0  0  0  0  0
  152.4755  145.9668  160.2083 H   0  0  0  0  0  0  0  0  0  0  0  0
  150.2591  144.9574  158.6048 H   0  0  0  0  0  0  0  0  0  0  0  0
  151.6797  145.8567  158.0610 H   0  0  0  0  0  0  0  0  0  0  0  0
  152.0395  143.6603  157.0106 H   0  0  0  0  0  0  0  0  0  0  0  0
  1  2  2  0  0  0  0
  2 15  1  0  0  0  0
  2  3  1  0  0  0  0
  3  4  1  0  0  0  0
  4  5  2  0  0  0  0
  5  6  1  0  0  0  0
  5 17  1  0  0  0  0
  6  7  1  0  0  0  0
  6 15  2  0  0  0  0
  7  8  1  0  0  0  0
  7 18  1  0  0  0  0
  8 13  1  0  0  0  0
  8  9  1  0  0  0  0
  8 19  1  0  0  0  0
  9 10  1  0  0  0  0
  9 20  1  0  0  0  0
  9 21  1  0  0  0  0
 10 14  1  0  0  0  0
 10 11  1  0  0  0  0
 10 22  1  0  0  0  0
 11 12  1  0  0  0  0
 11 23  1  0  0  0  0
 11 24  1  0  0  0  0
 12 13  1  0  0  0  0
 12 25  1  0  0  0  0
 12 26  1  0  0  0  0
 13 14  1  0  0  0  0
 13 27  1  0  0  0  0
 15 16  1  0  0  0  0
M  CHG  1   3  -1
M  END
> <s_m_source_file>
AV-unprocessed.smi

> <i_m_source_file_index>
2886

> <i_lp_mmshare_version>
43012

> <i_f3d_flags>
0

> <s_epik_input>
Tz1jMVtuSF1uW2NIXWMoYzFDbClbTkhdW0NASF0oW0NIMl1bQ0BASF0yMylbQ0BASF0oTzMpW0NIMl1bQ0gyXTI=

> <s_epik_cmdline>
J2VwaWtfcHl0aG9uJywgJy1waCcsICc3LjAnLCAnLXRuJywgJzgnLCAnLW1hJywgJzIwMCcsICctbWV0YWxfYmluZGluZycsICctaW1hZScsICc8aW5maWxlLm1hZT4nLCAnLW9tYWUnLCAnPG91dGZpbGUubWFlPic=

> <r_lp_tautomer_probability>
0.986175

> <r_epik_Ionization_Penalty>
3.84253

> <r_epik_Ionization_Penalty_Charging>
0.0129711

> <r_epik_Ionization_Penalty_Neutral>
3.82956

> <r_epik_State_Penalty>
3.8249

> <r_epik_Charging_Adjusted_Penalty>
3.83787

> <i_epik_Tot_Q>
-1

> <i_epik_Tot_abs_Q>
1

> <r_epik_Metal_State_Penalty>
0.57612

> <b_epik_Metal_Only>
1

> <s_lp_Force_Field>
OPLS_2005

> <r_lp_Energy>
60.5374

> <b_lp_Chiralities_Consistent>
1

> <s_lp_Variant>
AV-unprocessed.smi:2886-12

> <Gold.Version>
5.8.1

> <Gold.Id.Protein>
6NUR|6NUR_protein|mol2

> <Gold.PLP.Fitness>
38.0548

> <Gold.PLP.PLP>
-34.2497

> <Gold.PLP.part.hbond>
-2.0000

> <Gold.PLP.part.metal>
0.0000

> <Gold.PLP.part.buried>
-3.5189

> <Gold.PLP.part.nonpolar>
-28.6249

> <Gold.PLP.part.repulsive>
0.4919

> <Gold.PLP.ligand.clash>
0.0000

> <Gold.PLP.ligand.torsion>
0.0572

> <Gold.PLP.Chemscore.Hbond>
0.3000

> <Gold.PLP.Chemscore.CHOScore>
1.0000

> <Gold.PLP.Chemscore.Metal>
0.0000

> <Gold.Chemscore.Hbonds>
donor molecule, donor type, donor heavy atom, donor atom, acceptor molecule, acceptor atom, score
      P1  H  7989  7998       L1     3  0.26
      L1  C     5    17       P1  8028  1.00

> <Gold.PLP.Chemscore.Internal.Correction>
0.0196

> <Gold.Rescore>
     Score         DG    S(hbond)    S(metal)    S(lipo)     H(rot)  DE(clash)    DE(int)     intcor
     15.38     -15.91       0.87        0.00      86.31       1.00       0.40       0.13       ----

> <Gold.Chemscore.Fitness>
15.3808

> <Gold.Chemscore.DG>
-15.9075

> <Gold.Chemscore.ZeroCoef>
-5.4800

> <Gold.Chemscore.Hbond>
0.8650

> <Gold.Chemscore.Metal>
0.0000

> <Gold.Chemscore.Lipo>
86.3103

> <Gold.Chemscore.Internal_Hbond>
0.0000

> <Gold.Chemscore.DEClash>
0.3986

> <Gold.Chemscore.DEInternal>
0.1281

> <Gold.Chemscore.Rot>
1.0000

> <Gold.Chemscore.Internal.Correction>
   9.000000E+99

> <Gold.Chemscore.Hbond.Weighted>
-2.8892

> <Gold.Chemscore.Metal.Weighted>
-0.0000

> <Gold.Chemscore.Lipo.Weighted>
-10.0983

> <Gold.Chemscore.Internal_Hbond.Weighted>
0.0000

> <Gold.Chemscore.DEClash.Weighted>
0.3986

> <Gold.Chemscore.DEInternal.Weighted>
0.1281

> <Gold.Chemscore.Rot.Weighted>
2.5600

> <Gold.Chemscore.Internal.Correction.Weighted>
   9.000000E+99

> <Gold.Protein.RotatedTorsions>
[ 6907 6896 6895 6894 ] final    8.74 input  -60.11 | X-H torsion
[ 7974 7965 7964 7962 ] final   83.41 input  175.53 | X-H torsion
[ 8008 7997 7996 7995 ] final  -11.75 input   59.86 | X-H torsion
[ 10167 10162 10161 10158 ] final  -14.90 input  -65.29 | X-H torsion
[ 10718 10713 10712 10709 ] final  139.58 input   66.30 | X-H torsion
[ 10763 10752 10751 10750 ] final -155.06 input  -60.55 | X-H torsion
[ 11005 11000 10999 10996 ] final   80.59 input  -57.11 | X-H torsion

> <Gold.Protein.ActiveResidues>
 VAL166  LYS551  ARG553  GLY616  TRP617  ASP618  TYR619  PRO620  LYS621  CYS622 
 ASP623  PHE694  ASN695  SER759  ASP760  ASP761  ALA762  ILE779  LEU786  VAL792 
 PHE793  MET794  SER795  GLU796  ALA797  LYS798  CYS799  TRP800  GLU811  SER814 

> <Gold.Protein.RotatedAtoms>
  151.7109  135.0913  160.0267 H   0  0  0  0  0  0  0  0  0  0  0  0  # atno 6907 bound_to 6896
  152.3662  133.6355  159.6061 H   0  0  0  0  0  0  0  0  0  0  0  0  # atno 6908 bound_to 6896
  150.7640  133.9260  159.3454 H   0  0  0  0  0  0  0  0  0  0  0  0  # atno 6909 bound_to 6896
  145.6123  139.2370  143.2185 H   0  0  0  0  0  0  0  0  0  0  0  0  # atno 7974 bound_to 7965
  154.5438  140.2294  155.8598 H   0  0  0  0  0  0  0  0  0  0  0  0  # atno 8008 bound_to 7997
  156.1883  140.3083  155.9244 H   0  0  0  0  0  0  0  0  0  0  0  0  # atno 8009 bound_to 7997
  155.3206  140.0440  157.3029 H   0  0  0  0  0  0  0  0  0  0  0  0  # atno 8010 bound_to 7997
  140.7209  143.5274  150.9561 H   0  0  0  0  0  0  0  0  0  0  0  0  # atno 10167 bound_to 10162
  157.4128  131.1030  151.0436 H   0  0  0  0  0  0  0  0  0  0  0  0  # atno 10718 bound_to 10713
  154.7815  135.3176  154.7980 H   0  0  0  0  0  0  0  0  0  0  0  0  # atno 10763 bound_to 10752
  153.8690  135.6846  153.4780 H   0  0  0  0  0  0  0  0  0  0  0  0  # atno 10764 bound_to 10752
  153.1452  135.4722  154.9493 H   0  0  0  0  0  0  0  0  0  0  0  0  # atno 10765 bound_to 10752
  139.9129  134.7932  156.1929 H   0  0  0  0  0  0  0  0  0  0  0  0  # atno 11005 bound_to 11000
  146.1495  140.6945  142.9329 LP  0  0  0  0  0  0  0  0  0  0  0  0  # atno 17320 bound_to 7965
  144.7265  140.4540  143.6969 LP  0  0  0  0  0  0  0  0  0  0  0  0  # atno 17321 bound_to 7965
  139.8993  143.6856  152.3134 LP  0  0  0  0  0  0  0  0  0  0  0  0  # atno 17342 bound_to 10162
  139.7199  144.7604  151.0972 LP  0  0  0  0  0  0  0  0  0  0  0  0  # atno 17343 bound_to 10162
  157.1394  130.6136  149.5551 LP  0  0  0  0  0  0  0  0  0  0  0  0  # atno 17370 bound_to 10713
  155.9856  130.4886  150.7039 LP  0  0  0  0  0  0  0  0  0  0  0  0  # atno 17371 bound_to 10713
  141.0572  133.6859  156.1883 LP  0  0  0  0  0  0  0  0  0  0  0  0  # atno 17394 bound_to 11000
  140.6718  134.4860  157.5587 LP  0  0  0  0  0  0  0  0  0  0  0  0  # atno 17395 bound_to 11000

$$$$
