AV-unprocessed.smi:2578|AV-procd|sdf|10122|dock8
  -GOLD-   2272014143D 1   1.00000     0.00000
 Structure written by MMmdl.
 41 42  0  0  0  0  0  0  0  0  1 V2000
  146.5171  141.8005  153.8850 C   0  0  0  0  0  0  0  0  0  0  0  0
  147.6068  140.7495  154.0188 C   0  0  0  0  0  0  0  0  0  0  0  0
  148.8367  141.1098  154.4485 C   0  0  0  0  0  0  0  0  0  0  0  0
  149.9338  140.1534  154.6023 C   0  0  0  0  0  0  0  0  0  0  0  0
  151.0513  140.4917  154.9931 O   0  0  0  0  0  0  0  0  0  0  0  0
  149.6363  138.8637  154.2847 N   0  0  0  0  0  0  0  0  0  0  0  0
  150.6663  137.8280  154.4052 C   0  0  0  0  0  0  0  0  0  0  0  0
  148.3634  138.4761  153.8331 C   0  0  0  0  0  0  0  0  0  0  0  0
  147.3451  139.3537  153.6887 C   0  0  0  0  0  0  0  0  0  0  0  0
  146.0552  139.0153  153.2418 N   0  0  0  0  0  0  0  0  0  0  0  0
  145.5539  137.8224  152.8685 C   0  0  0  0  0  0  0  0  0  0  0  0
  146.1637  136.7539  152.8444 O   0  0  0  0  0  0  0  0  0  0  0  0
  144.2641  137.9359  152.5197 N   0  0  0  0  0  0  0  0  0  0  0  0
  143.4146  136.8324  152.0864 C   0  0  0  0  0  0  0  0  0  0  0  0
  143.6804  135.5615  152.9112 C   0  0  0  0  0  0  0  0  0  0  0  0
  144.1557  134.4004  152.0605 C   0  0  0  0  0  0  0  0  0  0  0  0
  145.3809  134.2277  151.5666 C   0  0  0  0  0  0  0  0  0  0  0  0
  145.5027  132.9759  150.7417 C   0  0  0  0  0  0  0  0  0  0  0  0
  144.0856  132.3613  150.7826 C   0  0  0  0  0  0  0  0  0  0  0  0
  143.2153  133.2952  151.6533 C   0  0  0  0  0  0  0  0  0  0  0  0
  146.8709  142.7901  154.1758 H   0  0  0  0  0  0  0  0  0  0  0  0
  145.6678  141.5485  154.5205 H   0  0  0  0  0  0  0  0  0  0  0  0
  146.1714  141.8582  152.8528 H   0  0  0  0  0  0  0  0  0  0  0  0
  149.0305  142.1445  154.6918 H   0  0  0  0  0  0  0  0  0  0  0  0
  150.2944  136.8298  154.1722 H   0  0  0  0  0  0  0  0  0  0  0  0
  151.0622  137.7948  155.4213 H   0  0  0  0  0  0  0  0  0  0  0  0
  151.4936  138.0344  153.7250 H   0  0  0  0  0  0  0  0  0  0  0  0
  148.2946  137.4228  153.6179 H   0  0  0  0  0  0  0  0  0  0  0  0
  145.4121  139.7925  153.2054 H   0  0  0  0  0  0  0  0  0  0  0  0
  143.8361  138.8490  152.5642 H   0  0  0  0  0  0  0  0  0  0  0  0
  142.3750  137.1395  152.2032 H   0  0  0  0  0  0  0  0  0  0  0  0
  143.5659  136.6455  151.0223 H   0  0  0  0  0  0  0  0  0  0  0  0
  144.4323  135.7538  153.6773 H   0  0  0  0  0  0  0  0  0  0  0  0
  142.7698  135.2659  153.4342 H   0  0  0  0  0  0  0  0  0  0  0  0
  146.2149  134.8970  151.7189 H   0  0  0  0  0  0  0  0  0  0  0  0
  145.8071  133.2227  149.7241 H   0  0  0  0  0  0  0  0  0  0  0  0
  146.2469  132.3086  151.1775 H   0  0  0  0  0  0  0  0  0  0  0  0
  143.6730  132.2799  149.7764 H   0  0  0  0  0  0  0  0  0  0  0  0
  144.1128  131.3553  151.2031 H   0  0  0  0  0  0  0  0  0  0  0  0
  142.8284  132.7756  152.5301 H   0  0  0  0  0  0  0  0  0  0  0  0
  142.3742  133.7025  151.0909 H   0  0  0  0  0  0  0  0  0  0  0  0
  1  2  1  0  0  0  0
  1 21  1  0  0  0  0
  1 22  1  0  0  0  0
  1 23  1  0  0  0  0
  2  9  1  0  0  0  0
  2  3  2  0  0  0  0
  3  4  1  0  0  0  0
  3 24  1  0  0  0  0
  4  5  2  0  0  0  0
  4  6  1  0  0  0  0
  6  7  1  0  0  0  0
  6  8  1  0  0  0  0
  7 25  1  0  0  0  0
  7 26  1  0  0  0  0
  7 27  1  0  0  0  0
  8  9  2  0  0  0  0
  8 28  1  0  0  0  0
  9 10  1  0  0  0  0
 10 11  1  0  0  0  0
 10 29  1  0  0  0  0
 11 12  2  0  0  0  0
 11 13  1  0  0  0  0
 13 14  1  0  0  0  0
 13 30  1  0  0  0  0
 14 15  1  0  0  0  0
 14 31  1  0  0  0  0
 14 32  1  0  0  0  0
 15 16  1  0  0  0  0
 15 33  1  0  0  0  0
 15 34  1  0  0  0  0
 16 20  1  0  0  0  0
 16 17  2  0  0  0  0
 17 18  1  0  0  0  0
 17 35  1  0  0  0  0
 18 19  1  0  0  0  0
 18 36  1  0  0  0  0
 18 37  1  0  0  0  0
 19 20  1  0  0  0  0
 19 38  1  0  0  0  0
 19 39  1  0  0  0  0
 20 40  1  0  0  0  0
 20 41  1  0  0  0  0
M  END
> <s_m_source_file>
AV-unprocessed.smi

> <i_m_source_file_index>
2578

> <i_lp_mmshare_version>
43012

> <i_f3d_flags>
0

> <s_epik_input>
W0NIM11jMVtjSF1jKD1PKW4oW0NIM10pW2NIXWMxW05IXUMoPU8pW05IXVtDSDJdW0NIMl1DMj1bQ0hdW0NIMl1bQ0gyXVtDSDJdMg==

> <s_epik_cmdline>
J2VwaWtfcHl0aG9uJywgJy1waCcsICc3LjAnLCAnLXRuJywgJzgnLCAnLW1hJywgJzIwMCcsICctbWV0YWxfYmluZGluZycsICctaW1hZScsICc8aW5maWxlLm1hZT4nLCAnLW9tYWUnLCAnPG91dGZpbGUubWFlPic=

> <r_lp_tautomer_probability>
1

> <r_epik_Ionization_Penalty>
2.83926e-05

> <r_epik_Ionization_Penalty_Charging>
8.15285e-06

> <r_epik_Ionization_Penalty_Neutral>
2.02397e-05

> <r_epik_State_Penalty>
-0

> <r_epik_Charging_Adjusted_Penalty>
8.15285e-06

> <i_epik_Tot_Q>
0

> <i_epik_Tot_abs_Q>
0

> <r_epik_Metal_State_Penalty>
-0

> <b_epik_Metal_Only>
0

> <s_lp_Force_Field>
OPLS_2005

> <r_lp_Energy>
31.0137

> <b_lp_Chiralities_Consistent>
1

> <s_lp_Variant>
AV-unprocessed.smi:2578-1

> <Gold.Version>
5.8.1

> <Gold.Id.Protein>
6NUR|6NUR_protein|mol2

> <Gold.PLP.Fitness>
46.0398

> <Gold.PLP.PLP>
-36.3675

> <Gold.PLP.part.hbond>
-4.0000

> <Gold.PLP.part.metal>
0.0000

> <Gold.PLP.part.buried>
-1.2874

> <Gold.PLP.part.nonpolar>
-31.9436

> <Gold.PLP.part.repulsive>
1.1411

> <Gold.PLP.ligand.clash>
0.0000

> <Gold.PLP.ligand.torsion>
0.7621

> <Gold.PLP.Chemscore.Hbond>
2.7280

> <Gold.PLP.Chemscore.CHOScore>
1.0000

> <Gold.PLP.Chemscore.Metal>
0.0000

> <Gold.Chemscore.Hbonds>
donor molecule, donor type, donor heavy atom, donor atom, acceptor molecule, acceptor atom, score
      L1  H    10    29       P1 10175  0.91
      L1  H    13    30       P1 10175  1.00
      P1  H  7989  7998       L1     5  0.80
      L1  C     8    28       P1  7948  1.00

> <Gold.PLP.Chemscore.Internal.Correction>
0.0124

> <Gold.Rescore>
     Score         DG    S(hbond)    S(metal)    S(lipo)     H(rot)  DE(clash)    DE(int)     intcor
     13.19     -18.88       2.10        0.00      84.07       1.35       2.41       3.28       ----

> <Gold.Chemscore.Fitness>
13.1851

> <Gold.Chemscore.DG>
-18.8794

> <Gold.Chemscore.ZeroCoef>
-5.4800

> <Gold.Chemscore.Hbond>
2.1009

> <Gold.Chemscore.Metal>
0.0000

> <Gold.Chemscore.Lipo>
84.0734

> <Gold.Chemscore.Internal_Hbond>
0.0000

> <Gold.Chemscore.DEClash>
2.4101

> <Gold.Chemscore.DEInternal>
3.2842

> <Gold.Chemscore.Rot>
1.3493

> <Gold.Chemscore.Internal.Correction>
   9.000000E+99

> <Gold.Chemscore.Hbonds>
donor molecule, donor type, donor heavy atom, donor atom, acceptor molecule, acceptor atom, score
      L1  H    10    29       P1 10175  0.86
      L1  H    13    30       P1 10175  0.98
      P1  H  7989  7998       L1     5  0.11

> <Gold.Chemscore.Hbond.Weighted>
-7.0169

> <Gold.Chemscore.Metal.Weighted>
-0.0000

> <Gold.Chemscore.Lipo.Weighted>
-9.8366

> <Gold.Chemscore.Internal_Hbond.Weighted>
0.0000

> <Gold.Chemscore.DEClash.Weighted>
2.4101

> <Gold.Chemscore.DEInternal.Weighted>
3.2842

> <Gold.Chemscore.Rot.Weighted>
3.4541

> <Gold.Chemscore.Internal.Correction.Weighted>
   9.000000E+99

> <Gold.Protein.RotatedTorsions>
[ 6907 6896 6895 6894 ] final   25.54 input  -60.11 | X-H torsion
[ 7974 7965 7964 7962 ] final  -84.40 input  175.53 | X-H torsion
[ 8008 7997 7996 7995 ] final   -2.10 input   59.86 | X-H torsion
[ 10167 10162 10161 10158 ] final   33.38 input  -65.29 | X-H torsion
[ 10718 10713 10712 10709 ] final   24.41 input   66.30 | X-H torsion
[ 10763 10752 10751 10750 ] final  -93.48 input  -60.55 | X-H torsion
[ 11005 11000 10999 10996 ] final  -92.64 input  -57.11 | X-H torsion

> <Gold.Protein.ActiveResidues>
 VAL166  LYS551  ARG553  GLY616  TRP617  ASP618  TYR619  PRO620  LYS621  CYS622 
 ASP623  PHE694  ASN695  SER759  ASP760  ASP761  ALA762  ILE779  LEU786  VAL792 
 PHE793  MET794  SER795  GLU796  ALA797  LYS798  CYS799  TRP800  GLU811  SER814 

> <Gold.Protein.RotatedAtoms>
  151.9741  135.0062  160.0553 H   0  0  0  0  0  0  0  0  0  0  0  0  # atno 6907 bound_to 6896
  152.1756  133.4668  159.4940 H   0  0  0  0  0  0  0  0  0  0  0  0  # atno 6908 bound_to 6896
  150.6909  134.1815  159.4293 H   0  0  0  0  0  0  0  0  0  0  0  0  # atno 6909 bound_to 6896
  145.5072  140.9543  143.1727 H   0  0  0  0  0  0  0  0  0  0  0  0  # atno 7974 bound_to 7965
  154.6395  140.2543  155.7339 H   0  0  0  0  0  0  0  0  0  0  0  0  # atno 8008 bound_to 7997
  156.2521  140.2890  156.0702 H   0  0  0  0  0  0  0  0  0  0  0  0  # atno 8009 bound_to 7997
  155.1619  140.0384  157.2834 H   0  0  0  0  0  0  0  0  0  0  0  0  # atno 8010 bound_to 7997
  140.4412  144.1185  150.6174 H   0  0  0  0  0  0  0  0  0  0  0  0  # atno 10167 bound_to 10162
  157.1793  130.6795  149.6107 H   0  0  0  0  0  0  0  0  0  0  0  0  # atno 10718 bound_to 10713
  154.6963  135.5193  153.8463 H   0  0  0  0  0  0  0  0  0  0  0  0  # atno 10763 bound_to 10752
  153.0670  135.6588  154.0342 H   0  0  0  0  0  0  0  0  0  0  0  0  # atno 10764 bound_to 10752
  154.0208  135.2994  155.3361 H   0  0  0  0  0  0  0  0  0  0  0  0  # atno 10765 bound_to 10752
  141.1517  133.7834  157.0048 H   0  0  0  0  0  0  0  0  0  0  0  0  # atno 11005 bound_to 11000
  144.7747  139.6656  143.7180 LP  0  0  0  0  0  0  0  0  0  0  0  0  # atno 17320 bound_to 7965
  146.2189  139.5600  142.9631 LP  0  0  0  0  0  0  0  0  0  0  0  0  # atno 17321 bound_to 7965
  140.4316  143.2565  151.9588 LP  0  0  0  0  0  0  0  0  0  0  0  0  # atno 17342 bound_to 10162
  139.4790  144.5738  151.8044 LP  0  0  0  0  0  0  0  0  0  0  0  0  # atno 17343 bound_to 10162
  155.9726  130.4652  150.6245 LP  0  0  0  0  0  0  0  0  0  0  0  0  # atno 17370 bound_to 10713
  157.3968  131.0804  151.1345 LP  0  0  0  0  0  0  0  0  0  0  0  0  # atno 17371 bound_to 10713
  140.0916  134.9589  157.1785 LP  0  0  0  0  0  0  0  0  0  0  0  0  # atno 17394 bound_to 11000
  140.3438  134.2674  155.7208 LP  0  0  0  0  0  0  0  0  0  0  0  0  # atno 17395 bound_to 11000

$$$$
