AV-unprocessed.smi:1885|AV-procd|sdf|7652|dock6
  -GOLD-   22720 9383D 1   1.00000     0.00000
 Structure written by MMmdl.
 44 46  0  0  0  0  0  0  0  0  2 V2000
  149.6981  129.8644  154.4926 C   0  0  0  0  0  0  0  0  0  0  0  0
  149.1653  131.0420  153.9046 O   0  0  0  0  0  0  0  0  0  0  0  0
  149.5732  132.2592  154.4066 C   0  0  0  0  0  0  0  0  0  0  0  0
  150.3829  132.4151  155.5599 C   0  0  0  0  0  0  0  0  0  0  0  0
  150.7521  133.7000  156.0036 C   0  0  0  0  0  0  0  0  0  0  0  0
  150.3274  134.8465  155.3027 C   0  0  0  0  0  0  0  0  0  0  0  0
  150.7159  136.2263  155.8003 C   0  0  0  0  0  0  0  0  0  0  0  0
  150.3242  137.2499  154.8999 O   0  0  0  0  0  0  0  0  0  0  0  0
  151.4160  137.8058  154.1867 C   0  0  0  0  0  0  0  0  0  0  0  0
  151.9626  139.0038  154.9754 C   0  0  2  0  0  0  0  0  0  0  0  0
  153.2928  138.7253  155.3646 O   0  0  0  0  0  0  0  0  0  0  0  0
  151.1145  139.3231  156.2228 C   0  0  0  0  0  0  0  0  0  0  0  0
  151.0441  140.7620  156.5069 N   0  0  0  0  0  0  0  0  0  0  0  0
  150.4930  141.7740  155.7834 C   0  0  0  0  0  0  0  0  0  0  0  0
  150.6861  142.9287  156.4801 N   0  3  0  0  0  0  0  0  0  0  0  0
  151.3706  142.6494  157.6654 C   0  0  0  0  0  0  0  0  0  0  0  0
  151.7929  143.4847  158.6944 C   0  0  0  0  0  0  0  0  0  0  0  0
  152.4683  142.8739  159.7717 C   0  0  0  0  0  0  0  0  0  0  0  0
  152.9004  143.6412  160.8004 F   0  0  0  0  0  0  0  0  0  0  0  0
  152.7017  141.4822  159.7981 C   0  0  0  0  0  0  0  0  0  0  0  0
  153.3537  140.9359  160.8516 F   0  0  0  0  0  0  0  0  0  0  0  0
  152.2699  140.6456  158.7477 C   0  0  0  0  0  0  0  0  0  0  0  0
  151.6032  141.2587  157.6883 C   0  0  0  0  0  0  0  0  0  0  0  0
  149.5138  134.6968  154.1607 C   0  0  0  0  0  0  0  0  0  0  0  0
  149.1452  133.4122  153.7177 C   0  0  0  0  0  0  0  0  0  0  0  0
  149.2859  128.9916  153.9864 H   0  0  0  0  0  0  0  0  0  0  0  0
  149.4316  129.7896  155.5478 H   0  0  0  0  0  0  0  0  0  0  0  0
  150.7833  129.8234  154.3893 H   0  0  0  0  0  0  0  0  0  0  0  0
  150.7327  131.5640  156.1238 H   0  0  0  0  0  0  0  0  0  0  0  0
  151.3655  133.8020  156.8869 H   0  0  0  0  0  0  0  0  0  0  0  0
  150.2457  136.3848  156.7721 H   0  0  0  0  0  0  0  0  0  0  0  0
  151.7964  136.2648  155.9493 H   0  0  0  0  0  0  0  0  0  0  0  0
  152.1973  137.0586  154.0362 H   0  0  0  0  0  0  0  0  0  0  0  0
  151.0744  138.1287  153.2018 H   0  0  0  0  0  0  0  0  0  0  0  0
  151.9919  139.8726  154.3169 H   0  0  0  0  0  0  0  0  0  0  0  0
  153.2790  138.0307  156.0052 H   0  0  0  0  0  0  0  0  0  0  0  0
  150.0968  138.9461  156.1131 H   0  0  0  0  0  0  0  0  0  0  0  0
  151.5322  138.8331  157.1035 H   0  0  0  0  0  0  0  0  0  0  0  0
  149.9906  141.6783  154.8316 H   0  0  0  0  0  0  0  0  0  0  0  0
  151.6161  144.5502  158.6786 H   0  0  0  0  0  0  0  0  0  0  0  0
  152.4514  139.5813  158.7771 H   0  0  0  0  0  0  0  0  0  0  0  0
  149.1676  135.5645  153.6187 H   0  0  0  0  0  0  0  0  0  0  0  0
  148.5239  133.3106  152.8399 H   0  0  0  0  0  0  0  0  0  0  0  0
  150.3710  143.8382  156.1671 H   0  0  0  0  0  0  0  0  0  0  0  0
  1  2  1  0  0  0  0
  1 26  1  0  0  0  0
  1 27  1  0  0  0  0
  1 28  1  0  0  0  0
  2  3  1  0  0  0  0
  3 25  1  0  0  0  0
  3  4  2  0  0  0  0
  4  5  1  0  0  0  0
  4 29  1  0  0  0  0
  5  6  2  0  0  0  0
  5 30  1  0  0  0  0
  6  7  1  0  0  0  0
  6 24  1  0  0  0  0
  7  8  1  0  0  0  0
  7 31  1  0  0  0  0
  7 32  1  0  0  0  0
  8  9  1  0  0  0  0
  9 10  1  0  0  0  0
  9 33  1  0  0  0  0
  9 34  1  0  0  0  0
 10 11  1  0  0  0  0
 10 12  1  0  0  0  0
 10 35  1  0  0  0  0
 11 36  1  0  0  0  0
 12 13  1  0  0  0  0
 12 37  1  0  0  0  0
 12 38  1  0  0  0  0
 13 23  1  0  0  0  0
 13 14  1  0  0  0  0
 14 15  2  0  0  0  0
 14 39  1  0  0  0  0
 15 16  1  0  0  0  0
 15 44  1  0  0  0  0
 16 23  2  0  0  0  0
 16 17  1  0  0  0  0
 17 18  2  0  0  0  0
 17 40  1  0  0  0  0
 18 19  1  0  0  0  0
 18 20  1  0  0  0  0
 20 21  1  0  0  0  0
 20 22  2  0  0  0  0
 22 23  1  0  0  0  0
 22 41  1  0  0  0  0
 24 25  2  0  0  0  0
 24 42  1  0  0  0  0
 25 43  1  0  0  0  0
M  CHG  1  15   1
M  END
> <s_m_source_file>
AV-unprocessed.smi

> <i_m_source_file_index>
1885

> <i_lp_mmshare_version>
43012

> <i_f3d_flags>
0

> <s_epik_input>
W0NIM11PYzFbY0hdW2NIXWMoW2NIXVtjSF0xKVtDSDJdT1tDSDJdW0NASF0oW09IXSlbQ0gyXW4oW2NIXW4yKWMoYzIzKVtjSF1jKEYpYyhGKVtjSF0z

> <s_epik_cmdline>
J2VwaWtfcHl0aG9uJywgJy1waCcsICc3LjAnLCAnLXRuJywgJzgnLCAnLW1hJywgJzIwMCcsICctbWV0YWxfYmluZGluZycsICctaW1hZScsICc8aW5maWxlLm1hZT4nLCAnLW9tYWUnLCAnPG91dGZpbGUubWFlPic=

> <r_lp_tautomer_probability>
1

> <r_epik_Ionization_Penalty>
2.14697

> <r_epik_Ionization_Penalty_Charging>
2.14697

> <r_epik_Ionization_Penalty_Neutral>
9.74819e-07

> <r_epik_State_Penalty>
2.28651

> <r_epik_Charging_Adjusted_Penalty>
4.43348

> <i_epik_Tot_Q>
1

> <i_epik_Tot_abs_Q>
1

> <r_epik_Metal_State_Penalty>
6.36664

> <b_epik_Metal_Only>
0

> <s_lp_Force_Field>
OPLS_2005

> <r_lp_Energy>
20.6569

> <b_lp_Chiralities_Consistent>
1

> <s_lp_Variant>
AV-unprocessed.smi:1885-3

> <Gold.Version>
5.8.1

> <Gold.Id.Protein>
6NUR|6NUR_protein|mol2

> <Gold.PLP.Fitness>
59.2113

> <Gold.PLP.PLP>
-53.8139

> <Gold.PLP.part.hbond>
-1.8561

> <Gold.PLP.part.metal>
0.0000

> <Gold.PLP.part.buried>
-7.1885

> <Gold.PLP.part.nonpolar>
-44.7224

> <Gold.PLP.part.repulsive>
0.3014

> <Gold.PLP.ligand.clash>
0.0000

> <Gold.PLP.ligand.torsion>
1.8344

> <Gold.PLP.Chemscore.Hbond>
3.0000

> <Gold.PLP.Chemscore.CHOScore>
0.0000

> <Gold.PLP.Chemscore.Metal>
0.0000

> <Gold.Chemscore.Hbonds>
donor molecule, donor type, donor heavy atom, donor atom, acceptor molecule, acceptor atom, score
      L1  H    15    44       P1  8028  1.73
      P1  H  7997  8009       L1    11  1.00

> <Gold.PLP.Chemscore.Internal.Correction>
0.0662

> <Gold.Rescore>
     Score         DG    S(hbond)    S(metal)    S(lipo)     H(rot)  DE(clash)    DE(int)     intcor
     16.00     -17.82       1.80        0.00     120.42       3.03       0.01       1.80       ----

> <Gold.Chemscore.Fitness>
16.0049

> <Gold.Chemscore.DG>
-17.8154

> <Gold.Chemscore.ZeroCoef>
-5.4800

> <Gold.Chemscore.Hbond>
1.7957

> <Gold.Chemscore.Metal>
0.0000

> <Gold.Chemscore.Lipo>
120.4188

> <Gold.Chemscore.Internal_Hbond>
0.0000

> <Gold.Chemscore.DEClash>
0.0082

> <Gold.Chemscore.DEInternal>
1.8023

> <Gold.Chemscore.Rot>
3.0278

> <Gold.Chemscore.Internal.Correction>
   9.000000E+99

> <Gold.Chemscore.Hbonds>
donor molecule, donor type, donor heavy atom, donor atom, acceptor molecule, acceptor atom, score
      L1  H    15    44       P1  8028  0.85
      P1  H  7997  8009       L1    11  0.69

> <Gold.Chemscore.Hbond.Weighted>
-5.9975

> <Gold.Chemscore.Metal.Weighted>
-0.0000

> <Gold.Chemscore.Lipo.Weighted>
-14.0890

> <Gold.Chemscore.Internal_Hbond.Weighted>
0.0000

> <Gold.Chemscore.DEClash.Weighted>
0.0082

> <Gold.Chemscore.DEInternal.Weighted>
1.8023

> <Gold.Chemscore.Rot.Weighted>
7.7512

> <Gold.Chemscore.Internal.Correction.Weighted>
   9.000000E+99

> <Gold.Protein.RotatedTorsions>
[ 6907 6896 6895 6894 ] final  -41.31 input  -60.11 | X-H torsion
[ 7974 7965 7964 7962 ] final   91.83 input  175.53 | X-H torsion
[ 8008 7997 7996 7995 ] final -141.24 input   59.86 | X-H torsion
[ 10167 10162 10161 10158 ] final  -21.95 input  -65.29 | X-H torsion
[ 10718 10713 10712 10709 ] final   11.52 input   66.30 | X-H torsion
[ 10763 10752 10751 10750 ] final   79.74 input  -60.55 | X-H torsion
[ 11005 11000 10999 10996 ] final -102.23 input  -57.11 | X-H torsion

> <Gold.Protein.ActiveResidues>
 VAL166  LYS551  ARG553  GLY616  TRP617  ASP618  TYR619  PRO620  LYS621  CYS622 
 ASP623  PHE694  ASN695  SER759  ASP760  ASP761  ALA762  ILE779  LEU786  VAL792 
 PHE793  MET794  SER795  GLU796  ALA797  LYS798  CYS799  TRP800  GLU811  SER814 

> <Gold.Protein.RotatedAtoms>
  150.9682  134.9059  159.7771 H   0  0  0  0  0  0  0  0  0  0  0  0  # atno 6907 bound_to 6896
  152.5181  134.3577  159.9284 H   0  0  0  0  0  0  0  0  0  0  0  0  # atno 6908 bound_to 6896
  151.3587  133.3857  159.2722 H   0  0  0  0  0  0  0  0  0  0  0  0  # atno 6909 bound_to 6896
  145.5004  139.2276  143.2780 H   0  0  0  0  0  0  0  0  0  0  0  0  # atno 7974 bound_to 7965
  155.4746  140.0555  157.2975 H   0  0  0  0  0  0  0  0  0  0  0  0  # atno 8008 bound_to 7997
  154.4684  140.2029  156.0010 H   0  0  0  0  0  0  0  0  0  0  0  0  # atno 8009 bound_to 7997
  156.1015  140.3218  155.7952 H   0  0  0  0  0  0  0  0  0  0  0  0  # atno 8010 bound_to 7997
  140.7284  143.4580  151.0420 H   0  0  0  0  0  0  0  0  0  0  0  0  # atno 10167 bound_to 10162
  156.9968  130.6064  149.5692 H   0  0  0  0  0  0  0  0  0  0  0  0  # atno 10718 bound_to 10713
  153.0977  135.4828  154.8808 H   0  0  0  0  0  0  0  0  0  0  0  0  # atno 10763 bound_to 10752
  154.7343  135.3067  154.8841 H   0  0  0  0  0  0  0  0  0  0  0  0  # atno 10764 bound_to 10752
  153.9467  135.6828  153.4797 H   0  0  0  0  0  0  0  0  0  0  0  0  # atno 10765 bound_to 10752
  141.1198  133.8542  157.1333 H   0  0  0  0  0  0  0  0  0  0  0  0  # atno 11005 bound_to 11000
  146.2229  140.5804  142.9009 LP  0  0  0  0  0  0  0  0  0  0  0  0  # atno 17320 bound_to 7965
  144.7783  140.5787  143.6623 LP  0  0  0  0  0  0  0  0  0  0  0  0  # atno 17321 bound_to 7965
  139.8262  143.7753  152.3178 LP  0  0  0  0  0  0  0  0  0  0  0  0  # atno 17342 bound_to 10162
  139.7852  144.7430  151.0032 LP  0  0  0  0  0  0  0  0  0  0  0  0  # atno 17343 bound_to 10162
  156.0186  130.5281  150.8209 LP  0  0  0  0  0  0  0  0  0  0  0  0  # atno 17370 bound_to 10713
  157.5419  131.0941  150.9816 LP  0  0  0  0  0  0  0  0  0  0  0  0  # atno 17371 bound_to 10713
  140.0146  134.9973  157.0467 LP  0  0  0  0  0  0  0  0  0  0  0  0  # atno 17394 bound_to 11000
  140.4541  134.1551  155.7184 LP  0  0  0  0  0  0  0  0  0  0  0  0  # atno 17395 bound_to 11000

$$$$
