AV-unprocessed.smi:215|AV-procd|sdf|1650|dock10
  -GOLD-   2262020 33D 1   1.00000     0.00000
 Structure written by MMmdl.
 59 62  0  0  0  0  0  0  0  0  2 V2000
  144.1671  134.5780  155.1065 C   0  0  0  0  0  0  0  0  0  0  0  0
  143.8689  135.4420  153.8628 C   0  0  2  0  0  0  0  0  0  0  0  0
  143.5894  134.7078  152.5280 C   0  0  2  0  0  0  0  0  0  0  0  0
  143.9593  133.2593  152.5076 N   0  3  2  0  0  0  0  0  0  0  0  0
  145.3724  132.9683  152.8681 C   0  0  0  0  0  0  0  0  0  0  0  0
  143.5262  132.5735  151.2608 C   0  0  0  0  0  0  0  0  0  0  0  0
  144.5233  132.7441  150.1011 C   0  0  0  0  0  0  0  0  0  0  0  0
  144.0051  133.6425  149.1431 O   0  0  0  0  0  0  0  0  0  0  0  0
  144.2570  135.5774  151.4419 C   0  0  0  0  0  0  0  0  0  0  0  0
  144.6120  136.8657  152.1826 C   0  0  0  0  0  0  0  0  0  0  0  0
  144.8841  136.4418  153.5489 N   0  0  0  0  0  0  0  0  0  0  0  0
  145.0531  137.4196  154.4699 C   0  0  0  0  0  0  0  0  0  0  0  0
  144.2379  137.4940  155.5549 N   0  0  0  0  0  0  0  0  0  0  0  0
  144.4274  138.4516  156.4680 C   0  0  0  0  0  0  0  0  0  0  0  0
  145.3521  139.4142  156.4885 N   0  0  0  0  0  0  0  0  0  0  0  0
  146.1692  139.3439  155.3983 C   0  0  0  0  0  0  0  0  0  0  0  0
  146.0918  138.3808  154.3544 C   0  0  0  0  0  0  0  0  0  0  0  0
  147.0973  138.6031  153.4238 N   0  0  0  0  0  0  0  0  0  0  0  0
  147.7409  139.6355  153.8965 C   0  0  0  0  0  0  0  0  0  0  0  0
  147.2313  140.1673  155.0624 N   0  0  0  0  0  0  0  0  0  0  0  0
  147.7517  141.2752  155.8191 C   0  0  0  0  0  0  0  0  0  0  0  0
  149.1067  141.8919  155.4506 C   0  0  0  0  0  0  0  0  0  0  0  0
  149.7729  141.1548  156.6315 C   0  0  0  0  0  0  0  0  0  0  0  0
  150.4082  139.7947  156.2773 C   0  0  0  0  0  0  0  0  0  0  0  0
  151.4955  139.9478  155.3871 O   0  0  0  0  0  0  0  0  0  0  0  0
  150.7821  141.9863  157.4407 C   0  0  0  0  0  0  0  0  0  0  0  0
  150.2609  143.2617  157.7568 O   0  0  0  0  0  0  0  0  0  0  0  0
  148.3472  141.0825  157.2204 C   0  0  0  0  0  0  0  0  0  0  0  0
  142.9619  136.0022  154.0993 H   0  0  0  0  0  0  0  0  0  0  0  0
  142.5086  134.7705  152.3925 H   0  0  0  0  0  0  0  0  0  0  0  0
  143.4005  133.8152  155.2447 H   0  0  0  0  0  0  0  0  0  0  0  0
  144.1754  135.1862  156.0113 H   0  0  0  0  0  0  0  0  0  0  0  0
  145.1330  134.0789  155.0475 H   0  0  0  0  0  0  0  0  0  0  0  0
  146.0312  133.0479  152.0029 H   0  0  0  0  0  0  0  0  0  0  0  0
  145.4634  131.9570  153.2637 H   0  0  0  0  0  0  0  0  0  0  0  0
  145.7492  133.6468  153.6328 H   0  0  0  0  0  0  0  0  0  0  0  0
  143.4022  131.5055  151.4450 H   0  0  0  0  0  0  0  0  0  0  0  0
  142.5447  132.9488  150.9678 H   0  0  0  0  0  0  0  0  0  0  0  0
  145.4599  133.1541  150.4799 H   0  0  0  0  0  0  0  0  0  0  0  0
  144.7692  131.7948  149.6263 H   0  0  0  0  0  0  0  0  0  0  0  0
  144.7182  133.9582  148.6081 H   0  0  0  0  0  0  0  0  0  0  0  0
  145.1724  135.1379  151.0500 H   0  0  0  0  0  0  0  0  0  0  0  0
  143.5990  135.7601  150.5920 H   0  0  0  0  0  0  0  0  0  0  0  0
  145.4755  137.3626  151.7390 H   0  0  0  0  0  0  0  0  0  0  0  0
  143.7670  137.5551  152.1488 H   0  0  0  0  0  0  0  0  0  0  0  0
  143.7401  138.4465  157.3010 H   0  0  0  0  0  0  0  0  0  0  0  0
  148.6079  140.0367  153.3932 H   0  0  0  0  0  0  0  0  0  0  0  0
  146.9612  142.0268  155.8240 H   0  0  0  0  0  0  0  0  0  0  0  0
  149.4978  141.6109  154.4725 H   0  0  0  0  0  0  0  0  0  0  0  0
  149.1116  142.9769  155.5701 H   0  0  0  0  0  0  0  0  0  0  0  0
  150.7781  139.2872  157.1679 H   0  0  0  0  0  0  0  0  0  0  0  0
  149.6801  139.1184  155.8289 H   0  0  0  0  0  0  0  0  0  0  0  0
  152.2616  139.5580  155.7799 H   0  0  0  0  0  0  0  0  0  0  0  0
  151.0306  141.4884  158.3784 H   0  0  0  0  0  0  0  0  0  0  0  0
  151.7226  142.1106  156.9034 H   0  0  0  0  0  0  0  0  0  0  0  0
  149.7947  143.5903  157.0033 H   0  0  0  0  0  0  0  0  0  0  0  0
  148.1188  141.9230  157.8784 H   0  0  0  0  0  0  0  0  0  0  0  0
  148.1089  140.1417  157.7149 H   0  0  0  0  0  0  0  0  0  0  0  0
  143.3973  132.8470  153.2390 H   0  0  0  0  0  0  0  0  0  0  0  0
  1  2  1  0  0  0  0
  1 31  1  0  0  0  0
  1 32  1  0  0  0  0
  1 33  1  0  0  0  0
  2 29  1  0  0  0  0
  2 11  1  0  0  0  0
  2  3  1  0  0  0  0
  3 30  1  0  0  0  0
  3  4  1  0  0  0  0
  3  9  1  0  0  0  0
  4  5  1  0  0  0  0
  4  6  1  0  0  0  0
  4 59  1  0  0  0  0
  5 34  1  0  0  0  0
  5 35  1  0  0  0  0
  5 36  1  0  0  0  0
  6  7  1  0  0  0  0
  6 37  1  0  0  0  0
  6 38  1  0  0  0  0
  7  8  1  0  0  0  0
  7 39  1  0  0  0  0
  7 40  1  0  0  0  0
  8 41  1  0  0  0  0
  9 10  1  0  0  0  0
  9 42  1  0  0  0  0
  9 43  1  0  0  0  0
 10 11  1  0  0  0  0
 10 44  1  0  0  0  0
 10 45  1  0  0  0  0
 11 12  1  0  0  0  0
 12 17  1  0  0  0  0
 12 13  2  0  0  0  0
 13 14  1  0  0  0  0
 14 15  2  0  0  0  0
 14 46  1  0  0  0  0
 15 16  1  0  0  0  0
 16 20  1  0  0  0  0
 16 17  2  0  0  0  0
 17 18  1  0  0  0  0
 18 19  2  0  0  0  0
 19 20  1  0  0  0  0
 19 47  1  0  0  0  0
 20 21  1  0  0  0  0
 21 28  1  0  0  0  0
 21 22  1  0  0  0  0
 21 48  1  0  0  0  0
 22 23  1  0  0  0  0
 22 49  1  0  0  0  0
 22 50  1  0  0  0  0
 23 24  1  0  0  0  0
 23 26  1  0  0  0  0
 23 28  1  0  0  0  0
 24 25  1  0  0  0  0
 24 51  1  0  0  0  0
 24 52  1  0  0  0  0
 25 53  1  0  0  0  0
 26 27  1  0  0  0  0
 26 54  1  0  0  0  0
 26 55  1  0  0  0  0
 27 56  1  0  0  0  0
 28 57  1  0  0  0  0
 28 58  1  0  0  0  0
M  CHG  1   4   1
M  END
> <s_m_source_file>
AV-unprocessed.smi

> <i_m_source_file_index>
215

> <i_lp_mmshare_version>
43012

> <i_f3d_flags>
0

> <s_epik_input>
W09IXVtDSDJdW0NIMl1OKFtDSDNdKVtDQEBIXShbQ0BIXTFbQ0gzXSlbQ0gyXVtDSDJdTjFjKG5bY0hdbjIpYyhjMjMpbltjSF1uM1tDSF0oW0NIMl00KVtDSDJdQzQoW0NIMl1bT0hdKVtDSDJdW09IXQ==

> <s_epik_cmdline>
J2VwaWtfcHl0aG9uJywgJy1waCcsICc3LjAnLCAnLXRuJywgJzgnLCAnLW1hJywgJzIwMCcsICctbWV0YWxfYmluZGluZycsICctaW1hZScsICc8aW5maWxlLm1hZT4nLCAnLW9tYWUnLCAnPG91dGZpbGUubWFlPic=

> <r_lp_tautomer_probability>
1

> <r_epik_Ionization_Penalty>
0.0036237

> <r_epik_Ionization_Penalty_Charging>
0.0032725

> <r_epik_Ionization_Penalty_Neutral>
0.000351196

> <r_epik_State_Penalty>
-0

> <r_epik_Charging_Adjusted_Penalty>
0.0032725

> <i_epik_Tot_Q>
1

> <i_epik_Tot_abs_Q>
1

> <r_epik_Metal_State_Penalty>
-0

> <b_epik_Metal_Only>
0

> <s_lp_Force_Field>
OPLS_2005

> <r_lp_Energy>
76.3744

> <b_lp_Chiralities_Consistent>
1

> <s_lp_Variant>
AV-unprocessed.smi:215-1

> <Gold.Version>
5.8.1

> <Gold.Id.Protein>
6NUR|6NUR_protein|mol2

> <Gold.PLP.Fitness>
48.4869

> <Gold.PLP.PLP>
-31.4098

> <Gold.PLP.part.hbond>
-4.9220

> <Gold.PLP.part.metal>
0.0000

> <Gold.PLP.part.buried>
-3.7829

> <Gold.PLP.part.nonpolar>
-25.7822

> <Gold.PLP.part.repulsive>
0.4200

> <Gold.PLP.ligand.clash>
0.0000

> <Gold.PLP.ligand.torsion>
0.8560

> <Gold.PLP.Chemscore.Hbond>
5.0000

> <Gold.PLP.Chemscore.CHOScore>
1.0000

> <Gold.PLP.Chemscore.Metal>
0.0000

> <Gold.Chemscore.Hbonds>
donor molecule, donor type, donor heavy atom, donor atom, acceptor molecule, acceptor atom, score
      L1  H     4    59       P1 10957  2.00
      L1  H     8    41       P1  7921  1.00
      L1  H    27    56       P1  8028  1.00
      P1  H  7989  7998       L1    25  0.83
      L1  C    19    47       P1  7957  1.00

> <Gold.PLP.Chemscore.Internal.Correction>
0.7891

> <Gold.Rescore>
     Score         DG    S(hbond)    S(metal)    S(lipo)     H(rot)  DE(clash)    DE(int)     intcor
      8.95     -12.75       3.12        0.00      78.21       4.81       1.59       2.21       ----

> <Gold.Chemscore.Fitness>
8.9490

> <Gold.Chemscore.DG>
-12.7468

> <Gold.Chemscore.ZeroCoef>
-5.4800

> <Gold.Chemscore.Hbond>
3.1225

> <Gold.Chemscore.Metal>
0.0000

> <Gold.Chemscore.Lipo>
78.2115

> <Gold.Chemscore.Internal_Hbond>
0.0000

> <Gold.Chemscore.DEClash>
1.5865

> <Gold.Chemscore.DEInternal>
2.2113

> <Gold.Chemscore.Rot>
4.8098

> <Gold.Chemscore.Internal.Correction>
   9.000000E+99

> <Gold.Chemscore.Hbonds>
donor molecule, donor type, donor heavy atom, donor atom, acceptor molecule, acceptor atom, score
      L1  H     4    59       P1 10957  0.53
      L1  H     8    41       P1  7921  1.00
      L1  H    27    56       P1  8028  0.96
      P1  H  7989  7998       L1    25  0.76

> <Gold.Chemscore.Hbond.Weighted>
-10.4291

> <Gold.Chemscore.Metal.Weighted>
-0.0000

> <Gold.Chemscore.Lipo.Weighted>
-9.1507

> <Gold.Chemscore.Internal_Hbond.Weighted>
0.0000

> <Gold.Chemscore.DEClash.Weighted>
1.5865

> <Gold.Chemscore.DEInternal.Weighted>
2.2113

> <Gold.Chemscore.Rot.Weighted>
12.3130

> <Gold.Chemscore.Internal.Correction.Weighted>
   9.000000E+99

> <Gold.Protein.RotatedTorsions>
[ 6907 6896 6895 6894 ] final  154.43 input  -60.11 | X-H torsion
[ 7974 7965 7964 7962 ] final   31.55 input  175.53 | X-H torsion
[ 8008 7997 7996 7995 ] final -149.19 input   59.86 | X-H torsion
[ 10167 10162 10161 10158 ] final  163.78 input  -65.29 | X-H torsion
[ 10718 10713 10712 10709 ] final   46.32 input   66.30 | X-H torsion
[ 10763 10752 10751 10750 ] final   98.12 input  -60.55 | X-H torsion
[ 11005 11000 10999 10996 ] final -119.82 input  -57.11 | X-H torsion

> <Gold.Protein.ActiveResidues>
 VAL166  LYS551  ARG553  GLY616  TRP617  ASP618  TYR619  PRO620  LYS621  CYS622 
 ASP623  PHE694  ASN695  SER759  ASP760  ASP761  ALA762  ILE779  LEU786  VAL792 
 PHE793  MET794  SER795  GLU796  ALA797  LYS798  CYS799  TRP800  GLU811  SER814 

> <Gold.Protein.RotatedAtoms>
  152.0585  133.4051  159.4407 H   0  0  0  0  0  0  0  0  0  0  0  0  # atno 6907 bound_to 6896
  150.6867  134.3227  159.4802 H   0  0  0  0  0  0  0  0  0  0  0  0  # atno 6908 bound_to 6896
  152.1045  134.9318  160.0619 H   0  0  0  0  0  0  0  0  0  0  0  0  # atno 6909 bound_to 6896
  146.1543  139.6642  142.9077 H   0  0  0  0  0  0  0  0  0  0  0  0  # atno 7974 bound_to 7965
  155.6037  140.0664  157.2726 H   0  0  0  0  0  0  0  0  0  0  0  0  # atno 8008 bound_to 7997
  154.4272  140.1814  156.1247 H   0  0  0  0  0  0  0  0  0  0  0  0  # atno 8009 bound_to 7997
  156.0139  140.3324  155.6972 H   0  0  0  0  0  0  0  0  0  0  0  0  # atno 8010 bound_to 7997
  139.4879  144.4302  151.9080 H   0  0  0  0  0  0  0  0  0  0  0  0  # atno 10167 bound_to 10162
  157.4468  130.8114  149.7749 H   0  0  0  0  0  0  0  0  0  0  0  0  # atno 10718 bound_to 10713
  153.2852  135.4159  155.1116 H   0  0  0  0  0  0  0  0  0  0  0  0  # atno 10763 bound_to 10752
  154.8502  135.3505  154.6057 H   0  0  0  0  0  0  0  0  0  0  0  0  # atno 10764 bound_to 10752
  153.6479  135.7054  153.5277 H   0  0  0  0  0  0  0  0  0  0  0  0  # atno 10765 bound_to 10752
  141.0188  134.0155  157.3312 H   0  0  0  0  0  0  0  0  0  0  0  0  # atno 11005 bound_to 11000
  145.4747  141.0437  143.2679 LP  0  0  0  0  0  0  0  0  0  0  0  0  # atno 17320 bound_to 7965
  144.7943  139.6265  143.7099 LP  0  0  0  0  0  0  0  0  0  0  0  0  # atno 17321 bound_to 7965
  140.3750  144.2808  150.5915 LP  0  0  0  0  0  0  0  0  0  0  0  0  # atno 17342 bound_to 10162
  140.5285  143.2249  151.8276 LP  0  0  0  0  0  0  0  0  0  0  0  0  # atno 17343 bound_to 10162
  155.9971  130.3902  150.2755 LP  0  0  0  0  0  0  0  0  0  0  0  0  # atno 17370 bound_to 10713
  157.0923  131.0173  151.3117 LP  0  0  0  0  0  0  0  0  0  0  0  0  # atno 17371 bound_to 10713
  139.9133  135.0193  156.7781 LP  0  0  0  0  0  0  0  0  0  0  0  0  # atno 17394 bound_to 11000
  140.6608  133.9647  155.7804 LP  0  0  0  0  0  0  0  0  0  0  0  0  # atno 17395 bound_to 11000

$$$$
