AV-unprocessed.smi:2345|AV-procd|sdf|9364|dock6
  -GOLD-   2272012583D 1   1.00000     0.00000
 Structure written by MMmdl.
 37 38  0  0  0  0  0  0  0  0  1 V2000
  151.6409  138.3516  154.8985 C   0  0  0  0  0  0  0  0  0  0  0  0
  150.6108  139.4409  155.2060 C   0  0  0  0  0  0  0  0  0  0  0  0
  149.1024  139.2251  154.2213 S   0  0  0  0  0  0  0  0  0  0  0  0
  148.4798  140.9323  154.1848 C   0  0  1  0  0  0  0  0  0  0  0  0
  147.3492  141.1110  153.1679 C   0  0  0  0  0  0  0  0  0  0  0  0
  146.5649  142.3114  153.6866 C   0  0  0  0  0  0  0  0  0  0  0  0
  146.5876  142.1445  155.2062 C   0  0  0  0  0  0  0  0  0  0  0  0
  147.8968  141.3993  155.5362 C   0  0  2  0  0  0  0  0  0  0  0  0
  148.8410  142.2704  156.2322 N   0  0  0  0  0  0  0  0  0  0  0  0
  149.4910  141.9543  157.3607 C   0  0  0  0  0  0  0  0  0  0  0  0
  149.3475  140.8820  157.9473 O   0  0  0  0  0  0  0  0  0  0  0  0
  150.3161  142.9458  157.7378 N   0  0  0  0  0  0  0  0  0  0  0  0
  151.1768  143.0068  158.8679 C   0  0  0  0  0  0  0  0  0  0  0  0
  151.8365  141.8852  159.4268 C   0  0  0  0  0  0  0  0  0  0  0  0
  152.6508  142.0774  160.5610 C   0  0  0  0  0  0  0  0  0  0  0  0
  152.8314  143.2769  161.1532 N   0  0  0  0  0  0  0  0  0  0  0  0
  152.1899  144.3412  160.6263 C   0  0  0  0  0  0  0  0  0  0  0  0
  151.3537  144.2585  159.4949 C   0  0  0  0  0  0  0  0  0  0  0  0
  150.7358  145.3671  159.0193 F   0  0  0  0  0  0  0  0  0  0  0  0
  152.5414  138.4887  155.4972 H   0  0  0  0  0  0  0  0  0  0  0  0
  151.9331  138.3727  153.8482 H   0  0  0  0  0  0  0  0  0  0  0  0
  151.2425  137.3606  155.1175 H   0  0  0  0  0  0  0  0  0  0  0  0
  150.3530  139.4181  156.2648 H   0  0  0  0  0  0  0  0  0  0  0  0
  151.0345  140.4234  154.9973 H   0  0  0  0  0  0  0  0  0  0  0  0
  149.3004  141.5867  153.8854 H   0  0  0  0  0  0  0  0  0  0  0  0
  147.7183  141.2581  152.1525 H   0  0  0  0  0  0  0  0  0  0  0  0
  146.7025  140.2323  153.1633 H   0  0  0  0  0  0  0  0  0  0  0  0
  147.0776  143.2332  153.4091 H   0  0  0  0  0  0  0  0  0  0  0  0
  145.5523  142.3577  153.2851 H   0  0  0  0  0  0  0  0  0  0  0  0
  146.4907  143.1022  155.7197 H   0  0  0  0  0  0  0  0  0  0  0  0
  145.7398  141.5314  155.5145 H   0  0  0  0  0  0  0  0  0  0  0  0
  147.6626  140.5342  156.1597 H   0  0  0  0  0  0  0  0  0  0  0  0
  149.0202  143.1720  155.8147 H   0  0  0  0  0  0  0  0  0  0  0  0
  150.3820  143.7311  157.1069 H   0  0  0  0  0  0  0  0  0  0  0  0
  151.7278  140.8906  159.0231 H   0  0  0  0  0  0  0  0  0  0  0  0
  153.1670  141.2410  161.0089 H   0  0  0  0  0  0  0  0  0  0  0  0
  152.3462  145.2877  161.1225 H   0  0  0  0  0  0  0  0  0  0  0  0
  1  2  1  0  0  0  0
  1 20  1  0  0  0  0
  1 21  1  0  0  0  0
  1 22  1  0  0  0  0
  2  3  1  0  0  0  0
  2 23  1  0  0  0  0
  2 24  1  0  0  0  0
  3  4  1  0  0  0  0
  4  8  1  0  0  0  0
  4  5  1  0  0  0  0
  4 25  1  0  0  0  0
  5  6  1  0  0  0  0
  5 26  1  0  0  0  0
  5 27  1  0  0  0  0
  6  7  1  0  0  0  0
  6 28  1  0  0  0  0
  6 29  1  0  0  0  0
  7  8  1  0  0  0  0
  7 30  1  0  0  0  0
  7 31  1  0  0  0  0
  8  9  1  0  0  0  0
  8 32  1  0  0  0  0
  9 10  1  0  0  0  0
  9 33  1  0  0  0  0
 10 11  2  0  0  0  0
 10 12  1  0  0  0  0
 12 13  1  0  0  0  0
 12 34  1  0  0  0  0
 13 18  1  0  0  0  0
 13 14  2  0  0  0  0
 14 15  1  0  0  0  0
 14 35  1  0  0  0  0
 15 16  2  0  0  0  0
 15 36  1  0  0  0  0
 16 17  1  0  0  0  0
 17 18  2  0  0  0  0
 17 37  1  0  0  0  0
 18 19  1  0  0  0  0
M  END
> <s_m_source_file>
AV-unprocessed.smi

> <i_m_source_file_index>
2345

> <i_lp_mmshare_version>
43012

> <i_f3d_flags>
0

> <s_epik_input>
W0NIM11bQ0gyXVNbQ0BASF0xW0NIMl1bQ0gyXVtDSDJdW0NASF0xW05IXUMoPU8pW05IXWMyW2NIXVtjSF1uW2NIXWMyRg==

> <s_epik_cmdline>
J2VwaWtfcHl0aG9uJywgJy1waCcsICc3LjAnLCAnLXRuJywgJzgnLCAnLW1hJywgJzIwMCcsICctbWV0YWxfYmluZGluZycsICctaW1hZScsICc8aW5maWxlLm1hZT4nLCAnLW9tYWUnLCAnPG91dGZpbGUubWFlPic=

> <r_epik_Ionization_Penalty>
0.00333745

> <r_epik_Ionization_Penalty_Charging>
0

> <r_epik_Ionization_Penalty_Neutral>
0.00333745

> <r_epik_State_Penalty>
0.00233401

> <r_epik_Charging_Adjusted_Penalty>
0.00233401

> <i_epik_Tot_Q>
0

> <i_epik_Tot_abs_Q>
0

> <r_epik_Metal_State_Penalty>
-0

> <b_epik_Metal_Only>
0

> <s_lp_Force_Field>
OPLS_2005

> <r_lp_Energy>
20.2483

> <b_lp_Chiralities_Consistent>
1

> <s_lp_Variant>
AV-unprocessed.smi:2345-4

> <Gold.Version>
5.8.1

> <Gold.Id.Protein>
6NUR|6NUR_protein|mol2

> <Gold.PLP.Fitness>
43.7025

> <Gold.PLP.PLP>
-40.8922

> <Gold.PLP.part.hbond>
-1.7890

> <Gold.PLP.part.metal>
0.0000

> <Gold.PLP.part.buried>
-4.5084

> <Gold.PLP.part.nonpolar>
-34.4740

> <Gold.PLP.part.repulsive>
0.1529

> <Gold.PLP.ligand.clash>
0.0000

> <Gold.PLP.ligand.torsion>
0.5399

> <Gold.PLP.Chemscore.Hbond>
1.2933

> <Gold.PLP.Chemscore.CHOScore>
0.0000

> <Gold.PLP.Chemscore.Metal>
0.0000

> <Gold.Chemscore.Hbonds>
donor molecule, donor type, donor heavy atom, donor atom, acceptor molecule, acceptor atom, score
      L1  H     9    33       P1  8028  1.00
      L1  H    12    34       P1  8028  0.24

> <Gold.PLP.Chemscore.Internal.Correction>
0.0102

> <Gold.Rescore>
     Score         DG    S(hbond)    S(metal)    S(lipo)     H(rot)  DE(clash)    DE(int)     intcor
     19.16     -20.32       1.84        0.00     103.92       1.35       0.59       0.57       ----

> <Gold.Chemscore.Fitness>
19.1614

> <Gold.Chemscore.DG>
-20.3220

> <Gold.Chemscore.ZeroCoef>
-5.4800

> <Gold.Chemscore.Hbond>
1.8361

> <Gold.Chemscore.Metal>
0.0000

> <Gold.Chemscore.Lipo>
103.9228

> <Gold.Chemscore.Internal_Hbond>
0.0000

> <Gold.Chemscore.DEClash>
0.5890

> <Gold.Chemscore.DEInternal>
0.5716

> <Gold.Chemscore.Rot>
1.3475

> <Gold.Chemscore.Internal.Correction>
   9.000000E+99

> <Gold.Chemscore.Hbonds>
donor molecule, donor type, donor heavy atom, donor atom, acceptor molecule, acceptor atom, score
      L1  H     9    33       P1  8028  0.95
      L1  H    12    34       P1  8028  0.24

> <Gold.Chemscore.Hbond.Weighted>
-6.1326

> <Gold.Chemscore.Metal.Weighted>
-0.0000

> <Gold.Chemscore.Lipo.Weighted>
-12.1590

> <Gold.Chemscore.Internal_Hbond.Weighted>
0.0000

> <Gold.Chemscore.DEClash.Weighted>
0.5890

> <Gold.Chemscore.DEInternal.Weighted>
0.5716

> <Gold.Chemscore.Rot.Weighted>
3.4496

> <Gold.Chemscore.Internal.Correction.Weighted>
   9.000000E+99

> <Gold.Protein.RotatedTorsions>
[ 6907 6896 6895 6894 ] final  -28.45 input  -60.11 | X-H torsion
[ 7974 7965 7964 7962 ] final   54.83 input  175.53 | X-H torsion
[ 8008 7997 7996 7995 ] final  116.43 input   59.86 | X-H torsion
[ 10167 10162 10161 10158 ] final -117.75 input  -65.29 | X-H torsion
[ 10718 10713 10712 10709 ] final  -10.68 input   66.30 | X-H torsion
[ 10763 10752 10751 10750 ] final  130.98 input  -60.55 | X-H torsion
[ 11005 11000 10999 10996 ] final -144.65 input  -57.11 | X-H torsion

> <Gold.Protein.ActiveResidues>
 VAL166  LYS551  ARG553  GLY616  TRP617  ASP618  TYR619  PRO620  LYS621  CYS622 
 ASP623  PHE694  ASN695  SER759  ASP760  ASP761  ALA762  ILE779  LEU786  VAL792 
 PHE793  MET794  SER795  GLU796  ALA797  LYS798  CYS799  TRP800  GLU811  SER814 

> <Gold.Protein.RotatedAtoms>
  151.1328  135.0139  159.8589 H   0  0  0  0  0  0  0  0  0  0  0  0  # atno 6907 bound_to 6896
  152.5451  134.1590  159.8560 H   0  0  0  0  0  0  0  0  0  0  0  0  # atno 6908 bound_to 6896
  151.1658  133.4770  159.2627 H   0  0  0  0  0  0  0  0  0  0  0  0  # atno 6909 bound_to 6896
  145.9567  139.4022  143.0273 H   0  0  0  0  0  0  0  0  0  0  0  0  # atno 7974 bound_to 7965
  156.2438  140.2918  156.0521 H   0  0  0  0  0  0  0  0  0  0  0  0  # atno 8008 bound_to 7997
  155.1869  140.0406  157.2910 H   0  0  0  0  0  0  0  0  0  0  0  0  # atno 8009 bound_to 7997
  154.6221  140.2478  155.7543 H   0  0  0  0  0  0  0  0  0  0  0  0  # atno 8010 bound_to 7997
  140.0650  143.4932  152.2011 H   0  0  0  0  0  0  0  0  0  0  0  0  # atno 10167 bound_to 10162
  156.6699  130.5006  149.6003 H   0  0  0  0  0  0  0  0  0  0  0  0  # atno 10718 bound_to 10713
  153.7669  135.3188  155.3346 H   0  0  0  0  0  0  0  0  0  0  0  0  # atno 10763 bound_to 10752
  154.8210  135.4603  154.0783 H   0  0  0  0  0  0  0  0  0  0  0  0  # atno 10764 bound_to 10752
  153.2031  135.6925  153.8291 H   0  0  0  0  0  0  0  0  0  0  0  0  # atno 10765 bound_to 10752
  140.8003  134.2865  157.4981 H   0  0  0  0  0  0  0  0  0  0  0  0  # atno 11005 bound_to 11000
  145.8096  140.9732  143.0956 LP  0  0  0  0  0  0  0  0  0  0  0  0  # atno 17320 bound_to 7965
  144.6806  139.9904  143.7484 LP  0  0  0  0  0  0  0  0  0  0  0  0  # atno 17321 bound_to 7965
  139.5871  144.7535  151.3494 LP  0  0  0  0  0  0  0  0  0  0  0  0  # atno 17342 bound_to 10162
  140.7154  143.7281  150.7644 LP  0  0  0  0  0  0  0  0  0  0  0  0  # atno 17343 bound_to 10162
  156.1946  130.6581  151.1100 LP  0  0  0  0  0  0  0  0  0  0  0  0  # atno 17370 bound_to 10713
  157.7080  131.0747  150.6598 LP  0  0  0  0  0  0  0  0  0  0  0  0  # atno 17371 bound_to 10713
  139.8722  134.9425  156.3827 LP  0  0  0  0  0  0  0  0  0  0  0  0  # atno 17394 bound_to 11000
  140.9302  133.7585  156.0015 LP  0  0  0  0  0  0  0  0  0  0  0  0  # atno 17395 bound_to 11000

$$$$
