AV-unprocessed.smi:3118|AV-procd|sdf|11886|dock6
  -GOLD-   2272017273D 1   1.00000     0.00000
 Structure written by MMmdl.
 33 34  0  0  0  0  0  0  0  0  2 V2000
  149.2915  140.8145  156.7665 C   0  0  0  0  0  0  0  0  0  0  0  0
  150.4749  141.3858  155.9739 C   0  0  2  0  0  0  0  0  0  0  0  0
  151.6485  140.3837  155.9213 C   0  0  0  0  0  0  0  0  0  0  0  0
  151.2863  139.1123  155.2857 N   0  0  0  0  0  0  0  0  0  0  0  0
  151.5328  137.8491  155.7586 C   0  0  0  0  0  0  0  0  0  0  0  0
  151.0028  136.9782  154.8419 C   0  0  0  0  0  0  0  0  0  0  0  0
  150.4604  137.7458  153.8464 N   0  3  0  0  0  0  0  0  0  0  0  0
  150.6382  139.0432  154.1154 C   0  0  0  0  0  0  0  0  0  0  0  0
  150.8868  142.6487  156.5860 N   0  0  0  0  0  0  0  0  0  0  0  0
  151.5643  142.7795  157.7374 C   0  0  0  0  0  0  0  0  0  0  0  0
  151.9207  141.8211  158.4240 O   0  0  0  0  0  0  0  0  0  0  0  0
  151.8677  144.2169  158.1781 C   0  0  0  0  0  0  0  0  0  0  0  0
  152.4958  144.3500  159.5771 C   0  0  0  0  0  0  0  0  0  0  0  0
  151.5291  145.5049  159.8555 C   0  0  0  0  0  0  0  0  0  0  0  0
  150.6460  144.9786  158.7204 C   0  0  0  0  0  0  0  0  0  0  0  0
  148.9311  139.8874  156.3198 H   0  0  0  0  0  0  0  0  0  0  0  0
  148.4558  141.5150  156.7853 H   0  0  0  0  0  0  0  0  0  0  0  0
  149.5698  140.5995  157.7989 H   0  0  0  0  0  0  0  0  0  0  0  0
  150.1211  141.5685  154.9574 H   0  0  0  0  0  0  0  0  0  0  0  0
  152.5035  140.8097  155.3935 H   0  0  0  0  0  0  0  0  0  0  0  0
  151.9880  140.1475  156.9306 H   0  0  0  0  0  0  0  0  0  0  0  0
  152.0465  137.6686  156.6918 H   0  0  0  0  0  0  0  0  0  0  0  0
  150.9706  135.8985  154.8247 H   0  0  0  0  0  0  0  0  0  0  0  0
  150.3107  139.8711  153.5121 H   0  0  0  0  0  0  0  0  0  0  0  0
  150.6420  143.4928  156.0886 H   0  0  0  0  0  0  0  0  0  0  0  0
  152.4123  144.7969  157.4302 H   0  0  0  0  0  0  0  0  0  0  0  0
  152.3282  143.4943  160.2335 H   0  0  0  0  0  0  0  0  0  0  0  0
  153.5457  144.6442  159.5717 H   0  0  0  0  0  0  0  0  0  0  0  0
  151.0651  145.4825  160.8419 H   0  0  0  0  0  0  0  0  0  0  0  0
  151.9638  146.4808  159.6337 H   0  0  0  0  0  0  0  0  0  0  0  0
  150.2698  145.7558  158.0549 H   0  0  0  0  0  0  0  0  0  0  0  0
  149.8391  144.3357  159.0776 H   0  0  0  0  0  0  0  0  0  0  0  0
  149.9900  137.3859  153.0254 H   0  0  0  0  0  0  0  0  0  0  0  0
  1  2  1  0  0  0  0
  1 16  1  0  0  0  0
  1 17  1  0  0  0  0
  1 18  1  0  0  0  0
  2  3  1  0  0  0  0
  2  9  1  0  0  0  0
  2 19  1  0  0  0  0
  3  4  1  0  0  0  0
  3 20  1  0  0  0  0
  3 21  1  0  0  0  0
  4  8  1  0  0  0  0
  4  5  1  0  0  0  0
  5  6  2  0  0  0  0
  5 22  1  0  0  0  0
  6  7  1  0  0  0  0
  6 23  1  0  0  0  0
  7  8  2  0  0  0  0
  7 33  1  0  0  0  0
  8 24  1  0  0  0  0
  9 10  1  0  0  0  0
  9 25  1  0  0  0  0
 10 11  2  0  0  0  0
 10 12  1  0  0  0  0
 12 15  1  0  0  0  0
 12 13  1  0  0  0  0
 12 26  1  0  0  0  0
 13 14  1  0  0  0  0
 13 27  1  0  0  0  0
 13 28  1  0  0  0  0
 14 15  1  0  0  0  0
 14 29  1  0  0  0  0
 14 30  1  0  0  0  0
 15 31  1  0  0  0  0
 15 32  1  0  0  0  0
M  CHG  1   7   1
M  END
> <s_m_source_file>
AV-unprocessed.smi

> <i_m_source_file_index>
3118

> <i_lp_mmshare_version>
43012

> <i_f3d_flags>
0

> <s_epik_input>
W0NIMl0xW0NIMl1bQ0gyXVtDSF0xQyg9TylbTkhdW0NASF0oW0NIM10pW0NIMl1uMltjSF1bY0hdbltjSF0y

> <s_epik_cmdline>
J2VwaWtfcHl0aG9uJywgJy1waCcsICc3LjAnLCAnLXRuJywgJzgnLCAnLW1hJywgJzIwMCcsICctbWV0YWxfYmluZGluZycsICctaW1hZScsICc8aW5maWxlLm1hZT4nLCAnLW9tYWUnLCAnPG91dGZpbGUubWFlPic=

> <r_lp_tautomer_probability>
1

> <r_epik_Ionization_Penalty>
0.244425

> <r_epik_Ionization_Penalty_Charging>
0

> <r_epik_Ionization_Penalty_Neutral>
0.244425

> <r_epik_State_Penalty>
0.23553

> <r_epik_Charging_Adjusted_Penalty>
0.23553

> <i_epik_Tot_Q>
1

> <i_epik_Tot_abs_Q>
1

> <r_epik_Metal_State_Penalty>
0.5288

> <b_epik_Metal_Only>
0

> <s_lp_Force_Field>
OPLS_2005

> <r_lp_Energy>
13.9066

> <b_lp_Chiralities_Consistent>
1

> <s_lp_Variant>
AV-unprocessed.smi:3118-1

> <Gold.Version>
5.8.1

> <Gold.Id.Protein>
6NUR|6NUR_protein|mol2

> <Gold.PLP.Fitness>
47.9708

> <Gold.PLP.PLP>
-36.7474

> <Gold.PLP.part.hbond>
-2.8385

> <Gold.PLP.part.metal>
0.0000

> <Gold.PLP.part.buried>
-3.5588

> <Gold.PLP.part.nonpolar>
-30.1803

> <Gold.PLP.part.repulsive>
0.1300

> <Gold.PLP.ligand.clash>
0.0000

> <Gold.PLP.ligand.torsion>
0.4877

> <Gold.PLP.Chemscore.Hbond>
3.0000

> <Gold.PLP.Chemscore.CHOScore>
0.9275

> <Gold.PLP.Chemscore.Metal>
0.0000

> <Gold.Chemscore.Hbonds>
donor molecule, donor type, donor heavy atom, donor atom, acceptor molecule, acceptor atom, score
      L1  H     7    33       P1  7948  1.80
      L1  H     9    25       P1  8028  0.53
      L1  C     8    24       P1  7957  1.00

> <Gold.PLP.Chemscore.Internal.Correction>
0.4162

> <Gold.Rescore>
     Score         DG    S(hbond)    S(metal)    S(lipo)     H(rot)  DE(clash)    DE(int)     intcor
     14.53     -16.33       1.89        0.00      79.26       1.86       0.18       1.62       ----

> <Gold.Chemscore.Fitness>
14.5267

> <Gold.Chemscore.DG>
-16.3265

> <Gold.Chemscore.ZeroCoef>
-5.4800

> <Gold.Chemscore.Hbond>
1.8938

> <Gold.Chemscore.Metal>
0.0000

> <Gold.Chemscore.Lipo>
79.2564

> <Gold.Chemscore.Internal_Hbond>
0.0000

> <Gold.Chemscore.DEClash>
0.1829

> <Gold.Chemscore.DEInternal>
1.6170

> <Gold.Chemscore.Rot>
1.8561

> <Gold.Chemscore.Internal.Correction>
   9.000000E+99

> <Gold.Chemscore.Hbonds>
donor molecule, donor type, donor heavy atom, donor atom, acceptor molecule, acceptor atom, score
      L1  H     7    33       P1  7948  0.18
      L1  H     9    25       P1  8028  0.51

> <Gold.Chemscore.Hbond.Weighted>
-6.3251

> <Gold.Chemscore.Metal.Weighted>
-0.0000

> <Gold.Chemscore.Lipo.Weighted>
-9.2730

> <Gold.Chemscore.Internal_Hbond.Weighted>
0.0000

> <Gold.Chemscore.DEClash.Weighted>
0.1829

> <Gold.Chemscore.DEInternal.Weighted>
1.6170

> <Gold.Chemscore.Rot.Weighted>
4.7516

> <Gold.Chemscore.Internal.Correction.Weighted>
   9.000000E+99

> <Gold.Protein.RotatedTorsions>
[ 6907 6896 6895 6894 ] final  158.12 input  -60.11 | X-H torsion
[ 7974 7965 7964 7962 ] final -160.48 input  175.53 | X-H torsion
[ 8008 7997 7996 7995 ] final -165.63 input   59.86 | X-H torsion
[ 10167 10162 10161 10158 ] final   53.99 input  -65.29 | X-H torsion
[ 10718 10713 10712 10709 ] final -119.79 input   66.30 | X-H torsion
[ 10763 10752 10751 10750 ] final   16.88 input  -60.55 | X-H torsion
[ 11005 11000 10999 10996 ] final   12.61 input  -57.11 | X-H torsion

> <Gold.Protein.ActiveResidues>
 VAL166  LYS551  ARG553  GLY616  TRP617  ASP618  TYR619  PRO620  LYS621  CYS622 
 ASP623  PHE694  ASN695  SER759  ASP760  ASP761  ALA762  ILE779  LEU786  VAL792 
 PHE793  MET794  SER795  GLU796  ALA797  LYS798  CYS799  TRP800  GLU811  SER814 

> <Gold.Protein.RotatedAtoms>
  152.0050  133.3839  159.4196 H   0  0  0  0  0  0  0  0  0  0  0  0  # atno 6907 bound_to 6896
  150.6905  134.3792  159.5036 H   0  0  0  0  0  0  0  0  0  0  0  0  # atno 6908 bound_to 6896
  152.1545  134.8961  160.0596 H   0  0  0  0  0  0  0  0  0  0  0  0  # atno 6909 bound_to 6896
  144.7425  140.3536  143.6111 H   0  0  0  0  0  0  0  0  0  0  0  0  # atno 7974 bound_to 7965
  155.8524  140.0965  157.1666 H   0  0  0  0  0  0  0  0  0  0  0  0  # atno 8008 bound_to 7997
  154.3986  140.1380  156.3923 H   0  0  0  0  0  0  0  0  0  0  0  0  # atno 8009 bound_to 7997
  155.7946  140.3454  155.5371 H   0  0  0  0  0  0  0  0  0  0  0  0  # atno 8010 bound_to 7997
  140.2349  144.3647  150.6401 H   0  0  0  0  0  0  0  0  0  0  0  0  # atno 10167 bound_to 10162
  156.1208  130.6321  150.9460 H   0  0  0  0  0  0  0  0  0  0  0  0  # atno 10718 bound_to 10713
  153.1390  135.6756  153.9057 H   0  0  0  0  0  0  0  0  0  0  0  0  # atno 10763 bound_to 10752
  153.8520  135.3092  155.3434 H   0  0  0  0  0  0  0  0  0  0  0  0  # atno 10764 bound_to 10752
  154.7771  135.4908  153.9851 H   0  0  0  0  0  0  0  0  0  0  0  0  # atno 10765 bound_to 10752
  140.4900  134.0850  155.7769 H   0  0  0  0  0  0  0  0  0  0  0  0  # atno 11005 bound_to 11000
  145.7251  139.1720  143.2462 LP  0  0  0  0  0  0  0  0  0  0  0  0  # atno 17320 bound_to 7965
  146.1248  140.7262  142.9440 LP  0  0  0  0  0  0  0  0  0  0  0  0  # atno 17321 bound_to 7965
  140.6158  143.2172  151.6795 LP  0  0  0  0  0  0  0  0  0  0  0  0  # atno 17342 bound_to 10162
  139.5097  144.3567  152.0601 LP  0  0  0  0  0  0  0  0  0  0  0  0  # atno 17343 bound_to 10162
  157.6391  131.0912  150.8287 LP  0  0  0  0  0  0  0  0  0  0  0  0  # atno 17370 bound_to 10713
  156.8384  130.5039  149.5324 LP  0  0  0  0  0  0  0  0  0  0  0  0  # atno 17371 bound_to 10713
  141.1489  133.9005  157.2148 LP  0  0  0  0  0  0  0  0  0  0  0  0  # atno 17394 bound_to 11000
  139.9775  135.0109  156.9667 LP  0  0  0  0  0  0  0  0  0  0  0  0  # atno 17395 bound_to 11000

$$$$
