AV-unprocessed.smi:1120|AV-procd|sdf|4825|dock6
  -GOLD-   22720 3383D 1   1.00000     0.00000
 Structure written by MMmdl.
 48 49  0  0  0  0  0  0  0  0  3 V2000
  152.8476  143.2082  160.6228 C   0  0  0  0  0  0  0  0  0  0  0  0
  151.7744  142.8203  159.5962 C   0  0  2  0  0  0  0  0  0  0  0  0
  151.5628  141.2903  159.5361 C   0  0  0  0  0  0  0  0  0  0  0  0
  150.5195  140.8625  158.4706 C   0  0  0  0  0  0  0  0  0  0  0  0
  150.8124  141.3913  157.0447 C   0  0  2  0  0  0  0  0  0  0  0  0
  151.9692  140.7016  156.4899 N   0  5  0  0  0  0  0  0  0  0  0  0
  151.7695  139.4172  155.5191 S   0  0  0  0  0  0  0  0  0  0  0  0
  150.9355  139.7347  154.3489 O   0  0  0  0  0  0  0  0  0  0  0  0
  153.0208  138.6821  155.2677 O   0  0  0  0  0  0  0  0  0  0  0  0
  150.7284  138.3324  156.5965 C   0  0  0  0  0  0  0  0  0  0  0  0
  150.6404  136.9183  156.0205 C   0  0  0  0  0  0  0  0  0  0  0  0
  151.3472  136.5995  155.0641 O   0  0  0  0  0  0  0  0  0  0  0  0
  149.7782  136.0775  156.6148 N   0  0  0  0  0  0  0  0  0  0  0  0
  149.4887  134.7123  156.1845 C   0  0  0  0  0  0  0  0  0  0  0  0
  149.4876  134.5527  154.6513 C   0  0  0  0  0  0  0  0  0  0  0  0
  148.4927  133.5246  154.1425 C   0  0  0  0  0  0  0  0  0  0  0  0
  148.3973  132.2291  154.6962 C   0  0  0  0  0  0  0  0  0  0  0  0
  147.4672  131.3165  154.1564 C   0  0  0  0  0  0  0  0  0  0  0  0
  146.6511  131.7185  153.0787 C   0  0  0  0  0  0  0  0  0  0  0  0
  146.7860  133.0253  152.5674 C   0  0  0  0  0  0  0  0  0  0  0  0
  147.6878  133.8707  153.1120 N   0  3  0  0  0  0  0  0  0  0  0  0
  151.0694  142.9187  157.1161 C   0  0  0  0  0  0  0  0  0  0  0  0
  152.1172  143.3369  158.1801 C   0  0  0  0  0  0  0  0  0  0  0  0
  153.8160  142.7776  160.3660 H   0  0  0  0  0  0  0  0  0  0  0  0
  152.5809  142.8564  161.6197 H   0  0  0  0  0  0  0  0  0  0  0  0
  152.9675  144.2906  160.6755 H   0  0  0  0  0  0  0  0  0  0  0  0
  150.8348  143.2800  159.9058 H   0  0  0  0  0  0  0  0  0  0  0  0
  152.5173  140.7963  159.3426 H   0  0  0  0  0  0  0  0  0  0  0  0
  151.2393  140.9308  160.5135 H   0  0  0  0  0  0  0  0  0  0  0  0
  150.4303  139.7755  158.4564 H   0  0  0  0  0  0  0  0  0  0  0  0
  149.5419  141.2332  158.7811 H   0  0  0  0  0  0  0  0  0  0  0  0
  149.9267  141.2152  156.4333 H   0  0  0  0  0  0  0  0  0  0  0  0
  151.1541  138.3220  157.6000 H   0  0  0  0  0  0  0  0  0  0  0  0
  149.7342  138.7740  156.6608 H   0  0  0  0  0  0  0  0  0  0  0  0
  149.2369  136.4325  157.3903 H   0  0  0  0  0  0  0  0  0  0  0  0
  150.2511  134.0620  156.6136 H   0  0  0  0  0  0  0  0  0  0  0  0
  148.5380  134.3761  156.6019 H   0  0  0  0  0  0  0  0  0  0  0  0
  149.2767  135.5151  154.1832 H   0  0  0  0  0  0  0  0  0  0  0  0
  150.4846  134.2663  154.3147 H   0  0  0  0  0  0  0  0  0  0  0  0
  149.0358  131.9327  155.5156 H   0  0  0  0  0  0  0  0  0  0  0  0
  147.3839  130.3189  154.5618 H   0  0  0  0  0  0  0  0  0  0  0  0
  145.9354  131.0334  152.6481 H   0  0  0  0  0  0  0  0  0  0  0  0
  146.2082  133.4157  151.7424 H   0  0  0  0  0  0  0  0  0  0  0  0
  151.3626  143.3044  156.1398 H   0  0  0  0  0  0  0  0  0  0  0  0
  150.1271  143.4138  157.3527 H   0  0  0  0  0  0  0  0  0  0  0  0
  152.1887  144.4248  158.1986 H   0  0  0  0  0  0  0  0  0  0  0  0
  153.1082  142.9821  157.8880 H   0  0  0  0  0  0  0  0  0  0  0  0
  147.7761  134.8078  152.7186 H   0  0  0  0  0  0  0  0  0  0  0  0
  1  2  1  0  0  0  0
  1 24  1  0  0  0  0
  1 25  1  0  0  0  0
  1 26  1  0  0  0  0
  2 23  1  0  0  0  0
  2  3  1  0  0  0  0
  2 27  1  0  0  0  0
  3  4  1  0  0  0  0
  3 28  1  0  0  0  0
  3 29  1  0  0  0  0
  4  5  1  0  0  0  0
  4 30  1  0  0  0  0
  4 31  1  0  0  0  0
  5  6  1  0  0  0  0
  5 22  1  0  0  0  0
  5 32  1  0  0  0  0
  6  7  1  0  0  0  0
  7  8  2  0  0  0  0
  7  9  2  0  0  0  0
  7 10  1  0  0  0  0
 10 11  1  0  0  0  0
 10 33  1  0  0  0  0
 10 34  1  0  0  0  0
 11 12  2  0  0  0  0
 11 13  1  0  0  0  0
 13 14  1  0  0  0  0
 13 35  1  0  0  0  0
 14 15  1  0  0  0  0
 14 36  1  0  0  0  0
 14 37  1  0  0  0  0
 15 16  1  0  0  0  0
 15 38  1  0  0  0  0
 15 39  1  0  0  0  0
 16 21  1  0  0  0  0
 16 17  2  0  0  0  0
 17 18  1  0  0  0  0
 17 40  1  0  0  0  0
 18 19  2  0  0  0  0
 18 41  1  0  0  0  0
 19 20  1  0  0  0  0
 19 42  1  0  0  0  0
 20 21  2  0  0  0  0
 20 43  1  0  0  0  0
 21 48  1  0  0  0  0
 22 23  1  0  0  0  0
 22 44  1  0  0  0  0
 22 45  1  0  0  0  0
 23 46  1  0  0  0  0
 23 47  1  0  0  0  0
M  CHG  1   6  -1
M  CHG  1  21   1
M  END
> <s_m_source_file>
AV-unprocessed.smi

> <i_m_source_file_index>
1120

> <i_lp_mmshare_version>
43012

> <i_f3d_flags>
0

> <s_epik_input>
W0NIM11bQ0BASF0xW0NIMl1bQ0gyXVtDQEhdKFtDSDJdW0NIMl0xKVtOSF1TKD1PKSg9TylbQ0gyXUMoPU8pW05IXVtDSDJdW0NIMl1jMltjSF1bY0hdW2NIXVtjSF1uMg==

> <s_epik_cmdline>
J2VwaWtfcHl0aG9uJywgJy1waCcsICc3LjAnLCAnLXRuJywgJzgnLCAnLW1hJywgJzIwMCcsICctbWV0YWxfYmluZGluZycsICctaW1hZScsICc8aW5maWxlLm1hZT4nLCAnLW9tYWUnLCAnPG91dGZpbGUubWFlPic=

> <r_epik_Ionization_Penalty>
7.48373

> <r_epik_Ionization_Penalty_Charging>
7.48373

> <r_epik_Ionization_Penalty_Neutral>
1.58512e-08

> <r_epik_State_Penalty>
7.71683

> <r_epik_Charging_Adjusted_Penalty>
15.2006

> <i_epik_Tot_Q>
0

> <i_epik_Tot_abs_Q>
2

> <r_epik_Metal_State_Penalty>
3.7254

> <b_epik_Metal_Only>
1

> <s_lp_Force_Field>
OPLS_2005

> <r_lp_Energy>
13.616

> <b_lp_Chiralities_Consistent>
1

> <s_lp_Variant>
AV-unprocessed.smi:1120-8

> <Gold.Version>
5.8.1

> <Gold.Id.Protein>
6NUR|6NUR_protein|mol2

> <Gold.PLP.Fitness>
53.2999

> <Gold.PLP.PLP>
-40.4528

> <Gold.PLP.part.hbond>
-4.4512

> <Gold.PLP.part.metal>
0.0000

> <Gold.PLP.part.buried>
-3.1566

> <Gold.PLP.part.nonpolar>
-33.1555

> <Gold.PLP.part.repulsive>
0.3484

> <Gold.PLP.ligand.clash>
0.0000

> <Gold.PLP.ligand.torsion>
1.6538

> <Gold.PLP.Chemscore.Hbond>
5.0000

> <Gold.PLP.Chemscore.CHOScore>
0.0000

> <Gold.PLP.Chemscore.Metal>
0.0000

> <Gold.Chemscore.Hbonds>
donor molecule, donor type, donor heavy atom, donor atom, acceptor molecule, acceptor atom, score
      L1  H    21    48       P1  7948  1.89
      P1  H  7989  7998       L1     8  1.00
      P1  H  7997  8010       L1     9  0.68
      P1  H 10752 10765       L1    12  1.00

> <Gold.PLP.Chemscore.Internal.Correction>
1.1547

> <Gold.Rescore>
     Score         DG    S(hbond)    S(metal)    S(lipo)     H(rot)  DE(clash)    DE(int)     intcor
     17.01     -22.55       3.19        0.00      98.27       1.98       0.98       4.56       ----

> <Gold.Chemscore.Fitness>
17.0098

> <Gold.Chemscore.DG>
-22.5487

> <Gold.Chemscore.ZeroCoef>
-5.4800

> <Gold.Chemscore.Hbond>
3.1879

> <Gold.Chemscore.Metal>
0.0000

> <Gold.Chemscore.Lipo>
98.2731

> <Gold.Chemscore.Internal_Hbond>
0.0000

> <Gold.Chemscore.DEClash>
0.9758

> <Gold.Chemscore.DEInternal>
4.5631

> <Gold.Chemscore.Rot>
1.9832

> <Gold.Chemscore.Internal.Correction>
   9.000000E+99

> <Gold.Chemscore.Hbonds>
donor molecule, donor type, donor heavy atom, donor atom, acceptor molecule, acceptor atom, score
      L1  H    21    48       P1  7948  0.82
      P1  H  7989  7998       L1     8  0.72
      P1  H  7997  8010       L1     9  0.17
      P1  H 10752 10765       L1    12  0.99

> <Gold.Chemscore.Hbond.Weighted>
-10.6476

> <Gold.Chemscore.Metal.Weighted>
-0.0000

> <Gold.Chemscore.Lipo.Weighted>
-11.4980

> <Gold.Chemscore.Internal_Hbond.Weighted>
0.0000

> <Gold.Chemscore.DEClash.Weighted>
0.9758

> <Gold.Chemscore.DEInternal.Weighted>
4.5631

> <Gold.Chemscore.Rot.Weighted>
5.0769

> <Gold.Chemscore.Internal.Correction.Weighted>
   9.000000E+99

> <Gold.Protein.RotatedTorsions>
[ 6907 6896 6895 6894 ] final   24.11 input  -60.11 | X-H torsion
[ 7974 7965 7964 7962 ] final   98.80 input  175.53 | X-H torsion
[ 8008 7997 7996 7995 ] final  102.23 input   59.86 | X-H torsion
[ 10167 10162 10161 10158 ] final -167.32 input  -65.29 | X-H torsion
[ 10718 10713 10712 10709 ] final  168.85 input   66.30 | X-H torsion
[ 10763 10752 10751 10750 ] final -174.31 input  -60.55 | X-H torsion
[ 11005 11000 10999 10996 ] final   74.80 input  -57.11 | X-H torsion

> <Gold.Protein.ActiveResidues>
 VAL166  LYS551  ARG553  GLY616  TRP617  ASP618  TYR619  PRO620  LYS621  CYS622 
 ASP623  PHE694  ASN695  SER759  ASP760  ASP761  ALA762  ILE779  LEU786  VAL792 
 PHE793  MET794  SER795  GLU796  ALA797  LYS798  CYS799  TRP800  GLU811  SER814 

> <Gold.Protein.RotatedAtoms>
  151.9525  135.0162  160.0542 H   0  0  0  0  0  0  0  0  0  0  0  0  # atno 6907 bound_to 6896
  152.1940  133.4789  159.5031 H   0  0  0  0  0  0  0  0  0  0  0  0  # atno 6908 bound_to 6896
  150.6941  134.1593  159.4213 H   0  0  0  0  0  0  0  0  0  0  0  0  # atno 6909 bound_to 6896
  145.4073  139.2339  143.3267 H   0  0  0  0  0  0  0  0  0  0  0  0  # atno 7974 bound_to 7965
  156.1374  140.3184  155.8442 H   0  0  0  0  0  0  0  0  0  0  0  0  # atno 8008 bound_to 7997
  155.4219  140.0513  157.3042 H   0  0  0  0  0  0  0  0  0  0  0  0  # atno 8009 bound_to 7997
  154.4948  140.2106  155.9483 H   0  0  0  0  0  0  0  0  0  0  0  0  # atno 8010 bound_to 7997
  139.6057  144.0918  152.1790 H   0  0  0  0  0  0  0  0  0  0  0  0  # atno 10167 bound_to 10162
  157.0311  131.0260  151.2744 H   0  0  0  0  0  0  0  0  0  0  0  0  # atno 10718 bound_to 10713
  154.5977  135.2851  155.0568 H   0  0  0  0  0  0  0  0  0  0  0  0  # atno 10763 bound_to 10752
  154.1845  135.6451  153.5047 H   0  0  0  0  0  0  0  0  0  0  0  0  # atno 10764 bound_to 10752
  153.0145  135.5431  154.6685 H   0  0  0  0  0  0  0  0  0  0  0  0  # atno 10765 bound_to 10752
  139.9374  134.7463  156.1192 H   0  0  0  0  0  0  0  0  0  0  0  0  # atno 11005 bound_to 11000
  146.2722  140.4780  142.8810 LP  0  0  0  0  0  0  0  0  0  0  0  0  # atno 17320 bound_to 7965
  144.8333  140.6741  143.6277 LP  0  0  0  0  0  0  0  0  0  0  0  0  # atno 17321 bound_to 7965
  140.0525  144.5921  150.7325 LP  0  0  0  0  0  0  0  0  0  0  0  0  # atno 17342 bound_to 10162
  140.7283  143.2660  151.4043 LP  0  0  0  0  0  0  0  0  0  0  0  0  # atno 17343 bound_to 10162
  157.5176  130.7978  149.7774 LP  0  0  0  0  0  0  0  0  0  0  0  0  # atno 17370 bound_to 10713
  156.0069  130.3851  150.2400 LP  0  0  0  0  0  0  0  0  0  0  0  0  # atno 17371 bound_to 10713
  141.0993  133.6683  156.2718 LP  0  0  0  0  0  0  0  0  0  0  0  0  # atno 17394 bound_to 11000
  140.6041  134.5525  157.5522 LP  0  0  0  0  0  0  0  0  0  0  0  0  # atno 17395 bound_to 11000

$$$$
