AV-unprocessed.smi:1641|AV-procd|sdf|6568|dock4
  -GOLD-   22720 7253D 1   1.00000     0.00000
 Structure written by MMmdl.
 41 42  0  0  0  0  0  0  0  0  3 V2000
  147.1789  135.5944  162.7903 C   0  0  0  0  0  0  0  0  0  0  0  0
  147.6462  135.9696  161.4257 C   0  0  0  0  0  0  0  0  0  0  0  0
  147.8494  137.2355  161.0526 N   0  0  0  0  0  0  0  0  0  0  0  0
  148.2799  137.3302  159.7369 N   0  0  0  0  0  0  0  0  0  0  0  0
  148.3847  136.1386  159.1313 C   0  0  0  0  0  0  0  0  0  0  0  0
  148.7844  136.0087  157.8555 N   0  5  0  0  0  0  0  0  0  0  0  0
  148.8884  134.7794  157.3032 C   0  0  0  0  0  0  0  0  0  0  0  0
  149.5746  133.8444  157.7225 O   0  0  0  0  0  0  0  0  0  0  0  0
  148.1582  134.6248  156.1897 N   0  0  0  0  0  0  0  0  0  0  0  0
  148.0924  133.4162  155.3769 C   0  0  0  0  0  0  0  0  0  0  0  0
  148.6263  133.6661  153.9530 C   0  0  0  0  0  0  0  0  0  0  0  0
  147.5395  133.9225  152.9764 N   0  3  1  0  0  0  0  0  0  0  0  0
  147.1453  132.6997  152.2394 C   0  0  0  0  0  0  0  0  0  0  0  0
  146.0930  133.0311  151.1663 C   0  0  1  0  0  0  0  0  0  0  0  0
  145.5920  131.7744  150.4459 C   0  0  0  0  0  0  0  0  0  0  0  0
  144.9703  133.6604  151.7785 O   0  0  0  0  0  0  0  0  0  0  0  0
  145.2725  134.8523  152.5039 C   0  0  2  0  0  0  0  0  0  0  0  0
  145.6289  136.0262  151.5741 C   0  0  0  0  0  0  0  0  0  0  0  0
  146.3443  134.5677  153.5743 C   0  0  0  0  0  0  0  0  0  0  0  0
  147.9696  134.7801  160.1760 S   0  0  0  0  0  0  0  0  0  0  0  0
  146.0908  135.6418  162.8367 H   0  0  0  0  0  0  0  0  0  0  0  0
  147.5934  136.2752  163.5344 H   0  0  0  0  0  0  0  0  0  0  0  0
  147.4963  134.5799  163.0320 H   0  0  0  0  0  0  0  0  0  0  0  0
  147.6074  135.4142  155.8847 H   0  0  0  0  0  0  0  0  0  0  0  0
  148.6417  132.6206  155.8806 H   0  0  0  0  0  0  0  0  0  0  0  0
  147.0515  133.0952  155.3323 H   0  0  0  0  0  0  0  0  0  0  0  0
  149.2868  134.5337  153.9886 H   0  0  0  0  0  0  0  0  0  0  0  0
  149.2359  132.8302  153.6061 H   0  0  0  0  0  0  0  0  0  0  0  0
  148.0219  132.2567  151.7652 H   0  0  0  0  0  0  0  0  0  0  0  0
  146.7539  131.9620  152.9423 H   0  0  0  0  0  0  0  0  0  0  0  0
  146.5274  133.6969  150.4203 H   0  0  0  0  0  0  0  0  0  0  0  0
  146.4104  131.2521  149.9499 H   0  0  0  0  0  0  0  0  0  0  0  0
  144.8531  132.0301  149.6861 H   0  0  0  0  0  0  0  0  0  0  0  0
  145.1245  131.0787  151.1432 H   0  0  0  0  0  0  0  0  0  0  0  0
  144.3539  135.1301  153.0215 H   0  0  0  0  0  0  0  0  0  0  0  0
  145.7213  136.9530  152.1410 H   0  0  0  0  0  0  0  0  0  0  0  0
  144.8530  136.1766  150.8231 H   0  0  0  0  0  0  0  0  0  0  0  0
  146.5737  135.8714  151.0538 H   0  0  0  0  0  0  0  0  0  0  0  0
  145.9306  133.9085  154.3391 H   0  0  0  0  0  0  0  0  0  0  0  0
  146.6117  135.4973  154.0755 H   0  0  0  0  0  0  0  0  0  0  0  0
  147.9135  134.5623  152.2903 H   0  0  0  0  0  0  0  0  0  0  0  0
  1  2  1  0  0  0  0
  1 21  1  0  0  0  0
  1 22  1  0  0  0  0
  1 23  1  0  0  0  0
  2 20  1  0  0  0  0
  2  3  2  0  0  0  0
  3  4  1  0  0  0  0
  4  5  2  0  0  0  0
  5  6  1  0  0  0  0
  5 20  1  0  0  0  0
  6  7  1  0  0  0  0
  7  8  2  0  0  0  0
  7  9  1  0  0  0  0
  9 10  1  0  0  0  0
  9 24  1  0  0  0  0
 10 11  1  0  0  0  0
 10 25  1  0  0  0  0
 10 26  1  0  0  0  0
 11 12  1  0  0  0  0
 11 27  1  0  0  0  0
 11 28  1  0  0  0  0
 12 19  1  0  0  0  0
 12 13  1  0  0  0  0
 12 41  1  0  0  0  0
 13 14  1  0  0  0  0
 13 29  1  0  0  0  0
 13 30  1  0  0  0  0
 14 15  1  0  0  0  0
 14 16  1  0  0  0  0
 14 31  1  0  0  0  0
 15 32  1  0  0  0  0
 15 33  1  0  0  0  0
 15 34  1  0  0  0  0
 16 17  1  0  0  0  0
 17 18  1  0  0  0  0
 17 19  1  0  0  0  0
 17 35  1  0  0  0  0
 18 36  1  0  0  0  0
 18 37  1  0  0  0  0
 18 38  1  0  0  0  0
 19 39  1  0  0  0  0
 19 40  1  0  0  0  0
M  CHG  1   6  -1
M  CHG  1  12   1
M  END
> <s_m_source_file>
AV-unprocessed.smi

> <i_m_source_file_index>
1641

> <i_lp_mmshare_version>
43012

> <i_f3d_flags>
0

> <s_epik_input>
W0NIM11jMW5uYyhzMSlbTkhdQyg9TylbTkhdW0NIMl1bQ0gyXU4yW0NIMl1bQ0BASF0oW0NIM10pT1tDQEBIXShbQ0gzXSlbQ0gyXTI=

> <s_epik_cmdline>
J2VwaWtfcHl0aG9uJywgJy1waCcsICc3LjAnLCAnLXRuJywgJzgnLCAnLW1hJywgJzIwMCcsICctbWV0YWxfYmluZGluZycsICctaW1hZScsICc8aW5maWxlLm1hZT4nLCAnLW9tYWUnLCAnPG91dGZpbGUubWFlPic=

> <r_lp_tautomer_probability>
1

> <r_epik_Ionization_Penalty>
3.5343

> <r_epik_Ionization_Penalty_Charging>
3.42778

> <r_epik_Ionization_Penalty_Neutral>
0.106519

> <r_epik_State_Penalty>
3.62118

> <r_epik_Charging_Adjusted_Penalty>
7.04896

> <i_epik_Tot_Q>
0

> <i_epik_Tot_abs_Q>
2

> <r_epik_Metal_State_Penalty>
1.13984

> <b_epik_Metal_Only>
1

> <s_lp_Force_Field>
OPLS_2005

> <r_lp_Energy>
9.90371

> <b_lp_Chiralities_Consistent>
1

> <s_lp_Variant>
AV-unprocessed.smi:1641-13

> <Gold.Version>
5.8.1

> <Gold.Id.Protein>
6NUR|6NUR_protein|mol2

> <Gold.PLP.Fitness>
41.9950

> <Gold.PLP.PLP>
-31.4480

> <Gold.PLP.part.hbond>
-5.5629

> <Gold.PLP.part.metal>
0.0000

> <Gold.PLP.part.buried>
-3.6829

> <Gold.PLP.part.nonpolar>
-22.9554

> <Gold.PLP.part.repulsive>
0.0959

> <Gold.PLP.ligand.clash>
0.0000

> <Gold.PLP.ligand.torsion>
1.2243

> <Gold.PLP.Chemscore.Hbond>
4.3056

> <Gold.PLP.Chemscore.CHOScore>
0.0000

> <Gold.PLP.Chemscore.Metal>
0.0000

> <Gold.Chemscore.Hbonds>
donor molecule, donor type, donor heavy atom, donor atom, acceptor molecule, acceptor atom, score
      L1  H    12    41       P1  7948  2.00
      P1  H  6896  6909       L1     8  1.00
      P1  H  6931  6943       L1     3  0.91
      P1  H  6934  6947       L1     3  0.36

> <Gold.PLP.Chemscore.Internal.Correction>
0.0788

> <Gold.Rescore>
     Score         DG    S(hbond)    S(metal)    S(lipo)     H(rot)  DE(clash)    DE(int)     intcor
     14.91     -16.27       2.16        0.00      65.76       1.61       0.13       1.23       ----

> <Gold.Chemscore.Fitness>
14.9102

> <Gold.Chemscore.DG>
-16.2715

> <Gold.Chemscore.ZeroCoef>
-5.4800

> <Gold.Chemscore.Hbond>
2.1592

> <Gold.Chemscore.Metal>
0.0000

> <Gold.Chemscore.Lipo>
65.7591

> <Gold.Chemscore.Internal_Hbond>
0.0000

> <Gold.Chemscore.DEClash>
0.1334

> <Gold.Chemscore.DEInternal>
1.2278

> <Gold.Chemscore.Rot>
1.6070

> <Gold.Chemscore.Internal.Correction>
   9.000000E+99

> <Gold.Chemscore.Hbonds>
donor molecule, donor type, donor heavy atom, donor atom, acceptor molecule, acceptor atom, score
      L1  H    12    41       P1  7948  0.42
      P1  H  6896  6909       L1     8  0.97
      P1  H  6931  6943       L1     3  0.31
      P1  H  6934  6947       L1     3  0.01

> <Gold.Chemscore.Hbond.Weighted>
-7.2116

> <Gold.Chemscore.Metal.Weighted>
-0.0000

> <Gold.Chemscore.Lipo.Weighted>
-7.6938

> <Gold.Chemscore.Internal_Hbond.Weighted>
0.0000

> <Gold.Chemscore.DEClash.Weighted>
0.1334

> <Gold.Chemscore.DEInternal.Weighted>
1.2278

> <Gold.Chemscore.Rot.Weighted>
4.1139

> <Gold.Chemscore.Internal.Correction.Weighted>
   9.000000E+99

> <Gold.Protein.RotatedTorsions>
[ 6907 6896 6895 6894 ] final   -3.17 input  -60.11 | X-H torsion
[ 7974 7965 7964 7962 ] final  -39.36 input  175.53 | X-H torsion
[ 8008 7997 7996 7995 ] final  -32.83 input   59.86 | X-H torsion
[ 10167 10162 10161 10158 ] final -133.21 input  -65.29 | X-H torsion
[ 10718 10713 10712 10709 ] final   60.40 input   66.30 | X-H torsion
[ 10763 10752 10751 10750 ] final  -33.38 input  -60.55 | X-H torsion
[ 11005 11000 10999 10996 ] final  102.55 input  -57.11 | X-H torsion

> <Gold.Protein.ActiveResidues>
 VAL166  LYS551  ARG553  GLY616  TRP617  ASP618  TYR619  PRO620  LYS621  CYS622 
 ASP623  PHE694  ASN695  SER759  ASP760  ASP761  ALA762  ILE779  LEU786  VAL792 
 PHE793  MET794  SER795  GLU796  ALA797  LYS798  CYS799  TRP800  GLU811  SER814 

> <Gold.Protein.RotatedAtoms>
  151.5180  135.1066  159.9870 H   0  0  0  0  0  0  0  0  0  0  0  0  # atno 6907 bound_to 6896
  152.4633  133.7864  159.6889 H   0  0  0  0  0  0  0  0  0  0  0  0  # atno 6908 bound_to 6896
  150.8604  133.7587  159.3019 H   0  0  0  0  0  0  0  0  0  0  0  0  # atno 6909 bound_to 6896
  146.0403  140.6617  142.9090 H   0  0  0  0  0  0  0  0  0  0  0  0  # atno 7974 bound_to 7965
  154.4167  140.1727  156.1791 H   0  0  0  0  0  0  0  0  0  0  0  0  # atno 8008 bound_to 7997
  155.9697  140.3386  155.6540 H   0  0  0  0  0  0  0  0  0  0  0  0  # atno 8009 bound_to 7997
  155.6641  140.0704  157.2534 H   0  0  0  0  0  0  0  0  0  0  0  0  # atno 8010 bound_to 7997
  139.9006  143.6612  152.2595 H   0  0  0  0  0  0  0  0  0  0  0  0  # atno 10167 bound_to 10162
  157.5750  130.8937  149.9331 H   0  0  0  0  0  0  0  0  0  0  0  0  # atno 10718 bound_to 10713
  153.8292  135.6867  153.4816 H   0  0  0  0  0  0  0  0  0  0  0  0  # atno 10763 bound_to 10752
  153.1521  135.4614  154.9650 H   0  0  0  0  0  0  0  0  0  0  0  0  # atno 10764 bound_to 10752
  154.7894  135.3296  154.7757 H   0  0  0  0  0  0  0  0  0  0  0  0  # atno 10765 bound_to 10752
  139.8778  134.9228  156.5076 H   0  0  0  0  0  0  0  0  0  0  0  0  # atno 11005 bound_to 11000
  144.7071  140.3895  143.7109 LP  0  0  0  0  0  0  0  0  0  0  0  0  # atno 17320 bound_to 7965
  145.6896  139.1636  143.2654 LP  0  0  0  0  0  0  0  0  0  0  0  0  # atno 17321 bound_to 7965
  139.7028  144.7632  151.1244 LP  0  0  0  0  0  0  0  0  0  0  0  0  # atno 17342 bound_to 10162
  140.7707  143.5434  150.9286 LP  0  0  0  0  0  0  0  0  0  0  0  0  # atno 17343 bound_to 10162
  156.0795  130.3675  150.0610 LP  0  0  0  0  0  0  0  0  0  0  0  0  # atno 17370 bound_to 10713
  156.8757  130.9539  151.3605 LP  0  0  0  0  0  0  0  0  0  0  0  0  # atno 17371 bound_to 10713
  140.8544  133.8107  155.9201 LP  0  0  0  0  0  0  0  0  0  0  0  0  # atno 17394 bound_to 11000
  140.9112  134.2258  157.4984 LP  0  0  0  0  0  0  0  0  0  0  0  0  # atno 17395 bound_to 11000

$$$$
