AV-unprocessed.smi:197|AV-procd|sdf|1544|dock1
  -GOLD-   2262019403D 1   1.00000     0.00000
 Structure written by MMmdl.
 54 57  0  0  0  0  0  0  0  0  1 V2000
  152.0049  144.8458  158.8187 C   0  0  0  0  0  0  0  0  0  0  0  0
  151.9432  143.4352  158.7104 O   0  0  0  0  0  0  0  0  0  0  0  0
  151.1138  143.0059  157.6431 C   0  0  0  0  0  0  0  0  0  0  0  0
  150.9000  141.4887  157.7504 C   0  0  0  0  0  0  0  0  0  0  0  0
  150.4799  140.8077  156.4207 C   0  0  2  0  0  0  0  0  0  0  0  0
  150.0794  141.8570  155.3564 C   0  0  0  0  0  0  0  0  0  0  0  0
  149.6712  141.2171  154.1527 O   0  0  0  0  0  0  0  0  0  0  0  0
  148.5310  140.3927  154.3510 C   0  0  0  0  0  0  0  0  0  0  0  0
  148.8836  139.2855  155.3528 C   0  0  0  0  0  0  0  0  0  0  0  0
  149.3665  139.8661  156.6004 N   0  0  0  0  0  0  0  0  0  0  0  0
  149.5099  138.9064  157.5435 C   0  0  0  0  0  0  0  0  0  0  0  0
  150.7648  138.6868  158.0073 N   0  0  0  0  0  0  0  0  0  0  0  0
  150.9807  137.7483  158.9337 C   0  0  0  0  0  0  0  0  0  0  0  0
  150.0991  136.9370  159.5220 N   0  0  0  0  0  0  0  0  0  0  0  0
  148.8329  137.1670  159.0700 C   0  0  0  0  0  0  0  0  0  0  0  0
  148.4503  138.1256  158.0894 C   0  0  0  0  0  0  0  0  0  0  0  0
  147.0763  138.0708  157.8871 N   0  0  0  0  0  0  0  0  0  0  0  0
  146.6726  137.1250  158.6897 C   0  0  0  0  0  0  0  0  0  0  0  0
  147.6598  136.5362  159.4469 N   0  0  0  0  0  0  0  0  0  0  0  0
  147.4900  135.4628  160.4140 C   0  0  0  0  0  0  0  0  0  0  0  0
  147.1397  135.9465  161.8487 C   0  0  1  0  0  0  0  0  0  0  0  0
  148.1843  136.7605  162.3471 O   0  0  0  0  0  0  0  0  0  0  0  0
  145.8266  136.7149  161.9399 C   0  0  0  0  0  0  0  0  0  0  0  0
  144.7914  135.5973  162.0292 C   0  0  0  0  0  0  0  0  0  0  0  0
  145.4559  134.5026  162.6548 O   0  0  0  0  0  0  0  0  0  0  0  0
  146.8369  134.8042  162.8366 C   0  0  1  0  0  0  0  0  0  0  0  0
  147.6948  133.5362  162.7127 C   0  0  0  0  0  0  0  0  0  0  0  0
  152.6396  145.1200  159.6613 H   0  0  0  0  0  0  0  0  0  0  0  0
  151.0160  145.2733  158.9885 H   0  0  0  0  0  0  0  0  0  0  0  0
  152.4297  145.2911  157.9182 H   0  0  0  0  0  0  0  0  0  0  0  0
  150.1496  143.5120  157.7073 H   0  0  0  0  0  0  0  0  0  0  0  0
  151.5494  143.2767  156.6814 H   0  0  0  0  0  0  0  0  0  0  0  0
  151.8310  141.0647  158.1257 H   0  0  0  0  0  0  0  0  0  0  0  0
  150.1512  141.2815  158.5157 H   0  0  0  0  0  0  0  0  0  0  0  0
  151.3299  140.2522  156.0258 H   0  0  0  0  0  0  0  0  0  0  0  0
  149.2790  142.5018  155.7235 H   0  0  0  0  0  0  0  0  0  0  0  0
  150.9214  142.5036  155.1132 H   0  0  0  0  0  0  0  0  0  0  0  0
  147.6895  140.9895  154.7069 H   0  0  0  0  0  0  0  0  0  0  0  0
  148.2347  139.9575  153.3966 H   0  0  0  0  0  0  0  0  0  0  0  0
  148.0048  138.6667  155.5404 H   0  0  0  0  0  0  0  0  0  0  0  0
  149.6521  138.6349  154.9324 H   0  0  0  0  0  0  0  0  0  0  0  0
  152.0069  137.6298  159.2489 H   0  0  0  0  0  0  0  0  0  0  0  0
  145.6344  136.8340  158.7581 H   0  0  0  0  0  0  0  0  0  0  0  0
  146.7121  134.7964  160.0394 H   0  0  0  0  0  0  0  0  0  0  0  0
  148.4096  134.8765  160.4255 H   0  0  0  0  0  0  0  0  0  0  0  0
  148.3753  136.4959  163.2339 H   0  0  0  0  0  0  0  0  0  0  0  0
  145.7938  137.2968  162.8627 H   0  0  0  0  0  0  0  0  0  0  0  0
  145.6416  137.4070  161.1196 H   0  0  0  0  0  0  0  0  0  0  0  0
  143.9063  135.8982  162.5903 H   0  0  0  0  0  0  0  0  0  0  0  0
  144.4714  135.2892  161.0332 H   0  0  0  0  0  0  0  0  0  0  0  0
  146.9315  135.1862  163.8551 H   0  0  0  0  0  0  0  0  0  0  0  0
  148.7548  133.7694  162.8160 H   0  0  0  0  0  0  0  0  0  0  0  0
  147.5492  133.0399  161.7533 H   0  0  0  0  0  0  0  0  0  0  0  0
  147.4363  132.8195  163.4923 H   0  0  0  0  0  0  0  0  0  0  0  0
  1  2  1  0  0  0  0
  1 28  1  0  0  0  0
  1 29  1  0  0  0  0
  1 30  1  0  0  0  0
  2  3  1  0  0  0  0
  3  4  1  0  0  0  0
  3 31  1  0  0  0  0
  3 32  1  0  0  0  0
  4  5  1  0  0  0  0
  4 33  1  0  0  0  0
  4 34  1  0  0  0  0
  5 10  1  0  0  0  0
  5  6  1  0  0  0  0
  5 35  1  0  0  0  0
  6  7  1  0  0  0  0
  6 36  1  0  0  0  0
  6 37  1  0  0  0  0
  7  8  1  0  0  0  0
  8  9  1  0  0  0  0
  8 38  1  0  0  0  0
  8 39  1  0  0  0  0
  9 10  1  0  0  0  0
  9 40  1  0  0  0  0
  9 41  1  0  0  0  0
 10 11  1  0  0  0  0
 11 16  1  0  0  0  0
 11 12  2  0  0  0  0
 12 13  1  0  0  0  0
 13 14  2  0  0  0  0
 13 42  1  0  0  0  0
 14 15  1  0  0  0  0
 15 19  1  0  0  0  0
 15 16  2  0  0  0  0
 16 17  1  0  0  0  0
 17 18  2  0  0  0  0
 18 19  1  0  0  0  0
 18 43  1  0  0  0  0
 19 20  1  0  0  0  0
 20 21  1  0  0  0  0
 20 44  1  0  0  0  0
 20 45  1  0  0  0  0
 21 26  1  0  0  0  0
 21 22  1  0  0  0  0
 21 23  1  0  0  0  0
 22 46  1  0  0  0  0
 23 24  1  0  0  0  0
 23 47  1  0  0  0  0
 23 48  1  0  0  0  0
 24 25  1  0  0  0  0
 24 49  1  0  0  0  0
 24 50  1  0  0  0  0
 25 26  1  0  0  0  0
 26 27  1  0  0  0  0
 26 51  1  0  0  0  0
 27 52  1  0  0  0  0
 27 53  1  0  0  0  0
 27 54  1  0  0  0  0
M  END
> <s_m_source_file>
AV-unprocessed.smi

> <i_m_source_file_index>
197

> <i_lp_mmshare_version>
43012

> <i_f3d_flags>
0

> <s_epik_input>
W0NIM11PW0NIMl1bQ0gyXVtDQEBIXTFbQ0gyXU9bQ0gyXVtDSDJdTjFjKG5bY0hdbjIpYyhjMjMpbltjSF1uM1tDSDJdW0NAQF00KFtPSF0pW0NIMl1bQ0gyXU9bQ0BIXTRbQ0gzXQ==

> <s_epik_cmdline>
J2VwaWtfcHl0aG9uJywgJy1waCcsICc3LjAnLCAnLXRuJywgJzgnLCAnLW1hJywgJzIwMCcsICctbWV0YWxfYmluZGluZycsICctaW1hZScsICc8aW5maWxlLm1hZT4nLCAnLW9tYWUnLCAnPG91dGZpbGUubWFlPic=

> <r_lp_tautomer_probability>
1

> <r_epik_Ionization_Penalty>
0.000106218

> <r_epik_Ionization_Penalty_Charging>
0

> <r_epik_Ionization_Penalty_Neutral>
0.000106218

> <r_epik_State_Penalty>
-0

> <r_epik_Charging_Adjusted_Penalty>
0

> <i_epik_Tot_Q>
0

> <i_epik_Tot_abs_Q>
0

> <r_epik_Metal_State_Penalty>
-0

> <b_epik_Metal_Only>
0

> <s_lp_Force_Field>
OPLS_2005

> <r_lp_Energy>
43.403

> <b_lp_Chiralities_Consistent>
1

> <s_lp_Variant>
AV-unprocessed.smi:197-1

> <Gold.Version>
5.8.1

> <Gold.Id.Protein>
6NUR|6NUR_protein|mol2

> <Gold.PLP.Fitness>
47.5574

> <Gold.PLP.PLP>
-41.7638

> <Gold.PLP.part.hbond>
-3.8748

> <Gold.PLP.part.metal>
0.0000

> <Gold.PLP.part.buried>
-6.1888

> <Gold.PLP.part.nonpolar>
-31.7493

> <Gold.PLP.part.repulsive>
0.2218

> <Gold.PLP.ligand.clash>
0.0000

> <Gold.PLP.ligand.torsion>
1.3862

> <Gold.PLP.Chemscore.Hbond>
2.6532

> <Gold.PLP.Chemscore.CHOScore>
0.0000

> <Gold.PLP.Chemscore.Metal>
0.0000

> <Gold.Chemscore.Hbonds>
donor molecule, donor type, donor heavy atom, donor atom, acceptor molecule, acceptor atom, score
      P1  H  6896  6908       L1    14  0.71
      P1  H  6931  6943       L1    22  1.00
      P1  H  7989  7998       L1     7  0.24
      P1  H  8011  8017       L1     7  0.47

> <Gold.PLP.Chemscore.Internal.Correction>
0.6063

> <Gold.Rescore>
     Score         DG    S(hbond)    S(metal)    S(lipo)     H(rot)  DE(clash)    DE(int)     intcor
     14.62     -17.55       2.30        0.00      99.65       2.84       0.15       2.78       ----

> <Gold.Chemscore.Fitness>
14.6155

> <Gold.Chemscore.DG>
-17.5514

> <Gold.Chemscore.ZeroCoef>
-5.4800

> <Gold.Chemscore.Hbond>
2.2971

> <Gold.Chemscore.Metal>
0.0000

> <Gold.Chemscore.Lipo>
99.6474

> <Gold.Chemscore.Internal_Hbond>
0.0000

> <Gold.Chemscore.DEClash>
0.1514

> <Gold.Chemscore.DEInternal>
2.7845

> <Gold.Chemscore.Rot>
2.8358

> <Gold.Chemscore.Internal.Correction>
   9.000000E+99

> <Gold.Chemscore.Hbonds>
donor molecule, donor type, donor heavy atom, donor atom, acceptor molecule, acceptor atom, score
      P1  H  6896  6908       L1    14  0.49
      P1  H  6931  6943       L1    22  0.78
      P1  H  7989  7998       L1     7  0.03
      P1  H  8011  8017       L1     7  0.41

> <Gold.Chemscore.Hbond.Weighted>
-7.6722

> <Gold.Chemscore.Metal.Weighted>
-0.0000

> <Gold.Chemscore.Lipo.Weighted>
-11.6587

> <Gold.Chemscore.Internal_Hbond.Weighted>
0.0000

> <Gold.Chemscore.DEClash.Weighted>
0.1514

> <Gold.Chemscore.DEInternal.Weighted>
2.7845

> <Gold.Chemscore.Rot.Weighted>
7.2596

> <Gold.Chemscore.Internal.Correction.Weighted>
   9.000000E+99

> <Gold.Protein.RotatedTorsions>
[ 6907 6896 6895 6894 ] final -157.77 input  -60.11 | X-H torsion
[ 7974 7965 7964 7962 ] final -123.39 input  175.53 | X-H torsion
[ 8008 7997 7996 7995 ] final -125.99 input   59.86 | X-H torsion
[ 10167 10162 10161 10158 ] final   67.74 input  -65.29 | X-H torsion
[ 10718 10713 10712 10709 ] final   84.62 input   66.30 | X-H torsion
[ 10763 10752 10751 10750 ] final  105.53 input  -60.55 | X-H torsion
[ 11005 11000 10999 10996 ] final  -30.76 input  -57.11 | X-H torsion

> <Gold.Protein.ActiveResidues>
 VAL166  LYS551  ARG553  GLY616  TRP617  ASP618  TYR619  PRO620  LYS621  CYS622 
 ASP623  PHE694  ASN695  SER759  ASP760  ASP761  ALA762  ILE779  LEU786  VAL792 
 PHE793  MET794  SER795  GLU796  ALA797  LYS798  CYS799  TRP800  GLU811  SER814 

> <Gold.Protein.RotatedAtoms>
  151.3079  133.4093  159.2644 H   0  0  0  0  0  0  0  0  0  0  0  0  # atno 6907 bound_to 6896
  151.0139  134.9418  159.8033 H   0  0  0  0  0  0  0  0  0  0  0  0  # atno 6908 bound_to 6896
  152.5308  134.3043  159.9142 H   0  0  0  0  0  0  0  0  0  0  0  0  # atno 6909 bound_to 6896
  145.0192  140.7973  143.4391 H   0  0  0  0  0  0  0  0  0  0  0  0  # atno 7974 bound_to 7965
  155.2223  140.0422  157.2950 H   0  0  0  0  0  0  0  0  0  0  0  0  # atno 8008 bound_to 7997
  154.5941  140.2435  155.7851 H   0  0  0  0  0  0  0  0  0  0  0  0  # atno 8009 bound_to 7997
  156.2279  140.2948  156.0121 H   0  0  0  0  0  0  0  0  0  0  0  0  # atno 8010 bound_to 7997
  140.0863  144.5027  150.7128 H   0  0  0  0  0  0  0  0  0  0  0  0  # atno 10167 bound_to 10162
  157.6901  131.0141  150.2700 H   0  0  0  0  0  0  0  0  0  0  0  0  # atno 10718 bound_to 10713
  153.3806  135.3907  155.1854 H   0  0  0  0  0  0  0  0  0  0  0  0  # atno 10763 bound_to 10752
  154.8707  135.3724  154.4862 H   0  0  0  0  0  0  0  0  0  0  0  0  # atno 10764 bound_to 10752
  153.5339  135.7085  153.5731 H   0  0  0  0  0  0  0  0  0  0  0  0  # atno 10765 bound_to 10752
  140.9410  133.7278  156.1076 H   0  0  0  0  0  0  0  0  0  0  0  0  # atno 11005 bound_to 11000
  145.1918  139.2297  143.5238 LP  0  0  0  0  0  0  0  0  0  0  0  0  # atno 17320 bound_to 7965
  146.3483  140.1716  142.8589 LP  0  0  0  0  0  0  0  0  0  0  0  0  # atno 17321 bound_to 7965
  140.7052  143.2463  151.4748 LP  0  0  0  0  0  0  0  0  0  0  0  0  # atno 17342 bound_to 10162
  139.5750  144.1839  152.1891 LP  0  0  0  0  0  0  0  0  0  0  0  0  # atno 17343 bound_to 10162
  156.3265  130.3793  149.7529 LP  0  0  0  0  0  0  0  0  0  0  0  0  # atno 17370 bound_to 10713
  156.5083  130.8160  151.3159 LP  0  0  0  0  0  0  0  0  0  0  0  0  # atno 17371 bound_to 10713
  140.7733  134.3808  157.5503 LP  0  0  0  0  0  0  0  0  0  0  0  0  # atno 17394 bound_to 11000
  139.8820  134.9036  156.2858 LP  0  0  0  0  0  0  0  0  0  0  0  0  # atno 17395 bound_to 11000

$$$$
