AV-unprocessed.smi:2785|AV-procd|sdf|10746|dock3
  -GOLD-   2272015183D 1   1.00000     0.00000
 Structure written by MMmdl.
 37 38  0  0  0  0  0  0  0  0  1 V2000
  150.5992  135.0501  155.6080 C   0  0  0  0  0  0  0  0  0  0  0  0
  149.6496  136.2066  155.9579 C   0  0  0  0  0  0  0  0  0  0  0  0
  148.2526  136.0050  155.3433 C   0  0  0  0  0  0  0  0  0  0  0  0
  150.2551  137.4923  155.5836 N   0  0  0  0  0  0  0  0  0  0  0  0
  149.6219  138.4114  154.6516 C   0  0  0  0  0  0  0  0  0  0  0  0
  150.6859  139.4741  154.3597 C   0  0  0  0  0  0  0  0  0  0  0  0
  151.7714  139.3233  155.4381 C   0  0  1  0  0  0  0  0  0  0  0  0
  151.6331  140.3820  156.4359 N   0  0  0  0  0  0  0  0  0  0  0  0
  152.2981  140.4397  157.5993 C   0  0  0  0  0  0  0  0  0  0  0  0
  153.1301  139.6016  157.9479 O   0  0  0  0  0  0  0  0  0  0  0  0
  151.9334  141.5185  158.3143 N   0  0  0  0  0  0  0  0  0  0  0  0
  152.3926  141.9175  159.5978 C   0  0  0  0  0  0  0  0  0  0  0  0
  151.9599  143.1960  160.0175 C   0  0  0  0  0  0  0  0  0  0  0  0
  152.3593  143.6844  161.2768 C   0  0  0  0  0  0  0  0  0  0  0  0
  153.1822  142.8789  162.0839 C   0  0  0  0  0  0  0  0  0  0  0  0
  153.5914  143.3055  163.3021 F   0  0  0  0  0  0  0  0  0  0  0  0
  153.5691  141.6185  161.5925 C   0  0  0  0  0  0  0  0  0  0  0  0
  153.1871  141.1495  160.3855 N   0  0  0  0  0  0  0  0  0  0  0  0
  151.4142  137.9722  156.0553 C   0  0  0  0  0  0  0  0  0  0  0  0
  152.1425  137.4092  156.8723 O   0  0  0  0  0  0  0  0  0  0  0  0
  150.1833  134.0931  155.9239 H   0  0  0  0  0  0  0  0  0  0  0  0
  151.5647  135.1663  156.1017 H   0  0  0  0  0  0  0  0  0  0  0  0
  150.7790  134.9965  154.5336 H   0  0  0  0  0  0  0  0  0  0  0  0
  149.5132  136.2046  157.0408 H   0  0  0  0  0  0  0  0  0  0  0  0
  147.7969  135.0864  155.7138 H   0  0  0  0  0  0  0  0  0  0  0  0
  148.2927  135.9316  154.2563 H   0  0  0  0  0  0  0  0  0  0  0  0
  147.5845  136.8265  155.6030 H   0  0  0  0  0  0  0  0  0  0  0  0
  149.3011  137.9040  153.7409 H   0  0  0  0  0  0  0  0  0  0  0  0
  148.7481  138.8650  155.1212 H   0  0  0  0  0  0  0  0  0  0  0  0
  151.1274  139.2785  153.3814 H   0  0  0  0  0  0  0  0  0  0  0  0
  150.2585  140.4770  154.3161 H   0  0  0  0  0  0  0  0  0  0  0  0
  152.7699  139.3066  154.9976 H   0  0  0  0  0  0  0  0  0  0  0  0
  150.9673  141.1124  156.2315 H   0  0  0  0  0  0  0  0  0  0  0  0
  151.2403  142.1206  157.8954 H   0  0  0  0  0  0  0  0  0  0  0  0
  151.3271  143.8006  159.3839 H   0  0  0  0  0  0  0  0  0  0  0  0
  152.0396  144.6587  161.6161 H   0  0  0  0  0  0  0  0  0  0  0  0
  154.2005  140.9701  162.1817 H   0  0  0  0  0  0  0  0  0  0  0  0
  1  2  1  0  0  0  0
  1 21  1  0  0  0  0
  1 22  1  0  0  0  0
  1 23  1  0  0  0  0
  2  3  1  0  0  0  0
  2  4  1  0  0  0  0
  2 24  1  0  0  0  0
  3 25  1  0  0  0  0
  3 26  1  0  0  0  0
  3 27  1  0  0  0  0
  4 19  1  0  0  0  0
  4  5  1  0  0  0  0
  5  6  1  0  0  0  0
  5 28  1  0  0  0  0
  5 29  1  0  0  0  0
  6  7  1  0  0  0  0
  6 30  1  0  0  0  0
  6 31  1  0  0  0  0
  7  8  1  0  0  0  0
  7 19  1  0  0  0  0
  7 32  1  0  0  0  0
  8  9  1  0  0  0  0
  8 33  1  0  0  0  0
  9 10  2  0  0  0  0
  9 11  1  0  0  0  0
 11 12  1  0  0  0  0
 11 34  1  0  0  0  0
 12 18  1  0  0  0  0
 12 13  2  0  0  0  0
 13 14  1  0  0  0  0
 13 35  1  0  0  0  0
 14 15  2  0  0  0  0
 14 36  1  0  0  0  0
 15 16  1  0  0  0  0
 15 17  1  0  0  0  0
 17 18  2  0  0  0  0
 17 37  1  0  0  0  0
 19 20  2  0  0  0  0
M  END
> <s_m_source_file>
AV-unprocessed.smi

> <i_m_source_file_index>
2785

> <i_lp_mmshare_version>
43012

> <i_f3d_flags>
0

> <s_epik_input>
W0NIM11bQ0hdKFtDSDNdKU4xW0NIMl1bQ0gyXVtDQEhdKEMxPU8pW05IXUMoPU8pW05IXWMyW2NIXVtjSF1jKEYpW2NIXW4y

> <s_epik_cmdline>
J2VwaWtfcHl0aG9uJywgJy1waCcsICc3LjAnLCAnLXRuJywgJzgnLCAnLW1hJywgJzIwMCcsICctbWV0YWxfYmluZGluZycsICctaW1hZScsICc8aW5maWxlLm1hZT4nLCAnLW9tYWUnLCAnPG91dGZpbGUubWFlPic=

> <r_lp_tautomer_probability>
1

> <r_epik_Ionization_Penalty>
3.20266e-05

> <r_epik_Ionization_Penalty_Charging>
0

> <r_epik_Ionization_Penalty_Neutral>
3.20266e-05

> <r_epik_State_Penalty>
-0

> <r_epik_Charging_Adjusted_Penalty>
0

> <i_epik_Tot_Q>
0

> <i_epik_Tot_abs_Q>
0

> <r_epik_Metal_State_Penalty>
-0

> <b_epik_Metal_Only>
0

> <s_lp_Force_Field>
OPLS_2005

> <r_lp_Energy>
23.6271

> <b_lp_Chiralities_Consistent>
1

> <s_lp_Variant>
AV-unprocessed.smi:2785-1

> <Gold.Version>
5.8.1

> <Gold.Id.Protein>
6NUR|6NUR_protein|mol2

> <Gold.PLP.Fitness>
39.8924

> <Gold.PLP.PLP>
-36.9825

> <Gold.PLP.part.hbond>
-1.0000

> <Gold.PLP.part.metal>
0.0000

> <Gold.PLP.part.buried>
-4.1332

> <Gold.PLP.part.nonpolar>
-31.4805

> <Gold.PLP.part.repulsive>
0.2197

> <Gold.PLP.ligand.clash>
0.0000

> <Gold.PLP.ligand.torsion>
0.0833

> <Gold.PLP.Chemscore.Hbond>
1.0000

> <Gold.PLP.Chemscore.CHOScore>
0.0000

> <Gold.PLP.Chemscore.Metal>
0.0000

> <Gold.Chemscore.Hbonds>
donor molecule, donor type, donor heavy atom, donor atom, acceptor molecule, acceptor atom, score
      P1  H  7997  8008       L1    10  1.00

> <Gold.PLP.Chemscore.Internal.Correction>
0.0765

> <Gold.Rescore>
     Score         DG    S(hbond)    S(metal)    S(lipo)     H(rot)  DE(clash)    DE(int)     intcor
      9.92     -14.40       0.88        0.00      79.16       1.29       0.67       3.81       ----

> <Gold.Chemscore.Fitness>
9.9155

> <Gold.Chemscore.DG>
-14.3975

> <Gold.Chemscore.ZeroCoef>
-5.4800

> <Gold.Chemscore.Hbond>
0.8839

> <Gold.Chemscore.Metal>
0.0000

> <Gold.Chemscore.Lipo>
79.1554

> <Gold.Chemscore.Internal_Hbond>
0.0000

> <Gold.Chemscore.DEClash>
0.6692

> <Gold.Chemscore.DEInternal>
3.8128

> <Gold.Chemscore.Rot>
1.2875

> <Gold.Chemscore.Internal.Correction>
   9.000000E+99

> <Gold.Chemscore.Hbonds>
donor molecule, donor type, donor heavy atom, donor atom, acceptor molecule, acceptor atom, score
      P1  H  7997  8008       L1    10  0.59

> <Gold.Chemscore.Hbond.Weighted>
-2.9522

> <Gold.Chemscore.Metal.Weighted>
-0.0000

> <Gold.Chemscore.Lipo.Weighted>
-9.2612

> <Gold.Chemscore.Internal_Hbond.Weighted>
0.0000

> <Gold.Chemscore.DEClash.Weighted>
0.6692

> <Gold.Chemscore.DEInternal.Weighted>
3.8128

> <Gold.Chemscore.Rot.Weighted>
3.2959

> <Gold.Chemscore.Internal.Correction.Weighted>
   9.000000E+99

> <Gold.Protein.RotatedTorsions>
[ 6907 6896 6895 6894 ] final  -95.52 input  -60.11 | X-H torsion
[ 7974 7965 7964 7962 ] final -146.45 input  175.53 | X-H torsion
[ 8008 7997 7996 7995 ] final  -95.22 input   59.86 | X-H torsion
[ 10167 10162 10161 10158 ] final  -71.36 input  -65.29 | X-H torsion
[ 10718 10713 10712 10709 ] final  -12.36 input   66.30 | X-H torsion
[ 10763 10752 10751 10750 ] final   94.23 input  -60.55 | X-H torsion
[ 11005 11000 10999 10996 ] final   92.61 input  -57.11 | X-H torsion

> <Gold.Protein.ActiveResidues>
 VAL166  LYS551  ARG553  GLY616  TRP617  ASP618  TYR619  PRO620  LYS621  CYS622 
 ASP623  PHE694  ASN695  SER759  ASP760  ASP761  ALA762  ILE779  LEU786  VAL792 
 PHE793  MET794  SER795  GLU796  ALA797  LYS798  CYS799  TRP800  GLU811  SER814 

> <Gold.Protein.RotatedAtoms>
  150.6966  134.1644  159.4188 H   0  0  0  0  0  0  0  0  0  0  0  0  # atno 6907 bound_to 6896
  151.9624  135.0115  160.0557 H   0  0  0  0  0  0  0  0  0  0  0  0  # atno 6908 bound_to 6896
  152.1915  133.4741  159.5047 H   0  0  0  0  0  0  0  0  0  0  0  0  # atno 6909 bound_to 6896
  144.8159  140.5454  143.5611 H   0  0  0  0  0  0  0  0  0  0  0  0  # atno 7974 bound_to 7965
  154.7585  140.0482  157.0954 H   0  0  0  0  0  0  0  0  0  0  0  0  # atno 8008 bound_to 7997
  154.9967  140.3120  155.4864 H   0  0  0  0  0  0  0  0  0  0  0  0  # atno 8009 bound_to 7997
  156.2899  140.2209  156.5075 H   0  0  0  0  0  0  0  0  0  0  0  0  # atno 8010 bound_to 7997
  140.5279  143.2324  151.7315 H   0  0  0  0  0  0  0  0  0  0  0  0  # atno 10167 bound_to 10162
  156.6457  130.4940  149.6079 H   0  0  0  0  0  0  0  0  0  0  0  0  # atno 10718 bound_to 10713
  153.2392  135.4297  155.0680 H   0  0  0  0  0  0  0  0  0  0  0  0  # atno 10763 bound_to 10752
  154.8333  135.3398  154.6674 H   0  0  0  0  0  0  0  0  0  0  0  0  # atno 10764 bound_to 10752
  153.7098  135.7023  153.5097 H   0  0  0  0  0  0  0  0  0  0  0  0  # atno 10765 bound_to 10752
  139.8821  134.8742  156.3597 H   0  0  0  0  0  0  0  0  0  0  0  0  # atno 11005 bound_to 11000
  145.5216  139.1476  143.3549 LP  0  0  0  0  0  0  0  0  0  0  0  0  # atno 17320 bound_to 7965
  146.2462  140.5357  142.8913 LP  0  0  0  0  0  0  0  0  0  0  0  0  # atno 17321 bound_to 7965
  139.4944  144.4158  152.0031 LP  0  0  0  0  0  0  0  0  0  0  0  0  # atno 17342 bound_to 10162
  140.3259  144.3374  150.5998 LP  0  0  0  0  0  0  0  0  0  0  0  0  # atno 17343 bound_to 10162
  156.2123  130.6686  151.1283 LP  0  0  0  0  0  0  0  0  0  0  0  0  # atno 17370 bound_to 10713
  157.7157  131.0711  150.6336 LP  0  0  0  0  0  0  0  0  0  0  0  0  # atno 17371 bound_to 10713
  140.9538  133.7433  156.0307 LP  0  0  0  0  0  0  0  0  0  0  0  0  # atno 17394 bound_to 11000
  140.8074  134.3439  157.5422 LP  0  0  0  0  0  0  0  0  0  0  0  0  # atno 17395 bound_to 11000

$$$$
