AV-unprocessed.smi:1574|AV-procd|sdf|6335|dock6
  -GOLD-   22720 6543D 1   1.00000     0.00000
 Structure written by MMmdl.
 40 41  0  0  0  0  0  0  0  0  1 V2000
  154.0953  141.2504  160.9097 C   0  0  0  0  0  0  0  0  0  0  0  0
  153.3292  141.9878  159.7998 C   0  0  2  0  0  0  0  0  0  0  0  0
  152.5605  143.1932  160.3777 C   0  0  0  0  0  0  0  0  0  0  0  0
  151.7812  143.9475  159.2898 C   0  0  0  0  0  0  0  0  0  0  0  0
  150.8238  143.0060  158.5472 C   0  0  0  0  0  0  0  0  0  0  0  0
  151.5811  141.8083  157.9583 C   0  0  0  0  0  0  0  0  0  0  0  0
  152.3727  141.0417  159.0393 C   0  0  1  0  0  0  0  0  0  0  0  0
  153.1588  140.0410  158.4068 O   0  0  0  0  0  0  0  0  0  0  0  0
  152.6105  138.7326  158.4752 C   0  0  0  0  0  0  0  0  0  0  0  0
  152.9563  137.9873  157.1780 C   0  0  0  0  0  0  0  0  0  0  0  0
  152.0962  138.4124  156.0791 N   0  0  0  0  0  0  0  0  0  0  0  0
  151.4365  137.5894  155.2492 C   0  0  0  0  0  0  0  0  0  0  0  0
  151.5482  136.3642  155.2771 O   0  0  0  0  0  0  0  0  0  0  0  0
  150.4931  138.2478  154.2428 C   0  0  0  0  0  0  0  0  0  0  0  0
  150.0355  139.5379  154.7252 N   0  0  0  0  0  0  0  0  0  0  0  0
  148.8055  140.0392  154.8563 C   0  0  0  0  0  0  0  0  0  0  0  0
  148.8281  141.2716  155.3401 N   0  0  0  0  0  0  0  0  0  0  0  0
  150.1805  141.5199  155.5050 N   0  0  0  0  0  0  0  0  0  0  0  0
  150.9019  140.4955  155.1402 N   0  0  0  0  0  0  0  0  0  0  0  0
  153.4139  140.8282  161.6491 H   0  0  0  0  0  0  0  0  0  0  0  0
  154.7760  141.9242  161.4309 H   0  0  0  0  0  0  0  0  0  0  0  0
  154.6929  140.4337  160.5043 H   0  0  0  0  0  0  0  0  0  0  0  0
  154.0627  142.3708  159.0884 H   0  0  0  0  0  0  0  0  0  0  0  0
  151.8677  142.8531  161.1489 H   0  0  0  0  0  0  0  0  0  0  0  0
  153.2539  143.8778  160.8673 H   0  0  0  0  0  0  0  0  0  0  0  0
  151.2224  144.7710  159.7350 H   0  0  0  0  0  0  0  0  0  0  0  0
  152.4795  144.3940  158.5807 H   0  0  0  0  0  0  0  0  0  0  0  0
  150.0516  142.6514  159.2308 H   0  0  0  0  0  0  0  0  0  0  0  0
  150.3113  143.5481  157.7520 H   0  0  0  0  0  0  0  0  0  0  0  0
  150.8762  141.1508  157.4505 H   0  0  0  0  0  0  0  0  0  0  0  0
  152.2719  142.1623  157.1944 H   0  0  0  0  0  0  0  0  0  0  0  0
  151.6841  140.5882  159.7551 H   0  0  0  0  0  0  0  0  0  0  0  0
  153.0288  138.2105  159.3365 H   0  0  0  0  0  0  0  0  0  0  0  0
  151.5293  138.7559  158.6124 H   0  0  0  0  0  0  0  0  0  0  0  0
  153.9920  138.1855  156.9009 H   0  0  0  0  0  0  0  0  0  0  0  0
  152.8712  136.9094  157.3240 H   0  0  0  0  0  0  0  0  0  0  0  0
  151.9473  139.4062  155.9804 H   0  0  0  0  0  0  0  0  0  0  0  0
  151.0016  138.3866  153.2878 H   0  0  0  0  0  0  0  0  0  0  0  0
  149.6299  137.6063  154.0587 H   0  0  0  0  0  0  0  0  0  0  0  0
  147.9022  139.5064  154.5985 H   0  0  0  0  0  0  0  0  0  0  0  0
  1  2  1  0  0  0  0
  1 20  1  0  0  0  0
  1 21  1  0  0  0  0
  1 22  1  0  0  0  0
  2  7  1  0  0  0  0
  2  3  1  0  0  0  0
  2 23  1  0  0  0  0
  3  4  1  0  0  0  0
  3 24  1  0  0  0  0
  3 25  1  0  0  0  0
  4  5  1  0  0  0  0
  4 26  1  0  0  0  0
  4 27  1  0  0  0  0
  5  6  1  0  0  0  0
  5 28  1  0  0  0  0
  5 29  1  0  0  0  0
  6  7  1  0  0  0  0
  6 30  1  0  0  0  0
  6 31  1  0  0  0  0
  7  8  1  0  0  0  0
  7 32  1  0  0  0  0
  8  9  1  0  0  0  0
  9 10  1  0  0  0  0
  9 33  1  0  0  0  0
  9 34  1  0  0  0  0
 10 11  1  0  0  0  0
 10 35  1  0  0  0  0
 10 36  1  0  0  0  0
 11 12  1  0  0  0  0
 11 37  1  0  0  0  0
 12 13  2  0  0  0  0
 12 14  1  0  0  0  0
 14 15  1  0  0  0  0
 14 38  1  0  0  0  0
 14 39  1  0  0  0  0
 15 19  1  0  0  0  0
 15 16  1  0  0  0  0
 16 17  2  0  0  0  0
 16 40  1  0  0  0  0
 17 18  1  0  0  0  0
 18 19  2  0  0  0  0
M  END
> <s_m_source_file>
AV-unprocessed.smi

> <i_m_source_file_index>
1574

> <i_lp_mmshare_version>
43012

> <i_f3d_flags>
0

> <s_epik_input>
W0NIM11bQ0BASF0xW0NIMl1bQ0gyXVtDSDJdW0NIMl1bQ0BIXTFPW0NIMl1bQ0gyXVtOSF1DKD1PKVtDSDJdbjJbY0hdbm5uMg==

> <s_epik_cmdline>
J2VwaWtfcHl0aG9uJywgJy1waCcsICc3LjAnLCAnLXRuJywgJzgnLCAnLW1hJywgJzIwMCcsICctbWV0YWxfYmluZGluZycsICctaW1hZScsICc8aW5maWxlLm1hZT4nLCAnLW9tYWUnLCAnPG91dGZpbGUubWFlPic=

> <r_lp_tautomer_probability>
1

> <r_epik_Ionization_Penalty>
1.44269e-06

> <r_epik_Ionization_Penalty_Charging>
0

> <r_epik_Ionization_Penalty_Neutral>
1.44269e-06

> <r_epik_State_Penalty>
-0

> <r_epik_Charging_Adjusted_Penalty>
0

> <i_epik_Tot_Q>
0

> <i_epik_Tot_abs_Q>
0

> <r_epik_Metal_State_Penalty>
-0

> <b_epik_Metal_Only>
0

> <s_lp_Force_Field>
OPLS_2005

> <r_lp_Energy>
11.219

> <b_lp_Chiralities_Consistent>
1

> <s_lp_Variant>
AV-unprocessed.smi:1574-1

> <Gold.Version>
5.8.1

> <Gold.Id.Protein>
6NUR|6NUR_protein|mol2

> <Gold.PLP.Fitness>
43.4835

> <Gold.PLP.PLP>
-37.1443

> <Gold.PLP.part.hbond>
-3.9571

> <Gold.PLP.part.metal>
0.0000

> <Gold.PLP.part.buried>
-4.0262

> <Gold.PLP.part.nonpolar>
-29.6633

> <Gold.PLP.part.repulsive>
0.5525

> <Gold.PLP.ligand.clash>
0.0000

> <Gold.PLP.ligand.torsion>
1.3504

> <Gold.PLP.Chemscore.Hbond>
3.0000

> <Gold.PLP.Chemscore.CHOScore>
0.0000

> <Gold.PLP.Chemscore.Metal>
0.0000

> <Gold.Chemscore.Hbonds>
donor molecule, donor type, donor heavy atom, donor atom, acceptor molecule, acceptor atom, score
      P1  H  7989  7998       L1    19  0.90
      P1  H  7997  8009       L1     8  1.00
      P1  H 10752 10763       L1    13  1.00

> <Gold.PLP.Chemscore.Internal.Correction>
0.0400

> <Gold.Rescore>
     Score         DG    S(hbond)    S(metal)    S(lipo)     H(rot)  DE(clash)    DE(int)     intcor
     14.68     -17.42       2.82        0.00      85.09       2.90       0.04       2.71       ----

> <Gold.Chemscore.Fitness>
14.6780

> <Gold.Chemscore.DG>
-17.4200

> <Gold.Chemscore.ZeroCoef>
-5.4800

> <Gold.Chemscore.Hbond>
2.8206

> <Gold.Chemscore.Metal>
0.0000

> <Gold.Chemscore.Lipo>
85.0920

> <Gold.Chemscore.Internal_Hbond>
0.0000

> <Gold.Chemscore.DEClash>
0.0358

> <Gold.Chemscore.DEInternal>
2.7062

> <Gold.Chemscore.Rot>
2.9050

> <Gold.Chemscore.Internal.Correction>
   9.000000E+99

> <Gold.Chemscore.Hbonds>
donor molecule, donor type, donor heavy atom, donor atom, acceptor molecule, acceptor atom, score
      P1  H  7989  7998       L1    19  0.11
      P1  H  7997  8009       L1     8  0.66
      P1  H 10752 10763       L1    13  0.98

> <Gold.Chemscore.Hbond.Weighted>
-9.4209

> <Gold.Chemscore.Metal.Weighted>
-0.0000

> <Gold.Chemscore.Lipo.Weighted>
-9.9558

> <Gold.Chemscore.Internal_Hbond.Weighted>
0.0000

> <Gold.Chemscore.DEClash.Weighted>
0.0358

> <Gold.Chemscore.DEInternal.Weighted>
2.7062

> <Gold.Chemscore.Rot.Weighted>
7.4367

> <Gold.Chemscore.Internal.Correction.Weighted>
   9.000000E+99

> <Gold.Protein.RotatedTorsions>
[ 6907 6896 6895 6894 ] final   35.74 input  -60.11 | X-H torsion
[ 7974 7965 7964 7962 ] final   46.89 input  175.53 | X-H torsion
[ 8008 7997 7996 7995 ] final  156.01 input   59.86 | X-H torsion
[ 10167 10162 10161 10158 ] final  118.76 input  -65.29 | X-H torsion
[ 10718 10713 10712 10709 ] final  145.66 input   66.30 | X-H torsion
[ 10763 10752 10751 10750 ] final   57.71 input  -60.55 | X-H torsion
[ 11005 11000 10999 10996 ] final  -21.12 input  -57.11 | X-H torsion

> <Gold.Protein.ActiveResidues>
 VAL166  LYS551  ARG553  GLY616  TRP617  ASP618  TYR619  PRO620  LYS621  CYS622 
 ASP623  PHE694  ASN695  SER759  ASP760  ASP761  ALA762  ILE779  LEU786  VAL792 
 PHE793  MET794  SER795  GLU796  ALA797  LYS798  CYS799  TRP800  GLU811  SER814 

> <Gold.Protein.RotatedAtoms>
  152.1202  134.9211  160.0563 H   0  0  0  0  0  0  0  0  0  0  0  0  # atno 6907 bound_to 6896
  152.0354  133.3950  159.4323 H   0  0  0  0  0  0  0  0  0  0  0  0  # atno 6908 bound_to 6896
  150.6848  134.3395  159.4905 H   0  0  0  0  0  0  0  0  0  0  0  0  # atno 6909 bound_to 6896
  146.0349  139.4808  142.9815 H   0  0  0  0  0  0  0  0  0  0  0  0  # atno 7974 bound_to 7965
  156.2446  140.1924  156.6889 H   0  0  0  0  0  0  0  0  0  0  0  0  # atno 8008 bound_to 7997
  154.6266  140.0601  156.9707 H   0  0  0  0  0  0  0  0  0  0  0  0  # atno 8009 bound_to 7997
  155.1777  140.3273  155.4383 H   0  0  0  0  0  0  0  0  0  0  0  0  # atno 8010 bound_to 7997
  139.6090  144.7077  151.2887 H   0  0  0  0  0  0  0  0  0  0  0  0  # atno 10167 bound_to 10162
  157.3426  131.0938  151.1069 H   0  0  0  0  0  0  0  0  0  0  0  0  # atno 10718 bound_to 10713
  152.9855  135.5632  154.5435 H   0  0  0  0  0  0  0  0  0  0  0  0  # atno 10763 bound_to 10752
  154.4885  135.2791  155.1517 H   0  0  0  0  0  0  0  0  0  0  0  0  # atno 10764 bound_to 10752
  154.2997  135.6310  153.5472 H   0  0  0  0  0  0  0  0  0  0  0  0  # atno 10765 bound_to 10752
  140.8530  133.7843  155.9988 H   0  0  0  0  0  0  0  0  0  0  0  0  # atno 11005 bound_to 11000
  145.6981  141.0144  143.1519 LP  0  0  0  0  0  0  0  0  0  0  0  0  # atno 17320 bound_to 7965
  144.7047  139.8612  143.7433 LP  0  0  0  0  0  0  0  0  0  0  0  0  # atno 17321 bound_to 7965
  140.7305  143.6877  150.7948 LP  0  0  0  0  0  0  0  0  0  0  0  0  # atno 17342 bound_to 10162
  140.0468  143.5290  152.2692 LP  0  0  0  0  0  0  0  0  0  0  0  0  # atno 17343 bound_to 10162
  157.2276  130.6510  149.5836 LP  0  0  0  0  0  0  0  0  0  0  0  0  # atno 17370 bound_to 10713
  155.9710  130.4609  150.6090 LP  0  0  0  0  0  0  0  0  0  0  0  0  # atno 17371 bound_to 10713
  140.8768  134.2659  157.5164 LP  0  0  0  0  0  0  0  0  0  0  0  0  # atno 17394 bound_to 11000
  139.8704  134.9595  156.4334 LP  0  0  0  0  0  0  0  0  0  0  0  0  # atno 17395 bound_to 11000

$$$$
