AV-unprocessed.smi:1341|AV-procd|sdf|5505|dock1
  -GOLD-   22720 5 83D 1   1.00000     0.00000
 Structure written by MMmdl.
 34 35  0  0  0  0  0  0  0  0  1 V2000
  146.5602  142.9906  154.0064 C   0  0  0  0  0  0  0  0  0  0  0  0
  147.3354  142.0668  154.5937 C   0  0  0  0  0  0  0  0  0  0  0  0
  148.7579  141.7487  154.1761 C   0  0  0  0  0  0  0  0  0  0  0  0
  149.6133  141.5047  155.3306 N   0  0  0  0  0  0  0  0  0  0  0  0
  150.5770  140.5711  155.3992 C   0  0  0  0  0  0  0  0  0  0  0  0
  150.8527  139.8083  154.4728 O   0  0  0  0  0  0  0  0  0  0  0  0
  151.3391  140.5415  156.6942 C   0  0  0  0  0  0  0  0  0  0  0  0
  151.4170  141.7020  157.3886 N   0  0  0  0  0  0  0  0  0  0  0  0
  152.0573  141.7057  158.5644 C   0  0  0  0  0  0  0  0  0  0  0  0
  152.1288  142.9202  159.2592 N   0  0  0  0  0  0  0  0  0  0  0  0
  152.7871  143.0317  160.5636 C   0  0  0  0  0  0  0  0  0  0  0  0
  152.1124  144.1115  161.4262 C   0  0  0  0  0  0  0  0  0  0  0  0
  152.0906  145.3469  160.7220 O   0  0  0  0  0  0  0  0  0  0  0  0
  151.3385  145.2490  159.5190 C   0  0  0  0  0  0  0  0  0  0  0  0
  151.9836  144.2122  158.5836 C   0  0  0  0  0  0  0  0  0  0  0  0
  152.6349  140.6348  159.1220 N   0  0  0  0  0  0  0  0  0  0  0  0
  152.5680  139.4651  158.4530 C   0  0  0  0  0  0  0  0  0  0  0  0
  151.9183  139.3537  157.2088 C   0  0  0  0  0  0  0  0  0  0  0  0
  151.8847  137.8314  156.3869 Cl  0  0  0  0  0  0  0  0  0  0  0  0
  146.9175  143.5760  153.1720 H   0  0  0  0  0  0  0  0  0  0  0  0
  145.5543  143.1728  154.3551 H   0  0  0  0  0  0  0  0  0  0  0  0
  146.9425  141.5048  155.4287 H   0  0  0  0  0  0  0  0  0  0  0  0
  148.7714  140.8648  153.5376 H   0  0  0  0  0  0  0  0  0  0  0  0
  149.1508  142.5745  153.5811 H   0  0  0  0  0  0  0  0  0  0  0  0
  149.4647  142.0860  156.1430 H   0  0  0  0  0  0  0  0  0  0  0  0
  152.7684  142.0934  161.1170 H   0  0  0  0  0  0  0  0  0  0  0  0
  153.8361  143.2826  160.4033 H   0  0  0  0  0  0  0  0  0  0  0  0
  151.0978  143.8148  161.6970 H   0  0  0  0  0  0  0  0  0  0  0  0
  152.6633  144.2449  162.3572 H   0  0  0  0  0  0  0  0  0  0  0  0
  150.3045  144.9810  159.7427 H   0  0  0  0  0  0  0  0  0  0  0  0
  151.3154  146.2258  159.0356 H   0  0  0  0  0  0  0  0  0  0  0  0
  152.9703  144.5546  158.2695 H   0  0  0  0  0  0  0  0  0  0  0  0
  151.3736  144.1397  157.6838 H   0  0  0  0  0  0  0  0  0  0  0  0
  153.0412  138.6112  158.9146 H   0  0  0  0  0  0  0  0  0  0  0  0
  1  2  2  0  0  0  0
  1 20  1  0  0  0  0
  1 21  1  0  0  0  0
  2  3  1  0  0  0  0
  2 22  1  0  0  0  0
  3  4  1  0  0  0  0
  3 23  1  0  0  0  0
  3 24  1  0  0  0  0
  4  5  1  0  0  0  0
  4 25  1  0  0  0  0
  5  6  2  0  0  0  0
  5  7  1  0  0  0  0
  7 18  1  0  0  0  0
  7  8  2  0  0  0  0
  8  9  1  0  0  0  0
  9 10  1  0  0  0  0
  9 16  2  0  0  0  0
 10 15  1  0  0  0  0
 10 11  1  0  0  0  0
 11 12  1  0  0  0  0
 11 26  1  0  0  0  0
 11 27  1  0  0  0  0
 12 13  1  0  0  0  0
 12 28  1  0  0  0  0
 12 29  1  0  0  0  0
 13 14  1  0  0  0  0
 14 15  1  0  0  0  0
 14 30  1  0  0  0  0
 14 31  1  0  0  0  0
 15 32  1  0  0  0  0
 15 33  1  0  0  0  0
 16 17  1  0  0  0  0
 17 18  2  0  0  0  0
 17 34  1  0  0  0  0
 18 19  1  0  0  0  0
M  END
> <s_m_source_file>
AV-unprocessed.smi

> <i_m_source_file_index>
1341

> <i_lp_mmshare_version>
43012

> <i_f3d_flags>
0

> <s_epik_input>
W0NIMl09W0NIXVtDSDJdW05IXUMoPU8pYzFuYyhuW2NIXWMxQ2wpTjJbQ0gyXVtDSDJdT1tDSDJdW0NIMl0y

> <s_epik_cmdline>
J2VwaWtfcHl0aG9uJywgJy1waCcsICc3LjAnLCAnLXRuJywgJzgnLCAnLW1hJywgJzIwMCcsICctbWV0YWxfYmluZGluZycsICctaW1hZScsICc8aW5maWxlLm1hZT4nLCAnLW9tYWUnLCAnPG91dGZpbGUubWFlPic=

> <r_lp_tautomer_probability>
1

> <r_epik_Ionization_Penalty>
2.38615e-05

> <r_epik_Ionization_Penalty_Charging>
0

> <r_epik_Ionization_Penalty_Neutral>
2.38615e-05

> <r_epik_State_Penalty>
-0

> <r_epik_Charging_Adjusted_Penalty>
0

> <i_epik_Tot_Q>
0

> <i_epik_Tot_abs_Q>
0

> <r_epik_Metal_State_Penalty>
0.0225026

> <b_epik_Metal_Only>
0

> <s_lp_Force_Field>
OPLS_2005

> <r_lp_Energy>
14.7295

> <b_lp_Chiralities_Consistent>
1

> <s_lp_Variant>
AV-unprocessed.smi:1341-1

> <Gold.Version>
5.8.1

> <Gold.Id.Protein>
6NUR|6NUR_protein|mol2

> <Gold.PLP.Fitness>
42.7852

> <Gold.PLP.PLP>
-41.1851

> <Gold.PLP.part.hbond>
-1.0000

> <Gold.PLP.part.metal>
0.0000

> <Gold.PLP.part.buried>
-2.8448

> <Gold.PLP.part.nonpolar>
-36.8671

> <Gold.PLP.part.repulsive>
0.4955

> <Gold.PLP.ligand.clash>
0.0000

> <Gold.PLP.ligand.torsion>
0.7596

> <Gold.PLP.Chemscore.Hbond>
1.0000

> <Gold.PLP.Chemscore.CHOScore>
0.0000

> <Gold.PLP.Chemscore.Metal>
0.0000

> <Gold.Chemscore.Hbonds>
donor molecule, donor type, donor heavy atom, donor atom, acceptor molecule, acceptor atom, score
      P1  H  7989  7998       L1     6  0.95

> <Gold.PLP.Chemscore.Internal.Correction>
0.1192

> <Gold.Rescore>
     Score         DG    S(hbond)    S(metal)    S(lipo)     H(rot)  DE(clash)    DE(int)     intcor
     14.19     -15.47       0.92        0.00      84.48       1.16       0.23       1.05       ----

> <Gold.Chemscore.Fitness>
14.1880

> <Gold.Chemscore.DG>
-15.4682

> <Gold.Chemscore.ZeroCoef>
-5.4800

> <Gold.Chemscore.Hbond>
0.9234

> <Gold.Chemscore.Metal>
0.0000

> <Gold.Chemscore.Lipo>
84.4809

> <Gold.Chemscore.Internal_Hbond>
0.0000

> <Gold.Chemscore.DEClash>
0.2322

> <Gold.Chemscore.DEInternal>
1.0480

> <Gold.Chemscore.Rot>
1.1641

> <Gold.Chemscore.Internal.Correction>
   9.000000E+99

> <Gold.Chemscore.Hbonds>
donor molecule, donor type, donor heavy atom, donor atom, acceptor molecule, acceptor atom, score
      P1  H  7989  7998       L1     6  0.21

> <Gold.Chemscore.Hbond.Weighted>
-3.0841

> <Gold.Chemscore.Metal.Weighted>
-0.0000

> <Gold.Chemscore.Lipo.Weighted>
-9.8843

> <Gold.Chemscore.Internal_Hbond.Weighted>
0.0000

> <Gold.Chemscore.DEClash.Weighted>
0.2322

> <Gold.Chemscore.DEInternal.Weighted>
1.0480

> <Gold.Chemscore.Rot.Weighted>
2.9802

> <Gold.Chemscore.Internal.Correction.Weighted>
   9.000000E+99

> <Gold.Protein.RotatedTorsions>
[ 6907 6896 6895 6894 ] final -175.73 input  -60.11 | X-H torsion
[ 7974 7965 7964 7962 ] final -145.25 input  175.53 | X-H torsion
[ 8008 7997 7996 7995 ] final  100.98 input   59.86 | X-H torsion
[ 10167 10162 10161 10158 ] final  -56.56 input  -65.29 | X-H torsion
[ 10718 10713 10712 10709 ] final -105.09 input   66.30 | X-H torsion
[ 10763 10752 10751 10750 ] final   34.41 input  -60.55 | X-H torsion
[ 11005 11000 10999 10996 ] final   96.23 input  -57.11 | X-H torsion

> <Gold.Protein.ActiveResidues>
 VAL166  LYS551  ARG553  GLY616  TRP617  ASP618  TYR619  PRO620  LYS621  CYS622 
 ASP623  PHE694  ASN695  SER759  ASP760  ASP761  ALA762  ILE779  LEU786  VAL792 
 PHE793  MET794  SER795  GLU796  ALA797  LYS798  CYS799  TRP800  GLU811  SER814 

> <Gold.Protein.RotatedAtoms>
  151.5933  133.3364  159.3032 H   0  0  0  0  0  0  0  0  0  0  0  0  # atno 6907 bound_to 6896
  150.8248  134.7476  159.6814 H   0  0  0  0  0  0  0  0  0  0  0  0  # atno 6908 bound_to 6896
  152.4338  134.5732  159.9978 H   0  0  0  0  0  0  0  0  0  0  0  0  # atno 6909 bound_to 6896
  144.8241  140.5608  143.5559 H   0  0  0  0  0  0  0  0  0  0  0  0  # atno 7974 bound_to 7965
  156.1255  140.3205  155.8271 H   0  0  0  0  0  0  0  0  0  0  0  0  # atno 8008 bound_to 7997
  155.4427  140.0526  157.3026 H   0  0  0  0  0  0  0  0  0  0  0  0  # atno 8009 bound_to 7997
  154.4859  140.2072  155.9670 H   0  0  0  0  0  0  0  0  0  0  0  0  # atno 8010 bound_to 7997
  140.6310  143.2459  151.5242 H   0  0  0  0  0  0  0  0  0  0  0  0  # atno 10167 bound_to 10162
  156.0331  130.5547  150.7490 H   0  0  0  0  0  0  0  0  0  0  0  0  # atno 10718 bound_to 10713
  153.0165  135.6361  154.1665 H   0  0  0  0  0  0  0  0  0  0  0  0  # atno 10763 bound_to 10752
  154.1403  135.2835  155.3164 H   0  0  0  0  0  0  0  0  0  0  0  0  # atno 10764 bound_to 10752
  154.6129  135.5550  153.7554 H   0  0  0  0  0  0  0  0  0  0  0  0  # atno 10765 bound_to 10752
  139.8783  134.8940  156.4128 H   0  0  0  0  0  0  0  0  0  0  0  0  # atno 11005 bound_to 11000
  145.5040  139.1482  143.3641 LP  0  0  0  0  0  0  0  0  0  0  0  0  # atno 17320 bound_to 7965
  146.2546  140.5180  142.8879 LP  0  0  0  0  0  0  0  0  0  0  0  0  # atno 17321 bound_to 7965
  139.5524  144.2362  152.1553 LP  0  0  0  0  0  0  0  0  0  0  0  0  # atno 17342 bound_to 10162
  140.1605  144.5030  150.6635 LP  0  0  0  0  0  0  0  0  0  0  0  0  # atno 17343 bound_to 10162
  157.5039  131.0920  151.0281 LP  0  0  0  0  0  0  0  0  0  0  0  0  # atno 17370 bound_to 10713
  157.0654  130.5842  149.5393 LP  0  0  0  0  0  0  0  0  0  0  0  0  # atno 17371 bound_to 10713
  140.9188  133.7659  155.9881 LP  0  0  0  0  0  0  0  0  0  0  0  0  # atno 17394 bound_to 11000
  140.8463  134.3007  157.5294 LP  0  0  0  0  0  0  0  0  0  0  0  0  # atno 17395 bound_to 11000

$$$$
