AV-unprocessed.smi:1129|AV-procd|sdf|4847|dock1
  -GOLD-   22720 3413D 1   1.00000     0.00000
 Structure written by MMmdl.
 40 41  0  0  0  0  0  0  0  0  1 V2000
  147.3539  144.7751  161.5661 C   0  0  0  0  0  0  0  0  0  0  0  0
  147.3678  143.6122  160.7568 O   0  0  0  0  0  0  0  0  0  0  0  0
  147.0451  143.8881  159.4040 C   0  0  0  0  0  0  0  0  0  0  0  0
  147.0699  142.5823  158.6038 C   0  0  0  0  0  0  0  0  0  0  0  0
  146.0085  141.7466  159.0556 O   0  0  0  0  0  0  0  0  0  0  0  0
  145.1220  141.2456  158.1246 C   0  0  0  0  0  0  0  0  0  0  0  0
  143.9674  140.5816  158.5841 C   0  0  0  0  0  0  0  0  0  0  0  0
  143.0576  140.0654  157.6418 C   0  0  0  0  0  0  0  0  0  0  0  0
  143.3369  140.2241  156.2636 C   0  0  0  0  0  0  0  0  0  0  0  0
  142.4864  139.7674  155.2212 N   0  0  0  0  0  0  0  0  0  0  0  0
  141.3544  139.0463  155.3233 C   0  0  0  0  0  0  0  0  0  0  0  0
  140.8816  138.6498  156.3886 O   0  0  0  0  0  0  0  0  0  0  0  0
  140.6497  138.7175  153.9925 C   0  0  1  0  0  0  0  0  0  0  0  0
  141.5998  138.0708  152.9669 C   0  0  0  0  0  0  0  0  0  0  0  0
  142.0006  136.6287  153.3320 C   0  0  0  0  0  0  0  0  0  0  0  0
  140.8355  135.7747  153.8548 C   0  0  0  0  0  0  0  0  0  0  0  0
  140.9570  134.5529  153.9019 O   0  0  0  0  0  0  0  0  0  0  0  0
  139.7204  136.3864  154.2912 N   0  0  0  0  0  0  0  0  0  0  0  0
  139.4105  137.8130  154.1803 C   0  0  0  0  0  0  0  0  0  0  0  0
  144.5107  140.9197  155.9075 C   0  0  0  0  0  0  0  0  0  0  0  0
  145.3882  141.4146  156.8057 N   0  0  0  0  0  0  0  0  0  0  0  0
  147.6038  144.5093  162.5931 H   0  0  0  0  0  0  0  0  0  0  0  0
  146.3679  145.2416  161.5694 H   0  0  0  0  0  0  0  0  0  0  0  0
  148.0862  145.5058  161.2202 H   0  0  0  0  0  0  0  0  0  0  0  0
  146.0677  144.3668  159.3235 H   0  0  0  0  0  0  0  0  0  0  0  0
  147.7831  144.5792  158.9940 H   0  0  0  0  0  0  0  0  0  0  0  0
  146.9276  142.8099  157.5462 H   0  0  0  0  0  0  0  0  0  0  0  0
  148.0376  142.0898  158.7143 H   0  0  0  0  0  0  0  0  0  0  0  0
  143.7805  140.4733  159.6423 H   0  0  0  0  0  0  0  0  0  0  0  0
  142.1627  139.5752  157.9919 H   0  0  0  0  0  0  0  0  0  0  0  0
  142.8122  139.9507  154.2830 H   0  0  0  0  0  0  0  0  0  0  0  0
  140.2999  139.6633  153.5751 H   0  0  0  0  0  0  0  0  0  0  0  0
  141.1147  138.0665  151.9899 H   0  0  0  0  0  0  0  0  0  0  0  0
  142.4968  138.6799  152.8480 H   0  0  0  0  0  0  0  0  0  0  0  0
  142.4475  136.1392  152.4660 H   0  0  0  0  0  0  0  0  0  0  0  0
  142.7702  136.6445  154.1044 H   0  0  0  0  0  0  0  0  0  0  0  0
  138.9921  135.7990  154.6714 H   0  0  0  0  0  0  0  0  0  0  0  0
  138.8404  138.1159  155.0596 H   0  0  0  0  0  0  0  0  0  0  0  0
  138.7403  137.9374  153.3291 H   0  0  0  0  0  0  0  0  0  0  0  0
  144.7589  141.0804  154.8684 H   0  0  0  0  0  0  0  0  0  0  0  0
  1  2  1  0  0  0  0
  1 22  1  0  0  0  0
  1 23  1  0  0  0  0
  1 24  1  0  0  0  0
  2  3  1  0  0  0  0
  3  4  1  0  0  0  0
  3 25  1  0  0  0  0
  3 26  1  0  0  0  0
  4  5  1  0  0  0  0
  4 27  1  0  0  0  0
  4 28  1  0  0  0  0
  5  6  1  0  0  0  0
  6 21  1  0  0  0  0
  6  7  2  0  0  0  0
  7  8  1  0  0  0  0
  7 29  1  0  0  0  0
  8  9  2  0  0  0  0
  8 30  1  0  0  0  0
  9 10  1  0  0  0  0
  9 20  1  0  0  0  0
 10 11  1  0  0  0  0
 10 31  1  0  0  0  0
 11 12  2  0  0  0  0
 11 13  1  0  0  0  0
 13 19  1  0  0  0  0
 13 14  1  0  0  0  0
 13 32  1  0  0  0  0
 14 15  1  0  0  0  0
 14 33  1  0  0  0  0
 14 34  1  0  0  0  0
 15 16  1  0  0  0  0
 15 35  1  0  0  0  0
 15 36  1  0  0  0  0
 16 17  2  0  0  0  0
 16 18  1  0  0  0  0
 18 19  1  0  0  0  0
 18 37  1  0  0  0  0
 19 38  1  0  0  0  0
 19 39  1  0  0  0  0
 20 21  2  0  0  0  0
 20 40  1  0  0  0  0
M  END
> <s_m_source_file>
AV-unprocessed.smi

> <i_m_source_file_index>
1129

> <i_lp_mmshare_version>
43012

> <i_f3d_flags>
0

> <s_epik_input>
W0NIM11PW0NIMl1bQ0gyXU9jMVtjSF1bY0hdYyhbY0hdbjEpW05IXUMoPU8pW0NAQEhdMltDSDJdW0NIMl1DKD1PKVtOSF1bQ0gyXTI=

> <s_epik_cmdline>
J2VwaWtfcHl0aG9uJywgJy1waCcsICc3LjAnLCAnLXRuJywgJzgnLCAnLW1hJywgJzIwMCcsICctbWV0YWxfYmluZGluZycsICctaW1hZScsICc8aW5maWxlLm1hZT4nLCAnLW9tYWUnLCAnPG91dGZpbGUubWFlPic=

> <r_lp_tautomer_probability>
1

> <r_epik_Ionization_Penalty>
1.79985e-05

> <r_epik_Ionization_Penalty_Charging>
0

> <r_epik_Ionization_Penalty_Neutral>
1.79985e-05

> <r_epik_State_Penalty>
-0

> <r_epik_Charging_Adjusted_Penalty>
0

> <i_epik_Tot_Q>
0

> <i_epik_Tot_abs_Q>
0

> <r_epik_Metal_State_Penalty>
-0

> <b_epik_Metal_Only>
0

> <s_lp_Force_Field>
OPLS_2005

> <r_lp_Energy>
14.8931

> <b_lp_Chiralities_Consistent>
1

> <s_lp_Variant>
AV-unprocessed.smi:1129-2

> <Gold.Version>
5.8.1

> <Gold.Id.Protein>
6NUR|6NUR_protein|mol2

> <Gold.PLP.Fitness>
36.6431

> <Gold.PLP.PLP>
-24.0127

> <Gold.PLP.part.hbond>
-4.8823

> <Gold.PLP.part.metal>
0.0000

> <Gold.PLP.part.buried>
-4.4621

> <Gold.PLP.part.nonpolar>
-15.0695

> <Gold.PLP.part.repulsive>
0.3922

> <Gold.PLP.ligand.clash>
0.0000

> <Gold.PLP.ligand.torsion>
0.5226

> <Gold.PLP.Chemscore.Hbond>
3.8794

> <Gold.PLP.Chemscore.CHOScore>
0.6247

> <Gold.PLP.Chemscore.Metal>
0.0000

> <Gold.Chemscore.Hbonds>
donor molecule, donor type, donor heavy atom, donor atom, acceptor molecule, acceptor atom, score
      L1  H    10    31       P1 10175  1.00
      P1  H  6933  6944       L1     2  1.00
      P1  H  6934  6946       L1     5  0.83
      P1  H 11000 11005       L1    17  1.00
      L1  C    20    40       P1 10175  0.65

> <Gold.PLP.Chemscore.Internal.Correction>
0.1634

> <Gold.Rescore>
     Score         DG    S(hbond)    S(metal)    S(lipo)     H(rot)  DE(clash)    DE(int)     intcor
     12.79     -14.74       3.13        0.00      34.05       2.03       0.15       1.80       ----

> <Gold.Chemscore.Fitness>
12.7876

> <Gold.Chemscore.DG>
-14.7378

> <Gold.Chemscore.ZeroCoef>
-5.4800

> <Gold.Chemscore.Hbond>
3.1314

> <Gold.Chemscore.Metal>
0.0000

> <Gold.Chemscore.Lipo>
34.0532

> <Gold.Chemscore.Internal_Hbond>
0.0000

> <Gold.Chemscore.DEClash>
0.1529

> <Gold.Chemscore.DEInternal>
1.7972

> <Gold.Chemscore.Rot>
2.0255

> <Gold.Chemscore.Internal.Correction>
   9.000000E+99

> <Gold.Chemscore.Hbonds>
donor molecule, donor type, donor heavy atom, donor atom, acceptor molecule, acceptor atom, score
      L1  H    10    31       P1 10175  0.94
      P1  H  6933  6944       L1     2  0.78
      P1  H  6934  6946       L1     5  0.23
      P1  H 11000 11005       L1    17  0.40

> <Gold.Chemscore.Hbond.Weighted>
-10.4588

> <Gold.Chemscore.Metal.Weighted>
-0.0000

> <Gold.Chemscore.Lipo.Weighted>
-3.9842

> <Gold.Chemscore.Internal_Hbond.Weighted>
0.0000

> <Gold.Chemscore.DEClash.Weighted>
0.1529

> <Gold.Chemscore.DEInternal.Weighted>
1.7972

> <Gold.Chemscore.Rot.Weighted>
5.1853

> <Gold.Chemscore.Internal.Correction.Weighted>
   9.000000E+99

> <Gold.Protein.RotatedTorsions>
[ 6907 6896 6895 6894 ] final   -2.66 input  -60.11 | X-H torsion
[ 7974 7965 7964 7962 ] final  -33.32 input  175.53 | X-H torsion
[ 8008 7997 7996 7995 ] final -178.30 input   59.86 | X-H torsion
[ 10167 10162 10161 10158 ] final   26.09 input  -65.29 | X-H torsion
[ 10718 10713 10712 10709 ] final  -89.44 input   66.30 | X-H torsion
[ 10763 10752 10751 10750 ] final   51.93 input  -60.55 | X-H torsion
[ 11005 11000 10999 10996 ] final   17.11 input  -57.11 | X-H torsion

> <Gold.Protein.ActiveResidues>
 VAL166  LYS551  ARG553  GLY616  TRP617  ASP618  TYR619  PRO620  LYS621  CYS622 
 ASP623  PHE694  ASN695  SER759  ASP760  ASP761  ALA762  ILE779  LEU786  VAL792 
 PHE793  MET794  SER795  GLU796  ALA797  LYS798  CYS799  TRP800  GLU811  SER814 

> <Gold.Protein.RotatedAtoms>
  151.5263  135.1068  159.9890 H   0  0  0  0  0  0  0  0  0  0  0  0  # atno 6907 bound_to 6896
  152.4598  133.7795  159.6853 H   0  0  0  0  0  0  0  0  0  0  0  0  # atno 6908 bound_to 6896
  150.8556  133.7655  159.3035 H   0  0  0  0  0  0  0  0  0  0  0  0  # atno 6909 bound_to 6896
  146.0920  140.5902  142.8860 H   0  0  0  0  0  0  0  0  0  0  0  0  # atno 7974 bound_to 7965
  156.0172  140.1253  157.0394 H   0  0  0  0  0  0  0  0  0  0  0  0  # atno 8008 bound_to 7997
  154.4298  140.1076  156.5982 H   0  0  0  0  0  0  0  0  0  0  0  0  # atno 8009 bound_to 7997
  155.5996  140.3470  155.4592 H   0  0  0  0  0  0  0  0  0  0  0  0  # atno 8010 bound_to 7997
  140.5052  144.0251  150.6349 H   0  0  0  0  0  0  0  0  0  0  0  0  # atno 10167 bound_to 10162
  155.9984  130.4872  150.5172 H   0  0  0  0  0  0  0  0  0  0  0  0  # atno 10718 bound_to 10713
  152.9787  135.5829  154.4496 H   0  0  0  0  0  0  0  0  0  0  0  0  # atno 10763 bound_to 10752
  154.4087  135.2769  155.2053 H   0  0  0  0  0  0  0  0  0  0  0  0  # atno 10764 bound_to 10752
  154.3852  135.6138  153.5867 H   0  0  0  0  0  0  0  0  0  0  0  0  # atno 10765 bound_to 10752
  140.4396  134.1335  155.7689 H   0  0  0  0  0  0  0  0  0  0  0  0  # atno 11005 bound_to 11000
  144.7367  140.4828  143.6899 LP  0  0  0  0  0  0  0  0  0  0  0  0  # atno 17320 bound_to 7965
  145.6021  139.1505  143.3123 LP  0  0  0  0  0  0  0  0  0  0  0  0  # atno 17321 bound_to 7965
  140.3558  143.2936  152.0438 LP  0  0  0  0  0  0  0  0  0  0  0  0  # atno 17342 bound_to 10162
  139.4882  144.6340  151.7013 LP  0  0  0  0  0  0  0  0  0  0  0  0  # atno 17343 bound_to 10162
  157.3138  131.0669  151.1982 LP  0  0  0  0  0  0  0  0  0  0  0  0  # atno 17370 bound_to 10713
  157.2919  130.6800  149.6118 LP  0  0  0  0  0  0  0  0  0  0  0  0  # atno 17371 bound_to 10713
  141.1711  133.8607  157.1567 LP  0  0  0  0  0  0  0  0  0  0  0  0  # atno 17394 bound_to 11000
  140.0078  135.0001  157.0331 LP  0  0  0  0  0  0  0  0  0  0  0  0  # atno 17395 bound_to 11000

$$$$
