AV-unprocessed.smi:3189|AV-procd|sdf|12188|dock6
  -GOLD-   2272018 33D 1   1.00000     0.00000
 Structure written by MMmdl.
 30 31  0  0  0  0  0  0  0  0  1 V2000
  151.7441  140.2604  155.8806 C   0  0  0  0  0  0  0  0  0  0  0  0
  150.3881  140.3212  155.2024 C   0  0  0  0  0  0  0  0  0  0  0  0
  149.7636  141.5184  155.2498 N   0  0  0  0  0  0  0  0  0  0  0  0
  148.5516  141.6255  154.6678 C   0  0  0  0  0  0  0  0  0  0  0  0
  147.9106  140.5579  154.0108 C   0  0  0  0  0  0  0  0  0  0  0  0
  148.5691  139.3069  153.9455 C   0  0  0  0  0  0  0  0  0  0  0  0
  148.0049  138.1576  153.3268 N   0  0  0  0  0  0  0  0  0  0  0  0
  146.7079  137.8159  153.1979 C   0  0  0  0  0  0  0  0  0  0  0  0
  145.7613  138.5010  153.5800 O   0  0  0  0  0  0  0  0  0  0  0  0
  146.5089  136.6653  152.5314 N   0  0  0  0  0  0  0  0  0  0  0  0
  145.2560  136.0383  152.2320 C   0  0  1  0  0  0  0  0  0  0  0  0
  144.9587  135.7558  150.7757 C   0  0  0  0  0  0  0  0  0  0  0  0
  145.2411  134.6122  151.7151 C   0  0  1  0  0  0  0  0  0  0  0  0
  146.5099  133.7930  151.5821 C   0  0  0  0  0  0  0  0  0  0  0  0
  149.8331  139.1846  154.5688 C   0  0  0  0  0  0  0  0  0  0  0  0
  150.6869  137.6774  154.5501 Cl  0  0  0  0  0  0  0  0  0  0  0  0
  152.5157  139.9885  155.1599 H   0  0  0  0  0  0  0  0  0  0  0  0
  151.7372  139.5153  156.6768 H   0  0  0  0  0  0  0  0  0  0  0  0
  152.0167  141.2208  156.3203 H   0  0  0  0  0  0  0  0  0  0  0  0
  148.0734  142.5916  154.7338 H   0  0  0  0  0  0  0  0  0  0  0  0
  146.9313  140.7147  153.5858 H   0  0  0  0  0  0  0  0  0  0  0  0
  148.6664  137.5515  152.8636 H   0  0  0  0  0  0  0  0  0  0  0  0
  147.3233  136.2412  152.1111 H   0  0  0  0  0  0  0  0  0  0  0  0
  144.3942  136.3530  152.8187 H   0  0  0  0  0  0  0  0  0  0  0  0
  143.9321  135.8847  150.4385 H   0  0  0  0  0  0  0  0  0  0  0  0
  145.7220  136.0090  150.0420 H   0  0  0  0  0  0  0  0  0  0  0  0
  144.3799  134.0198  152.0181 H   0  0  0  0  0  0  0  0  0  0  0  0
  147.3299  134.3967  151.1919 H   0  0  0  0  0  0  0  0  0  0  0  0
  146.3447  132.9580  150.9012 H   0  0  0  0  0  0  0  0  0  0  0  0
  146.8014  133.3961  152.5547 H   0  0  0  0  0  0  0  0  0  0  0  0
  1  2  1  0  0  0  0
  1 17  1  0  0  0  0
  1 18  1  0  0  0  0
  1 19  1  0  0  0  0
  2 15  1  0  0  0  0
  2  3  2  0  0  0  0
  3  4  1  0  0  0  0
  4  5  2  0  0  0  0
  4 20  1  0  0  0  0
  5  6  1  0  0  0  0
  5 21  1  0  0  0  0
  6  7  1  0  0  0  0
  6 15  2  0  0  0  0
  7  8  1  0  0  0  0
  7 22  1  0  0  0  0
  8  9  2  0  0  0  0
  8 10  1  0  0  0  0
 10 11  1  0  0  0  0
 10 23  1  0  0  0  0
 11 13  1  0  0  0  0
 11 12  1  0  0  0  0
 11 24  1  0  0  0  0
 12 13  1  0  0  0  0
 12 25  1  0  0  0  0
 12 26  1  0  0  0  0
 13 14  1  0  0  0  0
 13 27  1  0  0  0  0
 14 28  1  0  0  0  0
 14 29  1  0  0  0  0
 14 30  1  0  0  0  0
 15 16  1  0  0  0  0
M  END
> <s_m_source_file>
AV-unprocessed.smi

> <i_m_source_file_index>
3189

> <i_lp_mmshare_version>
43012

> <i_f3d_flags>
0

> <s_epik_input>
W0NIM11jMW5bY0hdW2NIXWMoYzFDbClbTkhdQyg9TylbTkhdW0NAQEhdMltDSDJdW0NASF0yW0NIM10=

> <s_epik_cmdline>
J2VwaWtfcHl0aG9uJywgJy1waCcsICc3LjAnLCAnLXRuJywgJzgnLCAnLW1hJywgJzIwMCcsICctbWV0YWxfYmluZGluZycsICctaW1hZScsICc8aW5maWxlLm1hZT4nLCAnLW9tYWUnLCAnPG91dGZpbGUubWFlPic=

> <r_epik_Ionization_Penalty>
0.00994309

> <r_epik_Ionization_Penalty_Charging>
0

> <r_epik_Ionization_Penalty_Neutral>
0.00994309

> <r_epik_State_Penalty>
0.00754503

> <r_epik_Charging_Adjusted_Penalty>
0.00754503

> <i_epik_Tot_Q>
0

> <i_epik_Tot_abs_Q>
0

> <r_epik_Metal_State_Penalty>
0.00742071

> <b_epik_Metal_Only>
0

> <s_lp_Force_Field>
OPLS_2005

> <r_lp_Energy>
34.6575

> <b_lp_Chiralities_Consistent>
1

> <s_lp_Variant>
AV-unprocessed.smi:3189-2

> <Gold.Version>
5.8.1

> <Gold.Id.Protein>
6NUR|6NUR_protein|mol2

> <Gold.PLP.Fitness>
36.0746

> <Gold.PLP.PLP>
-27.5922

> <Gold.PLP.part.hbond>
-2.1046

> <Gold.PLP.part.metal>
0.0000

> <Gold.PLP.part.buried>
-1.3111

> <Gold.PLP.part.nonpolar>
-25.3167

> <Gold.PLP.part.repulsive>
0.4672

> <Gold.PLP.ligand.clash>
0.0000

> <Gold.PLP.ligand.torsion>
0.2662

> <Gold.PLP.Chemscore.Hbond>
1.9920

> <Gold.PLP.Chemscore.CHOScore>
1.0000

> <Gold.PLP.Chemscore.Metal>
0.0000

> <Gold.Chemscore.Hbonds>
donor molecule, donor type, donor heavy atom, donor atom, acceptor molecule, acceptor atom, score
      L1  H     7    22       P1  7948  1.00
      L1  H    10    23       P1  7948  1.00
      L1  C     4    20       P1  8028  1.00

> <Gold.PLP.Chemscore.Internal.Correction>
0.0388

> <Gold.Rescore>
     Score         DG    S(hbond)    S(metal)    S(lipo)     H(rot)  DE(clash)    DE(int)     intcor
     15.67     -16.90       1.92        0.00      64.80       1.00       0.02       1.21       ----

> <Gold.Chemscore.Fitness>
15.6698

> <Gold.Chemscore.DG>
-16.9007

> <Gold.Chemscore.ZeroCoef>
-5.4800

> <Gold.Chemscore.Hbond>
1.9158

> <Gold.Chemscore.Metal>
0.0000

> <Gold.Chemscore.Lipo>
64.8034

> <Gold.Chemscore.Internal_Hbond>
0.0000

> <Gold.Chemscore.DEClash>
0.0203

> <Gold.Chemscore.DEInternal>
1.2106

> <Gold.Chemscore.Rot>
1.0000

> <Gold.Chemscore.Internal.Correction>
   9.000000E+99

> <Gold.Chemscore.Hbonds>
donor molecule, donor type, donor heavy atom, donor atom, acceptor molecule, acceptor atom, score
      L1  H     7    22       P1  7948  0.94
      L1  H    10    23       P1  7948  0.95

> <Gold.Chemscore.Hbond.Weighted>
-6.3987

> <Gold.Chemscore.Metal.Weighted>
-0.0000

> <Gold.Chemscore.Lipo.Weighted>
-7.5820

> <Gold.Chemscore.Internal_Hbond.Weighted>
0.0000

> <Gold.Chemscore.DEClash.Weighted>
0.0203

> <Gold.Chemscore.DEInternal.Weighted>
1.2106

> <Gold.Chemscore.Rot.Weighted>
2.5600

> <Gold.Chemscore.Internal.Correction.Weighted>
   9.000000E+99

> <Gold.Protein.RotatedTorsions>
[ 6907 6896 6895 6894 ] final -170.65 input  -60.11 | X-H torsion
[ 7974 7965 7964 7962 ] final    7.42 input  175.53 | X-H torsion
[ 8008 7997 7996 7995 ] final -129.64 input   59.86 | X-H torsion
[ 10167 10162 10161 10158 ] final   29.25 input  -65.29 | X-H torsion
[ 10718 10713 10712 10709 ] final  -26.85 input   66.30 | X-H torsion
[ 10763 10752 10751 10750 ] final   39.87 input  -60.55 | X-H torsion
[ 11005 11000 10999 10996 ] final  165.03 input  -57.11 | X-H torsion

> <Gold.Protein.ActiveResidues>
 VAL166  LYS551  ARG553  GLY616  TRP617  ASP618  TYR619  PRO620  LYS621  CYS622 
 ASP623  PHE694  ASN695  SER759  ASP760  ASP761  ALA762  ILE779  LEU786  VAL792 
 PHE793  MET794  SER795  GLU796  ALA797  LYS798  CYS799  TRP800  GLU811  SER814 

> <Gold.Protein.RotatedAtoms>
  151.5112  133.3484  159.2884 H   0  0  0  0  0  0  0  0  0  0  0  0  # atno 6907 bound_to 6896
  150.8711  134.8087  159.7166 H   0  0  0  0  0  0  0  0  0  0  0  0  # atno 6908 bound_to 6896
  152.4699  134.4996  159.9772 H   0  0  0  0  0  0  0  0  0  0  0  0  # atno 6909 bound_to 6896
  146.2427  140.0086  142.8409 H   0  0  0  0  0  0  0  0  0  0  0  0  # atno 7974 bound_to 7965
  155.2825  140.0444  157.3016 H   0  0  0  0  0  0  0  0  0  0  0  0  # atno 8008 bound_to 7997
  154.5588  140.2340  155.8336 H   0  0  0  0  0  0  0  0  0  0  0  0  # atno 8009 bound_to 7997
  156.2030  140.3020  155.9574 H   0  0  0  0  0  0  0  0  0  0  0  0  # atno 8010 bound_to 7997
  140.4782  144.0657  150.6257 H   0  0  0  0  0  0  0  0  0  0  0  0  # atno 10167 bound_to 10162
  156.4458  130.4474  149.7022 H   0  0  0  0  0  0  0  0  0  0  0  0  # atno 10718 bound_to 10713
  152.9953  135.6208  154.2535 H   0  0  0  0  0  0  0  0  0  0  0  0  # atno 10763 bound_to 10752
  154.2273  135.2793  155.2904 H   0  0  0  0  0  0  0  0  0  0  0  0  # atno 10764 bound_to 10752
  154.5479  135.5742  153.6954 H   0  0  0  0  0  0  0  0  0  0  0  0  # atno 10765 bound_to 10752
  140.2520  134.7970  157.3510 H   0  0  0  0  0  0  0  0  0  0  0  0  # atno 11005 bound_to 11000
  145.1349  140.9539  143.4523 LP  0  0  0  0  0  0  0  0  0  0  0  0  # atno 17320 bound_to 7965
  145.0352  139.3307  143.6004 LP  0  0  0  0  0  0  0  0  0  0  0  0  # atno 17321 bound_to 7965
  140.3892  143.2761  152.0081 LP  0  0  0  0  0  0  0  0  0  0  0  0  # atno 17342 bound_to 10162
  139.4829  144.6092  151.7466 LP  0  0  0  0  0  0  0  0  0  0  0  0  # atno 17343 bound_to 10162
  156.3868  130.7607  151.2605 LP  0  0  0  0  0  0  0  0  0  0  0  0  # atno 17370 bound_to 10713
  157.7505  131.0279  150.4027 LP  0  0  0  0  0  0  0  0  0  0  0  0  # atno 17371 bound_to 10713
  140.1549  134.4802  155.7935 LP  0  0  0  0  0  0  0  0  0  0  0  0  # atno 17394 bound_to 11000
  141.2200  133.6877  156.7443 LP  0  0  0  0  0  0  0  0  0  0  0  0  # atno 17395 bound_to 11000

$$$$
