AV-unprocessed.smi:3092|AV-procd|sdf|11784|dock10
  -GOLD-   2272017163D 1   1.00000     0.00000
 Structure written by MMmdl.
 26 27  0  0  0  0  0  0  0  0  3 V2000
  152.9837  141.5582  159.2570 C   0  0  0  0  0  0  0  0  0  0  0  0
  152.3529  142.7037  158.5978 N   0  0  0  0  0  0  0  0  0  0  0  0
  152.5281  144.0234  158.9272 C   0  0  0  0  0  0  0  0  0  0  0  0
  151.7592  144.7515  158.0586 C   0  0  0  0  0  0  0  0  0  0  0  0
  151.1459  143.8471  157.2354 N   0  3  0  0  0  0  0  0  0  0  0  0
  151.5025  142.5973  157.5609 C   0  0  0  0  0  0  0  0  0  0  0  0
  151.0287  141.3478  156.8710 C   0  0  2  0  0  0  0  0  0  0  0  0
  152.1266  140.4699  156.2750 C   0  0  0  0  0  0  0  0  0  0  0  0
  151.3676  139.5903  155.2708 C   0  0  0  0  0  0  0  0  0  0  0  0
  150.1148  140.3050  154.9412 N   0  3  0  0  0  0  0  0  0  0  0  0
  150.1183  141.5881  155.6670 C   0  0  0  0  0  0  0  0  0  0  0  0
  153.6312  141.9099  160.0609 H   0  0  0  0  0  0  0  0  0  0  0  0
  153.5809  141.0059  158.5306 H   0  0  0  0  0  0  0  0  0  0  0  0
  152.2117  140.9113  159.6745 H   0  0  0  0  0  0  0  0  0  0  0  0
  153.1721  144.3407  159.7352 H   0  0  0  0  0  0  0  0  0  0  0  0
  151.6072  145.8172  157.9665 H   0  0  0  0  0  0  0  0  0  0  0  0
  150.4779  140.7577  157.6036 H   0  0  0  0  0  0  0  0  0  0  0  0
  152.8508  141.0834  155.7368 H   0  0  0  0  0  0  0  0  0  0  0  0
  152.6694  139.8953  157.0263 H   0  0  0  0  0  0  0  0  0  0  0  0
  151.9579  139.3988  154.3742 H   0  0  0  0  0  0  0  0  0  0  0  0
  151.1109  138.6282  155.7154 H   0  0  0  0  0  0  0  0  0  0  0  0
  150.0340  140.4579  153.9457 H   0  0  0  0  0  0  0  0  0  0  0  0
  149.1127  141.9021  155.9480 H   0  0  0  0  0  0  0  0  0  0  0  0
  150.5401  142.3487  155.0082 H   0  0  0  0  0  0  0  0  0  0  0  0
  149.3360  139.7469  155.2617 H   0  0  0  0  0  0  0  0  0  0  0  0
  150.5133  144.0897  156.4834 H   0  0  0  0  0  0  0  0  0  0  0  0
  1  2  1  0  0  0  0
  1 12  1  0  0  0  0
  1 13  1  0  0  0  0
  1 14  1  0  0  0  0
  2  6  1  0  0  0  0
  2  3  1  0  0  0  0
  3  4  2  0  0  0  0
  3 15  1  0  0  0  0
  4  5  1  0  0  0  0
  4 16  1  0  0  0  0
  5  6  2  0  0  0  0
  5 26  1  0  0  0  0
  6  7  1  0  0  0  0
  7 11  1  0  0  0  0
  7  8  1  0  0  0  0
  7 17  1  0  0  0  0
  8  9  1  0  0  0  0
  8 18  1  0  0  0  0
  8 19  1  0  0  0  0
  9 10  1  0  0  0  0
  9 20  1  0  0  0  0
  9 21  1  0  0  0  0
 10 11  1  0  0  0  0
 10 22  1  0  0  0  0
 10 25  1  0  0  0  0
 11 23  1  0  0  0  0
 11 24  1  0  0  0  0
M  CHG  1   5   1
M  CHG  1  10   1
M  END
> <s_m_source_file>
AV-unprocessed.smi

> <i_m_source_file_index>
3092

> <i_lp_mmshare_version>
43012

> <i_f3d_flags>
0

> <s_epik_input>
W0NIM11uMVtjSF1bY0hdbmMxW0NAQEhdMltDSDJdW0NIMl1bTkhdW0NIMl0y

> <s_epik_cmdline>
J2VwaWtfcHl0aG9uJywgJy1waCcsICc3LjAnLCAnLXRuJywgJzgnLCAnLW1hJywgJzIwMCcsICctbWV0YWxfYmluZGluZycsICctaW1hZScsICc8aW5maWxlLm1hZT4nLCAnLW9tYWUnLCAnPG91dGZpbGUubWFlPic=

> <r_lp_tautomer_probability>
1

> <r_epik_Ionization_Penalty>
0.803493

> <r_epik_Ionization_Penalty_Charging>
0.000689375

> <r_epik_Ionization_Penalty_Neutral>
0.802804

> <r_epik_State_Penalty>
0.834355

> <r_epik_Charging_Adjusted_Penalty>
0.835044

> <i_epik_Tot_Q>
2

> <i_epik_Tot_abs_Q>
2

> <r_epik_Metal_State_Penalty>
4.76097

> <b_epik_Metal_Only>
0

> <s_lp_Force_Field>
OPLS_2005

> <r_lp_Energy>
35.9538

> <b_lp_Chiralities_Consistent>
1

> <s_lp_Variant>
AV-unprocessed.smi:3092-3

> <Gold.Version>
5.8.1

> <Gold.Id.Protein>
6NUR|6NUR_protein|mol2

> <Gold.PLP.Fitness>
33.8954

> <Gold.PLP.PLP>
-27.9201

> <Gold.PLP.part.hbond>
-1.0000

> <Gold.PLP.part.metal>
0.0000

> <Gold.PLP.part.buried>
-4.0908

> <Gold.PLP.part.nonpolar>
-22.7129

> <Gold.PLP.part.repulsive>
0.1455

> <Gold.PLP.ligand.clash>
0.0000

> <Gold.PLP.ligand.torsion>
0.0136

> <Gold.PLP.Chemscore.Hbond>
2.0000

> <Gold.PLP.Chemscore.CHOScore>
0.0000

> <Gold.PLP.Chemscore.Metal>
0.0000

> <Gold.Chemscore.Hbonds>
donor molecule, donor type, donor heavy atom, donor atom, acceptor molecule, acceptor atom, score
      L1  H     5    26       P1  8028  2.00

> <Gold.PLP.Chemscore.Internal.Correction>
0.0025

> <Gold.Rescore>
     Score         DG    S(hbond)    S(metal)    S(lipo)     H(rot)  DE(clash)    DE(int)     intcor
     13.67     -13.70       0.99        0.00      64.05       1.00       0.02       0.01       ----

> <Gold.Chemscore.Fitness>
13.6710

> <Gold.Chemscore.DG>
-13.7042

> <Gold.Chemscore.ZeroCoef>
-5.4800

> <Gold.Chemscore.Hbond>
0.9853

> <Gold.Chemscore.Metal>
0.0000

> <Gold.Chemscore.Lipo>
64.0458

> <Gold.Chemscore.Internal_Hbond>
0.0000

> <Gold.Chemscore.DEClash>
0.0186

> <Gold.Chemscore.DEInternal>
0.0146

> <Gold.Chemscore.Rot>
1.0000

> <Gold.Chemscore.Internal.Correction>
   9.000000E+99

> <Gold.Chemscore.Hbonds>
donor molecule, donor type, donor heavy atom, donor atom, acceptor molecule, acceptor atom, score
      L1  H     5    26       P1  8028  0.99

> <Gold.Chemscore.Hbond.Weighted>
-3.2909

> <Gold.Chemscore.Metal.Weighted>
-0.0000

> <Gold.Chemscore.Lipo.Weighted>
-7.4934

> <Gold.Chemscore.Internal_Hbond.Weighted>
0.0000

> <Gold.Chemscore.DEClash.Weighted>
0.0186

> <Gold.Chemscore.DEInternal.Weighted>
0.0146

> <Gold.Chemscore.Rot.Weighted>
2.5600

> <Gold.Chemscore.Internal.Correction.Weighted>
   9.000000E+99

> <Gold.Protein.RotatedTorsions>
[ 6907 6896 6895 6894 ] final  108.22 input  -60.11 | X-H torsion
[ 7974 7965 7964 7962 ] final  -87.54 input  175.53 | X-H torsion
[ 8008 7997 7996 7995 ] final  142.60 input   59.86 | X-H torsion
[ 10167 10162 10161 10158 ] final -138.75 input  -65.29 | X-H torsion
[ 10718 10713 10712 10709 ] final  165.23 input   66.30 | X-H torsion
[ 10763 10752 10751 10750 ] final -163.56 input  -60.55 | X-H torsion
[ 11005 11000 10999 10996 ] final  168.42 input  -57.11 | X-H torsion

> <Gold.Protein.ActiveResidues>
 VAL166  LYS551  ARG553  GLY616  TRP617  ASP618  TYR619  PRO620  LYS621  CYS622 
 ASP623  PHE694  ASN695  SER759  ASP760  ASP761  ALA762  ILE779  LEU786  VAL792 
 PHE793  MET794  SER795  GLU796  ALA797  LYS798  CYS799  TRP800  GLU811  SER814 

> <Gold.Protein.RotatedAtoms>
  152.5121  133.9121  159.7492 H   0  0  0  0  0  0  0  0  0  0  0  0  # atno 6907 bound_to 6896
  150.9512  133.6539  159.2778 H   0  0  0  0  0  0  0  0  0  0  0  0  # atno 6908 bound_to 6896
  151.3816  135.0946  159.9551 H   0  0  0  0  0  0  0  0  0  0  0  0  # atno 6909 bound_to 6896
  145.4651  140.9560  143.1948 H   0  0  0  0  0  0  0  0  0  0  0  0  # atno 7974 bound_to 7965
  156.2946  140.2284  156.4755 H   0  0  0  0  0  0  0  0  0  0  0  0  # atno 8008 bound_to 7997
  154.7898  140.0455  157.1213 H   0  0  0  0  0  0  0  0  0  0  0  0  # atno 8009 bound_to 7997
  154.9658  140.3060  155.5013 H   0  0  0  0  0  0  0  0  0  0  0  0  # atno 8010 bound_to 7997
  139.8447  143.7276  152.2661 H   0  0  0  0  0  0  0  0  0  0  0  0  # atno 10167 bound_to 10162
  157.0831  131.0397  151.2567 H   0  0  0  0  0  0  0  0  0  0  0  0  # atno 10718 bound_to 10713
  154.7111  135.3006  154.9196 H   0  0  0  0  0  0  0  0  0  0  0  0  # atno 10763 bound_to 10752
  154.0097  135.6696  153.4768 H   0  0  0  0  0  0  0  0  0  0  0  0  # atno 10764 bound_to 10752
  153.0756  135.5037  154.8310 H   0  0  0  0  0  0  0  0  0  0  0  0  # atno 10765 bound_to 10752
  140.2871  134.7703  157.3807 H   0  0  0  0  0  0  0  0  0  0  0  0  # atno 11005 bound_to 11000
  144.7979  139.6198  143.7084 LP  0  0  0  0  0  0  0  0  0  0  0  0  # atno 17320 bound_to 7965
  146.2429  139.6037  142.9479 LP  0  0  0  0  0  0  0  0  0  0  0  0  # atno 17321 bound_to 7965
  139.7524  144.7530  151.0486 LP  0  0  0  0  0  0  0  0  0  0  0  0  # atno 17342 bound_to 10162
  140.7794  143.4845  150.9975 LP  0  0  0  0  0  0  0  0  0  0  0  0  # atno 17343 bound_to 10162
  157.4783  130.7750  149.7390 LP  0  0  0  0  0  0  0  0  0  0  0  0  # atno 17370 bound_to 10713
  155.9918  130.3935  150.2969 LP  0  0  0  0  0  0  0  0  0  0  0  0  # atno 17371 bound_to 10713
  140.1230  134.5195  155.8168 LP  0  0  0  0  0  0  0  0  0  0  0  0  # atno 17394 bound_to 11000
  141.2153  133.6763  156.6900 LP  0  0  0  0  0  0  0  0  0  0  0  0  # atno 17395 bound_to 11000

$$$$
