AV-unprocessed.smi:951|AV-procd|sdf|4252|dock6
  -GOLD-   22720 2163D 1   1.00000     0.00000
 Structure written by MMmdl.
 51 53  0  0  0  0  0  0  0  0  1 V2000
  150.9727  140.2954  155.0969 O   0  0  0  0  0  0  0  0  0  0  0  0
  150.3187  140.4436  156.1302 C   0  0  0  0  0  0  0  0  0  0  0  0
  149.1440  141.0882  156.1689 N   0  0  0  0  0  0  0  0  0  0  0  0
  148.5077  141.7070  155.0148 C   0  0  0  0  0  0  0  0  0  0  0  0
  147.0216  141.3286  154.9487 C   0  0  0  0  0  0  0  0  0  0  0  0
  146.7526  140.2290  153.9389 C   0  0  0  0  0  0  0  0  0  0  0  0
  147.1052  140.3938  152.5821 C   0  0  0  0  0  0  0  0  0  0  0  0
  146.8382  139.3398  151.6869 C   0  0  0  0  0  0  0  0  0  0  0  0
  146.2338  138.1675  152.1803 C   0  0  0  0  0  0  0  0  0  0  0  0
  145.9224  138.1006  153.5531 C   0  0  0  0  0  0  0  0  0  0  0  0
  146.1731  139.1057  154.4197 N   0  0  0  0  0  0  0  0  0  0  0  0
  150.8218  139.8612  157.4657 C   0  0  1  0  0  0  0  0  0  0  0  0
  151.5807  138.5505  157.2049 C   0  0  0  0  0  0  0  0  0  0  0  0
  152.5983  138.4673  158.3244 C   0  0  0  0  0  0  0  0  0  0  0  0
  152.9162  139.9220  158.6649 C   0  0  0  0  0  0  0  0  0  0  0  0
  151.7730  140.7174  158.2048 N   0  0  0  0  0  0  0  0  0  0  0  0
  151.5827  142.0300  158.5009 C   0  0  0  0  0  0  0  0  0  0  0  0
  150.5351  142.6112  158.2162 O   0  0  0  0  0  0  0  0  0  0  0  0
  152.7018  142.8205  159.2241 C   0  0  0  0  0  0  0  0  0  0  0  0
  152.3099  143.1820  160.6760 C   0  0  0  0  0  0  0  0  0  0  0  0
  151.3249  144.3612  160.7631 C   0  0  0  0  0  0  0  0  0  0  0  0
  151.8831  145.5986  160.0457 C   0  0  0  0  0  0  0  0  0  0  0  0
  152.2083  145.2889  158.5777 C   0  0  0  0  0  0  0  0  0  0  0  0
  153.1606  144.0827  158.4491 C   0  0  0  0  0  0  0  0  0  0  0  0
  148.6659  141.1614  157.0552 H   0  0  0  0  0  0  0  0  0  0  0  0
  148.6136  142.7912  155.0808 H   0  0  0  0  0  0  0  0  0  0  0  0
  149.0198  141.3866  154.1059 H   0  0  0  0  0  0  0  0  0  0  0  0
  146.6749  140.9992  155.9296 H   0  0  0  0  0  0  0  0  0  0  0  0
  146.4250  142.2049  154.6910 H   0  0  0  0  0  0  0  0  0  0  0  0
  147.5709  141.3043  152.2336 H   0  0  0  0  0  0  0  0  0  0  0  0
  147.0930  139.4289  150.6412 H   0  0  0  0  0  0  0  0  0  0  0  0
  146.0150  137.3390  151.5232 H   0  0  0  0  0  0  0  0  0  0  0  0
  145.4598  137.2166  153.9663 H   0  0  0  0  0  0  0  0  0  0  0  0
  149.9761  139.6683  158.1286 H   0  0  0  0  0  0  0  0  0  0  0  0
  150.9197  137.6834  157.1802 H   0  0  0  0  0  0  0  0  0  0  0  0
  152.1126  138.5843  156.2521 H   0  0  0  0  0  0  0  0  0  0  0  0
  152.1398  137.9859  159.1893 H   0  0  0  0  0  0  0  0  0  0  0  0
  153.4840  137.8913  158.0549 H   0  0  0  0  0  0  0  0  0  0  0  0
  153.1029  140.0401  159.7332 H   0  0  0  0  0  0  0  0  0  0  0  0
  153.8095  140.2363  158.1234 H   0  0  0  0  0  0  0  0  0  0  0  0
  153.5870  142.1895  159.2739 H   0  0  0  0  0  0  0  0  0  0  0  0
  151.8840  142.3146  161.1818 H   0  0  0  0  0  0  0  0  0  0  0  0
  153.2131  143.4342  161.2331 H   0  0  0  0  0  0  0  0  0  0  0  0
  150.3646  144.0832  160.3278 H   0  0  0  0  0  0  0  0  0  0  0  0
  151.1282  144.5995  161.8088 H   0  0  0  0  0  0  0  0  0  0  0  0
  151.1654  146.4175  160.1023 H   0  0  0  0  0  0  0  0  0  0  0  0
  152.7843  145.9414  160.5557 H   0  0  0  0  0  0  0  0  0  0  0  0
  151.2845  145.1082  158.0291 H   0  0  0  0  0  0  0  0  0  0  0  0
  152.6631  146.1630  158.1113 H   0  0  0  0  0  0  0  0  0  0  0  0
  154.1421  144.3785  158.8214 H   0  0  0  0  0  0  0  0  0  0  0  0
  153.3071  143.8442  157.3947 H   0  0  0  0  0  0  0  0  0  0  0  0
  1  2  2  0  0  0  0
  2  3  1  0  0  0  0
  2 12  1  0  0  0  0
  3  4  1  0  0  0  0
  3 25  1  0  0  0  0
  4  5  1  0  0  0  0
  4 26  1  0  0  0  0
  4 27  1  0  0  0  0
  5  6  1  0  0  0  0
  5 28  1  0  0  0  0
  5 29  1  0  0  0  0
  6 11  1  0  0  0  0
  6  7  2  0  0  0  0
  7  8  1  0  0  0  0
  7 30  1  0  0  0  0
  8  9  2  0  0  0  0
  8 31  1  0  0  0  0
  9 10  1  0  0  0  0
  9 32  1  0  0  0  0
 10 11  2  0  0  0  0
 10 33  1  0  0  0  0
 12 16  1  0  0  0  0
 12 13  1  0  0  0  0
 12 34  1  0  0  0  0
 13 14  1  0  0  0  0
 13 35  1  0  0  0  0
 13 36  1  0  0  0  0
 14 15  1  0  0  0  0
 14 37  1  0  0  0  0
 14 38  1  0  0  0  0
 15 16  1  0  0  0  0
 15 39  1  0  0  0  0
 15 40  1  0  0  0  0
 16 17  1  0  0  0  0
 17 18  2  0  0  0  0
 17 19  1  0  0  0  0
 19 24  1  0  0  0  0
 19 20  1  0  0  0  0
 19 41  1  0  0  0  0
 20 21  1  0  0  0  0
 20 42  1  0  0  0  0
 20 43  1  0  0  0  0
 21 22  1  0  0  0  0
 21 44  1  0  0  0  0
 21 45  1  0  0  0  0
 22 23  1  0  0  0  0
 22 46  1  0  0  0  0
 22 47  1  0  0  0  0
 23 24  1  0  0  0  0
 23 48  1  0  0  0  0
 23 49  1  0  0  0  0
 24 50  1  0  0  0  0
 24 51  1  0  0  0  0
M  END
> <s_m_source_file>
AV-unprocessed.smi

> <i_m_source_file_index>
951

> <i_lp_mmshare_version>
43012

> <i_f3d_flags>
0

> <s_epik_input>
bjFbY0hdW2NIXVtjSF1bY0hdYzFbQ0gyXVtDSDJdW05IXUMoPU8pW0NAQEhdMltDSDJdW0NIMl1bQ0gyXU4yQyg9TylbQ0hdM1tDSDJdW0NIMl1bQ0gyXVtDSDJdW0NIMl0z

> <s_epik_cmdline>
J2VwaWtfcHl0aG9uJywgJy1waCcsICc3LjAnLCAnLXRuJywgJzgnLCAnLW1hJywgJzIwMCcsICctbWV0YWxfYmluZGluZycsICctaW1hZScsICc8aW5maWxlLm1hZT4nLCAnLW9tYWUnLCAnPG91dGZpbGUubWFlPic=

> <r_epik_Ionization_Penalty>
0.0265505

> <r_epik_Ionization_Penalty_Charging>
0

> <r_epik_Ionization_Penalty_Neutral>
0.0265505

> <r_epik_State_Penalty>
0.02168

> <r_epik_Charging_Adjusted_Penalty>
0.02168

> <i_epik_Tot_Q>
0

> <i_epik_Tot_abs_Q>
0

> <r_epik_Metal_State_Penalty>
0.020746

> <b_epik_Metal_Only>
0

> <s_lp_Force_Field>
OPLS_2005

> <r_lp_Energy>
20.7073

> <b_lp_Chiralities_Consistent>
1

> <s_lp_Variant>
AV-unprocessed.smi:951-2

> <Gold.Version>
5.8.1

> <Gold.Id.Protein>
6NUR|6NUR_protein|mol2

> <Gold.PLP.Fitness>
48.1587

> <Gold.PLP.PLP>
-47.4351

> <Gold.PLP.part.hbond>
-1.0000

> <Gold.PLP.part.metal>
0.0000

> <Gold.PLP.part.buried>
-1.8407

> <Gold.PLP.part.nonpolar>
-44.6754

> <Gold.PLP.part.repulsive>
0.2723

> <Gold.PLP.ligand.clash>
0.0000

> <Gold.PLP.ligand.torsion>
1.1852

> <Gold.PLP.Chemscore.Hbond>
1.0000

> <Gold.PLP.Chemscore.CHOScore>
0.0000

> <Gold.PLP.Chemscore.Metal>
0.0000

> <Gold.Chemscore.Hbonds>
donor molecule, donor type, donor heavy atom, donor atom, acceptor molecule, acceptor atom, score
      P1  H  7989  7998       L1     1  1.00

> <Gold.PLP.Chemscore.Internal.Correction>
0.0940

> <Gold.Rescore>
     Score         DG    S(hbond)    S(metal)    S(lipo)     H(rot)  DE(clash)    DE(int)     intcor
     17.83     -21.05       0.96        0.00     139.57       1.55       0.16       3.06       ----

> <Gold.Chemscore.Fitness>
17.8312

> <Gold.Chemscore.DG>
-21.0539

> <Gold.Chemscore.ZeroCoef>
-5.4800

> <Gold.Chemscore.Hbond>
0.9621

> <Gold.Chemscore.Metal>
0.0000

> <Gold.Chemscore.Lipo>
139.5734

> <Gold.Chemscore.Internal_Hbond>
0.0000

> <Gold.Chemscore.DEClash>
0.1590

> <Gold.Chemscore.DEInternal>
3.0637

> <Gold.Chemscore.Rot>
1.5506

> <Gold.Chemscore.Internal.Correction>
   9.000000E+99

> <Gold.Chemscore.Hbonds>
donor molecule, donor type, donor heavy atom, donor atom, acceptor molecule, acceptor atom, score
      P1  H  7989  7998       L1     1  0.99

> <Gold.Chemscore.Hbond.Weighted>
-3.2133

> <Gold.Chemscore.Metal.Weighted>
-0.0000

> <Gold.Chemscore.Lipo.Weighted>
-16.3301

> <Gold.Chemscore.Internal_Hbond.Weighted>
0.0000

> <Gold.Chemscore.DEClash.Weighted>
0.1590

> <Gold.Chemscore.DEInternal.Weighted>
3.0637

> <Gold.Chemscore.Rot.Weighted>
3.9695

> <Gold.Chemscore.Internal.Correction.Weighted>
   9.000000E+99

> <Gold.Protein.RotatedTorsions>
[ 6907 6896 6895 6894 ] final  -53.60 input  -60.11 | X-H torsion
[ 7974 7965 7964 7962 ] final  148.43 input  175.53 | X-H torsion
[ 8008 7997 7996 7995 ] final   22.27 input   59.86 | X-H torsion
[ 10167 10162 10161 10158 ] final   27.62 input  -65.29 | X-H torsion
[ 10718 10713 10712 10709 ] final -112.59 input   66.30 | X-H torsion
[ 10763 10752 10751 10750 ] final   92.32 input  -60.55 | X-H torsion
[ 11005 11000 10999 10996 ] final  -44.56 input  -57.11 | X-H torsion

> <Gold.Protein.ActiveResidues>
 VAL166  LYS551  ARG553  GLY616  TRP617  ASP618  TYR619  PRO620  LYS621  CYS622 
 ASP623  PHE694  ASN695  SER759  ASP760  ASP761  ALA762  ILE779  LEU786  VAL792 
 PHE793  MET794  SER795  GLU796  ALA797  LYS798  CYS799  TRP800  GLU811  SER814 

> <Gold.Protein.RotatedAtoms>
  150.8412  134.7705  159.6933 H   0  0  0  0  0  0  0  0  0  0  0  0  # atno 6907 bound_to 6896
  152.4499  134.5412  159.9849 H   0  0  0  0  0  0  0  0  0  0  0  0  # atno 6908 bound_to 6896
  151.5552  133.3373  159.2996 H   0  0  0  0  0  0  0  0  0  0  0  0  # atno 6909 bound_to 6896
  144.8514  139.6153  143.5972 H   0  0  0  0  0  0  0  0  0  0  0  0  # atno 7974 bound_to 7965
  154.9632  140.3080  155.5021 H   0  0  0  0  0  0  0  0  0  0  0  0  # atno 8008 bound_to 7997
  156.2974  140.2297  156.4658 H   0  0  0  0  0  0  0  0  0  0  0  0  # atno 8009 bound_to 7997
  154.7945  140.0438  157.1215 H   0  0  0  0  0  0  0  0  0  0  0  0  # atno 8010 bound_to 7997
  140.4922  144.0448  150.6301 H   0  0  0  0  0  0  0  0  0  0  0  0  # atno 10167 bound_to 10162
  156.0715  130.5928  150.8528 H   0  0  0  0  0  0  0  0  0  0  0  0  # atno 10718 bound_to 10713
  153.2179  135.4365  155.0455 H   0  0  0  0  0  0  0  0  0  0  0  0  # atno 10763 bound_to 10752
  154.8234  135.3349  154.6971 H   0  0  0  0  0  0  0  0  0  0  0  0  # atno 10764 bound_to 10752
  153.7405  135.7005  153.5024 H   0  0  0  0  0  0  0  0  0  0  0  0  # atno 10765 bound_to 10752
  141.0458  133.6762  156.2889 H   0  0  0  0  0  0  0  0  0  0  0  0  # atno 11005 bound_to 11000
  146.2788  139.6822  142.9244 LP  0  0  0  0  0  0  0  0  0  0  0  0  # atno 17320 bound_to 7965
  145.4492  141.0427  143.2814 LP  0  0  0  0  0  0  0  0  0  0  0  0  # atno 17321 bound_to 7965
  140.3721  143.2849  152.0267 LP  0  0  0  0  0  0  0  0  0  0  0  0  # atno 17342 bound_to 10162
  139.4854  144.6222  151.7233 LP  0  0  0  0  0  0  0  0  0  0  0  0  # atno 17343 bound_to 10162
  157.5788  131.0946  150.9304 LP  0  0  0  0  0  0  0  0  0  0  0  0  # atno 17370 bound_to 10713
  156.9504  130.5418  149.5282 LP  0  0  0  0  0  0  0  0  0  0  0  0  # atno 17371 bound_to 10713
  140.6149  134.5421  157.5539 LP  0  0  0  0  0  0  0  0  0  0  0  0  # atno 17394 bound_to 11000
  139.9311  134.7962  156.0929 LP  0  0  0  0  0  0  0  0  0  0  0  0  # atno 17395 bound_to 11000

$$$$
