AV-unprocessed.smi:1795|AV-procd|sdf|7241|dock6
  -GOLD-   22720 8493D 1   1.00000     0.00000
 Structure written by MMmdl.
 47 48  0  0  0  0  0  0  0  0  1 V2000
  146.7634  142.6761  154.2833 C   0  0  0  0  0  0  0  0  0  0  0  0
  147.3649  141.3696  153.7549 C   0  0  1  0  0  0  0  0  0  0  0  0
  148.6542  140.9844  154.5021 C   0  0  0  0  0  0  0  0  0  0  0  0
  149.2037  139.6959  154.0692 N   0  0  0  0  0  0  0  0  0  0  0  0
  150.4525  139.3434  154.7856 C   0  0  2  0  0  0  0  0  0  0  0  0
  151.0162  137.9610  154.3667 C   0  0  0  0  0  0  0  0  0  0  0  0
  150.3055  139.3772  156.3360 C   0  0  0  0  0  0  0  0  0  0  0  0
  151.3652  140.1274  157.0044 N   0  0  0  0  0  0  0  0  0  0  0  0
  151.1869  140.9451  158.0528 C   0  0  0  0  0  0  0  0  0  0  0  0
  150.0953  141.1163  158.5969 O   0  0  0  0  0  0  0  0  0  0  0  0
  152.4395  141.6664  158.5684 C   0  0  0  0  0  0  0  0  0  0  0  0
  152.1429  142.6349  159.6368 N   0  0  0  0  0  0  0  0  0  0  0  0
  151.4916  143.8272  159.2625 C   0  0  0  0  0  0  0  0  0  0  0  0
  151.1782  144.7766  160.1584 C   0  0  0  0  0  0  0  0  0  0  0  0
  151.5268  144.5517  161.5413 C   0  0  0  0  0  0  0  0  0  0  0  0
  152.1523  143.4162  161.9100 C   0  0  0  0  0  0  0  0  0  0  0  0
  152.4977  142.3762  160.9339 C   0  0  0  0  0  0  0  0  0  0  0  0
  153.0709  141.3365  161.2612 O   0  0  0  0  0  0  0  0  0  0  0  0
  148.1540  138.6827  154.2303 C   0  0  0  0  0  0  0  0  0  0  0  0
  146.8305  139.0427  153.5256 C   0  0  2  0  0  0  0  0  0  0  0  0
  146.8949  138.8976  151.9955 C   0  0  0  0  0  0  0  0  0  0  0  0
  146.3943  140.3414  153.9183 O   0  0  0  0  0  0  0  0  0  0  0  0
  147.4629  143.5046  154.1692 H   0  0  0  0  0  0  0  0  0  0  0  0
  146.5097  142.5946  155.3406 H   0  0  0  0  0  0  0  0  0  0  0  0
  145.8533  142.9329  153.7409 H   0  0  0  0  0  0  0  0  0  0  0  0
  147.5837  141.4993  152.6947 H   0  0  0  0  0  0  0  0  0  0  0  0
  149.3703  141.7848  154.3260 H   0  0  0  0  0  0  0  0  0  0  0  0
  148.4630  140.9608  155.5762 H   0  0  0  0  0  0  0  0  0  0  0  0
  151.2072  140.0848  154.5186 H   0  0  0  0  0  0  0  0  0  0  0  0
  151.9057  137.6841  154.9315 H   0  0  0  0  0  0  0  0  0  0  0  0
  151.3309  137.9403  153.3245 H   0  0  0  0  0  0  0  0  0  0  0  0
  150.2768  137.1731  154.5128 H   0  0  0  0  0  0  0  0  0  0  0  0
  149.3640  139.8257  156.6497 H   0  0  0  0  0  0  0  0  0  0  0  0
  150.3096  138.3608  156.7306 H   0  0  0  0  0  0  0  0  0  0  0  0
  152.2963  140.0376  156.6241 H   0  0  0  0  0  0  0  0  0  0  0  0
  153.1461  140.9114  158.9153 H   0  0  0  0  0  0  0  0  0  0  0  0
  152.9425  142.1707  157.7408 H   0  0  0  0  0  0  0  0  0  0  0  0
  151.2721  143.9217  158.2090 H   0  0  0  0  0  0  0  0  0  0  0  0
  150.6821  145.6860  159.8525 H   0  0  0  0  0  0  0  0  0  0  0  0
  151.2866  145.2988  162.2835 H   0  0  0  0  0  0  0  0  0  0  0  0
  152.4067  143.2666  162.9490 H   0  0  0  0  0  0  0  0  0  0  0  0
  148.4741  137.7219  153.8333 H   0  0  0  0  0  0  0  0  0  0  0  0
  147.9588  138.5320  155.2932 H   0  0  0  0  0  0  0  0  0  0  0  0
  146.0673  138.3476  153.8762 H   0  0  0  0  0  0  0  0  0  0  0  0
  147.1110  137.8672  151.7131 H   0  0  0  0  0  0  0  0  0  0  0  0
  147.6707  139.5238  151.5558 H   0  0  0  0  0  0  0  0  0  0  0  0
  145.9439  139.1725  151.5390 H   0  0  0  0  0  0  0  0  0  0  0  0
  1  2  1  0  0  0  0
  1 23  1  0  0  0  0
  1 24  1  0  0  0  0
  1 25  1  0  0  0  0
  2 22  1  0  0  0  0
  2  3  1  0  0  0  0
  2 26  1  0  0  0  0
  3  4  1  0  0  0  0
  3 27  1  0  0  0  0
  3 28  1  0  0  0  0
  4  5  1  0  0  0  0
  4 19  1  0  0  0  0
  5  6  1  0  0  0  0
  5  7  1  0  0  0  0
  5 29  1  0  0  0  0
  6 30  1  0  0  0  0
  6 31  1  0  0  0  0
  6 32  1  0  0  0  0
  7  8  1  0  0  0  0
  7 33  1  0  0  0  0
  7 34  1  0  0  0  0
  8  9  1  0  0  0  0
  8 35  1  0  0  0  0
  9 10  2  0  0  0  0
  9 11  1  0  0  0  0
 11 12  1  0  0  0  0
 11 36  1  0  0  0  0
 11 37  1  0  0  0  0
 12 17  1  0  0  0  0
 12 13  1  0  0  0  0
 13 14  2  0  0  0  0
 13 38  1  0  0  0  0
 14 15  1  0  0  0  0
 14 39  1  0  0  0  0
 15 16  2  0  0  0  0
 15 40  1  0  0  0  0
 16 17  1  0  0  0  0
 16 41  1  0  0  0  0
 17 18  2  0  0  0  0
 19 20  1  0  0  0  0
 19 42  1  0  0  0  0
 19 43  1  0  0  0  0
 20 21  1  0  0  0  0
 20 22  1  0  0  0  0
 20 44  1  0  0  0  0
 21 45  1  0  0  0  0
 21 46  1  0  0  0  0
 21 47  1  0  0  0  0
M  END
> <s_m_source_file>
AV-unprocessed.smi

> <i_m_source_file_index>
1795

> <i_lp_mmshare_version>
43012

> <i_f3d_flags>
0

> <s_epik_input>
W0NIM11bQ0BASF0xW0NIMl1OKFtDSDJdW0NASF0oTzEpW0NIM10pW0NASF0oW0NIM10pW0NIMl1bTkhdQyg9TylbQ0gyXW4yW2NIXVtjSF1bY0hdW2NIXWMyPU8=

> <s_epik_cmdline>
J2VwaWtfcHl0aG9uJywgJy1waCcsICc3LjAnLCAnLXRuJywgJzgnLCAnLW1hJywgJzIwMCcsICctbWV0YWxfYmluZGluZycsICctaW1hZScsICc8aW5maWxlLm1hZT4nLCAnLW9tYWUnLCAnPG91dGZpbGUubWFlPic=

> <r_lp_tautomer_probability>
1

> <r_epik_Ionization_Penalty>
0.237383

> <r_epik_Ionization_Penalty_Charging>
3.58805e-07

> <r_epik_Ionization_Penalty_Neutral>
0.237382

> <r_epik_State_Penalty>
0.228245

> <r_epik_Charging_Adjusted_Penalty>
0.228245

> <i_epik_Tot_Q>
0

> <i_epik_Tot_abs_Q>
0

> <r_epik_Metal_State_Penalty>
0.228221

> <b_epik_Metal_Only>
0

> <s_lp_Force_Field>
OPLS_2005

> <r_lp_Energy>
40.4957

> <b_lp_Chiralities_Consistent>
1

> <s_lp_Variant>
AV-unprocessed.smi:1795-5

> <Gold.Version>
5.8.1

> <Gold.Id.Protein>
6NUR|6NUR_protein|mol2

> <Gold.PLP.Fitness>
44.3910

> <Gold.PLP.PLP>
-46.2716

> <Gold.PLP.part.hbond>
0.0000

> <Gold.PLP.part.metal>
0.0000

> <Gold.PLP.part.buried>
-5.6135

> <Gold.PLP.part.nonpolar>
-40.9960

> <Gold.PLP.part.repulsive>
1.9533

> <Gold.PLP.ligand.clash>
0.0000

> <Gold.PLP.ligand.torsion>
0.9849

> <Gold.PLP.Chemscore.Hbond>
0.0000

> <Gold.PLP.Chemscore.CHOScore>
0.0000

> <Gold.PLP.Chemscore.Metal>
0.0000

> <Gold.PLP.Chemscore.Internal.Correction>
0.0893

> <Gold.Rescore>
     Score         DG    S(hbond)    S(metal)    S(lipo)     H(rot)  DE(clash)    DE(int)     intcor
     12.84     -14.27       0.00        0.00     115.07       1.83       0.30       1.13       ----

> <Gold.Chemscore.Fitness>
12.8382

> <Gold.Chemscore.DG>
-14.2704

> <Gold.Chemscore.ZeroCoef>
-5.4800

> <Gold.Chemscore.Hbond>
0.0000

> <Gold.Chemscore.Metal>
0.0000

> <Gold.Chemscore.Lipo>
115.0668

> <Gold.Chemscore.Internal_Hbond>
0.0000

> <Gold.Chemscore.DEClash>
0.3010

> <Gold.Chemscore.DEInternal>
1.1313

> <Gold.Chemscore.Rot>
1.8251

> <Gold.Chemscore.Internal.Correction>
   9.000000E+99

> <Gold.Chemscore.Hbond.Weighted>
-0.0000

> <Gold.Chemscore.Metal.Weighted>
-0.0000

> <Gold.Chemscore.Lipo.Weighted>
-13.4628

> <Gold.Chemscore.Internal_Hbond.Weighted>
0.0000

> <Gold.Chemscore.DEClash.Weighted>
0.3010

> <Gold.Chemscore.DEInternal.Weighted>
1.1313

> <Gold.Chemscore.Rot.Weighted>
4.6724

> <Gold.Chemscore.Internal.Correction.Weighted>
   9.000000E+99

> <Gold.Protein.RotatedTorsions>
[ 6907 6896 6895 6894 ] final -116.26 input  -60.11 | X-H torsion
[ 7974 7965 7964 7962 ] final  134.13 input  175.53 | X-H torsion
[ 8008 7997 7996 7995 ] final  -14.68 input   59.86 | X-H torsion
[ 10167 10162 10161 10158 ] final  -31.57 input  -65.29 | X-H torsion
[ 10718 10713 10712 10709 ] final -174.18 input   66.30 | X-H torsion
[ 10763 10752 10751 10750 ] final   91.20 input  -60.55 | X-H torsion
[ 11005 11000 10999 10996 ] final  179.13 input  -57.11 | X-H torsion

> <Gold.Protein.ActiveResidues>
 VAL166  LYS551  ARG553  GLY616  TRP617  ASP618  TYR619  PRO620  LYS621  CYS622 
 ASP623  PHE694  ASN695  SER759  ASP760  ASP761  ALA762  ILE779  LEU786  VAL792 
 PHE793  MET794  SER795  GLU796  ALA797  LYS798  CYS799  TRP800  GLU811  SER814 

> <Gold.Protein.RotatedAtoms>
  150.8042  133.8542  159.3213 H   0  0  0  0  0  0  0  0  0  0  0  0  # atno 6907 bound_to 6896
  151.6346  135.1017  160.0138 H   0  0  0  0  0  0  0  0  0  0  0  0  # atno 6908 bound_to 6896
  152.4131  133.6955  159.6450 H   0  0  0  0  0  0  0  0  0  0  0  0  # atno 6909 bound_to 6896
  144.9795  139.4520  143.5393 H   0  0  0  0  0  0  0  0  0  0  0  0  # atno 7974 bound_to 7965
  154.5190  140.2216  155.9011 H   0  0  0  0  0  0  0  0  0  0  0  0  # atno 8008 bound_to 7997
  156.1641  140.3136  155.8823 H   0  0  0  0  0  0  0  0  0  0  0  0  # atno 8009 bound_to 7997
  155.3692  140.0465  157.3036 H   0  0  0  0  0  0  0  0  0  0  0  0  # atno 8010 bound_to 7997
  140.7234  143.3761  151.1687 H   0  0  0  0  0  0  0  0  0  0  0  0  # atno 10167 bound_to 10162
  156.7813  130.9484  151.3120 H   0  0  0  0  0  0  0  0  0  0  0  0  # atno 10718 bound_to 10713
  153.2057  135.4406  155.0320 H   0  0  0  0  0  0  0  0  0  0  0  0  # atno 10763 bound_to 10752
  154.8172  135.3320  154.7145 H   0  0  0  0  0  0  0  0  0  0  0  0  # atno 10764 bound_to 10752
  153.7586  135.6993  153.4986 H   0  0  0  0  0  0  0  0  0  0  0  0  # atno 10765 bound_to 10752
  140.4027  134.6763  157.4571 H   0  0  0  0  0  0  0  0  0  0  0  0  # atno 11005 bound_to 11000
  146.3404  139.9058  142.8787 LP  0  0  0  0  0  0  0  0  0  0  0  0  # atno 17320 bound_to 7965
  145.2442  141.0020  143.3918 LP  0  0  0  0  0  0  0  0  0  0  0  0  # atno 17321 bound_to 7965
  139.7341  143.9026  152.3029 LP  0  0  0  0  0  0  0  0  0  0  0  0  # atno 17342 bound_to 10162
  139.8825  144.7010  150.8861 LP  0  0  0  0  0  0  0  0  0  0  0  0  # atno 17343 bound_to 10162
  157.6645  130.8995  149.9902 LP  0  0  0  0  0  0  0  0  0  0  0  0  # atno 17370 bound_to 10713
  156.1216  130.3646  149.9877 LP  0  0  0  0  0  0  0  0  0  0  0  0  # atno 17371 bound_to 10713
  140.0324  134.6386  155.9088 LP  0  0  0  0  0  0  0  0  0  0  0  0  # atno 17394 bound_to 11000
  141.1851  133.6554  156.5182 LP  0  0  0  0  0  0  0  0  0  0  0  0  # atno 17395 bound_to 11000

$$$$
