AV-unprocessed.smi:798|AV-procd|sdf|3771|dock1
  -GOLD-   22720 1203D 1   1.00000     0.00000
 Structure written by MMmdl.
 34 36  0  0  0  0  0  0  0  0  1 V2000
  141.5111  133.6623  152.6634 O   0  0  0  0  0  0  0  0  0  0  0  0
  142.3858  134.5269  152.6032 C   0  0  0  0  0  0  0  0  0  0  0  0
  142.2797  135.7758  153.0897 N   0  0  0  0  0  0  0  0  0  0  0  0
  141.1677  136.3753  153.7388 C   0  0  0  0  0  0  0  0  0  0  0  0
  140.2796  135.6919  154.4778 N   0  0  0  0  0  0  0  0  0  0  0  0
  139.2882  136.5167  154.9933 N   0  0  0  0  0  0  0  0  0  0  0  0
  139.4677  137.7881  154.6242 C   0  0  0  0  0  0  0  0  0  0  0  0
  140.8661  138.1025  153.6110 S   0  0  0  0  0  0  0  0  0  0  0  0
  143.5819  134.3280  152.0320 N   0  0  0  0  0  0  0  0  0  0  0  0
  144.0090  133.0844  151.3953 C   0  0  2  0  0  0  0  0  0  0  0  0
  145.2736  132.5272  152.0854 C   0  0  1  0  0  0  0  0  0  0  0  0
  145.4507  131.0539  151.6761 C   0  0  0  0  0  0  0  0  0  0  0  0
  145.9069  131.1692  150.2095 C   0  0  0  0  0  0  0  0  0  0  0  0
  145.9156  132.6942  149.9671 C   0  0  2  0  0  0  0  0  0  0  0  0
  146.4084  133.1997  151.3170 C   0  0  0  0  0  0  0  0  0  0  0  0
  144.4854  133.2889  149.9339 C   0  0  1  0  0  0  0  0  0  0  0  0
  143.5307  132.7092  148.8721 C   0  0  0  0  0  0  0  0  0  0  0  0
  143.7556  133.3235  147.6209 O   0  0  0  0  0  0  0  0  0  0  0  0
  143.0859  136.3721  152.9738 H   0  0  0  0  0  0  0  0  0  0  0  0
  138.7708  138.5457  154.9505 H   0  0  0  0  0  0  0  0  0  0  0  0
  144.2428  135.0910  152.0275 H   0  0  0  0  0  0  0  0  0  0  0  0
  143.1975  132.3565  151.4590 H   0  0  0  0  0  0  0  0  0  0  0  0
  145.2940  132.6770  153.1657 H   0  0  0  0  0  0  0  0  0  0  0  0
  146.2203  130.5718  152.2800 H   0  0  0  0  0  0  0  0  0  0  0  0
  144.5320  130.4759  151.7835 H   0  0  0  0  0  0  0  0  0  0  0  0
  146.9129  130.7625  150.0970 H   0  0  0  0  0  0  0  0  0  0  0  0
  145.2627  130.6233  149.5217 H   0  0  0  0  0  0  0  0  0  0  0  0
  146.5316  132.9969  149.1198 H   0  0  0  0  0  0  0  0  0  0  0  0
  146.4062  134.2879  151.4014 H   0  0  0  0  0  0  0  0  0  0  0  0
  147.3973  132.8248  151.5870 H   0  0  0  0  0  0  0  0  0  0  0  0
  144.5826  134.3585  149.7352 H   0  0  0  0  0  0  0  0  0  0  0  0
  143.6334  131.6292  148.7743 H   0  0  0  0  0  0  0  0  0  0  0  0
  142.4967  132.8979  149.1612 H   0  0  0  0  0  0  0  0  0  0  0  0
  142.9301  133.3860  147.1650 H   0  0  0  0  0  0  0  0  0  0  0  0
  1  2  2  0  0  0  0
  2  3  1  0  0  0  0
  2  9  1  0  0  0  0
  3  4  1  0  0  0  0
  3 19  1  0  0  0  0
  4  8  1  0  0  0  0
  4  5  2  0  0  0  0
  5  6  1  0  0  0  0
  6  7  2  0  0  0  0
  7  8  1  0  0  0  0
  7 20  1  0  0  0  0
  9 10  1  0  0  0  0
  9 21  1  0  0  0  0
 10 16  1  0  0  0  0
 10 11  1  0  0  0  0
 10 22  1  0  0  0  0
 11 15  1  0  0  0  0
 11 12  1  0  0  0  0
 11 23  1  0  0  0  0
 12 13  1  0  0  0  0
 12 24  1  0  0  0  0
 12 25  1  0  0  0  0
 13 14  1  0  0  0  0
 13 26  1  0  0  0  0
 13 27  1  0  0  0  0
 14 15  1  0  0  0  0
 14 16  1  0  0  0  0
 14 28  1  0  0  0  0
 15 29  1  0  0  0  0
 15 30  1  0  0  0  0
 16 17  1  0  0  0  0
 16 31  1  0  0  0  0
 17 18  1  0  0  0  0
 17 32  1  0  0  0  0
 17 33  1  0  0  0  0
 18 34  1  0  0  0  0
M  END
> <s_m_source_file>
AV-unprocessed.smi

> <i_m_source_file_index>
798

> <i_lp_mmshare_version>
43012

> <i_f3d_flags>
0

> <s_epik_input>
W0NIMl0xW0NIMl1bQ0BASF0oW0NIMl0yKVtDQEBIXShbQ0gyXVtPSF0pW0NAQEhdKFtDQEhdMTIpW05IXUMoPU8pW05IXWMzbm5bY0hdczM=

> <s_epik_cmdline>
J2VwaWtfcHl0aG9uJywgJy1waCcsICc3LjAnLCAnLXRuJywgJzgnLCAnLW1hJywgJzIwMCcsICctbWV0YWxfYmluZGluZycsICctaW1hZScsICc8aW5maWxlLm1hZT4nLCAnLW9tYWUnLCAnPG91dGZpbGUubWFlPic=

> <r_lp_tautomer_probability>
1

> <r_epik_Ionization_Penalty>
0.000329046

> <r_epik_Ionization_Penalty_Charging>
0

> <r_epik_Ionization_Penalty_Neutral>
0.000329046

> <r_epik_State_Penalty>
-0

> <r_epik_Charging_Adjusted_Penalty>
0

> <i_epik_Tot_Q>
0

> <i_epik_Tot_abs_Q>
0

> <r_epik_Metal_State_Penalty>
0.173433

> <b_epik_Metal_Only>
0

> <s_lp_Force_Field>
OPLS_2005

> <r_lp_Energy>
48.5099

> <b_lp_Chiralities_Consistent>
1

> <s_lp_Variant>
AV-unprocessed.smi:798-3

> <Gold.Version>
5.8.1

> <Gold.Id.Protein>
6NUR|6NUR_protein|mol2

> <Gold.PLP.Fitness>
41.6806

> <Gold.PLP.PLP>
-34.2825

> <Gold.PLP.part.hbond>
-4.6603

> <Gold.PLP.part.metal>
0.0000

> <Gold.PLP.part.buried>
-4.1601

> <Gold.PLP.part.nonpolar>
-24.6278

> <Gold.PLP.part.repulsive>
0.6596

> <Gold.PLP.ligand.clash>
0.0000

> <Gold.PLP.ligand.torsion>
0.4167

> <Gold.PLP.Chemscore.Hbond>
2.7374

> <Gold.PLP.Chemscore.CHOScore>
0.0000

> <Gold.PLP.Chemscore.Metal>
0.0000

> <Gold.Chemscore.Hbonds>
donor molecule, donor type, donor heavy atom, donor atom, acceptor molecule, acceptor atom, score
      L1  H    18    34       P1 10195  1.00
      P1  H  7918  7932       L1    18  0.64
      P1  H 11000 11005       L1     5  0.91

> <Gold.PLP.Chemscore.Internal.Correction>
0.0191

> <Gold.Rescore>
     Score         DG    S(hbond)    S(metal)    S(lipo)     H(rot)  DE(clash)    DE(int)     intcor
     14.33     -16.01       1.65        0.00      85.32       1.94       0.26       1.42       ----

> <Gold.Chemscore.Fitness>
14.3315

> <Gold.Chemscore.DG>
-16.0082

> <Gold.Chemscore.ZeroCoef>
-5.4800

> <Gold.Chemscore.Hbond>
1.6536

> <Gold.Chemscore.Metal>
0.0000

> <Gold.Chemscore.Lipo>
85.3194

> <Gold.Chemscore.Internal_Hbond>
0.0000

> <Gold.Chemscore.DEClash>
0.2567

> <Gold.Chemscore.DEInternal>
1.4200

> <Gold.Chemscore.Rot>
1.9442

> <Gold.Chemscore.Internal.Correction>
   9.000000E+99

> <Gold.Chemscore.Hbonds>
donor molecule, donor type, donor heavy atom, donor atom, acceptor molecule, acceptor atom, score
      L1  H    18    34       P1 10195  0.94
      P1  H  7918  7932       L1    18  0.25
      P1  H 11000 11005       L1     5  0.20

> <Gold.Chemscore.Hbond.Weighted>
-5.5229

> <Gold.Chemscore.Metal.Weighted>
-0.0000

> <Gold.Chemscore.Lipo.Weighted>
-9.9824

> <Gold.Chemscore.Internal_Hbond.Weighted>
0.0000

> <Gold.Chemscore.DEClash.Weighted>
0.2567

> <Gold.Chemscore.DEInternal.Weighted>
1.4200

> <Gold.Chemscore.Rot.Weighted>
4.9771

> <Gold.Chemscore.Internal.Correction.Weighted>
   9.000000E+99

> <Gold.Protein.RotatedTorsions>
[ 6907 6896 6895 6894 ] final  -57.28 input  -60.11 | X-H torsion
[ 7974 7965 7964 7962 ] final  -38.31 input  175.53 | X-H torsion
[ 8008 7997 7996 7995 ] final -174.07 input   59.86 | X-H torsion
[ 10167 10162 10161 10158 ] final  -74.43 input  -65.29 | X-H torsion
[ 10718 10713 10712 10709 ] final   46.85 input   66.30 | X-H torsion
[ 10763 10752 10751 10750 ] final   41.32 input  -60.55 | X-H torsion
[ 11005 11000 10999 10996 ] final   35.11 input  -57.11 | X-H torsion

> <Gold.Protein.ActiveResidues>
 VAL166  LYS551  ARG553  GLY616  TRP617  ASP618  TYR619  PRO620  LYS621  CYS622 
 ASP623  PHE694  ASN695  SER759  ASP760  ASP761  ALA762  ILE779  LEU786  VAL792 
 PHE793  MET794  SER795  GLU796  ALA797  LYS798  CYS799  TRP800  GLU811  SER814 

> <Gold.Protein.RotatedAtoms>
  150.8099  134.7247  159.6677 H   0  0  0  0  0  0  0  0  0  0  0  0  # atno 6907 bound_to 6896
  152.4219  134.5936  159.9991 H   0  0  0  0  0  0  0  0  0  0  0  0  # atno 6908 bound_to 6896
  151.6149  133.3307  159.3111 H   0  0  0  0  0  0  0  0  0  0  0  0  # atno 6909 bound_to 6896
  146.0497  140.6497  142.9048 H   0  0  0  0  0  0  0  0  0  0  0  0  # atno 7974 bound_to 7965
  155.9655  140.1153  157.0858 H   0  0  0  0  0  0  0  0  0  0  0  0  # atno 8008 bound_to 7997
  154.4143  140.1173  156.5303 H   0  0  0  0  0  0  0  0  0  0  0  0  # atno 8009 bound_to 7997
  155.6665  140.3473  155.4804 H   0  0  0  0  0  0  0  0  0  0  0  0  # atno 8010 bound_to 7997
  140.5028  143.2358  151.7724 H   0  0  0  0  0  0  0  0  0  0  0  0  # atno 10167 bound_to 10162
  157.4524  130.8146  149.7802 H   0  0  0  0  0  0  0  0  0  0  0  0  # atno 10718 bound_to 10713
  152.9911  135.6165  154.2769 H   0  0  0  0  0  0  0  0  0  0  0  0  # atno 10763 bound_to 10752
  154.2499  135.2785  155.2822 H   0  0  0  0  0  0  0  0  0  0  0  0  # atno 10764 bound_to 10752
  154.5297  135.5791  153.6806 H   0  0  0  0  0  0  0  0  0  0  0  0  # atno 10765 bound_to 10752
  140.2459  134.3359  155.7908 H   0  0  0  0  0  0  0  0  0  0  0  0  # atno 11005 bound_to 11000
  144.7116  140.4060  143.7076 LP  0  0  0  0  0  0  0  0  0  0  0  0  # atno 17320 bound_to 7965
  145.6745  139.1606  143.2736 LP  0  0  0  0  0  0  0  0  0  0  0  0  # atno 17321 bound_to 7965
  139.4876  144.4499  151.9666 LP  0  0  0  0  0  0  0  0  0  0  0  0  # atno 17342 bound_to 10162
  140.3588  144.2998  150.5937 LP  0  0  0  0  0  0  0  0  0  0  0  0  # atno 17343 bound_to 10162
  155.9992  130.3890  150.2671 LP  0  0  0  0  0  0  0  0  0  0  0  0  # atno 17370 bound_to 10713
  157.0843  131.0152  151.3145 LP  0  0  0  0  0  0  0  0  0  0  0  0  # atno 17371 bound_to 10713
  141.2206  133.7326  156.8960 LP  0  0  0  0  0  0  0  0  0  0  0  0  # atno 17394 bound_to 11000
  140.1606  134.9168  157.2710 LP  0  0  0  0  0  0  0  0  0  0  0  0  # atno 17395 bound_to 11000

$$$$
