AV-unprocessed.smi:559|AV-procd|sdf|2925|dock2
  -GOLD-   2262023413D 1   1.00000     0.00000
 Structure written by MMmdl.
 41 42  0  0  0  0  0  0  0  0  1 V2000
  151.9656  145.2304  159.2086 C   0  0  0  0  0  0  0  0  0  0  0  0
  152.2922  143.7955  159.5089 C   0  0  0  0  0  0  0  0  0  0  0  0
  152.9368  143.4956  160.6236 N   0  0  0  0  0  0  0  0  0  0  0  0
  153.0733  142.1552  160.5945 N   0  0  0  0  0  0  0  0  0  0  0  0
  153.7509  141.5037  161.6993 C   0  0  0  0  0  0  0  0  0  0  0  0
  152.5097  141.6051  159.4575 C   0  0  0  0  0  0  0  0  0  0  0  0
  152.5261  140.1353  159.1824 C   0  0  0  0  0  0  0  0  0  0  0  0
  151.9920  142.6421  158.7266 C   0  0  0  0  0  0  0  0  0  0  0  0
  151.2698  142.6017  157.4028 C   0  0  0  0  0  0  0  0  0  0  0  0
  149.9262  141.8877  157.5590 C   0  0  0  0  0  0  0  0  0  0  0  0
  149.8825  140.7601  158.0494 O   0  0  0  0  0  0  0  0  0  0  0  0
  148.8414  142.5514  157.1289 N   0  0  0  0  0  0  0  0  0  0  0  0
  147.4665  142.0665  157.1901 C   0  0  0  0  0  0  0  0  0  0  0  0
  147.1025  141.1980  155.9703 C   0  0  1  0  0  0  0  0  0  0  0  0
  147.4989  141.8226  154.6151 C   0  0  0  0  0  0  0  0  0  0  0  0
  147.3604  140.7582  153.5221 C   0  0  0  0  0  0  0  0  0  0  0  0
  147.7878  139.1681  154.3225 S   0  0  0  0  0  0  0  0  0  0  0  0
  146.6836  138.2182  154.1190 O   0  0  0  0  0  0  0  0  0  0  0  0
  149.1722  138.8038  153.9852 O   0  0  0  0  0  0  0  0  0  0  0  0
  147.7415  139.8022  156.0417 C   0  0  0  0  0  0  0  0  0  0  0  0
  152.2334  145.4854  158.1833 H   0  0  0  0  0  0  0  0  0  0  0  0
  152.5015  145.9144  159.8677 H   0  0  0  0  0  0  0  0  0  0  0  0
  150.8990  145.4193  159.3297 H   0  0  0  0  0  0  0  0  0  0  0  0
  153.9266  140.4509  161.4808 H   0  0  0  0  0  0  0  0  0  0  0  0
  153.1402  141.5803  162.5991 H   0  0  0  0  0  0  0  0  0  0  0  0
  154.7121  141.9866  161.8794 H   0  0  0  0  0  0  0  0  0  0  0  0
  152.0460  139.9026  158.2325 H   0  0  0  0  0  0  0  0  0  0  0  0
  151.9994  139.5887  159.9648 H   0  0  0  0  0  0  0  0  0  0  0  0
  153.5491  139.7613  159.1357 H   0  0  0  0  0  0  0  0  0  0  0  0
  151.0953  143.6019  157.0059 H   0  0  0  0  0  0  0  0  0  0  0  0
  151.8625  142.0820  156.6490 H   0  0  0  0  0  0  0  0  0  0  0  0
  148.9796  143.4735  156.7414 H   0  0  0  0  0  0  0  0  0  0  0  0
  147.2845  141.5207  158.1176 H   0  0  0  0  0  0  0  0  0  0  0  0
  146.8152  142.9404  157.2212 H   0  0  0  0  0  0  0  0  0  0  0  0
  146.0206  141.0563  155.9581 H   0  0  0  0  0  0  0  0  0  0  0  0
  146.9009  142.7032  154.3800 H   0  0  0  0  0  0  0  0  0  0  0  0
  148.5392  142.1474  154.6619 H   0  0  0  0  0  0  0  0  0  0  0  0
  146.3298  140.6937  153.1726 H   0  0  0  0  0  0  0  0  0  0  0  0
  148.0101  140.9381  152.6656 H   0  0  0  0  0  0  0  0  0  0  0  0
  148.7695  139.8583  156.4012 H   0  0  0  0  0  0  0  0  0  0  0  0
  147.1888  139.1138  156.6812 H   0  0  0  0  0  0  0  0  0  0  0  0
  1  2  1  0  0  0  0
  1 21  1  0  0  0  0
  1 22  1  0  0  0  0
  1 23  1  0  0  0  0
  2  8  1  0  0  0  0
  2  3  2  0  0  0  0
  3  4  1  0  0  0  0
  4  5  1  0  0  0  0
  4  6  1  0  0  0  0
  5 24  1  0  0  0  0
  5 25  1  0  0  0  0
  5 26  1  0  0  0  0
  6  7  1  0  0  0  0
  6  8  2  0  0  0  0
  7 27  1  0  0  0  0
  7 28  1  0  0  0  0
  7 29  1  0  0  0  0
  8  9  1  0  0  0  0
  9 10  1  0  0  0  0
  9 30  1  0  0  0  0
  9 31  1  0  0  0  0
 10 11  2  0  0  0  0
 10 12  1  0  0  0  0
 12 13  1  0  0  0  0
 12 32  1  0  0  0  0
 13 14  1  0  0  0  0
 13 33  1  0  0  0  0
 13 34  1  0  0  0  0
 14 20  1  0  0  0  0
 14 15  1  0  0  0  0
 14 35  1  0  0  0  0
 15 16  1  0  0  0  0
 15 36  1  0  0  0  0
 15 37  1  0  0  0  0
 16 17  1  0  0  0  0
 16 38  1  0  0  0  0
 16 39  1  0  0  0  0
 17 18  2  0  0  0  0
 17 19  2  0  0  0  0
 17 20  1  0  0  0  0
 20 40  1  0  0  0  0
 20 41  1  0  0  0  0
M  END
> <s_m_source_file>
AV-unprocessed.smi

> <i_m_source_file_index>
559

> <i_lp_mmshare_version>
43012

> <i_f3d_flags>
0

> <s_epik_input>
W0NIM11jMW5uKFtDSDNdKWMoW0NIM10pYzFbQ0gyXUMoPU8pW05IXVtDSDJdW0NAQEhdKFtDSDJdMilbQ0gyXVtDSDJdUzIoPU8pPU8=

> <s_epik_cmdline>
J2VwaWtfcHl0aG9uJywgJy1waCcsICc3LjAnLCAnLXRuJywgJzgnLCAnLW1hJywgJzIwMCcsICctbWV0YWxfYmluZGluZycsICctaW1hZScsICc8aW5maWxlLm1hZT4nLCAnLW9tYWUnLCAnPG91dGZpbGUubWFlPic=

> <r_lp_tautomer_probability>
1

> <r_epik_Ionization_Penalty>
0.00301269

> <r_epik_Ionization_Penalty_Charging>
0

> <r_epik_Ionization_Penalty_Neutral>
0.00301269

> <r_epik_State_Penalty>
0.00211587

> <r_epik_Charging_Adjusted_Penalty>
0.00211587

> <i_epik_Tot_Q>
0

> <i_epik_Tot_abs_Q>
0

> <r_epik_Metal_State_Penalty>
-0

> <b_epik_Metal_Only>
0

> <s_lp_Force_Field>
OPLS_2005

> <r_lp_Energy>
-1.18315

> <b_lp_Chiralities_Consistent>
1

> <s_lp_Variant>
AV-unprocessed.smi:559-2

> <Gold.Version>
5.8.1

> <Gold.Id.Protein>
6NUR|6NUR_protein|mol2

> <Gold.PLP.Fitness>
39.6075

> <Gold.PLP.PLP>
-37.2797

> <Gold.PLP.part.hbond>
-1.0000

> <Gold.PLP.part.metal>
0.0000

> <Gold.PLP.part.buried>
-4.8738

> <Gold.PLP.part.nonpolar>
-32.6516

> <Gold.PLP.part.repulsive>
0.7244

> <Gold.PLP.ligand.clash>
0.0000

> <Gold.PLP.ligand.torsion>
0.3482

> <Gold.PLP.Chemscore.Hbond>
1.0000

> <Gold.PLP.Chemscore.CHOScore>
0.0000

> <Gold.PLP.Chemscore.Metal>
0.0000

> <Gold.Chemscore.Hbonds>
donor molecule, donor type, donor heavy atom, donor atom, acceptor molecule, acceptor atom, score
      L1  H    12    32       P1  8028  1.00

> <Gold.PLP.Chemscore.Internal.Correction>
0.0243

> <Gold.Rescore>
     Score         DG    S(hbond)    S(metal)    S(lipo)     H(rot)  DE(clash)    DE(int)     intcor
     14.99     -15.46       0.98        0.00      93.18       1.64       0.10       0.37       ----

> <Gold.Chemscore.Fitness>
14.9868

> <Gold.Chemscore.DG>
-15.4629

> <Gold.Chemscore.ZeroCoef>
-5.4800

> <Gold.Chemscore.Hbond>
0.9816

> <Gold.Chemscore.Metal>
0.0000

> <Gold.Chemscore.Lipo>
93.1773

> <Gold.Chemscore.Internal_Hbond>
0.0000

> <Gold.Chemscore.DEClash>
0.1029

> <Gold.Chemscore.DEInternal>
0.3732

> <Gold.Chemscore.Rot>
1.6396

> <Gold.Chemscore.Internal.Correction>
   9.000000E+99

> <Gold.Chemscore.Hbonds>
donor molecule, donor type, donor heavy atom, donor atom, acceptor molecule, acceptor atom, score
      L1  H    12    32       P1  8028  0.81

> <Gold.Chemscore.Hbond.Weighted>
-3.2786

> <Gold.Chemscore.Metal.Weighted>
-0.0000

> <Gold.Chemscore.Lipo.Weighted>
-10.9017

> <Gold.Chemscore.Internal_Hbond.Weighted>
0.0000

> <Gold.Chemscore.DEClash.Weighted>
0.1029

> <Gold.Chemscore.DEInternal.Weighted>
0.3732

> <Gold.Chemscore.Rot.Weighted>
4.1974

> <Gold.Chemscore.Internal.Correction.Weighted>
   9.000000E+99

> <Gold.Protein.RotatedTorsions>
[ 6907 6896 6895 6894 ] final  -24.86 input  -60.11 | X-H torsion
[ 7974 7965 7964 7962 ] final  168.09 input  175.53 | X-H torsion
[ 8008 7997 7996 7995 ] final -159.74 input   59.86 | X-H torsion
[ 10167 10162 10161 10158 ] final -165.58 input  -65.29 | X-H torsion
[ 10718 10713 10712 10709 ] final  119.67 input   66.30 | X-H torsion
[ 10763 10752 10751 10750 ] final -134.56 input  -60.55 | X-H torsion
[ 11005 11000 10999 10996 ] final  -69.58 input  -57.11 | X-H torsion

> <Gold.Protein.ActiveResidues>
 VAL166  LYS551  ARG553  GLY616  TRP617  ASP618  TYR619  PRO620  LYS621  CYS622 
 ASP623  PHE694  ASN695  SER759  ASP760  ASP761  ALA762  ILE779  LEU786  VAL792 
 PHE793  MET794  SER795  GLU796  ALA797  LYS798  CYS799  TRP800  GLU811  SER814 

> <Gold.Protein.RotatedAtoms>
  151.1835  135.0371  159.8802 H   0  0  0  0  0  0  0  0  0  0  0  0  # atno 6907 bound_to 6896
  152.5443  134.1036  159.8338 H   0  0  0  0  0  0  0  0  0  0  0  0  # atno 6908 bound_to 6896
  151.1156  133.5094  159.2636 H   0  0  0  0  0  0  0  0  0  0  0  0  # atno 6909 bound_to 6896
  144.7401  139.8857  143.6399 H   0  0  0  0  0  0  0  0  0  0  0  0  # atno 7974 bound_to 7965
  155.7670  140.0847  157.2127 H   0  0  0  0  0  0  0  0  0  0  0  0  # atno 8008 bound_to 7997
  154.3999  140.1532  156.2955 H   0  0  0  0  0  0  0  0  0  0  0  0  # atno 8009 bound_to 7997
  155.8784  140.3422  155.5873 H   0  0  0  0  0  0  0  0  0  0  0  0  # atno 8010 bound_to 7997
  139.6172  144.0696  152.1899 H   0  0  0  0  0  0  0  0  0  0  0  0  # atno 10167 bound_to 10162
  157.5945  131.1060  150.7928 H   0  0  0  0  0  0  0  0  0  0  0  0  # atno 10718 bound_to 10713
  154.8717  135.3731  154.4755 H   0  0  0  0  0  0  0  0  0  0  0  0  # atno 10763 bound_to 10752
  153.5412  135.7026  153.5641 H   0  0  0  0  0  0  0  0  0  0  0  0  # atno 10764 bound_to 10752
  153.3802  135.3999  155.1815 H   0  0  0  0  0  0  0  0  0  0  0  0  # atno 10765 bound_to 10752
  141.1557  133.6768  156.6621 H   0  0  0  0  0  0  0  0  0  0  0  0  # atno 11005 bound_to 11000
  146.1179  139.4192  143.0247 LP  0  0  0  0  0  0  0  0  0  0  0  0  # atno 17320 bound_to 7965
  145.7348  141.0029  143.1332 LP  0  0  0  0  0  0  0  0  0  0  0  0  # atno 17321 bound_to 7965
  140.0329  144.6067  150.7473 LP  0  0  0  0  0  0  0  0  0  0  0  0  # atno 17342 bound_to 10162
  140.7359  143.2746  151.3782 LP  0  0  0  0  0  0  0  0  0  0  0  0  # atno 17343 bound_to 10162
  156.8342  130.5026  149.5328 LP  0  0  0  0  0  0  0  0  0  0  0  0  # atno 17370 bound_to 10713
  156.1006  130.5966  150.9887 LP  0  0  0  0  0  0  0  0  0  0  0  0  # atno 17371 bound_to 10713
  140.3239  134.7985  157.4274 LP  0  0  0  0  0  0  0  0  0  0  0  0  # atno 17394 bound_to 11000
  140.1073  134.5392  155.8297 LP  0  0  0  0  0  0  0  0  0  0  0  0  # atno 17395 bound_to 11000

$$$$
