AV-unprocessed.smi:2298|AV-procd|sdf|9224|dock3
  -GOLD-   2272012443D 1   1.00000     0.00000
 Structure written by MMmdl.
 37 38  0  0  0  0  0  0  0  0  1 V2000
  151.8651  136.4572  157.2512 C   0  0  0  0  0  0  0  0  0  0  0  0
  151.0743  135.2693  156.7362 C   0  0  0  0  0  0  0  0  0  0  0  0
  151.2508  134.1130  157.4116 N   0  0  0  0  0  0  0  0  0  0  0  0
  150.5769  133.0235  156.9909 C   0  0  0  0  0  0  0  0  0  0  0  0
  149.6986  133.0325  155.8908 C   0  0  0  0  0  0  0  0  0  0  0  0
  149.4980  134.2460  155.1894 C   0  0  0  0  0  0  0  0  0  0  0  0
  148.6476  134.3695  154.0540 N   0  0  0  0  0  0  0  0  0  0  0  0
  147.5024  133.7222  153.7773 C   0  0  0  0  0  0  0  0  0  0  0  0
  146.9674  132.8766  154.4941 O   0  0  0  0  0  0  0  0  0  0  0  0
  146.9908  134.1264  152.6054 N   0  0  0  0  0  0  0  0  0  0  0  0
  145.7548  133.6284  152.0087 C   0  0  1  0  0  0  0  0  0  0  0  0
  145.4564  134.4033  150.7111 C   0  0  0  0  0  0  0  0  0  0  0  0
  144.1915  133.8716  150.0179 C   0  0  0  0  0  0  0  0  0  0  0  0
  144.3048  132.3625  149.7413 C   0  0  2  0  0  0  0  0  0  0  0  0
  143.1020  131.8957  149.1683 O   0  0  0  0  0  0  0  0  0  0  0  0
  144.5952  131.5828  151.0354 C   0  0  0  0  0  0  0  0  0  0  0  0
  145.8585  132.1143  151.7311 C   0  0  0  0  0  0  0  0  0  0  0  0
  150.2146  135.3882  155.6186 C   0  0  0  0  0  0  0  0  0  0  0  0
  150.0405  136.9036  154.7974 Cl  0  0  0  0  0  0  0  0  0  0  0  0
  144.9292  133.8035  152.7018 H   0  0  0  0  0  0  0  0  0  0  0  0
  145.1082  132.1859  149.0249 H   0  0  0  0  0  0  0  0  0  0  0  0
  151.1905  137.2563  157.5584 H   0  0  0  0  0  0  0  0  0  0  0  0
  152.5239  136.8408  156.4719 H   0  0  0  0  0  0  0  0  0  0  0  0
  152.4814  136.1876  158.1101 H   0  0  0  0  0  0  0  0  0  0  0  0
  150.7478  132.1122  157.5448 H   0  0  0  0  0  0  0  0  0  0  0  0
  149.2126  132.1126  155.6064 H   0  0  0  0  0  0  0  0  0  0  0  0
  148.9165  135.0874  153.3972 H   0  0  0  0  0  0  0  0  0  0  0  0
  147.4940  134.8297  152.0844 H   0  0  0  0  0  0  0  0  0  0  0  0
  145.3352  135.4650  150.9294 H   0  0  0  0  0  0  0  0  0  0  0  0
  146.3031  134.3225  150.0277 H   0  0  0  0  0  0  0  0  0  0  0  0
  143.3240  134.0698  150.6490 H   0  0  0  0  0  0  0  0  0  0  0  0
  144.0266  134.4126  149.0854 H   0  0  0  0  0  0  0  0  0  0  0  0
  142.4768  132.6043  149.1620 H   0  0  0  0  0  0  0  0  0  0  0  0
  143.7474  131.6644  151.7175 H   0  0  0  0  0  0  0  0  0  0  0  0
  144.7149  130.5214  150.8152 H   0  0  0  0  0  0  0  0  0  0  0  0
  146.7281  131.9122  151.1039 H   0  0  0  0  0  0  0  0  0  0  0  0
  146.0171  131.5698  152.6626 H   0  0  0  0  0  0  0  0  0  0  0  0
  1  2  1  0  0  0  0
  1 22  1  0  0  0  0
  1 23  1  0  0  0  0
  1 24  1  0  0  0  0
  2 18  1  0  0  0  0
  2  3  2  0  0  0  0
  3  4  1  0  0  0  0
  4  5  2  0  0  0  0
  4 25  1  0  0  0  0
  5  6  1  0  0  0  0
  5 26  1  0  0  0  0
  6  7  1  0  0  0  0
  6 18  2  0  0  0  0
  7  8  1  0  0  0  0
  7 27  1  0  0  0  0
  8  9  2  0  0  0  0
  8 10  1  0  0  0  0
 10 11  1  0  0  0  0
 10 28  1  0  0  0  0
 11 20  1  0  0  0  0
 11 17  1  0  0  0  0
 11 12  1  0  0  0  0
 12 13  1  0  0  0  0
 12 29  1  0  0  0  0
 12 30  1  0  0  0  0
 13 14  1  0  0  0  0
 13 31  1  0  0  0  0
 13 32  1  0  0  0  0
 14 21  1  0  0  0  0
 14 15  1  0  0  0  0
 14 16  1  0  0  0  0
 15 33  1  0  0  0  0
 16 17  1  0  0  0  0
 16 34  1  0  0  0  0
 16 35  1  0  0  0  0
 17 36  1  0  0  0  0
 17 37  1  0  0  0  0
 18 19  1  0  0  0  0
M  END
> <s_m_source_file>
AV-unprocessed.smi

> <i_m_source_file_index>
2298

> <i_lp_mmshare_version>
43012

> <i_f3d_flags>
0

> <s_epik_input>
W0NIM11jMW5bY0hdW2NIXWMoYzFDbClbTkhdQyg9TylbTkhdW0NASF0yW0NIMl1bQ0gyXVtDQEhdKFtPSF0pW0NIMl1bQ0gyXTI=

> <s_epik_cmdline>
J2VwaWtfcHl0aG9uJywgJy1waCcsICc3LjAnLCAnLXRuJywgJzgnLCAnLW1hJywgJzIwMCcsICctbWV0YWxfYmluZGluZycsICctaW1hZScsICc8aW5maWxlLm1hZT4nLCAnLW9tYWUnLCAnPG91dGZpbGUubWFlPic=

> <r_epik_Ionization_Penalty>
0.00999805

> <r_epik_Ionization_Penalty_Charging>
0

> <r_epik_Ionization_Penalty_Neutral>
0.00999805

> <r_epik_State_Penalty>
0.00759022

> <r_epik_Charging_Adjusted_Penalty>
0.00759022

> <i_epik_Tot_Q>
0

> <i_epik_Tot_abs_Q>
0

> <r_epik_Metal_State_Penalty>
0.00746447

> <b_epik_Metal_Only>
0

> <s_lp_Force_Field>
OPLS_2005

> <r_lp_Energy>
13.5765

> <b_lp_Chiralities_Consistent>
1

> <s_lp_Variant>
AV-unprocessed.smi:2298-1

> <Gold.Version>
5.8.1

> <Gold.Id.Protein>
6NUR|6NUR_protein|mol2

> <Gold.PLP.Fitness>
46.4754

> <Gold.PLP.PLP>
-34.6346

> <Gold.PLP.part.hbond>
-5.9245

> <Gold.PLP.part.metal>
0.0000

> <Gold.PLP.part.buried>
-4.1002

> <Gold.PLP.part.nonpolar>
-25.3048

> <Gold.PLP.part.repulsive>
0.0532

> <Gold.PLP.ligand.clash>
0.0000

> <Gold.PLP.ligand.torsion>
0.2239

> <Gold.PLP.Chemscore.Hbond>
4.0950

> <Gold.PLP.Chemscore.CHOScore>
0.0000

> <Gold.PLP.Chemscore.Metal>
0.0000

> <Gold.Chemscore.Hbonds>
donor molecule, donor type, donor heavy atom, donor atom, acceptor molecule, acceptor atom, score
      L1  H     7    27       P1  7948  1.00
      L1  H    10    28       P1  7948  1.00
      L1  H    15    33       P1 10186  0.18
      P1  H  6896  6907       L1     3  0.15
      P1  H 10785 10796       L1    15  1.00

> <Gold.PLP.Chemscore.Internal.Correction>
0.0036

> <Gold.Rescore>
     Score         DG    S(hbond)    S(metal)    S(lipo)     H(rot)  DE(clash)    DE(int)     intcor
     19.83     -20.72       2.99        0.00      76.10       1.42       0.04       0.85       ----

> <Gold.Chemscore.Fitness>
19.8270

> <Gold.Chemscore.DG>
-20.7193

> <Gold.Chemscore.ZeroCoef>
-5.4800

> <Gold.Chemscore.Hbond>
2.9851

> <Gold.Chemscore.Metal>
0.0000

> <Gold.Chemscore.Lipo>
76.1015

> <Gold.Chemscore.Internal_Hbond>
0.0000

> <Gold.Chemscore.DEClash>
0.0398

> <Gold.Chemscore.DEInternal>
0.8524

> <Gold.Chemscore.Rot>
1.4199

> <Gold.Chemscore.Internal.Correction>
   9.000000E+99

> <Gold.Chemscore.Hbonds>
donor molecule, donor type, donor heavy atom, donor atom, acceptor molecule, acceptor atom, score
      L1  H     7    27       P1  7948  0.45
      L1  H    10    28       P1  7948  0.81
      L1  H    15    33       P1 10186  0.19
      P1  H  6896  6907       L1     3  0.01
      P1  H 10785 10796       L1    15  0.81

> <Gold.Chemscore.Hbond.Weighted>
-9.9703

> <Gold.Chemscore.Metal.Weighted>
-0.0000

> <Gold.Chemscore.Lipo.Weighted>
-8.9039

> <Gold.Chemscore.Internal_Hbond.Weighted>
0.0000

> <Gold.Chemscore.DEClash.Weighted>
0.0398

> <Gold.Chemscore.DEInternal.Weighted>
0.8524

> <Gold.Chemscore.Rot.Weighted>
3.6349

> <Gold.Chemscore.Internal.Correction.Weighted>
   9.000000E+99

> <Gold.Protein.RotatedTorsions>
[ 6907 6896 6895 6894 ] final -163.11 input  -60.11 | X-H torsion
[ 7974 7965 7964 7962 ] final  123.14 input  175.53 | X-H torsion
[ 8008 7997 7996 7995 ] final -118.57 input   59.86 | X-H torsion
[ 10167 10162 10161 10158 ] final -164.09 input  -65.29 | X-H torsion
[ 10718 10713 10712 10709 ] final  -76.03 input   66.30 | X-H torsion
[ 10763 10752 10751 10750 ] final  -90.12 input  -60.55 | X-H torsion
[ 11005 11000 10999 10996 ] final -109.86 input  -57.11 | X-H torsion

> <Gold.Protein.ActiveResidues>
 VAL166  LYS551  ARG553  GLY616  TRP617  ASP618  TYR619  PRO620  LYS621  CYS622 
 ASP623  PHE694  ASN695  SER759  ASP760  ASP761  ALA762  ILE779  LEU786  VAL792 
 PHE793  MET794  SER795  GLU796  ALA797  LYS798  CYS799  TRP800  GLU811  SER814 

> <Gold.Protein.RotatedAtoms>
  151.3908  133.3789  159.2720 H   0  0  0  0  0  0  0  0  0  0  0  0  # atno 6907 bound_to 6896
  150.9506  134.8908  159.7680 H   0  0  0  0  0  0  0  0  0  0  0  0  # atno 6908 bound_to 6896
  152.5110  134.3863  159.9421 H   0  0  0  0  0  0  0  0  0  0  0  0  # atno 6909 bound_to 6896
  145.0994  139.3529  143.4820 H   0  0  0  0  0  0  0  0  0  0  0  0  # atno 7974 bound_to 7965
  155.1017  140.0396  157.2699 H   0  0  0  0  0  0  0  0  0  0  0  0  # atno 8008 bound_to 7997
  154.6753  140.2621  155.6939 H   0  0  0  0  0  0  0  0  0  0  0  0  # atno 8009 bound_to 7997
  156.2674  140.2789  156.1277 H   0  0  0  0  0  0  0  0  0  0  0  0  # atno 8010 bound_to 7997
  139.6275  144.0504  152.1987 H   0  0  0  0  0  0  0  0  0  0  0  0  # atno 10167 bound_to 10162
  156.0188  130.4455  150.3131 H   0  0  0  0  0  0  0  0  0  0  0  0  # atno 10718 bound_to 10713
  154.6625  135.5316  153.8035 H   0  0  0  0  0  0  0  0  0  0  0  0  # atno 10763 bound_to 10752
  153.0450  135.6509  154.0850 H   0  0  0  0  0  0  0  0  0  0  0  0  # atno 10764 bound_to 10752
  154.0758  135.2951  155.3279 H   0  0  0  0  0  0  0  0  0  0  0  0  # atno 10765 bound_to 10752
  141.0824  133.9197  157.2260 H   0  0  0  0  0  0  0  0  0  0  0  0  # atno 11005 bound_to 11000
  146.3530  140.0864  142.8615 LP  0  0  0  0  0  0  0  0  0  0  0  0  # atno 17320 bound_to 7965
  145.0973  140.9323  143.4733 LP  0  0  0  0  0  0  0  0  0  0  0  0  # atno 17321 bound_to 7965
  140.0161  144.6188  150.7606 LP  0  0  0  0  0  0  0  0  0  0  0  0  # atno 17342 bound_to 10162
  140.7419  143.2825  151.3557 LP  0  0  0  0  0  0  0  0  0  0  0  0  # atno 17343 bound_to 10162
  157.1233  131.0252  151.3000 LP  0  0  0  0  0  0  0  0  0  0  0  0  # atno 17370 bound_to 10713
  157.4610  130.7653  149.7236 LP  0  0  0  0  0  0  0  0  0  0  0  0  # atno 17371 bound_to 10713
  139.9639  135.0147  156.9334 LP  0  0  0  0  0  0  0  0  0  0  0  0  # atno 17394 bound_to 11000
  140.5439  134.0693  155.7349 LP  0  0  0  0  0  0  0  0  0  0  0  0  # atno 17395 bound_to 11000

$$$$
