AV-unprocessed.smi:3342|AV-procd|sdf|12888|dock4
  -GOLD-   2272019293D 1   1.00000     0.00000
 Structure written by MMmdl.
 42 43  0  0  0  0  0  0  0  0  2 V2000
  145.6729  136.4934  151.4577 C   0  0  0  0  0  0  0  0  0  0  0  0
  145.9150  135.5366  152.6328 C   0  0  1  0  0  0  0  0  0  0  0  0
  146.3875  134.1521  152.1383 C   0  0  0  0  0  0  0  0  0  0  0  0
  145.4124  133.4889  151.2664 N   0  0  0  0  0  0  0  0  0  0  0  0
  145.6092  132.3716  150.4956 C   0  0  0  0  0  0  0  0  0  0  0  0
  144.4175  132.1158  149.8676 C   0  0  0  0  0  0  0  0  0  0  0  0
  143.5468  133.0903  150.2761 N   0  3  0  0  0  0  0  0  0  0  0  0
  144.1550  133.9270  151.1231 C   0  0  0  0  0  0  0  0  0  0  0  0
  146.8972  136.1374  153.5343 N   0  0  0  0  0  0  0  0  0  0  0  0
  146.6793  136.5127  154.8072 C   0  0  0  0  0  0  0  0  0  0  0  0
  145.5912  136.3478  155.3612 O   0  0  0  0  0  0  0  0  0  0  0  0
  147.7608  137.0378  155.4360 N   0  0  0  0  0  0  0  0  0  0  0  0
  149.1146  137.1738  154.8722 C   0  0  0  0  0  0  0  0  0  0  0  0
  149.3504  138.6500  154.5042 C   0  0  0  0  0  0  0  0  0  0  0  0
  149.1521  139.5696  155.7328 C   0  0  0  0  0  0  0  0  0  0  0  0
  149.2530  141.0488  155.3369 C   0  0  0  0  0  0  0  0  0  0  0  0
  149.1467  141.9500  156.3164 N   0  0  0  0  0  0  0  0  0  0  0  0
  149.4247  141.3761  154.1642 O   0  0  0  0  0  0  0  0  0  0  0  0
  147.8040  139.2722  156.4312 C   0  0  0  0  0  0  0  0  0  0  0  0
  147.6421  137.7659  156.7052 C   0  0  0  0  0  0  0  0  0  0  0  0
  144.9204  136.0956  150.7762 H   0  0  0  0  0  0  0  0  0  0  0  0
  146.5858  136.6597  150.8845 H   0  0  0  0  0  0  0  0  0  0  0  0
  145.3182  137.4638  151.8073 H   0  0  0  0  0  0  0  0  0  0  0  0
  144.9620  135.4213  153.1523 H   0  0  0  0  0  0  0  0  0  0  0  0
  147.3156  134.2469  151.5728 H   0  0  0  0  0  0  0  0  0  0  0  0
  146.5972  133.4903  152.9800 H   0  0  0  0  0  0  0  0  0  0  0  0
  146.5551  131.8510  150.4582 H   0  0  0  0  0  0  0  0  0  0  0  0
  144.1310  131.3338  149.1795 H   0  0  0  0  0  0  0  0  0  0  0  0
  143.7137  134.7812  151.6051 H   0  0  0  0  0  0  0  0  0  0  0  0
  147.8197  136.2958  153.1551 H   0  0  0  0  0  0  0  0  0  0  0  0
  149.8459  136.8556  155.6166 H   0  0  0  0  0  0  0  0  0  0  0  0
  149.2989  136.5438  154.0022 H   0  0  0  0  0  0  0  0  0  0  0  0
  150.3583  138.7721  154.1054 H   0  0  0  0  0  0  0  0  0  0  0  0
  148.6652  138.9314  153.7024 H   0  0  0  0  0  0  0  0  0  0  0  0
  149.9494  139.3469  156.4446 H   0  0  0  0  0  0  0  0  0  0  0  0
  149.2089  142.9354  156.1054 H   0  0  0  0  0  0  0  0  0  0  0  0
  149.0063  141.6410  157.2674 H   0  0  0  0  0  0  0  0  0  0  0  0
  147.7385  139.8250  157.3692 H   0  0  0  0  0  0  0  0  0  0  0  0
  146.9716  139.6140  155.8132 H   0  0  0  0  0  0  0  0  0  0  0  0
  146.6950  137.5773  157.2125 H   0  0  0  0  0  0  0  0  0  0  0  0
  148.4164  137.4241  157.3934 H   0  0  0  0  0  0  0  0  0  0  0  0
  142.5807  133.1671  149.9835 H   0  0  0  0  0  0  0  0  0  0  0  0
  1  2  1  0  0  0  0
  1 21  1  0  0  0  0
  1 22  1  0  0  0  0
  1 23  1  0  0  0  0
  2  3  1  0  0  0  0
  2  9  1  0  0  0  0
  2 24  1  0  0  0  0
  3  4  1  0  0  0  0
  3 25  1  0  0  0  0
  3 26  1  0  0  0  0
  4  8  1  0  0  0  0
  4  5  1  0  0  0  0
  5  6  2  0  0  0  0
  5 27  1  0  0  0  0
  6  7  1  0  0  0  0
  6 28  1  0  0  0  0
  7  8  2  0  0  0  0
  7 42  1  0  0  0  0
  8 29  1  0  0  0  0
  9 10  1  0  0  0  0
  9 30  1  0  0  0  0
 10 11  2  0  0  0  0
 10 12  1  0  0  0  0
 12 20  1  0  0  0  0
 12 13  1  0  0  0  0
 13 14  1  0  0  0  0
 13 31  1  0  0  0  0
 13 32  1  0  0  0  0
 14 15  1  0  0  0  0
 14 33  1  0  0  0  0
 14 34  1  0  0  0  0
 15 16  1  0  0  0  0
 15 19  1  0  0  0  0
 15 35  1  0  0  0  0
 16 17  1  0  0  0  0
 16 18  2  0  0  0  0
 17 36  1  0  0  0  0
 17 37  1  0  0  0  0
 19 20  1  0  0  0  0
 19 38  1  0  0  0  0
 19 39  1  0  0  0  0
 20 40  1  0  0  0  0
 20 41  1  0  0  0  0
M  CHG  1   7   1
M  END
> <s_m_source_file>
AV-unprocessed.smi

> <i_m_source_file_index>
3342

> <i_lp_mmshare_version>
43012

> <i_f3d_flags>
0

> <s_epik_input>
W2NIXTFuW2NIXVtjSF1uMVtDSDJdW0NAQEhdKFtDSDNdKVtOSF1DKD1PKU4yW0NIMl1bQ0gyXVtDSF0oQyg9TylbTkgyXSlbQ0gyXVtDSDJdMg==

> <s_epik_cmdline>
J2VwaWtfcHl0aG9uJywgJy1waCcsICc3LjAnLCAnLXRuJywgJzgnLCAnLW1hJywgJzIwMCcsICctbWV0YWxfYmluZGluZycsICctaW1hZScsICc8aW5maWxlLm1hZT4nLCAnLW9tYWUnLCAnPG91dGZpbGUubWFlPic=

> <r_lp_tautomer_probability>
1

> <r_epik_Ionization_Penalty>
0.254015

> <r_epik_Ionization_Penalty_Charging>
0

> <r_epik_Ionization_Penalty_Neutral>
0.254015

> <r_epik_State_Penalty>
0.245417

> <r_epik_Charging_Adjusted_Penalty>
0.245417

> <i_epik_Tot_Q>
1

> <i_epik_Tot_abs_Q>
1

> <r_epik_Metal_State_Penalty>
0.535589

> <b_epik_Metal_Only>
0

> <s_lp_Force_Field>
OPLS_2005

> <r_lp_Energy>
31.4878

> <b_lp_Chiralities_Consistent>
1

> <s_lp_Variant>
AV-unprocessed.smi:3342-2

> <Gold.Version>
5.8.1

> <Gold.Id.Protein>
6NUR|6NUR_protein|mol2

> <Gold.PLP.Fitness>
42.8048

> <Gold.PLP.PLP>
-26.4264

> <Gold.PLP.part.hbond>
-5.0000

> <Gold.PLP.part.metal>
0.0000

> <Gold.PLP.part.buried>
-1.7657

> <Gold.PLP.part.nonpolar>
-19.4866

> <Gold.PLP.part.repulsive>
0.3014

> <Gold.PLP.ligand.clash>
0.0000

> <Gold.PLP.ligand.torsion>
0.1945

> <Gold.PLP.Chemscore.Hbond>
4.8368

> <Gold.PLP.Chemscore.CHOScore>
0.7265

> <Gold.PLP.Chemscore.Metal>
0.0000

> <Gold.Chemscore.Hbonds>
donor molecule, donor type, donor heavy atom, donor atom, acceptor molecule, acceptor atom, score
      L1  H     7    42       P1 10186  1.78
      L1  H     9    30       P1  7948  1.00
      L1  H    17    36       P1  8028  1.00
      P1  H  7989  7998       L1    18  0.08
      P1  H  8011  8017       L1    18  0.50
      L1  C     5    27       P1 10747  0.78

> <Gold.PLP.Chemscore.Internal.Correction>
0.0775

> <Gold.Rescore>
     Score         DG    S(hbond)    S(metal)    S(lipo)     H(rot)  DE(clash)    DE(int)     intcor
     16.28     -18.26       3.91        0.00      48.69       2.34       0.66       1.32       ----

> <Gold.Chemscore.Fitness>
16.2776

> <Gold.Chemscore.DG>
-18.2557

> <Gold.Chemscore.ZeroCoef>
-5.4800

> <Gold.Chemscore.Hbond>
3.9129

> <Gold.Chemscore.Metal>
0.0000

> <Gold.Chemscore.Lipo>
48.6931

> <Gold.Chemscore.Internal_Hbond>
0.0000

> <Gold.Chemscore.DEClash>
0.6564

> <Gold.Chemscore.DEInternal>
1.3217

> <Gold.Chemscore.Rot>
2.3400

> <Gold.Chemscore.Internal.Correction>
   9.000000E+99

> <Gold.Chemscore.Hbonds>
donor molecule, donor type, donor heavy atom, donor atom, acceptor molecule, acceptor atom, score
      L1  H     7    42       P1 10186  0.82
      L1  H     9    30       P1  7948  0.95
      L1  H    17    36       P1  8028  1.00
      P1  H  7989  7998       L1    18  0.06
      P1  H  8011  8017       L1    18  0.51

> <Gold.Chemscore.Hbond.Weighted>
-13.0690

> <Gold.Chemscore.Metal.Weighted>
-0.0000

> <Gold.Chemscore.Lipo.Weighted>
-5.6971

> <Gold.Chemscore.Internal_Hbond.Weighted>
0.0000

> <Gold.Chemscore.DEClash.Weighted>
0.6564

> <Gold.Chemscore.DEInternal.Weighted>
1.3217

> <Gold.Chemscore.Rot.Weighted>
5.9904

> <Gold.Chemscore.Internal.Correction.Weighted>
   9.000000E+99

> <Gold.Protein.RotatedTorsions>
[ 6907 6896 6895 6894 ] final   68.05 input  -60.11 | X-H torsion
[ 7974 7965 7964 7962 ] final   82.77 input  175.53 | X-H torsion
[ 8008 7997 7996 7995 ] final    4.85 input   59.86 | X-H torsion
[ 10167 10162 10161 10158 ] final -157.16 input  -65.29 | X-H torsion
[ 10718 10713 10712 10709 ] final  -97.47 input   66.30 | X-H torsion
[ 10763 10752 10751 10750 ] final -167.02 input  -60.55 | X-H torsion
[ 11005 11000 10999 10996 ] final  -81.60 input  -57.11 | X-H torsion

> <Gold.Protein.ActiveResidues>
 VAL166  LYS551  ARG553  GLY616  TRP617  ASP618  TYR619  PRO620  LYS621  CYS622 
 ASP623  PHE694  ASN695  SER759  ASP760  ASP761  ALA762  ILE779  LEU786  VAL792 
 PHE793  MET794  SER795  GLU796  ALA797  LYS798  CYS799  TRP800  GLU811  SER814 

> <Gold.Protein.RotatedAtoms>
  152.4594  134.5218  159.9784 H   0  0  0  0  0  0  0  0  0  0  0  0  # atno 6907 bound_to 6896
  151.5271  133.3450  159.2919 H   0  0  0  0  0  0  0  0  0  0  0  0  # atno 6908 bound_to 6896
  150.8551  134.7917  159.7102 H   0  0  0  0  0  0  0  0  0  0  0  0  # atno 6909 bound_to 6896
  145.6207  139.2385  143.2140 H   0  0  0  0  0  0  0  0  0  0  0  0  # atno 7974 bound_to 7965
  154.7210  140.2712  155.6541 H   0  0  0  0  0  0  0  0  0  0  0  0  # atno 8008 bound_to 7997
  156.2823  140.2734  156.1806 H   0  0  0  0  0  0  0  0  0  0  0  0  # atno 8009 bound_to 7997
  155.0507  140.0371  157.2532 H   0  0  0  0  0  0  0  0  0  0  0  0  # atno 8010 bound_to 7997
  139.6792  143.9610  152.2327 H   0  0  0  0  0  0  0  0  0  0  0  0  # atno 10167 bound_to 10162
  156.0084  130.5196  150.6379 H   0  0  0  0  0  0  0  0  0  0  0  0  # atno 10718 bound_to 10713
  154.6774  135.2949  154.9659 H   0  0  0  0  0  0  0  0  0  0  0  0  # atno 10763 bound_to 10752
  154.0666  135.6624  153.4822 H   0  0  0  0  0  0  0  0  0  0  0  0  # atno 10764 bound_to 10752
  153.0525  135.5165  154.7800 H   0  0  0  0  0  0  0  0  0  0  0  0  # atno 10765 bound_to 10752
  141.1666  133.7204  156.8446 H   0  0  0  0  0  0  0  0  0  0  0  0  # atno 11005 bound_to 11000
  146.1433  140.7027  142.9356 LP  0  0  0  0  0  0  0  0  0  0  0  0  # atno 17320 bound_to 7965
  144.7232  140.4442  143.6992 LP  0  0  0  0  0  0  0  0  0  0  0  0  # atno 17321 bound_to 7965
  139.9395  144.6690  150.8280 LP  0  0  0  0  0  0  0  0  0  0  0  0  # atno 17342 bound_to 10162
  140.7646  143.3254  151.2528 LP  0  0  0  0  0  0  0  0  0  0  0  0  # atno 17343 bound_to 10162
  157.4165  131.0831  151.1172 LP  0  0  0  0  0  0  0  0  0  0  0  0  # atno 17370 bound_to 10713
  157.1787  130.6300  149.5664 LP  0  0  0  0  0  0  0  0  0  0  0  0  # atno 17371 bound_to 10713
  140.1959  134.8932  157.3113 LP  0  0  0  0  0  0  0  0  0  0  0  0  # atno 17394 bound_to 11000
  140.2240  134.3989  155.7552 LP  0  0  0  0  0  0  0  0  0  0  0  0  # atno 17395 bound_to 11000

$$$$
