AV-unprocessed.smi:83|AV-procd|sdf|802|dock8
  -GOLD-   2262017193D 1   1.00000     0.00000
 Structure written by MMmdl.
 56 59  0  0  0  0  0  0  0  0  1 V2000
  144.8974  137.3874  162.4271 C   0  0  0  0  0  0  0  0  0  0  0  0
  146.3721  136.9822  162.4253 C   0  0  0  0  0  0  0  0  0  0  0  0
  147.2192  137.8155  162.7456 O   0  0  0  0  0  0  0  0  0  0  0  0
  146.6930  135.7210  162.0717 N   0  0  0  0  0  0  0  0  0  0  0  0
  145.7121  134.7076  161.6925 C   0  0  0  0  0  0  0  0  0  0  0  0
  146.5191  133.4283  161.4500 C   0  0  0  0  0  0  0  0  0  0  0  0
  147.9163  133.9240  161.0788 C   0  0  1  0  0  0  0  0  0  0  0  0
  147.9997  134.1893  159.5553 C   0  0  0  0  0  0  0  0  0  0  0  0
  147.5886  135.5362  159.1551 N   0  0  0  0  0  0  0  0  0  0  0  0
  146.2690  135.6711  158.5402 C   0  0  0  0  0  0  0  0  0  0  0  0
  148.4956  136.5484  158.9998 C   0  0  0  0  0  0  0  0  0  0  0  0
  149.7290  136.3905  159.5544 N   0  0  0  0  0  0  0  0  0  0  0  0
  150.6493  137.3546  159.4818 C   0  0  0  0  0  0  0  0  0  0  0  0
  150.5541  138.5533  158.9094 N   0  0  0  0  0  0  0  0  0  0  0  0
  149.3321  138.7260  158.3335 C   0  0  0  0  0  0  0  0  0  0  0  0
  148.2578  137.7864  158.3200 C   0  0  0  0  0  0  0  0  0  0  0  0
  147.1878  138.3368  157.6199 N   0  0  0  0  0  0  0  0  0  0  0  0
  147.5900  139.5260  157.2700 C   0  0  0  0  0  0  0  0  0  0  0  0
  148.8665  139.8437  157.6637 N   0  0  0  0  0  0  0  0  0  0  0  0
  149.5555  141.0985  157.4201 C   0  0  0  0  0  0  0  0  0  0  0  0
  150.7156  141.3269  158.4087 C   0  0  1  0  0  0  0  0  0  0  0  0
  151.8959  140.7530  157.8806 O   0  0  0  0  0  0  0  0  0  0  0  0
  150.9688  142.8214  158.6771 C   0  0  2  0  0  0  0  0  0  0  0  0
  151.4714  143.6080  157.4647 C   0  0  0  0  0  0  0  0  0  0  0  0
  152.2390  144.7683  158.0792 C   0  0  0  0  0  0  0  0  0  0  0  0
  152.4375  144.3527  159.5390 C   0  0  0  0  0  0  0  0  0  0  0  0
  152.0401  142.9901  159.5927 O   0  0  0  0  0  0  0  0  0  0  0  0
  148.0445  135.1781  161.9580 C   0  0  0  0  0  0  0  0  0  0  0  0
  144.4470  137.2128  161.4497 H   0  0  0  0  0  0  0  0  0  0  0  0
  144.7880  138.4459  162.6650 H   0  0  0  0  0  0  0  0  0  0  0  0
  144.3436  136.8188  163.1734 H   0  0  0  0  0  0  0  0  0  0  0  0
  144.9561  134.5635  162.4655 H   0  0  0  0  0  0  0  0  0  0  0  0
  145.2077  135.0232  160.7778 H   0  0  0  0  0  0  0  0  0  0  0  0
  146.5732  132.8544  162.3762 H   0  0  0  0  0  0  0  0  0  0  0  0
  146.0708  132.7839  160.6929 H   0  0  0  0  0  0  0  0  0  0  0  0
  148.6708  133.1856  161.3531 H   0  0  0  0  0  0  0  0  0  0  0  0
  149.0410  134.0763  159.2516 H   0  0  0  0  0  0  0  0  0  0  0  0
  147.4871  133.4144  158.9963 H   0  0  0  0  0  0  0  0  0  0  0  0
  145.7817  136.5914  158.8643 H   0  0  0  0  0  0  0  0  0  0  0  0
  145.6198  134.8404  158.8178 H   0  0  0  0  0  0  0  0  0  0  0  0
  146.3498  135.6825  157.4527 H   0  0  0  0  0  0  0  0  0  0  0  0
  151.5946  137.1361  159.9564 H   0  0  0  0  0  0  0  0  0  0  0  0
  146.9604  140.2093  156.7186 H   0  0  0  0  0  0  0  0  0  0  0  0
  149.9153  141.1124  156.3903 H   0  0  0  0  0  0  0  0  0  0  0  0
  148.8242  141.9033  157.5036 H   0  0  0  0  0  0  0  0  0  0  0  0
  150.4895  140.8260  159.3511 H   0  0  0  0  0  0  0  0  0  0  0  0
  151.7362  139.8357  157.7185 H   0  0  0  0  0  0  0  0  0  0  0  0
  150.0744  143.2958  159.0863 H   0  0  0  0  0  0  0  0  0  0  0  0
  152.1522  142.9946  156.8729 H   0  0  0  0  0  0  0  0  0  0  0  0
  150.6617  143.9350  156.8118 H   0  0  0  0  0  0  0  0  0  0  0  0
  153.1909  144.9177  157.5686 H   0  0  0  0  0  0  0  0  0  0  0  0
  151.6748  145.6996  158.0178 H   0  0  0  0  0  0  0  0  0  0  0  0
  153.4679  144.4744  159.8735 H   0  0  0  0  0  0  0  0  0  0  0  0
  151.7941  144.9400  160.1959 H   0  0  0  0  0  0  0  0  0  0  0  0
  148.7690  135.8928  161.5760 H   0  0  0  0  0  0  0  0  0  0  0  0
  148.3777  134.8968  162.9580 H   0  0  0  0  0  0  0  0  0  0  0  0
  1  2  1  0  0  0  0
  1 29  1  0  0  0  0
  1 30  1  0  0  0  0
  1 31  1  0  0  0  0
  2  3  2  0  0  0  0
  2  4  1  0  0  0  0
  4 28  1  0  0  0  0
  4  5  1  0  0  0  0
  5  6  1  0  0  0  0
  5 32  1  0  0  0  0
  5 33  1  0  0  0  0
  6  7  1  0  0  0  0
  6 34  1  0  0  0  0
  6 35  1  0  0  0  0
  7  8  1  0  0  0  0
  7 28  1  0  0  0  0
  7 36  1  0  0  0  0
  8  9  1  0  0  0  0
  8 37  1  0  0  0  0
  8 38  1  0  0  0  0
  9 10  1  0  0  0  0
  9 11  1  0  0  0  0
 10 39  1  0  0  0  0
 10 40  1  0  0  0  0
 10 41  1  0  0  0  0
 11 16  1  0  0  0  0
 11 12  2  0  0  0  0
 12 13  1  0  0  0  0
 13 14  2  0  0  0  0
 13 42  1  0  0  0  0
 14 15  1  0  0  0  0
 15 19  1  0  0  0  0
 15 16  2  0  0  0  0
 16 17  1  0  0  0  0
 17 18  2  0  0  0  0
 18 19  1  0  0  0  0
 18 43  1  0  0  0  0
 19 20  1  0  0  0  0
 20 21  1  0  0  0  0
 20 44  1  0  0  0  0
 20 45  1  0  0  0  0
 21 22  1  0  0  0  0
 21 23  1  0  0  0  0
 21 46  1  0  0  0  0
 22 47  1  0  0  0  0
 23 27  1  0  0  0  0
 23 24  1  0  0  0  0
 23 48  1  0  0  0  0
 24 25  1  0  0  0  0
 24 49  1  0  0  0  0
 24 50  1  0  0  0  0
 25 26  1  0  0  0  0
 25 51  1  0  0  0  0
 25 52  1  0  0  0  0
 26 27  1  0  0  0  0
 26 53  1  0  0  0  0
 26 54  1  0  0  0  0
 28 55  1  0  0  0  0
 28 56  1  0  0  0  0
M  END
> <s_m_source_file>
AV-unprocessed.smi

> <i_m_source_file_index>
83

> <i_lp_mmshare_version>
43012

> <i_f3d_flags>
0

> <s_epik_input>
W0NIM11DKD1PKU4xW0NIMl1bQ0gyXVtDQEhdKFtDSDJdMSlbQ0gyXU4oW0NIM10pYyhuW2NIXW4yKWMoYzIzKW5bY0hdbjNbQ0gyXVtDQEhdKFtPSF0pW0NAQEhdNFtDSDJdW0NIMl1bQ0gyXU80

> <s_epik_cmdline>
J2VwaWtfcHl0aG9uJywgJy1waCcsICc3LjAnLCAnLXRuJywgJzgnLCAnLW1hJywgJzIwMCcsICctbWV0YWxfYmluZGluZycsICctaW1hZScsICc8aW5maWxlLm1hZT4nLCAnLW9tYWUnLCAnPG91dGZpbGUubWFlPic=

> <r_lp_tautomer_probability>
1

> <r_epik_Ionization_Penalty>
0.00109752

> <r_epik_Ionization_Penalty_Charging>
0

> <r_epik_Ionization_Penalty_Neutral>
0.00109752

> <r_epik_State_Penalty>
0.000634803

> <r_epik_Charging_Adjusted_Penalty>
0.000634803

> <i_epik_Tot_Q>
0

> <i_epik_Tot_abs_Q>
0

> <r_epik_Metal_State_Penalty>
-0

> <b_epik_Metal_Only>
0

> <s_lp_Force_Field>
OPLS_2005

> <r_lp_Energy>
53.2546

> <b_lp_Chiralities_Consistent>
1

> <s_lp_Variant>
AV-unprocessed.smi:83-3

> <Gold.Version>
5.8.1

> <Gold.Id.Protein>
6NUR|6NUR_protein|mol2

> <Gold.PLP.Fitness>
45.2835

> <Gold.PLP.PLP>
-42.6998

> <Gold.PLP.part.hbond>
-3.0353

> <Gold.PLP.part.metal>
0.0000

> <Gold.PLP.part.buried>
-6.9454

> <Gold.PLP.part.nonpolar>
-31.8572

> <Gold.PLP.part.repulsive>
0.0000

> <Gold.PLP.ligand.clash>
0.0000

> <Gold.PLP.ligand.torsion>
1.4166

> <Gold.PLP.Chemscore.Hbond>
1.6591

> <Gold.PLP.Chemscore.CHOScore>
0.0000

> <Gold.PLP.Chemscore.Metal>
0.0000

> <Gold.Chemscore.Hbonds>
donor molecule, donor type, donor heavy atom, donor atom, acceptor molecule, acceptor atom, score
      P1  H  6896  6909       L1    12  1.00
      P1  H  6931  6943       L1     3  0.42
      P1  H  6934  6947       L1     3  0.21

> <Gold.PLP.Chemscore.Internal.Correction>
0.4395

> <Gold.Rescore>
     Score         DG    S(hbond)    S(metal)    S(lipo)     H(rot)  DE(clash)    DE(int)     intcor
     10.65     -15.36       1.99        0.00      84.92       2.62       0.05       4.67       ----

> <Gold.Chemscore.Fitness>
10.6457

> <Gold.Chemscore.DG>
-15.3632

> <Gold.Chemscore.ZeroCoef>
-5.4800

> <Gold.Chemscore.Hbond>
1.9888

> <Gold.Chemscore.Metal>
0.0000

> <Gold.Chemscore.Lipo>
84.9184

> <Gold.Chemscore.Internal_Hbond>
0.0000

> <Gold.Chemscore.DEClash>
0.0457

> <Gold.Chemscore.DEInternal>
4.6718

> <Gold.Chemscore.Rot>
2.6152

> <Gold.Chemscore.Internal.Correction>
   9.000000E+99

> <Gold.Chemscore.Hbonds>
donor molecule, donor type, donor heavy atom, donor atom, acceptor molecule, acceptor atom, score
      P1  H  6896  6909       L1    12  0.49
      P1  H  6931  6943       L1     3  0.40
      P1  H  6934  6947       L1     3  0.05

> <Gold.Chemscore.Hbond.Weighted>
-6.6426

> <Gold.Chemscore.Metal.Weighted>
-0.0000

> <Gold.Chemscore.Lipo.Weighted>
-9.9354

> <Gold.Chemscore.Internal_Hbond.Weighted>
0.0000

> <Gold.Chemscore.DEClash.Weighted>
0.0457

> <Gold.Chemscore.DEInternal.Weighted>
4.6718

> <Gold.Chemscore.Rot.Weighted>
6.6949

> <Gold.Chemscore.Internal.Correction.Weighted>
   9.000000E+99

> <Gold.Protein.RotatedTorsions>
[ 6907 6896 6895 6894 ] final   59.51 input  -60.11 | X-H torsion
[ 7974 7965 7964 7962 ] final   79.94 input  175.53 | X-H torsion
[ 8008 7997 7996 7995 ] final   71.44 input   59.86 | X-H torsion
[ 10167 10162 10161 10158 ] final -115.14 input  -65.29 | X-H torsion
[ 10718 10713 10712 10709 ] final  112.23 input   66.30 | X-H torsion
[ 10763 10752 10751 10750 ] final  -33.59 input  -60.55 | X-H torsion
[ 11005 11000 10999 10996 ] final  100.72 input  -57.11 | X-H torsion

> <Gold.Protein.ActiveResidues>
 VAL166  LYS551  ARG553  GLY616  TRP617  ASP618  TYR619  PRO620  LYS621  CYS622 
 ASP623  PHE694  ASN695  SER759  ASP760  ASP761  ALA762  ILE779  LEU786  VAL792 
 PHE793  MET794  SER795  GLU796  ALA797  LYS798  CYS799  TRP800  GLU811  SER814 

> <Gold.Protein.RotatedAtoms>
  152.3921  134.6425  160.0103 H   0  0  0  0  0  0  0  0  0  0  0  0  # atno 6907 bound_to 6896
  151.6656  133.3310  159.3192 H   0  0  0  0  0  0  0  0  0  0  0  0  # atno 6908 bound_to 6896
  150.7835  134.6844  159.6506 H   0  0  0  0  0  0  0  0  0  0  0  0  # atno 6909 bound_to 6896
  145.6576  139.2463  143.1941 H   0  0  0  0  0  0  0  0  0  0  0  0  # atno 7974 bound_to 7965
  155.7539  140.3488  155.5164 H   0  0  0  0  0  0  0  0  0  0  0  0  # atno 8008 bound_to 7997
  155.8978  140.1029  157.1393 H   0  0  0  0  0  0  0  0  0  0  0  0  # atno 8009 bound_to 7997
  154.4040  140.1292  156.4385 H   0  0  0  0  0  0  0  0  0  0  0  0  # atno 8010 bound_to 7997
  140.0933  143.4680  152.1857 H   0  0  0  0  0  0  0  0  0  0  0  0  # atno 10167 bound_to 10162
  157.6403  131.0964  150.6864 H   0  0  0  0  0  0  0  0  0  0  0  0  # atno 10718 bound_to 10713
  153.8327  135.6864  153.4812 H   0  0  0  0  0  0  0  0  0  0  0  0  # atno 10763 bound_to 10752
  153.1501  135.4621  154.9622 H   0  0  0  0  0  0  0  0  0  0  0  0  # atno 10764 bound_to 10752
  154.7879  135.3291  154.7789 H   0  0  0  0  0  0  0  0  0  0  0  0  # atno 10765 bound_to 10752
  139.8771  134.9152  156.4798 H   0  0  0  0  0  0  0  0  0  0  0  0  # atno 11005 bound_to 11000
  146.1152  140.7379  142.9484 LP  0  0  0  0  0  0  0  0  0  0  0  0  # atno 17320 bound_to 7965
  144.7100  140.4003  143.7088 LP  0  0  0  0  0  0  0  0  0  0  0  0  # atno 17321 bound_to 7965
  139.5712  144.7464  151.3885 LP  0  0  0  0  0  0  0  0  0  0  0  0  # atno 17342 bound_to 10162
  140.7017  143.7615  150.7414 LP  0  0  0  0  0  0  0  0  0  0  0  0  # atno 17343 bound_to 10162
  156.7189  130.4674  149.5528 LP  0  0  0  0  0  0  0  0  0  0  0  0  # atno 17370 bound_to 10713
  156.1679  130.6417  151.0800 LP  0  0  0  0  0  0  0  0  0  0  0  0  # atno 17371 bound_to 10713
  140.8735  133.7970  155.9390 LP  0  0  0  0  0  0  0  0  0  0  0  0  # atno 17394 bound_to 11000
  140.8928  134.2475  157.5085 LP  0  0  0  0  0  0  0  0  0  0  0  0  # atno 17395 bound_to 11000

$$$$
