AV-unprocessed.smi:2953|AV-procd|sdf|11296|dock10
  -GOLD-   2272016193D 1   1.00000     0.00000
 Structure written by MMmdl.
 46 48  0  0  0  0  0  0  0  0  2 V2000
  153.3253  141.4114  160.9199 C   0  0  0  0  0  0  0  0  0  0  0  0
  152.7107  142.5329  160.1043 C   0  0  0  0  0  0  0  0  0  0  0  0
  152.7564  143.8501  160.6073 C   0  0  0  0  0  0  0  0  0  0  0  0
  152.1937  144.9105  159.8752 C   0  0  0  0  0  0  0  0  0  0  0  0
  151.5804  144.6555  158.6364 C   0  0  0  0  0  0  0  0  0  0  0  0
  151.5302  143.3429  158.1301 C   0  0  0  0  0  0  0  0  0  0  0  0
  152.0954  142.2637  158.8579 C   0  0  0  0  0  0  0  0  0  0  0  0
  152.0768  140.9551  158.4173 O   0  0  0  0  0  0  0  0  0  0  0  0
  151.0008  140.5418  157.5843 C   0  0  0  0  0  0  0  0  0  0  0  0
  151.3998  140.6941  156.1103 C   0  0  0  0  0  0  0  0  0  0  0  0
  150.5624  139.8865  155.2097 N   0  0  0  0  0  0  0  0  0  0  0  0
  150.7400  138.6276  154.7089 C   0  0  0  0  0  0  0  0  0  0  0  0
  151.9037  137.7089  154.9482 C   0  0  1  0  0  0  0  0  0  0  0  0
  153.2226  138.3611  154.5069 C   0  0  0  0  0  0  0  0  0  0  0  0
  152.0051  137.3246  156.3509 N   0  0  0  0  0  0  0  0  0  0  0  0
  151.8493  136.0768  156.8104 C   0  0  0  0  0  0  0  0  0  0  0  0
  151.6038  135.1195  156.0815 O   0  0  0  0  0  0  0  0  0  0  0  0
  149.6735  138.3669  153.8984 N   0  3  0  0  0  0  0  0  0  0  0  0
  148.8004  139.4542  153.8951 C   0  0  0  0  0  0  0  0  0  0  0  0
  147.5917  139.6508  153.2344 C   0  0  0  0  0  0  0  0  0  0  0  0
  146.9497  140.8888  153.4452 C   0  0  0  0  0  0  0  0  0  0  0  0
  147.5103  141.8726  154.2855 C   0  0  0  0  0  0  0  0  0  0  0  0
  148.7361  141.6605  154.9505 C   0  0  0  0  0  0  0  0  0  0  0  0
  149.3649  140.4342  154.7355 C   0  0  0  0  0  0  0  0  0  0  0  0
  154.0620  141.7974  161.6252 H   0  0  0  0  0  0  0  0  0  0  0  0
  153.8282  140.6859  160.2799 H   0  0  0  0  0  0  0  0  0  0  0  0
  152.5491  140.8989  161.4871 H   0  0  0  0  0  0  0  0  0  0  0  0
  153.2240  144.0527  161.5597 H   0  0  0  0  0  0  0  0  0  0  0  0
  152.2320  145.9175  160.2640 H   0  0  0  0  0  0  0  0  0  0  0  0
  151.1462  145.4680  158.0727 H   0  0  0  0  0  0  0  0  0  0  0  0
  151.0461  143.1922  157.1773 H   0  0  0  0  0  0  0  0  0  0  0  0
  150.7401  139.5031  157.7932 H   0  0  0  0  0  0  0  0  0  0  0  0
  150.1193  141.1550  157.7773 H   0  0  0  0  0  0  0  0  0  0  0  0
  151.3404  141.7375  155.7987 H   0  0  0  0  0  0  0  0  0  0  0  0
  152.4383  140.3966  155.9735 H   0  0  0  0  0  0  0  0  0  0  0  0
  151.7672  136.8079  154.3484 H   0  0  0  0  0  0  0  0  0  0  0  0
  153.1767  138.6690  153.4630 H   0  0  0  0  0  0  0  0  0  0  0  0
  154.0572  137.6667  154.6096 H   0  0  0  0  0  0  0  0  0  0  0  0
  153.4543  139.2459  155.1012 H   0  0  0  0  0  0  0  0  0  0  0  0
  152.2090  138.0550  157.0178 H   0  0  0  0  0  0  0  0  0  0  0  0
  151.9693  136.0208  157.9028 H   0  0  0  0  0  0  0  0  0  0  0  0
  147.1607  138.8987  152.5899 H   0  0  0  0  0  0  0  0  0  0  0  0
  146.0090  141.0882  152.9522 H   0  0  0  0  0  0  0  0  0  0  0  0
  146.9902  142.8099  154.4223 H   0  0  0  0  0  0  0  0  0  0  0  0
  149.1563  142.4203  155.5926 H   0  0  0  0  0  0  0  0  0  0  0  0
  149.5550  137.5028  153.3857 H   0  0  0  0  0  0  0  0  0  0  0  0
  1  2  1  0  0  0  0
  1 25  1  0  0  0  0
  1 26  1  0  0  0  0
  1 27  1  0  0  0  0
  2  7  1  0  0  0  0
  2  3  2  0  0  0  0
  3  4  1  0  0  0  0
  3 28  1  0  0  0  0
  4  5  2  0  0  0  0
  4 29  1  0  0  0  0
  5  6  1  0  0  0  0
  5 30  1  0  0  0  0
  6  7  2  0  0  0  0
  6 31  1  0  0  0  0
  7  8  1  0  0  0  0
  8  9  1  0  0  0  0
  9 10  1  0  0  0  0
  9 32  1  0  0  0  0
  9 33  1  0  0  0  0
 10 11  1  0  0  0  0
 10 34  1  0  0  0  0
 10 35  1  0  0  0  0
 11 24  1  0  0  0  0
 11 12  1  0  0  0  0
 12 13  1  0  0  0  0
 12 18  2  0  0  0  0
 13 14  1  0  0  0  0
 13 15  1  0  0  0  0
 13 36  1  0  0  0  0
 14 37  1  0  0  0  0
 14 38  1  0  0  0  0
 14 39  1  0  0  0  0
 15 16  1  0  0  0  0
 15 40  1  0  0  0  0
 16 17  2  0  0  0  0
 16 41  1  0  0  0  0
 18 19  1  0  0  0  0
 18 46  1  0  0  0  0
 19 24  2  0  0  0  0
 19 20  1  0  0  0  0
 20 21  2  0  0  0  0
 20 42  1  0  0  0  0
 21 22  1  0  0  0  0
 21 43  1  0  0  0  0
 22 23  2  0  0  0  0
 22 44  1  0  0  0  0
 23 24  1  0  0  0  0
 23 45  1  0  0  0  0
M  CHG  1  18   1
M  END
> <s_m_source_file>
AV-unprocessed.smi

> <i_m_source_file_index>
2953

> <i_lp_mmshare_version>
43012

> <i_f3d_flags>
0

> <s_epik_input>
W0NIM11jMVtjSF1bY0hdW2NIXVtjSF1jMU9bQ0gyXVtDSDJdbihjKG4yKVtDQEhdKFtDSDNdKVtOSF1bQ0hdPU8pYyhjMjMpW2NIXVtjSF1bY0hdW2NIXTM=

> <s_epik_cmdline>
J2VwaWtfcHl0aG9uJywgJy1waCcsICc3LjAnLCAnLXRuJywgJzgnLCAnLW1hJywgJzIwMCcsICctbWV0YWxfYmluZGluZycsICctaW1hZScsICc8aW5maWxlLm1hZT4nLCAnLW9tYWUnLCAnPG91dGZpbGUubWFlPic=

> <r_lp_tautomer_probability>
1

> <r_epik_Ionization_Penalty>
1.14644

> <r_epik_Ionization_Penalty_Charging>
1.14644

> <r_epik_Ionization_Penalty_Neutral>
5.5802e-08

> <r_epik_State_Penalty>
1.20743

> <r_epik_Charging_Adjusted_Penalty>
2.35387

> <i_epik_Tot_Q>
1

> <i_epik_Tot_abs_Q>
1

> <r_epik_Metal_State_Penalty>
1.28856

> <b_epik_Metal_Only>
0

> <s_lp_Force_Field>
OPLS_2005

> <r_lp_Energy>
17.243

> <b_lp_Chiralities_Consistent>
1

> <s_lp_Variant>
AV-unprocessed.smi:2953-4

> <Gold.Version>
5.8.1

> <Gold.Id.Protein>
6NUR|6NUR_protein|mol2

> <Gold.PLP.Fitness>
62.9030

> <Gold.PLP.PLP>
-55.9808

> <Gold.PLP.part.hbond>
-2.7212

> <Gold.PLP.part.metal>
0.0000

> <Gold.PLP.part.buried>
-0.4269

> <Gold.PLP.part.nonpolar>
-52.4583

> <Gold.PLP.part.repulsive>
0.1689

> <Gold.PLP.ligand.clash>
0.0000

> <Gold.PLP.ligand.torsion>
1.0749

> <Gold.PLP.Chemscore.Hbond>
3.0000

> <Gold.PLP.Chemscore.CHOScore>
0.0000

> <Gold.PLP.Chemscore.Metal>
0.0000

> <Gold.Chemscore.Hbonds>
donor molecule, donor type, donor heavy atom, donor atom, acceptor molecule, acceptor atom, score
      L1  H    18    46       P1  7948  1.95
      P1  H 10752 10765       L1    17  0.70

> <Gold.PLP.Chemscore.Internal.Correction>
0.0720

> <Gold.Rescore>
     Score         DG    S(hbond)    S(metal)    S(lipo)     H(rot)  DE(clash)    DE(int)     intcor
     19.26     -21.01       1.15        0.00     150.78       2.32       0.52       1.23       ----

> <Gold.Chemscore.Fitness>
19.2649

> <Gold.Chemscore.DG>
-21.0140

> <Gold.Chemscore.ZeroCoef>
-5.4800

> <Gold.Chemscore.Hbond>
1.1489

> <Gold.Chemscore.Metal>
0.0000

> <Gold.Chemscore.Lipo>
150.7843

> <Gold.Chemscore.Internal_Hbond>
0.0000

> <Gold.Chemscore.DEClash>
0.5218

> <Gold.Chemscore.DEInternal>
1.2273

> <Gold.Chemscore.Rot>
2.3223

> <Gold.Chemscore.Internal.Correction>
   9.000000E+99

> <Gold.Chemscore.Hbonds>
donor molecule, donor type, donor heavy atom, donor atom, acceptor molecule, acceptor atom, score
      L1  H    18    46       P1  7948  0.80
      P1  H 10752 10765       L1    17  0.08

> <Gold.Chemscore.Hbond.Weighted>
-3.8373

> <Gold.Chemscore.Metal.Weighted>
-0.0000

> <Gold.Chemscore.Lipo.Weighted>
-17.6418

> <Gold.Chemscore.Internal_Hbond.Weighted>
0.0000

> <Gold.Chemscore.DEClash.Weighted>
0.5218

> <Gold.Chemscore.DEInternal.Weighted>
1.2273

> <Gold.Chemscore.Rot.Weighted>
5.9450

> <Gold.Chemscore.Internal.Correction.Weighted>
   9.000000E+99

> <Gold.Protein.RotatedTorsions>
[ 6907 6896 6895 6894 ] final   26.37 input  -60.11 | X-H torsion
[ 7974 7965 7964 7962 ] final   15.94 input  175.53 | X-H torsion
[ 8008 7997 7996 7995 ] final  118.70 input   59.86 | X-H torsion
[ 10167 10162 10161 10158 ] final  156.79 input  -65.29 | X-H torsion
[ 10718 10713 10712 10709 ] final -140.52 input   66.30 | X-H torsion
[ 10763 10752 10751 10750 ] final -165.48 input  -60.55 | X-H torsion
[ 11005 11000 10999 10996 ] final  157.39 input  -57.11 | X-H torsion

> <Gold.Protein.ActiveResidues>
 VAL166  LYS551  ARG553  GLY616  TRP617  ASP618  TYR619  PRO620  LYS621  CYS622 
 ASP623  PHE694  ASN695  SER759  ASP760  ASP761  ALA762  ILE779  LEU786  VAL792 
 PHE793  MET794  SER795  GLU796  ALA797  LYS798  CYS799  TRP800  GLU811  SER814 

> <Gold.Protein.RotatedAtoms>
  151.9864  135.0002  160.0559 H   0  0  0  0  0  0  0  0  0  0  0  0  # atno 6907 bound_to 6896
  152.1649  133.4601  159.4888 H   0  0  0  0  0  0  0  0  0  0  0  0  # atno 6908 bound_to 6896
  150.6893  134.1943  159.4340 H   0  0  0  0  0  0  0  0  0  0  0  0  # atno 6909 bound_to 6896
  146.2264  139.8821  142.8569 H   0  0  0  0  0  0  0  0  0  0  0  0  # atno 7974 bound_to 7965
  156.2559  140.2869  156.0875 H   0  0  0  0  0  0  0  0  0  0  0  0  # atno 8008 bound_to 7997
  155.1499  140.0397  157.2836 H   0  0  0  0  0  0  0  0  0  0  0  0  # atno 8009 bound_to 7997
  154.6468  140.2535  155.7265 H   0  0  0  0  0  0  0  0  0  0  0  0  # atno 8010 bound_to 7997
  139.4822  144.4976  151.8216 H   0  0  0  0  0  0  0  0  0  0  0  0  # atno 10167 bound_to 10162
  156.3233  130.7546  151.1648 H   0  0  0  0  0  0  0  0  0  0  0  0  # atno 10718 bound_to 10713
  154.6927  135.2973  154.9456 H   0  0  0  0  0  0  0  0  0  0  0  0  # atno 10763 bound_to 10752
  154.0414  135.6657  153.4794 H   0  0  0  0  0  0  0  0  0  0  0  0  # atno 10764 bound_to 10752
  153.0624  135.5108  154.8028 H   0  0  0  0  0  0  0  0  0  0  0  0  # atno 10765 bound_to 10752
  140.1765  134.8506  157.2752 H   0  0  0  0  0  0  0  0  0  0  0  0  # atno 11005 bound_to 11000
  145.2502  141.0041  143.3885 LP  0  0  0  0  0  0  0  0  0  0  0  0  # atno 17320 bound_to 7965
  144.9381  139.4221  143.6462 LP  0  0  0  0  0  0  0  0  0  0  0  0  # atno 17321 bound_to 7965
  140.4466  144.1912  150.5894 LP  0  0  0  0  0  0  0  0  0  0  0  0  # atno 17342 bound_to 10162
  140.4628  143.2442  151.9197 LP  0  0  0  0  0  0  0  0  0  0  0  0  # atno 17343 bound_to 10162
  157.7416  131.0501  150.5085 LP  0  0  0  0  0  0  0  0  0  0  0  0  # atno 17370 bound_to 10713
  156.5240  130.4169  149.6236 LP  0  0  0  0  0  0  0  0  0  0  0  0  # atno 17371 bound_to 10713
  140.2317  134.3902  155.7519 LP  0  0  0  0  0  0  0  0  0  0  0  0  # atno 17394 bound_to 11000
  141.2220  133.7218  156.8650 LP  0  0  0  0  0  0  0  0  0  0  0  0  # atno 17395 bound_to 11000

$$$$
