AV-unprocessed.smi:2330|AV-procd|sdf|9310|dock9
  -GOLD-   2272012533D 1   1.00000     0.00000
 Structure written by MMmdl.
 42 43  0  0  0  0  0  0  0  0  1 V2000
  150.6816  142.0914  156.1801 C   0  0  0  0  0  0  0  0  0  0  0  0
  149.9980  141.0980  155.2296 C   0  0  2  0  0  0  0  0  0  0  0  0
  148.4797  141.0295  155.4818 C   0  0  0  0  0  0  0  0  0  0  0  0
  147.7913  140.0337  154.5346 C   0  0  0  0  0  0  0  0  0  0  0  0
  148.4209  138.6292  154.6352 C   0  0  1  0  0  0  0  0  0  0  0  0
  147.8050  137.7231  153.6705 N   0  0  0  0  0  0  0  0  0  0  0  0
  146.4929  137.4637  153.5849 C   0  0  0  0  0  0  0  0  0  0  0  0
  145.6435  137.9362  154.3406 O   0  0  0  0  0  0  0  0  0  0  0  0
  146.2137  136.6484  152.5590 N   0  0  0  0  0  0  0  0  0  0  0  0
  144.8702  136.2509  152.1462 C   0  0  0  0  0  0  0  0  0  0  0  0
  144.5211  134.8004  152.5498 C   0  0  2  0  0  0  0  0  0  0  0  0
  144.9985  134.4410  153.9641 C   0  0  0  0  0  0  0  0  0  0  0  0
  144.9478  133.7856  151.5320 C   0  0  0  0  0  0  0  0  0  0  0  0
  144.0941  133.0641  150.7983 N   0  0  0  0  0  0  0  0  0  0  0  0
  144.7450  132.1743  149.9403 C   0  0  0  0  0  0  0  0  0  0  0  0
  146.1124  132.2232  150.0356 C   0  0  0  0  0  0  0  0  0  0  0  0
  146.6359  133.3974  151.2111 S   0  0  0  0  0  0  0  0  0  0  0  0
  149.9389  138.6957  154.3876 C   0  0  0  0  0  0  0  0  0  0  0  0
  150.6217  139.6933  155.3374 C   0  0  0  0  0  0  0  0  0  0  0  0
  150.5595  141.7925  157.2217 H   0  0  0  0  0  0  0  0  0  0  0  0
  150.2630  143.0919  156.0696 H   0  0  0  0  0  0  0  0  0  0  0  0
  151.7506  142.1580  155.9755 H   0  0  0  0  0  0  0  0  0  0  0  0
  150.1540  141.4584  154.2115 H   0  0  0  0  0  0  0  0  0  0  0  0
  148.2903  140.7358  156.5153 H   0  0  0  0  0  0  0  0  0  0  0  0
  148.0354  142.0173  155.3560 H   0  0  0  0  0  0  0  0  0  0  0  0
  146.7268  139.9876  154.7679 H   0  0  0  0  0  0  0  0  0  0  0  0
  147.8656  140.3999  153.5094 H   0  0  0  0  0  0  0  0  0  0  0  0
  148.2585  138.2400  155.6424 H   0  0  0  0  0  0  0  0  0  0  0  0
  148.4208  137.2871  152.9999 H   0  0  0  0  0  0  0  0  0  0  0  0
  146.9800  136.3127  151.9940 H   0  0  0  0  0  0  0  0  0  0  0  0
  144.1718  136.9386  152.6238 H   0  0  0  0  0  0  0  0  0  0  0  0
  144.7521  136.3899  151.0704 H   0  0  0  0  0  0  0  0  0  0  0  0
  143.4325  134.7437  152.5854 H   0  0  0  0  0  0  0  0  0  0  0  0
  144.6466  133.4515  154.2571 H   0  0  0  0  0  0  0  0  0  0  0  0
  144.6241  135.1554  154.6978 H   0  0  0  0  0  0  0  0  0  0  0  0
  146.0871  134.4406  154.0269 H   0  0  0  0  0  0  0  0  0  0  0  0
  144.1554  131.5402  149.2946 H   0  0  0  0  0  0  0  0  0  0  0  0
  146.8399  131.6424  149.4882 H   0  0  0  0  0  0  0  0  0  0  0  0
  150.3819  137.7073  154.5157 H   0  0  0  0  0  0  0  0  0  0  0  0
  150.1340  138.9904  153.3553 H   0  0  0  0  0  0  0  0  0  0  0  0
  151.6874  139.7402  155.1112 H   0  0  0  0  0  0  0  0  0  0  0  0
  150.5401  139.3315  156.3633 H   0  0  0  0  0  0  0  0  0  0  0  0
  1  2  1  0  0  0  0
  1 20  1  0  0  0  0
  1 21  1  0  0  0  0
  1 22  1  0  0  0  0
  2 19  1  0  0  0  0
  2  3  1  0  0  0  0
  2 23  1  0  0  0  0
  3  4  1  0  0  0  0
  3 24  1  0  0  0  0
  3 25  1  0  0  0  0
  4  5  1  0  0  0  0
  4 26  1  0  0  0  0
  4 27  1  0  0  0  0
  5  6  1  0  0  0  0
  5 18  1  0  0  0  0
  5 28  1  0  0  0  0
  6  7  1  0  0  0  0
  6 29  1  0  0  0  0
  7  8  2  0  0  0  0
  7  9  1  0  0  0  0
  9 10  1  0  0  0  0
  9 30  1  0  0  0  0
 10 11  1  0  0  0  0
 10 31  1  0  0  0  0
 10 32  1  0  0  0  0
 11 12  1  0  0  0  0
 11 13  1  0  0  0  0
 11 33  1  0  0  0  0
 12 34  1  0  0  0  0
 12 35  1  0  0  0  0
 12 36  1  0  0  0  0
 13 17  1  0  0  0  0
 13 14  2  0  0  0  0
 14 15  1  0  0  0  0
 15 16  2  0  0  0  0
 15 37  1  0  0  0  0
 16 17  1  0  0  0  0
 16 38  1  0  0  0  0
 18 19  1  0  0  0  0
 18 39  1  0  0  0  0
 18 40  1  0  0  0  0
 19 41  1  0  0  0  0
 19 42  1  0  0  0  0
M  END
> <s_m_source_file>
AV-unprocessed.smi

> <i_m_source_file_index>
2330

> <i_lp_mmshare_version>
43012

> <i_f3d_flags>
0

> <s_epik_input>
W0NIM11bQ0BASF0xW0NIMl1bQ0gyXVtDQEhdKFtDSDJdW0NIMl0xKVtOSF1DKD1PKVtOSF1bQ0gyXVtDQEhdKFtDSDNdKWMybltjSF1bY0hdczI=

> <s_epik_cmdline>
J2VwaWtfcHl0aG9uJywgJy1waCcsICc3LjAnLCAnLXRuJywgJzgnLCAnLW1hJywgJzIwMCcsICctbWV0YWxfYmluZGluZycsICctaW1hZScsICc8aW5maWxlLm1hZT4nLCAnLW9tYWUnLCAnPG91dGZpbGUubWFlPic=

> <r_lp_tautomer_probability>
1

> <r_epik_Ionization_Penalty>
0.000331107

> <r_epik_Ionization_Penalty_Charging>
0

> <r_epik_Ionization_Penalty_Neutral>
0.000331107

> <r_epik_State_Penalty>
-0

> <r_epik_Charging_Adjusted_Penalty>
0

> <i_epik_Tot_Q>
0

> <i_epik_Tot_abs_Q>
0

> <r_epik_Metal_State_Penalty>
-0

> <b_epik_Metal_Only>
0

> <s_lp_Force_Field>
OPLS_2005

> <r_lp_Energy>
-1.82221

> <b_lp_Chiralities_Consistent>
1

> <s_lp_Variant>
AV-unprocessed.smi:2330-1

> <Gold.Version>
5.8.1

> <Gold.Id.Protein>
6NUR|6NUR_protein|mol2

> <Gold.PLP.Fitness>
39.2417

> <Gold.PLP.PLP>
-31.3202

> <Gold.PLP.part.hbond>
-2.0000

> <Gold.PLP.part.metal>
0.0000

> <Gold.PLP.part.buried>
-4.7636

> <Gold.PLP.part.nonpolar>
-25.3497

> <Gold.PLP.part.repulsive>
0.3490

> <Gold.PLP.ligand.clash>
0.0000

> <Gold.PLP.ligand.torsion>
0.4185

> <Gold.PLP.Chemscore.Hbond>
1.8960

> <Gold.PLP.Chemscore.CHOScore>
0.9843

> <Gold.PLP.Chemscore.Metal>
0.0000

> <Gold.Chemscore.Hbonds>
donor molecule, donor type, donor heavy atom, donor atom, acceptor molecule, acceptor atom, score
      L1  H     6    29       P1  7948  1.00
      L1  H     9    30       P1  7948  0.91
      L1  C    16    38       P1 10747  0.97

> <Gold.PLP.Chemscore.Internal.Correction>
0.1178

> <Gold.Rescore>
     Score         DG    S(hbond)    S(metal)    S(lipo)     H(rot)  DE(clash)    DE(int)     intcor
     17.85     -18.24       1.94        0.00      85.50       1.45       0.05       0.35       ----

> <Gold.Chemscore.Fitness>
17.8509

> <Gold.Chemscore.DG>
-18.2443

> <Gold.Chemscore.ZeroCoef>
-5.4800

> <Gold.Chemscore.Hbond>
1.9407

> <Gold.Chemscore.Metal>
0.0000

> <Gold.Chemscore.Lipo>
85.4996

> <Gold.Chemscore.Internal_Hbond>
0.0000

> <Gold.Chemscore.DEClash>
0.0462

> <Gold.Chemscore.DEInternal>
0.3472

> <Gold.Chemscore.Rot>
1.4536

> <Gold.Chemscore.Internal.Correction>
   9.000000E+99

> <Gold.Chemscore.Hbonds>
donor molecule, donor type, donor heavy atom, donor atom, acceptor molecule, acceptor atom, score
      L1  H     6    29       P1  7948  0.99
      L1  H     9    30       P1  7948  0.87

> <Gold.Chemscore.Hbond.Weighted>
-6.4820

> <Gold.Chemscore.Metal.Weighted>
-0.0000

> <Gold.Chemscore.Lipo.Weighted>
-10.0035

> <Gold.Chemscore.Internal_Hbond.Weighted>
0.0000

> <Gold.Chemscore.DEClash.Weighted>
0.0462

> <Gold.Chemscore.DEInternal.Weighted>
0.3472

> <Gold.Chemscore.Rot.Weighted>
3.7212

> <Gold.Chemscore.Internal.Correction.Weighted>
   9.000000E+99

> <Gold.Protein.RotatedTorsions>
[ 6907 6896 6895 6894 ] final  -48.01 input  -60.11 | X-H torsion
[ 7974 7965 7964 7962 ] final  177.80 input  175.53 | X-H torsion
[ 8008 7997 7996 7995 ] final -150.68 input   59.86 | X-H torsion
[ 10167 10162 10161 10158 ] final -111.51 input  -65.29 | X-H torsion
[ 10718 10713 10712 10709 ] final -160.06 input   66.30 | X-H torsion
[ 10763 10752 10751 10750 ] final  121.98 input  -60.55 | X-H torsion
[ 11005 11000 10999 10996 ] final  -87.82 input  -57.11 | X-H torsion

> <Gold.Protein.ActiveResidues>
 VAL166  LYS551  ARG553  GLY616  TRP617  ASP618  TYR619  PRO620  LYS621  CYS622 
 ASP623  PHE694  ASN695  SER759  ASP760  ASP761  ALA762  ILE779  LEU786  VAL792 
 PHE793  MET794  SER795  GLU796  ALA797  LYS798  CYS799  TRP800  GLU811  SER814 

> <Gold.Protein.RotatedAtoms>
  150.8949  134.8357  159.7319 H   0  0  0  0  0  0  0  0  0  0  0  0  # atno 6907 bound_to 6896
  152.4859  134.4591  159.9609 H   0  0  0  0  0  0  0  0  0  0  0  0  # atno 6908 bound_to 6896
  151.4649  133.3544  159.2850 H   0  0  0  0  0  0  0  0  0  0  0  0  # atno 6909 bound_to 6896
  144.7164  140.0301  143.6439 H   0  0  0  0  0  0  0  0  0  0  0  0  # atno 7974 bound_to 7965
  155.6274  140.0688  157.2659 H   0  0  0  0  0  0  0  0  0  0  0  0  # atno 8008 bound_to 7997
  154.4214  140.1773  156.1485 H   0  0  0  0  0  0  0  0  0  0  0  0  # atno 8009 bound_to 7997
  155.9960  140.3340  155.6803 H   0  0  0  0  0  0  0  0  0  0  0  0  # atno 8010 bound_to 7997
  140.1328  143.4346  152.1616 H   0  0  0  0  0  0  0  0  0  0  0  0  # atno 10167 bound_to 10162
  156.5768  130.8712  151.2853 H   0  0  0  0  0  0  0  0  0  0  0  0  # atno 10718 bound_to 10713
  153.6226  135.3410  155.3016 H   0  0  0  0  0  0  0  0  0  0  0  0  # atno 10763 bound_to 10752
  154.8597  135.4276  154.2191 H   0  0  0  0  0  0  0  0  0  0  0  0  # atno 10764 bound_to 10752
  153.3067  135.7028  153.7226 H   0  0  0  0  0  0  0  0  0  0  0  0  # atno 10765 bound_to 10752
  141.1611  133.7533  156.9362 H   0  0  0  0  0  0  0  0  0  0  0  0  # atno 11005 bound_to 11000
  146.0109  139.3169  143.0871 LP  0  0  0  0  0  0  0  0  0  0  0  0  # atno 17320 bound_to 7965
  145.8682  140.9435  143.0664 LP  0  0  0  0  0  0  0  0  0  0  0  0  # atno 17321 bound_to 7965
  139.5511  144.7338  151.4433 LP  0  0  0  0  0  0  0  0  0  0  0  0  # atno 17342 bound_to 10162
  140.6807  143.8089  150.7117 LP  0  0  0  0  0  0  0  0  0  0  0  0  # atno 17343 bound_to 10162
  157.7335  130.9732  150.1984 LP  0  0  0  0  0  0  0  0  0  0  0  0  # atno 17370 bound_to 10713
  156.2666  130.3717  149.8075 LP  0  0  0  0  0  0  0  0  0  0  0  0  # atno 17371 bound_to 10713
  140.1352  134.9329  157.2392 LP  0  0  0  0  0  0  0  0  0  0  0  0  # atno 17394 bound_to 11000
  140.2903  134.3248  155.7317 LP  0  0  0  0  0  0  0  0  0  0  0  0  # atno 17395 bound_to 11000

$$$$
