AV-unprocessed.smi:1952|AV-procd|sdf|7892|dock6
  -GOLD-   2272010 43D 1   1.00000     0.00000
 Structure written by MMmdl.
 39 40  0  0  0  0  0  0  0  0  3 V2000
  146.7443  133.8015  162.4800 C   0  0  0  0  0  0  0  0  0  0  0  0
  147.2841  134.9203  161.6571 C   0  0  0  0  0  0  0  0  0  0  0  0
  147.6514  135.0154  160.3443 C   0  0  0  0  0  0  0  0  0  0  0  0
  148.0841  136.3632  160.2288 C   0  0  0  0  0  0  0  0  0  0  0  0
  148.5536  136.8689  158.9883 N   0  0  0  0  0  0  0  0  0  0  0  0
  149.2356  136.2279  158.0224 C   0  0  0  0  0  0  0  0  0  0  0  0
  149.5166  135.0295  158.1439 O   0  0  0  0  0  0  0  0  0  0  0  0
  149.5523  137.0477  156.9817 N   0  5  0  0  0  0  0  0  0  0  0  0
  149.2002  136.8116  155.5756 C   0  0  1  0  0  0  0  0  0  0  0  0
  150.0318  137.7549  154.6955 C   0  0  0  0  0  0  0  0  0  0  0  0
  149.4487  135.3294  155.2023 C   0  0  0  0  0  0  0  0  0  0  0  0
  148.4882  134.8357  154.1793 N   0  3  0  0  0  0  0  0  0  0  0  0
  148.7773  133.4714  153.6700 C   0  0  0  0  0  0  0  0  0  0  0  0
  147.8043  133.1196  152.5333 C   0  0  0  0  0  0  0  0  0  0  0  0
  146.4652  133.2226  153.0037 O   0  0  0  0  0  0  0  0  0  0  0  0
  146.1500  134.5430  153.4305 C   0  0  0  0  0  0  0  0  0  0  0  0
  147.0706  134.9447  154.5948 C   0  0  0  0  0  0  0  0  0  0  0  0
  147.9817  137.0326  161.3677 N   0  0  0  0  0  0  0  0  0  0  0  0
  147.4709  136.1106  162.2891 O   0  0  0  0  0  0  0  0  0  0  0  0
  146.4091  132.9797  161.8470 H   0  0  0  0  0  0  0  0  0  0  0  0
  145.8963  134.1341  163.0789 H   0  0  0  0  0  0  0  0  0  0  0  0
  147.5080  133.4177  163.1565 H   0  0  0  0  0  0  0  0  0  0  0  0
  147.6189  134.2428  159.5904 H   0  0  0  0  0  0  0  0  0  0  0  0
  148.3452  137.8396  158.8065 H   0  0  0  0  0  0  0  0  0  0  0  0
  148.1506  137.0371  155.3816 H   0  0  0  0  0  0  0  0  0  0  0  0
  149.7913  137.6187  153.6408 H   0  0  0  0  0  0  0  0  0  0  0  0
  151.1011  137.5779  154.8170 H   0  0  0  0  0  0  0  0  0  0  0  0
  149.8360  138.7990  154.9423 H   0  0  0  0  0  0  0  0  0  0  0  0
  150.4692  135.1889  154.8428 H   0  0  0  0  0  0  0  0  0  0  0  0
  149.3699  134.7272  156.1093 H   0  0  0  0  0  0  0  0  0  0  0  0
  149.8025  133.4132  153.3029 H   0  0  0  0  0  0  0  0  0  0  0  0
  148.6853  132.7480  154.4815 H   0  0  0  0  0  0  0  0  0  0  0  0
  147.9543  133.7771  151.6752 H   0  0  0  0  0  0  0  0  0  0  0  0
  147.9811  132.1004  152.1890 H   0  0  0  0  0  0  0  0  0  0  0  0
  146.2507  135.2408  152.5974 H   0  0  0  0  0  0  0  0  0  0  0  0
  145.1075  134.5731  153.7478 H   0  0  0  0  0  0  0  0  0  0  0  0
  146.8901  134.3070  155.4615 H   0  0  0  0  0  0  0  0  0  0  0  0
  146.8513  135.9704  154.8941 H   0  0  0  0  0  0  0  0  0  0  0  0
  148.5957  135.4675  153.3970 H   0  0  0  0  0  0  0  0  0  0  0  0
  1  2  1  0  0  0  0
  1 20  1  0  0  0  0
  1 21  1  0  0  0  0
  1 22  1  0  0  0  0
  2 19  1  0  0  0  0
  2  3  2  0  0  0  0
  3  4  1  0  0  0  0
  3 23  1  0  0  0  0
  4  5  1  0  0  0  0
  4 18  2  0  0  0  0
  5  6  1  0  0  0  0
  5 24  1  0  0  0  0
  6  7  2  0  0  0  0
  6  8  1  0  0  0  0
  8  9  1  0  0  0  0
  9 10  1  0  0  0  0
  9 11  1  0  0  0  0
  9 25  1  0  0  0  0
 10 26  1  0  0  0  0
 10 27  1  0  0  0  0
 10 28  1  0  0  0  0
 11 12  1  0  0  0  0
 11 29  1  0  0  0  0
 11 30  1  0  0  0  0
 12 17  1  0  0  0  0
 12 13  1  0  0  0  0
 12 39  1  0  0  0  0
 13 14  1  0  0  0  0
 13 31  1  0  0  0  0
 13 32  1  0  0  0  0
 14 15  1  0  0  0  0
 14 33  1  0  0  0  0
 14 34  1  0  0  0  0
 15 16  1  0  0  0  0
 16 17  1  0  0  0  0
 16 35  1  0  0  0  0
 16 36  1  0  0  0  0
 17 37  1  0  0  0  0
 17 38  1  0  0  0  0
 18 19  1  0  0  0  0
M  CHG  1   8  -1
M  CHG  1  12   1
M  END
> <s_m_source_file>
AV-unprocessed.smi

> <i_m_source_file_index>
1952

> <i_lp_mmshare_version>
43012

> <i_f3d_flags>
0

> <s_epik_input>
W0NIM11jMVtjSF1jKG5vMSlbTkhdQyg9TylbTkhdW0NASF0oW0NIM10pW0NIMl1OMltDSDJdW0NIMl1PW0NIMl1bQ0gyXTI=

> <s_epik_cmdline>
J2VwaWtfcHl0aG9uJywgJy1waCcsICc3LjAnLCAnLXRuJywgJzgnLCAnLW1hJywgJzIwMCcsICctbWV0YWxfYmluZGluZycsICctaW1hZScsICc8aW5maWxlLm1hZT4nLCAnLW9tYWUnLCAnPG91dGZpbGUubWFlPic=

> <r_epik_Ionization_Penalty>
6.76648

> <r_epik_Ionization_Penalty_Charging>
6.76648

> <r_epik_Ionization_Penalty_Neutral>
5.6208e-06

> <r_epik_State_Penalty>
7.45901

> <r_epik_Charging_Adjusted_Penalty>
14.2255

> <i_epik_Tot_Q>
0

> <i_epik_Tot_abs_Q>
2

> <r_epik_Metal_State_Penalty>
3.38802

> <b_epik_Metal_Only>
1

> <s_lp_Force_Field>
OPLS_2005

> <r_lp_Energy>
9.12096

> <b_lp_Chiralities_Consistent>
1

> <s_lp_Variant>
AV-unprocessed.smi:1952-10

> <Gold.Version>
5.8.1

> <Gold.Id.Protein>
6NUR|6NUR_protein|mol2

> <Gold.PLP.Fitness>
40.5114

> <Gold.PLP.PLP>
-28.9027

> <Gold.PLP.part.hbond>
-4.0000

> <Gold.PLP.part.metal>
0.0000

> <Gold.PLP.part.buried>
-3.7026

> <Gold.PLP.part.nonpolar>
-21.1734

> <Gold.PLP.part.repulsive>
0.2849

> <Gold.PLP.ligand.clash>
0.0000

> <Gold.PLP.ligand.torsion>
1.3643

> <Gold.PLP.Chemscore.Hbond>
4.7200

> <Gold.PLP.Chemscore.CHOScore>
0.0000

> <Gold.PLP.Chemscore.Metal>
0.0000

> <Gold.Chemscore.Hbonds>
donor molecule, donor type, donor heavy atom, donor atom, acceptor molecule, acceptor atom, score
      L1  H    12    39       P1  7948  2.00
      P1  H  6896  6908       L1     7  1.00
      P1  H  6931  6943       L1    18  1.00
      P1  H  6934  6947       L1    18  0.44

> <Gold.PLP.Chemscore.Internal.Correction>
0.1773

> <Gold.Rescore>
     Score         DG    S(hbond)    S(metal)    S(lipo)     H(rot)  DE(clash)    DE(int)     intcor
     15.28     -19.27       3.52        0.00      51.84       1.58       0.01       3.99       ----

> <Gold.Chemscore.Fitness>
15.2788

> <Gold.Chemscore.DG>
-19.2704

> <Gold.Chemscore.ZeroCoef>
-5.4800

> <Gold.Chemscore.Hbond>
3.5239

> <Gold.Chemscore.Metal>
0.0000

> <Gold.Chemscore.Lipo>
51.8354

> <Gold.Chemscore.Internal_Hbond>
0.0000

> <Gold.Chemscore.DEClash>
0.0060

> <Gold.Chemscore.DEInternal>
3.9856

> <Gold.Chemscore.Rot>
1.5798

> <Gold.Chemscore.Internal.Correction>
   9.000000E+99

> <Gold.Chemscore.Hbonds>
donor molecule, donor type, donor heavy atom, donor atom, acceptor molecule, acceptor atom, score
      L1  H    12    39       P1  7948  0.97
      P1  H  6896  6908       L1     7  0.99
      P1  H  6931  6943       L1    18  0.96
      P1  H  6934  6947       L1    18  0.31

> <Gold.Chemscore.Hbond.Weighted>
-11.7699

> <Gold.Chemscore.Metal.Weighted>
-0.0000

> <Gold.Chemscore.Lipo.Weighted>
-6.0647

> <Gold.Chemscore.Internal_Hbond.Weighted>
0.0000

> <Gold.Chemscore.DEClash.Weighted>
0.0060

> <Gold.Chemscore.DEInternal.Weighted>
3.9856

> <Gold.Chemscore.Rot.Weighted>
4.0442

> <Gold.Chemscore.Internal.Correction.Weighted>
   9.000000E+99

> <Gold.Protein.RotatedTorsions>
[ 6907 6896 6895 6894 ] final  154.21 input  -60.11 | X-H torsion
[ 7974 7965 7964 7962 ] final  124.51 input  175.53 | X-H torsion
[ 8008 7997 7996 7995 ] final -162.85 input   59.86 | X-H torsion
[ 10167 10162 10161 10158 ] final  -84.74 input  -65.29 | X-H torsion
[ 10718 10713 10712 10709 ] final -153.34 input   66.30 | X-H torsion
[ 10763 10752 10751 10750 ] final   75.13 input  -60.55 | X-H torsion
[ 11005 11000 10999 10996 ] final  -72.08 input  -57.11 | X-H torsion

> <Gold.Protein.ActiveResidues>
 VAL166  LYS551  ARG553  GLY616  TRP617  ASP618  TYR619  PRO620  LYS621  CYS622 
 ASP623  PHE694  ASN695  SER759  ASP760  ASP761  ALA762  ILE779  LEU786  VAL792 
 PHE793  MET794  SER795  GLU796  ALA797  LYS798  CYS799  TRP800  GLU811  SER814 

> <Gold.Protein.RotatedAtoms>
  152.0618  133.4065  159.4420 H   0  0  0  0  0  0  0  0  0  0  0  0  # atno 6907 bound_to 6896
  150.6866  134.3192  159.4788 H   0  0  0  0  0  0  0  0  0  0  0  0  # atno 6908 bound_to 6896
  152.1014  134.9338  160.0620 H   0  0  0  0  0  0  0  0  0  0  0  0  # atno 6909 bound_to 6896
  145.0835  139.3639  143.4897 H   0  0  0  0  0  0  0  0  0  0  0  0  # atno 7974 bound_to 7965
  155.8128  140.0908  157.1894 H   0  0  0  0  0  0  0  0  0  0  0  0  # atno 8008 bound_to 7997
  154.3979  140.1451  156.3466 H   0  0  0  0  0  0  0  0  0  0  0  0  # atno 8009 bound_to 7997
  155.8347  140.3441  155.5597 H   0  0  0  0  0  0  0  0  0  0  0  0  # atno 8010 bound_to 7997
  140.4103  143.2625  151.9026 H   0  0  0  0  0  0  0  0  0  0  0  0  # atno 10167 bound_to 10162
  156.4845  130.8319  151.2544 H   0  0  0  0  0  0  0  0  0  0  0  0  # atno 10718 bound_to 10713
  153.0634  135.5000  154.8145 H   0  0  0  0  0  0  0  0  0  0  0  0  # atno 10763 bound_to 10752
  154.6917  135.2985  154.9472 H   0  0  0  0  0  0  0  0  0  0  0  0  # atno 10764 bound_to 10752
  154.0225  135.6740  153.4826 H   0  0  0  0  0  0  0  0  0  0  0  0  # atno 10765 bound_to 10752
  141.1603  133.6836  156.7003 H   0  0  0  0  0  0  0  0  0  0  0  0  # atno 11005 bound_to 11000
  146.3531  140.0637  142.8627 LP  0  0  0  0  0  0  0  0  0  0  0  0  # atno 17320 bound_to 7965
  145.1150  140.9428  143.4634 LP  0  0  0  0  0  0  0  0  0  0  0  0  # atno 17321 bound_to 7965
  139.4782  144.5543  151.8337 LP  0  0  0  0  0  0  0  0  0  0  0  0  # atno 17342 bound_to 10162
  140.4645  144.1675  150.5910 LP  0  0  0  0  0  0  0  0  0  0  0  0  # atno 17343 bound_to 10162
  157.7480  131.0034  150.3036 LP  0  0  0  0  0  0  0  0  0  0  0  0  # atno 17370 bound_to 10713
  156.3488  130.3827  149.7346 LP  0  0  0  0  0  0  0  0  0  0  0  0  # atno 17371 bound_to 10713
  140.2963  134.8200  157.4060 LP  0  0  0  0  0  0  0  0  0  0  0  0  # atno 17394 bound_to 11000
  140.1301  134.5106  155.8112 LP  0  0  0  0  0  0  0  0  0  0  0  0  # atno 17395 bound_to 11000

$$$$
