AV-unprocessed.smi:334|AV-procd|sdf|2368|dock4
  -GOLD-   2262022283D 1   1.00000     0.00000
 Structure written by MMmdl.
 44 46  0  0  0  0  0  0  0  0  3 V2000
  149.1532  141.4837  157.2247 C   0  0  0  0  0  0  0  0  0  0  0  0
  150.6091  141.3484  157.7081 C   0  0  2  0  0  0  0  0  0  0  0  0
  150.8061  140.0032  158.2461 N   0  0  0  0  0  0  0  0  0  0  0  0
  151.9903  139.3947  158.4138 C   0  0  0  0  0  0  0  0  0  0  0  0
  153.0670  139.9211  158.1293 O   0  0  0  0  0  0  0  0  0  0  0  0
  151.9384  137.9811  159.0107 C   0  0  0  0  0  0  0  0  0  0  0  0
  150.6401  137.3141  158.8151 N   0  0  0  0  0  0  0  0  0  0  0  0
  149.7926  137.2202  159.9368 C   0  0  0  0  0  0  0  0  0  0  0  0
  148.5857  136.6242  159.8742 C   0  0  0  0  0  0  0  0  0  0  0  0
  147.7308  136.5325  161.0374 N   0  3  0  0  0  0  0  0  0  0  0  0
  148.1401  136.9773  162.1050 O   0  0  0  0  0  0  0  0  0  0  0  0
  146.6242  136.0136  160.9239 O   0  5  0  0  0  0  0  0  0  0  0  0
  148.1718  136.0717  158.5989 C   0  0  0  0  0  0  0  0  0  0  0  0
  148.9791  136.1557  157.5233 C   0  0  0  0  0  0  0  0  0  0  0  0
  150.2936  136.8020  157.5945 C   0  0  0  0  0  0  0  0  0  0  0  0
  151.0375  136.8784  156.6165 O   0  0  0  0  0  0  0  0  0  0  0  0
  150.9835  142.3959  158.7862 C   0  0  1  0  0  0  0  0  0  0  0  0
  152.4953  142.4263  159.1271 C   0  0  0  0  0  0  0  0  0  0  0  0
  152.8727  143.9065  158.9444 C   0  0  2  0  0  0  0  0  0  0  0  0
  152.2187  144.7478  160.0553 C   0  0  0  0  0  0  0  0  0  0  0  0
  150.7334  144.7461  159.6491 C   0  0  0  0  0  0  0  0  0  0  0  0
  150.7278  143.8702  158.3810 C   0  0  1  0  0  0  0  0  0  0  0  0
  152.0421  144.2828  157.7256 C   0  0  0  0  0  0  0  0  0  0  0  0
  148.9739  142.4409  156.7374 H   0  0  0  0  0  0  0  0  0  0  0  0
  148.4503  141.3948  158.0536 H   0  0  0  0  0  0  0  0  0  0  0  0
  148.9063  140.7086  156.4983 H   0  0  0  0  0  0  0  0  0  0  0  0
  151.2701  141.4859  156.8508 H   0  0  0  0  0  0  0  0  0  0  0  0
  149.9740  139.4966  158.5119 H   0  0  0  0  0  0  0  0  0  0  0  0
  152.7423  137.3945  158.5638 H   0  0  0  0  0  0  0  0  0  0  0  0
  152.1796  138.0283  160.0744 H   0  0  0  0  0  0  0  0  0  0  0  0
  150.1955  137.6551  160.8401 H   0  0  0  0  0  0  0  0  0  0  0  0
  147.2125  135.5857  158.4973 H   0  0  0  0  0  0  0  0  0  0  0  0
  148.6508  135.7358  156.5836 H   0  0  0  0  0  0  0  0  0  0  0  0
  150.4145  142.1639  159.6882 H   0  0  0  0  0  0  0  0  0  0  0  0
  152.7011  142.0663  160.1360 H   0  0  0  0  0  0  0  0  0  0  0  0
  153.0753  141.8136  158.4351 H   0  0  0  0  0  0  0  0  0  0  0  0
  153.9452  144.0743  158.8414 H   0  0  0  0  0  0  0  0  0  0  0  0
  152.3809  144.3207  161.0455 H   0  0  0  0  0  0  0  0  0  0  0  0
  152.6140  145.7645  160.0590 H   0  0  0  0  0  0  0  0  0  0  0  0
  150.0857  144.3530  160.4336 H   0  0  0  0  0  0  0  0  0  0  0  0
  150.3994  145.7590  159.4200 H   0  0  0  0  0  0  0  0  0  0  0  0
  149.8441  144.0303  157.7651 H   0  0  0  0  0  0  0  0  0  0  0  0
  152.0894  145.3456  157.4816 H   0  0  0  0  0  0  0  0  0  0  0  0
  152.2892  143.7019  156.8358 H   0  0  0  0  0  0  0  0  0  0  0  0
  1  2  1  0  0  0  0
  1 24  1  0  0  0  0
  1 25  1  0  0  0  0
  1 26  1  0  0  0  0
  2  3  1  0  0  0  0
  2 17  1  0  0  0  0
  2 27  1  0  0  0  0
  3  4  1  0  0  0  0
  3 28  1  0  0  0  0
  4  5  2  0  0  0  0
  4  6  1  0  0  0  0
  6  7  1  0  0  0  0
  6 29  1  0  0  0  0
  6 30  1  0  0  0  0
  7 15  1  0  0  0  0
  7  8  1  0  0  0  0
  8  9  2  0  0  0  0
  8 31  1  0  0  0  0
  9 10  1  0  0  0  0
  9 13  1  0  0  0  0
 10 11  2  0  0  0  0
 10 12  1  0  0  0  0
 13 14  2  0  0  0  0
 13 32  1  0  0  0  0
 14 15  1  0  0  0  0
 14 33  1  0  0  0  0
 15 16  2  0  0  0  0
 17 22  1  0  0  0  0
 17 18  1  0  0  0  0
 17 34  1  0  0  0  0
 18 19  1  0  0  0  0
 18 35  1  0  0  0  0
 18 36  1  0  0  0  0
 19 23  1  0  0  0  0
 19 20  1  0  0  0  0
 19 37  1  0  0  0  0
 20 21  1  0  0  0  0
 20 38  1  0  0  0  0
 20 39  1  0  0  0  0
 21 22  1  0  0  0  0
 21 40  1  0  0  0  0
 21 41  1  0  0  0  0
 22 23  1  0  0  0  0
 22 42  1  0  0  0  0
 23 43  1  0  0  0  0
 23 44  1  0  0  0  0
M  CHG  1  10   1
M  CHG  1  12  -1
M  END
> <s_m_source_file>
AV-unprocessed.smi

> <i_m_source_file_index>
334

> <i_lp_mmshare_version>
43012

> <i_f3d_flags>
0

> <s_epik_input>
W0NIMl0xW0NIMl1bQ0BIXShbQ0gyXTIpW0NAQEhdKFtDSDJdW0NAQEhdMTIpW0NASF0oW0NIM10pW05IXUMoPU8pW0NIMl1uM1tjSF1jKFtOK10oPU8pW08tXSlbY0hdW2NIXWMzPU8=

> <s_epik_cmdline>
J2VwaWtfcHl0aG9uJywgJy1waCcsICc3LjAnLCAnLXRuJywgJzgnLCAnLW1hJywgJzIwMCcsICctbWV0YWxfYmluZGluZycsICctaW1hZScsICc8aW5maWxlLm1hZT4nLCAnLW9tYWUnLCAnPG91dGZpbGUubWFlPic=

> <r_lp_tautomer_probability>
1

> <r_epik_Ionization_Penalty>
2.17081e-08

> <r_epik_Ionization_Penalty_Charging>
8.1195e-11

> <r_epik_Ionization_Penalty_Neutral>
2.16269e-08

> <r_epik_State_Penalty>
-0

> <r_epik_Charging_Adjusted_Penalty>
8.1195e-11

> <i_epik_Tot_Q>
0

> <i_epik_Tot_abs_Q>
2

> <r_epik_Metal_State_Penalty>
-0

> <b_epik_Metal_Only>
0

> <s_lp_Force_Field>
OPLS_2005

> <r_lp_Energy>
62.5387

> <b_lp_Chiralities_Consistent>
1

> <s_lp_Variant>
AV-unprocessed.smi:334-7

> <Gold.Version>
5.8.1

> <Gold.Id.Protein>
6NUR|6NUR_protein|mol2

> <Gold.PLP.Fitness>
44.5912

> <Gold.PLP.PLP>
-40.1276

> <Gold.PLP.part.hbond>
-2.1797

> <Gold.PLP.part.metal>
0.0000

> <Gold.PLP.part.buried>
-4.2492

> <Gold.PLP.part.nonpolar>
-33.9581

> <Gold.PLP.part.repulsive>
0.1241

> <Gold.PLP.ligand.clash>
0.0000

> <Gold.PLP.ligand.torsion>
0.7983

> <Gold.PLP.Chemscore.Hbond>
2.0000

> <Gold.PLP.Chemscore.CHOScore>
0.0000

> <Gold.PLP.Chemscore.Metal>
0.0000

> <Gold.Chemscore.Hbonds>
donor molecule, donor type, donor heavy atom, donor atom, acceptor molecule, acceptor atom, score
      P1  H  6931  6943       L1    11  1.00
      P1  H  7997  8008       L1     5  0.98

> <Gold.PLP.Chemscore.Internal.Correction>
0.0603

> <Gold.Rescore>
     Score         DG    S(hbond)    S(metal)    S(lipo)     H(rot)  DE(clash)    DE(int)     intcor
     17.68     -19.87       1.99        0.00     104.47       1.75       0.01       2.18       ----

> <Gold.Chemscore.Fitness>
17.6799

> <Gold.Chemscore.DG>
-19.8745

> <Gold.Chemscore.ZeroCoef>
-5.4800

> <Gold.Chemscore.Hbond>
1.9896

> <Gold.Chemscore.Metal>
0.0000

> <Gold.Chemscore.Lipo>
104.4679

> <Gold.Chemscore.Internal_Hbond>
0.0000

> <Gold.Chemscore.DEClash>
0.0106

> <Gold.Chemscore.DEInternal>
2.1840

> <Gold.Chemscore.Rot>
1.7474

> <Gold.Chemscore.Internal.Correction>
   9.000000E+99

> <Gold.Chemscore.Hbonds>
donor molecule, donor type, donor heavy atom, donor atom, acceptor molecule, acceptor atom, score
      P1  H  6931  6943       L1    11  0.82
      P1  H  7997  8008       L1     5  0.93

> <Gold.Chemscore.Hbond.Weighted>
-6.6451

> <Gold.Chemscore.Metal.Weighted>
-0.0000

> <Gold.Chemscore.Lipo.Weighted>
-12.2227

> <Gold.Chemscore.Internal_Hbond.Weighted>
0.0000

> <Gold.Chemscore.DEClash.Weighted>
0.0106

> <Gold.Chemscore.DEInternal.Weighted>
2.1840

> <Gold.Chemscore.Rot.Weighted>
4.4733

> <Gold.Chemscore.Internal.Correction.Weighted>
   9.000000E+99

> <Gold.Protein.RotatedTorsions>
[ 6907 6896 6895 6894 ] final  -24.26 input  -60.11 | X-H torsion
[ 7974 7965 7964 7962 ] final  -93.27 input  175.53 | X-H torsion
[ 8008 7997 7996 7995 ] final  -67.66 input   59.86 | X-H torsion
[ 10167 10162 10161 10158 ] final  -87.68 input  -65.29 | X-H torsion
[ 10718 10713 10712 10709 ] final  150.70 input   66.30 | X-H torsion
[ 10763 10752 10751 10750 ] final  -79.08 input  -60.55 | X-H torsion
[ 11005 11000 10999 10996 ] final   63.33 input  -57.11 | X-H torsion

> <Gold.Protein.ActiveResidues>
 VAL166  LYS551  ARG553  GLY616  TRP617  ASP618  TYR619  PRO620  LYS621  CYS622 
 ASP623  PHE694  ASN695  SER759  ASP760  ASP761  ALA762  ILE779  LEU786  VAL792 
 PHE793  MET794  SER795  GLU796  ALA797  LYS798  CYS799  TRP800  GLU811  SER814 

> <Gold.Protein.RotatedAtoms>
  151.1920  135.0406  159.8836 H   0  0  0  0  0  0  0  0  0  0  0  0  # atno 6907 bound_to 6896
  152.5438  134.0945  159.8301 H   0  0  0  0  0  0  0  0  0  0  0  0  # atno 6908 bound_to 6896
  151.1075  133.5150  159.2639 H   0  0  0  0  0  0  0  0  0  0  0  0  # atno 6909 bound_to 6896
  145.3888  140.9526  143.2352 H   0  0  0  0  0  0  0  0  0  0  0  0  # atno 7974 bound_to 7965
  154.4815  140.0888  156.7388 H   0  0  0  0  0  0  0  0  0  0  0  0  # atno 8008 bound_to 7997
  155.4458  140.3455  155.4277 H   0  0  0  0  0  0  0  0  0  0  0  0  # atno 8009 bound_to 7997
  156.1198  140.1471  156.9208 H   0  0  0  0  0  0  0  0  0  0  0  0  # atno 8010 bound_to 7997
  140.3821  143.2744  151.9371 H   0  0  0  0  0  0  0  0  0  0  0  0  # atno 10167 bound_to 10162
  157.2802  131.0834  151.1537 H   0  0  0  0  0  0  0  0  0  0  0  0  # atno 10718 bound_to 10713
  154.5341  135.5708  153.6784 H   0  0  0  0  0  0  0  0  0  0  0  0  # atno 10763 bound_to 10752
  152.9946  135.6212  154.2589 H   0  0  0  0  0  0  0  0  0  0  0  0  # atno 10764 bound_to 10752
  154.2517  135.2859  155.2793 H   0  0  0  0  0  0  0  0  0  0  0  0  # atno 10765 bound_to 10752
  140.0031  134.6411  155.9898 H   0  0  0  0  0  0  0  0  0  0  0  0  # atno 11005 bound_to 11000
  144.8455  139.5404  143.6880 LP  0  0  0  0  0  0  0  0  0  0  0  0  # atno 17320 bound_to 7965
  146.2807  139.6870  142.9231 LP  0  0  0  0  0  0  0  0  0  0  0  0  # atno 17321 bound_to 7965
  139.4794  144.5809  151.7935 LP  0  0  0  0  0  0  0  0  0  0  0  0  # atno 17342 bound_to 10162
  140.4927  144.1287  150.5953 LP  0  0  0  0  0  0  0  0  0  0  0  0  # atno 17343 bound_to 10162
  157.2974  130.6826  149.6146 LP  0  0  0  0  0  0  0  0  0  0  0  0  # atno 17370 bound_to 10713
  155.9664  130.4402  150.5290 LP  0  0  0  0  0  0  0  0  0  0  0  0  # atno 17371 bound_to 10713
  141.1657  133.6537  156.4472 LP  0  0  0  0  0  0  0  0  0  0  0  0  # atno 17394 bound_to 11000
  140.4690  134.6771  157.5120 LP  0  0  0  0  0  0  0  0  0  0  0  0  # atno 17395 bound_to 11000

$$$$
