AV-unprocessed.smi:1982|AV-procd|sdf|8022|dock7
  -GOLD-   2272010213D 1   1.00000     0.00000
 Structure written by MMmdl.
 36 37  0  0  0  0  0  0  0  0  1 V2000
  152.6384  142.6049  161.8787 C   0  0  0  0  0  0  0  0  0  0  0  0
  152.6838  143.0499  160.4051 C   0  0  2  0  0  0  0  0  0  0  0  0
  152.1572  144.4945  160.2874 C   0  0  0  0  0  0  0  0  0  0  0  0
  152.2069  145.0051  158.8432 C   0  0  0  0  0  0  0  0  0  0  0  0
  151.4063  144.0836  157.9184 C   0  0  0  0  0  0  0  0  0  0  0  0
  151.9151  142.6325  157.9983 C   0  0  2  0  0  0  0  0  0  0  0  0
  151.0869  141.7853  157.1444 N   0  0  0  0  0  0  0  0  0  0  0  0
  151.4306  140.5814  156.6606 C   0  0  0  0  0  0  0  0  0  0  0  0
  152.5413  140.0760  156.8179 O   0  0  0  0  0  0  0  0  0  0  0  0
  150.3489  139.8250  155.8874 C   0  0  0  0  0  0  0  0  0  0  0  0
  149.2704  140.7142  155.4929 N   0  0  0  0  0  0  0  0  0  0  0  0
  148.8614  141.1175  154.2881 C   0  0  0  0  0  0  0  0  0  0  0  0
  147.8116  141.9203  154.3718 N   0  0  0  0  0  0  0  0  0  0  0  0
  147.5838  141.9995  155.7353 N   0  0  0  0  0  0  0  0  0  0  0  0
  148.4464  141.2865  156.4058 N   0  0  0  0  0  0  0  0  0  0  0  0
  151.9108  142.0923  159.4541 C   0  0  1  0  0  0  0  0  0  0  0  0
  152.4600  140.6489  159.5105 C   0  0  0  0  0  0  0  0  0  0  0  0
  151.6117  142.4885  162.2269 H   0  0  0  0  0  0  0  0  0  0  0  0
  153.1244  143.3375  162.5238 H   0  0  0  0  0  0  0  0  0  0  0  0
  153.1567  141.6598  162.0355 H   0  0  0  0  0  0  0  0  0  0  0  0
  153.7309  143.0567  160.0981 H   0  0  0  0  0  0  0  0  0  0  0  0
  151.1315  144.5449  160.6554 H   0  0  0  0  0  0  0  0  0  0  0  0
  152.7440  145.1591  160.9225 H   0  0  0  0  0  0  0  0  0  0  0  0
  151.8099  146.0193  158.7927 H   0  0  0  0  0  0  0  0  0  0  0  0
  153.2426  145.0590  158.5054 H   0  0  0  0  0  0  0  0  0  0  0  0
  150.3508  144.1230  158.1920 H   0  0  0  0  0  0  0  0  0  0  0  0
  151.4736  144.4495  156.8929 H   0  0  0  0  0  0  0  0  0  0  0  0
  152.9457  142.6096  157.6378 H   0  0  0  0  0  0  0  0  0  0  0  0
  150.1530  142.1186  156.9521 H   0  0  0  0  0  0  0  0  0  0  0  0
  150.7846  139.3604  155.0015 H   0  0  0  0  0  0  0  0  0  0  0  0
  149.9341  139.0262  156.5032 H   0  0  0  0  0  0  0  0  0  0  0  0
  149.3221  140.8171  153.3586 H   0  0  0  0  0  0  0  0  0  0  0  0
  150.8733  142.0591  159.7917 H   0  0  0  0  0  0  0  0  0  0  0  0
  153.5127  140.6165  159.2283 H   0  0  0  0  0  0  0  0  0  0  0  0
  151.9200  139.9792  158.8410 H   0  0  0  0  0  0  0  0  0  0  0  0
  152.3674  140.2175  160.5063 H   0  0  0  0  0  0  0  0  0  0  0  0
  1  2  1  0  0  0  0
  1 18  1  0  0  0  0
  1 19  1  0  0  0  0
  1 20  1  0  0  0  0
  2 16  1  0  0  0  0
  2  3  1  0  0  0  0
  2 21  1  0  0  0  0
  3  4  1  0  0  0  0
  3 22  1  0  0  0  0
  3 23  1  0  0  0  0
  4  5  1  0  0  0  0
  4 24  1  0  0  0  0
  4 25  1  0  0  0  0
  5  6  1  0  0  0  0
  5 26  1  0  0  0  0
  5 27  1  0  0  0  0
  6  7  1  0  0  0  0
  6 16  1  0  0  0  0
  6 28  1  0  0  0  0
  7  8  1  0  0  0  0
  7 29  1  0  0  0  0
  8  9  2  0  0  0  0
  8 10  1  0  0  0  0
 10 11  1  0  0  0  0
 10 30  1  0  0  0  0
 10 31  1  0  0  0  0
 11 15  1  0  0  0  0
 11 12  1  0  0  0  0
 12 13  2  0  0  0  0
 12 32  1  0  0  0  0
 13 14  1  0  0  0  0
 14 15  2  0  0  0  0
 16 17  1  0  0  0  0
 16 33  1  0  0  0  0
 17 34  1  0  0  0  0
 17 35  1  0  0  0  0
 17 36  1  0  0  0  0
M  END
> <s_m_source_file>
AV-unprocessed.smi

> <i_m_source_file_index>
1982

> <i_lp_mmshare_version>
43012

> <i_f3d_flags>
0

> <s_epik_input>
W0NIM11bQ0BASF0xW0NIMl1bQ0gyXVtDSDJdW0NASF0oW0NASF0xW0NIM10pW05IXUMoPU8pW0NIMl1uMltjSF1ubm4y

> <s_epik_cmdline>
J2VwaWtfcHl0aG9uJywgJy1waCcsICc3LjAnLCAnLXRuJywgJzgnLCAnLW1hJywgJzIwMCcsICctbWV0YWxfYmluZGluZycsICctaW1hZScsICc8aW5maWxlLm1hZT4nLCAnLW9tYWUnLCAnPG91dGZpbGUubWFlPic=

> <r_lp_tautomer_probability>
1

> <r_epik_Ionization_Penalty>
5.03816e-07

> <r_epik_Ionization_Penalty_Charging>
0

> <r_epik_Ionization_Penalty_Neutral>
5.03816e-07

> <r_epik_State_Penalty>
-0

> <r_epik_Charging_Adjusted_Penalty>
0

> <i_epik_Tot_Q>
0

> <i_epik_Tot_abs_Q>
0

> <r_epik_Metal_State_Penalty>
-0

> <b_epik_Metal_Only>
0

> <s_lp_Force_Field>
OPLS_2005

> <r_lp_Energy>
13.7929

> <b_lp_Chiralities_Consistent>
1

> <s_lp_Variant>
AV-unprocessed.smi:1982-3

> <Gold.Version>
5.8.1

> <Gold.Id.Protein>
6NUR|6NUR_protein|mol2

> <Gold.PLP.Fitness>
41.6080

> <Gold.PLP.PLP>
-36.6123

> <Gold.PLP.part.hbond>
-1.0000

> <Gold.PLP.part.metal>
0.0000

> <Gold.PLP.part.buried>
-5.0767

> <Gold.PLP.part.nonpolar>
-31.6005

> <Gold.PLP.part.repulsive>
1.2742

> <Gold.PLP.ligand.clash>
0.0000

> <Gold.PLP.ligand.torsion>
0.5060

> <Gold.PLP.Chemscore.Hbond>
1.0000

> <Gold.PLP.Chemscore.CHOScore>
1.0000

> <Gold.PLP.Chemscore.Metal>
0.0000

> <Gold.Chemscore.Hbonds>
donor molecule, donor type, donor heavy atom, donor atom, acceptor molecule, acceptor atom, score
      P1  H  7997  8008       L1     9  1.00
      L1  C    12    32       P1  7957  1.00

> <Gold.PLP.Chemscore.Internal.Correction>
0.0077

> <Gold.Rescore>
     Score         DG    S(hbond)    S(metal)    S(lipo)     H(rot)  DE(clash)    DE(int)     intcor
     12.03     -15.09       0.99        0.00      95.46       1.91       0.01       3.06       ----

> <Gold.Chemscore.Fitness>
12.0255

> <Gold.Chemscore.DG>
-15.0927

> <Gold.Chemscore.ZeroCoef>
-5.4800

> <Gold.Chemscore.Hbond>
0.9947

> <Gold.Chemscore.Metal>
0.0000

> <Gold.Chemscore.Lipo>
95.4629

> <Gold.Chemscore.Internal_Hbond>
0.0000

> <Gold.Chemscore.DEClash>
0.0074

> <Gold.Chemscore.DEInternal>
3.0598

> <Gold.Chemscore.Rot>
1.9058

> <Gold.Chemscore.Internal.Correction>
   9.000000E+99

> <Gold.Chemscore.Hbonds>
donor molecule, donor type, donor heavy atom, donor atom, acceptor molecule, acceptor atom, score
      P1  H  7997  8008       L1     9  0.99

> <Gold.Chemscore.Hbond.Weighted>
-3.3224

> <Gold.Chemscore.Metal.Weighted>
-0.0000

> <Gold.Chemscore.Lipo.Weighted>
-11.1692

> <Gold.Chemscore.Internal_Hbond.Weighted>
0.0000

> <Gold.Chemscore.DEClash.Weighted>
0.0074

> <Gold.Chemscore.DEInternal.Weighted>
3.0598

> <Gold.Chemscore.Rot.Weighted>
4.8788

> <Gold.Chemscore.Internal.Correction.Weighted>
   9.000000E+99

> <Gold.Protein.RotatedTorsions>
[ 6907 6896 6895 6894 ] final  -51.25 input  -60.11 | X-H torsion
[ 7974 7965 7964 7962 ] final  170.02 input  175.53 | X-H torsion
[ 8008 7997 7996 7995 ] final  -52.23 input   59.86 | X-H torsion
[ 10167 10162 10161 10158 ] final -146.40 input  -65.29 | X-H torsion
[ 10718 10713 10712 10709 ] final  -83.44 input   66.30 | X-H torsion
[ 10763 10752 10751 10750 ] final   -1.57 input  -60.55 | X-H torsion
[ 11005 11000 10999 10996 ] final -109.79 input  -57.11 | X-H torsion

> <Gold.Protein.ActiveResidues>
 VAL166  LYS551  ARG553  GLY616  TRP617  ASP618  TYR619  PRO620  LYS621  CYS622 
 ASP623  PHE694  ASN695  SER759  ASP760  ASP761  ALA762  ILE779  LEU786  VAL792 
 PHE793  MET794  SER795  GLU796  ALA797  LYS798  CYS799  TRP800  GLU811  SER814 

> <Gold.Protein.RotatedAtoms>
  150.8629  134.7986  159.7096 H   0  0  0  0  0  0  0  0  0  0  0  0  # atno 6907 bound_to 6896
  152.4660  134.5070  159.9752 H   0  0  0  0  0  0  0  0  0  0  0  0  # atno 6908 bound_to 6896
  151.5171  133.3435  159.2930 H   0  0  0  0  0  0  0  0  0  0  0  0  # atno 6909 bound_to 6896
  144.7336  139.9141  143.6416 H   0  0  0  0  0  0  0  0  0  0  0  0  # atno 7974 bound_to 7965
  154.4101  140.1229  156.4957 H   0  0  0  0  0  0  0  0  0  0  0  0  # atno 8008 bound_to 7997
  155.6945  140.3495  155.4888 H   0  0  0  0  0  0  0  0  0  0  0  0  # atno 8009 bound_to 7997
  155.9439  140.1092  157.1023 H   0  0  0  0  0  0  0  0  0  0  0  0  # atno 8010 bound_to 7997
  139.7716  143.8229  152.2625 H   0  0  0  0  0  0  0  0  0  0  0  0  # atno 10167 bound_to 10162
  156.0018  130.4666  150.4258 H   0  0  0  0  0  0  0  0  0  0  0  0  # atno 10718 bound_to 10713
  153.3466  135.6983  153.6823 H   0  0  0  0  0  0  0  0  0  0  0  0  # atno 10763 bound_to 10752
  153.5567  135.3543  155.2782 H   0  0  0  0  0  0  0  0  0  0  0  0  # atno 10764 bound_to 10752
  154.8646  135.4239  154.2691 H   0  0  0  0  0  0  0  0  0  0  0  0  # atno 10765 bound_to 10752
  141.0828  133.9190  157.2251 H   0  0  0  0  0  0  0  0  0  0  0  0  # atno 11005 bound_to 11000
  146.0979  139.3972  143.0365 LP  0  0  0  0  0  0  0  0  0  0  0  0  # atno 17320 bound_to 7965
  145.7620  140.9931  143.1195 LP  0  0  0  0  0  0  0  0  0  0  0  0  # atno 17321 bound_to 7965
  139.8265  144.7273  150.9505 LP  0  0  0  0  0  0  0  0  0  0  0  0  # atno 17342 bound_to 10162
  140.7814  143.4110  151.0993 LP  0  0  0  0  0  0  0  0  0  0  0  0  # atno 17343 bound_to 10162
  157.2311  131.0504  151.2492 LP  0  0  0  0  0  0  0  0  0  0  0  0  # atno 17370 bound_to 10713
  157.3710  130.7181  149.6565 LP  0  0  0  0  0  0  0  0  0  0  0  0  # atno 17371 bound_to 10713
  139.9643  135.0146  156.9345 LP  0  0  0  0  0  0  0  0  0  0  0  0  # atno 17394 bound_to 11000
  140.5430  134.0701  155.7347 LP  0  0  0  0  0  0  0  0  0  0  0  0  # atno 17395 bound_to 11000

$$$$
