AV-unprocessed.smi:1019|AV-procd|sdf|4451|dock9
  -GOLD-   22720 2423D 1   1.00000     0.00000
 Structure written by MMmdl.
 43 45  0  0  0  0  0  0  0  0  1 V2000
  145.0602  141.0969  155.8023 C   0  0  0  0  0  0  0  0  0  0  0  0
  146.1673  142.0063  155.5071 N   0  0  0  0  0  0  0  0  0  0  0  0
  145.8087  142.9355  154.4344 C   0  0  0  0  0  0  0  0  0  0  0  0
  144.8263  144.0164  154.8544 C   0  0  0  0  0  0  0  0  0  0  0  0
  144.2741  144.8864  153.8903 C   0  0  0  0  0  0  0  0  0  0  0  0
  143.3635  145.8881  154.2798 C   0  0  0  0  0  0  0  0  0  0  0  0
  143.0001  146.0220  155.6339 C   0  0  0  0  0  0  0  0  0  0  0  0
  143.5475  145.1541  156.5985 C   0  0  0  0  0  0  0  0  0  0  0  0
  144.4583  144.1524  156.2098 C   0  0  0  0  0  0  0  0  0  0  0  0
  147.3905  141.2775  155.1597 C   0  0  0  0  0  0  0  0  0  0  0  0
  148.7090  142.0673  155.2967 C   0  0  2  0  0  0  0  0  0  0  0  0
  148.8292  142.9453  154.1937 O   0  0  0  0  0  0  0  0  0  0  0  0
  149.9265  141.1237  155.3283 C   0  0  0  0  0  0  0  0  0  0  0  0
  150.6841  141.2294  156.5630 N   0  0  0  0  0  0  0  0  0  0  0  0
  150.9634  140.2349  157.4274 C   0  0  0  0  0  0  0  0  0  0  0  0
  151.6814  140.5450  158.5030 N   0  0  0  0  0  0  0  0  0  0  0  0
  151.8929  141.9002  158.3158 C   0  0  0  0  0  0  0  0  0  0  0  0
  152.5935  142.8366  159.1095 C   0  0  0  0  0  0  0  0  0  0  0  0
  152.6791  144.1874  158.7127 C   0  0  0  0  0  0  0  0  0  0  0  0
  152.0661  144.6222  157.5197 C   0  0  0  0  0  0  0  0  0  0  0  0
  151.3628  143.7077  156.7122 C   0  0  0  0  0  0  0  0  0  0  0  0
  151.2809  142.3602  157.1106 C   0  0  0  0  0  0  0  0  0  0  0  0
  145.2819  140.4598  156.6569 H   0  0  0  0  0  0  0  0  0  0  0  0
  144.8367  140.4573  154.9474 H   0  0  0  0  0  0  0  0  0  0  0  0
  144.1542  141.6475  156.0561 H   0  0  0  0  0  0  0  0  0  0  0  0
  146.7030  143.4483  154.0779 H   0  0  0  0  0  0  0  0  0  0  0  0
  145.4101  142.3863  153.5799 H   0  0  0  0  0  0  0  0  0  0  0  0
  144.5504  144.7882  152.8505 H   0  0  0  0  0  0  0  0  0  0  0  0
  142.9442  146.5532  153.5393 H   0  0  0  0  0  0  0  0  0  0  0  0
  142.3018  146.7899  155.9327 H   0  0  0  0  0  0  0  0  0  0  0  0
  143.2694  145.2564  157.6372 H   0  0  0  0  0  0  0  0  0  0  0  0
  144.8749  143.4916  156.9557 H   0  0  0  0  0  0  0  0  0  0  0  0
  147.4489  140.3767  155.7727 H   0  0  0  0  0  0  0  0  0  0  0  0
  147.3215  140.9248  154.1294 H   0  0  0  0  0  0  0  0  0  0  0  0
  148.7160  142.6608  156.2097 H   0  0  0  0  0  0  0  0  0  0  0  0
  148.9068  142.4301  153.4055 H   0  0  0  0  0  0  0  0  0  0  0  0
  149.6006  140.0884  155.2202 H   0  0  0  0  0  0  0  0  0  0  0  0
  150.5922  141.3278  154.4887 H   0  0  0  0  0  0  0  0  0  0  0  0
  150.6192  139.2252  157.2566 H   0  0  0  0  0  0  0  0  0  0  0  0
  153.0662  142.5149  160.0257 H   0  0  0  0  0  0  0  0  0  0  0  0
  153.2177  144.8936  159.3274 H   0  0  0  0  0  0  0  0  0  0  0  0
  152.1363  145.6589  157.2248 H   0  0  0  0  0  0  0  0  0  0  0  0
  150.8917  144.0382  155.7987 H   0  0  0  0  0  0  0  0  0  0  0  0
  1  2  1  0  0  0  0
  1 23  1  0  0  0  0
  1 24  1  0  0  0  0
  1 25  1  0  0  0  0
  2  3  1  0  0  0  0
  2 10  1  0  0  0  0
  3  4  1  0  0  0  0
  3 26  1  0  0  0  0
  3 27  1  0  0  0  0
  4  9  1  0  0  0  0
  4  5  2  0  0  0  0
  5  6  1  0  0  0  0
  5 28  1  0  0  0  0
  6  7  2  0  0  0  0
  6 29  1  0  0  0  0
  7  8  1  0  0  0  0
  7 30  1  0  0  0  0
  8  9  2  0  0  0  0
  8 31  1  0  0  0  0
  9 32  1  0  0  0  0
 10 11  1  0  0  0  0
 10 33  1  0  0  0  0
 10 34  1  0  0  0  0
 11 12  1  0  0  0  0
 11 13  1  0  0  0  0
 11 35  1  0  0  0  0
 12 36  1  0  0  0  0
 13 14  1  0  0  0  0
 13 37  1  0  0  0  0
 13 38  1  0  0  0  0
 14 22  1  0  0  0  0
 14 15  1  0  0  0  0
 15 16  2  0  0  0  0
 15 39  1  0  0  0  0
 16 17  1  0  0  0  0
 17 22  2  0  0  0  0
 17 18  1  0  0  0  0
 18 19  2  0  0  0  0
 18 40  1  0  0  0  0
 19 20  1  0  0  0  0
 19 41  1  0  0  0  0
 20 21  2  0  0  0  0
 20 42  1  0  0  0  0
 21 22  1  0  0  0  0
 21 43  1  0  0  0  0
M  END
> <s_m_source_file>
AV-unprocessed.smi

> <i_m_source_file_index>
1019

> <i_lp_mmshare_version>
43012

> <i_f3d_flags>
0

> <s_epik_input>
W2NIXTFbY0hdW2NIXVtjSF1bY0hdYzFbQ0gyXU4oW0NIM10pW0NIMl1bQ0BIXShbT0hdKVtDSDJdbihbY0hdbjIpYyhjMjMpW2NIXVtjSF1bY0hdW2NIXTM=

> <s_epik_cmdline>
J2VwaWtfcHl0aG9uJywgJy1waCcsICc3LjAnLCAnLXRuJywgJzgnLCAnLW1hJywgJzIwMCcsICctbWV0YWxfYmluZGluZycsICctaW1hZScsICc8aW5maWxlLm1hZT4nLCAnLW9tYWUnLCAnPG91dGZpbGUubWFlPic=

> <r_epik_Ionization_Penalty>
1.56741

> <r_epik_Ionization_Penalty_Charging>
0

> <r_epik_Ionization_Penalty_Neutral>
1.56741

> <r_epik_State_Penalty>
1.62466

> <r_epik_Charging_Adjusted_Penalty>
1.62466

> <i_epik_Tot_Q>
0

> <i_epik_Tot_abs_Q>
0

> <r_epik_Metal_State_Penalty>
1.58486

> <b_epik_Metal_Only>
0

> <s_lp_Force_Field>
OPLS_2005

> <r_lp_Energy>
24.0301

> <b_lp_Chiralities_Consistent>
1

> <s_lp_Variant>
AV-unprocessed.smi:1019-9

> <Gold.Version>
5.8.1

> <Gold.Id.Protein>
6NUR|6NUR_protein|mol2

> <Gold.PLP.Fitness>
44.2165

> <Gold.PLP.PLP>
-43.4925

> <Gold.PLP.part.hbond>
-2.0125

> <Gold.PLP.part.metal>
0.0000

> <Gold.PLP.part.buried>
-0.4973

> <Gold.PLP.part.nonpolar>
-41.8910

> <Gold.PLP.part.repulsive>
0.1297

> <Gold.PLP.ligand.clash>
0.0000

> <Gold.PLP.ligand.torsion>
1.2158

> <Gold.PLP.Chemscore.Hbond>
1.0000

> <Gold.PLP.Chemscore.CHOScore>
0.0000

> <Gold.PLP.Chemscore.Metal>
0.0000

> <Gold.Chemscore.Hbonds>
donor molecule, donor type, donor heavy atom, donor atom, acceptor molecule, acceptor atom, score
      P1  H  8022  8030       L1    12  1.00

> <Gold.PLP.Chemscore.Internal.Correction>
0.1556

> <Gold.Rescore>
     Score         DG    S(hbond)    S(metal)    S(lipo)     H(rot)  DE(clash)    DE(int)     intcor
     12.30     -17.04       0.47        0.00     134.96       2.27       2.30       2.44       ----

> <Gold.Chemscore.Fitness>
12.2973

> <Gold.Chemscore.DG>
-17.0439

> <Gold.Chemscore.ZeroCoef>
-5.4800

> <Gold.Chemscore.Hbond>
0.4720

> <Gold.Chemscore.Metal>
0.0000

> <Gold.Chemscore.Lipo>
134.9604

> <Gold.Chemscore.Internal_Hbond>
0.0000

> <Gold.Chemscore.DEClash>
2.3039

> <Gold.Chemscore.DEInternal>
2.4426

> <Gold.Chemscore.Rot>
2.2667

> <Gold.Chemscore.Internal.Correction>
   9.000000E+99

> <Gold.Chemscore.Hbonds>
donor molecule, donor type, donor heavy atom, donor atom, acceptor molecule, acceptor atom, score
      P1  H  8022  8030       L1    12  0.55

> <Gold.Chemscore.Hbond.Weighted>
-1.5764

> <Gold.Chemscore.Metal.Weighted>
-0.0000

> <Gold.Chemscore.Lipo.Weighted>
-15.7904

> <Gold.Chemscore.Internal_Hbond.Weighted>
0.0000

> <Gold.Chemscore.DEClash.Weighted>
2.3039

> <Gold.Chemscore.DEInternal.Weighted>
2.4426

> <Gold.Chemscore.Rot.Weighted>
5.8028

> <Gold.Chemscore.Internal.Correction.Weighted>
   9.000000E+99

> <Gold.Protein.RotatedTorsions>
[ 6907 6896 6895 6894 ] final  144.45 input  -60.11 | X-H torsion
[ 7974 7965 7964 7962 ] final -111.53 input  175.53 | X-H torsion
[ 8008 7997 7996 7995 ] final  -57.98 input   59.86 | X-H torsion
[ 10167 10162 10161 10158 ] final -167.24 input  -65.29 | X-H torsion
[ 10718 10713 10712 10709 ] final  -87.59 input   66.30 | X-H torsion
[ 10763 10752 10751 10750 ] final -147.31 input  -60.55 | X-H torsion
[ 11005 11000 10999 10996 ] final   25.29 input  -57.11 | X-H torsion

> <Gold.Protein.ActiveResidues>
 VAL166  LYS551  ARG553  GLY616  TRP617  ASP618  TYR619  PRO620  LYS621  CYS622 
 ASP623  PHE694  ASN695  SER759  ASP760  ASP761  ALA762  ILE779  LEU786  VAL792 
 PHE793  MET794  SER795  GLU796  ALA797  LYS798  CYS799  TRP800  GLU811  SER814 

> <Gold.Protein.RotatedAtoms>
  152.1935  133.4790  159.5020 H   0  0  0  0  0  0  0  0  0  0  0  0  # atno 6907 bound_to 6896
  150.6955  134.1682  159.4211 H   0  0  0  0  0  0  0  0  0  0  0  0  # atno 6908 bound_to 6896
  151.9597  135.0129  160.0597 H   0  0  0  0  0  0  0  0  0  0  0  0  # atno 6909 bound_to 6896
  145.1550  140.8849  143.3624 H   0  0  0  0  0  0  0  0  0  0  0  0  # atno 7974 bound_to 7965
  154.4290  140.1094  156.5884 H   0  0  0  0  0  0  0  0  0  0  0  0  # atno 8008 bound_to 7997
  155.6038  140.3493  155.4583 H   0  0  0  0  0  0  0  0  0  0  0  0  # atno 8009 bound_to 7997
  156.0152  140.1228  157.0403 H   0  0  0  0  0  0  0  0  0  0  0  0  # atno 8010 bound_to 7997
  139.6062  144.0908  152.1795 H   0  0  0  0  0  0  0  0  0  0  0  0  # atno 10167 bound_to 10162
  155.9985  130.4805  150.4891 H   0  0  0  0  0  0  0  0  0  0  0  0  # atno 10718 bound_to 10713
  154.8292  135.3363  154.6798 H   0  0  0  0  0  0  0  0  0  0  0  0  # atno 10763 bound_to 10752
  153.7420  135.6945  153.4969 H   0  0  0  0  0  0  0  0  0  0  0  0  # atno 10764 bound_to 10752
  153.2237  135.4440  155.0469 H   0  0  0  0  0  0  0  0  0  0  0  0  # atno 10765 bound_to 10752
  140.3495  134.2245  155.7681 H   0  0  0  0  0  0  0  0  0  0  0  0  # atno 11005 bound_to 11000
  145.0391  139.3276  143.5986 LP  0  0  0  0  0  0  0  0  0  0  0  0  # atno 17320 bound_to 7965
  146.3490  139.9757  142.8701 LP  0  0  0  0  0  0  0  0  0  0  0  0  # atno 17321 bound_to 7965
  140.0516  144.5928  150.7332 LP  0  0  0  0  0  0  0  0  0  0  0  0  # atno 17342 bound_to 10162
  140.7286  143.2664  151.4032 LP  0  0  0  0  0  0  0  0  0  0  0  0  # atno 17343 bound_to 10162
  157.2888  131.0622  151.2148 LP  0  0  0  0  0  0  0  0  0  0  0  0  # atno 17370 bound_to 10713
  157.3168  130.6917  149.6246 LP  0  0  0  0  0  0  0  0  0  0  0  0  # atno 17371 bound_to 10713
  141.2016  133.7958  157.0432 LP  0  0  0  0  0  0  0  0  0  0  0  0  # atno 17394 bound_to 11000
  140.0715  134.9699  157.1475 LP  0  0  0  0  0  0  0  0  0  0  0  0  # atno 17395 bound_to 11000

$$$$
