AV-unprocessed.smi:153|AV-procd|sdf|1262|dock1
  -GOLD-   2262018513D 1   1.00000     0.00000
 Structure written by MMmdl.
 59 62  0  0  0  0  0  0  0  0  1 V2000
  152.6707  143.8035  162.3518 C   0  0  0  0  0  0  0  0  0  0  0  0
  152.6983  144.3720  160.9246 C   0  0  2  0  0  0  0  0  0  0  0  0
  151.6143  145.2901  160.8049 O   0  0  0  0  0  0  0  0  0  0  0  0
  151.1611  145.2920  159.4627 C   0  0  0  0  0  0  0  0  0  0  0  0
  151.2278  143.8180  159.0941 C   0  0  0  0  0  0  0  0  0  0  0  0
  152.5210  143.3559  159.7603 C   0  0  1  0  0  0  0  0  0  0  0  0
  153.5805  143.5678  158.8416 O   0  0  0  0  0  0  0  0  0  0  0  0
  152.5189  141.8534  160.1464 C   0  0  0  0  0  0  0  0  0  0  0  0
  152.5624  140.9620  158.9967 N   0  0  0  0  0  0  0  0  0  0  0  0
  153.5630  140.0708  158.6802 C   0  0  0  0  0  0  0  0  0  0  0  0
  153.3683  139.3776  157.5920 N   0  0  0  0  0  0  0  0  0  0  0  0
  152.1377  139.8213  157.1237 C   0  0  0  0  0  0  0  0  0  0  0  0
  151.3209  139.4790  156.0101 C   0  0  0  0  0  0  0  0  0  0  0  0
  151.6841  138.5365  155.1042 N   0  0  0  0  0  0  0  0  0  0  0  0
  152.8997  138.8663  154.3695 C   0  0  0  0  0  0  0  0  0  0  0  0
  150.6471  137.7688  154.4107 C   0  0  0  0  0  0  0  0  0  0  0  0
  150.0237  136.6505  155.2753 C   0  0  1  0  0  0  0  0  0  0  0  0
  148.7715  136.3383  154.7022 O   0  0  0  0  0  0  0  0  0  0  0  0
  150.8799  135.3610  155.2989 C   0  0  0  0  0  0  0  0  0  0  0  0
  150.3036  134.2391  156.0418 N   0  0  0  0  0  0  0  0  0  0  0  0
  149.5776  134.6756  157.2338 C   0  0  0  0  0  0  0  0  0  0  0  0
  149.0154  133.4922  158.0388 C   0  0  0  0  0  0  0  0  0  0  0  0
  150.0727  132.6046  158.3864 O   0  0  0  0  0  0  0  0  0  0  0  0
  150.7711  132.1139  157.2470 C   0  0  0  0  0  0  0  0  0  0  0  0
  151.3422  133.2965  156.4453 C   0  0  0  0  0  0  0  0  0  0  0  0
  150.1371  140.1336  155.8760 N   0  0  0  0  0  0  0  0  0  0  0  0
  149.7695  141.0520  156.7740 C   0  0  0  0  0  0  0  0  0  0  0  0
  150.4225  141.4623  157.8630 N   0  0  0  0  0  0  0  0  0  0  0  0
  151.6143  140.8136  157.9993 C   0  0  0  0  0  0  0  0  0  0  0  0
  153.4823  143.0943  162.5148 H   0  0  0  0  0  0  0  0  0  0  0  0
  151.7274  143.3001  162.5647 H   0  0  0  0  0  0  0  0  0  0  0  0
  152.7851  144.6024  163.0850 H   0  0  0  0  0  0  0  0  0  0  0  0
  153.6240  144.9369  160.7986 H   0  0  0  0  0  0  0  0  0  0  0  0
  150.1559  145.7047  159.3766 H   0  0  0  0  0  0  0  0  0  0  0  0
  151.8359  145.8855  158.8441 H   0  0  0  0  0  0  0  0  0  0  0  0
  150.3729  143.3091  159.5407 H   0  0  0  0  0  0  0  0  0  0  0  0
  151.1954  143.6399  158.0182 H   0  0  0  0  0  0  0  0  0  0  0  0
  153.6101  142.8360  158.2444 H   0  0  0  0  0  0  0  0  0  0  0  0
  153.3701  141.6221  160.7881 H   0  0  0  0  0  0  0  0  0  0  0  0
  151.6250  141.6076  160.7200 H   0  0  0  0  0  0  0  0  0  0  0  0
  154.4504  139.9520  159.2848 H   0  0  0  0  0  0  0  0  0  0  0  0
  153.0141  139.9447  154.2477 H   0  0  0  0  0  0  0  0  0  0  0  0
  152.8948  138.4202  153.3747 H   0  0  0  0  0  0  0  0  0  0  0  0
  153.7729  138.4862  154.9000 H   0  0  0  0  0  0  0  0  0  0  0  0
  149.8717  138.4539  154.0650 H   0  0  0  0  0  0  0  0  0  0  0  0
  151.0782  137.3237  153.5130 H   0  0  0  0  0  0  0  0  0  0  0  0
  149.8207  137.0136  156.2815 H   0  0  0  0  0  0  0  0  0  0  0  0
  148.8609  136.3600  153.7616 H   0  0  0  0  0  0  0  0  0  0  0  0
  151.0776  135.0502  154.2716 H   0  0  0  0  0  0  0  0  0  0  0  0
  151.8649  135.5825  155.7126 H   0  0  0  0  0  0  0  0  0  0  0  0
  150.2374  135.2632  157.8740 H   0  0  0  0  0  0  0  0  0  0  0  0
  148.7488  135.3253  156.9581 H   0  0  0  0  0  0  0  0  0  0  0  0
  148.5349  133.8504  158.9496 H   0  0  0  0  0  0  0  0  0  0  0  0
  148.2572  132.9592  157.4633 H   0  0  0  0  0  0  0  0  0  0  0  0
  151.5752  131.4564  157.5779 H   0  0  0  0  0  0  0  0  0  0  0  0
  150.1001  131.5152  156.6292 H   0  0  0  0  0  0  0  0  0  0  0  0
  151.8585  132.9156  155.5635 H   0  0  0  0  0  0  0  0  0  0  0  0
  152.0932  133.8092  157.0486 H   0  0  0  0  0  0  0  0  0  0  0  0
  148.8145  141.5238  156.5959 H   0  0  0  0  0  0  0  0  0  0  0  0
  1  2  1  0  0  0  0
  1 30  1  0  0  0  0
  1 31  1  0  0  0  0
  1 32  1  0  0  0  0
  2  6  1  0  0  0  0
  2  3  1  0  0  0  0
  2 33  1  0  0  0  0
  3  4  1  0  0  0  0
  4  5  1  0  0  0  0
  4 34  1  0  0  0  0
  4 35  1  0  0  0  0
  5  6  1  0  0  0  0
  5 36  1  0  0  0  0
  5 37  1  0  0  0  0
  6  7  1  0  0  0  0
  6  8  1  0  0  0  0
  7 38  1  0  0  0  0
  8  9  1  0  0  0  0
  8 39  1  0  0  0  0
  8 40  1  0  0  0  0
  9 29  1  0  0  0  0
  9 10  1  0  0  0  0
 10 11  2  0  0  0  0
 10 41  1  0  0  0  0
 11 12  1  0  0  0  0
 12 29  2  0  0  0  0
 12 13  1  0  0  0  0
 13 14  1  0  0  0  0
 13 26  2  0  0  0  0
 14 15  1  0  0  0  0
 14 16  1  0  0  0  0
 15 42  1  0  0  0  0
 15 43  1  0  0  0  0
 15 44  1  0  0  0  0
 16 17  1  0  0  0  0
 16 45  1  0  0  0  0
 16 46  1  0  0  0  0
 17 18  1  0  0  0  0
 17 19  1  0  0  0  0
 17 47  1  0  0  0  0
 18 48  1  0  0  0  0
 19 20  1  0  0  0  0
 19 49  1  0  0  0  0
 19 50  1  0  0  0  0
 20 25  1  0  0  0  0
 20 21  1  0  0  0  0
 21 22  1  0  0  0  0
 21 51  1  0  0  0  0
 21 52  1  0  0  0  0
 22 23  1  0  0  0  0
 22 53  1  0  0  0  0
 22 54  1  0  0  0  0
 23 24  1  0  0  0  0
 24 25  1  0  0  0  0
 24 55  1  0  0  0  0
 24 56  1  0  0  0  0
 25 57  1  0  0  0  0
 25 58  1  0  0  0  0
 26 27  1  0  0  0  0
 27 28  2  0  0  0  0
 27 59  1  0  0  0  0
 28 29  1  0  0  0  0
M  END
> <s_m_source_file>
AV-unprocessed.smi

> <i_m_source_file_index>
153

> <i_lp_mmshare_version>
43012

> <i_f3d_flags>
0

> <s_epik_input>
W0NIMl0xW0NIMl1PW0NAQEhdKFtDSDNdKVtDQEBdMShbT0hdKVtDSDJdbihbY0hdbjIpYyhjMjMpbltjSF1uYzNOKFtDSDNdKVtDSDJdW0NASF0oW09IXSlbQ0gyXU40W0NIMl1bQ0gyXU9bQ0gyXVtDSDJdNA==

> <s_epik_cmdline>
J2VwaWtfcHl0aG9uJywgJy1waCcsICc3LjAnLCAnLXRuJywgJzgnLCAnLW1hJywgJzIwMCcsICctbWV0YWxfYmluZGluZycsICctaW1hZScsICc8aW5maWxlLm1hZT4nLCAnLW9tYWUnLCAnPG91dGZpbGUubWFlPic=

> <r_lp_tautomer_probability>
1

> <r_epik_Ionization_Penalty>
0.424123

> <r_epik_Ionization_Penalty_Charging>
0

> <r_epik_Ionization_Penalty_Neutral>
0.424123

> <r_epik_State_Penalty>
0.421495

> <r_epik_Charging_Adjusted_Penalty>
0.421495

> <i_epik_Tot_Q>
0

> <i_epik_Tot_abs_Q>
0

> <r_epik_Metal_State_Penalty>
0.421223

> <b_epik_Metal_Only>
0

> <s_lp_Force_Field>
OPLS_2005

> <r_lp_Energy>
51.9128

> <b_lp_Chiralities_Consistent>
1

> <s_lp_Variant>
AV-unprocessed.smi:153-13

> <Gold.Version>
5.8.1

> <Gold.Id.Protein>
6NUR|6NUR_protein|mol2

> <Gold.PLP.Fitness>
52.4190

> <Gold.PLP.PLP>
-45.1156

> <Gold.PLP.part.hbond>
-3.0000

> <Gold.PLP.part.metal>
0.0000

> <Gold.PLP.part.buried>
-3.6883

> <Gold.PLP.part.nonpolar>
-39.6933

> <Gold.PLP.part.repulsive>
0.9856

> <Gold.PLP.ligand.clash>
0.0000

> <Gold.PLP.ligand.torsion>
1.5429

> <Gold.PLP.Chemscore.Hbond>
3.0000

> <Gold.PLP.Chemscore.CHOScore>
0.0000

> <Gold.PLP.Chemscore.Metal>
0.0000

> <Gold.Chemscore.Hbonds>
donor molecule, donor type, donor heavy atom, donor atom, acceptor molecule, acceptor atom, score
      L1  H    18    48       P1  7948  1.00
      P1  H  6896  6909       L1    23  0.85
      P1  H  7997  8008       L1    11  0.95

> <Gold.PLP.Chemscore.Internal.Correction>
1.3892

> <Gold.Rescore>
     Score         DG    S(hbond)    S(metal)    S(lipo)     H(rot)  DE(clash)    DE(int)     intcor
      9.97     -13.53       1.10        0.00     114.27       3.52       0.55       3.01       ----

> <Gold.Chemscore.Fitness>
9.9700

> <Gold.Chemscore.DG>
-13.5255

> <Gold.Chemscore.ZeroCoef>
-5.4800

> <Gold.Chemscore.Hbond>
1.1017

> <Gold.Chemscore.Metal>
0.0000

> <Gold.Chemscore.Lipo>
114.2679

> <Gold.Chemscore.Internal_Hbond>
0.0000

> <Gold.Chemscore.DEClash>
0.5463

> <Gold.Chemscore.DEInternal>
3.0092

> <Gold.Chemscore.Rot>
3.5170

> <Gold.Chemscore.Internal.Correction>
   9.000000E+99

> <Gold.Chemscore.Hbonds>
donor molecule, donor type, donor heavy atom, donor atom, acceptor molecule, acceptor atom, score
      L1  H    18    48       P1  7948  1.00
      P1  H  6896  6909       L1    23  0.12
      P1  H  7997  8008       L1    11  0.09

> <Gold.Chemscore.Hbond.Weighted>
-3.6797

> <Gold.Chemscore.Metal.Weighted>
-0.0000

> <Gold.Chemscore.Lipo.Weighted>
-13.3693

> <Gold.Chemscore.Internal_Hbond.Weighted>
0.0000

> <Gold.Chemscore.DEClash.Weighted>
0.5463

> <Gold.Chemscore.DEInternal.Weighted>
3.0092

> <Gold.Chemscore.Rot.Weighted>
9.0036

> <Gold.Chemscore.Internal.Correction.Weighted>
   9.000000E+99

> <Gold.Protein.RotatedTorsions>
[ 6907 6896 6895 6894 ] final   -9.71 input  -60.11 | X-H torsion
[ 7974 7965 7964 7962 ] final  124.27 input  175.53 | X-H torsion
[ 8008 7997 7996 7995 ] final  -61.36 input   59.86 | X-H torsion
[ 10167 10162 10161 10158 ] final -134.06 input  -65.29 | X-H torsion
[ 10718 10713 10712 10709 ] final  117.45 input   66.30 | X-H torsion
[ 10763 10752 10751 10750 ] final -174.08 input  -60.55 | X-H torsion
[ 11005 11000 10999 10996 ] final   11.52 input  -57.11 | X-H torsion

> <Gold.Protein.ActiveResidues>
 VAL166  LYS551  ARG553  GLY616  TRP617  ASP618  TYR619  PRO620  LYS621  CYS622 
 ASP623  PHE694  ASN695  SER759  ASP760  ASP761  ALA762  ILE779  LEU786  VAL792 
 PHE793  MET794  SER795  GLU796  ALA797  LYS798  CYS799  TRP800  GLU811  SER814 

> <Gold.Protein.RotatedAtoms>
  151.4135  135.0988  159.9591 H   0  0  0  0  0  0  0  0  0  0  0  0  # atno 6907 bound_to 6896
  152.5012  133.8775  159.7340 H   0  0  0  0  0  0  0  0  0  0  0  0  # atno 6908 bound_to 6896
  150.9275  133.6749  159.2846 H   0  0  0  0  0  0  0  0  0  0  0  0  # atno 6909 bound_to 6896
  145.0863  139.3619  143.4883 H   0  0  0  0  0  0  0  0  0  0  0  0  # atno 7974 bound_to 7965
  154.4444  140.1019  156.6418 H   0  0  0  0  0  0  0  0  0  0  0  0  # atno 8008 bound_to 7997
  155.5493  140.3485  155.4446 H   0  0  0  0  0  0  0  0  0  0  0  0  # atno 8009 bound_to 7997
  156.0541  140.1311  157.0006 H   0  0  0  0  0  0  0  0  0  0  0  0  # atno 8010 bound_to 7997
  139.8919  143.6712  152.2610 H   0  0  0  0  0  0  0  0  0  0  0  0  # atno 10167 bound_to 10162
  157.6095  131.1037  150.7617 H   0  0  0  0  0  0  0  0  0  0  0  0  # atno 10718 bound_to 10713
  154.6004  135.2854  155.0541 H   0  0  0  0  0  0  0  0  0  0  0  0  # atno 10763 bound_to 10752
  154.1808  135.6457  153.5037 H   0  0  0  0  0  0  0  0  0  0  0  0  # atno 10764 bound_to 10752
  153.0155  135.5423  154.6721 H   0  0  0  0  0  0  0  0  0  0  0  0  # atno 10765 bound_to 10752
  140.5023  134.0734  155.7797 H   0  0  0  0  0  0  0  0  0  0  0  0  # atno 11005 bound_to 11000
  146.3531  140.0677  142.8625 LP  0  0  0  0  0  0  0  0  0  0  0  0  # atno 17320 bound_to 7965
  145.1118  140.9409  143.4652 LP  0  0  0  0  0  0  0  0  0  0  0  0  # atno 17321 bound_to 7965
  139.7102  144.7621  151.1125 LP  0  0  0  0  0  0  0  0  0  0  0  0  # atno 17342 bound_to 10162
  140.7725  143.5341  150.9389 LP  0  0  0  0  0  0  0  0  0  0  0  0  # atno 17343 bound_to 10162
  156.7997  130.4917  149.5371 LP  0  0  0  0  0  0  0  0  0  0  0  0  # atno 17370 bound_to 10713
  156.1193  130.6098  151.0169 LP  0  0  0  0  0  0  0  0  0  0  0  0  # atno 17371 bound_to 10713
  141.1429  133.9106  157.2284 LP  0  0  0  0  0  0  0  0  0  0  0  0  # atno 17394 bound_to 11000
  139.9706  135.0129  156.9503 LP  0  0  0  0  0  0  0  0  0  0  0  0  # atno 17395 bound_to 11000

$$$$
