AV-unprocessed.smi:3342|AV-procd|sdf|12890|dock7
  -GOLD-   2272019293D 1   1.00000     0.00000
 Structure written by MMmdl.
 41 42  0  0  0  0  0  0  0  0  1 V2000
  147.3361  135.8109  156.3351 C   0  0  0  0  0  0  0  0  0  0  0  0
  147.8976  136.6712  155.1923 C   0  0  1  0  0  0  0  0  0  0  0  0
  149.3850  136.3643  154.9348 C   0  0  0  0  0  0  0  0  0  0  0  0
  150.2072  137.5601  154.9588 N   0  0  0  0  0  0  0  0  0  0  0  0
  151.1926  137.8819  155.8833 C   0  0  0  0  0  0  0  0  0  0  0  0
  151.7027  139.1030  155.5043 C   0  0  0  0  0  0  0  0  0  0  0  0
  151.0490  139.5489  154.3580 N   0  0  0  0  0  0  0  0  0  0  0  0
  150.1775  138.5838  154.0947 C   0  0  0  0  0  0  0  0  0  0  0  0
  147.1265  136.4474  153.9717 N   0  0  0  0  0  0  0  0  0  0  0  0
  145.7877  136.4876  153.8665 C   0  0  0  0  0  0  0  0  0  0  0  0
  145.0605  136.6882  154.8404 O   0  0  0  0  0  0  0  0  0  0  0  0
  145.3128  136.2950  152.6097 N   0  0  0  0  0  0  0  0  0  0  0  0
  146.0966  135.8853  151.4318 C   0  0  0  0  0  0  0  0  0  0  0  0
  145.7453  134.4269  151.0880 C   0  0  0  0  0  0  0  0  0  0  0  0
  144.2267  134.2644  150.8413 C   0  0  0  0  0  0  0  0  0  0  0  0
  143.8575  132.7902  150.6288 C   0  0  0  0  0  0  0  0  0  0  0  0
  142.5884  132.5196  150.3136 N   0  0  0  0  0  0  0  0  0  0  0  0
  144.7038  131.9058  150.7460 O   0  0  0  0  0  0  0  0  0  0  0  0
  143.4116  134.8810  152.0027 C   0  0  0  0  0  0  0  0  0  0  0  0
  143.8764  136.3170  152.3074 C   0  0  0  0  0  0  0  0  0  0  0  0
  147.8915  135.9762  157.2584 H   0  0  0  0  0  0  0  0  0  0  0  0
  147.3943  134.7481  156.0977 H   0  0  0  0  0  0  0  0  0  0  0  0
  146.2912  136.0507  156.5349 H   0  0  0  0  0  0  0  0  0  0  0  0
  147.8142  137.7203  155.4828 H   0  0  0  0  0  0  0  0  0  0  0  0
  149.7649  135.6790  155.6937 H   0  0  0  0  0  0  0  0  0  0  0  0
  149.5149  135.8680  153.9718 H   0  0  0  0  0  0  0  0  0  0  0  0
  151.4443  137.2325  156.7089 H   0  0  0  0  0  0  0  0  0  0  0  0
  152.4836  139.6902  155.9648 H   0  0  0  0  0  0  0  0  0  0  0  0
  149.5031  138.6211  153.2516 H   0  0  0  0  0  0  0  0  0  0  0  0
  147.6549  136.2739  153.1293 H   0  0  0  0  0  0  0  0  0  0  0  0
  145.8447  136.5352  150.5925 H   0  0  0  0  0  0  0  0  0  0  0  0
  147.1746  135.9875  151.5567 H   0  0  0  0  0  0  0  0  0  0  0  0
  146.3028  134.1137  150.2044 H   0  0  0  0  0  0  0  0  0  0  0  0
  146.0700  133.7796  151.9044 H   0  0  0  0  0  0  0  0  0  0  0  0
  143.9778  134.8166  149.9333 H   0  0  0  0  0  0  0  0  0  0  0  0
  142.2980  131.5646  150.1624 H   0  0  0  0  0  0  0  0  0  0  0  0
  141.9231  133.2739  150.2259 H   0  0  0  0  0  0  0  0  0  0  0  0
  142.3498  134.8845  151.7537 H   0  0  0  0  0  0  0  0  0  0  0  0
  143.5148  134.2746  152.9044 H   0  0  0  0  0  0  0  0  0  0  0  0
  143.2789  136.7350  153.1187 H   0  0  0  0  0  0  0  0  0  0  0  0
  143.6960  136.9620  151.4462 H   0  0  0  0  0  0  0  0  0  0  0  0
  1  2  1  0  0  0  0
  1 21  1  0  0  0  0
  1 22  1  0  0  0  0
  1 23  1  0  0  0  0
  2  3  1  0  0  0  0
  2  9  1  0  0  0  0
  2 24  1  0  0  0  0
  3  4  1  0  0  0  0
  3 25  1  0  0  0  0
  3 26  1  0  0  0  0
  4  8  1  0  0  0  0
  4  5  1  0  0  0  0
  5  6  2  0  0  0  0
  5 27  1  0  0  0  0
  6  7  1  0  0  0  0
  6 28  1  0  0  0  0
  7  8  2  0  0  0  0
  8 29  1  0  0  0  0
  9 10  1  0  0  0  0
  9 30  1  0  0  0  0
 10 11  2  0  0  0  0
 10 12  1  0  0  0  0
 12 20  1  0  0  0  0
 12 13  1  0  0  0  0
 13 14  1  0  0  0  0
 13 31  1  0  0  0  0
 13 32  1  0  0  0  0
 14 15  1  0  0  0  0
 14 33  1  0  0  0  0
 14 34  1  0  0  0  0
 15 16  1  0  0  0  0
 15 19  1  0  0  0  0
 15 35  1  0  0  0  0
 16 17  1  0  0  0  0
 16 18  2  0  0  0  0
 17 36  1  0  0  0  0
 17 37  1  0  0  0  0
 19 20  1  0  0  0  0
 19 38  1  0  0  0  0
 19 39  1  0  0  0  0
 20 40  1  0  0  0  0
 20 41  1  0  0  0  0
M  END
> <s_m_source_file>
AV-unprocessed.smi

> <i_m_source_file_index>
3342

> <i_lp_mmshare_version>
43012

> <i_f3d_flags>
0

> <s_epik_input>
W2NIXTFuW2NIXVtjSF1uMVtDSDJdW0NAQEhdKFtDSDNdKVtOSF1DKD1PKU4yW0NIMl1bQ0gyXVtDSF0oQyg9TylbTkgyXSlbQ0gyXVtDSDJdMg==

> <s_epik_cmdline>
J2VwaWtfcHl0aG9uJywgJy1waCcsICc3LjAnLCAnLXRuJywgJzgnLCAnLW1hJywgJzIwMCcsICctbWV0YWxfYmluZGluZycsICctaW1hZScsICc8aW5maWxlLm1hZT4nLCAnLW9tYWUnLCAnPG91dGZpbGUubWFlPic=

> <r_lp_tautomer_probability>
1

> <r_epik_Ionization_Penalty>
0.624431

> <r_epik_Ionization_Penalty_Charging>
0.624374

> <r_epik_Ionization_Penalty_Neutral>
5.67186e-05

> <r_epik_State_Penalty>
0.640677

> <r_epik_Charging_Adjusted_Penalty>
1.26505

> <i_epik_Tot_Q>
0

> <i_epik_Tot_abs_Q>
0

> <r_epik_Metal_State_Penalty>
0.307574

> <b_epik_Metal_Only>
0

> <s_lp_Force_Field>
OPLS_2005

> <r_lp_Energy>
30.3525

> <b_lp_Chiralities_Consistent>
1

> <s_lp_Variant>
AV-unprocessed.smi:3342-4

> <Gold.Version>
5.8.1

> <Gold.Id.Protein>
6NUR|6NUR_protein|mol2

> <Gold.PLP.Fitness>
41.3073

> <Gold.PLP.PLP>
-27.3710

> <Gold.PLP.part.hbond>
-4.0000

> <Gold.PLP.part.metal>
0.0000

> <Gold.PLP.part.buried>
-2.6576

> <Gold.PLP.part.nonpolar>
-21.3800

> <Gold.PLP.part.repulsive>
0.3748

> <Gold.PLP.ligand.clash>
0.0000

> <Gold.PLP.ligand.torsion>
0.8623

> <Gold.PLP.Chemscore.Hbond>
3.9120

> <Gold.PLP.Chemscore.CHOScore>
1.2784

> <Gold.PLP.Chemscore.Metal>
0.0000

> <Gold.Chemscore.Hbonds>
donor molecule, donor type, donor heavy atom, donor atom, acceptor molecule, acceptor atom, score
      L1  H     9    30       P1  7948  1.00
      L1  H    17    36       P1 10952  0.91
      L1  H    17    37       P1 10186  1.00
      P1  H  7989  7998       L1     7  1.00
      L1  C     8    29       P1  7948  0.29
      L1  C     8    29       P1  7957  1.00

> <Gold.PLP.Chemscore.Internal.Correction>
0.0897

> <Gold.Rescore>
     Score         DG    S(hbond)    S(metal)    S(lipo)     H(rot)  DE(clash)    DE(int)     intcor
     14.35     -17.33       3.78        0.00      43.19       2.28       0.85       2.13       ----

> <Gold.Chemscore.Fitness>
14.3476

> <Gold.Chemscore.DG>
-17.3302

> <Gold.Chemscore.ZeroCoef>
-5.4800

> <Gold.Chemscore.Hbond>
3.7794

> <Gold.Chemscore.Metal>
0.0000

> <Gold.Chemscore.Lipo>
43.1865

> <Gold.Chemscore.Internal_Hbond>
0.0000

> <Gold.Chemscore.DEClash>
0.8506

> <Gold.Chemscore.DEInternal>
2.1321

> <Gold.Chemscore.Rot>
2.2757

> <Gold.Chemscore.Internal.Correction>
   9.000000E+99

> <Gold.Chemscore.Hbonds>
donor molecule, donor type, donor heavy atom, donor atom, acceptor molecule, acceptor atom, score
      L1  H     9    30       P1  7948  1.00
      L1  H    17    36       P1 10952  0.67
      L1  H    17    37       P1 10186  0.99
      P1  H  7989  7998       L1     7  0.98

> <Gold.Chemscore.Hbond.Weighted>
-12.6233

> <Gold.Chemscore.Metal.Weighted>
-0.0000

> <Gold.Chemscore.Lipo.Weighted>
-5.0528

> <Gold.Chemscore.Internal_Hbond.Weighted>
0.0000

> <Gold.Chemscore.DEClash.Weighted>
0.8506

> <Gold.Chemscore.DEInternal.Weighted>
2.1321

> <Gold.Chemscore.Rot.Weighted>
5.8259

> <Gold.Chemscore.Internal.Correction.Weighted>
   9.000000E+99

> <Gold.Protein.RotatedTorsions>
[ 6907 6896 6895 6894 ] final  -23.91 input  -60.11 | X-H torsion
[ 7974 7965 7964 7962 ] final   -3.67 input  175.53 | X-H torsion
[ 8008 7997 7996 7995 ] final  177.42 input   59.86 | X-H torsion
[ 10167 10162 10161 10158 ] final   22.04 input  -65.29 | X-H torsion
[ 10718 10713 10712 10709 ] final   15.57 input   66.30 | X-H torsion
[ 10763 10752 10751 10750 ] final -173.44 input  -60.55 | X-H torsion
[ 11005 11000 10999 10996 ] final  154.95 input  -57.11 | X-H torsion

> <Gold.Protein.ActiveResidues>
 VAL166  LYS551  ARG553  GLY616  TRP617  ASP618  TYR619  PRO620  LYS621  CYS622 
 ASP623  PHE694  ASN695  SER759  ASP760  ASP761  ALA762  ILE779  LEU786  VAL792 
 PHE793  MET794  SER795  GLU796  ALA797  LYS798  CYS799  TRP800  GLU811  SER814 

> <Gold.Protein.RotatedAtoms>
  151.1971  135.0427  159.8856 H   0  0  0  0  0  0  0  0  0  0  0  0  # atno 6907 bound_to 6896
  152.5435  134.0891  159.8279 H   0  0  0  0  0  0  0  0  0  0  0  0  # atno 6908 bound_to 6896
  151.1027  133.5184  159.2641 H   0  0  0  0  0  0  0  0  0  0  0  0  # atno 6909 bound_to 6896
  146.2386  140.1756  142.8332 H   0  0  0  0  0  0  0  0  0  0  0  0  # atno 7974 bound_to 7965
  156.0658  140.1359  156.9887 H   0  0  0  0  0  0  0  0  0  0  0  0  # atno 8008 bound_to 7997
  154.4505  140.0982  156.6656 H   0  0  0  0  0  0  0  0  0  0  0  0  # atno 8009 bound_to 7997
  155.5306  140.3458  155.4427 H   0  0  0  0  0  0  0  0  0  0  0  0  # atno 8010 bound_to 7997
  140.5380  143.9727  150.6502 H   0  0  0  0  0  0  0  0  0  0  0  0  # atno 10167 bound_to 10162
  157.0554  130.6287  149.5776 H   0  0  0  0  0  0  0  0  0  0  0  0  # atno 10718 bound_to 10713
  154.6078  135.2861  155.0466 H   0  0  0  0  0  0  0  0  0  0  0  0  # atno 10763 bound_to 10752
  154.1707  135.6473  153.5012 H   0  0  0  0  0  0  0  0  0  0  0  0  # atno 10764 bound_to 10752
  153.0182  135.5400  154.6820 H   0  0  0  0  0  0  0  0  0  0  0  0  # atno 10765 bound_to 10752
  140.1536  134.8658  157.2486 H   0  0  0  0  0  0  0  0  0  0  0  0  # atno 11005 bound_to 11000
  144.9976  140.8603  143.5301 LP  0  0  0  0  0  0  0  0  0  0  0  0  # atno 17320 bound_to 7965
  145.1770  139.2372  143.5312 LP  0  0  0  0  0  0  0  0  0  0  0  0  # atno 17321 bound_to 7965
  140.3120  143.3192  152.0869 LP  0  0  0  0  0  0  0  0  0  0  0  0  # atno 17342 bound_to 10162
  139.4978  144.6630  151.6421 LP  0  0  0  0  0  0  0  0  0  0  0  0  # atno 17343 bound_to 10162
  155.9995  130.5071  150.7608 LP  0  0  0  0  0  0  0  0  0  0  0  0  # atno 17370 bound_to 10713
  157.4997  131.0917  151.0329 LP  0  0  0  0  0  0  0  0  0  0  0  0  # atno 17371 bound_to 10713
  140.2574  134.3611  155.7419 LP  0  0  0  0  0  0  0  0  0  0  0  0  # atno 17394 bound_to 11000
  141.2202  133.7350  156.9028 LP  0  0  0  0  0  0  0  0  0  0  0  0  # atno 17395 bound_to 11000

$$$$
