AV-unprocessed.smi:1692|AV-procd|sdf|6779|dock1
  -GOLD-   22720 7533D 1   1.00000     0.00000
 Structure written by MMmdl.
 46 47  0  0  0  0  0  0  0  0  2 V2000
  150.2435  134.6068  155.9077 C   0  0  0  0  0  0  0  0  0  0  0  0
  150.2763  135.8211  154.9729 C   0  0  1  0  0  0  0  0  0  0  0  0
  148.9837  136.6546  155.0571 C   0  0  0  0  0  0  0  0  0  0  0  0
  149.0833  137.8578  154.1975 N   0  3  1  0  0  0  0  0  0  0  0  0
  147.8334  138.6586  154.1966 C   0  0  0  0  0  0  0  0  0  0  0  0
  148.0793  140.1311  153.8269 C   0  0  0  0  0  0  0  0  0  0  0  0
  147.4335  141.0996  154.8319 C   0  0  0  0  0  0  0  0  0  0  0  0
  148.4200  141.9854  155.4398 N   0  0  0  0  0  0  0  0  0  0  0  0
  149.2796  141.6292  156.4058 C   0  0  0  0  0  0  0  0  0  0  0  0
  149.3334  140.4926  156.8771 O   0  0  0  0  0  0  0  0  0  0  0  0
  150.0563  142.6634  156.7737 N   0  0  0  0  0  0  0  0  0  0  0  0
  151.0749  142.6873  157.7635 C   0  0  0  0  0  0  0  0  0  0  0  0
  151.6994  143.9414  157.9500 C   0  0  0  0  0  0  0  0  0  0  0  0
  152.7216  144.0705  158.9102 C   0  0  0  0  0  0  0  0  0  0  0  0
  153.0924  142.9413  159.6615 C   0  0  0  0  0  0  0  0  0  0  0  0
  152.4205  141.7302  159.4135 C   0  0  0  0  0  0  0  0  0  0  0  0
  151.4418  141.6037  158.4926 N   0  0  0  0  0  0  0  0  0  0  0  0
  150.2916  138.6430  154.5507 C   0  0  0  0  0  0  0  0  0  0  0  0
  151.5502  137.7572  154.4810 C   0  0  1  0  0  0  0  0  0  0  0  0
  152.8128  138.5097  154.9156 C   0  0  0  0  0  0  0  0  0  0  0  0
  151.3808  136.6383  155.3447 O   0  0  0  0  0  0  0  0  0  0  0  0
  149.4157  133.9423  155.6591 H   0  0  0  0  0  0  0  0  0  0  0  0
  150.1277  134.9117  156.9479 H   0  0  0  0  0  0  0  0  0  0  0  0
  151.1660  134.0308  155.8309 H   0  0  0  0  0  0  0  0  0  0  0  0
  150.4199  135.4670  153.9504 H   0  0  0  0  0  0  0  0  0  0  0  0
  148.1351  136.0461  154.7419 H   0  0  0  0  0  0  0  0  0  0  0  0
  148.7954  136.9591  156.0880 H   0  0  0  0  0  0  0  0  0  0  0  0
  147.1434  138.2381  153.4635 H   0  0  0  0  0  0  0  0  0  0  0  0
  147.3390  138.5792  155.1660 H   0  0  0  0  0  0  0  0  0  0  0  0
  149.1495  140.3302  153.7779 H   0  0  0  0  0  0  0  0  0  0  0  0
  147.6827  140.3267  152.8297 H   0  0  0  0  0  0  0  0  0  0  0  0
  146.6905  141.7182  154.3281 H   0  0  0  0  0  0  0  0  0  0  0  0
  146.9018  140.5471  155.6086 H   0  0  0  0  0  0  0  0  0  0  0  0
  148.4407  142.9399  155.1112 H   0  0  0  0  0  0  0  0  0  0  0  0
  149.8984  143.5370  156.2938 H   0  0  0  0  0  0  0  0  0  0  0  0
  151.4010  144.7997  157.3657 H   0  0  0  0  0  0  0  0  0  0  0  0
  153.2116  145.0199  159.0675 H   0  0  0  0  0  0  0  0  0  0  0  0
  153.8707  143.0014  160.4079 H   0  0  0  0  0  0  0  0  0  0  0  0
  152.6744  140.8396  159.9689 H   0  0  0  0  0  0  0  0  0  0  0  0
  150.4085  139.4862  153.8710 H   0  0  0  0  0  0  0  0  0  0  0  0
  150.1768  139.0558  155.5546 H   0  0  0  0  0  0  0  0  0  0  0  0
  151.6935  137.4024  153.4586 H   0  0  0  0  0  0  0  0  0  0  0  0
  152.9938  139.3751  154.2776 H   0  0  0  0  0  0  0  0  0  0  0  0
  153.6901  137.8652  154.8567 H   0  0  0  0  0  0  0  0  0  0  0  0
  152.7286  138.8636  155.9436 H   0  0  0  0  0  0  0  0  0  0  0  0
  149.2125  137.5216  153.2537 H   0  0  0  0  0  0  0  0  0  0  0  0
  1  2  1  0  0  0  0
  1 22  1  0  0  0  0
  1 23  1  0  0  0  0
  1 24  1  0  0  0  0
  2 21  1  0  0  0  0
  2  3  1  0  0  0  0
  2 25  1  0  0  0  0
  3  4  1  0  0  0  0
  3 26  1  0  0  0  0
  3 27  1  0  0  0  0
  4  5  1  0  0  0  0
  4 18  1  0  0  0  0
  4 46  1  0  0  0  0
  5  6  1  0  0  0  0
  5 28  1  0  0  0  0
  5 29  1  0  0  0  0
  6  7  1  0  0  0  0
  6 30  1  0  0  0  0
  6 31  1  0  0  0  0
  7  8  1  0  0  0  0
  7 32  1  0  0  0  0
  7 33  1  0  0  0  0
  8  9  1  0  0  0  0
  8 34  1  0  0  0  0
  9 10  2  0  0  0  0
  9 11  1  0  0  0  0
 11 12  1  0  0  0  0
 11 35  1  0  0  0  0
 12 17  1  0  0  0  0
 12 13  2  0  0  0  0
 13 14  1  0  0  0  0
 13 36  1  0  0  0  0
 14 15  2  0  0  0  0
 14 37  1  0  0  0  0
 15 16  1  0  0  0  0
 15 38  1  0  0  0  0
 16 17  2  0  0  0  0
 16 39  1  0  0  0  0
 18 19  1  0  0  0  0
 18 40  1  0  0  0  0
 18 41  1  0  0  0  0
 19 20  1  0  0  0  0
 19 21  1  0  0  0  0
 19 42  1  0  0  0  0
 20 43  1  0  0  0  0
 20 44  1  0  0  0  0
 20 45  1  0  0  0  0
M  CHG  1   4   1
M  END
> <s_m_source_file>
AV-unprocessed.smi

> <i_m_source_file_index>
1692

> <i_lp_mmshare_version>
43012

> <i_f3d_flags>
0

> <s_epik_input>
W0NIM11bQ0BASF0xW0NIMl1OKFtDSDJdW0NASF0oTzEpW0NIM10pW0NIMl1bQ0gyXVtDSDJdW05IXUMoPU8pW05IXWMyW2NIXVtjSF1bY0hdW2NIXW4y

> <s_epik_cmdline>
J2VwaWtfcHl0aG9uJywgJy1waCcsICc3LjAnLCAnLXRuJywgJzgnLCAnLW1hJywgJzIwMCcsICctbWV0YWxfYmluZGluZycsICctaW1hZScsICc8aW5maWxlLm1hZT4nLCAnLW9tYWUnLCAnPG91dGZpbGUubWFlPic=

> <r_epik_Ionization_Penalty>
0.270538

> <r_epik_Ionization_Penalty_Charging>
0.270496

> <r_epik_Ionization_Penalty_Neutral>
4.22978e-05

> <r_epik_State_Penalty>
0.262618

> <r_epik_Charging_Adjusted_Penalty>
0.533114

> <i_epik_Tot_Q>
1

> <i_epik_Tot_abs_Q>
1

> <r_epik_Metal_State_Penalty>
0.262618

> <b_epik_Metal_Only>
0

> <s_lp_Force_Field>
OPLS_2005

> <r_lp_Energy>
16.7861

> <b_lp_Chiralities_Consistent>
1

> <s_lp_Variant>
AV-unprocessed.smi:1692-2

> <Gold.Version>
5.8.1

> <Gold.Id.Protein>
6NUR|6NUR_protein|mol2

> <Gold.PLP.Fitness>
54.2994

> <Gold.PLP.PLP>
-42.2068

> <Gold.PLP.part.hbond>
-3.8460

> <Gold.PLP.part.metal>
0.0000

> <Gold.PLP.part.buried>
-4.5083

> <Gold.PLP.part.nonpolar>
-35.6604

> <Gold.PLP.part.repulsive>
0.3219

> <Gold.PLP.ligand.clash>
0.0000

> <Gold.PLP.ligand.torsion>
1.1461

> <Gold.PLP.Chemscore.Hbond>
4.7840

> <Gold.PLP.Chemscore.CHOScore>
0.0000

> <Gold.PLP.Chemscore.Metal>
0.0000

> <Gold.Chemscore.Hbonds>
donor molecule, donor type, donor heavy atom, donor atom, acceptor molecule, acceptor atom, score
      L1  H     4    46       P1  7948  2.00
      L1  H     8    34       P1  8028  0.86
      L1  H    11    35       P1  8028  1.00
      P1  H 10752 10764       L1    21  0.98

> <Gold.PLP.Chemscore.Internal.Correction>
0.0328

> <Gold.Rescore>
     Score         DG    S(hbond)    S(metal)    S(lipo)     H(rot)  DE(clash)    DE(int)     intcor
     21.67     -24.12       3.36        0.00     102.39       1.78       0.07       2.38       ----

> <Gold.Chemscore.Fitness>
21.6745

> <Gold.Chemscore.DG>
-24.1227

> <Gold.Chemscore.ZeroCoef>
-5.4800

> <Gold.Chemscore.Hbond>
3.3602

> <Gold.Chemscore.Metal>
0.0000

> <Gold.Chemscore.Lipo>
102.3921

> <Gold.Chemscore.Internal_Hbond>
0.0000

> <Gold.Chemscore.DEClash>
0.0651

> <Gold.Chemscore.DEInternal>
2.3832

> <Gold.Chemscore.Rot>
1.7814

> <Gold.Chemscore.Internal.Correction>
   9.000000E+99

> <Gold.Chemscore.Hbonds>
donor molecule, donor type, donor heavy atom, donor atom, acceptor molecule, acceptor atom, score
      L1  H     4    46       P1  7948  0.97
      L1  H     8    34       P1  8028  0.85
      L1  H    11    35       P1  8028  0.97
      P1  H 10752 10764       L1    21  0.14

> <Gold.Chemscore.Hbond.Weighted>
-11.2232

> <Gold.Chemscore.Metal.Weighted>
-0.0000

> <Gold.Chemscore.Lipo.Weighted>
-11.9799

> <Gold.Chemscore.Internal_Hbond.Weighted>
0.0000

> <Gold.Chemscore.DEClash.Weighted>
0.0651

> <Gold.Chemscore.DEInternal.Weighted>
2.3832

> <Gold.Chemscore.Rot.Weighted>
4.5603

> <Gold.Chemscore.Internal.Correction.Weighted>
   9.000000E+99

> <Gold.Protein.RotatedTorsions>
[ 6907 6896 6895 6894 ] final  158.19 input  -60.11 | X-H torsion
[ 7974 7965 7964 7962 ] final   69.70 input  175.53 | X-H torsion
[ 8008 7997 7996 7995 ] final  174.11 input   59.86 | X-H torsion
[ 10167 10162 10161 10158 ] final  122.85 input  -65.29 | X-H torsion
[ 10718 10713 10712 10709 ] final -146.92 input   66.30 | X-H torsion
[ 10763 10752 10751 10750 ] final  -41.36 input  -60.55 | X-H torsion
[ 11005 11000 10999 10996 ] final -118.71 input  -57.11 | X-H torsion

> <Gold.Protein.ActiveResidues>
 VAL166  LYS551  ARG553  GLY616  TRP617  ASP618  TYR619  PRO620  LYS621  CYS622 
 ASP623  PHE694  ASN695  SER759  ASP760  ASP761  ALA762  ILE779  LEU786  VAL792 
 PHE793  MET794  SER795  GLU796  ALA797  LYS798  CYS799  TRP800  GLU811  SER814 

> <Gold.Protein.RotatedAtoms>
  152.0041  133.3836  159.4193 H   0  0  0  0  0  0  0  0  0  0  0  0  # atno 6907 bound_to 6896
  150.6906  134.3802  159.5040 H   0  0  0  0  0  0  0  0  0  0  0  0  # atno 6908 bound_to 6896
  152.1554  134.8955  160.0596 H   0  0  0  0  0  0  0  0  0  0  0  0  # atno 6909 bound_to 6896
  145.7872  139.2916  143.1231 H   0  0  0  0  0  0  0  0  0  0  0  0  # atno 7974 bound_to 7965
  156.1007  140.1443  156.9471 H   0  0  0  0  0  0  0  0  0  0  0  0  # atno 8008 bound_to 7997
  154.4701  140.0913  156.7167 H   0  0  0  0  0  0  0  0  0  0  0  0  # atno 8009 bound_to 7997
  155.4764  140.3443  155.4335 H   0  0  0  0  0  0  0  0  0  0  0  0  # atno 8010 bound_to 7997
  139.5834  144.6996  151.3471 H   0  0  0  0  0  0  0  0  0  0  0  0  # atno 10167 bound_to 10162
  156.4009  130.7933  151.2144 H   0  0  0  0  0  0  0  0  0  0  0  0  # atno 10718 bound_to 10713
  153.9612  135.6739  153.4745 H   0  0  0  0  0  0  0  0  0  0  0  0  # atno 10763 bound_to 10752
  153.0837  135.4910  154.8551 H   0  0  0  0  0  0  0  0  0  0  0  0  # atno 10764 bound_to 10752
  154.7272  135.3130  154.8912 H   0  0  0  0  0  0  0  0  0  0  0  0  # atno 10765 bound_to 10752
  141.0267  134.0043  157.3204 H   0  0  0  0  0  0  0  0  0  0  0  0  # atno 11005 bound_to 11000
  146.0014  140.8517  143.0017 LP  0  0  0  0  0  0  0  0  0  0  0  0  # atno 17320 bound_to 7965
  144.6787  140.2357  143.7350 LP  0  0  0  0  0  0  0  0  0  0  0  0  # atno 17321 bound_to 7965
  140.7109  143.7393  150.7565 LP  0  0  0  0  0  0  0  0  0  0  0  0  # atno 17342 bound_to 10162
  140.0931  143.4859  152.2467 LP  0  0  0  0  0  0  0  0  0  0  0  0  # atno 17343 bound_to 10162
  157.7504  131.0287  150.4060 LP  0  0  0  0  0  0  0  0  0  0  0  0  # atno 17370 bound_to 10713
  156.4339  130.3978  149.6742 LP  0  0  0  0  0  0  0  0  0  0  0  0  # atno 17371 bound_to 10713
  139.9180  135.0198  156.7957 LP  0  0  0  0  0  0  0  0  0  0  0  0  # atno 17394 bound_to 11000
  140.6479  133.9758  155.7740 LP  0  0  0  0  0  0  0  0  0  0  0  0  # atno 17395 bound_to 11000

$$$$
