AV-unprocessed.smi:2051|AV-procd|sdf|8327|dock10
  -GOLD-   2272010593D 1   1.00000     0.00000
 Structure written by MMmdl.
 33 34  0  0  0  0  0  0  0  0  1 V2000
  153.4362  138.9460  160.4251 O   0  0  0  0  0  0  0  0  0  0  0  0
  153.3945  139.9502  159.7122 C   0  0  0  0  0  0  0  0  0  0  0  0
  154.1912  141.2131  160.0720 C   0  0  0  0  0  0  0  0  0  0  0  0
  153.3614  142.4251  160.1780 N   0  0  0  0  0  0  0  0  0  0  0  0
  152.9656  143.0369  158.9718 C   0  0  0  0  0  0  0  0  0  0  0  0
  152.2106  144.1467  158.9525 C   0  0  0  0  0  0  0  0  0  0  0  0
  151.8011  144.7155  160.2147 C   0  0  0  0  0  0  0  0  0  0  0  0
  152.1766  144.1400  161.3744 C   0  0  0  0  0  0  0  0  0  0  0  0
  153.0048  142.9286  161.4001 C   0  0  0  0  0  0  0  0  0  0  0  0
  153.3561  142.3994  162.4549 O   0  0  0  0  0  0  0  0  0  0  0  0
  152.6763  140.0170  158.5815 N   0  0  0  0  0  0  0  0  0  0  0  0
  151.8545  138.9400  158.0414 C   0  0  0  0  0  0  0  0  0  0  0  0
  152.4289  138.3891  156.7253 C   0  0  1  0  0  0  0  0  0  0  0  0
  151.3814  137.7541  155.8103 C   0  0  0  0  0  0  0  0  0  0  0  0
  151.9426  137.9621  154.4102 C   0  0  0  0  0  0  0  0  0  0  0  0
  153.1364  138.8966  154.6183 C   0  0  0  0  0  0  0  0  0  0  0  0
  152.9481  139.4346  155.9183 O   0  0  0  0  0  0  0  0  0  0  0  0
  154.7151  141.0291  161.0108 H   0  0  0  0  0  0  0  0  0  0  0  0
  154.9798  141.3597  159.3315 H   0  0  0  0  0  0  0  0  0  0  0  0
  153.3192  142.5531  158.0727 H   0  0  0  0  0  0  0  0  0  0  0  0
  151.9203  144.6037  158.0180 H   0  0  0  0  0  0  0  0  0  0  0  0
  151.1915  145.6069  160.2291 H   0  0  0  0  0  0  0  0  0  0  0  0
  151.8612  144.5798  162.3091 H   0  0  0  0  0  0  0  0  0  0  0  0
  152.7040  140.8762  158.0519 H   0  0  0  0  0  0  0  0  0  0  0  0
  151.7653  138.1402  158.7784 H   0  0  0  0  0  0  0  0  0  0  0  0
  150.8478  139.3261  157.8794 H   0  0  0  0  0  0  0  0  0  0  0  0
  153.2235  137.6669  156.9233 H   0  0  0  0  0  0  0  0  0  0  0  0
  151.2095  136.7036  156.0462 H   0  0  0  0  0  0  0  0  0  0  0  0
  150.4282  138.2768  155.9001 H   0  0  0  0  0  0  0  0  0  0  0  0
  152.2538  137.0238  153.9499 H   0  0  0  0  0  0  0  0  0  0  0  0
  151.1922  138.4196  153.7643 H   0  0  0  0  0  0  0  0  0  0  0  0
  154.0719  138.3355  154.5946 H   0  0  0  0  0  0  0  0  0  0  0  0
  153.1920  139.6830  153.8653 H   0  0  0  0  0  0  0  0  0  0  0  0
  1  2  2  0  0  0  0
  2  3  1  0  0  0  0
  2 11  1  0  0  0  0
  3  4  1  0  0  0  0
  3 18  1  0  0  0  0
  3 19  1  0  0  0  0
  4  9  1  0  0  0  0
  4  5  1  0  0  0  0
  5  6  2  0  0  0  0
  5 20  1  0  0  0  0
  6  7  1  0  0  0  0
  6 21  1  0  0  0  0
  7  8  2  0  0  0  0
  7 22  1  0  0  0  0
  8  9  1  0  0  0  0
  8 23  1  0  0  0  0
  9 10  2  0  0  0  0
 11 12  1  0  0  0  0
 11 24  1  0  0  0  0
 12 13  1  0  0  0  0
 12 25  1  0  0  0  0
 12 26  1  0  0  0  0
 13 17  1  0  0  0  0
 13 14  1  0  0  0  0
 13 27  1  0  0  0  0
 14 15  1  0  0  0  0
 14 28  1  0  0  0  0
 14 29  1  0  0  0  0
 15 16  1  0  0  0  0
 15 30  1  0  0  0  0
 15 31  1  0  0  0  0
 16 17  1  0  0  0  0
 16 32  1  0  0  0  0
 16 33  1  0  0  0  0
M  END
> <s_m_source_file>
AV-unprocessed.smi

> <i_m_source_file_index>
2051

> <i_lp_mmshare_version>
43012

> <i_f3d_flags>
0

> <s_epik_input>
TzFbQ0gyXVtDSDJdW0NIMl1bQ0BIXTFbQ0gyXVtOSF1DKD1PKVtDSDJdbjJbY0hdW2NIXVtjSF1bY0hdYzI9Tw==

> <s_epik_cmdline>
J2VwaWtfcHl0aG9uJywgJy1waCcsICc3LjAnLCAnLXRuJywgJzgnLCAnLW1hJywgJzIwMCcsICctbWV0YWxfYmluZGluZycsICctaW1hZScsICc8aW5maWxlLm1hZT4nLCAnLW9tYWUnLCAnPG91dGZpbGUubWFlPic=

> <r_lp_tautomer_probability>
1

> <r_epik_Ionization_Penalty>
3.94187e-07

> <r_epik_Ionization_Penalty_Charging>
3.67328e-07

> <r_epik_Ionization_Penalty_Neutral>
2.6859e-08

> <r_epik_State_Penalty>
-0

> <r_epik_Charging_Adjusted_Penalty>
3.67328e-07

> <i_epik_Tot_Q>
0

> <i_epik_Tot_abs_Q>
0

> <r_epik_Metal_State_Penalty>
-0

> <b_epik_Metal_Only>
0

> <s_lp_Force_Field>
OPLS_2005

> <r_lp_Energy>
26.6962

> <b_lp_Chiralities_Consistent>
1

> <s_lp_Variant>
AV-unprocessed.smi:2051-2

> <Gold.Version>
5.8.1

> <Gold.Id.Protein>
6NUR|6NUR_protein|mol2

> <Gold.PLP.Fitness>
43.1846

> <Gold.PLP.PLP>
-41.2395

> <Gold.PLP.part.hbond>
-1.0000

> <Gold.PLP.part.metal>
0.0000

> <Gold.PLP.part.buried>
-5.7817

> <Gold.PLP.part.nonpolar>
-33.9225

> <Gold.PLP.part.repulsive>
0.1520

> <Gold.PLP.ligand.clash>
0.0000

> <Gold.PLP.ligand.torsion>
0.5323

> <Gold.PLP.Chemscore.Hbond>
1.0000

> <Gold.PLP.Chemscore.CHOScore>
0.0000

> <Gold.PLP.Chemscore.Metal>
0.0000

> <Gold.Chemscore.Hbonds>
donor molecule, donor type, donor heavy atom, donor atom, acceptor molecule, acceptor atom, score
      P1  H  7997  8009       L1    17  1.00

> <Gold.PLP.Chemscore.Internal.Correction>
0.0098

> <Gold.Rescore>
     Score         DG    S(hbond)    S(metal)    S(lipo)     H(rot)  DE(clash)    DE(int)     intcor
     14.36     -15.10       0.87        0.00      94.44       1.69       0.02       0.72       ----

> <Gold.Chemscore.Fitness>
14.3621

> <Gold.Chemscore.DG>
-15.1024

> <Gold.Chemscore.ZeroCoef>
-5.4800

> <Gold.Chemscore.Hbond>
0.8710

> <Gold.Chemscore.Metal>
0.0000

> <Gold.Chemscore.Lipo>
94.4353

> <Gold.Chemscore.Internal_Hbond>
0.0000

> <Gold.Chemscore.DEClash>
0.0178

> <Gold.Chemscore.DEInternal>
0.7225

> <Gold.Chemscore.Rot>
1.6936

> <Gold.Chemscore.Internal.Correction>
   9.000000E+99

> <Gold.Chemscore.Hbonds>
donor molecule, donor type, donor heavy atom, donor atom, acceptor molecule, acceptor atom, score
      P1  H  7997  8009       L1    17  0.64

> <Gold.Chemscore.Hbond.Weighted>
-2.9091

> <Gold.Chemscore.Metal.Weighted>
-0.0000

> <Gold.Chemscore.Lipo.Weighted>
-11.0489

> <Gold.Chemscore.Internal_Hbond.Weighted>
0.0000

> <Gold.Chemscore.DEClash.Weighted>
0.0178

> <Gold.Chemscore.DEInternal.Weighted>
0.7225

> <Gold.Chemscore.Rot.Weighted>
4.3357

> <Gold.Chemscore.Internal.Correction.Weighted>
   9.000000E+99

> <Gold.Protein.RotatedTorsions>
[ 6907 6896 6895 6894 ] final  -88.24 input  -60.11 | X-H torsion
[ 7974 7965 7964 7962 ] final  138.65 input  175.53 | X-H torsion
[ 8008 7997 7996 7995 ] final -174.32 input   59.86 | X-H torsion
[ 10167 10162 10161 10158 ] final  -81.14 input  -65.29 | X-H torsion
[ 10718 10713 10712 10709 ] final -123.55 input   66.30 | X-H torsion
[ 10763 10752 10751 10750 ] final  178.07 input  -60.55 | X-H torsion
[ 11005 11000 10999 10996 ] final    8.54 input  -57.11 | X-H torsion

> <Gold.Protein.ActiveResidues>
 VAL166  LYS551  ARG553  GLY616  TRP617  ASP618  TYR619  PRO620  LYS621  CYS622 
 ASP623  PHE694  ASN695  SER759  ASP760  ASP761  ALA762  ILE779  LEU786  VAL792 
 PHE793  MET794  SER795  GLU796  ALA797  LYS798  CYS799  TRP800  GLU811  SER814 

> <Gold.Protein.RotatedAtoms>
  150.6868  134.2772  159.4611 H   0  0  0  0  0  0  0  0  0  0  0  0  # atno 6907 bound_to 6896
  152.0689  134.9544  160.0584 H   0  0  0  0  0  0  0  0  0  0  0  0  # atno 6908 bound_to 6896
  152.0941  133.4181  159.4594 H   0  0  0  0  0  0  0  0  0  0  0  0  # atno 6909 bound_to 6896
  144.9353  139.4997  143.5598 H   0  0  0  0  0  0  0  0  0  0  0  0  # atno 7974 bound_to 7965
  155.9685  140.1158  157.0833 H   0  0  0  0  0  0  0  0  0  0  0  0  # atno 8008 bound_to 7997
  154.4150  140.1168  156.5342 H   0  0  0  0  0  0  0  0  0  0  0  0  # atno 8009 bound_to 7997
  155.6627  140.3473  155.4791 H   0  0  0  0  0  0  0  0  0  0  0  0  # atno 8010 bound_to 7997
  140.4439  143.2505  151.8586 H   0  0  0  0  0  0  0  0  0  0  0  0  # atno 10167 bound_to 10162
  156.1512  130.6536  150.9916 H   0  0  0  0  0  0  0  0  0  0  0  0  # atno 10718 bound_to 10713
  154.5028  135.2784  155.1407 H   0  0  0  0  0  0  0  0  0  0  0  0  # atno 10763 bound_to 10752
  154.3033  135.6243  153.5438 H   0  0  0  0  0  0  0  0  0  0  0  0  # atno 10764 bound_to 10752
  152.9905  135.5702  154.5475 H   0  0  0  0  0  0  0  0  0  0  0  0  # atno 10765 bound_to 10752
  140.5358  134.0422  155.7888 H   0  0  0  0  0  0  0  0  0  0  0  0  # atno 11005 bound_to 11000
  146.3264  139.8333  142.8904 LP  0  0  0  0  0  0  0  0  0  0  0  0  # atno 17320 bound_to 7965
  145.3077  141.0211  143.3572 LP  0  0  0  0  0  0  0  0  0  0  0  0  # atno 17321 bound_to 7965
  139.4791  144.5197  151.8818 LP  0  0  0  0  0  0  0  0  0  0  0  0  # atno 17342 bound_to 10162
  140.4286  144.2146  150.5887 LP  0  0  0  0  0  0  0  0  0  0  0  0  # atno 17343 bound_to 10162
  157.6658  131.0872  150.7731 LP  0  0  0  0  0  0  0  0  0  0  0  0  # atno 17370 bound_to 10713
  156.7799  130.4856  149.5403 LP  0  0  0  0  0  0  0  0  0  0  0  0  # atno 17371 bound_to 10713
  141.1255  133.9390  157.2643 LP  0  0  0  0  0  0  0  0  0  0  0  0  # atno 17394 bound_to 11000
  139.9530  135.0171  156.9047 LP  0  0  0  0  0  0  0  0  0  0  0  0  # atno 17395 bound_to 11000

$$$$
