AV-unprocessed.smi:507|AV-procd|sdf|2756|dock1
  -GOLD-   2262023223D 1   1.00000     0.00000
 Structure written by MMmdl.
 33 34  0  0  0  0  0  0  0  0  1 V2000
  153.1032  142.7597  161.4709 C   0  0  0  0  0  0  0  0  0  0  0  0
  152.4884  142.4384  160.1200 C   0  0  0  0  0  0  0  0  0  0  0  0
  152.8583  141.2433  159.4626 C   0  0  0  0  0  0  0  0  0  0  0  0
  152.3106  140.9092  158.2046 C   0  0  0  0  0  0  0  0  0  0  0  0
  152.5276  139.8085  157.3937 N   0  0  0  0  0  0  0  0  0  0  0  0
  151.7331  140.0761  156.3611 C   0  0  0  0  0  0  0  0  0  0  0  0
  151.0263  141.2217  156.4071 N   0  0  0  0  0  0  0  0  0  0  0  0
  150.1079  141.7275  155.4018 C   0  0  0  0  0  0  0  0  0  0  0  0
  149.2252  140.6208  154.7919 C   0  0  2  0  0  0  0  0  0  0  0  0
  150.0125  139.8443  153.9100 O   0  0  0  0  0  0  0  0  0  0  0  0
  148.0407  141.2068  154.0031 C   0  0  0  0  0  0  0  0  0  0  0  0
  147.4255  142.3595  154.6771 N   0  0  0  0  0  0  0  0  0  0  0  0
  151.3766  141.8116  157.6165 C   0  0  0  0  0  0  0  0  0  0  0  0
  151.0000  143.0030  158.2607 C   0  0  0  0  0  0  0  0  0  0  0  0
  151.5550  143.3205  159.5183 C   0  0  0  0  0  0  0  0  0  0  0  0
  151.1393  144.6078  160.2078 C   0  0  0  0  0  0  0  0  0  0  0  0
  153.7914  141.9773  161.7921 H   0  0  0  0  0  0  0  0  0  0  0  0
  152.3280  142.8548  162.2315 H   0  0  0  0  0  0  0  0  0  0  0  0
  153.6603  143.6958  161.4243 H   0  0  0  0  0  0  0  0  0  0  0  0
  153.5688  140.5707  159.9203 H   0  0  0  0  0  0  0  0  0  0  0  0
  151.6600  139.3998  155.5219 H   0  0  0  0  0  0  0  0  0  0  0  0
  149.4846  142.4894  155.8711 H   0  0  0  0  0  0  0  0  0  0  0  0
  150.6827  142.2315  154.6230 H   0  0  0  0  0  0  0  0  0  0  0  0
  148.8592  139.9789  155.5945 H   0  0  0  0  0  0  0  0  0  0  0  0
  149.5779  139.8065  153.0719 H   0  0  0  0  0  0  0  0  0  0  0  0
  148.3996  141.5402  153.0289 H   0  0  0  0  0  0  0  0  0  0  0  0
  147.2954  140.4377  153.7968 H   0  0  0  0  0  0  0  0  0  0  0  0
  148.1405  143.0173  154.9844 H   0  0  0  0  0  0  0  0  0  0  0  0
  146.8113  142.8617  154.0377 H   0  0  0  0  0  0  0  0  0  0  0  0
  150.2879  143.6650  157.7907 H   0  0  0  0  0  0  0  0  0  0  0  0
  150.4154  145.1628  159.6105 H   0  0  0  0  0  0  0  0  0  0  0  0
  152.0043  145.2514  160.3692 H   0  0  0  0  0  0  0  0  0  0  0  0
  150.6817  144.3927  161.1736 H   0  0  0  0  0  0  0  0  0  0  0  0
  1  2  1  0  0  0  0
  1 17  1  0  0  0  0
  1 18  1  0  0  0  0
  1 19  1  0  0  0  0
  2 15  1  0  0  0  0
  2  3  2  0  0  0  0
  3  4  1  0  0  0  0
  3 20  1  0  0  0  0
  4 13  2  0  0  0  0
  4  5  1  0  0  0  0
  5  6  2  0  0  0  0
  6  7  1  0  0  0  0
  6 21  1  0  0  0  0
  7  8  1  0  0  0  0
  7 13  1  0  0  0  0
  8  9  1  0  0  0  0
  8 22  1  0  0  0  0
  8 23  1  0  0  0  0
  9 10  1  0  0  0  0
  9 11  1  0  0  0  0
  9 24  1  0  0  0  0
 10 25  1  0  0  0  0
 11 12  1  0  0  0  0
 11 26  1  0  0  0  0
 11 27  1  0  0  0  0
 12 28  1  0  0  0  0
 12 29  1  0  0  0  0
 13 14  1  0  0  0  0
 14 15  2  0  0  0  0
 14 30  1  0  0  0  0
 15 16  1  0  0  0  0
 16 31  1  0  0  0  0
 16 32  1  0  0  0  0
 16 33  1  0  0  0  0
M  END
> <s_m_source_file>
AV-unprocessed.smi

> <i_m_source_file_index>
507

> <i_lp_mmshare_version>
43012

> <i_f3d_flags>
0

> <s_epik_input>
W0NIM11jKFtjSF0xKWMoW0NIM10pW2NIXWMoYzEyKW4oW2NIXW4yKVtDSDJdW0NASF0oW09IXSlbQ0gyXVtOSDJd

> <s_epik_cmdline>
J2VwaWtfcHl0aG9uJywgJy1waCcsICc3LjAnLCAnLXRuJywgJzgnLCAnLW1hJywgJzIwMCcsICctbWV0YWxfYmluZGluZycsICctaW1hZScsICc8aW5maWxlLm1hZT4nLCAnLW9tYWUnLCAnPG91dGZpbGUubWFlPic=

> <r_epik_Ionization_Penalty>
2.36719

> <r_epik_Ionization_Penalty_Charging>
0

> <r_epik_Ionization_Penalty_Neutral>
2.36719

> <r_epik_State_Penalty>
2.51088

> <r_epik_Charging_Adjusted_Penalty>
2.51088

> <i_epik_Tot_Q>
0

> <i_epik_Tot_abs_Q>
0

> <r_epik_Metal_State_Penalty>
2.40105

> <b_epik_Metal_Only>
0

> <s_lp_Force_Field>
OPLS_2005

> <r_lp_Energy>
13.3161

> <b_lp_Chiralities_Consistent>
1

> <s_lp_Variant>
AV-unprocessed.smi:507-5

> <Gold.Version>
5.8.1

> <Gold.Id.Protein>
6NUR|6NUR_protein|mol2

> <Gold.PLP.Fitness>
49.8065

> <Gold.PLP.PLP>
-39.2003

> <Gold.PLP.part.hbond>
-4.0000

> <Gold.PLP.part.metal>
0.0000

> <Gold.PLP.part.buried>
-4.9513

> <Gold.PLP.part.nonpolar>
-30.3428

> <Gold.PLP.part.repulsive>
0.0000

> <Gold.PLP.ligand.clash>
0.0000

> <Gold.PLP.ligand.torsion>
0.5458

> <Gold.PLP.Chemscore.Hbond>
3.8960

> <Gold.PLP.Chemscore.CHOScore>
0.0000

> <Gold.PLP.Chemscore.Metal>
0.0000

> <Gold.Chemscore.Hbonds>
donor molecule, donor type, donor heavy atom, donor atom, acceptor molecule, acceptor atom, score
      L1  H    10    25       P1  7957  0.99
      L1  H    12    28       P1  8028  1.00
      P1  H  7989  7998       L1    10  0.91
      P1  H  7997  8009       L1     5  0.99

> <Gold.PLP.Chemscore.Internal.Correction>
0.0098

> <Gold.Rescore>
     Score         DG    S(hbond)    S(metal)    S(lipo)     H(rot)  DE(clash)    DE(int)     intcor
     19.80     -20.65       2.87        0.00      96.02       2.20       0.10       0.75       ----

> <Gold.Chemscore.Fitness>
19.7993

> <Gold.Chemscore.DG>
-20.6480

> <Gold.Chemscore.ZeroCoef>
-5.4800

> <Gold.Chemscore.Hbond>
2.8658

> <Gold.Chemscore.Metal>
0.0000

> <Gold.Chemscore.Lipo>
96.0223

> <Gold.Chemscore.Internal_Hbond>
0.0000

> <Gold.Chemscore.DEClash>
0.0958

> <Gold.Chemscore.DEInternal>
0.7529

> <Gold.Chemscore.Rot>
2.2025

> <Gold.Chemscore.Internal.Correction>
   9.000000E+99

> <Gold.Chemscore.Hbonds>
donor molecule, donor type, donor heavy atom, donor atom, acceptor molecule, acceptor atom, score
      L1  H    10    25       P1  7957  0.94
      L1  H    12    28       P1  8028  0.94
      P1  H  7989  7998       L1    10  0.17
      P1  H  7997  8009       L1     5  0.13

> <Gold.Chemscore.Hbond.Weighted>
-9.5717

> <Gold.Chemscore.Metal.Weighted>
-0.0000

> <Gold.Chemscore.Lipo.Weighted>
-11.2346

> <Gold.Chemscore.Internal_Hbond.Weighted>
0.0000

> <Gold.Chemscore.DEClash.Weighted>
0.0958

> <Gold.Chemscore.DEInternal.Weighted>
0.7529

> <Gold.Chemscore.Rot.Weighted>
5.6383

> <Gold.Chemscore.Internal.Correction.Weighted>
   9.000000E+99

> <Gold.Protein.RotatedTorsions>
[ 6907 6896 6895 6894 ] final   30.40 input  -60.11 | X-H torsion
[ 7974 7965 7964 7962 ] final  171.85 input  175.53 | X-H torsion
[ 8008 7997 7996 7995 ] final -172.18 input   59.86 | X-H torsion
[ 10167 10162 10161 10158 ] final   10.95 input  -65.29 | X-H torsion
[ 10718 10713 10712 10709 ] final  110.33 input   66.30 | X-H torsion
[ 10763 10752 10751 10750 ] final -147.22 input  -60.55 | X-H torsion
[ 11005 11000 10999 10996 ] final  -66.27 input  -57.11 | X-H torsion

> <Gold.Protein.ActiveResidues>
 VAL166  LYS551  ARG553  GLY616  TRP617  ASP618  TYR619  PRO620  LYS621  CYS622 
 ASP623  PHE694  ASN695  SER759  ASP760  ASP761  ALA762  ILE779  LEU786  VAL792 
 PHE793  MET794  SER795  GLU796  ALA797  LYS798  CYS799  TRP800  GLU811  SER814 

> <Gold.Protein.RotatedAtoms>
  152.0455  134.9685  160.0574 H   0  0  0  0  0  0  0  0  0  0  0  0  # atno 6907 bound_to 6896
  152.1107  133.4294  159.4638 H   0  0  0  0  0  0  0  0  0  0  0  0  # atno 6908 bound_to 6896
  150.6843  134.2570  159.4577 H   0  0  0  0  0  0  0  0  0  0  0  0  # atno 6909 bound_to 6896
  144.7283  139.9411  143.6428 H   0  0  0  0  0  0  0  0  0  0  0  0  # atno 7974 bound_to 7965
  155.9413  140.1109  157.1053 H   0  0  0  0  0  0  0  0  0  0  0  0  # atno 8008 bound_to 7997
  154.4090  140.1218  156.4996 H   0  0  0  0  0  0  0  0  0  0  0  0  # atno 8009 bound_to 7997
  155.6959  140.3472  155.4915 H   0  0  0  0  0  0  0  0  0  0  0  0  # atno 8010 bound_to 7997
  140.6162  143.8303  150.7121 H   0  0  0  0  0  0  0  0  0  0  0  0  # atno 10167 bound_to 10162
  157.6499  131.0931  150.6586 H   0  0  0  0  0  0  0  0  0  0  0  0  # atno 10718 bound_to 10713
  154.8297  135.3366  154.6784 H   0  0  0  0  0  0  0  0  0  0  0  0  # atno 10763 bound_to 10752
  153.7405  135.6946  153.4972 H   0  0  0  0  0  0  0  0  0  0  0  0  # atno 10764 bound_to 10752
  153.2247  135.4437  155.0480 H   0  0  0  0  0  0  0  0  0  0  0  0  # atno 10765 bound_to 10752
  141.1477  133.6696  156.6113 H   0  0  0  0  0  0  0  0  0  0  0  0  # atno 11005 bound_to 11000
  146.0784  139.3771  143.0480 LP  0  0  0  0  0  0  0  0  0  0  0  0  # atno 17320 bound_to 7965
  145.7874  140.9829  143.1067 LP  0  0  0  0  0  0  0  0  0  0  0  0  # atno 17321 bound_to 7965
  140.1882  143.4058  152.1882 LP  0  0  0  0  0  0  0  0  0  0  0  0  # atno 17342 bound_to 10162
  139.5401  144.7248  151.4763 LP  0  0  0  0  0  0  0  0  0  0  0  0  # atno 17343 bound_to 10162
  156.6899  130.4592  149.5603 LP  0  0  0  0  0  0  0  0  0  0  0  0  # atno 17370 bound_to 10713
  156.1869  130.6535  151.1017 LP  0  0  0  0  0  0  0  0  0  0  0  0  # atno 17371 bound_to 10713
  140.3612  134.7686  157.4535 LP  0  0  0  0  0  0  0  0  0  0  0  0  # atno 17394 bound_to 11000
  140.0783  134.5766  155.8567 LP  0  0  0  0  0  0  0  0  0  0  0  0  # atno 17395 bound_to 11000

$$$$
