AV-unprocessed.smi:3354|AV-procd|sdf|12957|dock4
  -GOLD-   2272019393D 1   1.00000     0.00000
 Structure written by MMmdl.
 38 40  0  0  0  0  0  0  0  0  1 V2000
  150.1930  139.1528  154.1214 C   0  0  0  0  0  0  0  0  0  0  0  0
  150.8104  139.2876  155.4999 C   0  0  2  0  0  0  0  0  0  0  0  0
  152.1262  138.6201  155.8253 C   0  0  0  0  0  0  0  0  0  0  0  0
  150.8492  138.1349  156.4844 C   0  0  2  0  0  0  0  0  0  0  0  0
  150.2630  136.8760  156.1235 N   0  0  0  0  0  0  0  0  0  0  0  0
  148.9302  136.7791  155.5432 C   0  0  0  0  0  0  0  0  0  0  0  0
  148.7037  135.2814  155.2715 C   0  0  1  0  0  0  0  0  0  0  0  0
  148.1560  135.0686  153.9342 N   0  0  0  0  0  0  0  0  0  0  0  0
  147.0447  134.3689  153.6664 C   0  0  0  0  0  0  0  0  0  0  0  0
  146.3607  133.8269  154.5343 O   0  0  0  0  0  0  0  0  0  0  0  0
  146.8028  134.3266  152.3449 N   0  0  0  0  0  0  0  0  0  0  0  0
  145.7277  133.6956  151.6624 C   0  0  0  0  0  0  0  0  0  0  0  0
  145.8681  132.9611  150.4598 C   0  0  0  0  0  0  0  0  0  0  0  0
  144.7261  132.3667  149.8896 C   0  0  0  0  0  0  0  0  0  0  0  0
  143.4888  132.5216  150.5441 C   0  0  0  0  0  0  0  0  0  0  0  0
  143.3427  133.2068  151.6975 N   0  0  0  0  0  0  0  0  0  0  0  0
  144.4422  133.7732  152.2390 C   0  0  0  0  0  0  0  0  0  0  0  0
  150.0762  134.6161  155.4574 C   0  0  0  0  0  0  0  0  0  0  0  0
  150.9401  135.7260  156.0295 C   0  0  0  0  0  0  0  0  0  0  0  0
  152.1161  135.5530  156.3468 O   0  0  0  0  0  0  0  0  0  0  0  0
  150.4358  138.1896  153.6721 H   0  0  0  0  0  0  0  0  0  0  0  0
  150.5663  139.9411  153.4675 H   0  0  0  0  0  0  0  0  0  0  0  0
  149.1085  139.2421  154.1889 H   0  0  0  0  0  0  0  0  0  0  0  0
  150.6516  140.2689  155.9433 H   0  0  0  0  0  0  0  0  0  0  0  0
  152.5863  138.0221  155.0421 H   0  0  0  0  0  0  0  0  0  0  0  0
  152.8261  139.1785  156.4435 H   0  0  0  0  0  0  0  0  0  0  0  0
  150.7440  138.4076  157.5335 H   0  0  0  0  0  0  0  0  0  0  0  0
  148.1689  137.1620  156.2229 H   0  0  0  0  0  0  0  0  0  0  0  0
  148.8968  137.3733  154.6282 H   0  0  0  0  0  0  0  0  0  0  0  0
  148.0114  134.8909  156.0203 H   0  0  0  0  0  0  0  0  0  0  0  0
  148.6626  135.4761  153.1619 H   0  0  0  0  0  0  0  0  0  0  0  0
  147.5018  134.7495  151.7517 H   0  0  0  0  0  0  0  0  0  0  0  0
  146.8220  132.8293  149.9737 H   0  0  0  0  0  0  0  0  0  0  0  0
  144.7983  131.8009  148.9726 H   0  0  0  0  0  0  0  0  0  0  0  0
  142.5941  132.0776  150.1336 H   0  0  0  0  0  0  0  0  0  0  0  0
  144.2875  134.3109  153.1634 H   0  0  0  0  0  0  0  0  0  0  0  0
  150.0272  133.7680  156.1411 H   0  0  0  0  0  0  0  0  0  0  0  0
  150.5065  134.2761  154.5144 H   0  0  0  0  0  0  0  0  0  0  0  0
  1  2  1  0  0  0  0
  1 21  1  0  0  0  0
  1 22  1  0  0  0  0
  1 23  1  0  0  0  0
  2  4  1  0  0  0  0
  2  3  1  0  0  0  0
  2 24  1  0  0  0  0
  3  4  1  0  0  0  0
  3 25  1  0  0  0  0
  3 26  1  0  0  0  0
  4  5  1  0  0  0  0
  4 27  1  0  0  0  0
  5 19  1  0  0  0  0
  5  6  1  0  0  0  0
  6  7  1  0  0  0  0
  6 28  1  0  0  0  0
  6 29  1  0  0  0  0
  7  8  1  0  0  0  0
  7 18  1  0  0  0  0
  7 30  1  0  0  0  0
  8  9  1  0  0  0  0
  8 31  1  0  0  0  0
  9 10  2  0  0  0  0
  9 11  1  0  0  0  0
 11 12  1  0  0  0  0
 11 32  1  0  0  0  0
 12 17  1  0  0  0  0
 12 13  2  0  0  0  0
 13 14  1  0  0  0  0
 13 33  1  0  0  0  0
 14 15  2  0  0  0  0
 14 34  1  0  0  0  0
 15 16  1  0  0  0  0
 15 35  1  0  0  0  0
 16 17  2  0  0  0  0
 17 36  1  0  0  0  0
 18 19  1  0  0  0  0
 18 37  1  0  0  0  0
 18 38  1  0  0  0  0
 19 20  2  0  0  0  0
M  END
> <s_m_source_file>
AV-unprocessed.smi

> <i_m_source_file_index>
3354

> <i_lp_mmshare_version>
43012

> <i_f3d_flags>
0

> <s_epik_input>
W0NIM11bQ0BASF0xW0NIMl1bQ0BIXTFOMltDSDJdW0NASF0oW0NIMl1DMj1PKVtOSF1DKD1PKVtOSF1jM1tjSF1bY0hdW2NIXW5bY0hdMw==

> <s_epik_cmdline>
J2VwaWtfcHl0aG9uJywgJy1waCcsICc3LjAnLCAnLXRuJywgJzgnLCAnLW1hJywgJzIwMCcsICctbWV0YWxfYmluZGluZycsICctaW1hZScsICc8aW5maWxlLm1hZT4nLCAnLW9tYWUnLCAnPG91dGZpbGUubWFlPic=

> <r_epik_Ionization_Penalty>
0.00456191

> <r_epik_Ionization_Penalty_Charging>
0

> <r_epik_Ionization_Penalty_Neutral>
0.00456191

> <r_epik_State_Penalty>
0.00327094

> <r_epik_Charging_Adjusted_Penalty>
0.00327094

> <i_epik_Tot_Q>
0

> <i_epik_Tot_abs_Q>
0

> <r_epik_Metal_State_Penalty>
-0

> <b_epik_Metal_Only>
0

> <s_lp_Force_Field>
OPLS_2005

> <r_lp_Energy>
41.3899

> <b_lp_Chiralities_Consistent>
1

> <s_lp_Variant>
AV-unprocessed.smi:3354-3

> <Gold.Version>
5.8.1

> <Gold.Id.Protein>
6NUR|6NUR_protein|mol2

> <Gold.PLP.Fitness>
39.8593

> <Gold.PLP.PLP>
-29.1898

> <Gold.PLP.part.hbond>
-2.9174

> <Gold.PLP.part.metal>
0.0000

> <Gold.PLP.part.buried>
-3.9777

> <Gold.PLP.part.nonpolar>
-22.6857

> <Gold.PLP.part.repulsive>
0.3045

> <Gold.PLP.ligand.clash>
0.0000

> <Gold.PLP.ligand.torsion>
0.4894

> <Gold.PLP.Chemscore.Hbond>
2.7930

> <Gold.PLP.Chemscore.CHOScore>
1.0000

> <Gold.PLP.Chemscore.Metal>
0.0000

> <Gold.Chemscore.Hbonds>
donor molecule, donor type, donor heavy atom, donor atom, acceptor molecule, acceptor atom, score
      L1  H     8    31       P1  7948  0.94
      L1  H    11    32       P1  7948  0.82
      P1  H 10752 10765       L1    20  1.00
      L1  C    15    35       P1 10186  0.05
      L1  C    15    35       P1 10952  0.99

> <Gold.PLP.Chemscore.Internal.Correction>
0.2693

> <Gold.Rescore>
     Score         DG    S(hbond)    S(metal)    S(lipo)     H(rot)  DE(clash)    DE(int)     intcor
     17.32     -19.77       2.77        0.00      70.10       1.24       0.01       2.44       ----

> <Gold.Chemscore.Fitness>
17.3210

> <Gold.Chemscore.DG>
-19.7714

> <Gold.Chemscore.ZeroCoef>
-5.4800

> <Gold.Chemscore.Hbond>
2.7707

> <Gold.Chemscore.Metal>
0.0000

> <Gold.Chemscore.Lipo>
70.0977

> <Gold.Chemscore.Internal_Hbond>
0.0000

> <Gold.Chemscore.DEClash>
0.0073

> <Gold.Chemscore.DEInternal>
2.4431

> <Gold.Chemscore.Rot>
1.2361

> <Gold.Chemscore.Internal.Correction>
   9.000000E+99

> <Gold.Chemscore.Hbonds>
donor molecule, donor type, donor heavy atom, donor atom, acceptor molecule, acceptor atom, score
      L1  H     8    31       P1  7948  0.83
      L1  H    11    32       P1  7948  0.41
      P1  H 10752 10765       L1    20  0.97

> <Gold.Chemscore.Hbond.Weighted>
-9.2543

> <Gold.Chemscore.Metal.Weighted>
-0.0000

> <Gold.Chemscore.Lipo.Weighted>
-8.2014

> <Gold.Chemscore.Internal_Hbond.Weighted>
0.0000

> <Gold.Chemscore.DEClash.Weighted>
0.0073

> <Gold.Chemscore.DEInternal.Weighted>
2.4431

> <Gold.Chemscore.Rot.Weighted>
3.1643

> <Gold.Chemscore.Internal.Correction.Weighted>
   9.000000E+99

> <Gold.Protein.RotatedTorsions>
[ 6907 6896 6895 6894 ] final  -88.01 input  -60.11 | X-H torsion
[ 7974 7965 7964 7962 ] final  113.06 input  175.53 | X-H torsion
[ 8008 7997 7996 7995 ] final  -28.95 input   59.86 | X-H torsion
[ 10167 10162 10161 10158 ] final  -22.08 input  -65.29 | X-H torsion
[ 10718 10713 10712 10709 ] final  115.94 input   66.30 | X-H torsion
[ 10763 10752 10751 10750 ] final -138.90 input  -60.55 | X-H torsion
[ 11005 11000 10999 10996 ] final  122.95 input  -57.11 | X-H torsion

> <Gold.Protein.ActiveResidues>
 VAL166  LYS551  ARG553  GLY616  TRP617  ASP618  TYR619  PRO620  LYS621  CYS622 
 ASP623  PHE694  ASN695  SER759  ASP760  ASP761  ALA762  ILE779  LEU786  VAL792 
 PHE793  MET794  SER795  GLU796  ALA797  LYS798  CYS799  TRP800  GLU811  SER814 

> <Gold.Protein.RotatedAtoms>
  150.6867  134.2807  159.4625 H   0  0  0  0  0  0  0  0  0  0  0  0  # atno 6907 bound_to 6896
  152.0721  134.9524  160.0583 H   0  0  0  0  0  0  0  0  0  0  0  0  # atno 6908 bound_to 6896
  152.0909  133.4165  159.4580 H   0  0  0  0  0  0  0  0  0  0  0  0  # atno 6909 bound_to 6896
  145.2216  139.2859  143.4215 H   0  0  0  0  0  0  0  0  0  0  0  0  # atno 7974 bound_to 7965
  154.4310  140.1831  156.1171 H   0  0  0  0  0  0  0  0  0  0  0  0  # atno 8008 bound_to 7997
  156.0172  140.3344  155.6976 H   0  0  0  0  0  0  0  0  0  0  0  0  # atno 8009 bound_to 7997
  155.6027  140.0642  157.2719 H   0  0  0  0  0  0  0  0  0  0  0  0  # atno 8010 bound_to 7997
  140.7284  143.4567  151.0438 H   0  0  0  0  0  0  0  0  0  0  0  0  # atno 10167 bound_to 10162
  157.6191  131.1019  150.7401 H   0  0  0  0  0  0  0  0  0  0  0  0  # atno 10718 bound_to 10713
  154.8624  135.3598  154.5459 H   0  0  0  0  0  0  0  0  0  0  0  0  # atno 10763 bound_to 10752
  153.6079  135.7010  153.5363 H   0  0  0  0  0  0  0  0  0  0  0  0  # atno 10764 bound_to 10752
  153.3234  135.4144  155.1397 H   0  0  0  0  0  0  0  0  0  0  0  0  # atno 10765 bound_to 10752
  139.9291  134.9641  156.8185 H   0  0  0  0  0  0  0  0  0  0  0  0  # atno 11005 bound_to 11000
  146.3374  140.2524  142.8599 LP  0  0  0  0  0  0  0  0  0  0  0  0  # atno 17320 bound_to 7965
  144.9760  140.8414  143.5426 LP  0  0  0  0  0  0  0  0  0  0  0  0  # atno 17321 bound_to 7965
  139.8248  143.7770  152.3178 LP  0  0  0  0  0  0  0  0  0  0  0  0  # atno 17342 bound_to 10162
  139.7865  144.7426  151.0014 LP  0  0  0  0  0  0  0  0  0  0  0  0  # atno 17343 bound_to 10162
  156.7762  130.4844  149.5409 LP  0  0  0  0  0  0  0  0  0  0  0  0  # atno 17370 bound_to 10713
  156.1328  130.6190  151.0357 LP  0  0  0  0  0  0  0  0  0  0  0  0  # atno 17371 bound_to 10713
  140.6253  133.9955  155.7637 LP  0  0  0  0  0  0  0  0  0  0  0  0  # atno 17394 bound_to 11000
  141.0868  133.9979  157.3301 LP  0  0  0  0  0  0  0  0  0  0  0  0  # atno 17395 bound_to 11000

$$$$
