AV-unprocessed.smi:1760|AV-procd|sdf|7090|dock1
  -GOLD-   22720 8303D 1   1.00000     0.00000
 Structure written by MMmdl.
 44 46  0  0  0  0  0  0  0  0  2 V2000
  146.7749  133.0139  153.6047 O   0  0  0  0  0  0  0  0  0  0  0  0
  147.5052  132.5367  152.7366 C   0  0  0  0  0  0  0  0  0  0  0  0
  148.7169  131.9879  152.9412 N   0  0  0  0  0  0  0  0  0  0  0  0
  149.4387  131.8450  154.1384 C   0  0  0  0  0  0  0  0  0  0  0  0
  150.1234  130.7304  154.5060 C   0  0  0  0  0  0  0  0  0  0  0  0
  150.8441  130.6481  155.7656 C   0  0  0  0  0  0  0  0  0  0  0  0
  151.6787  129.4291  156.1269 C   0  0  0  0  0  0  0  0  0  0  0  0
  151.6092  128.4959  155.1767 F   0  0  0  0  0  0  0  0  0  0  0  0
  152.9555  129.7813  156.2698 F   0  0  0  0  0  0  0  0  0  0  0  0
  151.2661  128.8896  157.2741 F   0  0  0  0  0  0  0  0  0  0  0  0
  150.8035  131.7390  156.5527 C   0  0  0  0  0  0  0  0  0  0  0  0
  150.0814  132.8792  156.1937 N   0  0  0  0  0  0  0  0  0  0  0  0
  149.3928  133.0098  155.0377 C   0  0  0  0  0  0  0  0  0  0  0  0
  148.7819  134.0496  154.7926 O   0  0  0  0  0  0  0  0  0  0  0  0
  147.1692  132.4776  151.4396 N   0  0  0  0  0  0  0  0  0  0  0  0
  145.9121  132.9429  150.8590 C   0  0  2  0  0  0  0  0  0  0  0  0
  145.5976  134.3625  151.3593 C   0  0  0  0  0  0  0  0  0  0  0  0
  144.2240  134.8400  150.8510 C   0  0  0  0  0  0  0  0  0  0  0  0
  143.1354  133.8954  151.2114 N   0  3  2  0  0  0  0  0  0  0  0  0
  142.7557  133.9562  152.6426 C   0  0  0  0  0  0  0  0  0  0  0  0
  141.2641  133.9038  152.8768 C   0  0  0  0  0  0  0  0  0  0  0  0
  142.0068  135.2138  153.0174 C   0  0  0  0  0  0  0  0  0  0  0  0
  143.4118  132.5158  150.7337 C   0  0  0  0  0  0  0  0  0  0  0  0
  144.7682  131.9875  151.2384 C   0  0  0  0  0  0  0  0  0  0  0  0
  150.0848  133.6495  156.8469 H   0  0  0  0  0  0  0  0  0  0  0  0
  149.1643  131.5773  152.1346 H   0  0  0  0  0  0  0  0  0  0  0  0
  150.1381  129.8547  153.8782 H   0  0  0  0  0  0  0  0  0  0  0  0
  151.3166  131.8258  157.4991 H   0  0  0  0  0  0  0  0  0  0  0  0
  147.8349  132.0646  150.8026 H   0  0  0  0  0  0  0  0  0  0  0  0
  145.9819  132.9754  149.7700 H   0  0  0  0  0  0  0  0  0  0  0  0
  145.6170  134.3877  152.4496 H   0  0  0  0  0  0  0  0  0  0  0  0
  146.3717  135.0543  151.0249 H   0  0  0  0  0  0  0  0  0  0  0  0
  143.9989  135.8341  151.2386 H   0  0  0  0  0  0  0  0  0  0  0  0
  144.2520  134.9337  149.7646 H   0  0  0  0  0  0  0  0  0  0  0  0
  143.4377  133.4932  153.3528 H   0  0  0  0  0  0  0  0  0  0  0  0
  140.6096  133.7876  152.0147 H   0  0  0  0  0  0  0  0  0  0  0  0
  140.9163  133.4278  153.7914 H   0  0  0  0  0  0  0  0  0  0  0  0
  142.1486  135.6007  154.0246 H   0  0  0  0  0  0  0  0  0  0  0  0
  141.8454  135.9675  152.2488 H   0  0  0  0  0  0  0  0  0  0  0  0
  142.6055  131.8475  151.0378 H   0  0  0  0  0  0  0  0  0  0  0  0
  143.4086  132.5232  149.6429 H   0  0  0  0  0  0  0  0  0  0  0  0
  144.9548  130.9989  150.8173 H   0  0  0  0  0  0  0  0  0  0  0  0
  144.7338  131.8561  152.3206 H   0  0  0  0  0  0  0  0  0  0  0  0
  142.3171  134.2068  150.7076 H   0  0  0  0  0  0  0  0  0  0  0  0
  1  2  2  0  0  0  0
  2  3  1  0  0  0  0
  2 15  1  0  0  0  0
  3  4  1  0  0  0  0
  3 26  1  0  0  0  0
  4 13  1  0  0  0  0
  4  5  2  0  0  0  0
  5  6  1  0  0  0  0
  5 27  1  0  0  0  0
  6  7  1  0  0  0  0
  6 11  2  0  0  0  0
  7  8  1  0  0  0  0
  7  9  1  0  0  0  0
  7 10  1  0  0  0  0
 11 12  1  0  0  0  0
 11 28  1  0  0  0  0
 12 25  1  0  0  0  0
 12 13  1  0  0  0  0
 13 14  2  0  0  0  0
 15 16  1  0  0  0  0
 15 29  1  0  0  0  0
 16 24  1  0  0  0  0
 16 17  1  0  0  0  0
 16 30  1  0  0  0  0
 17 18  1  0  0  0  0
 17 31  1  0  0  0  0
 17 32  1  0  0  0  0
 18 19  1  0  0  0  0
 18 33  1  0  0  0  0
 18 34  1  0  0  0  0
 19 20  1  0  0  0  0
 19 23  1  0  0  0  0
 19 44  1  0  0  0  0
 20 22  1  0  0  0  0
 20 21  1  0  0  0  0
 20 35  1  0  0  0  0
 21 22  1  0  0  0  0
 21 36  1  0  0  0  0
 21 37  1  0  0  0  0
 22 38  1  0  0  0  0
 22 39  1  0  0  0  0
 23 24  1  0  0  0  0
 23 40  1  0  0  0  0
 23 41  1  0  0  0  0
 24 42  1  0  0  0  0
 24 43  1  0  0  0  0
M  CHG  1  19   1
M  END
> <s_m_source_file>
AV-unprocessed.smi

> <i_m_source_file_index>
1760

> <i_lp_mmshare_version>
43012

> <i_f3d_flags>
0

> <s_epik_input>
W0NIMl0xW0NIMl1bQ0hdMU4oW0NIMl1bQ0gyXTIpW0NIMl1bQ0gyXVtDSF0yW05IXUMoPU8pW05IXWMzW2NIXWMoQyhGKShGKUYpW2NIXVtuSF1jMz1P

> <s_epik_cmdline>
J2VwaWtfcHl0aG9uJywgJy1waCcsICc3LjAnLCAnLXRuJywgJzgnLCAnLW1hJywgJzIwMCcsICctbWV0YWxfYmluZGluZycsICctaW1hZScsICc8aW5maWxlLm1hZT4nLCAnLW9tYWUnLCAnPG91dGZpbGUubWFlPic=

> <r_lp_tautomer_probability>
0.999

> <r_epik_Ionization_Penalty>
0.131122

> <r_epik_Ionization_Penalty_Charging>
0.131104

> <r_epik_Ionization_Penalty_Neutral>
1.84439e-05

> <r_epik_State_Penalty>
0.116042

> <r_epik_Charging_Adjusted_Penalty>
0.247146

> <i_epik_Tot_Q>
1

> <i_epik_Tot_abs_Q>
1

> <r_epik_Metal_State_Penalty>
0.492282

> <b_epik_Metal_Only>
0

> <s_lp_Force_Field>
OPLS_2005

> <r_lp_Energy>
39.2626

> <b_lp_Chiralities_Consistent>
1

> <s_lp_Variant>
AV-unprocessed.smi:1760-2

> <Gold.Version>
5.8.1

> <Gold.Id.Protein>
6NUR|6NUR_protein|mol2

> <Gold.PLP.Fitness>
50.4958

> <Gold.PLP.PLP>
-39.4526

> <Gold.PLP.part.hbond>
-3.0000

> <Gold.PLP.part.metal>
0.0000

> <Gold.PLP.part.buried>
-5.7440

> <Gold.PLP.part.nonpolar>
-31.7198

> <Gold.PLP.part.repulsive>
0.3530

> <Gold.PLP.ligand.clash>
0.0000

> <Gold.PLP.ligand.torsion>
1.1314

> <Gold.PLP.Chemscore.Hbond>
4.0000

> <Gold.PLP.Chemscore.CHOScore>
0.0000

> <Gold.PLP.Chemscore.Metal>
0.0000

> <Gold.Chemscore.Hbonds>
donor molecule, donor type, donor heavy atom, donor atom, acceptor molecule, acceptor atom, score
      L1  H     3    26       P1 10747  0.99
      L1  H    15    29       P1 10747  1.00
      L1  H    19    44       P1 10186  2.00

> <Gold.PLP.Chemscore.Internal.Correction>
1.3061

> <Gold.Rescore>
     Score         DG    S(hbond)    S(metal)    S(lipo)     H(rot)  DE(clash)    DE(int)     intcor
     12.84     -20.37       2.35        0.00      88.21       1.29       0.82       6.71       ----

> <Gold.Chemscore.Fitness>
12.8413

> <Gold.Chemscore.DG>
-20.3679

> <Gold.Chemscore.ZeroCoef>
-5.4800

> <Gold.Chemscore.Hbond>
2.3542

> <Gold.Chemscore.Metal>
0.0000

> <Gold.Chemscore.Lipo>
88.2126

> <Gold.Chemscore.Internal_Hbond>
0.0000

> <Gold.Chemscore.DEClash>
0.8169

> <Gold.Chemscore.DEInternal>
6.7096

> <Gold.Chemscore.Rot>
1.2875

> <Gold.Chemscore.Internal.Correction>
   9.000000E+99

> <Gold.Chemscore.Hbonds>
donor molecule, donor type, donor heavy atom, donor atom, acceptor molecule, acceptor atom, score
      L1  H     3    26       P1 10747  0.51
      L1  H    15    29       P1 10747  0.99
      L1  H    19    44       P1 10186  0.40

> <Gold.Chemscore.Hbond.Weighted>
-7.8630

> <Gold.Chemscore.Metal.Weighted>
-0.0000

> <Gold.Chemscore.Lipo.Weighted>
-10.3209

> <Gold.Chemscore.Internal_Hbond.Weighted>
0.0000

> <Gold.Chemscore.DEClash.Weighted>
0.8169

> <Gold.Chemscore.DEInternal.Weighted>
6.7096

> <Gold.Chemscore.Rot.Weighted>
3.2960

> <Gold.Chemscore.Internal.Correction.Weighted>
   9.000000E+99

> <Gold.Protein.RotatedTorsions>
[ 6907 6896 6895 6894 ] final   60.55 input  -60.11 | X-H torsion
[ 7974 7965 7964 7962 ] final   20.31 input  175.53 | X-H torsion
[ 8008 7997 7996 7995 ] final   72.09 input   59.86 | X-H torsion
[ 10167 10162 10161 10158 ] final   -3.89 input  -65.29 | X-H torsion
[ 10718 10713 10712 10709 ] final  101.59 input   66.30 | X-H torsion
[ 10763 10752 10751 10750 ] final   65.37 input  -60.55 | X-H torsion
[ 11005 11000 10999 10996 ] final -142.88 input  -57.11 | X-H torsion

> <Gold.Protein.ActiveResidues>
 VAL166  LYS551  ARG553  GLY616  TRP617  ASP618  TYR619  PRO620  LYS621  CYS622 
 ASP623  PHE694  ASN695  SER759  ASP760  ASP761  ALA762  ILE779  LEU786  VAL792 
 PHE793  MET794  SER795  GLU796  ALA797  LYS798  CYS799  TRP800  GLU811  SER814 

> <Gold.Protein.RotatedAtoms>
  152.4012  134.6282  160.0068 H   0  0  0  0  0  0  0  0  0  0  0  0  # atno 6907 bound_to 6896
  151.6487  133.3316  159.3155 H   0  0  0  0  0  0  0  0  0  0  0  0  # atno 6908 bound_to 6896
  150.7913  134.6980  159.6579 H   0  0  0  0  0  0  0  0  0  0  0  0  # atno 6909 bound_to 6896
  146.2116  139.8188  142.8684 H   0  0  0  0  0  0  0  0  0  0  0  0  # atno 7974 bound_to 7965
  155.7636  140.3486  155.5211 H   0  0  0  0  0  0  0  0  0  0  0  0  # atno 8008 bound_to 7997
  155.8889  140.1014  157.1453 H   0  0  0  0  0  0  0  0  0  0  0  0  # atno 8009 bound_to 7997
  154.4031  140.1308  156.4278 H   0  0  0  0  0  0  0  0  0  0  0  0  # atno 8010 bound_to 7997
  140.6907  143.6487  150.8370 H   0  0  0  0  0  0  0  0  0  0  0  0  # atno 10167 bound_to 10162
  157.6825  131.0730  150.5275 H   0  0  0  0  0  0  0  0  0  0  0  0  # atno 10718 bound_to 10713
  153.0093  135.5359  154.6656 H   0  0  0  0  0  0  0  0  0  0  0  0  # atno 10763 bound_to 10752
  154.5854  135.2854  155.0693 H   0  0  0  0  0  0  0  0  0  0  0  0  # atno 10764 bound_to 10752
  154.1806  135.6517  153.5085 H   0  0  0  0  0  0  0  0  0  0  0  0  # atno 10765 bound_to 10752
  140.8181  134.2665  157.4912 H   0  0  0  0  0  0  0  0  0  0  0  0  # atno 11005 bound_to 11000
  145.3118  141.0222  143.3550 LP  0  0  0  0  0  0  0  0  0  0  0  0  # atno 17320 bound_to 7965
  144.8930  139.4749  143.6669 LP  0  0  0  0  0  0  0  0  0  0  0  0  # atno 17321 bound_to 7965
  140.0199  143.5553  152.2804 LP  0  0  0  0  0  0  0  0  0  0  0  0  # atno 17342 bound_to 10162
  139.6307  144.7644  151.2541 LP  0  0  0  0  0  0  0  0  0  0  0  0  # atno 17343 bound_to 10162
  156.5586  130.4250  149.6073 LP  0  0  0  0  0  0  0  0  0  0  0  0  # atno 17370 bound_to 10713
  156.2840  130.7087  151.1919 LP  0  0  0  0  0  0  0  0  0  0  0  0  # atno 17371 bound_to 10713
  139.8710  134.9520  156.4102 LP  0  0  0  0  0  0  0  0  0  0  0  0  # atno 17394 bound_to 11000
  140.9128  133.7699  155.9812 LP  0  0  0  0  0  0  0  0  0  0  0  0  # atno 17395 bound_to 11000

$$$$
