AV-unprocessed.smi:2943|AV-procd|sdf|11268|dock1
  -GOLD-   2272016163D 1   1.00000     0.00000
 Structure written by MMmdl.
 36 38  0  0  0  0  0  0  0  0  1 V2000
  148.5923  140.4577  154.3992 C   0  0  0  0  0  0  0  0  0  0  0  0
  149.7071  140.3087  155.3921 C   0  0  0  0  0  0  0  0  0  0  0  0
  149.8413  140.9934  156.5783 C   0  0  0  0  0  0  0  0  0  0  0  0
  148.9271  142.0296  157.1578 C   0  0  0  0  0  0  0  0  0  0  0  0
  151.0119  140.5941  157.2269 N   0  0  0  0  0  0  0  0  0  0  0  0
  151.4978  141.1001  158.5035 C   0  0  0  0  0  0  0  0  0  0  0  0
  152.1424  142.4897  158.3675 C   0  0  2  0  0  0  0  0  0  0  0  0
  152.5600  143.1090  159.7008 C   0  0  0  0  0  0  0  0  0  0  0  0
  152.5175  144.5852  159.3797 C   0  0  0  0  0  0  0  0  0  0  0  0
  151.2888  144.6658  158.4797 C   0  0  0  0  0  0  0  0  0  0  0  0
  151.2408  143.4260  157.7799 O   0  0  0  0  0  0  0  0  0  0  0  0
  151.6415  139.6265  156.4577 C   0  0  0  0  0  0  0  0  0  0  0  0
  152.8111  138.9781  156.7415 N   0  0  0  0  0  0  0  0  0  0  0  0
  153.1364  138.0968  155.7928 C   0  0  0  0  0  0  0  0  0  0  0  0
  152.4809  137.8036  154.6663 N   0  0  0  0  0  0  0  0  0  0  0  0
  151.3263  138.4512  154.3914 C   0  0  0  0  0  0  0  0  0  0  0  0
  150.6734  138.1133  153.2080 N   0  0  0  0  0  0  0  0  0  0  0  0
  150.8373  139.4251  155.3017 C   0  0  0  0  0  0  0  0  0  0  0  0
  148.1820  141.4673  154.4017 H   0  0  0  0  0  0  0  0  0  0  0  0
  147.7778  139.7670  154.6183 H   0  0  0  0  0  0  0  0  0  0  0  0
  148.9319  140.2589  153.3832 H   0  0  0  0  0  0  0  0  0  0  0  0
  147.9525  142.0208  156.6705 H   0  0  0  0  0  0  0  0  0  0  0  0
  149.3512  143.0269  157.0398 H   0  0  0  0  0  0  0  0  0  0  0  0
  148.7547  141.8586  158.2198 H   0  0  0  0  0  0  0  0  0  0  0  0
  150.6614  141.1411  159.2022 H   0  0  0  0  0  0  0  0  0  0  0  0
  152.2084  140.3888  158.9249 H   0  0  0  0  0  0  0  0  0  0  0  0
  153.0159  142.4357  157.7167 H   0  0  0  0  0  0  0  0  0  0  0  0
  151.8309  142.8785  160.4791 H   0  0  0  0  0  0  0  0  0  0  0  0
  153.5400  142.7708  160.0384 H   0  0  0  0  0  0  0  0  0  0  0  0
  152.4411  145.2173  160.2648 H   0  0  0  0  0  0  0  0  0  0  0  0
  153.4116  144.8751  158.8259 H   0  0  0  0  0  0  0  0  0  0  0  0
  150.3828  144.7584  159.0798 H   0  0  0  0  0  0  0  0  0  0  0  0
  151.3286  145.5110  157.7925 H   0  0  0  0  0  0  0  0  0  0  0  0
  154.0519  137.5482  155.9575 H   0  0  0  0  0  0  0  0  0  0  0  0
  151.0458  137.4146  152.5816 H   0  0  0  0  0  0  0  0  0  0  0  0
  149.8071  138.5578  152.9400 H   0  0  0  0  0  0  0  0  0  0  0  0
  1  2  1  0  0  0  0
  1 19  1  0  0  0  0
  1 20  1  0  0  0  0
  1 21  1  0  0  0  0
  2 18  1  0  0  0  0
  2  3  2  0  0  0  0
  3  4  1  0  0  0  0
  3  5  1  0  0  0  0
  4 22  1  0  0  0  0
  4 23  1  0  0  0  0
  4 24  1  0  0  0  0
  5  6  1  0  0  0  0
  5 12  1  0  0  0  0
  6  7  1  0  0  0  0
  6 25  1  0  0  0  0
  6 26  1  0  0  0  0
  7 11  1  0  0  0  0
  7  8  1  0  0  0  0
  7 27  1  0  0  0  0
  8  9  1  0  0  0  0
  8 28  1  0  0  0  0
  8 29  1  0  0  0  0
  9 10  1  0  0  0  0
  9 30  1  0  0  0  0
  9 31  1  0  0  0  0
 10 11  1  0  0  0  0
 10 32  1  0  0  0  0
 10 33  1  0  0  0  0
 12 18  1  0  0  0  0
 12 13  2  0  0  0  0
 13 14  1  0  0  0  0
 14 15  2  0  0  0  0
 14 34  1  0  0  0  0
 15 16  1  0  0  0  0
 16 17  1  0  0  0  0
 16 18  2  0  0  0  0
 17 35  1  0  0  0  0
 17 36  1  0  0  0  0
M  END
> <s_m_source_file>
AV-unprocessed.smi

> <i_m_source_file_index>
2943

> <i_lp_mmshare_version>
43012

> <i_f3d_flags>
0

> <s_epik_input>
bjFbY0hdbmMoW05IMl0pYyhjMTIpYyhbQ0gzXSljKFtDSDNdKW4yW0NIMl1bQ0BASF0zW0NIMl1bQ0gyXVtDSDJdTzM=

> <s_epik_cmdline>
J2VwaWtfcHl0aG9uJywgJy1waCcsICc3LjAnLCAnLXRuJywgJzgnLCAnLW1hJywgJzIwMCcsICctbWV0YWxfYmluZGluZycsICctaW1hZScsICc8aW5maWxlLm1hZT4nLCAnLW9tYWUnLCAnPG91dGZpbGUubWFlPic=

> <r_epik_Ionization_Penalty>
0.0115167

> <r_epik_Ionization_Penalty_Charging>
0

> <r_epik_Ionization_Penalty_Neutral>
0.0115167

> <r_epik_State_Penalty>
0.00863248

> <r_epik_Charging_Adjusted_Penalty>
0.00863248

> <i_epik_Tot_Q>
0

> <i_epik_Tot_abs_Q>
0

> <r_epik_Metal_State_Penalty>
0.00847169

> <b_epik_Metal_Only>
0

> <s_lp_Force_Field>
OPLS_2005

> <r_lp_Energy>
17.4576

> <b_lp_Chiralities_Consistent>
1

> <s_lp_Variant>
AV-unprocessed.smi:2943-1

> <Gold.Version>
5.8.1

> <Gold.Id.Protein>
6NUR|6NUR_protein|mol2

> <Gold.PLP.Fitness>
42.1281

> <Gold.PLP.PLP>
-35.2137

> <Gold.PLP.part.hbond>
-5.0000

> <Gold.PLP.part.metal>
0.0000

> <Gold.PLP.part.buried>
-0.3222

> <Gold.PLP.part.nonpolar>
-29.7755

> <Gold.PLP.part.repulsive>
0.3176

> <Gold.PLP.ligand.clash>
0.0000

> <Gold.PLP.ligand.torsion>
0.2353

> <Gold.PLP.Chemscore.Hbond>
2.4615

> <Gold.PLP.Chemscore.CHOScore>
0.0000

> <Gold.PLP.Chemscore.Metal>
0.0000

> <Gold.Chemscore.Hbonds>
donor molecule, donor type, donor heavy atom, donor atom, acceptor molecule, acceptor atom, score
      L1  H    17    35       P1  7949  1.00
      L1  H    17    36       P1  7957  0.14
      P1  H  7997  8009       L1    13  1.00
      P1  H 10752 10765       L1    15  0.32

> <Gold.PLP.Chemscore.Internal.Correction>
0.0004

> <Gold.Rescore>
     Score         DG    S(hbond)    S(metal)    S(lipo)     H(rot)  DE(clash)    DE(int)     intcor
     14.32     -15.91       1.20        0.00      82.33       1.26       0.05       1.54       ----

> <Gold.Chemscore.Fitness>
14.3158

> <Gold.Chemscore.DG>
-15.9060

> <Gold.Chemscore.ZeroCoef>
-5.4800

> <Gold.Chemscore.Hbond>
1.2039

> <Gold.Chemscore.Metal>
0.0000

> <Gold.Chemscore.Lipo>
82.3275

> <Gold.Chemscore.Internal_Hbond>
0.0000

> <Gold.Chemscore.DEClash>
0.0475

> <Gold.Chemscore.DEInternal>
1.5426

> <Gold.Chemscore.Rot>
1.2607

> <Gold.Chemscore.Internal.Correction>
   9.000000E+99

> <Gold.Chemscore.Hbonds>
donor molecule, donor type, donor heavy atom, donor atom, acceptor molecule, acceptor atom, score
      L1  H    17    35       P1  7949  0.30
      L1  H    17    36       P1  7957  0.10
      P1  H  7997  8009       L1    13  0.27
      P1  H 10752 10765       L1    15  0.10

> <Gold.Chemscore.Hbond.Weighted>
-4.0211

> <Gold.Chemscore.Metal.Weighted>
-0.0000

> <Gold.Chemscore.Lipo.Weighted>
-9.6323

> <Gold.Chemscore.Internal_Hbond.Weighted>
0.0000

> <Gold.Chemscore.DEClash.Weighted>
0.0475

> <Gold.Chemscore.DEInternal.Weighted>
1.5426

> <Gold.Chemscore.Rot.Weighted>
3.2274

> <Gold.Chemscore.Internal.Correction.Weighted>
   9.000000E+99

> <Gold.Protein.RotatedTorsions>
[ 6907 6896 6895 6894 ] final   39.57 input  -60.11 | X-H torsion
[ 7974 7965 7964 7962 ] final  163.23 input  175.53 | X-H torsion
[ 8008 7997 7996 7995 ] final  164.09 input   59.86 | X-H torsion
[ 10167 10162 10161 10158 ] final -141.68 input  -65.29 | X-H torsion
[ 10718 10713 10712 10709 ] final -129.61 input   66.30 | X-H torsion
[ 10763 10752 10751 10750 ] final  169.68 input  -60.55 | X-H torsion
[ 11005 11000 10999 10996 ] final -171.13 input  -57.11 | X-H torsion

> <Gold.Protein.ActiveResidues>
 VAL166  LYS551  ARG553  GLY616  TRP617  ASP618  TYR619  PRO620  LYS621  CYS622 
 ASP623  PHE694  ASN695  SER759  ASP760  ASP761  ALA762  ILE779  LEU786  VAL792 
 PHE793  MET794  SER795  GLU796  ALA797  LYS798  CYS799  TRP800  GLU811  SER814 

> <Gold.Protein.RotatedAtoms>
  152.1712  134.8832  160.0533 H   0  0  0  0  0  0  0  0  0  0  0  0  # atno 6907 bound_to 6896
  151.9791  133.3747  159.4109 H   0  0  0  0  0  0  0  0  0  0  0  0  # atno 6908 bound_to 6896
  150.6902  134.3980  159.5150 H   0  0  0  0  0  0  0  0  0  0  0  0  # atno 6909 bound_to 6896
  144.7599  139.8152  143.6336 H   0  0  0  0  0  0  0  0  0  0  0  0  # atno 7974 bound_to 7965
  156.1907  140.1706  156.8098 H   0  0  0  0  0  0  0  0  0  0  0  0  # atno 8008 bound_to 7997
  154.5468  140.0725  156.8633 H   0  0  0  0  0  0  0  0  0  0  0  0  # atno 8009 bound_to 7997
  155.3107  140.3367  155.4246 H   0  0  0  0  0  0  0  0  0  0  0  0  # atno 8010 bound_to 7997
  139.8161  143.7637  152.2665 H   0  0  0  0  0  0  0  0  0  0  0  0  # atno 10167 bound_to 10162
  156.2064  130.6890  151.0599 H   0  0  0  0  0  0  0  0  0  0  0  0  # atno 10718 bound_to 10713
  154.3866  135.2753  155.2179 H   0  0  0  0  0  0  0  0  0  0  0  0  # atno 10763 bound_to 10752
  154.4263  135.5988  153.6044 H   0  0  0  0  0  0  0  0  0  0  0  0  # atno 10764 bound_to 10752
  152.9833  135.5985  154.4116 H   0  0  0  0  0  0  0  0  0  0  0  0  # atno 10765 bound_to 10752
  140.5117  134.5795  157.5021 H   0  0  0  0  0  0  0  0  0  0  0  0  # atno 11005 bound_to 11000
  146.1652  139.4781  142.9963 LP  0  0  0  0  0  0  0  0  0  0  0  0  # atno 17320 bound_to 7965
  145.6652  141.0230  143.1687 LP  0  0  0  0  0  0  0  0  0  0  0  0  # atno 17321 bound_to 7965
  139.7801  144.7447  151.0101 LP  0  0  0  0  0  0  0  0  0  0  0  0  # atno 17342 bound_to 10162
  140.7815  143.4551  151.0357 LP  0  0  0  0  0  0  0  0  0  0  0  0  # atno 17343 bound_to 10162
  157.7014  131.0774  150.6807 LP  0  0  0  0  0  0  0  0  0  0  0  0  # atno 17370 bound_to 10713
  156.6865  130.4582  149.5612 LP  0  0  0  0  0  0  0  0  0  0  0  0  # atno 17371 bound_to 10713
  139.9655  134.7380  156.0148 LP  0  0  0  0  0  0  0  0  0  0  0  0  # atno 17394 bound_to 11000
  141.1382  133.6570  156.3653 LP  0  0  0  0  0  0  0  0  0  0  0  0  # atno 17395 bound_to 11000

$$$$
