AV-unprocessed.smi:1492|AV-procd|sdf|6047|dock3
  -GOLD-   22720 6163D 1   1.00000     0.00000
 Structure written by MMmdl.
 52 53  0  0  0  0  0  0  0  0  3 V2000
  148.4916  131.9501  156.2848 C   0  0  0  0  0  0  0  0  0  0  0  0
  147.6126  132.9113  155.4656 C   0  0  0  0  0  0  0  0  0  0  0  0
  148.3772  133.8622  154.4911 C   0  0  2  0  0  0  0  0  0  0  0  0
  149.1946  132.9648  153.5244 C   0  0  0  0  0  0  0  0  0  0  0  0
  149.3530  134.7644  155.3106 C   0  0  0  0  0  0  0  0  0  0  0  0
  149.7904  135.9371  154.5609 N   0  0  0  0  0  0  0  0  0  0  0  0
  150.8213  136.7410  154.8641 C   0  0  0  0  0  0  0  0  0  0  0  0
  151.6412  136.4904  155.7465 O   0  0  0  0  0  0  0  0  0  0  0  0
  150.9180  138.0499  154.0739 C   0  0  0  0  0  0  0  0  0  0  0  0
  150.7385  139.3259  154.8999 C   0  0  0  0  0  0  0  0  0  0  0  0
  149.5740  140.0344  154.9508 C   0  0  0  0  0  0  0  0  0  0  0  0
  148.3388  139.6554  154.1530 C   0  0  0  0  0  0  0  0  0  0  0  0
  149.4474  141.1645  155.7759 N   0  0  0  0  0  0  0  0  0  0  0  0
  150.4337  141.5261  156.5046 C   0  0  0  0  0  0  0  0  0  0  0  0
  150.2902  142.7402  157.3970 C   0  0  0  0  0  0  0  0  0  0  0  0
  151.6456  140.8741  156.5354 N   0  5  0  0  0  0  0  0  0  0  0  0
  151.8540  139.7810  155.7487 C   0  0  0  0  0  0  0  0  0  0  0  0
  152.9230  139.1720  155.7439 O   0  0  0  0  0  0  0  0  0  0  0  0
  147.4052  134.7052  153.7044 N   0  3  0  0  0  0  0  0  0  0  0  0
  146.4750  133.9623  152.8074 C   0  0  0  0  0  0  0  0  0  0  0  0
  145.6908  134.9405  151.9183 C   0  0  0  0  0  0  0  0  0  0  0  0
  144.9699  135.8522  152.7352 O   0  0  0  0  0  0  0  0  0  0  0  0
  145.8387  136.6338  153.5427 C   0  0  0  0  0  0  0  0  0  0  0  0
  146.6380  135.7176  154.4849 C   0  0  0  0  0  0  0  0  0  0  0  0
  147.8716  131.3262  156.9287 H   0  0  0  0  0  0  0  0  0  0  0  0
  149.1847  132.4880  156.9311 H   0  0  0  0  0  0  0  0  0  0  0  0
  149.0718  131.2830  155.6478 H   0  0  0  0  0  0  0  0  0  0  0  0
  146.8611  132.3350  154.9267 H   0  0  0  0  0  0  0  0  0  0  0  0
  147.0355  133.5019  156.1788 H   0  0  0  0  0  0  0  0  0  0  0  0
  149.7218  132.1731  154.0569 H   0  0  0  0  0  0  0  0  0  0  0  0
  149.9562  133.5285  152.9853 H   0  0  0  0  0  0  0  0  0  0  0  0
  148.5575  132.4803  152.7845 H   0  0  0  0  0  0  0  0  0  0  0  0
  148.9052  135.0729  156.2553 H   0  0  0  0  0  0  0  0  0  0  0  0
  150.2580  134.2173  155.5709 H   0  0  0  0  0  0  0  0  0  0  0  0
  149.1869  136.2341  153.8071 H   0  0  0  0  0  0  0  0  0  0  0  0
  151.8784  138.0843  153.5575 H   0  0  0  0  0  0  0  0  0  0  0  0
  150.1742  138.0123  153.2788 H   0  0  0  0  0  0  0  0  0  0  0  0
  148.5318  139.7539  153.0846 H   0  0  0  0  0  0  0  0  0  0  0  0
  147.4947  140.2997  154.4020 H   0  0  0  0  0  0  0  0  0  0  0  0
  148.0454  138.6265  154.3602 H   0  0  0  0  0  0  0  0  0  0  0  0
  151.0015  143.5116  157.1005 H   0  0  0  0  0  0  0  0  0  0  0  0
  150.4835  142.4713  158.4362 H   0  0  0  0  0  0  0  0  0  0  0  0
  149.2850  143.1592  157.3338 H   0  0  0  0  0  0  0  0  0  0  0  0
  147.0081  133.2733  152.1556 H   0  0  0  0  0  0  0  0  0  0  0  0
  145.7723  133.3707  153.3945 H   0  0  0  0  0  0  0  0  0  0  0  0
  146.3599  135.4807  151.2465 H   0  0  0  0  0  0  0  0  0  0  0  0
  144.9841  134.3946  151.2928 H   0  0  0  0  0  0  0  0  0  0  0  0
  146.5068  137.2258  152.9149 H   0  0  0  0  0  0  0  0  0  0  0  0
  145.2411  137.3375  154.1223 H   0  0  0  0  0  0  0  0  0  0  0  0
  145.9530  135.2234  155.1741 H   0  0  0  0  0  0  0  0  0  0  0  0
  147.2941  136.3491  155.0810 H   0  0  0  0  0  0  0  0  0  0  0  0
  147.9919  135.2448  153.0841 H   0  0  0  0  0  0  0  0  0  0  0  0
  1  2  1  0  0  0  0
  1 25  1  0  0  0  0
  1 26  1  0  0  0  0
  1 27  1  0  0  0  0
  2  3  1  0  0  0  0
  2 28  1  0  0  0  0
  2 29  1  0  0  0  0
  3  4  1  0  0  0  0
  3  5  1  0  0  0  0
  3 19  1  0  0  0  0
  4 30  1  0  0  0  0
  4 31  1  0  0  0  0
  4 32  1  0  0  0  0
  5  6  1  0  0  0  0
  5 33  1  0  0  0  0
  5 34  1  0  0  0  0
  6  7  1  0  0  0  0
  6 35  1  0  0  0  0
  7  8  2  0  0  0  0
  7  9  1  0  0  0  0
  9 10  1  0  0  0  0
  9 36  1  0  0  0  0
  9 37  1  0  0  0  0
 10 17  1  0  0  0  0
 10 11  2  0  0  0  0
 11 12  1  0  0  0  0
 11 13  1  0  0  0  0
 12 38  1  0  0  0  0
 12 39  1  0  0  0  0
 12 40  1  0  0  0  0
 13 14  2  0  0  0  0
 14 15  1  0  0  0  0
 14 16  1  0  0  0  0
 15 41  1  0  0  0  0
 15 42  1  0  0  0  0
 15 43  1  0  0  0  0
 16 17  1  0  0  0  0
 17 18  2  0  0  0  0
 19 24  1  0  0  0  0
 19 20  1  0  0  0  0
 19 52  1  0  0  0  0
 20 21  1  0  0  0  0
 20 44  1  0  0  0  0
 20 45  1  0  0  0  0
 21 22  1  0  0  0  0
 21 46  1  0  0  0  0
 21 47  1  0  0  0  0
 22 23  1  0  0  0  0
 23 24  1  0  0  0  0
 23 48  1  0  0  0  0
 23 49  1  0  0  0  0
 24 50  1  0  0  0  0
 24 51  1  0  0  0  0
M  CHG  1  16  -1
M  CHG  1  19   1
M  END
> <s_m_source_file>
AV-unprocessed.smi

> <i_m_source_file_index>
1492

> <i_lp_mmshare_version>
43012

> <i_f3d_flags>
0

> <s_epik_input>
W0NIMl0xW0NIMl1PW0NIMl1bQ0gyXU4xW0NAQF0oW0NIM10pKFtDSDJdW0NIM10pW0NIMl1bTkhdQyg9TylbQ0gyXWMyYyhbQ0gzXSluYyhbQ0gzXSlbbkhdYzI9Tw==

> <s_epik_cmdline>
J2VwaWtfcHl0aG9uJywgJy1waCcsICc3LjAnLCAnLXRuJywgJzgnLCAnLW1hJywgJzIwMCcsICctbWV0YWxfYmluZGluZycsICctaW1hZScsICc8aW5maWxlLm1hZT4nLCAnLW9tYWUnLCAnPG91dGZpbGUubWFlPic=

> <r_lp_tautomer_probability>
0.839158

> <r_epik_Ionization_Penalty>
6.90614

> <r_epik_Ionization_Penalty_Charging>
0.570079

> <r_epik_Ionization_Penalty_Neutral>
6.33607

> <r_epik_State_Penalty>
4.81716

> <r_epik_Charging_Adjusted_Penalty>
5.38724

> <i_epik_Tot_Q>
0

> <i_epik_Tot_abs_Q>
2

> <r_epik_Metal_State_Penalty>
1.25629

> <b_epik_Metal_Only>
1

> <s_lp_Force_Field>
OPLS_2005

> <r_lp_Energy>
27.3859

> <b_lp_Chiralities_Consistent>
1

> <s_lp_Variant>
AV-unprocessed.smi:1492-12

> <Gold.Version>
5.8.1

> <Gold.Id.Protein>
6NUR|6NUR_protein|mol2

> <Gold.PLP.Fitness>
48.8236

> <Gold.PLP.PLP>
-34.8899

> <Gold.PLP.part.hbond>
-4.2850

> <Gold.PLP.part.metal>
0.0000

> <Gold.PLP.part.buried>
-1.6251

> <Gold.PLP.part.nonpolar>
-29.5725

> <Gold.PLP.part.repulsive>
0.3016

> <Gold.PLP.ligand.clash>
0.0000

> <Gold.PLP.ligand.torsion>
0.6690

> <Gold.PLP.Chemscore.Hbond>
4.9920

> <Gold.PLP.Chemscore.CHOScore>
0.0000

> <Gold.PLP.Chemscore.Metal>
0.0000

> <Gold.Chemscore.Hbonds>
donor molecule, donor type, donor heavy atom, donor atom, acceptor molecule, acceptor atom, score
      L1  H     6    35       P1  7948  0.86
      L1  H    19    52       P1  7948  2.00
      P1  H  7997  8008       L1    18  1.00
      P1  H 10752 10763       L1     8  1.00

> <Gold.PLP.Chemscore.Internal.Correction>
0.2958

> <Gold.Rescore>
     Score         DG    S(hbond)    S(metal)    S(lipo)     H(rot)  DE(clash)    DE(int)     intcor
     19.28     -20.15       3.66        0.00      67.40       2.12       0.07       0.80       ----

> <Gold.Chemscore.Fitness>
19.2772

> <Gold.Chemscore.DG>
-20.1516

> <Gold.Chemscore.ZeroCoef>
-5.4800

> <Gold.Chemscore.Hbond>
3.6594

> <Gold.Chemscore.Metal>
0.0000

> <Gold.Chemscore.Lipo>
67.3963

> <Gold.Chemscore.Internal_Hbond>
0.0000

> <Gold.Chemscore.DEClash>
0.0719

> <Gold.Chemscore.DEInternal>
0.8024

> <Gold.Chemscore.Rot>
2.1235

> <Gold.Chemscore.Internal.Correction>
   9.000000E+99

> <Gold.Chemscore.Hbonds>
donor molecule, donor type, donor heavy atom, donor atom, acceptor molecule, acceptor atom, score
      L1  H     6    35       P1  7948  0.78
      L1  H    19    52       P1  7948  1.00
      P1  H  7997  8008       L1    18  0.90
      P1  H 10752 10763       L1     8  0.74

> <Gold.Chemscore.Hbond.Weighted>
-12.2222

> <Gold.Chemscore.Metal.Weighted>
-0.0000

> <Gold.Chemscore.Lipo.Weighted>
-7.8854

> <Gold.Chemscore.Internal_Hbond.Weighted>
0.0000

> <Gold.Chemscore.DEClash.Weighted>
0.0719

> <Gold.Chemscore.DEInternal.Weighted>
0.8024

> <Gold.Chemscore.Rot.Weighted>
5.4360

> <Gold.Chemscore.Internal.Correction.Weighted>
   9.000000E+99

> <Gold.Protein.RotatedTorsions>
[ 6907 6896 6895 6894 ] final  114.89 input  -60.11 | X-H torsion
[ 7974 7965 7964 7962 ] final  111.19 input  175.53 | X-H torsion
[ 8008 7997 7996 7995 ] final  -44.70 input   59.86 | X-H torsion
[ 10167 10162 10161 10158 ] final  -77.39 input  -65.29 | X-H torsion
[ 10718 10713 10712 10709 ] final  123.14 input   66.30 | X-H torsion
[ 10763 10752 10751 10750 ] final   87.35 input  -60.55 | X-H torsion
[ 11005 11000 10999 10996 ] final  178.01 input  -57.11 | X-H torsion

> <Gold.Protein.ActiveResidues>
 VAL166  LYS551  ARG553  GLY616  TRP617  ASP618  TYR619  PRO620  LYS621  CYS622 
 ASP623  PHE694  ASN695  SER759  ASP760  ASP761  ALA762  ILE779  LEU786  VAL792 
 PHE793  MET794  SER795  GLU796  ALA797  LYS798  CYS799  TRP800  GLU811  SER814 

> <Gold.Protein.RotatedAtoms>
  152.4775  133.8173  159.7034 H   0  0  0  0  0  0  0  0  0  0  0  0  # atno 6907 bound_to 6896
  150.8802  133.7374  159.2941 H   0  0  0  0  0  0  0  0  0  0  0  0  # atno 6908 bound_to 6896
  151.4880  135.1059  159.9848 H   0  0  0  0  0  0  0  0  0  0  0  0  # atno 6909 bound_to 6896
  145.2454  139.2761  143.4095 H   0  0  0  0  0  0  0  0  0  0  0  0  # atno 7974 bound_to 7965
  154.3998  140.1415  156.3726 H   0  0  0  0  0  0  0  0  0  0  0  0  # atno 8008 bound_to 7997
  155.8079  140.3474  155.5419 H   0  0  0  0  0  0  0  0  0  0  0  0  # atno 8009 bound_to 7997
  155.8417  140.0927  157.1721 H   0  0  0  0  0  0  0  0  0  0  0  0  # atno 8010 bound_to 7997
  140.4774  143.2411  151.8111 H   0  0  0  0  0  0  0  0  0  0  0  0  # atno 10167 bound_to 10162
  157.5688  131.1085  150.8406 H   0  0  0  0  0  0  0  0  0  0  0  0  # atno 10718 bound_to 10713
  153.1659  135.4547  154.9837 H   0  0  0  0  0  0  0  0  0  0  0  0  # atno 10763 bound_to 10752
  154.7932  135.3228  154.7732 H   0  0  0  0  0  0  0  0  0  0  0  0  # atno 10764 bound_to 10752
  153.8214  135.6946  153.4881 H   0  0  0  0  0  0  0  0  0  0  0  0  # atno 10765 bound_to 10752
  140.3904  134.6867  157.4504 H   0  0  0  0  0  0  0  0  0  0  0  0  # atno 11005 bound_to 11000
  146.3317  140.2829  142.8611 LP  0  0  0  0  0  0  0  0  0  0  0  0  # atno 17320 bound_to 7965
  144.9551  140.8218  143.5548 LP  0  0  0  0  0  0  0  0  0  0  0  0  # atno 17321 bound_to 7965
  139.4828  144.4815  151.9300 LP  0  0  0  0  0  0  0  0  0  0  0  0  # atno 17342 bound_to 10162
  140.3901  144.2627  150.5900 LP  0  0  0  0  0  0  0  0  0  0  0  0  # atno 17343 bound_to 10162
  156.8883  130.5204  149.5287 LP  0  0  0  0  0  0  0  0  0  0  0  0  # atno 17370 bound_to 10713
  156.0734  130.5762  150.9427 LP  0  0  0  0  0  0  0  0  0  0  0  0  # atno 17371 bound_to 10713
  140.0411  134.6266  155.8980 LP  0  0  0  0  0  0  0  0  0  0  0  0  # atno 17394 bound_to 11000
  141.1893  133.6565  156.5360 LP  0  0  0  0  0  0  0  0  0  0  0  0  # atno 17395 bound_to 11000

$$$$
