AV-unprocessed.smi:157|AV-procd|sdf|1312|dock4
  -GOLD-   2262019 03D 1   1.00000     0.00000
 Structure written by MMmdl.
 36 38  0  0  0  0  0  0  0  0  2 V2000
  144.1048  133.2422  147.4926 O   0  0  0  0  0  0  0  0  0  0  0  0
  144.3092  132.2714  148.4969 C   0  0  0  0  0  0  0  0  0  0  0  0
  144.1832  132.9117  149.8905 C   0  0  2  0  0  0  0  0  0  0  0  0
  144.6383  134.2626  149.8774 O   0  0  0  0  0  0  0  0  0  0  0  0
  145.2210  134.5910  151.1046 C   0  0  1  0  0  0  0  0  0  0  0  0
  144.4960  135.7666  151.6747 N   0  0  0  0  0  0  0  0  0  0  0  0
  144.9134  137.0499  151.6517 C   0  0  0  0  0  0  0  0  0  0  0  0
  144.0816  137.9039  152.2235 N   0  3  0  0  0  0  0  0  0  0  0  0
  143.0101  137.1627  152.6752 C   0  0  0  0  0  0  0  0  0  0  0  0
  143.2797  135.8399  152.3141 C   0  0  0  0  0  0  0  0  0  0  0  0
  142.5168  134.6793  152.5153 N   0  0  0  0  0  0  0  0  0  0  0  0
  141.2664  134.7061  152.8450 C   0  0  0  0  0  0  0  0  0  0  0  0
  140.4655  135.7944  153.1483 N   0  0  0  0  0  0  0  0  0  0  0  0
  140.8827  136.8649  154.0362 C   0  0  0  0  0  0  0  0  0  0  0  0
  141.8866  137.8355  153.4005 C   0  0  2  0  0  0  0  0  0  0  0  0
  141.1800  138.7453  152.5826 O   0  0  0  0  0  0  0  0  0  0  0  0
  145.0757  133.3786  152.0281 C   0  0  0  0  0  0  0  0  0  0  0  0
  144.9586  132.2418  151.0347 C   0  0  2  0  0  0  0  0  0  0  0  0
  146.2395  131.7944  150.6326 O   0  0  0  0  0  0  0  0  0  0  0  0
  143.1284  132.9494  150.1693 H   0  0  0  0  0  0  0  0  0  0  0  0
  146.2526  134.9121  150.9561 H   0  0  0  0  0  0  0  0  0  0  0  0
  142.3225  138.4311  154.2034 H   0  0  0  0  0  0  0  0  0  0  0  0
  144.4124  131.3945  151.4507 H   0  0  0  0  0  0  0  0  0  0  0  0
  144.6938  133.9647  147.6491 H   0  0  0  0  0  0  0  0  0  0  0  0
  143.6040  131.4504  148.3666 H   0  0  0  0  0  0  0  0  0  0  0  0
  145.3081  131.8532  148.3698 H   0  0  0  0  0  0  0  0  0  0  0  0
  145.8458  137.3467  151.2057 H   0  0  0  0  0  0  0  0  0  0  0  0
  140.7194  133.7648  152.9154 H   0  0  0  0  0  0  0  0  0  0  0  0
  139.4637  135.6660  153.1694 H   0  0  0  0  0  0  0  0  0  0  0  0
  140.0056  137.3996  154.4027 H   0  0  0  0  0  0  0  0  0  0  0  0
  141.3430  136.4028  154.9109 H   0  0  0  0  0  0  0  0  0  0  0  0
  141.7632  139.4446  152.3311 H   0  0  0  0  0  0  0  0  0  0  0  0
  145.9183  133.2965  152.7159 H   0  0  0  0  0  0  0  0  0  0  0  0
  144.1545  133.4616  152.6072 H   0  0  0  0  0  0  0  0  0  0  0  0
  146.3574  130.9085  150.9408 H   0  0  0  0  0  0  0  0  0  0  0  0
  144.2146  138.9031  152.3147 H   0  0  0  0  0  0  0  0  0  0  0  0
  1  2  1  0  0  0  0
  1 24  1  0  0  0  0
  2  3  1  0  0  0  0
  2 25  1  0  0  0  0
  2 26  1  0  0  0  0
  3 20  1  0  0  0  0
  3 18  1  0  0  0  0
  3  4  1  0  0  0  0
  4  5  1  0  0  0  0
  5 21  1  0  0  0  0
  5  6  1  0  0  0  0
  5 17  1  0  0  0  0
  6 10  1  0  0  0  0
  6  7  1  0  0  0  0
  7  8  2  0  0  0  0
  7 27  1  0  0  0  0
  8  9  1  0  0  0  0
  8 36  1  0  0  0  0
  9 15  1  0  0  0  0
  9 10  2  0  0  0  0
 10 11  1  0  0  0  0
 11 12  2  0  0  0  0
 12 13  1  0  0  0  0
 12 28  1  0  0  0  0
 13 14  1  0  0  0  0
 13 29  1  0  0  0  0
 14 15  1  0  0  0  0
 14 30  1  0  0  0  0
 14 31  1  0  0  0  0
 15 22  1  0  0  0  0
 15 16  1  0  0  0  0
 16 32  1  0  0  0  0
 17 18  1  0  0  0  0
 17 33  1  0  0  0  0
 17 34  1  0  0  0  0
 18 23  1  0  0  0  0
 18 19  1  0  0  0  0
 19 35  1  0  0  0  0
M  CHG  1   8   1
M  END
> <s_m_source_file>
AV-unprocessed.smi

> <i_m_source_file_index>
157

> <i_lp_mmshare_version>
43012

> <i_f3d_flags>
0

> <s_epik_input>
W09IXVtDSDJdW0NASF0xT1tDQEhdKFtDSDJdW0NAQEhdMVtPSF0pbihbY0hdbjIpYyhjMjMpTj1bQ0hdW05IXVtDSDJdW0NASF0zW09IXQ==

> <s_epik_cmdline>
J2VwaWtfcHl0aG9uJywgJy1waCcsICc3LjAnLCAnLXRuJywgJzgnLCAnLW1hJywgJzIwMCcsICctbWV0YWxfYmluZGluZycsICctaW1hZScsICc8aW5maWxlLm1hZT4nLCAnLW9tYWUnLCAnPG91dGZpbGUubWFlPic=

> <r_epik_Ionization_Penalty>
1.68594

> <r_epik_Ionization_Penalty_Charging>
0

> <r_epik_Ionization_Penalty_Neutral>
1.68594

> <r_epik_State_Penalty>
1.79006

> <r_epik_Charging_Adjusted_Penalty>
1.79006

> <i_epik_Tot_Q>
1

> <i_epik_Tot_abs_Q>
1

> <r_epik_Metal_State_Penalty>
5.85324

> <b_epik_Metal_Only>
0

> <s_epik_Chemistry_Notes>
This compound has an imine and may undergo hydrolysis. This compound contains an acetal/aminal-like group ( X-CH(R)-Y where X, Y are N, S, or O) that may be acid/base labile, releasing an aldehyde.

> <s_lp_Force_Field>
OPLS_2005

> <r_lp_Energy>
55.0153

> <b_lp_Chiralities_Consistent>
1

> <s_lp_Variant>
AV-unprocessed.smi:157-22

> <Gold.Version>
5.8.1

> <Gold.Id.Protein>
6NUR|6NUR_protein|mol2

> <Gold.PLP.Fitness>
47.0243

> <Gold.PLP.PLP>
-36.7741

> <Gold.PLP.part.hbond>
-8.3512

> <Gold.PLP.part.metal>
0.0000

> <Gold.PLP.part.buried>
-5.0302

> <Gold.PLP.part.nonpolar>
-25.7647

> <Gold.PLP.part.repulsive>
2.4215

> <Gold.PLP.ligand.clash>
0.0000

> <Gold.PLP.ligand.torsion>
0.8541

> <Gold.PLP.Chemscore.Hbond>
3.9840

> <Gold.PLP.Chemscore.CHOScore>
0.0000

> <Gold.PLP.Chemscore.Metal>
0.0000

> <Gold.Chemscore.Hbonds>
donor molecule, donor type, donor heavy atom, donor atom, acceptor molecule, acceptor atom, score
      L1  H     1    24       P1  7921  1.00
      L1  H     8    36       P1 10175  2.00
      L1  H    16    32       P1 10175  0.80

> <Gold.PLP.Chemscore.Internal.Correction>
0.0063

> <Gold.Rescore>
     Score         DG    S(hbond)    S(metal)    S(lipo)     H(rot)  DE(clash)    DE(int)     intcor
      4.23      -9.66       2.41        0.00      47.21       3.67       3.17       2.26       ----

> <Gold.Chemscore.Fitness>
4.2281

> <Gold.Chemscore.DG>
-9.6589

> <Gold.Chemscore.ZeroCoef>
-5.4800

> <Gold.Chemscore.Hbond>
2.4072

> <Gold.Chemscore.Metal>
0.0000

> <Gold.Chemscore.Lipo>
47.2112

> <Gold.Chemscore.Internal_Hbond>
0.0000

> <Gold.Chemscore.DEClash>
3.1721

> <Gold.Chemscore.DEInternal>
2.2588

> <Gold.Chemscore.Rot>
3.6659

> <Gold.Chemscore.Internal.Correction>
   9.000000E+99

> <Gold.Chemscore.Hbonds>
donor molecule, donor type, donor heavy atom, donor atom, acceptor molecule, acceptor atom, score
      L1  H     1    24       P1  7921  0.97
      L1  H     8    36       P1 10175  0.96
      L1  H    16    32       P1 10175  0.15

> <Gold.Chemscore.Hbond.Weighted>
-8.0400

> <Gold.Chemscore.Metal.Weighted>
-0.0000

> <Gold.Chemscore.Lipo.Weighted>
-5.5237

> <Gold.Chemscore.Internal_Hbond.Weighted>
0.0000

> <Gold.Chemscore.DEClash.Weighted>
3.1721

> <Gold.Chemscore.DEInternal.Weighted>
2.2588

> <Gold.Chemscore.Rot.Weighted>
9.3848

> <Gold.Chemscore.Internal.Correction.Weighted>
   9.000000E+99

> <Gold.Protein.RotatedTorsions>
[ 6907 6896 6895 6894 ] final  148.81 input  -60.11 | X-H torsion
[ 7974 7965 7964 7962 ] final  -67.70 input  175.53 | X-H torsion
[ 8008 7997 7996 7995 ] final  -61.13 input   59.86 | X-H torsion
[ 10167 10162 10161 10158 ] final  -72.20 input  -65.29 | X-H torsion
[ 10718 10713 10712 10709 ] final   30.11 input   66.30 | X-H torsion
[ 10763 10752 10751 10750 ] final  130.52 input  -60.55 | X-H torsion
[ 11005 11000 10999 10996 ] final   24.80 input  -57.11 | X-H torsion

> <Gold.Protein.ActiveResidues>
 VAL166  LYS551  ARG553  GLY616  TRP617  ASP618  TYR619  PRO620  LYS621  CYS622 
 ASP623  PHE694  ASN695  SER759  ASP760  ASP761  ALA762  ILE779  LEU786  VAL792 
 PHE793  MET794  SER795  GLU796  ALA797  LYS798  CYS799  TRP800  GLU811  SER814 

> <Gold.Protein.RotatedAtoms>
  152.1365  133.4438  159.4745 H   0  0  0  0  0  0  0  0  0  0  0  0  # atno 6907 bound_to 6896
  150.6882  134.2358  159.4461 H   0  0  0  0  0  0  0  0  0  0  0  0  # atno 6908 bound_to 6896
  152.0245  134.9803  160.0622 H   0  0  0  0  0  0  0  0  0  0  0  0  # atno 6909 bound_to 6896
  145.7259  140.9018  143.0605 H   0  0  0  0  0  0  0  0  0  0  0  0  # atno 7974 bound_to 7965
  154.4432  140.1024  156.6383 H   0  0  0  0  0  0  0  0  0  0  0  0  # atno 8008 bound_to 7997
  155.5530  140.3486  155.4454 H   0  0  0  0  0  0  0  0  0  0  0  0  # atno 8009 bound_to 7997
  156.0515  140.1305  157.0034 H   0  0  0  0  0  0  0  0  0  0  0  0  # atno 8010 bound_to 7997
  140.5212  143.2331  151.7427 H   0  0  0  0  0  0  0  0  0  0  0  0  # atno 10167 bound_to 10162
  157.2553  130.7135  149.6426 H   0  0  0  0  0  0  0  0  0  0  0  0  # atno 10718 bound_to 10713
  153.7593  135.3198  155.3334 H   0  0  0  0  0  0  0  0  0  0  0  0  # atno 10763 bound_to 10752
  154.8236  135.4586  154.0854 H   0  0  0  0  0  0  0  0  0  0  0  0  # atno 10764 bound_to 10752
  153.2080  135.6932  153.8232 H   0  0  0  0  0  0  0  0  0  0  0  0  # atno 10765 bound_to 10752
  140.3547  134.2190  155.7677 H   0  0  0  0  0  0  0  0  0  0  0  0  # atno 11005 bound_to 11000
  144.6905  139.9265  143.7470 LP  0  0  0  0  0  0  0  0  0  0  0  0  # atno 17320 bound_to 7965
  146.0582  139.3578  143.0597 LP  0  0  0  0  0  0  0  0  0  0  0  0  # atno 17321 bound_to 7965
  139.4924  144.4252  151.9933 LP  0  0  0  0  0  0  0  0  0  0  0  0  # atno 17342 bound_to 10162
  140.3349  144.3272  150.5979 LP  0  0  0  0  0  0  0  0  0  0  0  0  # atno 17343 bound_to 10162
  155.9665  130.4414  150.5341 LP  0  0  0  0  0  0  0  0  0  0  0  0  # atno 17370 bound_to 10713
  157.3234  131.0686  151.1915 LP  0  0  0  0  0  0  0  0  0  0  0  0  # atno 17371 bound_to 10713
  141.2002  133.7994  157.0502 LP  0  0  0  0  0  0  0  0  0  0  0  0  # atno 17394 bound_to 11000
  140.0674  134.9721  157.1409 LP  0  0  0  0  0  0  0  0  0  0  0  0  # atno 17395 bound_to 11000

$$$$
