AV-unprocessed.smi:261|AV-procd|sdf|1991|dock5
  -GOLD-   2262021173D 1   1.00000     0.00000
 Structure written by MMmdl.
 51 54  0  0  0  0  0  0  0  0  1 V2000
  152.2915  145.1132  160.0397 C   0  0  0  0  0  0  0  0  0  0  0  0
  152.6323  143.8567  159.4778 O   0  0  0  0  0  0  0  0  0  0  0  0
  151.5103  143.0210  159.2321 C   0  0  1  0  0  0  0  0  0  0  0  0
  150.8918  143.2239  157.8498 C   0  0  0  0  0  0  0  0  0  0  0  0
  150.1854  141.8891  157.5657 C   0  0  1  0  0  0  0  0  0  0  0  0
  150.0389  141.6600  156.0483 C   0  0  0  0  0  0  0  0  0  0  0  0
  149.2390  142.4703  155.3475 N   0  0  0  0  0  0  0  0  0  0  0  0
  150.6594  140.7461  155.5096 O   0  0  0  0  0  0  0  0  0  0  0  0
  151.0129  140.8996  158.2699 N   0  0  0  0  0  0  0  0  0  0  0  0
  150.5739  139.6399  158.5424 C   0  0  0  0  0  0  0  0  0  0  0  0
  151.4565  138.7105  158.9967 N   0  0  0  0  0  0  0  0  0  0  0  0
  151.0526  137.4695  159.2815 C   0  0  0  0  0  0  0  0  0  0  0  0
  149.8276  136.9503  159.1912 N   0  0  0  0  0  0  0  0  0  0  0  0
  148.9329  137.8759  158.7432 C   0  0  0  0  0  0  0  0  0  0  0  0
  149.2156  139.2290  158.3992 C   0  0  0  0  0  0  0  0  0  0  0  0
  148.0430  139.8631  158.0007 N   0  0  0  0  0  0  0  0  0  0  0  0
  147.1275  138.9376  158.0914 C   0  0  0  0  0  0  0  0  0  0  0  0
  147.5757  137.7141  158.5327 N   0  0  0  0  0  0  0  0  0  0  0  0
  146.7826  136.5152  158.7421 C   0  0  0  0  0  0  0  0  0  0  0  0
  147.3839  135.5880  159.8169 C   0  0  2  0  0  0  0  0  0  0  0  0
  147.0660  134.2457  159.5007 O   0  0  0  0  0  0  0  0  0  0  0  0
  146.8534  135.9076  161.2269 C   0  0  1  0  0  0  0  0  0  0  0  0
  147.3561  134.9659  162.3216 C   0  0  0  0  0  0  0  0  0  0  0  0
  147.1670  135.8106  163.5609 C   0  0  0  0  0  0  0  0  0  0  0  0
  147.5370  137.2029  163.0562 C   0  0  0  0  0  0  0  0  0  0  0  0
  147.3016  137.1930  161.6497 O   0  0  0  0  0  0  0  0  0  0  0  0
  151.9281  141.5513  159.2002 C   0  0  0  0  0  0  0  0  0  0  0  0
  150.7481  143.1549  160.0023 H   0  0  0  0  0  0  0  0  0  0  0  0
  149.1931  141.9164  158.0192 H   0  0  0  0  0  0  0  0  0  0  0  0
  153.1995  145.6879  160.2224 H   0  0  0  0  0  0  0  0  0  0  0  0
  151.7746  144.9923  160.9924 H   0  0  0  0  0  0  0  0  0  0  0  0
  151.6583  145.6946  159.3690 H   0  0  0  0  0  0  0  0  0  0  0  0
  150.2069  144.0717  157.8178 H   0  0  0  0  0  0  0  0  0  0  0  0
  151.6837  143.4064  157.1205 H   0  0  0  0  0  0  0  0  0  0  0  0
  149.1298  142.3310  154.3534 H   0  0  0  0  0  0  0  0  0  0  0  0
  148.7449  143.2156  155.8160 H   0  0  0  0  0  0  0  0  0  0  0  0
  151.8211  136.7973  159.6337 H   0  0  0  0  0  0  0  0  0  0  0  0
  146.0934  139.1247  157.8406 H   0  0  0  0  0  0  0  0  0  0  0  0
  145.7777  136.8266  159.0293 H   0  0  0  0  0  0  0  0  0  0  0  0
  146.6845  135.9881  157.7921 H   0  0  0  0  0  0  0  0  0  0  0  0
  148.4703  135.6867  159.8125 H   0  0  0  0  0  0  0  0  0  0  0  0
  147.6201  133.6776  160.0138 H   0  0  0  0  0  0  0  0  0  0  0  0
  145.7619  135.9160  161.2309 H   0  0  0  0  0  0  0  0  0  0  0  0
  146.8075  134.0245  162.3603 H   0  0  0  0  0  0  0  0  0  0  0  0
  148.4144  134.7408  162.1809 H   0  0  0  0  0  0  0  0  0  0  0  0
  146.1211  135.7892  163.8702 H   0  0  0  0  0  0  0  0  0  0  0  0
  147.7794  135.4849  164.4020 H   0  0  0  0  0  0  0  0  0  0  0  0
  146.9577  137.9841  163.5490 H   0  0  0  0  0  0  0  0  0  0  0  0
  148.5942  137.4066  163.2279 H   0  0  0  0  0  0  0  0  0  0  0  0
  152.9426  141.4434  158.8141 H   0  0  0  0  0  0  0  0  0  0  0  0
  151.8997  141.1238  160.2037 H   0  0  0  0  0  0  0  0  0  0  0  0
  1  2  1  0  0  0  0
  1 30  1  0  0  0  0
  1 31  1  0  0  0  0
  1 32  1  0  0  0  0
  2  3  1  0  0  0  0
  3 28  1  0  0  0  0
  3 27  1  0  0  0  0
  3  4  1  0  0  0  0
  4  5  1  0  0  0  0
  4 33  1  0  0  0  0
  4 34  1  0  0  0  0
  5 29  1  0  0  0  0
  5  6  1  0  0  0  0
  5  9  1  0  0  0  0
  6  7  1  0  0  0  0
  6  8  2  0  0  0  0
  7 35  1  0  0  0  0
  7 36  1  0  0  0  0
  9 10  1  0  0  0  0
  9 27  1  0  0  0  0
 10 15  1  0  0  0  0
 10 11  2  0  0  0  0
 11 12  1  0  0  0  0
 12 13  2  0  0  0  0
 12 37  1  0  0  0  0
 13 14  1  0  0  0  0
 14 18  1  0  0  0  0
 14 15  2  0  0  0  0
 15 16  1  0  0  0  0
 16 17  2  0  0  0  0
 17 18  1  0  0  0  0
 17 38  1  0  0  0  0
 18 19  1  0  0  0  0
 19 20  1  0  0  0  0
 19 39  1  0  0  0  0
 19 40  1  0  0  0  0
 20 21  1  0  0  0  0
 20 22  1  0  0  0  0
 20 41  1  0  0  0  0
 21 42  1  0  0  0  0
 22 26  1  0  0  0  0
 22 23  1  0  0  0  0
 22 43  1  0  0  0  0
 23 24  1  0  0  0  0
 23 44  1  0  0  0  0
 23 45  1  0  0  0  0
 24 25  1  0  0  0  0
 24 46  1  0  0  0  0
 24 47  1  0  0  0  0
 25 26  1  0  0  0  0
 25 48  1  0  0  0  0
 25 49  1  0  0  0  0
 27 50  1  0  0  0  0
 27 51  1  0  0  0  0
M  END
> <s_m_source_file>
AV-unprocessed.smi

> <i_m_source_file_index>
261

> <i_lp_mmshare_version>
43012

> <i_f3d_flags>
0

> <s_epik_input>
W0NIM11PW0NASF0xW0NIMl1bQ0BASF0oQyg9TylbTkgyXSlOKFtDSDJdMSljKG5bY0hdbjIpYyhjMjMpbltjSF1uM1tDSDJdW0NASF0oW09IXSlbQ0BASF00W0NIMl1bQ0gyXVtDSDJdTzQ=

> <s_epik_cmdline>
J2VwaWtfcHl0aG9uJywgJy1waCcsICc3LjAnLCAnLXRuJywgJzgnLCAnLW1hJywgJzIwMCcsICctbWV0YWxfYmluZGluZycsICctaW1hZScsICc8aW5maWxlLm1hZT4nLCAnLW9tYWUnLCAnPG91dGZpbGUubWFlPic=

> <r_lp_tautomer_probability>
1

> <r_epik_Ionization_Penalty>
0.000713824

> <r_epik_Ionization_Penalty_Charging>
0

> <r_epik_Ionization_Penalty_Neutral>
0.000713824

> <r_epik_State_Penalty>
0.000402132

> <r_epik_Charging_Adjusted_Penalty>
0.000402132

> <i_epik_Tot_Q>
0

> <i_epik_Tot_abs_Q>
0

> <r_epik_Metal_State_Penalty>
-0

> <b_epik_Metal_Only>
0

> <s_lp_Force_Field>
OPLS_2005

> <r_lp_Energy>
46.441

> <b_lp_Chiralities_Consistent>
1

> <s_lp_Variant>
AV-unprocessed.smi:261-9

> <Gold.Version>
5.8.1

> <Gold.Id.Protein>
6NUR|6NUR_protein|mol2

> <Gold.PLP.Fitness>
50.8282

> <Gold.PLP.PLP>
-43.0884

> <Gold.PLP.part.hbond>
-4.8728

> <Gold.PLP.part.metal>
0.0000

> <Gold.PLP.part.buried>
-5.5410

> <Gold.PLP.part.nonpolar>
-33.3811

> <Gold.PLP.part.repulsive>
0.2636

> <Gold.PLP.ligand.clash>
0.0000

> <Gold.PLP.ligand.torsion>
1.5400

> <Gold.PLP.Chemscore.Hbond>
3.4646

> <Gold.PLP.Chemscore.CHOScore>
0.0000

> <Gold.PLP.Chemscore.Metal>
0.0000

> <Gold.Chemscore.Hbonds>
donor molecule, donor type, donor heavy atom, donor atom, acceptor molecule, acceptor atom, score
      L1  H     7    36       P1  8028  0.58
      P1  H  6896  6907       L1    13  0.05
      P1  H  6934  6947       L1    26  0.88
      P1  H  7989  7998       L1     8  0.43

> <Gold.PLP.Chemscore.Internal.Correction>
0.4262

> <Gold.Rescore>
     Score         DG    S(hbond)    S(metal)    S(lipo)     H(rot)  DE(clash)    DE(int)     intcor
      9.34     -13.70       1.87        0.00      86.60       3.18       0.12       4.23       ----

> <Gold.Chemscore.Fitness>
9.3382

> <Gold.Chemscore.DG>
-13.6953

> <Gold.Chemscore.ZeroCoef>
-5.4800

> <Gold.Chemscore.Hbond>
1.8657

> <Gold.Chemscore.Metal>
0.0000

> <Gold.Chemscore.Lipo>
86.6009

> <Gold.Chemscore.Internal_Hbond>
0.0000

> <Gold.Chemscore.DEClash>
0.1235

> <Gold.Chemscore.DEInternal>
4.2335

> <Gold.Chemscore.Rot>
3.1831

> <Gold.Chemscore.Internal.Correction>
   9.000000E+99

> <Gold.Chemscore.Hbonds>
donor molecule, donor type, donor heavy atom, donor atom, acceptor molecule, acceptor atom, score
      L1  H     7    36       P1  8028  0.55
      P1  H  6934  6947       L1    26  0.67
      P1  H  7989  7998       L1     8  0.41

> <Gold.Chemscore.Hbond.Weighted>
-6.2316

> <Gold.Chemscore.Metal.Weighted>
-0.0000

> <Gold.Chemscore.Lipo.Weighted>
-10.1323

> <Gold.Chemscore.Internal_Hbond.Weighted>
0.0000

> <Gold.Chemscore.DEClash.Weighted>
0.1235

> <Gold.Chemscore.DEInternal.Weighted>
4.2335

> <Gold.Chemscore.Rot.Weighted>
8.1486

> <Gold.Chemscore.Internal.Correction.Weighted>
   9.000000E+99

> <Gold.Protein.RotatedTorsions>
[ 6907 6896 6895 6894 ] final  -51.20 input  -60.11 | X-H torsion
[ 7974 7965 7964 7962 ] final  -99.87 input  175.53 | X-H torsion
[ 8008 7997 7996 7995 ] final  -55.57 input   59.86 | X-H torsion
[ 10167 10162 10161 10158 ] final   60.82 input  -65.29 | X-H torsion
[ 10718 10713 10712 10709 ] final  133.62 input   66.30 | X-H torsion
[ 10763 10752 10751 10750 ] final  -55.31 input  -60.55 | X-H torsion
[ 11005 11000 10999 10996 ] final  171.86 input  -57.11 | X-H torsion

> <Gold.Protein.ActiveResidues>
 VAL166  LYS551  ARG553  GLY616  TRP617  ASP618  TYR619  PRO620  LYS621  CYS622 
 ASP623  PHE694  ASN695  SER759  ASP760  ASP761  ALA762  ILE779  LEU786  VAL792 
 PHE793  MET794  SER795  GLU796  ALA797  LYS798  CYS799  TRP800  GLU811  SER814 

> <Gold.Protein.RotatedAtoms>
  150.8634  134.7991  159.7099 H   0  0  0  0  0  0  0  0  0  0  0  0  # atno 6907 bound_to 6896
  152.4663  134.5064  159.9750 H   0  0  0  0  0  0  0  0  0  0  0  0  # atno 6908 bound_to 6896
  151.5164  133.3436  159.2929 H   0  0  0  0  0  0  0  0  0  0  0  0  # atno 6909 bound_to 6896
  145.3019  140.9379  143.2818 H   0  0  0  0  0  0  0  0  0  0  0  0  # atno 7974 bound_to 7965
  154.4200  140.1150  156.5498 H   0  0  0  0  0  0  0  0  0  0  0  0  # atno 8008 bound_to 7997
  155.6421  140.3496  155.4699 H   0  0  0  0  0  0  0  0  0  0  0  0  # atno 8009 bound_to 7997
  155.9862  140.1170  157.0670 H   0  0  0  0  0  0  0  0  0  0  0  0  # atno 8010 bound_to 7997
  140.1614  144.4366  150.6707 H   0  0  0  0  0  0  0  0  0  0  0  0  # atno 10167 bound_to 10162
  157.4755  131.1083  150.9749 H   0  0  0  0  0  0  0  0  0  0  0  0  # atno 10718 bound_to 10713
  154.1887  135.6431  153.5054 H   0  0  0  0  0  0  0  0  0  0  0  0  # atno 10763 bound_to 10752
  153.0040  135.5423  154.6438 H   0  0  0  0  0  0  0  0  0  0  0  0  # atno 10764 bound_to 10752
  154.5821  135.2926  155.0695 H   0  0  0  0  0  0  0  0  0  0  0  0  # atno 10765 bound_to 10752
  140.3235  134.7417  157.4082 H   0  0  0  0  0  0  0  0  0  0  0  0  # atno 11005 bound_to 11000
  144.9086  139.4557  143.6598 LP  0  0  0  0  0  0  0  0  0  0  0  0  # atno 17320 bound_to 7965
  146.3149  139.7881  142.8991 LP  0  0  0  0  0  0  0  0  0  0  0  0  # atno 17321 bound_to 7965
  140.6640  143.2261  151.5787 LP  0  0  0  0  0  0  0  0  0  0  0  0  # atno 17342 bound_to 10162
  139.5379  144.2729  152.1290 LP  0  0  0  0  0  0  0  0  0  0  0  0  # atno 17343 bound_to 10162
  157.0500  130.5783  149.5369 LP  0  0  0  0  0  0  0  0  0  0  0  0  # atno 17370 bound_to 10713
  156.0094  130.5184  150.7940 LP  0  0  0  0  0  0  0  0  0  0  0  0  # atno 17371 bound_to 10713
  140.0921  134.5587  155.8434 LP  0  0  0  0  0  0  0  0  0  0  0  0  # atno 17394 bound_to 11000
  141.2081  133.6670  156.6347 LP  0  0  0  0  0  0  0  0  0  0  0  0  # atno 17395 bound_to 11000

$$$$
