AV-unprocessed.smi:1085|AV-procd|sdf|4721|dock10
  -GOLD-   22720 3253D 1   1.00000     0.00000
 Structure written by MMmdl.
 33 34  0  0  0  0  0  0  0  0  1 V2000
  149.3685  141.6163  156.3624 O   0  0  0  0  0  0  0  0  0  0  0  0
  150.1554  140.7220  156.0540 C   0  0  0  0  0  0  0  0  0  0  0  0
  150.0182  140.0160  154.7042 C   0  0  0  0  0  0  0  0  0  0  0  0
  151.0620  139.0239  154.5238 N   0  0  0  0  0  0  0  0  0  0  0  0
  150.9992  137.7401  154.1648 C   0  0  0  0  0  0  0  0  0  0  0  0
  152.1996  137.1813  154.1375 N   0  0  0  0  0  0  0  0  0  0  0  0
  153.0386  138.2184  154.5096 N   0  0  0  0  0  0  0  0  0  0  0  0
  152.3693  139.3146  154.7393 N   0  0  0  0  0  0  0  0  0  0  0  0
  151.1571  140.3102  156.8476 N   0  0  0  0  0  0  0  0  0  0  0  0
  151.4505  140.8270  158.1805 C   0  0  1  0  0  0  0  0  0  0  0  0
  152.8313  140.3378  158.6624 C   0  0  0  0  0  0  0  0  0  0  0  0
  153.1916  140.9415  160.0276 C   0  0  0  0  0  0  0  0  0  0  0  0
  153.1347  142.4763  159.9909 C   0  0  0  0  0  0  0  0  0  0  0  0
  151.7539  142.9833  159.5241 C   0  0  1  0  0  0  0  0  0  0  0  0
  151.6830  144.5241  159.4973 C   0  0  0  0  0  0  0  0  0  0  0  0
  152.0452  145.0360  160.6739 F   0  0  0  0  0  0  0  0  0  0  0  0
  152.4924  145.0016  158.5521 F   0  0  0  0  0  0  0  0  0  0  0  0
  150.4408  144.9197  159.2192 F   0  0  0  0  0  0  0  0  0  0  0  0
  151.3965  142.3662  158.1547 C   0  0  0  0  0  0  0  0  0  0  0  0
  149.0493  139.5193  154.6369 H   0  0  0  0  0  0  0  0  0  0  0  0
  150.0644  140.7468  153.8953 H   0  0  0  0  0  0  0  0  0  0  0  0
  150.0826  137.2186  153.9321 H   0  0  0  0  0  0  0  0  0  0  0  0
  151.7530  139.5688  156.5075 H   0  0  0  0  0  0  0  0  0  0  0  0
  150.6856  140.4702  158.8731 H   0  0  0  0  0  0  0  0  0  0  0  0
  152.8462  139.2496  158.7315 H   0  0  0  0  0  0  0  0  0  0  0  0
  153.5956  140.6108  157.9334 H   0  0  0  0  0  0  0  0  0  0  0  0
  152.5030  140.5671  160.7862 H   0  0  0  0  0  0  0  0  0  0  0  0
  154.1879  140.6136  160.3262 H   0  0  0  0  0  0  0  0  0  0  0  0
  153.3639  142.8696  160.9817 H   0  0  0  0  0  0  0  0  0  0  0  0
  153.9117  142.8514  159.3237 H   0  0  0  0  0  0  0  0  0  0  0  0
  151.0132  142.6362  160.2465 H   0  0  0  0  0  0  0  0  0  0  0  0
  152.0835  142.7435  157.3955 H   0  0  0  0  0  0  0  0  0  0  0  0
  150.3996  142.6891  157.8529 H   0  0  0  0  0  0  0  0  0  0  0  0
  1  2  2  0  0  0  0
  2  3  1  0  0  0  0
  2  9  1  0  0  0  0
  3  4  1  0  0  0  0
  3 20  1  0  0  0  0
  3 21  1  0  0  0  0
  4  8  1  0  0  0  0
  4  5  1  0  0  0  0
  5  6  2  0  0  0  0
  5 22  1  0  0  0  0
  6  7  1  0  0  0  0
  7  8  2  0  0  0  0
  9 10  1  0  0  0  0
  9 23  1  0  0  0  0
 10 19  1  0  0  0  0
 10 11  1  0  0  0  0
 10 24  1  0  0  0  0
 11 12  1  0  0  0  0
 11 25  1  0  0  0  0
 11 26  1  0  0  0  0
 12 13  1  0  0  0  0
 12 27  1  0  0  0  0
 12 28  1  0  0  0  0
 13 14  1  0  0  0  0
 13 29  1  0  0  0  0
 13 30  1  0  0  0  0
 14 15  1  0  0  0  0
 14 19  1  0  0  0  0
 14 31  1  0  0  0  0
 15 16  1  0  0  0  0
 15 17  1  0  0  0  0
 15 18  1  0  0  0  0
 19 32  1  0  0  0  0
 19 33  1  0  0  0  0
M  END
> <s_m_source_file>
AV-unprocessed.smi

> <i_m_source_file_index>
1085

> <i_lp_mmshare_version>
43012

> <i_f3d_flags>
0

> <s_epik_input>
bjFubltjSF1uMVtDSDJdQyg9TylbTkhdW0NAQEhdMltDSDJdW0NIMl1bQ0gyXVtDQEBIXShDKEYpKEYpRilbQ0gyXTI=

> <s_epik_cmdline>
J2VwaWtfcHl0aG9uJywgJy1waCcsICc3LjAnLCAnLXRuJywgJzgnLCAnLW1hJywgJzIwMCcsICctbWV0YWxfYmluZGluZycsICctaW1hZScsICc8aW5maWxlLm1hZT4nLCAnLW9tYWUnLCAnPG91dGZpbGUubWFlPic=

> <r_lp_tautomer_probability>
1

> <r_epik_Ionization_Penalty>
8.41315e-07

> <r_epik_Ionization_Penalty_Charging>
0

> <r_epik_Ionization_Penalty_Neutral>
8.41315e-07

> <r_epik_State_Penalty>
-0

> <r_epik_Charging_Adjusted_Penalty>
0

> <i_epik_Tot_Q>
0

> <i_epik_Tot_abs_Q>
0

> <r_epik_Metal_State_Penalty>
-0

> <b_epik_Metal_Only>
0

> <s_lp_Force_Field>
OPLS_2005

> <r_lp_Energy>
12.0143

> <b_lp_Chiralities_Consistent>
1

> <s_lp_Variant>
AV-unprocessed.smi:1085-2

> <Gold.Version>
5.8.1

> <Gold.Id.Protein>
6NUR|6NUR_protein|mol2

> <Gold.PLP.Fitness>
49.9162

> <Gold.PLP.PLP>
-44.7274

> <Gold.PLP.part.hbond>
-2.7476

> <Gold.PLP.part.metal>
0.0000

> <Gold.PLP.part.buried>
-5.2497

> <Gold.PLP.part.nonpolar>
-37.2359

> <Gold.PLP.part.repulsive>
0.7705

> <Gold.PLP.ligand.clash>
0.0000

> <Gold.PLP.ligand.torsion>
0.2850

> <Gold.PLP.Chemscore.Hbond>
0.9120

> <Gold.PLP.Chemscore.CHOScore>
1.0000

> <Gold.PLP.Chemscore.Metal>
0.0000

> <Gold.Chemscore.Hbonds>
donor molecule, donor type, donor heavy atom, donor atom, acceptor molecule, acceptor atom, score
      P1  H 10752 10763       L1     6  0.91
      L1  C     5    22       P1  7948  1.00

> <Gold.PLP.Chemscore.Internal.Correction>
0.0229

> <Gold.Rescore>
     Score         DG    S(hbond)    S(metal)    S(lipo)     H(rot)  DE(clash)    DE(int)     intcor
      9.65     -11.22       0.82        0.00      70.48       2.05       0.01       1.56       ----

> <Gold.Chemscore.Fitness>
9.6505

> <Gold.Chemscore.DG>
-11.2157

> <Gold.Chemscore.ZeroCoef>
-5.4800

> <Gold.Chemscore.Hbond>
0.8163

> <Gold.Chemscore.Metal>
0.0000

> <Gold.Chemscore.Lipo>
70.4800

> <Gold.Chemscore.Internal_Hbond>
0.0000

> <Gold.Chemscore.DEClash>
0.0074

> <Gold.Chemscore.DEInternal>
1.5578

> <Gold.Chemscore.Rot>
2.0456

> <Gold.Chemscore.Internal.Correction>
   9.000000E+99

> <Gold.Chemscore.Hbonds>
donor molecule, donor type, donor heavy atom, donor atom, acceptor molecule, acceptor atom, score
      P1  H 10752 10763       L1     6  0.72

> <Gold.Chemscore.Hbond.Weighted>
-2.7263

> <Gold.Chemscore.Metal.Weighted>
-0.0000

> <Gold.Chemscore.Lipo.Weighted>
-8.2462

> <Gold.Chemscore.Internal_Hbond.Weighted>
0.0000

> <Gold.Chemscore.DEClash.Weighted>
0.0074

> <Gold.Chemscore.DEInternal.Weighted>
1.5578

> <Gold.Chemscore.Rot.Weighted>
5.2368

> <Gold.Chemscore.Internal.Correction.Weighted>
   9.000000E+99

> <Gold.Protein.RotatedTorsions>
[ 6907 6896 6895 6894 ] final   44.57 input  -60.11 | X-H torsion
[ 7974 7965 7964 7962 ] final   54.73 input  175.53 | X-H torsion
[ 8008 7997 7996 7995 ] final   91.43 input   59.86 | X-H torsion
[ 10167 10162 10161 10158 ] final  102.31 input  -65.29 | X-H torsion
[ 10718 10713 10712 10709 ] final -117.93 input   66.30 | X-H torsion
[ 10763 10752 10751 10750 ] final   33.26 input  -60.55 | X-H torsion
[ 11005 11000 10999 10996 ] final -131.03 input  -57.11 | X-H torsion

> <Gold.Protein.ActiveResidues>
 VAL166  LYS551  ARG553  GLY616  TRP617  ASP618  TYR619  PRO620  LYS621  CYS622 
 ASP623  PHE694  ASN695  SER759  ASP760  ASP761  ALA762  ILE779  LEU786  VAL792 
 PHE793  MET794  SER795  GLU796  ALA797  LYS798  CYS799  TRP800  GLU811  SER814 

> <Gold.Protein.RotatedAtoms>
  152.2341  134.8293  160.0469 H   0  0  0  0  0  0  0  0  0  0  0  0  # atno 6907 bound_to 6896
  151.9032  133.3538  159.3846 H   0  0  0  0  0  0  0  0  0  0  0  0  # atno 6908 bound_to 6896
  150.7034  134.4733  159.5480 H   0  0  0  0  0  0  0  0  0  0  0  0  # atno 6909 bound_to 6896
  145.9578  139.4031  143.0266 H   0  0  0  0  0  0  0  0  0  0  0  0  # atno 7974 bound_to 7965
  156.0237  140.3337  155.7065 H   0  0  0  0  0  0  0  0  0  0  0  0  # atno 8008 bound_to 7997
  155.5986  140.0653  157.2757 H   0  0  0  0  0  0  0  0  0  0  0  0  # atno 8009 bound_to 7997
  154.4325  140.1814  156.1137 H   0  0  0  0  0  0  0  0  0  0  0  0  # atno 8010 bound_to 7997
  139.7361  144.7023  151.0647 H   0  0  0  0  0  0  0  0  0  0  0  0  # atno 10167 bound_to 10162
  156.1069  130.6218  150.9227 H   0  0  0  0  0  0  0  0  0  0  0  0  # atno 10718 bound_to 10713
  153.0221  135.6391  154.1484 H   0  0  0  0  0  0  0  0  0  0  0  0  # atno 10763 bound_to 10752
  154.1217  135.2846  155.3208 H   0  0  0  0  0  0  0  0  0  0  0  0  # atno 10764 bound_to 10752
  154.6259  135.5509  153.7688 H   0  0  0  0  0  0  0  0  0  0  0  0  # atno 10765 bound_to 10752
  140.9295  134.1339  157.4247 H   0  0  0  0  0  0  0  0  0  0  0  0  # atno 11005 bound_to 11000
  145.8081  140.9739  143.0963 LP  0  0  0  0  0  0  0  0  0  0  0  0  # atno 17320 bound_to 7965
  144.6809  139.9887  143.7484 LP  0  0  0  0  0  0  0  0  0  0  0  0  # atno 17321 bound_to 7965
  140.7779  143.4983  150.9804 LP  0  0  0  0  0  0  0  0  0  0  0  0  # atno 17342 bound_to 10162
  139.8671  143.7240  152.3169 LP  0  0  0  0  0  0  0  0  0  0  0  0  # atno 17343 bound_to 10162
  157.6247  131.0926  150.8556 LP  0  0  0  0  0  0  0  0  0  0  0  0  # atno 17370 bound_to 10713
  156.8674  130.5134  149.5299 LP  0  0  0  0  0  0  0  0  0  0  0  0  # atno 17371 bound_to 10713
  139.8793  135.0000  156.5985 LP  0  0  0  0  0  0  0  0  0  0  0  0  # atno 17394 bound_to 11000
  140.7882  133.8604  155.8624 LP  0  0  0  0  0  0  0  0  0  0  0  0  # atno 17395 bound_to 11000

$$$$
