AV-unprocessed.smi:1082|AV-procd|sdf|4714|dock6
  -GOLD-   22720 3243D 1   1.00000     0.00000
 Structure written by MMmdl.
 48 50  0  0  0  0  0  0  0  0  4 V2000
  153.0872  138.2566  156.5161 O   0  0  0  0  0  0  0  0  0  0  0  0
  151.9611  137.9434  156.1135 C   0  0  0  0  0  0  0  0  0  0  0  0
  151.5784  136.7752  155.5331 N   0  5  0  0  0  0  0  0  0  0  0  0
  150.2034  136.2714  155.4977 C   0  0  0  0  0  0  0  0  0  0  0  0
  150.1825  134.8466  154.9074 C   0  0  0  0  0  0  0  0  0  0  0  0
  148.8641  134.4809  154.3229 N   0  3  0  0  0  0  0  0  0  0  0  0
  148.8607  133.2069  153.5646 C   0  0  0  0  0  0  0  0  0  0  0  0
  147.5297  132.5053  153.8692 C   0  0  0  0  0  0  0  0  0  0  0  0
  146.6797  133.5642  154.5641 C   0  0  0  0  0  0  0  0  0  0  0  0
  147.7195  134.4331  155.2622 C   0  0  0  0  0  0  0  0  0  0  0  0
  150.9430  138.8147  156.2151 N   0  0  0  0  0  0  0  0  0  0  0  0
  150.9849  140.1580  156.6793 C   0  0  0  0  0  0  0  0  0  0  0  0
  151.9251  140.5537  157.6635 C   0  0  0  0  0  0  0  0  0  0  0  0
  151.9038  141.8683  158.1660 C   0  0  0  0  0  0  0  0  0  0  0  0
  150.9300  142.7623  157.6884 C   0  0  0  0  0  0  0  0  0  0  0  0
  150.0398  142.3502  156.7620 N   0  3  0  0  0  0  0  0  0  0  0  0
  150.0184  141.1026  156.2289 C   0  0  0  0  0  0  0  0  0  0  0  0
  149.0329  140.8163  155.2566 N   0  0  0  0  0  0  0  0  0  0  0  0
  148.9249  141.6694  154.0767 C   0  0  0  0  0  0  0  0  0  0  0  0
  147.4335  141.7410  153.7315 C   0  0  0  0  0  0  0  0  0  0  0  0
  146.8459  140.5036  154.4037 C   0  0  0  0  0  0  0  0  0  0  0  0
  147.7033  140.3739  155.6598 C   0  0  0  0  0  0  0  0  0  0  0  0
  149.7675  136.2442  156.4964 H   0  0  0  0  0  0  0  0  0  0  0  0
  149.5405  136.9019  154.9038 H   0  0  0  0  0  0  0  0  0  0  0  0
  150.9429  134.7948  154.1263 H   0  0  0  0  0  0  0  0  0  0  0  0
  150.4723  134.1137  155.6612 H   0  0  0  0  0  0  0  0  0  0  0  0
  148.9605  133.4296  152.5019 H   0  0  0  0  0  0  0  0  0  0  0  0
  149.6952  132.5638  153.8485 H   0  0  0  0  0  0  0  0  0  0  0  0
  147.0504  132.1066  152.9747 H   0  0  0  0  0  0  0  0  0  0  0  0
  147.7038  131.6716  154.5507 H   0  0  0  0  0  0  0  0  0  0  0  0
  146.1412  134.1548  153.8217 H   0  0  0  0  0  0  0  0  0  0  0  0
  145.9493  133.1393  155.2532 H   0  0  0  0  0  0  0  0  0  0  0  0
  148.0247  133.9604  156.1972 H   0  0  0  0  0  0  0  0  0  0  0  0
  147.3381  135.4284  155.4934 H   0  0  0  0  0  0  0  0  0  0  0  0
  150.0809  138.5284  155.7748 H   0  0  0  0  0  0  0  0  0  0  0  0
  152.6508  139.8555  158.0538 H   0  0  0  0  0  0  0  0  0  0  0  0
  152.6166  142.1803  158.9151 H   0  0  0  0  0  0  0  0  0  0  0  0
  150.8327  143.7860  158.0195 H   0  0  0  0  0  0  0  0  0  0  0  0
  149.3404  142.6637  154.2474 H   0  0  0  0  0  0  0  0  0  0  0  0
  149.4758  141.2073  153.2568 H   0  0  0  0  0  0  0  0  0  0  0  0
  146.9977  142.6383  154.1732 H   0  0  0  0  0  0  0  0  0  0  0  0
  147.2486  141.7720  152.6573 H   0  0  0  0  0  0  0  0  0  0  0  0
  145.7818  140.5987  154.6220 H   0  0  0  0  0  0  0  0  0  0  0  0
  146.9858  139.6313  153.7635 H   0  0  0  0  0  0  0  0  0  0  0  0
  147.7197  139.3502  156.0352 H   0  0  0  0  0  0  0  0  0  0  0  0
  147.3077  141.0228  156.4423 H   0  0  0  0  0  0  0  0  0  0  0  0
  148.6502  135.2011  153.6469 H   0  0  0  0  0  0  0  0  0  0  0  0
  149.3445  143.0215  156.4361 H   0  0  0  0  0  0  0  0  0  0  0  0
  1  2  2  0  0  0  0
  2  3  1  0  0  0  0
  2 11  1  0  0  0  0
  3  4  1  0  0  0  0
  4  5  1  0  0  0  0
  4 23  1  0  0  0  0
  4 24  1  0  0  0  0
  5  6  1  0  0  0  0
  5 25  1  0  0  0  0
  5 26  1  0  0  0  0
  6 10  1  0  0  0  0
  6  7  1  0  0  0  0
  6 47  1  0  0  0  0
  7  8  1  0  0  0  0
  7 27  1  0  0  0  0
  7 28  1  0  0  0  0
  8  9  1  0  0  0  0
  8 29  1  0  0  0  0
  8 30  1  0  0  0  0
  9 10  1  0  0  0  0
  9 31  1  0  0  0  0
  9 32  1  0  0  0  0
 10 33  1  0  0  0  0
 10 34  1  0  0  0  0
 11 12  1  0  0  0  0
 11 35  1  0  0  0  0
 12 17  1  0  0  0  0
 12 13  2  0  0  0  0
 13 14  1  0  0  0  0
 13 36  1  0  0  0  0
 14 15  2  0  0  0  0
 14 37  1  0  0  0  0
 15 16  1  0  0  0  0
 15 38  1  0  0  0  0
 16 17  2  0  0  0  0
 16 48  1  0  0  0  0
 17 18  1  0  0  0  0
 18 22  1  0  0  0  0
 18 19  1  0  0  0  0
 19 20  1  0  0  0  0
 19 39  1  0  0  0  0
 19 40  1  0  0  0  0
 20 21  1  0  0  0  0
 20 41  1  0  0  0  0
 20 42  1  0  0  0  0
 21 22  1  0  0  0  0
 21 43  1  0  0  0  0
 21 44  1  0  0  0  0
 22 45  1  0  0  0  0
 22 46  1  0  0  0  0
M  CHG  1   3  -1
M  CHG  1   6   1
M  CHG  1  16   1
M  END
> <s_m_source_file>
AV-unprocessed.smi

> <i_m_source_file_index>
1082

> <i_lp_mmshare_version>
43012

> <i_f3d_flags>
0

> <s_epik_input>
W0NIMl0xW0NIMl1bQ0gyXVtDSDJdTjFbQ0gyXVtDSDJdW05IXUMoPU8pW05IXWMyW2NIXVtjSF1bY0hdbmMyTjNbQ0gyXVtDSDJdW0NIMl1bQ0gyXTM=

> <s_epik_cmdline>
J2VwaWtfcHl0aG9uJywgJy1waCcsICc3LjAnLCAnLXRuJywgJzgnLCAnLW1hJywgJzIwMCcsICctbWV0YWxfYmluZGluZycsICctaW1hZScsICc8aW5maWxlLm1hZT4nLCAnLW9tYWUnLCAnPG91dGZpbGUubWFlPic=

> <r_lp_tautomer_probability>
0.999994

> <r_epik_Ionization_Penalty>
8.55934

> <r_epik_Ionization_Penalty_Charging>
8.55934

> <r_epik_Ionization_Penalty_Neutral>
3.77642e-06

> <r_epik_State_Penalty>
8.06887

> <r_epik_Charging_Adjusted_Penalty>
16.6282

> <i_epik_Tot_Q>
1

> <i_epik_Tot_abs_Q>
3

> <r_epik_Metal_State_Penalty>
4.05607

> <b_epik_Metal_Only>
1

> <s_lp_Force_Field>
OPLS_2005

> <r_lp_Energy>
53.4939

> <b_lp_Chiralities_Consistent>
1

> <s_lp_Variant>
AV-unprocessed.smi:1082-3

> <Gold.Version>
5.8.1

> <Gold.Id.Protein>
6NUR|6NUR_protein|mol2

> <Gold.PLP.Fitness>
50.9188

> <Gold.PLP.PLP>
-31.6940

> <Gold.PLP.part.hbond>
-4.0000

> <Gold.PLP.part.metal>
0.0000

> <Gold.PLP.part.buried>
-3.1047

> <Gold.PLP.part.nonpolar>
-24.2710

> <Gold.PLP.part.repulsive>
0.2711

> <Gold.PLP.ligand.clash>
0.2154

> <Gold.PLP.ligand.torsion>
0.8439

> <Gold.PLP.Chemscore.Hbond>
6.8320

> <Gold.PLP.Chemscore.CHOScore>
0.0000

> <Gold.PLP.Chemscore.Metal>
0.0000

> <Gold.Chemscore.Hbonds>
donor molecule, donor type, donor heavy atom, donor atom, acceptor molecule, acceptor atom, score
      L1  H     6    47       P1  7948  1.85
      L1  H    16    48       P1  8028  2.00
      P1  H  7997  8008       L1     1  0.52
      P1  H 10752 10764       L1     3  2.00

> <Gold.PLP.Chemscore.Internal.Correction>
0.6320

> <Gold.Rescore>
     Score         DG    S(hbond)    S(metal)    S(lipo)     H(rot)  DE(clash)    DE(int)     intcor
     18.88     -21.65       3.35        0.00      77.67       1.60       0.71       2.06       ----

> <Gold.Chemscore.Fitness>
18.8768

> <Gold.Chemscore.DG>
-21.6496

> <Gold.Chemscore.ZeroCoef>
-5.4800

> <Gold.Chemscore.Hbond>
3.3465

> <Gold.Chemscore.Metal>
0.0000

> <Gold.Chemscore.Lipo>
77.6734

> <Gold.Chemscore.Internal_Hbond>
0.0000

> <Gold.Chemscore.DEClash>
0.7083

> <Gold.Chemscore.DEInternal>
2.0645

> <Gold.Chemscore.Rot>
1.5998

> <Gold.Chemscore.Internal.Correction>
   9.000000E+99

> <Gold.Chemscore.Hbonds>
donor molecule, donor type, donor heavy atom, donor atom, acceptor molecule, acceptor atom, score
      L1  H     6    47       P1  7948  0.75
      L1  H    16    48       P1  8028  0.95
      P1  H  7997  8008       L1     1  0.51
      P1  H 10752 10764       L1     3  0.83

> <Gold.Chemscore.Hbond.Weighted>
-11.1775

> <Gold.Chemscore.Metal.Weighted>
-0.0000

> <Gold.Chemscore.Lipo.Weighted>
-9.0878

> <Gold.Chemscore.Internal_Hbond.Weighted>
0.0000

> <Gold.Chemscore.DEClash.Weighted>
0.7083

> <Gold.Chemscore.DEInternal.Weighted>
2.0645

> <Gold.Chemscore.Rot.Weighted>
4.0956

> <Gold.Chemscore.Internal.Correction.Weighted>
   9.000000E+99

> <Gold.Protein.RotatedTorsions>
[ 6907 6896 6895 6894 ] final -144.05 input  -60.11 | X-H torsion
[ 7974 7965 7964 7962 ] final  118.11 input  175.53 | X-H torsion
[ 8008 7997 7996 7995 ] final  -52.64 input   59.86 | X-H torsion
[ 10167 10162 10161 10158 ] final  133.01 input  -65.29 | X-H torsion
[ 10718 10713 10712 10709 ] final   55.23 input   66.30 | X-H torsion
[ 10763 10752 10751 10750 ] final  -58.42 input  -60.55 | X-H torsion
[ 11005 11000 10999 10996 ] final -136.40 input  -57.11 | X-H torsion

> <Gold.Protein.ActiveResidues>
 VAL166  LYS551  ARG553  GLY616  TRP617  ASP618  TYR619  PRO620  LYS621  CYS622 
 ASP623  PHE694  ASN695  SER759  ASP760  ASP761  ALA762  ILE779  LEU786  VAL792 
 PHE793  MET794  SER795  GLU796  ALA797  LYS798  CYS799  TRP800  GLU811  SER814 

> <Gold.Protein.RotatedAtoms>
  151.1088  133.5188  159.2606 H   0  0  0  0  0  0  0  0  0  0  0  0  # atno 6907 bound_to 6896
  151.1990  135.0434  159.8874 H   0  0  0  0  0  0  0  0  0  0  0  0  # atno 6908 bound_to 6896
  152.5448  134.0919  159.8334 H   0  0  0  0  0  0  0  0  0  0  0  0  # atno 6909 bound_to 6896
  145.1592  139.3165  143.4526 H   0  0  0  0  0  0  0  0  0  0  0  0  # atno 7974 bound_to 7965
  154.4112  140.1219  156.5024 H   0  0  0  0  0  0  0  0  0  0  0  0  # atno 8008 bound_to 7997
  155.6881  140.3495  155.4863 H   0  0  0  0  0  0  0  0  0  0  0  0  # atno 8009 bound_to 7997
  155.9493  140.1102  157.0980 H   0  0  0  0  0  0  0  0  0  0  0  0  # atno 8010 bound_to 7997
  139.5315  144.6636  151.4934 H   0  0  0  0  0  0  0  0  0  0  0  0  # atno 10167 bound_to 10162
  157.5327  130.8642  149.8710 H   0  0  0  0  0  0  0  0  0  0  0  0  # atno 10718 bound_to 10713
  154.2379  135.6349  153.5197 H   0  0  0  0  0  0  0  0  0  0  0  0  # atno 10763 bound_to 10752
  152.9936  135.5535  154.5942 H   0  0  0  0  0  0  0  0  0  0  0  0  # atno 10764 bound_to 10752
  154.5441  135.2897  155.1043 H   0  0  0  0  0  0  0  0  0  0  0  0  # atno 10765 bound_to 10752
  140.8808  134.1934  157.4592 H   0  0  0  0  0  0  0  0  0  0  0  0  # atno 11005 bound_to 11000
  146.3484  140.1695  142.8590 LP  0  0  0  0  0  0  0  0  0  0  0  0  # atno 17320 bound_to 7965
  145.0349  140.8900  143.5087 LP  0  0  0  0  0  0  0  0  0  0  0  0  # atno 17321 bound_to 7965
  140.6496  143.8724  150.6772 LP  0  0  0  0  0  0  0  0  0  0  0  0  # atno 17342 bound_to 10162
  140.2084  143.3903  152.1737 LP  0  0  0  0  0  0  0  0  0  0  0  0  # atno 17343 bound_to 10162
  156.0435  130.3733  150.1376 LP  0  0  0  0  0  0  0  0  0  0  0  0  # atno 17370 bound_to 10713
  156.9560  130.9790  151.3489 LP  0  0  0  0  0  0  0  0  0  0  0  0  # atno 17371 bound_to 10713
  139.8719  134.9816  156.5124 LP  0  0  0  0  0  0  0  0  0  0  0  0  # atno 17394 bound_to 11000
  140.8463  133.8166  155.9124 LP  0  0  0  0  0  0  0  0  0  0  0  0  # atno 17395 bound_to 11000

$$$$
