AV-unprocessed.smi:1055|AV-procd|sdf|4627|dock9
  -GOLD-   22720 3133D 1   1.00000     0.00000
 Structure written by MMmdl.
 51 52  0  0  0  0  0  0  0  0  2 V2000
  144.7716  144.0245  157.2398 C   0  0  0  0  0  0  0  0  0  0  0  0
  144.1109  144.1636  156.0785 C   0  0  0  0  0  0  0  0  0  0  0  0
  143.7624  145.5266  155.5100 C   0  0  0  0  0  0  0  0  0  0  0  0
  143.6612  142.9664  155.2562 C   0  0  0  0  0  0  0  0  0  0  0  0
  144.8165  142.1734  154.7675 N   0  3  2  0  0  0  0  0  0  0  0  0
  145.4566  141.3850  155.8506 C   0  0  0  0  0  0  0  0  0  0  0  0
  146.5515  140.4576  155.2920 C   0  0  0  0  0  0  0  0  0  0  0  0
  147.6078  141.2315  154.4842 C   0  0  2  0  0  0  0  0  0  0  0  0
  148.4481  142.0302  155.3761 N   0  0  0  0  0  0  0  0  0  0  0  0
  149.2043  141.5437  156.3708 C   0  0  0  0  0  0  0  0  0  0  0  0
  149.2868  140.3447  156.6352 O   0  0  0  0  0  0  0  0  0  0  0  0
  149.8280  142.5314  157.0352 N   0  0  0  0  0  0  0  0  0  0  0  0
  150.7303  142.4230  158.1273 C   0  0  0  0  0  0  0  0  0  0  0  0
  151.5442  141.2770  158.2064 C   0  0  0  0  0  0  0  0  0  0  0  0
  152.4334  141.1354  159.2884 C   0  0  0  0  0  0  0  0  0  0  0  0
  152.4821  142.1457  160.2809 C   0  0  0  0  0  0  0  0  0  0  0  0
  153.3586  142.0529  161.3862 N   0  0  0  0  0  0  0  0  0  0  0  0
  154.4209  141.0550  161.3990 C   0  0  0  0  0  0  0  0  0  0  0  0
  153.1801  142.9407  162.5308 C   0  0  0  0  0  0  0  0  0  0  0  0
  151.6847  143.2398  160.2092 N   0  0  0  0  0  0  0  0  0  0  0  0
  150.8356  143.3735  159.1691 C   0  0  0  0  0  0  0  0  0  0  0  0
  146.9123  142.0984  153.4153 C   0  0  0  0  0  0  0  0  0  0  0  0
  145.8106  142.9870  154.0186 C   0  0  0  0  0  0  0  0  0  0  0  0
  145.0827  144.8850  157.8145 H   0  0  0  0  0  0  0  0  0  0  0  0
  145.0132  143.0486  157.6351 H   0  0  0  0  0  0  0  0  0  0  0  0
  142.6832  145.6205  155.3860 H   0  0  0  0  0  0  0  0  0  0  0  0
  144.2336  145.6698  154.5372 H   0  0  0  0  0  0  0  0  0  0  0  0
  144.0983  146.3291  156.1677 H   0  0  0  0  0  0  0  0  0  0  0  0
  142.9917  142.3272  155.8346 H   0  0  0  0  0  0  0  0  0  0  0  0
  143.0820  143.3457  154.4132 H   0  0  0  0  0  0  0  0  0  0  0  0
  145.8739  142.0617  156.5981 H   0  0  0  0  0  0  0  0  0  0  0  0
  144.7036  140.7807  156.3582 H   0  0  0  0  0  0  0  0  0  0  0  0
  147.0255  139.9041  156.1037 H   0  0  0  0  0  0  0  0  0  0  0  0
  146.0875  139.7097  154.6475 H   0  0  0  0  0  0  0  0  0  0  0  0
  148.2497  140.5042  153.9834 H   0  0  0  0  0  0  0  0  0  0  0  0
  148.4357  143.0305  155.2401 H   0  0  0  0  0  0  0  0  0  0  0  0
  149.5884  143.4738  156.7640 H   0  0  0  0  0  0  0  0  0  0  0  0
  151.4948  140.5133  157.4439 H   0  0  0  0  0  0  0  0  0  0  0  0
  153.0583  140.2566  159.3339 H   0  0  0  0  0  0  0  0  0  0  0  0
  154.0044  140.0504  161.3197 H   0  0  0  0  0  0  0  0  0  0  0  0
  154.9993  141.1027  162.3219 H   0  0  0  0  0  0  0  0  0  0  0  0
  155.1084  141.2154  160.5681 H   0  0  0  0  0  0  0  0  0  0  0  0
  152.2077  142.7746  162.9956 H   0  0  0  0  0  0  0  0  0  0  0  0
  153.2420  143.9844  162.2207 H   0  0  0  0  0  0  0  0  0  0  0  0
  153.9454  142.7731  163.2886 H   0  0  0  0  0  0  0  0  0  0  0  0
  150.2188  144.2580  159.2004 H   0  0  0  0  0  0  0  0  0  0  0  0
  147.6389  142.7134  152.8831 H   0  0  0  0  0  0  0  0  0  0  0  0
  146.4671  141.4457  152.6631 H   0  0  0  0  0  0  0  0  0  0  0  0
  145.3194  143.5338  153.2135 H   0  0  0  0  0  0  0  0  0  0  0  0
  146.2483  143.7340  154.6828 H   0  0  0  0  0  0  0  0  0  0  0  0
  144.4391  141.5003  154.1156 H   0  0  0  0  0  0  0  0  0  0  0  0
  1  2  2  0  0  0  0
  1 24  1  0  0  0  0
  1 25  1  0  0  0  0
  2  3  1  0  0  0  0
  2  4  1  0  0  0  0
  3 26  1  0  0  0  0
  3 27  1  0  0  0  0
  3 28  1  0  0  0  0
  4  5  1  0  0  0  0
  4 29  1  0  0  0  0
  4 30  1  0  0  0  0
  5 23  1  0  0  0  0
  5  6  1  0  0  0  0
  5 51  1  0  0  0  0
  6  7  1  0  0  0  0
  6 31  1  0  0  0  0
  6 32  1  0  0  0  0
  7  8  1  0  0  0  0
  7 33  1  0  0  0  0
  7 34  1  0  0  0  0
  8  9  1  0  0  0  0
  8 22  1  0  0  0  0
  8 35  1  0  0  0  0
  9 10  1  0  0  0  0
  9 36  1  0  0  0  0
 10 11  2  0  0  0  0
 10 12  1  0  0  0  0
 12 13  1  0  0  0  0
 12 37  1  0  0  0  0
 13 21  1  0  0  0  0
 13 14  2  0  0  0  0
 14 15  1  0  0  0  0
 14 38  1  0  0  0  0
 15 16  2  0  0  0  0
 15 39  1  0  0  0  0
 16 17  1  0  0  0  0
 16 20  1  0  0  0  0
 17 18  1  0  0  0  0
 17 19  1  0  0  0  0
 18 40  1  0  0  0  0
 18 41  1  0  0  0  0
 18 42  1  0  0  0  0
 19 43  1  0  0  0  0
 19 44  1  0  0  0  0
 19 45  1  0  0  0  0
 20 21  2  0  0  0  0
 21 46  1  0  0  0  0
 22 23  1  0  0  0  0
 22 47  1  0  0  0  0
 22 48  1  0  0  0  0
 23 49  1  0  0  0  0
 23 50  1  0  0  0  0
M  CHG  1   5   1
M  END
> <s_m_source_file>
AV-unprocessed.smi

> <i_m_source_file_index>
1055

> <i_lp_mmshare_version>
43012

> <i_f3d_flags>
0

> <s_epik_input>
W0NIMl09QyhbQ0gzXSlbQ0gyXU4xW0NIMl1bQ0gyXVtDSF0oW0NIMl1bQ0gyXTEpW05IXUMoPU8pW05IXWMyW2NIXVtjSF1jKE4oW0NIM10pW0NIM10pbltjSF0y

> <s_epik_cmdline>
J2VwaWtfcHl0aG9uJywgJy1waCcsICc3LjAnLCAnLXRuJywgJzgnLCAnLW1hJywgJzIwMCcsICctbWV0YWxfYmluZGluZycsICctaW1hZScsICc8aW5maWxlLm1hZT4nLCAnLW9tYWUnLCAnPG91dGZpbGUubWFlPic=

> <r_lp_tautomer_probability>
1

> <r_epik_Ionization_Penalty>
0.534133

> <r_epik_Ionization_Penalty_Charging>
0.0193505

> <r_epik_Ionization_Penalty_Neutral>
0.514782

> <r_epik_State_Penalty>
0.557749

> <r_epik_Charging_Adjusted_Penalty>
0.5771

> <i_epik_Tot_Q>
1

> <i_epik_Tot_abs_Q>
1

> <r_epik_Metal_State_Penalty>
0.306227

> <b_epik_Metal_Only>
0

> <s_lp_Force_Field>
OPLS_2005

> <r_lp_Energy>
19.9376

> <b_lp_Chiralities_Consistent>
1

> <s_lp_Variant>
AV-unprocessed.smi:1055-4

> <Gold.Version>
5.8.1

> <Gold.Id.Protein>
6NUR|6NUR_protein|mol2

> <Gold.PLP.Fitness>
53.0750

> <Gold.PLP.PLP>
-41.7112

> <Gold.PLP.part.hbond>
-3.0000

> <Gold.PLP.part.metal>
0.0000

> <Gold.PLP.part.buried>
-7.4244

> <Gold.PLP.part.nonpolar>
-32.2846

> <Gold.PLP.part.repulsive>
0.2062

> <Gold.PLP.ligand.clash>
0.0000

> <Gold.PLP.ligand.torsion>
0.3535

> <Gold.PLP.Chemscore.Hbond>
4.0000

> <Gold.PLP.Chemscore.CHOScore>
0.0000

> <Gold.PLP.Chemscore.Metal>
0.0000

> <Gold.Chemscore.Hbonds>
donor molecule, donor type, donor heavy atom, donor atom, acceptor molecule, acceptor atom, score
      L1  H     5    51       P1 10175  1.95
      L1  H     9    36       P1  8028  1.00
      L1  H    12    37       P1  8028  1.00

> <Gold.PLP.Chemscore.Internal.Correction>
0.0708

> <Gold.Rescore>
     Score         DG    S(hbond)    S(metal)    S(lipo)     H(rot)  DE(clash)    DE(int)     intcor
     18.69     -20.97       2.62        0.00      86.62       1.33       0.04       2.23       ----

> <Gold.Chemscore.Fitness>
18.6935

> <Gold.Chemscore.DG>
-20.9668

> <Gold.Chemscore.ZeroCoef>
-5.4800

> <Gold.Chemscore.Hbond>
2.6194

> <Gold.Chemscore.Metal>
0.0000

> <Gold.Chemscore.Lipo>
86.6170

> <Gold.Chemscore.Internal_Hbond>
0.0000

> <Gold.Chemscore.DEClash>
0.0406

> <Gold.Chemscore.DEInternal>
2.2327

> <Gold.Chemscore.Rot>
1.3266

> <Gold.Chemscore.Internal.Correction>
   9.000000E+99

> <Gold.Chemscore.Hbonds>
donor molecule, donor type, donor heavy atom, donor atom, acceptor molecule, acceptor atom, score
      L1  H     5    51       P1 10175  0.27
      L1  H     9    36       P1  8028  0.98
      L1  H    12    37       P1  8028  0.98

> <Gold.Chemscore.Hbond.Weighted>
-8.7488

> <Gold.Chemscore.Metal.Weighted>
-0.0000

> <Gold.Chemscore.Lipo.Weighted>
-10.1342

> <Gold.Chemscore.Internal_Hbond.Weighted>
0.0000

> <Gold.Chemscore.DEClash.Weighted>
0.0406

> <Gold.Chemscore.DEInternal.Weighted>
2.2327

> <Gold.Chemscore.Rot.Weighted>
3.3962

> <Gold.Chemscore.Internal.Correction.Weighted>
   9.000000E+99

> <Gold.Protein.RotatedTorsions>
[ 6907 6896 6895 6894 ] final    2.21 input  -60.11 | X-H torsion
[ 7974 7965 7964 7962 ] final   23.88 input  175.53 | X-H torsion
[ 8008 7997 7996 7995 ] final  -46.66 input   59.86 | X-H torsion
[ 10167 10162 10161 10158 ] final  111.74 input  -65.29 | X-H torsion
[ 10718 10713 10712 10709 ] final   57.45 input   66.30 | X-H torsion
[ 10763 10752 10751 10750 ] final  -54.35 input  -60.55 | X-H torsion
[ 11005 11000 10999 10996 ] final  -36.87 input  -57.11 | X-H torsion

> <Gold.Protein.ActiveResidues>
 VAL166  LYS551  ARG553  GLY616  TRP617  ASP618  TYR619  PRO620  LYS621  CYS622 
 ASP623  PHE694  ASN695  SER759  ASP760  ASP761  ALA762  ILE779  LEU786  VAL792 
 PHE793  MET794  SER795  GLU796  ALA797  LYS798  CYS799  TRP800  GLU811  SER814 

> <Gold.Protein.RotatedAtoms>
  151.6052  135.1044  160.0068 H   0  0  0  0  0  0  0  0  0  0  0  0  # atno 6907 bound_to 6896
  152.4237  133.7155  159.6514 H   0  0  0  0  0  0  0  0  0  0  0  0  # atno 6908 bound_to 6896
  150.8125  133.8323  159.3197 H   0  0  0  0  0  0  0  0  0  0  0  0  # atno 6909 bound_to 6896
  146.1964  139.7683  142.8794 H   0  0  0  0  0  0  0  0  0  0  0  0  # atno 7974 bound_to 7965
  154.4009  140.1366  156.4047 H   0  0  0  0  0  0  0  0  0  0  0  0  # atno 8008 bound_to 7997
  155.7790  140.3482  155.5267 H   0  0  0  0  0  0  0  0  0  0  0  0  # atno 8009 bound_to 7997
  155.8692  140.0969  157.1552 H   0  0  0  0  0  0  0  0  0  0  0  0  # atno 8010 bound_to 7997
  139.6588  144.7129  151.1904 H   0  0  0  0  0  0  0  0  0  0  0  0  # atno 10167 bound_to 10162
  157.5515  130.8769  149.8971 H   0  0  0  0  0  0  0  0  0  0  0  0  # atno 10718 bound_to 10713
  154.1734  135.6455  153.5015 H   0  0  0  0  0  0  0  0  0  0  0  0  # atno 10763 bound_to 10752
  153.0078  135.5389  154.6589 H   0  0  0  0  0  0  0  0  0  0  0  0  # atno 10764 bound_to 10752
  154.5934  135.2936  155.0584 H   0  0  0  0  0  0  0  0  0  0  0  0  # atno 10765 bound_to 10752
  140.9908  133.7006  156.1847 H   0  0  0  0  0  0  0  0  0  0  0  0  # atno 11005 bound_to 11000
  145.3630  141.0329  143.3274 LP  0  0  0  0  0  0  0  0  0  0  0  0  # atno 17320 bound_to 7965
  144.8589  139.5207  143.6821 LP  0  0  0  0  0  0  0  0  0  0  0  0  # atno 17321 bound_to 7965
  140.7571  143.6028  150.8683 LP  0  0  0  0  0  0  0  0  0  0  0  0  # atno 17342 bound_to 10162
  139.9683  143.6085  152.2981 LP  0  0  0  0  0  0  0  0  0  0  0  0  # atno 17343 bound_to 10162
  156.0581  130.3704  150.1044 LP  0  0  0  0  0  0  0  0  0  0  0  0  # atno 17370 bound_to 10713
  156.9217  130.9685  151.3547 LP  0  0  0  0  0  0  0  0  0  0  0  0  # atno 17371 bound_to 10713
  140.7042  134.4531  157.5585 LP  0  0  0  0  0  0  0  0  0  0  0  0  # atno 17394 bound_to 11000
  139.8991  134.8597  156.1972 LP  0  0  0  0  0  0  0  0  0  0  0  0  # atno 17395 bound_to 11000

$$$$
