AV-unprocessed.smi:3169|AV-procd|sdf|12104|dock8
  -GOLD-   2272017543D 1   1.00000     0.00000
 Structure written by MMmdl.
 36 37  0  0  0  0  0  0  0  0  2 V2000
  145.6292  138.3422  153.9896 O   0  0  0  0  0  0  0  0  0  0  0  0
  146.5052  137.8006  153.3146 C   0  0  0  0  0  0  0  0  0  0  0  0
  146.2828  136.7698  152.4873 N   0  0  0  0  0  0  0  0  0  0  0  0
  144.9824  136.1480  152.2685 C   0  0  0  0  0  0  0  0  0  0  0  0
  144.8133  135.6945  150.8091 C   0  0  0  0  0  0  0  0  0  0  0  0
  145.1983  134.2939  150.6313 N   0  0  0  0  0  0  0  0  0  0  0  0
  144.4106  133.2638  150.1860 C   0  0  0  0  0  0  0  0  0  0  0  0
  145.1982  132.1412  150.1893 C   0  0  0  0  0  0  0  0  0  0  0  0
  146.4312  132.5336  150.6378 N   0  3  0  0  0  0  0  0  0  0  0  0
  146.4290  133.8433  150.9067 C   0  0  0  0  0  0  0  0  0  0  0  0
  147.7931  138.1692  153.3181 N   0  0  0  0  0  0  0  0  0  0  0  0
  148.3420  139.2750  154.0943 C   0  0  0  0  0  0  0  0  0  0  0  0
  149.5898  138.8428  154.8810 C   0  0  1  0  0  0  0  0  0  0  0  0
  150.7499  138.3924  153.9956 C   0  0  0  0  0  0  0  0  0  0  0  0
  151.9335  138.6280  154.9055 C   0  0  0  0  0  0  0  0  0  0  0  0
  151.5360  139.9260  155.6025 C   0  0  0  0  0  0  0  0  0  0  0  0
  150.1107  139.9345  155.6366 O   0  0  0  0  0  0  0  0  0  0  0  0
  147.0648  136.3950  151.9699 H   0  0  0  0  0  0  0  0  0  0  0  0
  144.8552  135.3047  152.9497 H   0  0  0  0  0  0  0  0  0  0  0  0
  144.2097  136.8729  152.5258 H   0  0  0  0  0  0  0  0  0  0  0  0
  143.7761  135.8015  150.4887 H   0  0  0  0  0  0  0  0  0  0  0  0
  145.4218  136.2999  150.1354 H   0  0  0  0  0  0  0  0  0  0  0  0
  143.3758  133.4024  149.9077 H   0  0  0  0  0  0  0  0  0  0  0  0
  144.9791  131.1195  149.9144 H   0  0  0  0  0  0  0  0  0  0  0  0
  147.2576  134.4225  151.2743 H   0  0  0  0  0  0  0  0  0  0  0  0
  148.4378  137.6658  152.7263 H   0  0  0  0  0  0  0  0  0  0  0  0
  148.5820  140.1104  153.4343 H   0  0  0  0  0  0  0  0  0  0  0  0
  147.5724  139.6328  154.7787 H   0  0  0  0  0  0  0  0  0  0  0  0
  149.3451  138.0381  155.5765 H   0  0  0  0  0  0  0  0  0  0  0  0
  150.6591  137.3558  153.6701 H   0  0  0  0  0  0  0  0  0  0  0  0
  150.8297  139.0246  153.1098 H   0  0  0  0  0  0  0  0  0  0  0  0
  152.0126  137.8185  155.6326 H   0  0  0  0  0  0  0  0  0  0  0  0
  152.8806  138.7030  154.3704 H   0  0  0  0  0  0  0  0  0  0  0  0
  151.9591  140.0049  156.6042 H   0  0  0  0  0  0  0  0  0  0  0  0
  151.8725  140.7876  155.0246 H   0  0  0  0  0  0  0  0  0  0  0  0
  147.2308  131.9231  150.7515 H   0  0  0  0  0  0  0  0  0  0  0  0
  1  2  2  0  0  0  0
  2  3  1  0  0  0  0
  2 11  1  0  0  0  0
  3  4  1  0  0  0  0
  3 18  1  0  0  0  0
  4  5  1  0  0  0  0
  4 19  1  0  0  0  0
  4 20  1  0  0  0  0
  5  6  1  0  0  0  0
  5 21  1  0  0  0  0
  5 22  1  0  0  0  0
  6 10  1  0  0  0  0
  6  7  1  0  0  0  0
  7  8  2  0  0  0  0
  7 23  1  0  0  0  0
  8  9  1  0  0  0  0
  8 24  1  0  0  0  0
  9 10  2  0  0  0  0
  9 36  1  0  0  0  0
 10 25  1  0  0  0  0
 11 12  1  0  0  0  0
 11 26  1  0  0  0  0
 12 13  1  0  0  0  0
 12 27  1  0  0  0  0
 12 28  1  0  0  0  0
 13 17  1  0  0  0  0
 13 14  1  0  0  0  0
 13 29  1  0  0  0  0
 14 15  1  0  0  0  0
 14 30  1  0  0  0  0
 14 31  1  0  0  0  0
 15 16  1  0  0  0  0
 15 32  1  0  0  0  0
 15 33  1  0  0  0  0
 16 17  1  0  0  0  0
 16 34  1  0  0  0  0
 16 35  1  0  0  0  0
M  CHG  1   9   1
M  END
> <s_m_source_file>
AV-unprocessed.smi

> <i_m_source_file_index>
3169

> <i_lp_mmshare_version>
43012

> <i_f3d_flags>
0

> <s_epik_input>
TzFbQ0gyXVtDSDJdW0NIMl1bQ0BIXTFbQ0gyXVtOSF1DKD1PKVtOSF1bQ0gyXVtDSDJdbjJbY0hdW2NIXW5bY0hdMg==

> <s_epik_cmdline>
J2VwaWtfcHl0aG9uJywgJy1waCcsICc3LjAnLCAnLXRuJywgJzgnLCAnLW1hJywgJzIwMCcsICctbWV0YWxfYmluZGluZycsICctaW1hZScsICc8aW5maWxlLm1hZT4nLCAnLW9tYWUnLCAnPG91dGZpbGUubWFlPic=

> <r_lp_tautomer_probability>
1

> <r_epik_Ionization_Penalty>
0.256136

> <r_epik_Ionization_Penalty_Charging>
0

> <r_epik_Ionization_Penalty_Neutral>
0.256136

> <r_epik_State_Penalty>
0.247629

> <r_epik_Charging_Adjusted_Penalty>
0.247629

> <i_epik_Tot_Q>
1

> <i_epik_Tot_abs_Q>
1

> <r_epik_Metal_State_Penalty>
0.537113

> <b_epik_Metal_Only>
0

> <s_lp_Force_Field>
OPLS_2005

> <r_lp_Energy>
16.1594

> <b_lp_Chiralities_Consistent>
1

> <s_lp_Variant>
AV-unprocessed.smi:3169-2

> <Gold.Version>
5.8.1

> <Gold.Id.Protein>
6NUR|6NUR_protein|mol2

> <Gold.PLP.Fitness>
44.7358

> <Gold.PLP.PLP>
-31.8423

> <Gold.PLP.part.hbond>
-2.8552

> <Gold.PLP.part.metal>
0.0000

> <Gold.PLP.part.buried>
-4.2421

> <Gold.PLP.part.nonpolar>
-24.3196

> <Gold.PLP.part.repulsive>
0.2965

> <Gold.PLP.ligand.clash>
0.0000

> <Gold.PLP.ligand.torsion>
0.4480

> <Gold.PLP.Chemscore.Hbond>
2.7725

> <Gold.PLP.Chemscore.CHOScore>
1.8178

> <Gold.PLP.Chemscore.Metal>
0.0000

> <Gold.Chemscore.Hbonds>
donor molecule, donor type, donor heavy atom, donor atom, acceptor molecule, acceptor atom, score
      L1  H     3    18       P1  7948  0.96
      L1  H     9    36       P1 10747  0.83
      L1  H    11    26       P1  7948  1.00
      L1  C     7    23       P1 10186  0.82
      L1  C    10    25       P1  7948  0.97

> <Gold.PLP.Chemscore.Internal.Correction>
0.0187

> <Gold.Rescore>
     Score         DG    S(hbond)    S(metal)    S(lipo)     H(rot)  DE(clash)    DE(int)     intcor
     16.30     -16.81       2.90        0.00      65.15       2.33       0.06       0.45       ----

> <Gold.Chemscore.Fitness>
16.2988

> <Gold.Chemscore.DG>
-16.8116

> <Gold.Chemscore.ZeroCoef>
-5.4800

> <Gold.Chemscore.Hbond>
2.8953

> <Gold.Chemscore.Metal>
0.0000

> <Gold.Chemscore.Lipo>
65.1535

> <Gold.Chemscore.Internal_Hbond>
0.0000

> <Gold.Chemscore.DEClash>
0.0620

> <Gold.Chemscore.DEInternal>
0.4508

> <Gold.Chemscore.Rot>
2.3288

> <Gold.Chemscore.Internal.Correction>
   9.000000E+99

> <Gold.Chemscore.Hbonds>
donor molecule, donor type, donor heavy atom, donor atom, acceptor molecule, acceptor atom, score
      L1  H     3    18       P1  7948  0.92
      L1  H     9    36       P1 10747  0.82
      L1  H    11    26       P1  7948  0.98

> <Gold.Chemscore.Hbond.Weighted>
-9.6703

> <Gold.Chemscore.Metal.Weighted>
-0.0000

> <Gold.Chemscore.Lipo.Weighted>
-7.6230

> <Gold.Chemscore.Internal_Hbond.Weighted>
0.0000

> <Gold.Chemscore.DEClash.Weighted>
0.0620

> <Gold.Chemscore.DEInternal.Weighted>
0.4508

> <Gold.Chemscore.Rot.Weighted>
5.9617

> <Gold.Chemscore.Internal.Correction.Weighted>
   9.000000E+99

> <Gold.Protein.RotatedTorsions>
[ 6907 6896 6895 6894 ] final  -25.46 input  -60.11 | X-H torsion
[ 7974 7965 7964 7962 ] final   61.87 input  175.53 | X-H torsion
[ 8008 7997 7996 7995 ] final    1.02 input   59.86 | X-H torsion
[ 10167 10162 10161 10158 ] final  148.65 input  -65.29 | X-H torsion
[ 10718 10713 10712 10709 ] final  -29.26 input   66.30 | X-H torsion
[ 10763 10752 10751 10750 ] final -176.24 input  -60.55 | X-H torsion
[ 11005 11000 10999 10996 ] final  -32.15 input  -57.11 | X-H torsion

> <Gold.Protein.ActiveResidues>
 VAL166  LYS551  ARG553  GLY616  TRP617  ASP618  TYR619  PRO620  LYS621  CYS622 
 ASP623  PHE694  ASN695  SER759  ASP760  ASP761  ALA762  ILE779  LEU786  VAL792 
 PHE793  MET794  SER795  GLU796  ALA797  LYS798  CYS799  TRP800  GLU811  SER814 

> <Gold.Protein.RotatedAtoms>
  151.1749  135.0335  159.8767 H   0  0  0  0  0  0  0  0  0  0  0  0  # atno 6907 bound_to 6896
  152.5447  134.1128  159.8376 H   0  0  0  0  0  0  0  0  0  0  0  0  # atno 6908 bound_to 6896
  151.1238  133.5038  159.2633 H   0  0  0  0  0  0  0  0  0  0  0  0  # atno 6909 bound_to 6896
  145.8798  139.3435  143.0712 H   0  0  0  0  0  0  0  0  0  0  0  0  # atno 7974 bound_to 7965
  154.6748  140.2620  155.6969 H   0  0  0  0  0  0  0  0  0  0  0  0  # atno 8008 bound_to 7997
  156.2673  140.2822  156.1193 H   0  0  0  0  0  0  0  0  0  0  0  0  # atno 8009 bound_to 7997
  155.1116  140.0375  157.2715 H   0  0  0  0  0  0  0  0  0  0  0  0  # atno 8010 bound_to 7997
  139.4872  144.5663  151.7139 H   0  0  0  0  0  0  0  0  0  0  0  0  # atno 10167 bound_to 10162
  156.4148  130.4415  149.7226 H   0  0  0  0  0  0  0  0  0  0  0  0  # atno 10718 bound_to 10713
  154.5747  135.2831  155.0792 H   0  0  0  0  0  0  0  0  0  0  0  0  # atno 10763 bound_to 10752
  154.2151  135.6401  153.5131 H   0  0  0  0  0  0  0  0  0  0  0  0  # atno 10764 bound_to 10752
  153.0069  135.5501  154.6382 H   0  0  0  0  0  0  0  0  0  0  0  0  # atno 10765 bound_to 10752
  140.9528  133.7210  156.1247 H   0  0  0  0  0  0  0  0  0  0  0  0  # atno 11005 bound_to 11000
  145.9037  140.9226  143.0490 LP  0  0  0  0  0  0  0  0  0  0  0  0  # atno 17320 bound_to 7965
  144.6727  140.1067  143.7457 LP  0  0  0  0  0  0  0  0  0  0  0  0  # atno 17321 bound_to 7965
  140.5242  144.0832  150.6032 LP  0  0  0  0  0  0  0  0  0  0  0  0  # atno 17342 bound_to 10162
  140.3800  143.2808  152.0181 LP  0  0  0  0  0  0  0  0  0  0  0  0  # atno 17343 bound_to 10162
  156.4191  130.7759  151.2776 LP  0  0  0  0  0  0  0  0  0  0  0  0  # atno 17370 bound_to 10713
  157.7507  131.0188  150.3642 LP  0  0  0  0  0  0  0  0  0  0  0  0  # atno 17371 bound_to 10713
  140.7578  134.3973  157.5531 LP  0  0  0  0  0  0  0  0  0  0  0  0  # atno 17394 bound_to 11000
  139.8853  134.8942  156.2653 LP  0  0  0  0  0  0  0  0  0  0  0  0  # atno 17395 bound_to 11000

$$$$
