AV-unprocessed.smi:3185|AV-procd|sdf|12170|dock2
  -GOLD-   2272018 03D 1   1.00000     0.00000
 Structure written by MMmdl.
 37 38  0  0  0  0  0  0  0  0  1 V2000
  152.2750  137.4549  154.1517 N   0  0  0  0  0  0  0  0  0  0  0  0
  152.2009  138.4203  154.7850 C   0  0  0  0  0  0  0  0  0  0  0  0
  152.1071  139.6472  155.5903 C   0  0  0  0  0  0  0  0  0  0  0  0
  150.6824  140.2080  155.6523 C   0  0  0  0  0  0  0  0  0  0  0  0
  150.6657  141.6929  156.0342 C   0  0  0  0  0  0  0  0  0  0  0  0
  150.6648  141.8205  157.4841 N   0  0  0  0  0  0  0  0  0  0  0  0
  150.8610  143.2007  157.9226 C   0  0  1  0  0  0  0  0  0  0  0  0
  149.8400  143.6138  159.0084 C   0  0  0  0  0  0  0  0  0  0  0  0
  150.0768  145.0618  159.4674 C   0  0  0  0  0  0  0  0  0  0  0  0
  151.5145  145.2788  159.9629 C   0  0  0  0  0  0  0  0  0  0  0  0
  152.5470  144.8502  158.9035 C   0  0  0  0  0  0  0  0  0  0  0  0
  152.3338  143.4126  158.3745 C   0  0  1  0  0  0  0  0  0  0  0  0
  152.8442  142.3921  159.2953 N   0  0  0  0  0  0  0  0  0  0  0  0
  153.3469  142.5916  160.5658 C   0  0  0  0  0  0  0  0  0  0  0  0
  153.7088  141.3742  161.0668 C   0  0  0  0  0  0  0  0  0  0  0  0
  153.3875  140.4711  160.0172 C   0  0  0  0  0  0  0  0  0  0  0  0
  152.8728  141.0812  158.9635 N   0  0  0  0  0  0  0  0  0  0  0  0
  152.4695  139.4164  156.5922 H   0  0  0  0  0  0  0  0  0  0  0  0
  152.7879  140.3819  155.1598 H   0  0  0  0  0  0  0  0  0  0  0  0
  150.1990  140.0709  154.6839 H   0  0  0  0  0  0  0  0  0  0  0  0
  150.1006  139.6343  156.3750 H   0  0  0  0  0  0  0  0  0  0  0  0
  151.5435  142.1906  155.6201 H   0  0  0  0  0  0  0  0  0  0  0  0
  149.7840  142.1706  155.6080 H   0  0  0  0  0  0  0  0  0  0  0  0
  151.4062  141.2473  157.8604 H   0  0  0  0  0  0  0  0  0  0  0  0
  150.7076  143.8483  157.0579 H   0  0  0  0  0  0  0  0  0  0  0  0
  148.8219  143.5389  158.6276 H   0  0  0  0  0  0  0  0  0  0  0  0
  149.8886  142.9404  159.8637 H   0  0  0  0  0  0  0  0  0  0  0  0
  149.8746  145.7408  158.6382 H   0  0  0  0  0  0  0  0  0  0  0  0
  149.3705  145.3211  160.2564 H   0  0  0  0  0  0  0  0  0  0  0  0
  151.6609  146.3307  160.2091 H   0  0  0  0  0  0  0  0  0  0  0  0
  151.6705  144.7335  160.8928 H   0  0  0  0  0  0  0  0  0  0  0  0
  152.4808  145.5419  158.0629 H   0  0  0  0  0  0  0  0  0  0  0  0
  153.5568  144.9595  159.3008 H   0  0  0  0  0  0  0  0  0  0  0  0
  152.9487  143.3263  157.4772 H   0  0  0  0  0  0  0  0  0  0  0  0
  153.4058  143.5763  161.0057 H   0  0  0  0  0  0  0  0  0  0  0  0
  154.1376  141.1618  162.0348 H   0  0  0  0  0  0  0  0  0  0  0  0
  153.5114  139.3987  159.9894 H   0  0  0  0  0  0  0  0  0  0  0  0
  1  2  3  0  0  0  0
  2  3  1  0  0  0  0
  3  4  1  0  0  0  0
  3 18  1  0  0  0  0
  3 19  1  0  0  0  0
  4  5  1  0  0  0  0
  4 20  1  0  0  0  0
  4 21  1  0  0  0  0
  5  6  1  0  0  0  0
  5 22  1  0  0  0  0
  5 23  1  0  0  0  0
  6  7  1  0  0  0  0
  6 24  1  0  0  0  0
  7 12  1  0  0  0  0
  7  8  1  0  0  0  0
  7 25  1  0  0  0  0
  8  9  1  0  0  0  0
  8 26  1  0  0  0  0
  8 27  1  0  0  0  0
  9 10  1  0  0  0  0
  9 28  1  0  0  0  0
  9 29  1  0  0  0  0
 10 11  1  0  0  0  0
 10 30  1  0  0  0  0
 10 31  1  0  0  0  0
 11 12  1  0  0  0  0
 11 32  1  0  0  0  0
 11 33  1  0  0  0  0
 12 13  1  0  0  0  0
 12 34  1  0  0  0  0
 13 17  1  0  0  0  0
 13 14  1  0  0  0  0
 14 15  2  0  0  0  0
 14 35  1  0  0  0  0
 15 16  1  0  0  0  0
 15 36  1  0  0  0  0
 16 17  2  0  0  0  0
 16 37  1  0  0  0  0
M  END
> <s_m_source_file>
AV-unprocessed.smi

> <i_m_source_file_index>
3185

> <i_lp_mmshare_version>
43012

> <i_f3d_flags>
0

> <s_epik_input>
TiNDW0NIMl1bQ0gyXVtDSDJdW05IXVtDQEBIXTFbQ0gyXVtDSDJdW0NIMl1bQ0gyXVtDQEhdMW4yW2NIXVtjSF1bY0hdbjI=

> <s_epik_cmdline>
J2VwaWtfcHl0aG9uJywgJy1waCcsICc3LjAnLCAnLXRuJywgJzgnLCAnLW1hJywgJzIwMCcsICctbWV0YWxfYmluZGluZycsICctaW1hZScsICc8aW5maWxlLm1hZT4nLCAnLW9tYWUnLCAnPG91dGZpbGUubWFlPic=

> <r_lp_tautomer_probability>
1

> <r_epik_Ionization_Penalty>
2.21326

> <r_epik_Ionization_Penalty_Charging>
0

> <r_epik_Ionization_Penalty_Neutral>
2.21326

> <r_epik_State_Penalty>
2.35651

> <r_epik_Charging_Adjusted_Penalty>
2.35651

> <i_epik_Tot_Q>
0

> <i_epik_Tot_abs_Q>
0

> <r_epik_Metal_State_Penalty>
2.3555

> <b_epik_Metal_Only>
0

> <s_lp_Force_Field>
OPLS_2005

> <r_lp_Energy>
19.4285

> <b_lp_Chiralities_Consistent>
1

> <s_lp_Variant>
AV-unprocessed.smi:3185-6

> <Gold.Version>
5.8.1

> <Gold.Id.Protein>
6NUR|6NUR_protein|mol2

> <Gold.PLP.Fitness>
46.0502

> <Gold.PLP.PLP>
-45.1888

> <Gold.PLP.part.hbond>
-1.0000

> <Gold.PLP.part.metal>
0.0000

> <Gold.PLP.part.buried>
-6.1720

> <Gold.PLP.part.nonpolar>
-39.2861

> <Gold.PLP.part.repulsive>
0.1653

> <Gold.PLP.ligand.clash>
0.0000

> <Gold.PLP.ligand.torsion>
0.9447

> <Gold.PLP.Chemscore.Hbond>
0.8800

> <Gold.PLP.Chemscore.CHOScore>
0.0000

> <Gold.PLP.Chemscore.Metal>
0.0000

> <Gold.Chemscore.Hbonds>
donor molecule, donor type, donor heavy atom, donor atom, acceptor molecule, acceptor atom, score
      P1  H 10752 10764       L1     1  0.80

> <Gold.PLP.Chemscore.Internal.Correction>
0.1107

> <Gold.Rescore>
     Score         DG    S(hbond)    S(metal)    S(lipo)     H(rot)  DE(clash)    DE(int)     intcor
     14.52     -16.71       0.84        0.00     111.54       1.81       0.02       2.17       ----

> <Gold.Chemscore.Fitness>
14.5199

> <Gold.Chemscore.DG>
-16.7071

> <Gold.Chemscore.ZeroCoef>
-5.4800

> <Gold.Chemscore.Hbond>
0.8421

> <Gold.Chemscore.Metal>
0.0000

> <Gold.Chemscore.Lipo>
111.5448

> <Gold.Chemscore.Internal_Hbond>
0.0000

> <Gold.Chemscore.DEClash>
0.0178

> <Gold.Chemscore.DEInternal>
2.1694

> <Gold.Chemscore.Rot>
1.8110

> <Gold.Chemscore.Internal.Correction>
   9.000000E+99

> <Gold.Chemscore.Hbonds>
donor molecule, donor type, donor heavy atom, donor atom, acceptor molecule, acceptor atom, score
      P1  H 10752 10764       L1     1  0.79

> <Gold.Chemscore.Hbond.Weighted>
-2.8125

> <Gold.Chemscore.Metal.Weighted>
-0.0000

> <Gold.Chemscore.Lipo.Weighted>
-13.0507

> <Gold.Chemscore.Internal_Hbond.Weighted>
0.0000

> <Gold.Chemscore.DEClash.Weighted>
0.0178

> <Gold.Chemscore.DEInternal.Weighted>
2.1694

> <Gold.Chemscore.Rot.Weighted>
4.6362

> <Gold.Chemscore.Internal.Correction.Weighted>
   9.000000E+99

> <Gold.Protein.RotatedTorsions>
[ 6907 6896 6895 6894 ] final -177.06 input  -60.11 | X-H torsion
[ 7974 7965 7964 7962 ] final   67.47 input  175.53 | X-H torsion
[ 8008 7997 7996 7995 ] final  -37.05 input   59.86 | X-H torsion
[ 10167 10162 10161 10158 ] final  -82.75 input  -65.29 | X-H torsion
[ 10718 10713 10712 10709 ] final -179.20 input   66.30 | X-H torsion
[ 10763 10752 10751 10750 ] final  -84.62 input  -60.55 | X-H torsion
[ 11005 11000 10999 10996 ] final  -51.35 input  -57.11 | X-H torsion

> <Gold.Protein.ActiveResidues>
 VAL166  LYS551  ARG553  GLY616  TRP617  ASP618  TYR619  PRO620  LYS621  CYS622 
 ASP623  PHE694  ASN695  SER759  ASP760  ASP761  ALA762  ILE779  LEU786  VAL792 
 PHE793  MET794  SER795  GLU796  ALA797  LYS798  CYS799  TRP800  GLU811  SER814 

> <Gold.Protein.RotatedAtoms>
  151.6148  133.3344  159.3075 H   0  0  0  0  0  0  0  0  0  0  0  0  # atno 6907 bound_to 6896
  150.8137  134.7310  159.6722 H   0  0  0  0  0  0  0  0  0  0  0  0  # atno 6908 bound_to 6896
  152.4233  134.5920  160.0028 H   0  0  0  0  0  0  0  0  0  0  0  0  # atno 6909 bound_to 6896
  145.8143  139.3049  143.1080 H   0  0  0  0  0  0  0  0  0  0  0  0  # atno 7974 bound_to 7965
  154.4061  140.1614  156.2473 H   0  0  0  0  0  0  0  0  0  0  0  0  # atno 8008 bound_to 7997
  155.9149  140.3425  155.6105 H   0  0  0  0  0  0  0  0  0  0  0  0  # atno 8009 bound_to 7997
  155.7291  140.0778  157.2287 H   0  0  0  0  0  0  0  0  0  0  0  0  # atno 8010 bound_to 7997
  140.4291  143.2555  151.8785 H   0  0  0  0  0  0  0  0  0  0  0  0  # atno 10167 bound_to 10162
  156.8556  130.9734  151.3088 H   0  0  0  0  0  0  0  0  0  0  0  0  # atno 10718 bound_to 10713
  154.6017  135.5514  153.7381 H   0  0  0  0  0  0  0  0  0  0  0  0  # atno 10763 bound_to 10752
  153.0157  135.6368  154.1705 H   0  0  0  0  0  0  0  0  0  0  0  0  # atno 10764 bound_to 10752
  154.1645  135.2895  155.3079 H   0  0  0  0  0  0  0  0  0  0  0  0  # atno 10765 bound_to 10752
  141.0866  133.6641  156.3864 H   0  0  0  0  0  0  0  0  0  0  0  0  # atno 11005 bound_to 11000
  145.9743  140.8734  143.0146 LP  0  0  0  0  0  0  0  0  0  0  0  0  # atno 17320 bound_to 7965
  144.6754  140.1990  143.7389 LP  0  0  0  0  0  0  0  0  0  0  0  0  # atno 17321 bound_to 7965
  139.4784  144.5355  151.8605 LP  0  0  0  0  0  0  0  0  0  0  0  0  # atno 17342 bound_to 10162
  140.4448  144.1937  150.5893 LP  0  0  0  0  0  0  0  0  0  0  0  0  # atno 17343 bound_to 10162
  157.6279  130.8706  149.9222 LP  0  0  0  0  0  0  0  0  0  0  0  0  # atno 17370 bound_to 10713
  156.0804  130.3674  150.0591 LP  0  0  0  0  0  0  0  0  0  0  0  0  # atno 17371 bound_to 10713
  140.5349  134.6177  157.5362 LP  0  0  0  0  0  0  0  0  0  0  0  0  # atno 17394 bound_to 11000
  139.9685  134.7332  156.0089 LP  0  0  0  0  0  0  0  0  0  0  0  0  # atno 17395 bound_to 11000

$$$$
