AV-unprocessed.smi:3335|AV-procd|sdf|12852|dock9
  -GOLD-   2272019243D 1   1.00000     0.00000
 Structure written by MMmdl.
 46 47  0  0  0  0  0  0  0  0  1 V2000
  146.8076  142.5496  153.2088 C   0  0  0  0  0  0  0  0  0  0  0  0
  147.8001  141.8929  154.1242 C   0  0  0  0  0  0  0  0  0  0  0  0
  148.5466  140.7018  153.8975 C   0  0  0  0  0  0  0  0  0  0  0  0
  149.3383  140.3910  154.9103 N   0  0  0  0  0  0  0  0  0  0  0  0
  149.1299  141.3706  155.8186 N   0  0  0  0  0  0  0  0  0  0  0  0
  149.8435  141.3612  157.0899 C   0  0  1  0  0  0  0  0  0  0  0  0
  151.3537  141.1762  156.8419 C   0  0  0  0  0  0  0  0  0  0  0  0
  149.5314  142.6168  157.9489 C   0  0  1  0  0  0  0  0  0  0  0  0
  148.0403  142.7414  158.3286 C   0  0  0  0  0  0  0  0  0  0  0  0
  150.3257  142.5321  159.1769 N   0  0  0  0  0  0  0  0  0  0  0  0
  151.3880  143.5472  159.3223 C   0  0  1  0  0  0  0  0  0  0  0  0
  150.7630  144.9495  159.2634 C   0  0  0  0  0  0  0  0  0  0  0  0
  152.1993  143.3934  160.6288 C   0  0  0  0  0  0  0  0  0  0  0  0
  152.1706  144.3077  161.4549 O   0  0  0  0  0  0  0  0  0  0  0  0
  152.9174  142.2688  160.8382 N   0  0  0  0  0  0  0  0  0  0  0  0
  153.6929  142.0324  162.0550 C   0  0  0  0  0  0  0  0  0  0  0  0
  154.1512  140.5758  161.9825 C   0  0  0  0  0  0  0  0  0  0  0  0
  154.1699  140.2669  160.4925 C   0  0  0  0  0  0  0  0  0  0  0  0
  153.0566  141.1417  159.9159 C   0  0  0  0  0  0  0  0  0  0  0  0
  148.2037  142.2881  155.3680 C   0  0  0  0  0  0  0  0  0  0  0  0
  146.7439  142.0407  152.2466 H   0  0  0  0  0  0  0  0  0  0  0  0
  147.0735  143.5871  153.0062 H   0  0  0  0  0  0  0  0  0  0  0  0
  145.8057  142.5519  153.6383 H   0  0  0  0  0  0  0  0  0  0  0  0
  148.5361  140.0570  153.0311 H   0  0  0  0  0  0  0  0  0  0  0  0
  149.4895  140.4832  157.6331 H   0  0  0  0  0  0  0  0  0  0  0  0
  151.8996  141.0384  157.7752 H   0  0  0  0  0  0  0  0  0  0  0  0
  151.7847  142.0392  156.3333 H   0  0  0  0  0  0  0  0  0  0  0  0
  151.5435  140.2977  156.2243 H   0  0  0  0  0  0  0  0  0  0  0  0
  149.8094  143.4933  157.3633 H   0  0  0  0  0  0  0  0  0  0  0  0
  147.4079  142.8443  157.4470 H   0  0  0  0  0  0  0  0  0  0  0  0
  147.8481  143.6172  158.9474 H   0  0  0  0  0  0  0  0  0  0  0  0
  147.6987  141.8646  158.8796 H   0  0  0  0  0  0  0  0  0  0  0  0
  150.7119  141.6020  159.2554 H   0  0  0  0  0  0  0  0  0  0  0  0
  152.0487  143.4525  158.4631 H   0  0  0  0  0  0  0  0  0  0  0  0
  151.5235  145.7281  159.3332 H   0  0  0  0  0  0  0  0  0  0  0  0
  150.0520  145.1064  160.0758 H   0  0  0  0  0  0  0  0  0  0  0  0
  150.2299  145.0995  158.3241 H   0  0  0  0  0  0  0  0  0  0  0  0
  154.5526  142.7042  162.0645 H   0  0  0  0  0  0  0  0  0  0  0  0
  153.1075  142.2180  162.9573 H   0  0  0  0  0  0  0  0  0  0  0  0
  155.1169  140.4114  162.4615 H   0  0  0  0  0  0  0  0  0  0  0  0
  153.4194  139.9366  162.4780 H   0  0  0  0  0  0  0  0  0  0  0  0
  155.1284  140.5699  160.0691 H   0  0  0  0  0  0  0  0  0  0  0  0
  154.0296  139.2075  160.2770 H   0  0  0  0  0  0  0  0  0  0  0  0
  152.1167  140.5886  159.8847 H   0  0  0  0  0  0  0  0  0  0  0  0
  153.3005  141.4624  158.9023 H   0  0  0  0  0  0  0  0  0  0  0  0
  147.9112  143.1401  155.9636 H   0  0  0  0  0  0  0  0  0  0  0  0
  1  2  1  0  0  0  0
  1 21  1  0  0  0  0
  1 22  1  0  0  0  0
  1 23  1  0  0  0  0
  2 20  2  0  0  0  0
  2  3  1  0  0  0  0
  3  4  2  0  0  0  0
  3 24  1  0  0  0  0
  4  5  1  0  0  0  0
  5  6  1  0  0  0  0
  5 20  1  0  0  0  0
  6  7  1  0  0  0  0
  6  8  1  0  0  0  0
  6 25  1  0  0  0  0
  7 26  1  0  0  0  0
  7 27  1  0  0  0  0
  7 28  1  0  0  0  0
  8  9  1  0  0  0  0
  8 10  1  0  0  0  0
  8 29  1  0  0  0  0
  9 30  1  0  0  0  0
  9 31  1  0  0  0  0
  9 32  1  0  0  0  0
 10 11  1  0  0  0  0
 10 33  1  0  0  0  0
 11 12  1  0  0  0  0
 11 13  1  0  0  0  0
 11 34  1  0  0  0  0
 12 35  1  0  0  0  0
 12 36  1  0  0  0  0
 12 37  1  0  0  0  0
 13 14  2  0  0  0  0
 13 15  1  0  0  0  0
 15 19  1  0  0  0  0
 15 16  1  0  0  0  0
 16 17  1  0  0  0  0
 16 38  1  0  0  0  0
 16 39  1  0  0  0  0
 17 18  1  0  0  0  0
 17 40  1  0  0  0  0
 17 41  1  0  0  0  0
 18 19  1  0  0  0  0
 18 42  1  0  0  0  0
 18 43  1  0  0  0  0
 19 44  1  0  0  0  0
 19 45  1  0  0  0  0
 20 46  1  0  0  0  0
M  END
> <s_m_source_file>
AV-unprocessed.smi

> <i_m_source_file_index>
3335

> <i_lp_mmshare_version>
43012

> <i_f3d_flags>
0

> <s_epik_input>
W0NIM11jMVtjSF1ubihbY0hdMSlbQ0BIXShbQ0gzXSlbQ0BIXShbQ0gzXSlbTkhdW0NASF0oW0NIM10pQyg9TylOMltDSDJdW0NIMl1bQ0gyXVtDSDJdMg==

> <s_epik_cmdline>
J2VwaWtfcHl0aG9uJywgJy1waCcsICc3LjAnLCAnLXRuJywgJzgnLCAnLW1hJywgJzIwMCcsICctbWV0YWxfYmluZGluZycsICctaW1hZScsICc8aW5maWxlLm1hZT4nLCAnLW9tYWUnLCAnPG91dGZpbGUubWFlPic=

> <r_lp_tautomer_probability>
1

> <r_epik_Ionization_Penalty>
0.918803

> <r_epik_Ionization_Penalty_Charging>
0

> <r_epik_Ionization_Penalty_Neutral>
0.918803

> <r_epik_State_Penalty>
0.958258

> <r_epik_Charging_Adjusted_Penalty>
0.958258

> <i_epik_Tot_Q>
0

> <i_epik_Tot_abs_Q>
0

> <r_epik_Metal_State_Penalty>
0.956786

> <b_epik_Metal_Only>
0

> <s_lp_Force_Field>
OPLS_2005

> <r_lp_Energy>
36.4187

> <b_lp_Chiralities_Consistent>
1

> <s_lp_Variant>
AV-unprocessed.smi:3335-16

> <Gold.Version>
5.8.1

> <Gold.Id.Protein>
6NUR|6NUR_protein|mol2

> <Gold.PLP.Fitness>
42.9401

> <Gold.PLP.PLP>
-39.6428

> <Gold.PLP.part.hbond>
-1.0000

> <Gold.PLP.part.metal>
0.0000

> <Gold.PLP.part.buried>
-1.5246

> <Gold.PLP.part.nonpolar>
-35.8726

> <Gold.PLP.part.repulsive>
0.2539

> <Gold.PLP.ligand.clash>
0.0147

> <Gold.PLP.ligand.torsion>
0.8916

> <Gold.PLP.Chemscore.Hbond>
0.0000

> <Gold.PLP.Chemscore.CHOScore>
1.6612

> <Gold.PLP.Chemscore.Metal>
0.0000

> <Gold.Chemscore.Hbonds>
donor molecule, donor type, donor heavy atom, donor atom, acceptor molecule, acceptor atom, score
      L1  C     3    24       P1  7957  1.00
      L1  C    20    46       P1  8028  0.41

> <Gold.PLP.Chemscore.Internal.Correction>
0.1117

> <Gold.Rescore>
     Score         DG    S(hbond)    S(metal)    S(lipo)     H(rot)  DE(clash)    DE(int)     intcor
     10.85     -12.84       0.00        0.00      98.37       1.62       0.10       1.89       ----

> <Gold.Chemscore.Fitness>
10.8494

> <Gold.Chemscore.DG>
-12.8407

> <Gold.Chemscore.ZeroCoef>
-5.4800

> <Gold.Chemscore.Hbond>
0.0000

> <Gold.Chemscore.Metal>
0.0000

> <Gold.Chemscore.Lipo>
98.3670

> <Gold.Chemscore.Internal_Hbond>
0.0000

> <Gold.Chemscore.DEClash>
0.1042

> <Gold.Chemscore.DEInternal>
1.8871

> <Gold.Chemscore.Rot>
1.6204

> <Gold.Chemscore.Internal.Correction>
   9.000000E+99

> <Gold.Chemscore.Hbond.Weighted>
-0.0000

> <Gold.Chemscore.Metal.Weighted>
-0.0000

> <Gold.Chemscore.Lipo.Weighted>
-11.5089

> <Gold.Chemscore.Internal_Hbond.Weighted>
0.0000

> <Gold.Chemscore.DEClash.Weighted>
0.1042

> <Gold.Chemscore.DEInternal.Weighted>
1.8871

> <Gold.Chemscore.Rot.Weighted>
4.1482

> <Gold.Chemscore.Internal.Correction.Weighted>
   9.000000E+99

> <Gold.Protein.RotatedTorsions>
[ 6907 6896 6895 6894 ] final  -23.16 input  -60.11 | X-H torsion
[ 7974 7965 7964 7962 ] final   81.75 input  175.53 | X-H torsion
[ 8008 7997 7996 7995 ] final -157.97 input   59.86 | X-H torsion
[ 10167 10162 10161 10158 ] final -125.46 input  -65.29 | X-H torsion
[ 10718 10713 10712 10709 ] final   34.39 input   66.30 | X-H torsion
[ 10763 10752 10751 10750 ] final  163.00 input  -60.55 | X-H torsion
[ 11005 11000 10999 10996 ] final  -32.26 input  -57.11 | X-H torsion

> <Gold.Protein.ActiveResidues>
 VAL166  LYS551  ARG553  GLY616  TRP617  ASP618  TYR619  PRO620  LYS621  CYS622 
 ASP623  PHE694  ASN695  SER759  ASP760  ASP761  ALA762  ILE779  LEU786  VAL792 
 PHE793  MET794  SER795  GLU796  ALA797  LYS798  CYS799  TRP800  GLU811  SER814 

> <Gold.Protein.RotatedAtoms>
  151.2080  135.0470  159.8899 H   0  0  0  0  0  0  0  0  0  0  0  0  # atno 6907 bound_to 6896
  152.5427  134.0776  159.8231 H   0  0  0  0  0  0  0  0  0  0  0  0  # atno 6908 bound_to 6896
  151.0925  133.5257  159.2646 H   0  0  0  0  0  0  0  0  0  0  0  0  # atno 6909 bound_to 6896
  145.6341  139.2411  143.2068 H   0  0  0  0  0  0  0  0  0  0  0  0  # atno 7974 bound_to 7965
  155.7405  140.0813  157.2248 H   0  0  0  0  0  0  0  0  0  0  0  0  # atno 8008 bound_to 7997
  154.4022  140.1579  156.2666 H   0  0  0  0  0  0  0  0  0  0  0  0  # atno 8009 bound_to 7997
  155.9025  140.3409  155.6040 H   0  0  0  0  0  0  0  0  0  0  0  0  # atno 8010 bound_to 7997
  139.9819  143.5734  152.2375 H   0  0  0  0  0  0  0  0  0  0  0  0  # atno 10167 bound_to 10162
  157.3098  130.7393  149.6718 H   0  0  0  0  0  0  0  0  0  0  0  0  # atno 10718 bound_to 10713
  154.2869  135.2762  155.2672 H   0  0  0  0  0  0  0  0  0  0  0  0  # atno 10763 bound_to 10752
  154.5168  135.5767  153.6652 H   0  0  0  0  0  0  0  0  0  0  0  0  # atno 10764 bound_to 10752
  152.9920  135.6194  154.3032 H   0  0  0  0  0  0  0  0  0  0  0  0  # atno 10765 bound_to 10752
  140.9537  133.7205  156.1260 H   0  0  0  0  0  0  0  0  0  0  0  0  # atno 11005 bound_to 11000
  146.1333  140.7156  142.9402 LP  0  0  0  0  0  0  0  0  0  0  0  0  # atno 17320 bound_to 7965
  144.7182  140.4284  143.7028 LP  0  0  0  0  0  0  0  0  0  0  0  0  # atno 17321 bound_to 7965
  139.6404  144.7654  151.2351 LP  0  0  0  0  0  0  0  0  0  0  0  0  # atno 17342 bound_to 10162
  140.7486  143.6327  150.8408 LP  0  0  0  0  0  0  0  0  0  0  0  0  # atno 17343 bound_to 10162
  155.9677  130.4255  150.4655 LP  0  0  0  0  0  0  0  0  0  0  0  0  # atno 17370 bound_to 10713
  157.2652  131.0575  151.2295 LP  0  0  0  0  0  0  0  0  0  0  0  0  # atno 17371 bound_to 10713
  140.7566  134.3985  157.5533 LP  0  0  0  0  0  0  0  0  0  0  0  0  # atno 17394 bound_to 11000
  139.8855  134.8934  156.2637 LP  0  0  0  0  0  0  0  0  0  0  0  0  # atno 17395 bound_to 11000

$$$$
