AV-unprocessed.smi:2357|AV-procd|sdf|9401|dock8
  -GOLD-   2272013 33D 1   1.00000     0.00000
 Structure written by MMmdl.
 37 38  0  0  0  0  0  0  0  0  1 V2000
  155.7579  135.3834  164.3485 C   0  0  0  0  0  0  0  0  0  0  0  0
  155.1225  136.0783  163.1585 C   0  0  0  0  0  0  0  0  0  0  0  0
  154.6504  137.4420  163.2811 C   0  0  0  0  0  0  0  0  0  0  0  0
  154.0990  138.0445  162.2169 C   0  0  0  0  0  0  0  0  0  0  0  0
  153.9609  137.3895  160.9806 N   0  0  0  0  0  0  0  0  0  0  0  0
  153.3605  138.1535  159.8749 C   0  0  0  0  0  0  0  0  0  0  0  0
  154.0121  139.5322  159.7133 C   0  0  0  0  0  0  0  0  0  0  0  0
  155.0914  139.6428  159.1313 O   0  0  0  0  0  0  0  0  0  0  0  0
  153.3434  140.5704  160.2361 N   0  0  0  0  0  0  0  0  0  0  0  0
  153.7276  141.9722  160.1048 C   0  0  0  0  0  0  0  0  0  0  0  0
  152.5660  142.8692  159.6263 C   0  0  2  0  0  0  0  0  0  0  0  0
  152.9592  144.0822  158.7743 C   0  0  0  0  0  0  0  0  0  0  0  0
  151.8141  145.0312  159.0455 C   0  0  0  0  0  0  0  0  0  0  0  0
  151.5467  144.7730  160.5242 C   0  0  0  0  0  0  0  0  0  0  0  0
  151.8200  143.3899  160.7254 O   0  0  0  0  0  0  0  0  0  0  0  0
  154.3772  136.1003  160.7938 C   0  0  0  0  0  0  0  0  0  0  0  0
  154.2477  135.5287  159.7091 O   0  0  0  0  0  0  0  0  0  0  0  0
  154.9865  135.4515  161.9653 C   0  0  0  0  0  0  0  0  0  0  0  0
  155.4334  134.1104  161.7648 C   0  0  0  0  0  0  0  0  0  0  0  0
  155.7765  133.0165  161.6046 N   0  0  0  0  0  0  0  0  0  0  0  0
  155.8011  136.0444  165.2145 H   0  0  0  0  0  0  0  0  0  0  0  0
  156.7753  135.0724  164.1101 H   0  0  0  0  0  0  0  0  0  0  0  0
  155.1823  134.4998  164.6255 H   0  0  0  0  0  0  0  0  0  0  0  0
  154.7444  137.9751  164.2159 H   0  0  0  0  0  0  0  0  0  0  0  0
  153.7379  139.0624  162.2431 H   0  0  0  0  0  0  0  0  0  0  0  0
  153.4343  137.5869  158.9446 H   0  0  0  0  0  0  0  0  0  0  0  0
  152.2920  138.3000  160.0375 H   0  0  0  0  0  0  0  0  0  0  0  0
  152.4710  140.3817  160.7082 H   0  0  0  0  0  0  0  0  0  0  0  0
  154.0633  142.3119  161.0849 H   0  0  0  0  0  0  0  0  0  0  0  0
  154.5851  142.0723  159.4373 H   0  0  0  0  0  0  0  0  0  0  0  0
  151.8687  142.2584  159.0510 H   0  0  0  0  0  0  0  0  0  0  0  0
  153.8889  144.5365  159.1177 H   0  0  0  0  0  0  0  0  0  0  0  0
  153.0714  143.8393  157.7173 H   0  0  0  0  0  0  0  0  0  0  0  0
  152.0584  146.0723  158.8319 H   0  0  0  0  0  0  0  0  0  0  0  0
  150.9439  144.7518  158.4499 H   0  0  0  0  0  0  0  0  0  0  0  0
  152.2310  145.3551  161.1423 H   0  0  0  0  0  0  0  0  0  0  0  0
  150.5277  145.0264  160.8169 H   0  0  0  0  0  0  0  0  0  0  0  0
  1  2  1  0  0  0  0
  1 21  1  0  0  0  0
  1 22  1  0  0  0  0
  1 23  1  0  0  0  0
  2 18  2  0  0  0  0
  2  3  1  0  0  0  0
  3  4  2  0  0  0  0
  3 24  1  0  0  0  0
  4  5  1  0  0  0  0
  4 25  1  0  0  0  0
  5  6  1  0  0  0  0
  5 16  1  0  0  0  0
  6  7  1  0  0  0  0
  6 26  1  0  0  0  0
  6 27  1  0  0  0  0
  7  8  2  0  0  0  0
  7  9  1  0  0  0  0
  9 10  1  0  0  0  0
  9 28  1  0  0  0  0
 10 11  1  0  0  0  0
 10 29  1  0  0  0  0
 10 30  1  0  0  0  0
 11 15  1  0  0  0  0
 11 12  1  0  0  0  0
 11 31  1  0  0  0  0
 12 13  1  0  0  0  0
 12 32  1  0  0  0  0
 12 33  1  0  0  0  0
 13 14  1  0  0  0  0
 13 34  1  0  0  0  0
 13 35  1  0  0  0  0
 14 15  1  0  0  0  0
 14 36  1  0  0  0  0
 14 37  1  0  0  0  0
 16 17  2  0  0  0  0
 16 18  1  0  0  0  0
 18 19  1  0  0  0  0
 19 20  3  0  0  0  0
M  END
> <s_m_source_file>
AV-unprocessed.smi

> <i_m_source_file_index>
2357

> <i_lp_mmshare_version>
43012

> <i_f3d_flags>
0

> <s_epik_input>
W0NIM11jMVtjSF1bY0hdbihjKD1PKWMxQyNOKVtDSDJdQyg9TylbTkhdW0NIMl1bQ0BASF0yW0NIMl1bQ0gyXVtDSDJdTzI=

> <s_epik_cmdline>
J2VwaWtfcHl0aG9uJywgJy1waCcsICc3LjAnLCAnLXRuJywgJzgnLCAnLW1hJywgJzIwMCcsICctbWV0YWxfYmluZGluZycsICctaW1hZScsICc8aW5maWxlLm1hZT4nLCAnLW9tYWUnLCAnPG91dGZpbGUubWFlPic=

> <r_lp_tautomer_probability>
1

> <r_epik_Ionization_Penalty>
2.71597e-08

> <r_epik_Ionization_Penalty_Charging>
3.00645e-10

> <r_epik_Ionization_Penalty_Neutral>
2.6859e-08

> <r_epik_State_Penalty>
-0

> <r_epik_Charging_Adjusted_Penalty>
3.00645e-10

> <i_epik_Tot_Q>
0

> <i_epik_Tot_abs_Q>
0

> <r_epik_Metal_State_Penalty>
-0

> <b_epik_Metal_Only>
0

> <s_lp_Force_Field>
OPLS_2005

> <r_lp_Energy>
27.3681

> <b_lp_Chiralities_Consistent>
1

> <s_lp_Variant>
AV-unprocessed.smi:2357-1

> <Gold.Version>
5.8.1

> <Gold.Id.Protein>
6NUR|6NUR_protein|mol2

> <Gold.PLP.Fitness>
44.7708

> <Gold.PLP.PLP>
-40.3877

> <Gold.PLP.part.hbond>
-2.0000

> <Gold.PLP.part.metal>
0.0000

> <Gold.PLP.part.buried>
-5.2776

> <Gold.PLP.part.nonpolar>
-32.8227

> <Gold.PLP.part.repulsive>
0.1694

> <Gold.PLP.ligand.clash>
0.0000

> <Gold.PLP.ligand.torsion>
0.8098

> <Gold.PLP.Chemscore.Hbond>
2.0000

> <Gold.PLP.Chemscore.CHOScore>
0.0000

> <Gold.PLP.Chemscore.Metal>
0.0000

> <Gold.Chemscore.Hbonds>
donor molecule, donor type, donor heavy atom, donor atom, acceptor molecule, acceptor atom, score
      P1  H  6896  6908       L1    17  1.00
      P1  H  7997  8008       L1     8  1.00

> <Gold.PLP.Chemscore.Internal.Correction>
0.0027

> <Gold.Rescore>
     Score         DG    S(hbond)    S(metal)    S(lipo)     H(rot)  DE(clash)    DE(int)     intcor
     18.58     -19.58       1.96        0.00     103.06       1.76       0.06       0.93       ----

> <Gold.Chemscore.Fitness>
18.5803

> <Gold.Chemscore.DG>
-19.5768

> <Gold.Chemscore.ZeroCoef>
-5.4800

> <Gold.Chemscore.Hbond>
1.9578

> <Gold.Chemscore.Metal>
0.0000

> <Gold.Chemscore.Lipo>
103.0566

> <Gold.Chemscore.Internal_Hbond>
0.0000

> <Gold.Chemscore.DEClash>
0.0640

> <Gold.Chemscore.DEInternal>
0.9325

> <Gold.Chemscore.Rot>
1.7577

> <Gold.Chemscore.Internal.Correction>
   9.000000E+99

> <Gold.Chemscore.Hbonds>
donor molecule, donor type, donor heavy atom, donor atom, acceptor molecule, acceptor atom, score
      P1  H  6896  6908       L1    17  0.29
      P1  H  7997  8008       L1     8  1.00

> <Gold.Chemscore.Hbond.Weighted>
-6.5390

> <Gold.Chemscore.Metal.Weighted>
-0.0000

> <Gold.Chemscore.Lipo.Weighted>
-12.0576

> <Gold.Chemscore.Internal_Hbond.Weighted>
0.0000

> <Gold.Chemscore.DEClash.Weighted>
0.0640

> <Gold.Chemscore.DEInternal.Weighted>
0.9325

> <Gold.Chemscore.Rot.Weighted>
4.4998

> <Gold.Chemscore.Internal.Correction.Weighted>
   9.000000E+99

> <Gold.Protein.RotatedTorsions>
[ 6907 6896 6895 6894 ] final  -55.30 input  -60.11 | X-H torsion
[ 7974 7965 7964 7962 ] final  -66.37 input  175.53 | X-H torsion
[ 8008 7997 7996 7995 ] final -130.26 input   59.86 | X-H torsion
[ 10167 10162 10161 10158 ] final   23.90 input  -65.29 | X-H torsion
[ 10718 10713 10712 10709 ] final  141.29 input   66.30 | X-H torsion
[ 10763 10752 10751 10750 ] final  136.48 input  -60.55 | X-H torsion
[ 11005 11000 10999 10996 ] final  100.28 input  -57.11 | X-H torsion

> <Gold.Protein.ActiveResidues>
 VAL166  LYS551  ARG553  GLY616  TRP617  ASP618  TYR619  PRO620  LYS621  CYS622 
 ASP623  PHE694  ASN695  SER759  ASP760  ASP761  ALA762  ILE779  LEU786  VAL792 
 PHE793  MET794  SER795  GLU796  ALA797  LYS798  CYS799  TRP800  GLU811  SER814 

> <Gold.Protein.RotatedAtoms>
  150.8263  134.7496  159.6815 H   0  0  0  0  0  0  0  0  0  0  0  0  # atno 6907 bound_to 6896
  152.4373  134.5657  159.9916 H   0  0  0  0  0  0  0  0  0  0  0  0  # atno 6908 bound_to 6896
  151.5828  133.3338  159.3048 H   0  0  0  0  0  0  0  0  0  0  0  0  # atno 6909 bound_to 6896
  145.7426  140.8946  143.0522 H   0  0  0  0  0  0  0  0  0  0  0  0  # atno 7974 bound_to 7965
  155.2929  140.0449  157.3024 H   0  0  0  0  0  0  0  0  0  0  0  0  # atno 8008 bound_to 7997
  154.5531  140.2323  155.8421 H   0  0  0  0  0  0  0  0  0  0  0  0  # atno 8009 bound_to 7997
  156.1984  140.3032  155.9482 H   0  0  0  0  0  0  0  0  0  0  0  0  # atno 8010 bound_to 7997
  140.5232  143.9968  150.6427 H   0  0  0  0  0  0  0  0  0  0  0  0  # atno 10167 bound_to 10162
  157.3937  131.1008  151.0621 H   0  0  0  0  0  0  0  0  0  0  0  0  # atno 10718 bound_to 10713
  153.8572  135.3072  155.3436 H   0  0  0  0  0  0  0  0  0  0  0  0  # atno 10763 bound_to 10752
  154.7865  135.4807  153.9960 H   0  0  0  0  0  0  0  0  0  0  0  0  # atno 10764 bound_to 10752
  153.1483  135.6838  153.9015 H   0  0  0  0  0  0  0  0  0  0  0  0  # atno 10765 bound_to 10752
  139.8771  134.9133  156.4732 H   0  0  0  0  0  0  0  0  0  0  0  0  # atno 11005 bound_to 11000
  144.6867  139.9481  143.7477 LP  0  0  0  0  0  0  0  0  0  0  0  0  # atno 17320 bound_to 7965
  146.0433  139.3442  143.0684 LP  0  0  0  0  0  0  0  0  0  0  0  0  # atno 17321 bound_to 7965
  140.3322  143.3070  152.0675 LP  0  0  0  0  0  0  0  0  0  0  0  0  # atno 17342 bound_to 10162
  139.4930  144.6501  151.6694 LP  0  0  0  0  0  0  0  0  0  0  0  0  # atno 17343 bound_to 10162
  157.1645  130.6240  149.5621 LP  0  0  0  0  0  0  0  0  0  0  0  0  # atno 17370 bound_to 10713
  155.9805  130.4806  150.6775 LP  0  0  0  0  0  0  0  0  0  0  0  0  # atno 17371 bound_to 10713
  140.8781  133.7938  155.9436 LP  0  0  0  0  0  0  0  0  0  0  0  0  # atno 17394 bound_to 11000
  140.8883  134.2527  157.5108 LP  0  0  0  0  0  0  0  0  0  0  0  0  # atno 17395 bound_to 11000

$$$$
