AV-unprocessed.smi:1173|AV-procd|sdf|4945|dock4
  -GOLD-   22720 3533D 1   1.00000     0.00000
 Structure written by MMmdl.
 37 38  0  0  0  0  0  0  0  0  1 V2000
  147.8723  138.8106  155.7674 C   0  0  0  0  0  0  0  0  0  0  0  0
  148.0042  139.8650  154.7548 N   0  0  0  0  0  0  0  0  0  0  0  0
  146.8606  140.0501  153.8460 C   0  0  0  0  0  0  0  0  0  0  0  0
  146.5961  138.8289  152.9542 C   0  0  0  0  0  0  0  0  0  0  0  0
  147.5625  138.4959  152.0954 N   0  0  0  0  0  0  0  0  0  0  0  0
  145.5379  138.2050  153.0200 O   0  0  0  0  0  0  0  0  0  0  0  0
  149.1046  140.6536  154.6567 C   0  0  0  0  0  0  0  0  0  0  0  0
  149.1990  141.5912  153.8635 O   0  0  0  0  0  0  0  0  0  0  0  0
  150.2616  140.3562  155.5649 C   0  0  0  0  0  0  0  0  0  0  0  0
  150.5908  141.3073  156.4677 N   0  0  0  0  0  0  0  0  0  0  0  0
  151.6242  141.0748  157.2872 C   0  0  0  0  0  0  0  0  0  0  0  0
  151.9487  142.0701  158.2189 N   0  0  0  0  0  0  0  0  0  0  0  0
  151.7794  143.4935  157.9147 C   0  0  0  0  0  0  0  0  0  0  0  0
  151.4957  144.2990  159.1938 C   0  0  0  0  0  0  0  0  0  0  0  0
  152.5247  144.0674  160.1475 O   0  0  0  0  0  0  0  0  0  0  0  0
  152.5848  142.6984  160.5270 C   0  0  0  0  0  0  0  0  0  0  0  0
  152.9089  141.8301  159.2995 C   0  0  0  0  0  0  0  0  0  0  0  0
  152.3691  139.9615  157.2811 N   0  0  0  0  0  0  0  0  0  0  0  0
  152.0649  139.0043  156.3791 C   0  0  0  0  0  0  0  0  0  0  0  0
  150.9992  139.1518  155.4715 C   0  0  0  0  0  0  0  0  0  0  0  0
  150.6542  137.9180  154.3093 Cl  0  0  0  0  0  0  0  0  0  0  0  0
  148.5810  138.0035  155.5817 H   0  0  0  0  0  0  0  0  0  0  0  0
  146.8787  138.3623  155.7731 H   0  0  0  0  0  0  0  0  0  0  0  0
  148.0516  139.2043  156.7690 H   0  0  0  0  0  0  0  0  0  0  0  0
  145.9518  140.2628  154.4096 H   0  0  0  0  0  0  0  0  0  0  0  0
  147.0152  140.9294  153.2177 H   0  0  0  0  0  0  0  0  0  0  0  0
  147.4425  137.7034  151.4815 H   0  0  0  0  0  0  0  0  0  0  0  0
  148.4116  139.0416  152.0606 H   0  0  0  0  0  0  0  0  0  0  0  0
  152.6896  143.8580  157.4372 H   0  0  0  0  0  0  0  0  0  0  0  0
  150.9629  143.6696  157.2149 H   0  0  0  0  0  0  0  0  0  0  0  0
  151.4596  145.3641  158.9646 H   0  0  0  0  0  0  0  0  0  0  0  0
  150.5252  144.0314  159.6149 H   0  0  0  0  0  0  0  0  0  0  0  0
  153.3570  142.5754  161.2865 H   0  0  0  0  0  0  0  0  0  0  0  0
  151.6410  142.3922  160.9816 H   0  0  0  0  0  0  0  0  0  0  0  0
  152.9171  140.7870  159.6151 H   0  0  0  0  0  0  0  0  0  0  0  0
  153.9101  142.0587  158.9327 H   0  0  0  0  0  0  0  0  0  0  0  0
  152.6815  138.1178  156.3791 H   0  0  0  0  0  0  0  0  0  0  0  0
  1  2  1  0  0  0  0
  1 22  1  0  0  0  0
  1 23  1  0  0  0  0
  1 24  1  0  0  0  0
  2  3  1  0  0  0  0
  2  7  1  0  0  0  0
  3  4  1  0  0  0  0
  3 25  1  0  0  0  0
  3 26  1  0  0  0  0
  4  5  1  0  0  0  0
  4  6  2  0  0  0  0
  5 27  1  0  0  0  0
  5 28  1  0  0  0  0
  7  8  2  0  0  0  0
  7  9  1  0  0  0  0
  9 20  1  0  0  0  0
  9 10  2  0  0  0  0
 10 11  1  0  0  0  0
 11 12  1  0  0  0  0
 11 18  2  0  0  0  0
 12 17  1  0  0  0  0
 12 13  1  0  0  0  0
 13 14  1  0  0  0  0
 13 29  1  0  0  0  0
 13 30  1  0  0  0  0
 14 15  1  0  0  0  0
 14 31  1  0  0  0  0
 14 32  1  0  0  0  0
 15 16  1  0  0  0  0
 16 17  1  0  0  0  0
 16 33  1  0  0  0  0
 16 34  1  0  0  0  0
 17 35  1  0  0  0  0
 17 36  1  0  0  0  0
 18 19  1  0  0  0  0
 19 20  2  0  0  0  0
 19 37  1  0  0  0  0
 20 21  1  0  0  0  0
M  END
> <s_m_source_file>
AV-unprocessed.smi

> <i_m_source_file_index>
1173

> <i_lp_mmshare_version>
43012

> <i_f3d_flags>
0

> <s_epik_input>
W05IMl1DKD1PKVtDSDJdTihbQ0gzXSlDKD1PKWMxbmMobltjSF1jMUNsKU4yW0NIMl1bQ0gyXU9bQ0gyXVtDSDJdMg==

> <s_epik_cmdline>
J2VwaWtfcHl0aG9uJywgJy1waCcsICc3LjAnLCAnLXRuJywgJzgnLCAnLW1hJywgJzIwMCcsICctbWV0YWxfYmluZGluZycsICctaW1hZScsICc8aW5maWxlLm1hZT4nLCAnLW9tYWUnLCAnPG91dGZpbGUubWFlPic=

> <r_lp_tautomer_probability>
1

> <r_epik_Ionization_Penalty>
9.52456e-08

> <r_epik_Ionization_Penalty_Charging>
0

> <r_epik_Ionization_Penalty_Neutral>
9.52456e-08

> <r_epik_State_Penalty>
-0

> <r_epik_Charging_Adjusted_Penalty>
0

> <i_epik_Tot_Q>
0

> <i_epik_Tot_abs_Q>
0

> <r_epik_Metal_State_Penalty>
-0

> <b_epik_Metal_Only>
0

> <s_lp_Force_Field>
OPLS_2005

> <r_lp_Energy>
19.8888

> <b_lp_Chiralities_Consistent>
1

> <s_lp_Variant>
AV-unprocessed.smi:1173-1

> <Gold.Version>
5.8.1

> <Gold.Id.Protein>
6NUR|6NUR_protein|mol2

> <Gold.PLP.Fitness>
47.7396

> <Gold.PLP.PLP>
-41.2856

> <Gold.PLP.part.hbond>
-4.9832

> <Gold.PLP.part.metal>
0.0000

> <Gold.PLP.part.buried>
-6.5431

> <Gold.PLP.part.nonpolar>
-31.0491

> <Gold.PLP.part.repulsive>
0.8040

> <Gold.PLP.ligand.clash>
0.0000

> <Gold.PLP.ligand.torsion>
1.5085

> <Gold.PLP.Chemscore.Hbond>
2.5684

> <Gold.PLP.Chemscore.CHOScore>
0.0000

> <Gold.PLP.Chemscore.Metal>
0.0000

> <Gold.Chemscore.Hbonds>
donor molecule, donor type, donor heavy atom, donor atom, acceptor molecule, acceptor atom, score
      L1  H     5    27       P1  7948  0.18
      L1  H     5    28       P1  7957  0.99
      P1  H  7997  8010       L1    18  0.61
      P1  H  8011  8017       L1     8  0.67

> <Gold.PLP.Chemscore.Internal.Correction>
1.7659

> <Gold.Rescore>
     Score         DG    S(hbond)    S(metal)    S(lipo)     H(rot)  DE(clash)    DE(int)     intcor
     16.65     -18.15       2.22        0.00      78.50       1.54       0.09       1.41       ----

> <Gold.Chemscore.Fitness>
16.6546

> <Gold.Chemscore.DG>
-18.1467

> <Gold.Chemscore.ZeroCoef>
-5.4800

> <Gold.Chemscore.Hbond>
2.2213

> <Gold.Chemscore.Metal>
0.0000

> <Gold.Chemscore.Lipo>
78.4973

> <Gold.Chemscore.Internal_Hbond>
0.0000

> <Gold.Chemscore.DEClash>
0.0857

> <Gold.Chemscore.DEInternal>
1.4064

> <Gold.Chemscore.Rot>
1.5377

> <Gold.Chemscore.Internal.Correction>
   9.000000E+99

> <Gold.Chemscore.Hbonds>
donor molecule, donor type, donor heavy atom, donor atom, acceptor molecule, acceptor atom, score
      L1  H     5    27       P1  7948  0.18
      L1  H     5    28       P1  7957  0.93
      P1  H  7997  8010       L1    18  0.08
      P1  H  8011  8017       L1     8  0.68

> <Gold.Chemscore.Hbond.Weighted>
-7.4191

> <Gold.Chemscore.Metal.Weighted>
-0.0000

> <Gold.Chemscore.Lipo.Weighted>
-9.1842

> <Gold.Chemscore.Internal_Hbond.Weighted>
0.0000

> <Gold.Chemscore.DEClash.Weighted>
0.0857

> <Gold.Chemscore.DEInternal.Weighted>
1.4064

> <Gold.Chemscore.Rot.Weighted>
3.9366

> <Gold.Chemscore.Internal.Correction.Weighted>
   9.000000E+99

> <Gold.Protein.RotatedTorsions>
[ 6907 6896 6895 6894 ] final  -55.19 input  -60.11 | X-H torsion
[ 7974 7965 7964 7962 ] final  176.20 input  175.53 | X-H torsion
[ 8008 7997 7996 7995 ] final   49.20 input   59.86 | X-H torsion
[ 10167 10162 10161 10158 ] final   42.41 input  -65.29 | X-H torsion
[ 10718 10713 10712 10709 ] final  -88.35 input   66.30 | X-H torsion
[ 10763 10752 10751 10750 ] final  168.09 input  -60.55 | X-H torsion
[ 11005 11000 10999 10996 ] final  -79.82 input  -57.11 | X-H torsion

> <Gold.Protein.ActiveResidues>
 VAL166  LYS551  ARG553  GLY616  TRP617  ASP618  TYR619  PRO620  LYS621  CYS622 
 ASP623  PHE694  ASN695  SER759  ASP760  ASP761  ALA762  ILE779  LEU786  VAL792 
 PHE793  MET794  SER795  GLU796  ALA797  LYS798  CYS799  TRP800  GLU811  SER814 

> <Gold.Protein.RotatedAtoms>
  150.8273  134.7509  159.6823 H   0  0  0  0  0  0  0  0  0  0  0  0  # atno 6907 bound_to 6896
  152.4382  134.5641  159.9912 H   0  0  0  0  0  0  0  0  0  0  0  0  # atno 6908 bound_to 6896
  151.5810  133.3340  159.3044 H   0  0  0  0  0  0  0  0  0  0  0  0  # atno 6909 bound_to 6896
  144.7188  140.0061  143.6440 H   0  0  0  0  0  0  0  0  0  0  0  0  # atno 7974 bound_to 7965
  155.3983  140.3436  155.4255 H   0  0  0  0  0  0  0  0  0  0  0  0  # atno 8008 bound_to 7997
  156.1518  140.1573  156.8790 H   0  0  0  0  0  0  0  0  0  0  0  0  # atno 8009 bound_to 7997
  154.5059  140.0802  156.7874 H   0  0  0  0  0  0  0  0  0  0  0  0  # atno 8010 bound_to 7997
  140.3547  144.2306  150.6142 H   0  0  0  0  0  0  0  0  0  0  0  0  # atno 10167 bound_to 10162
  155.9984  130.4832  150.5005 H   0  0  0  0  0  0  0  0  0  0  0  0  # atno 10718 bound_to 10713
  154.3635  135.2753  155.2307 H   0  0  0  0  0  0  0  0  0  0  0  0  # atno 10763 bound_to 10752
  154.4485  135.5937  153.6179 H   0  0  0  0  0  0  0  0  0  0  0  0  # atno 10764 bound_to 10752
  152.9842  135.6036  154.3858 H   0  0  0  0  0  0  0  0  0  0  0  0  # atno 10765 bound_to 10752
  141.1668  133.7123  156.8181 H   0  0  0  0  0  0  0  0  0  0  0  0  # atno 11005 bound_to 11000
  146.0296  139.3323  143.0763 LP  0  0  0  0  0  0  0  0  0  0  0  0  # atno 17320 bound_to 7965
  145.8468  140.9550  143.0770 LP  0  0  0  0  0  0  0  0  0  0  0  0  # atno 17321 bound_to 7965
  140.5185  143.2272  151.8425 LP  0  0  0  0  0  0  0  0  0  0  0  0  # atno 17342 bound_to 10162
  139.4822  144.4865  151.9240 LP  0  0  0  0  0  0  0  0  0  0  0  0  # atno 17343 bound_to 10162
  157.2990  131.0641  151.2081 LP  0  0  0  0  0  0  0  0  0  0  0  0  # atno 17370 bound_to 10713
  157.3067  130.6869  149.6193 LP  0  0  0  0  0  0  0  0  0  0  0  0  # atno 17371 bound_to 10713
  140.2139  134.8807  157.3305 LP  0  0  0  0  0  0  0  0  0  0  0  0  # atno 17394 bound_to 11000
  140.2058  134.4199  155.7638 LP  0  0  0  0  0  0  0  0  0  0  0  0  # atno 17395 bound_to 11000

$$$$
