AV-unprocessed.smi:1033|AV-procd|sdf|4500|dock6
  -GOLD-   22720 2493D 1   1.00000     0.00000
 Structure written by MMmdl.
 57 59  0  0  0  0  0  0  0  0  3 V2000
  152.5720  143.4244  161.7664 C   0  0  0  0  0  0  0  0  0  0  0  0
  152.1645  142.8898  160.4039 C   0  0  0  0  0  0  0  0  0  0  0  0
  152.5731  141.5868  160.0408 C   0  0  0  0  0  0  0  0  0  0  0  0
  152.1863  141.1269  158.7876 C   0  0  0  0  0  0  0  0  0  0  0  0
  152.4272  139.9099  158.1467 N   0  3  0  0  0  0  0  0  0  0  0  0
  151.8416  139.9194  156.9176 C   0  0  0  0  0  0  0  0  0  0  0  0
  151.2315  141.1262  156.7619 N   0  0  0  0  0  0  0  0  0  0  0  0
  150.4530  141.6427  155.6264 C   0  0  0  0  0  0  0  0  0  0  0  0
  149.6590  140.5444  154.8917 C   0  0  2  0  0  0  0  0  0  0  0  0
  150.4964  139.9058  153.9476 O   0  0  0  0  0  0  0  0  0  0  0  0
  148.4371  141.1270  154.1531 C   0  0  0  0  0  0  0  0  0  0  0  0
  147.5471  141.9186  155.0403 N   0  3  0  0  0  0  0  0  0  0  0  0
  147.3394  141.2658  156.3591 C   0  0  0  0  0  0  0  0  0  0  0  0
  146.4651  142.1522  157.2702 C   0  0  0  0  0  0  0  0  0  0  0  0
  145.1699  142.4878  156.6794 N   0  0  0  0  0  0  0  0  0  0  0  0
  144.2505  141.3412  156.6382 C   0  0  0  0  0  0  0  0  0  0  0  0
  142.8029  141.6267  156.1777 C   0  0  1  0  0  0  0  0  0  0  0  0
  142.1198  142.7990  156.8991 C   0  0  0  0  0  0  0  0  0  0  0  0
  142.7492  141.8076  154.7774 O   0  0  0  0  0  0  0  0  0  0  0  0
  145.4077  143.1342  155.3865 C   0  0  0  0  0  0  0  0  0  0  0  0
  146.2430  142.2731  154.4186 C   0  0  0  0  0  0  0  0  0  0  0  0
  151.4185  141.9127  157.9058 C   0  0  0  0  0  0  0  0  0  0  0  0
  151.0077  143.1990  158.2488 C   0  0  0  0  0  0  0  0  0  0  0  0
  151.3916  143.6856  159.5190 C   0  0  0  0  0  0  0  0  0  0  0  0
  150.9593  145.0860  159.9194 C   0  0  0  0  0  0  0  0  0  0  0  0
  153.1802  142.7027  162.3126 H   0  0  0  0  0  0  0  0  0  0  0  0
  151.6915  143.6430  162.3709 H   0  0  0  0  0  0  0  0  0  0  0  0
  153.1560  144.3388  161.6611 H   0  0  0  0  0  0  0  0  0  0  0  0
  153.1611  140.9750  160.7094 H   0  0  0  0  0  0  0  0  0  0  0  0
  151.8567  139.1131  156.1980 H   0  0  0  0  0  0  0  0  0  0  0  0
  149.7655  142.3887  156.0275 H   0  0  0  0  0  0  0  0  0  0  0  0
  151.1168  142.1779  154.9467 H   0  0  0  0  0  0  0  0  0  0  0  0
  149.3439  139.8016  155.6238 H   0  0  0  0  0  0  0  0  0  0  0  0
  150.0165  139.8052  153.1393 H   0  0  0  0  0  0  0  0  0  0  0  0
  148.7566  141.7521  153.3180 H   0  0  0  0  0  0  0  0  0  0  0  0
  147.8736  140.3012  153.7153 H   0  0  0  0  0  0  0  0  0  0  0  0
  146.8876  140.2827  156.2209 H   0  0  0  0  0  0  0  0  0  0  0  0
  148.3043  141.1022  156.8402 H   0  0  0  0  0  0  0  0  0  0  0  0
  146.3181  141.6623  158.2333 H   0  0  0  0  0  0  0  0  0  0  0  0
  147.0055  143.0747  157.4876 H   0  0  0  0  0  0  0  0  0  0  0  0
  144.6678  140.5255  156.0480 H   0  0  0  0  0  0  0  0  0  0  0  0
  144.1748  140.9467  157.6524 H   0  0  0  0  0  0  0  0  0  0  0  0
  142.2159  140.7296  156.3770 H   0  0  0  0  0  0  0  0  0  0  0  0
  142.1407  142.6565  157.9799 H   0  0  0  0  0  0  0  0  0  0  0  0
  141.0752  142.8862  156.5985 H   0  0  0  0  0  0  0  0  0  0  0  0
  142.6048  143.7502  156.6784 H   0  0  0  0  0  0  0  0  0  0  0  0
  143.1476  141.0583  154.3614 H   0  0  0  0  0  0  0  0  0  0  0  0
  144.4653  143.4155  154.9194 H   0  0  0  0  0  0  0  0  0  0  0  0
  145.9331  144.0752  155.5562 H   0  0  0  0  0  0  0  0  0  0  0  0
  146.4035  142.8372  153.5009 H   0  0  0  0  0  0  0  0  0  0  0  0
  145.7016  141.3688  154.1382 H   0  0  0  0  0  0  0  0  0  0  0  0
  150.4227  143.8087  157.5763 H   0  0  0  0  0  0  0  0  0  0  0  0
  150.3544  145.5548  159.1427 H   0  0  0  0  0  0  0  0  0  0  0  0
  151.8293  145.7199  160.0921 H   0  0  0  0  0  0  0  0  0  0  0  0
  150.3637  145.0576  160.8321 H   0  0  0  0  0  0  0  0  0  0  0  0
  148.0294  142.7860  155.2298 H   0  0  0  0  0  0  0  0  0  0  0  0
  152.9493  139.1273  158.5202 H   0  0  0  0  0  0  0  0  0  0  0  0
  1  2  1  0  0  0  0
  1 26  1  0  0  0  0
  1 27  1  0  0  0  0
  1 28  1  0  0  0  0
  2 24  1  0  0  0  0
  2  3  2  0  0  0  0
  3  4  1  0  0  0  0
  3 29  1  0  0  0  0
  4 22  2  0  0  0  0
  4  5  1  0  0  0  0
  5  6  2  0  0  0  0
  5 57  1  0  0  0  0
  6  7  1  0  0  0  0
  6 30  1  0  0  0  0
  7  8  1  0  0  0  0
  7 22  1  0  0  0  0
  8  9  1  0  0  0  0
  8 31  1  0  0  0  0
  8 32  1  0  0  0  0
  9 10  1  0  0  0  0
  9 11  1  0  0  0  0
  9 33  1  0  0  0  0
 10 34  1  0  0  0  0
 11 12  1  0  0  0  0
 11 35  1  0  0  0  0
 11 36  1  0  0  0  0
 12 21  1  0  0  0  0
 12 13  1  0  0  0  0
 12 56  1  0  0  0  0
 13 14  1  0  0  0  0
 13 37  1  0  0  0  0
 13 38  1  0  0  0  0
 14 15  1  0  0  0  0
 14 39  1  0  0  0  0
 14 40  1  0  0  0  0
 15 16  1  0  0  0  0
 15 20  1  0  0  0  0
 16 17  1  0  0  0  0
 16 41  1  0  0  0  0
 16 42  1  0  0  0  0
 17 18  1  0  0  0  0
 17 19  1  0  0  0  0
 17 43  1  0  0  0  0
 18 44  1  0  0  0  0
 18 45  1  0  0  0  0
 18 46  1  0  0  0  0
 19 47  1  0  0  0  0
 20 21  1  0  0  0  0
 20 48  1  0  0  0  0
 20 49  1  0  0  0  0
 21 50  1  0  0  0  0
 21 51  1  0  0  0  0
 22 23  1  0  0  0  0
 23 24  2  0  0  0  0
 23 52  1  0  0  0  0
 24 25  1  0  0  0  0
 25 53  1  0  0  0  0
 25 54  1  0  0  0  0
 25 55  1  0  0  0  0
M  CHG  1   5   1
M  CHG  1  12   1
M  END
> <s_m_source_file>
AV-unprocessed.smi

> <i_m_source_file_index>
1033

> <i_lp_mmshare_version>
43012

> <i_f3d_flags>
0

> <s_epik_input>
W0NIM11jKFtjSF0xKWMoW0NIM10pW2NIXWMoYzEyKW4oW2NIXW4yKVtDSDJdW0NASF0oW09IXSlbQ0gyXU4zW0NIMl1bQ0gyXU4oW0NIMl1bQ0gyXTMpW0NIMl1bQ0BIXShbQ0gzXSlbT0hd

> <s_epik_cmdline>
J2VwaWtfcHl0aG9uJywgJy1waCcsICc3LjAnLCAnLXRuJywgJzgnLCAnLW1hJywgJzIwMCcsICctbWV0YWxfYmluZGluZycsICctaW1hZScsICc8aW5maWxlLm1hZT4nLCAnLW9tYWUnLCAnPG91dGZpbGUubWFlPic=

> <r_epik_Ionization_Penalty>
1.22049

> <r_epik_Ionization_Penalty_Charging>
1.17952

> <r_epik_Ionization_Penalty_Neutral>
0.0409743

> <r_epik_State_Penalty>
1.61468

> <r_epik_Charging_Adjusted_Penalty>
2.7942

> <i_epik_Tot_Q>
2

> <i_epik_Tot_abs_Q>
2

> <r_epik_Metal_State_Penalty>
5.63169

> <b_epik_Metal_Only>
0

> <s_lp_Force_Field>
OPLS_2005

> <r_lp_Energy>
46.6999

> <b_lp_Chiralities_Consistent>
1

> <s_lp_Variant>
AV-unprocessed.smi:1033-11

> <Gold.Version>
5.8.1

> <Gold.Id.Protein>
6NUR|6NUR_protein|mol2

> <Gold.PLP.Fitness>
60.1487

> <Gold.PLP.PLP>
-47.6000

> <Gold.PLP.part.hbond>
-4.9060

> <Gold.PLP.part.metal>
0.0000

> <Gold.PLP.part.buried>
-4.3728

> <Gold.PLP.part.nonpolar>
-36.8874

> <Gold.PLP.part.repulsive>
0.2748

> <Gold.PLP.ligand.clash>
0.0000

> <Gold.PLP.ligand.torsion>
0.8380

> <Gold.PLP.Chemscore.Hbond>
4.6943

> <Gold.PLP.Chemscore.CHOScore>
0.0000

> <Gold.PLP.Chemscore.Metal>
0.0000

> <Gold.Chemscore.Hbonds>
donor molecule, donor type, donor heavy atom, donor atom, acceptor molecule, acceptor atom, score
      L1  H    10    34       P1  7957  1.00
      L1  H    12    56       P1  8028  1.50
      L1  H    19    47       P1 10175  0.72
      P1  H  7989  7998       L1    10  1.00

> <Gold.PLP.Chemscore.Internal.Correction>
0.1418

> <Gold.Rescore>
     Score         DG    S(hbond)    S(metal)    S(lipo)     H(rot)  DE(clash)    DE(int)     intcor
     18.23     -19.40       2.48        0.00     117.16       3.15       0.22       0.95       ----

> <Gold.Chemscore.Fitness>
18.2291

> <Gold.Chemscore.DG>
-19.3982

> <Gold.Chemscore.ZeroCoef>
-5.4800

> <Gold.Chemscore.Hbond>
2.4761

> <Gold.Chemscore.Metal>
0.0000

> <Gold.Chemscore.Lipo>
117.1588

> <Gold.Chemscore.Internal_Hbond>
0.0000

> <Gold.Chemscore.DEClash>
0.2195

> <Gold.Chemscore.DEInternal>
0.9496

> <Gold.Chemscore.Rot>
3.1483

> <Gold.Chemscore.Internal.Correction>
   9.000000E+99

> <Gold.Chemscore.Hbonds>
donor molecule, donor type, donor heavy atom, donor atom, acceptor molecule, acceptor atom, score
      L1  H    10    34       P1  7957  0.92
      L1  H    12    56       P1  8028  0.69
      L1  H    19    47       P1 10175  0.39
      P1  H  7989  7998       L1    10  0.18

> <Gold.Chemscore.Hbond.Weighted>
-8.2703

> <Gold.Chemscore.Metal.Weighted>
-0.0000

> <Gold.Chemscore.Lipo.Weighted>
-13.7076

> <Gold.Chemscore.Internal_Hbond.Weighted>
0.0000

> <Gold.Chemscore.DEClash.Weighted>
0.2195

> <Gold.Chemscore.DEInternal.Weighted>
0.9496

> <Gold.Chemscore.Rot.Weighted>
8.0597

> <Gold.Chemscore.Internal.Correction.Weighted>
   9.000000E+99

> <Gold.Protein.RotatedTorsions>
[ 6907 6896 6895 6894 ] final   22.52 input  -60.11 | X-H torsion
[ 7974 7965 7964 7962 ] final   77.47 input  175.53 | X-H torsion
[ 8008 7997 7996 7995 ] final  -32.68 input   59.86 | X-H torsion
[ 10167 10162 10161 10158 ] final  100.46 input  -65.29 | X-H torsion
[ 10718 10713 10712 10709 ] final  145.03 input   66.30 | X-H torsion
[ 10763 10752 10751 10750 ] final -126.96 input  -60.55 | X-H torsion
[ 11005 11000 10999 10996 ] final   60.61 input  -57.11 | X-H torsion

> <Gold.Protein.ActiveResidues>
 VAL166  LYS551  ARG553  GLY616  TRP617  ASP618  TYR619  PRO620  LYS621  CYS622 
 ASP623  PHE694  ASN695  SER759  ASP760  ASP761  ALA762  ILE779  LEU786  VAL792 
 PHE793  MET794  SER795  GLU796  ALA797  LYS798  CYS799  TRP800  GLU811  SER814 

> <Gold.Protein.RotatedAtoms>
  151.9285  135.0267  160.0527 H   0  0  0  0  0  0  0  0  0  0  0  0  # atno 6907 bound_to 6896
  152.2139  133.4927  159.5133 H   0  0  0  0  0  0  0  0  0  0  0  0  # atno 6908 bound_to 6896
  150.6983  134.1348  159.4125 H   0  0  0  0  0  0  0  0  0  0  0  0  # atno 6909 bound_to 6896
  145.6896  139.2548  143.1767 H   0  0  0  0  0  0  0  0  0  0  0  0  # atno 7974 bound_to 7965
  154.4172  140.1731  156.1766 H   0  0  0  0  0  0  0  0  0  0  0  0  # atno 8008 bound_to 7997
  155.9716  140.3385  155.6557 H   0  0  0  0  0  0  0  0  0  0  0  0  # atno 8009 bound_to 7997
  155.6617  140.0701  157.2542 H   0  0  0  0  0  0  0  0  0  0  0  0  # atno 8010 bound_to 7997
  139.7525  144.6980  151.0411 H   0  0  0  0  0  0  0  0  0  0  0  0  # atno 10167 bound_to 10162
  157.3502  131.0949  151.1007 H   0  0  0  0  0  0  0  0  0  0  0  0  # atno 10718 bound_to 10713
  154.8749  135.3978  154.3516 H   0  0  0  0  0  0  0  0  0  0  0  0  # atno 10763 bound_to 10752
  153.4301  135.7025  153.6241 H   0  0  0  0  0  0  0  0  0  0  0  0  # atno 10764 bound_to 10752
  153.4867  135.3757  155.2440 H   0  0  0  0  0  0  0  0  0  0  0  0  # atno 10765 bound_to 10752
  140.0219  134.6140  155.9627 H   0  0  0  0  0  0  0  0  0  0  0  0  # atno 11005 bound_to 11000
  146.0893  140.7674  142.9603 LP  0  0  0  0  0  0  0  0  0  0  0  0  # atno 17320 bound_to 7965
  144.7000  140.3612  143.7163 LP  0  0  0  0  0  0  0  0  0  0  0  0  # atno 17321 bound_to 7965
  140.7799  143.4792  151.0041 LP  0  0  0  0  0  0  0  0  0  0  0  0  # atno 17342 bound_to 10162
  139.8480  143.7476  152.3179 LP  0  0  0  0  0  0  0  0  0  0  0  0  # atno 17343 bound_to 10162
  157.2186  130.6471  149.5802 LP  0  0  0  0  0  0  0  0  0  0  0  0  # atno 17370 bound_to 10713
  155.9720  130.4636  150.6190 LP  0  0  0  0  0  0  0  0  0  0  0  0  # atno 17371 bound_to 10713
  141.1779  133.6542  156.4902 LP  0  0  0  0  0  0  0  0  0  0  0  0  # atno 17394 bound_to 11000
  140.4372  134.7048  157.4973 LP  0  0  0  0  0  0  0  0  0  0  0  0  # atno 17395 bound_to 11000

$$$$
