AV-unprocessed.smi:2353|AV-procd|sdf|9383|dock10
  -GOLD-   2272013 13D 1   1.00000     0.00000
 Structure written by MMmdl.
 46 48  0  0  0  0  0  0  0  0  2 V2000
  147.6061  136.1567  162.0746 C   0  0  0  0  0  0  0  0  0  0  0  0
  146.4634  135.2083  161.7746 C   0  0  0  0  0  0  0  0  0  0  0  0
  145.4381  135.0118  162.7195 C   0  0  0  0  0  0  0  0  0  0  0  0
  144.3816  134.1282  162.4357 C   0  0  0  0  0  0  0  0  0  0  0  0
  144.3432  133.4360  161.2076 C   0  0  0  0  0  0  0  0  0  0  0  0
  143.1944  132.4879  160.9185 C   0  0  0  0  0  0  0  0  0  0  0  0
  145.3664  133.6236  160.2495 C   0  0  0  0  0  0  0  0  0  0  0  0
  145.2677  132.9162  159.0688 O   0  0  0  0  0  0  0  0  0  0  0  0
  146.0765  133.3108  157.9684 C   0  0  0  0  0  0  0  0  0  0  0  0
  145.6297  132.5239  156.7239 C   0  0  1  0  0  0  0  0  0  0  0  0
  144.2526  132.7899  156.5424 O   0  0  0  0  0  0  0  0  0  0  0  0
  146.3783  132.9760  155.4498 C   0  0  0  0  0  0  0  0  0  0  0  0
  146.3400  131.9482  154.4018 N   0  0  0  0  0  0  0  0  0  0  0  0
  145.7489  132.3668  153.2222 N   0  0  0  0  0  0  0  0  0  0  0  0
  145.6570  131.5753  152.2037 C   0  0  0  0  0  0  0  0  0  0  0  0
  145.0365  132.0247  150.9669 N   0  0  0  0  0  0  0  0  0  0  0  0
  145.5353  131.8946  149.6940 C   0  0  0  0  0  0  0  0  0  0  0  0
  144.6103  132.4621  148.8562 C   0  0  0  0  0  0  0  0  0  0  0  0
  143.5897  132.9133  149.6506 N   0  3  0  0  0  0  0  0  0  0  0  0
  143.8462  132.6481  150.9367 C   0  0  0  0  0  0  0  0  0  0  0  0
  146.1829  130.2175  152.2969 C   0  0  0  0  0  0  0  0  0  0  0  0
  146.7604  129.8209  153.4515 C   0  0  0  0  0  0  0  0  0  0  0  0
  146.8747  130.7093  154.6061 C   0  0  0  0  0  0  0  0  0  0  0  0
  147.4089  130.3745  155.6623 O   0  0  0  0  0  0  0  0  0  0  0  0
  146.4278  134.5162  160.5472 C   0  0  0  0  0  0  0  0  0  0  0  0
  147.3505  136.8387  162.8861 H   0  0  0  0  0  0  0  0  0  0  0  0
  147.8488  136.7543  161.1955 H   0  0  0  0  0  0  0  0  0  0  0  0
  148.4942  135.5950  162.3649 H   0  0  0  0  0  0  0  0  0  0  0  0
  145.4579  135.5362  163.6638 H   0  0  0  0  0  0  0  0  0  0  0  0
  143.5994  133.9845  163.1666 H   0  0  0  0  0  0  0  0  0  0  0  0
  142.5975  132.8624  160.0868 H   0  0  0  0  0  0  0  0  0  0  0  0
  142.5404  132.3773  161.7837 H   0  0  0  0  0  0  0  0  0  0  0  0
  143.5730  131.5005  160.6533 H   0  0  0  0  0  0  0  0  0  0  0  0
  146.0233  134.3864  157.7902 H   0  0  0  0  0  0  0  0  0  0  0  0
  147.1120  133.0621  158.2067 H   0  0  0  0  0  0  0  0  0  0  0  0
  145.7866  131.4576  156.8939 H   0  0  0  0  0  0  0  0  0  0  0  0
  143.9589  132.3436  155.7626 H   0  0  0  0  0  0  0  0  0  0  0  0
  146.0090  133.9400  155.0940 H   0  0  0  0  0  0  0  0  0  0  0  0
  147.4277  133.1571  155.6897 H   0  0  0  0  0  0  0  0  0  0  0  0
  146.4834  131.4218  149.4802 H   0  0  0  0  0  0  0  0  0  0  0  0
  144.6019  132.5756  147.7819 H   0  0  0  0  0  0  0  0  0  0  0  0
  143.1983  132.9026  151.7546 H   0  0  0  0  0  0  0  0  0  0  0  0
  146.1297  129.5173  151.4799 H   0  0  0  0  0  0  0  0  0  0  0  0
  147.1522  128.8170  153.5264 H   0  0  0  0  0  0  0  0  0  0  0  0
  147.2303  134.6875  159.8458 H   0  0  0  0  0  0  0  0  0  0  0  0
  142.7574  133.3817  149.3145 H   0  0  0  0  0  0  0  0  0  0  0  0
  1  2  1  0  0  0  0
  1 26  1  0  0  0  0
  1 27  1  0  0  0  0
  1 28  1  0  0  0  0
  2 25  1  0  0  0  0
  2  3  2  0  0  0  0
  3  4  1  0  0  0  0
  3 29  1  0  0  0  0
  4  5  2  0  0  0  0
  4 30  1  0  0  0  0
  5  6  1  0  0  0  0
  5  7  1  0  0  0  0
  6 31  1  0  0  0  0
  6 32  1  0  0  0  0
  6 33  1  0  0  0  0
  7  8  1  0  0  0  0
  7 25  2  0  0  0  0
  8  9  1  0  0  0  0
  9 10  1  0  0  0  0
  9 34  1  0  0  0  0
  9 35  1  0  0  0  0
 10 11  1  0  0  0  0
 10 12  1  0  0  0  0
 10 36  1  0  0  0  0
 11 37  1  0  0  0  0
 12 13  1  0  0  0  0
 12 38  1  0  0  0  0
 12 39  1  0  0  0  0
 13 23  1  0  0  0  0
 13 14  1  0  0  0  0
 14 15  2  0  0  0  0
 15 16  1  0  0  0  0
 15 21  1  0  0  0  0
 16 20  1  0  0  0  0
 16 17  1  0  0  0  0
 17 18  2  0  0  0  0
 17 40  1  0  0  0  0
 18 19  1  0  0  0  0
 18 41  1  0  0  0  0
 19 20  2  0  0  0  0
 19 46  1  0  0  0  0
 20 42  1  0  0  0  0
 21 22  2  0  0  0  0
 21 43  1  0  0  0  0
 22 23  1  0  0  0  0
 22 44  1  0  0  0  0
 23 24  2  0  0  0  0
 25 45  1  0  0  0  0
M  CHG  1  19   1
M  END
> <s_m_source_file>
AV-unprocessed.smi

> <i_m_source_file_index>
2353

> <i_lp_mmshare_version>
43012

> <i_f3d_flags>
0

> <s_epik_input>
W0NIM11jMVtjSF1bY0hdYyhbQ0gzXSljKFtjSF0xKU9bQ0gyXVtDQEhdKFtPSF0pW0NIMl1uMm5jKFtjSF1bY0hdYzI9TyktbjNbY0hdW2NIXW5bY0hdMw==

> <s_epik_cmdline>
J2VwaWtfcHl0aG9uJywgJy1waCcsICc3LjAnLCAnLXRuJywgJzgnLCAnLW1hJywgJzIwMCcsICctbWV0YWxfYmluZGluZycsICctaW1hZScsICc8aW5maWxlLm1hZT4nLCAnLW9tYWUnLCAnPG91dGZpbGUubWFlPic=

> <r_lp_tautomer_probability>
1

> <r_epik_Ionization_Penalty>
1.66053

> <r_epik_Ionization_Penalty_Charging>
2.43903e-09

> <r_epik_Ionization_Penalty_Neutral>
1.66053

> <r_epik_State_Penalty>
1.76336

> <r_epik_Charging_Adjusted_Penalty>
1.76336

> <i_epik_Tot_Q>
1

> <i_epik_Tot_abs_Q>
1

> <r_epik_Metal_State_Penalty>
1.79856

> <b_epik_Metal_Only>
0

> <s_lp_Force_Field>
OPLS_2005

> <r_lp_Energy>
39.4345

> <b_lp_Chiralities_Consistent>
1

> <s_lp_Variant>
AV-unprocessed.smi:2353-4

> <Gold.Version>
5.8.1

> <Gold.Id.Protein>
6NUR|6NUR_protein|mol2

> <Gold.PLP.Fitness>
47.0539

> <Gold.PLP.PLP>
-38.6140

> <Gold.PLP.part.hbond>
-2.0000

> <Gold.PLP.part.metal>
0.0000

> <Gold.PLP.part.buried>
-5.6620

> <Gold.PLP.part.nonpolar>
-30.9257

> <Gold.PLP.part.repulsive>
0.2722

> <Gold.PLP.ligand.clash>
0.0000

> <Gold.PLP.ligand.torsion>
1.2884

> <Gold.PLP.Chemscore.Hbond>
2.9760

> <Gold.PLP.Chemscore.CHOScore>
0.6780

> <Gold.PLP.Chemscore.Metal>
0.0000

> <Gold.Chemscore.Hbonds>
donor molecule, donor type, donor heavy atom, donor atom, acceptor molecule, acceptor atom, score
      L1  H    11    37       P1 10957  0.98
      L1  H    19    46       P1 10186  1.92
      L1  C    17    40       P1 10747  0.69

> <Gold.PLP.Chemscore.Internal.Correction>
0.0548

> <Gold.Rescore>
     Score         DG    S(hbond)    S(metal)    S(lipo)     H(rot)  DE(clash)    DE(int)     intcor
     13.98     -16.24       1.98        0.00      93.49       2.65       0.04       2.21       ----

> <Gold.Chemscore.Fitness>
13.9825

> <Gold.Chemscore.DG>
-16.2387

> <Gold.Chemscore.ZeroCoef>
-5.4800

> <Gold.Chemscore.Hbond>
1.9802

> <Gold.Chemscore.Metal>
0.0000

> <Gold.Chemscore.Lipo>
93.4889

> <Gold.Chemscore.Internal_Hbond>
0.0000

> <Gold.Chemscore.DEClash>
0.0431

> <Gold.Chemscore.DEInternal>
2.2132

> <Gold.Chemscore.Rot>
2.6537

> <Gold.Chemscore.Internal.Correction>
   9.000000E+99

> <Gold.Chemscore.Hbonds>
donor molecule, donor type, donor heavy atom, donor atom, acceptor molecule, acceptor atom, score
      L1  H    11    37       P1 10957  0.93
      L1  H    19    46       P1 10186  0.89

> <Gold.Chemscore.Hbond.Weighted>
-6.6140

> <Gold.Chemscore.Metal.Weighted>
-0.0000

> <Gold.Chemscore.Lipo.Weighted>
-10.9382

> <Gold.Chemscore.Internal_Hbond.Weighted>
0.0000

> <Gold.Chemscore.DEClash.Weighted>
0.0431

> <Gold.Chemscore.DEInternal.Weighted>
2.2132

> <Gold.Chemscore.Rot.Weighted>
6.7935

> <Gold.Chemscore.Internal.Correction.Weighted>
   9.000000E+99

> <Gold.Protein.RotatedTorsions>
[ 6907 6896 6895 6894 ] final  115.76 input  -60.11 | X-H torsion
[ 7974 7965 7964 7962 ] final -128.69 input  175.53 | X-H torsion
[ 8008 7997 7996 7995 ] final  167.63 input   59.86 | X-H torsion
[ 10167 10162 10161 10158 ] final -160.32 input  -65.29 | X-H torsion
[ 10718 10713 10712 10709 ] final  -49.07 input   66.30 | X-H torsion
[ 10763 10752 10751 10750 ] final  179.88 input  -60.55 | X-H torsion
[ 11005 11000 10999 10996 ] final  -11.50 input  -57.11 | X-H torsion

> <Gold.Protein.ActiveResidues>
 VAL166  LYS551  ARG553  GLY616  TRP617  ASP618  TYR619  PRO620  LYS621  CYS622 
 ASP623  PHE694  ASN695  SER759  ASP760  ASP761  ALA762  ILE779  LEU786  VAL792 
 PHE793  MET794  SER795  GLU796  ALA797  LYS798  CYS799  TRP800  GLU811  SER814 

> <Gold.Protein.RotatedAtoms>
  152.4721  133.8054  159.6974 H   0  0  0  0  0  0  0  0  0  0  0  0  # atno 6907 bound_to 6896
  150.8716  133.7487  159.2966 H   0  0  0  0  0  0  0  0  0  0  0  0  # atno 6908 bound_to 6896
  151.5020  135.1065  159.9883 H   0  0  0  0  0  0  0  0  0  0  0  0  # atno 6909 bound_to 6896
  144.9645  140.7482  143.4708 H   0  0  0  0  0  0  0  0  0  0  0  0  # atno 7974 bound_to 7965
  156.1617  140.1612  156.8601 H   0  0  0  0  0  0  0  0  0  0  0  0  # atno 8008 bound_to 7997
  154.5167  140.0788  156.8130 H   0  0  0  0  0  0  0  0  0  0  0  0  # atno 8009 bound_to 7997
  155.3694  140.3399  155.4245 H   0  0  0  0  0  0  0  0  0  0  0  0  # atno 8010 bound_to 7997
  139.6548  144.0018  152.2186 H   0  0  0  0  0  0  0  0  0  0  0  0  # atno 10167 bound_to 10162
  156.1928  130.4153  149.9348 H   0  0  0  0  0  0  0  0  0  0  0  0  # atno 10718 bound_to 10713
  154.5264  135.2797  155.1218 H   0  0  0  0  0  0  0  0  0  0  0  0  # atno 10763 bound_to 10752
  154.2756  135.6295  153.5330 H   0  0  0  0  0  0  0  0  0  0  0  0  # atno 10764 bound_to 10752
  152.9947  135.5639  154.5766 H   0  0  0  0  0  0  0  0  0  0  0  0  # atno 10765 bound_to 10752
  140.7560  133.8554  155.9084 H   0  0  0  0  0  0  0  0  0  0  0  0  # atno 11005 bound_to 11000
  145.2650  139.1977  143.4872 LP  0  0  0  0  0  0  0  0  0  0  0  0  # atno 17320 bound_to 7965
  146.3363  140.2586  142.8601 LP  0  0  0  0  0  0  0  0  0  0  0  0  # atno 17321 bound_to 7965
  139.9741  144.6473  150.7961 LP  0  0  0  0  0  0  0  0  0  0  0  0  # atno 17342 bound_to 10162
  140.7554  143.3046  151.2994 LP  0  0  0  0  0  0  0  0  0  0  0  0  # atno 17343 bound_to 10162
  156.7083  130.8960  151.3607 LP  0  0  0  0  0  0  0  0  0  0  0  0  # atno 17370 bound_to 10713
  157.6939  130.9262  150.0590 LP  0  0  0  0  0  0  0  0  0  0  0  0  # atno 17371 bound_to 10713
  140.9707  134.1534  157.4578 LP  0  0  0  0  0  0  0  0  0  0  0  0  # atno 17394 bound_to 11000
  139.8779  134.9977  156.5864 LP  0  0  0  0  0  0  0  0  0  0  0  0  # atno 17395 bound_to 11000

$$$$
