AV-unprocessed.smi:37|AV-procd|sdf|332|dock5
  -GOLD-   2262016163D 1   1.00000     0.00000
 Structure written by MMmdl.
 43 44  0  0  0  0  0  0  0  0  2 V2000
  149.6678  141.9000  154.9870 C   0  0  0  0  0  0  0  0  0  0  0  0
  148.1568  142.0932  155.1827 C   0  0  0  0  0  0  0  0  0  0  0  0
  147.6436  141.5884  156.5329 C   0  0  0  0  0  0  0  0  0  0  0  0
  147.0311  142.3115  157.3208 O   0  0  0  0  0  0  0  0  0  0  0  0
  147.9429  140.2967  156.7286 O   0  0  0  0  0  0  0  0  0  0  0  0
  147.9499  139.7629  158.0428 C   0  0  0  0  0  0  0  0  0  0  0  0
  148.2030  138.2523  157.9679 C   0  0  1  0  0  0  0  0  0  0  0  0
  149.3184  137.9583  157.1263 O   0  0  0  0  0  0  0  0  0  0  0  0
  150.0896  136.9239  157.6730 C   0  0  1  0  0  0  0  0  0  0  0  0
  151.4386  137.4663  158.1037 N   0  0  0  0  0  0  0  0  0  0  0  0
  151.5471  138.6042  158.8869 C   0  0  0  0  0  0  0  0  0  0  0  0
  152.7502  139.0805  159.2674 C   0  0  0  0  0  0  0  0  0  0  0  0
  152.8219  140.1867  160.0277 F   0  0  0  0  0  0  0  0  0  0  0  0
  153.9679  138.3893  158.8486 C   0  0  0  0  0  0  0  0  0  0  0  0
  155.0626  138.8303  159.1955 O   0  0  0  0  0  0  0  0  0  0  0  0
  153.8326  137.2695  158.0809 N   0  5  0  0  0  0  0  0  0  0  0  0
  152.6171  136.7818  157.6960 C   0  0  0  0  0  0  0  0  0  0  0  0
  152.4862  135.7664  157.0122 O   0  0  0  0  0  0  0  0  0  0  0  0
  149.3257  136.3846  158.8866 C   0  0  2  0  0  0  0  0  0  0  0  0
  148.1092  134.9182  158.2906 Br  0  0  0  0  0  0  0  0  0  0  0  0
  148.5340  137.6091  159.3140 C   0  0  2  0  0  0  0  0  0  0  0  0
  147.3598  137.2780  160.0430 O   0  0  0  0  0  0  0  0  0  0  0  0
  147.4537  136.7147  161.2594 C   0  0  0  0  0  0  0  0  0  0  0  0
  148.4772  136.6231  161.9371 O   0  0  0  0  0  0  0  0  0  0  0  0
  146.1165  136.1746  161.7601 C   0  0  0  0  0  0  0  0  0  0  0  0
  146.2284  134.7293  162.2634 C   0  0  0  0  0  0  0  0  0  0  0  0
  149.9796  142.2812  154.0145 H   0  0  0  0  0  0  0  0  0  0  0  0
  149.9435  140.8458  155.0317 H   0  0  0  0  0  0  0  0  0  0  0  0
  150.2394  142.4328  155.7478 H   0  0  0  0  0  0  0  0  0  0  0  0
  147.9084  143.1510  155.0923 H   0  0  0  0  0  0  0  0  0  0  0  0
  147.6152  141.5743  154.3912 H   0  0  0  0  0  0  0  0  0  0  0  0
  148.7406  140.2461  158.6181 H   0  0  0  0  0  0  0  0  0  0  0  0
  147.0040  139.9681  158.5455 H   0  0  0  0  0  0  0  0  0  0  0  0
  147.3395  137.7554  157.5221 H   0  0  0  0  0  0  0  0  0  0  0  0
  150.3095  136.1746  156.9108 H   0  0  0  0  0  0  0  0  0  0  0  0
  150.6639  139.1323  159.2088 H   0  0  0  0  0  0  0  0  0  0  0  0
  149.9841  135.9899  159.6611 H   0  0  0  0  0  0  0  0  0  0  0  0
  149.1780  138.2858  159.8784 H   0  0  0  0  0  0  0  0  0  0  0  0
  145.7534  136.8193  162.5609 H   0  0  0  0  0  0  0  0  0  0  0  0
  145.3881  136.2340  160.9512 H   0  0  0  0  0  0  0  0  0  0  0  0
  145.2704  134.3830  162.6511 H   0  0  0  0  0  0  0  0  0  0  0  0
  146.9607  134.6441  163.0669 H   0  0  0  0  0  0  0  0  0  0  0  0
  146.5251  134.0492  161.4642 H   0  0  0  0  0  0  0  0  0  0  0  0
  1  2  1  0  0  0  0
  1 27  1  0  0  0  0
  1 28  1  0  0  0  0
  1 29  1  0  0  0  0
  2  3  1  0  0  0  0
  2 30  1  0  0  0  0
  2 31  1  0  0  0  0
  3  4  2  0  0  0  0
  3  5  1  0  0  0  0
  5  6  1  0  0  0  0
  6  7  1  0  0  0  0
  6 32  1  0  0  0  0
  6 33  1  0  0  0  0
  7 21  1  0  0  0  0
  7  8  1  0  0  0  0
  7 34  1  0  0  0  0
  8  9  1  0  0  0  0
  9 10  1  0  0  0  0
  9 19  1  0  0  0  0
  9 35  1  0  0  0  0
 10 17  1  0  0  0  0
 10 11  1  0  0  0  0
 11 12  2  0  0  0  0
 11 36  1  0  0  0  0
 12 13  1  0  0  0  0
 12 14  1  0  0  0  0
 14 15  2  0  0  0  0
 14 16  1  0  0  0  0
 16 17  1  0  0  0  0
 17 18  2  0  0  0  0
 19 20  1  0  0  0  0
 19 21  1  0  0  0  0
 19 37  1  0  0  0  0
 21 22  1  0  0  0  0
 21 38  1  0  0  0  0
 22 23  1  0  0  0  0
 23 24  2  0  0  0  0
 23 25  1  0  0  0  0
 25 26  1  0  0  0  0
 25 39  1  0  0  0  0
 25 40  1  0  0  0  0
 26 41  1  0  0  0  0
 26 42  1  0  0  0  0
 26 43  1  0  0  0  0
M  CHG  1  16  -1
M  END
> <s_m_source_file>
AV-unprocessed.smi

> <i_m_source_file_index>
37

> <i_lp_mmshare_version>
43012

> <i_f3d_flags>
0

> <s_epik_input>
W0NIM11bQ0gyXUMoPU8pT1tDSDJdW0NAQEhdMU9bQ0BASF0objJbY0hdYyhGKWMoPU8pW25IXWMyPU8pW0NAQEhdKEJyKVtDQEhdMU9DKD1PKVtDSDJdW0NIM10=

> <s_epik_cmdline>
J2VwaWtfcHl0aG9uJywgJy1waCcsICc3LjAnLCAnLXRuJywgJzgnLCAnLW1hJywgJzIwMCcsICctbWV0YWxfYmluZGluZycsICctaW1hZScsICc8aW5maWxlLm1hZT4nLCAnLW9tYWUnLCAnPG91dGZpbGUubWFlPic=

> <r_epik_Ionization_Penalty>
1.08158

> <r_epik_Ionization_Penalty_Charging>
9.05154e-09

> <r_epik_Ionization_Penalty_Neutral>
1.08158

> <r_epik_State_Penalty>
1.13706

> <r_epik_Charging_Adjusted_Penalty>
1.13706

> <i_epik_Tot_Q>
-1

> <i_epik_Tot_abs_Q>
1

> <r_epik_Metal_State_Penalty>
0.00343535

> <b_epik_Metal_Only>
0

> <s_epik_Chemistry_Notes>
This compound has an ester and may undergo hydrolysis at high or low pH. This compound contains an acetal/aminal-like group ( X-CH(R)-Y where X, Y are N, S, or O) that may be acid/base labile, releasing an aldehyde.

> <s_lp_Force_Field>
OPLS_2005

> <r_lp_Energy>
34.595

> <b_lp_Chiralities_Consistent>
1

> <s_lp_Variant>
AV-unprocessed.smi:37-30

> <Gold.Version>
5.8.1

> <Gold.Id.Protein>
6NUR|6NUR_protein|mol2

> <Gold.PLP.Fitness>
36.4241

> <Gold.PLP.PLP>
-28.8237

> <Gold.PLP.part.hbond>
-3.9565

> <Gold.PLP.part.metal>
0.0000

> <Gold.PLP.part.buried>
-0.7402

> <Gold.PLP.part.nonpolar>
-22.9704

> <Gold.PLP.part.repulsive>
0.0911

> <Gold.PLP.ligand.clash>
0.0000

> <Gold.PLP.ligand.torsion>
0.7733

> <Gold.PLP.Chemscore.Hbond>
2.9913

> <Gold.PLP.Chemscore.CHOScore>
0.0000

> <Gold.PLP.Chemscore.Metal>
0.0000

> <Gold.Chemscore.Hbonds>
donor molecule, donor type, donor heavy atom, donor atom, acceptor molecule, acceptor atom, score
      P1  H  6931  6943       L1    24  1.00
      P1  H  7997  8008       L1    15  0.41
      P1  H 10752 10765       L1    18  1.00

> <Gold.PLP.Chemscore.Internal.Correction>
0.1733

> <Gold.Rescore>
     Score         DG    S(hbond)    S(metal)    S(lipo)     H(rot)  DE(clash)    DE(int)     intcor
     11.74     -12.48       2.88        0.00      49.19       3.27       0.04       0.70       ----

> <Gold.Chemscore.Fitness>
11.7361

> <Gold.Chemscore.DG>
-12.4763

> <Gold.Chemscore.ZeroCoef>
-5.4800

> <Gold.Chemscore.Hbond>
2.8756

> <Gold.Chemscore.Metal>
0.0000

> <Gold.Chemscore.Lipo>
49.1900

> <Gold.Chemscore.Internal_Hbond>
0.0000

> <Gold.Chemscore.DEClash>
0.0437

> <Gold.Chemscore.DEInternal>
0.6965

> <Gold.Chemscore.Rot>
3.2669

> <Gold.Chemscore.Internal.Correction>
   9.000000E+99

> <Gold.Chemscore.Hbonds>
donor molecule, donor type, donor heavy atom, donor atom, acceptor molecule, acceptor atom, score
      P1  H  6931  6943       L1    24  0.35
      P1  H  7997  8008       L1    15  0.04
      P1  H 10752 10765       L1    18  0.96

> <Gold.Chemscore.Hbond.Weighted>
-9.6044

> <Gold.Chemscore.Metal.Weighted>
-0.0000

> <Gold.Chemscore.Lipo.Weighted>
-5.7552

> <Gold.Chemscore.Internal_Hbond.Weighted>
0.0000

> <Gold.Chemscore.DEClash.Weighted>
0.0437

> <Gold.Chemscore.DEInternal.Weighted>
0.6965

> <Gold.Chemscore.Rot.Weighted>
8.3634

> <Gold.Chemscore.Internal.Correction.Weighted>
   9.000000E+99

> <Gold.Protein.RotatedTorsions>
[ 6907 6896 6895 6894 ] final -142.88 input  -60.11 | X-H torsion
[ 7974 7965 7964 7962 ] final  152.93 input  175.53 | X-H torsion
[ 8008 7997 7996 7995 ] final -133.48 input   59.86 | X-H torsion
[ 10167 10162 10161 10158 ] final -149.30 input  -65.29 | X-H torsion
[ 10718 10713 10712 10709 ] final -176.87 input   66.30 | X-H torsion
[ 10763 10752 10751 10750 ] final -127.81 input  -60.55 | X-H torsion
[ 11005 11000 10999 10996 ] final  -89.27 input  -57.11 | X-H torsion

> <Gold.Protein.ActiveResidues>
 VAL166  LYS551  ARG553  GLY616  TRP617  ASP618  TYR619  PRO620  LYS621  CYS622 
 ASP623  PHE694  ASN695  SER759  ASP760  ASP761  ALA762  ILE779  LEU786  VAL792 
 PHE793  MET794  SER795  GLU796  ALA797  LYS798  CYS799  TRP800  GLU811  SER814 

> <Gold.Protein.RotatedAtoms>
  151.0930  133.5301  159.2613 H   0  0  0  0  0  0  0  0  0  0  0  0  # atno 6907 bound_to 6896
  151.2161  135.0500  159.8941 H   0  0  0  0  0  0  0  0  0  0  0  0  # atno 6908 bound_to 6896
  152.5436  134.0739  159.8259 H   0  0  0  0  0  0  0  0  0  0  0  0  # atno 6909 bound_to 6896
  144.8188  139.6734  143.6109 H   0  0  0  0  0  0  0  0  0  0  0  0  # atno 7974 bound_to 7965
  155.3463  140.0475  157.3045 H   0  0  0  0  0  0  0  0  0  0  0  0  # atno 8008 bound_to 7997
  154.5251  140.2238  155.8870 H   0  0  0  0  0  0  0  0  0  0  0  0  # atno 8009 bound_to 7997
  156.1730  140.3091  155.9015 H   0  0  0  0  0  0  0  0  0  0  0  0  # atno 8010 bound_to 7997
  139.7455  143.8598  152.2573 H   0  0  0  0  0  0  0  0  0  0  0  0  # atno 10167 bound_to 10162
  156.8210  130.9620  151.3111 H   0  0  0  0  0  0  0  0  0  0  0  0  # atno 10718 bound_to 10713
  154.8754  135.3949  154.3654 H   0  0  0  0  0  0  0  0  0  0  0  0  # atno 10763 bound_to 10752
  153.4421  135.7027  153.6168 H   0  0  0  0  0  0  0  0  0  0  0  0  # atno 10764 bound_to 10752
  153.4744  135.3783  155.2377 H   0  0  0  0  0  0  0  0  0  0  0  0  # atno 10765 bound_to 10752
  141.1587  133.7620  156.9570 H   0  0  0  0  0  0  0  0  0  0  0  0  # atno 11005 bound_to 11000
  146.2493  139.6165  142.9438 LP  0  0  0  0  0  0  0  0  0  0  0  0  # atno 17320 bound_to 7965
  145.5152  141.0434  143.2466 LP  0  0  0  0  0  0  0  0  0  0  0  0  # atno 17321 bound_to 7965
  139.8561  144.7140  150.9156 LP  0  0  0  0  0  0  0  0  0  0  0  0  # atno 17342 bound_to 10162
  140.7791  143.3858  151.1397 LP  0  0  0  0  0  0  0  0  0  0  0  0  # atno 17343 bound_to 10162
  157.6457  130.8842  149.9533 LP  0  0  0  0  0  0  0  0  0  0  0  0  # atno 17370 bound_to 10713
  156.0989  130.3657  150.0255 LP  0  0  0  0  0  0  0  0  0  0  0  0  # atno 17371 bound_to 10713
  140.1218  134.9412  157.2214 LP  0  0  0  0  0  0  0  0  0  0  0  0  # atno 17394 bound_to 11000
  140.3062  134.3075  155.7277 LP  0  0  0  0  0  0  0  0  0  0  0  0  # atno 17395 bound_to 11000

$$$$
