AV-unprocessed.smi:2228|AV-procd|sdf|9026|dock4
  -GOLD-   2272012233D 1   1.00000     0.00000
 Structure written by MMmdl.
 40 41  0  0  0  0  0  0  0  0  1 V2000
  146.0948  141.2134  154.7343 C   0  0  0  0  0  0  0  0  0  0  0  0
  146.5202  139.8599  154.6969 O   0  0  0  0  0  0  0  0  0  0  0  0
  147.8082  139.6515  155.2599 C   0  0  1  0  0  0  0  0  0  0  0  0
  148.1359  138.1560  155.2520 C   0  0  0  0  0  0  0  0  0  0  0  0
  149.6585  138.1041  155.1947 C   0  0  0  0  0  0  0  0  0  0  0  0
  150.0305  139.2541  154.2586 C   0  0  0  0  0  0  0  0  0  0  0  0
  148.9396  140.3254  154.4501 C   0  0  2  0  0  0  0  0  0  0  0  0
  149.4667  141.4804  155.1726 N   0  0  0  0  0  0  0  0  0  0  0  0
  150.1275  141.4297  156.3377 C   0  0  0  0  0  0  0  0  0  0  0  0
  150.3434  140.3847  156.9522 O   0  0  0  0  0  0  0  0  0  0  0  0
  150.5154  142.6567  156.7276 N   0  0  0  0  0  0  0  0  0  0  0  0
  151.2628  143.0161  157.8803 C   0  0  0  0  0  0  0  0  0  0  0  0
  152.0316  141.9733  158.4442 C   0  0  0  0  0  0  0  0  0  0  0  0
  152.8074  142.2256  159.5935 C   0  0  0  0  0  0  0  0  0  0  0  0
  153.6379  141.1218  160.2142 C   0  0  0  0  0  0  0  0  0  0  0  0
  152.7942  143.5197  160.1476 C   0  0  0  0  0  0  0  0  0  0  0  0
  152.0016  144.5025  159.5228 C   0  0  0  0  0  0  0  0  0  0  0  0
  151.9437  145.9160  160.0626 C   0  0  0  0  0  0  0  0  0  0  0  0
  151.2582  144.2592  158.4224 N   0  0  0  0  0  0  0  0  0  0  0  0
  145.0898  141.2902  154.3198 H   0  0  0  0  0  0  0  0  0  0  0  0
  146.7469  141.8583  154.1443 H   0  0  0  0  0  0  0  0  0  0  0  0
  146.0654  141.5903  155.7573 H   0  0  0  0  0  0  0  0  0  0  0  0
  147.8218  139.9891  156.2987 H   0  0  0  0  0  0  0  0  0  0  0  0
  147.7264  137.6313  156.1158 H   0  0  0  0  0  0  0  0  0  0  0  0
  147.7267  137.6888  154.3548 H   0  0  0  0  0  0  0  0  0  0  0  0
  150.0707  138.2869  156.1879 H   0  0  0  0  0  0  0  0  0  0  0  0
  150.0343  137.1413  154.8479 H   0  0  0  0  0  0  0  0  0  0  0  0
  151.0403  139.6233  154.4441 H   0  0  0  0  0  0  0  0  0  0  0  0
  150.0055  138.8994  153.2273 H   0  0  0  0  0  0  0  0  0  0  0  0
  148.5640  140.6237  153.4693 H   0  0  0  0  0  0  0  0  0  0  0  0
  149.3307  142.3832  154.7419 H   0  0  0  0  0  0  0  0  0  0  0  0
  150.2614  143.4212  156.1199 H   0  0  0  0  0  0  0  0  0  0  0  0
  152.0272  140.9871  158.0025 H   0  0  0  0  0  0  0  0  0  0  0  0
  154.1228  141.4578  161.1312 H   0  0  0  0  0  0  0  0  0  0  0  0
  154.4116  140.7955  159.5191 H   0  0  0  0  0  0  0  0  0  0  0  0
  153.0090  140.2647  160.4560 H   0  0  0  0  0  0  0  0  0  0  0  0
  153.3763  143.7533  161.0272 H   0  0  0  0  0  0  0  0  0  0  0  0
  152.4725  145.9981  161.0125 H   0  0  0  0  0  0  0  0  0  0  0  0
  150.9092  146.2214  160.2232 H   0  0  0  0  0  0  0  0  0  0  0  0
  152.4013  146.6088  159.3559 H   0  0  0  0  0  0  0  0  0  0  0  0
  1  2  1  0  0  0  0
  1 20  1  0  0  0  0
  1 21  1  0  0  0  0
  1 22  1  0  0  0  0
  2  3  1  0  0  0  0
  3  7  1  0  0  0  0
  3  4  1  0  0  0  0
  3 23  1  0  0  0  0
  4  5  1  0  0  0  0
  4 24  1  0  0  0  0
  4 25  1  0  0  0  0
  5  6  1  0  0  0  0
  5 26  1  0  0  0  0
  5 27  1  0  0  0  0
  6  7  1  0  0  0  0
  6 28  1  0  0  0  0
  6 29  1  0  0  0  0
  7  8  1  0  0  0  0
  7 30  1  0  0  0  0
  8  9  1  0  0  0  0
  8 31  1  0  0  0  0
  9 10  2  0  0  0  0
  9 11  1  0  0  0  0
 11 12  1  0  0  0  0
 11 32  1  0  0  0  0
 12 19  1  0  0  0  0
 12 13  2  0  0  0  0
 13 14  1  0  0  0  0
 13 33  1  0  0  0  0
 14 15  1  0  0  0  0
 14 16  2  0  0  0  0
 15 34  1  0  0  0  0
 15 35  1  0  0  0  0
 15 36  1  0  0  0  0
 16 17  1  0  0  0  0
 16 37  1  0  0  0  0
 17 18  1  0  0  0  0
 17 19  2  0  0  0  0
 18 38  1  0  0  0  0
 18 39  1  0  0  0  0
 18 40  1  0  0  0  0
M  END
> <s_m_source_file>
AV-unprocessed.smi

> <i_m_source_file_index>
2228

> <i_lp_mmshare_version>
43012

> <i_f3d_flags>
0

> <s_epik_input>
W0NIM11PW0NAQEhdMVtDSDJdW0NIMl1bQ0gyXVtDQEhdMVtOSF1DKD1PKVtOSF1jMltjSF1jKFtDSDNdKVtjSF1jKG4yKVtDSDNd

> <s_epik_cmdline>
J2VwaWtfcHl0aG9uJywgJy1waCcsICc3LjAnLCAnLXRuJywgJzgnLCAnLW1hJywgJzIwMCcsICctbWV0YWxfYmluZGluZycsICctaW1hZScsICc8aW5maWxlLm1hZT4nLCAnLW9tYWUnLCAnPG91dGZpbGUubWFlPic=

> <r_lp_tautomer_probability>
1

> <r_epik_Ionization_Penalty>
0.000275391

> <r_epik_Ionization_Penalty_Charging>
0

> <r_epik_Ionization_Penalty_Neutral>
0.000275391

> <r_epik_State_Penalty>
-0

> <r_epik_Charging_Adjusted_Penalty>
0

> <i_epik_Tot_Q>
0

> <i_epik_Tot_abs_Q>
0

> <r_epik_Metal_State_Penalty>
-0

> <b_epik_Metal_Only>
0

> <s_lp_Force_Field>
OPLS_2005

> <r_lp_Energy>
19.8708

> <b_lp_Chiralities_Consistent>
1

> <s_lp_Variant>
AV-unprocessed.smi:2228-4

> <Gold.Version>
5.8.1

> <Gold.Id.Protein>
6NUR|6NUR_protein|mol2

> <Gold.PLP.Fitness>
39.5487

> <Gold.PLP.PLP>
-36.9899

> <Gold.PLP.part.hbond>
-1.0145

> <Gold.PLP.part.metal>
0.0000

> <Gold.PLP.part.buried>
-5.0353

> <Gold.PLP.part.nonpolar>
-31.4662

> <Gold.PLP.part.repulsive>
0.4409

> <Gold.PLP.ligand.clash>
0.0000

> <Gold.PLP.ligand.torsion>
0.1636

> <Gold.PLP.Chemscore.Hbond>
0.9600

> <Gold.PLP.Chemscore.CHOScore>
0.0000

> <Gold.PLP.Chemscore.Metal>
0.0000

> <Gold.Chemscore.Hbonds>
donor molecule, donor type, donor heavy atom, donor atom, acceptor molecule, acceptor atom, score
      L1  H    11    32       P1  8028  0.93

> <Gold.PLP.Chemscore.Internal.Correction>
0.0059

> <Gold.Rescore>
     Score         DG    S(hbond)    S(metal)    S(lipo)     H(rot)  DE(clash)    DE(int)     intcor
     14.86     -19.66       1.89        0.00      93.87       1.21       0.64       4.16       ----

> <Gold.Chemscore.Fitness>
14.8571

> <Gold.Chemscore.DG>
-19.6580

> <Gold.Chemscore.ZeroCoef>
-5.4800

> <Gold.Chemscore.Hbond>
1.8854

> <Gold.Chemscore.Metal>
0.0000

> <Gold.Chemscore.Lipo>
93.8736

> <Gold.Chemscore.Internal_Hbond>
0.0000

> <Gold.Chemscore.DEClash>
0.6367

> <Gold.Chemscore.DEInternal>
4.1642

> <Gold.Chemscore.Rot>
1.2119

> <Gold.Chemscore.Internal.Correction>
   9.000000E+99

> <Gold.Chemscore.Hbonds>
donor molecule, donor type, donor heavy atom, donor atom, acceptor molecule, acceptor atom, score
      L1  H    11    32       P1  8028  0.89

> <Gold.Chemscore.Hbond.Weighted>
-6.2973

> <Gold.Chemscore.Metal.Weighted>
-0.0000

> <Gold.Chemscore.Lipo.Weighted>
-10.9832

> <Gold.Chemscore.Internal_Hbond.Weighted>
0.0000

> <Gold.Chemscore.DEClash.Weighted>
0.6367

> <Gold.Chemscore.DEInternal.Weighted>
4.1642

> <Gold.Chemscore.Rot.Weighted>
3.1026

> <Gold.Chemscore.Internal.Correction.Weighted>
   9.000000E+99

> <Gold.Protein.RotatedTorsions>
[ 6907 6896 6895 6894 ] final  -17.99 input  -60.11 | X-H torsion
[ 7974 7965 7964 7962 ] final   28.79 input  175.53 | X-H torsion
[ 8008 7997 7996 7995 ] final   72.57 input   59.86 | X-H torsion
[ 10167 10162 10161 10158 ] final  -61.72 input  -65.29 | X-H torsion
[ 10718 10713 10712 10709 ] final   47.69 input   66.30 | X-H torsion
[ 10763 10752 10751 10750 ] final  -16.00 input  -60.55 | X-H torsion
[ 11005 11000 10999 10996 ] final  143.08 input  -57.11 | X-H torsion

> <Gold.Protein.ActiveResidues>
 VAL166  LYS551  ARG553  GLY616  TRP617  ASP618  TYR619  PRO620  LYS621  CYS622 
 ASP623  PHE694  ASN695  SER759  ASP760  ASP761  ALA762  ILE779  LEU786  VAL792 
 PHE793  MET794  SER795  GLU796  ALA797  LYS798  CYS799  TRP800  GLU811  SER814 

> <Gold.Protein.RotatedAtoms>
  151.2850  135.0725  159.9183 H   0  0  0  0  0  0  0  0  0  0  0  0  # atno 6907 bound_to 6896
  152.5327  133.9991  159.7896 H   0  0  0  0  0  0  0  0  0  0  0  0  # atno 6908 bound_to 6896
  151.0251  133.5790  159.2697 H   0  0  0  0  0  0  0  0  0  0  0  0  # atno 6909 bound_to 6896
  146.1708  139.7008  142.8968 H   0  0  0  0  0  0  0  0  0  0  0  0  # atno 7974 bound_to 7965
  155.7708  140.3484  155.5246 H   0  0  0  0  0  0  0  0  0  0  0  0  # atno 8008 bound_to 7997
  155.8824  140.1004  157.1497 H   0  0  0  0  0  0  0  0  0  0  0  0  # atno 8009 bound_to 7997
  154.4026  140.1320  156.4200 H   0  0  0  0  0  0  0  0  0  0  0  0  # atno 8010 bound_to 7997
  140.5987  143.2356  151.5977 H   0  0  0  0  0  0  0  0  0  0  0  0  # atno 10167 bound_to 10162
  157.4611  130.8197  149.7887 H   0  0  0  0  0  0  0  0  0  0  0  0  # atno 10718 bound_to 10713
  153.5519  135.7011  153.5587 H   0  0  0  0  0  0  0  0  0  0  0  0  # atno 10763 bound_to 10752
  153.3507  135.3996  155.1644 H   0  0  0  0  0  0  0  0  0  0  0  0  # atno 10764 bound_to 10752
  154.8660  135.3765  154.5031 H   0  0  0  0  0  0  0  0  0  0  0  0  # atno 10765 bound_to 10752
  140.0526  134.9248  157.1043 H   0  0  0  0  0  0  0  0  0  0  0  0  # atno 11005 bound_to 11000
  145.4344  141.0417  143.2892 LP  0  0  0  0  0  0  0  0  0  0  0  0  # atno 17320 bound_to 7965
  144.8161  139.5875  143.7008 LP  0  0  0  0  0  0  0  0  0  0  0  0  # atno 17321 bound_to 7965
  139.5276  144.3012  152.1072 LP  0  0  0  0  0  0  0  0  0  0  0  0  # atno 17342 bound_to 10162
  140.2189  144.4486  150.6351 LP  0  0  0  0  0  0  0  0  0  0  0  0  # atno 17343 bound_to 10162
  156.0029  130.3870  150.2538 LP  0  0  0  0  0  0  0  0  0  0  0  0  # atno 17370 bound_to 10713
  157.0715  131.0118  151.3188 LP  0  0  0  0  0  0  0  0  0  0  0  0  # atno 17371 bound_to 10713
  140.3894  134.2201  155.7167 LP  0  0  0  0  0  0  0  0  0  0  0  0  # atno 17394 bound_to 11000
  141.1937  133.8144  157.0787 LP  0  0  0  0  0  0  0  0  0  0  0  0  # atno 17395 bound_to 11000

$$$$
