AV-unprocessed.smi:1553|AV-procd|sdf|6238|dock8
  -GOLD-   22720 6423D 1   1.00000     0.00000
 Structure written by MMmdl.
 37 38  0  0  0  0  0  0  0  0  1 V2000
  152.0888  145.1683  160.1561 C   0  0  0  0  0  0  0  0  0  0  0  0
  152.6087  143.8153  160.5010 C   0  0  0  0  0  0  0  0  0  0  0  0
  152.8926  142.8790  159.5923 N   0  0  0  0  0  0  0  0  0  0  0  0
  153.3483  141.6902  160.1699 C   0  0  0  0  0  0  0  0  0  0  0  0
  153.6530  140.5030  159.3019 C   0  0  0  0  0  0  0  0  0  0  0  0
  153.3637  139.1507  159.9850 C   0  0  0  0  0  0  0  0  0  0  0  0
  154.3293  138.8562  161.0425 N   0  0  0  0  0  0  0  0  0  0  0  0
  154.1501  137.9829  162.0512 C   0  0  0  0  0  0  0  0  0  0  0  0
  153.1607  137.2529  162.0974 O   0  0  0  0  0  0  0  0  0  0  0  0
  155.0836  138.0738  163.0387 N   0  0  0  0  0  0  0  0  0  0  0  0
  156.0989  139.1382  163.1208 C   0  0  0  0  0  0  0  0  0  0  0  0
  155.7525  140.0367  164.3188 C   0  0  0  0  0  0  0  0  0  0  0  0
  155.7623  139.2505  165.5065 O   0  0  0  0  0  0  0  0  0  0  0  0
  154.8571  138.1498  165.4614 C   0  0  0  0  0  0  0  0  0  0  0  0
  155.1801  137.2362  164.2580 C   0  0  1  0  0  0  0  0  0  0  0  0
  154.3193  135.9569  164.3136 C   0  0  0  0  0  0  0  0  0  0  0  0
  153.4296  141.7501  161.5393 C   0  0  0  0  0  0  0  0  0  0  0  0
  152.9055  143.2926  162.1541 S   0  0  0  0  0  0  0  0  0  0  0  0
  151.8190  145.2187  159.1008 H   0  0  0  0  0  0  0  0  0  0  0  0
  152.8490  145.9222  160.3605 H   0  0  0  0  0  0  0  0  0  0  0  0
  151.2041  145.3903  160.7530 H   0  0  0  0  0  0  0  0  0  0  0  0
  153.0837  140.5638  158.3739 H   0  0  0  0  0  0  0  0  0  0  0  0
  154.7017  140.5297  159.0040 H   0  0  0  0  0  0  0  0  0  0  0  0
  152.3464  139.1444  160.3798 H   0  0  0  0  0  0  0  0  0  0  0  0
  153.4051  138.3500  159.2468 H   0  0  0  0  0  0  0  0  0  0  0  0
  155.1571  139.4333  161.0687 H   0  0  0  0  0  0  0  0  0  0  0  0
  157.0852  138.6942  163.2633 H   0  0  0  0  0  0  0  0  0  0  0  0
  156.1915  139.7367  162.2142 H   0  0  0  0  0  0  0  0  0  0  0  0
  156.4863  140.8364  164.4186 H   0  0  0  0  0  0  0  0  0  0  0  0
  154.7769  140.5077  164.1869 H   0  0  0  0  0  0  0  0  0  0  0  0
  154.9472  137.5958  166.3961 H   0  0  0  0  0  0  0  0  0  0  0  0
  153.8312  138.5175  165.4075 H   0  0  0  0  0  0  0  0  0  0  0  0
  156.2154  136.9040  164.3502 H   0  0  0  0  0  0  0  0  0  0  0  0
  154.5140  135.4046  165.2332 H   0  0  0  0  0  0  0  0  0  0  0  0
  154.5472  135.2843  163.4862 H   0  0  0  0  0  0  0  0  0  0  0  0
  153.2521  136.1821  164.2969 H   0  0  0  0  0  0  0  0  0  0  0  0
  153.7418  140.9746  162.2227 H   0  0  0  0  0  0  0  0  0  0  0  0
  1  2  1  0  0  0  0
  1 19  1  0  0  0  0
  1 20  1  0  0  0  0
  1 21  1  0  0  0  0
  2 18  1  0  0  0  0
  2  3  2  0  0  0  0
  3  4  1  0  0  0  0
  4  5  1  0  0  0  0
  4 17  2  0  0  0  0
  5  6  1  0  0  0  0
  5 22  1  0  0  0  0
  5 23  1  0  0  0  0
  6  7  1  0  0  0  0
  6 24  1  0  0  0  0
  6 25  1  0  0  0  0
  7  8  1  0  0  0  0
  7 26  1  0  0  0  0
  8  9  2  0  0  0  0
  8 10  1  0  0  0  0
 10 15  1  0  0  0  0
 10 11  1  0  0  0  0
 11 12  1  0  0  0  0
 11 27  1  0  0  0  0
 11 28  1  0  0  0  0
 12 13  1  0  0  0  0
 12 29  1  0  0  0  0
 12 30  1  0  0  0  0
 13 14  1  0  0  0  0
 14 15  1  0  0  0  0
 14 31  1  0  0  0  0
 14 32  1  0  0  0  0
 15 16  1  0  0  0  0
 15 33  1  0  0  0  0
 16 34  1  0  0  0  0
 16 35  1  0  0  0  0
 16 36  1  0  0  0  0
 17 18  1  0  0  0  0
 17 37  1  0  0  0  0
M  END
> <s_m_source_file>
AV-unprocessed.smi

> <i_m_source_file_index>
1553

> <i_lp_mmshare_version>
43012

> <i_f3d_flags>
0

> <s_epik_input>
W0NIM11jMW5jKFtjSF1zMSlbQ0gyXVtDSDJdW05IXUMoPU8pTjJbQ0gyXVtDSDJdT1tDSDJdW0NASF0yW0NIM10=

> <s_epik_cmdline>
J2VwaWtfcHl0aG9uJywgJy1waCcsICc3LjAnLCAnLXRuJywgJzgnLCAnLW1hJywgJzIwMCcsICctbWV0YWxfYmluZGluZycsICctaW1hZScsICc8aW5maWxlLm1hZT4nLCAnLW9tYWUnLCAnPG91dGZpbGUubWFlPic=

> <r_epik_Ionization_Penalty>
0.0020768

> <r_epik_Ionization_Penalty_Charging>
0

> <r_epik_Ionization_Penalty_Neutral>
0.0020768

> <r_epik_State_Penalty>
0.00139904

> <r_epik_Charging_Adjusted_Penalty>
0.00139904

> <i_epik_Tot_Q>
0

> <i_epik_Tot_abs_Q>
0

> <r_epik_Metal_State_Penalty>
-0

> <b_epik_Metal_Only>
0

> <s_lp_Force_Field>
OPLS_2005

> <r_lp_Energy>
28.2448

> <b_lp_Chiralities_Consistent>
1

> <s_lp_Variant>
AV-unprocessed.smi:1553-1

> <Gold.Version>
5.8.1

> <Gold.Id.Protein>
6NUR|6NUR_protein|mol2

> <Gold.PLP.Fitness>
36.2267

> <Gold.PLP.PLP>
-37.4454

> <Gold.PLP.part.hbond>
0.0000

> <Gold.PLP.part.metal>
0.0000

> <Gold.PLP.part.buried>
-5.5760

> <Gold.PLP.part.nonpolar>
-31.3967

> <Gold.PLP.part.repulsive>
0.0192

> <Gold.PLP.ligand.clash>
0.2125

> <Gold.PLP.ligand.torsion>
0.5758

> <Gold.PLP.Chemscore.Hbond>
0.0000

> <Gold.PLP.Chemscore.CHOScore>
0.0000

> <Gold.PLP.Chemscore.Metal>
0.0000

> <Gold.PLP.Chemscore.Internal.Correction>
0.1453

> <Gold.Rescore>
     Score         DG    S(hbond)    S(metal)    S(lipo)     H(rot)  DE(clash)    DE(int)     intcor
     12.40     -14.34       0.00        0.00     104.88       1.33       0.03       1.91       ----

> <Gold.Chemscore.Fitness>
12.4013

> <Gold.Chemscore.DG>
-14.3401

> <Gold.Chemscore.ZeroCoef>
-5.4800

> <Gold.Chemscore.Hbond>
0.0000

> <Gold.Chemscore.Metal>
0.0000

> <Gold.Chemscore.Lipo>
104.8819

> <Gold.Chemscore.Internal_Hbond>
0.0000

> <Gold.Chemscore.DEClash>
0.0266

> <Gold.Chemscore.DEInternal>
1.9121

> <Gold.Chemscore.Rot>
1.3325

> <Gold.Chemscore.Internal.Correction>
   9.000000E+99

> <Gold.Chemscore.Hbond.Weighted>
-0.0000

> <Gold.Chemscore.Metal.Weighted>
-0.0000

> <Gold.Chemscore.Lipo.Weighted>
-12.2712

> <Gold.Chemscore.Internal_Hbond.Weighted>
0.0000

> <Gold.Chemscore.DEClash.Weighted>
0.0266

> <Gold.Chemscore.DEInternal.Weighted>
1.9121

> <Gold.Chemscore.Rot.Weighted>
3.4111

> <Gold.Chemscore.Internal.Correction.Weighted>
   9.000000E+99

> <Gold.Protein.RotatedTorsions>
[ 6907 6896 6895 6894 ] final   -1.08 input  -60.11 | X-H torsion
[ 7974 7965 7964 7962 ] final  -87.31 input  175.53 | X-H torsion
[ 8008 7997 7996 7995 ] final   13.55 input   59.86 | X-H torsion
[ 10167 10162 10161 10158 ] final -100.77 input  -65.29 | X-H torsion
[ 10718 10713 10712 10709 ] final  165.91 input   66.30 | X-H torsion
[ 10763 10752 10751 10750 ] final -172.00 input  -60.55 | X-H torsion
[ 11005 11000 10999 10996 ] final   86.45 input  -57.11 | X-H torsion

> <Gold.Protein.ActiveResidues>
 VAL166  LYS551  ARG553  GLY616  TRP617  ASP618  TYR619  PRO620  LYS621  CYS622 
 ASP623  PHE694  ASN695  SER759  ASP760  ASP761  ALA762  ILE779  LEU786  VAL792 
 PHE793  MET794  SER795  GLU796  ALA797  LYS798  CYS799  TRP800  GLU811  SER814 

> <Gold.Protein.RotatedAtoms>
  151.5518  135.1067  159.9951 H   0  0  0  0  0  0  0  0  0  0  0  0  # atno 6907 bound_to 6896
  152.4488  133.7584  159.6743 H   0  0  0  0  0  0  0  0  0  0  0  0  # atno 6908 bound_to 6896
  150.8410  133.7869  159.3085 H   0  0  0  0  0  0  0  0  0  0  0  0  # atno 6909 bound_to 6896
  145.4683  140.9560  143.1931 H   0  0  0  0  0  0  0  0  0  0  0  0  # atno 7974 bound_to 7965
  154.8360  140.2907  155.5691 H   0  0  0  0  0  0  0  0  0  0  0  0  # atno 8008 bound_to 7997
  156.3009  140.2523  156.3225 H   0  0  0  0  0  0  0  0  0  0  0  0  # atno 8009 bound_to 7997
  154.9178  140.0386  157.1971 H   0  0  0  0  0  0  0  0  0  0  0  0  # atno 8010 bound_to 7997
  140.2484  143.3490  152.0738 H   0  0  0  0  0  0  0  0  0  0  0  0  # atno 10167 bound_to 10162
  157.0735  131.0372  151.2603 H   0  0  0  0  0  0  0  0  0  0  0  0  # atno 10718 bound_to 10713
  154.6242  135.2879  155.0291 H   0  0  0  0  0  0  0  0  0  0  0  0  # atno 10763 bound_to 10752
  154.1475  135.6509  153.4960 H   0  0  0  0  0  0  0  0  0  0  0  0  # atno 10764 bound_to 10752
  153.0250  135.5347  154.7044 H   0  0  0  0  0  0  0  0  0  0  0  0  # atno 10765 bound_to 10752
  139.8944  134.8356  156.2723 H   0  0  0  0  0  0  0  0  0  0  0  0  # atno 11005 bound_to 11000
  144.7961  139.6232  143.7092 LP  0  0  0  0  0  0  0  0  0  0  0  0  # atno 17320 bound_to 7965
  146.2411  139.6004  142.9490 LP  0  0  0  0  0  0  0  0  0  0  0  0  # atno 17321 bound_to 7965
  139.5054  144.6794  151.6046 LP  0  0  0  0  0  0  0  0  0  0  0  0  # atno 17342 bound_to 10162
  140.6060  143.9524  150.6419 LP  0  0  0  0  0  0  0  0  0  0  0  0  # atno 17343 bound_to 10162
  157.4859  130.7793  149.7459 LP  0  0  0  0  0  0  0  0  0  0  0  0  # atno 17370 bound_to 10713
  155.9944  130.3918  150.2862 LP  0  0  0  0  0  0  0  0  0  0  0  0  # atno 17371 bound_to 10713
  141.0093  133.7105  156.1085 LP  0  0  0  0  0  0  0  0  0  0  0  0  # atno 17394 bound_to 11000
  140.7390  134.4171  157.5557 LP  0  0  0  0  0  0  0  0  0  0  0  0  # atno 17395 bound_to 11000

$$$$
