AV-unprocessed.smi:1245|AV-procd|sdf|5239|dock5
  -GOLD-   22720 4343D 1   1.00000     0.00000
 Structure written by MMmdl.
 43 44  0  0  0  0  0  0  0  0  1 V2000
  149.2809  134.7467  156.6456 O   0  0  0  0  0  0  0  0  0  0  0  0
  149.4858  135.2725  155.5517 C   0  0  0  0  0  0  0  0  0  0  0  0
  150.5126  136.3987  155.4213 C   0  0  0  0  0  0  0  0  0  0  0  0
  150.2481  137.5624  156.3923 C   0  0  0  0  0  0  0  0  0  0  0  0
  150.9406  139.1539  155.7557 S   0  0  0  0  0  0  0  0  0  0  0  0
  152.3602  139.2244  156.1348 O   0  0  0  0  0  0  0  0  0  0  0  0
  150.5689  139.2863  154.3386 O   0  0  0  0  0  0  0  0  0  0  0  0
  150.0025  140.4191  156.7317 C   0  0  0  0  0  0  0  0  0  0  0  0
  150.4143  141.8430  156.3070 C   0  0  0  0  0  0  0  0  0  0  0  0
  151.0113  142.5221  157.5454 C   0  0  0  0  0  0  0  0  0  0  0  0
  151.3932  141.3821  158.4858 C   0  0  0  0  0  0  0  0  0  0  0  0
  150.3179  140.3273  158.2340 C   0  0  0  0  0  0  0  0  0  0  0  0
  148.8461  134.9156  154.4284 N   0  0  0  0  0  0  0  0  0  0  0  0
  147.8321  133.8700  154.3358 C   0  0  0  0  0  0  0  0  0  0  0  0
  146.4560  134.4094  153.8981 C   0  0  0  0  0  0  0  0  0  0  0  0
  145.9335  133.7729  152.6211 C   0  0  0  0  0  0  0  0  0  0  0  0
  146.7740  132.9725  151.8175 C   0  0  0  0  0  0  0  0  0  0  0  0
  146.2365  132.3956  150.6507 C   0  0  0  0  0  0  0  0  0  0  0  0
  144.8865  132.6400  150.3335 C   0  0  0  0  0  0  0  0  0  0  0  0
  144.1313  133.4551  151.2003 C   0  0  0  0  0  0  0  0  0  0  0  0
  144.6370  134.0133  152.3213 N   0  0  0  0  0  0  0  0  0  0  0  0
  151.5242  136.0142  155.5586 H   0  0  0  0  0  0  0  0  0  0  0  0
  150.4639  136.7683  154.3967 H   0  0  0  0  0  0  0  0  0  0  0  0
  149.1742  137.6973  156.5190 H   0  0  0  0  0  0  0  0  0  0  0  0
  150.6669  137.3599  157.3777 H   0  0  0  0  0  0  0  0  0  0  0  0
  148.9411  140.2507  156.5476 H   0  0  0  0  0  0  0  0  0  0  0  0
  151.1591  141.8093  155.5112 H   0  0  0  0  0  0  0  0  0  0  0  0
  149.5652  142.4088  155.9226 H   0  0  0  0  0  0  0  0  0  0  0  0
  151.8581  143.1648  157.3030 H   0  0  0  0  0  0  0  0  0  0  0  0
  150.2511  143.1434  158.0207 H   0  0  0  0  0  0  0  0  0  0  0  0
  152.3742  140.9899  158.2151 H   0  0  0  0  0  0  0  0  0  0  0  0
  151.4361  141.6956  159.5292 H   0  0  0  0  0  0  0  0  0  0  0  0
  149.4252  140.5847  158.8048 H   0  0  0  0  0  0  0  0  0  0  0  0
  150.6313  139.3349  158.5558 H   0  0  0  0  0  0  0  0  0  0  0  0
  149.0796  135.4007  153.5738 H   0  0  0  0  0  0  0  0  0  0  0  0
  148.1841  133.1402  153.6062 H   0  0  0  0  0  0  0  0  0  0  0  0
  147.7490  133.3391  155.2853 H   0  0  0  0  0  0  0  0  0  0  0  0
  145.7298  134.2504  154.6962 H   0  0  0  0  0  0  0  0  0  0  0  0
  146.5129  135.4897  153.7578 H   0  0  0  0  0  0  0  0  0  0  0  0
  147.8044  132.7990  152.0917 H   0  0  0  0  0  0  0  0  0  0  0  0
  146.8485  131.7756  150.0122 H   0  0  0  0  0  0  0  0  0  0  0  0
  144.4401  132.2132  149.4476 H   0  0  0  0  0  0  0  0  0  0  0  0
  143.0930  133.6632  150.9886 H   0  0  0  0  0  0  0  0  0  0  0  0
  1  2  2  0  0  0  0
  2  3  1  0  0  0  0
  2 13  1  0  0  0  0
  3  4  1  0  0  0  0
  3 22  1  0  0  0  0
  3 23  1  0  0  0  0
  4  5  1  0  0  0  0
  4 24  1  0  0  0  0
  4 25  1  0  0  0  0
  5  6  2  0  0  0  0
  5  7  2  0  0  0  0
  5  8  1  0  0  0  0
  8 12  1  0  0  0  0
  8  9  1  0  0  0  0
  8 26  1  0  0  0  0
  9 10  1  0  0  0  0
  9 27  1  0  0  0  0
  9 28  1  0  0  0  0
 10 11  1  0  0  0  0
 10 29  1  0  0  0  0
 10 30  1  0  0  0  0
 11 12  1  0  0  0  0
 11 31  1  0  0  0  0
 11 32  1  0  0  0  0
 12 33  1  0  0  0  0
 12 34  1  0  0  0  0
 13 14  1  0  0  0  0
 13 35  1  0  0  0  0
 14 15  1  0  0  0  0
 14 36  1  0  0  0  0
 14 37  1  0  0  0  0
 15 16  1  0  0  0  0
 15 38  1  0  0  0  0
 15 39  1  0  0  0  0
 16 21  1  0  0  0  0
 16 17  2  0  0  0  0
 17 18  1  0  0  0  0
 17 40  1  0  0  0  0
 18 19  2  0  0  0  0
 18 41  1  0  0  0  0
 19 20  1  0  0  0  0
 19 42  1  0  0  0  0
 20 21  2  0  0  0  0
 20 43  1  0  0  0  0
M  END
> <s_m_source_file>
AV-unprocessed.smi

> <i_m_source_file_index>
1245

> <i_lp_mmshare_version>
43012

> <i_f3d_flags>
0

> <s_epik_input>
W0NIMl0xW0NIMl1bQ0gyXVtDSDJdW0NIXTFTKD1PKSg9TylbQ0gyXVtDSDJdQyg9TylbTkhdW0NIMl1bQ0gyXWMyW2NIXVtjSF1bY0hdW2NIXW4y

> <s_epik_cmdline>
J2VwaWtfcHl0aG9uJywgJy1waCcsICc3LjAnLCAnLXRuJywgJzgnLCAnLW1hJywgJzIwMCcsICctbWV0YWxfYmluZGluZycsICctaW1hZScsICc8aW5maWxlLm1hZT4nLCAnLW9tYWUnLCAnPG91dGZpbGUubWFlPic=

> <r_epik_Ionization_Penalty>
0.0243247

> <r_epik_Ionization_Penalty_Charging>
0

> <r_epik_Ionization_Penalty_Neutral>
0.0243247

> <r_epik_State_Penalty>
0.0197389

> <r_epik_Charging_Adjusted_Penalty>
0.0197389

> <i_epik_Tot_Q>
0

> <i_epik_Tot_abs_Q>
0

> <r_epik_Metal_State_Penalty>
0.0189562

> <b_epik_Metal_Only>
0

> <s_lp_Force_Field>
OPLS_2005

> <r_lp_Energy>
12.2182

> <b_lp_Chiralities_Consistent>
1

> <s_lp_Variant>
AV-unprocessed.smi:1245-1

> <Gold.Version>
5.8.1

> <Gold.Id.Protein>
6NUR|6NUR_protein|mol2

> <Gold.PLP.Fitness>
42.9599

> <Gold.PLP.PLP>
-32.9849

> <Gold.PLP.part.hbond>
-2.9319

> <Gold.PLP.part.metal>
0.0000

> <Gold.PLP.part.buried>
-4.0794

> <Gold.PLP.part.nonpolar>
-25.8817

> <Gold.PLP.part.repulsive>
0.2934

> <Gold.PLP.ligand.clash>
0.0000

> <Gold.PLP.ligand.torsion>
1.1597

> <Gold.PLP.Chemscore.Hbond>
3.0000

> <Gold.PLP.Chemscore.CHOScore>
1.0000

> <Gold.PLP.Chemscore.Metal>
0.0000

> <Gold.Chemscore.Hbonds>
donor molecule, donor type, donor heavy atom, donor atom, acceptor molecule, acceptor atom, score
      L1  H    13    35       P1  7948  1.00
      P1  H  7989  7998       L1     7  0.88
      P1  H  7997  8009       L1     6  0.63
      L1  C    20    43       P1 10186  0.73

> <Gold.PLP.Chemscore.Internal.Correction>
0.2945

> <Gold.Rescore>
     Score         DG    S(hbond)    S(metal)    S(lipo)     H(rot)  DE(clash)    DE(int)     intcor
     18.07     -19.08       2.71        0.00      82.70       2.00       0.05       0.95       ----

> <Gold.Chemscore.Fitness>
18.0729

> <Gold.Chemscore.DG>
-19.0774

> <Gold.Chemscore.ZeroCoef>
-5.4800

> <Gold.Chemscore.Hbond>
2.7081

> <Gold.Chemscore.Metal>
0.0000

> <Gold.Chemscore.Lipo>
82.6994

> <Gold.Chemscore.Internal_Hbond>
0.0000

> <Gold.Chemscore.DEClash>
0.0540

> <Gold.Chemscore.DEInternal>
0.9505

> <Gold.Chemscore.Rot>
2.0014

> <Gold.Chemscore.Internal.Correction>
   9.000000E+99

> <Gold.Chemscore.Hbonds>
donor molecule, donor type, donor heavy atom, donor atom, acceptor molecule, acceptor atom, score
      L1  H    13    35       P1  7948  0.60
      P1  H  7989  7998       L1     7  0.64
      P1  H  7997  8009       L1     6  0.63

> <Gold.Chemscore.Hbond.Weighted>
-9.0451

> <Gold.Chemscore.Metal.Weighted>
-0.0000

> <Gold.Chemscore.Lipo.Weighted>
-9.6758

> <Gold.Chemscore.Internal_Hbond.Weighted>
0.0000

> <Gold.Chemscore.DEClash.Weighted>
0.0540

> <Gold.Chemscore.DEInternal.Weighted>
0.9505

> <Gold.Chemscore.Rot.Weighted>
5.1236

> <Gold.Chemscore.Internal.Correction.Weighted>
   9.000000E+99

> <Gold.Protein.RotatedTorsions>
[ 6907 6896 6895 6894 ] final  134.63 input  -60.11 | X-H torsion
[ 7974 7965 7964 7962 ] final  123.35 input  175.53 | X-H torsion
[ 8008 7997 7996 7995 ] final -165.59 input   59.86 | X-H torsion
[ 10167 10162 10161 10158 ] final  175.23 input  -65.29 | X-H torsion
[ 10718 10713 10712 10709 ] final  147.34 input   66.30 | X-H torsion
[ 10763 10752 10751 10750 ] final  174.34 input  -60.55 | X-H torsion
[ 11005 11000 10999 10996 ] final  -49.21 input  -57.11 | X-H torsion

> <Gold.Protein.ActiveResidues>
 VAL166  LYS551  ARG553  GLY616  TRP617  ASP618  TYR619  PRO620  LYS621  CYS622 
 ASP623  PHE694  ASN695  SER759  ASP760  ASP761  ALA762  ILE779  LEU786  VAL792 
 PHE793  MET794  SER795  GLU796  ALA797  LYS798  CYS799  TRP800  GLU811  SER814 

> <Gold.Protein.RotatedAtoms>
  152.3092  133.5735  159.5669 H   0  0  0  0  0  0  0  0  0  0  0  0  # atno 6907 bound_to 6896
  150.7314  134.0177  159.3700 H   0  0  0  0  0  0  0  0  0  0  0  0  # atno 6908 bound_to 6896
  151.8071  135.0692  160.0459 H   0  0  0  0  0  0  0  0  0  0  0  0  # atno 6909 bound_to 6896
  145.0970  139.3546  143.4831 H   0  0  0  0  0  0  0  0  0  0  0  0  # atno 7974 bound_to 7965
  155.8520  140.0964  157.1669 H   0  0  0  0  0  0  0  0  0  0  0  0  # atno 8008 bound_to 7997
  154.3986  140.1381  156.3918 H   0  0  0  0  0  0  0  0  0  0  0  0  # atno 8009 bound_to 7997
  155.7951  140.3454  155.5373 H   0  0  0  0  0  0  0  0  0  0  0  0  # atno 8010 bound_to 7997
  139.5170  144.3055  152.0340 H   0  0  0  0  0  0  0  0  0  0  0  0  # atno 10167 bound_to 10162
  157.3221  131.0906  151.1232 H   0  0  0  0  0  0  0  0  0  0  0  0  # atno 10718 bound_to 10713
  154.4526  135.2765  155.1770 H   0  0  0  0  0  0  0  0  0  0  0  0  # atno 10763 bound_to 10752
  154.3591  135.6133  153.5685 H   0  0  0  0  0  0  0  0  0  0  0  0  # atno 10764 bound_to 10752
  152.9848  135.5830  154.4873 H   0  0  0  0  0  0  0  0  0  0  0  0  # atno 10765 bound_to 10752
  141.0746  133.6669  156.3553 H   0  0  0  0  0  0  0  0  0  0  0  0  # atno 11005 bound_to 11000
  146.3530  140.0830  142.8616 LP  0  0  0  0  0  0  0  0  0  0  0  0  # atno 17320 bound_to 7965
  145.1000  140.9339  143.4718 LP  0  0  0  0  0  0  0  0  0  0  0  0  # atno 17321 bound_to 7965
  140.2501  144.4178  150.6225 LP  0  0  0  0  0  0  0  0  0  0  0  0  # atno 17342 bound_to 10162
  140.6231  143.2178  151.6654 LP  0  0  0  0  0  0  0  0  0  0  0  0  # atno 17343 bound_to 10162
  157.2512  130.6615  149.5932 LP  0  0  0  0  0  0  0  0  0  0  0  0  # atno 17370 bound_to 10713
  155.9687  130.4538  150.5824 LP  0  0  0  0  0  0  0  0  0  0  0  0  # atno 17371 bound_to 10713
  140.5601  134.5943  157.5431 LP  0  0  0  0  0  0  0  0  0  0  0  0  # atno 17394 bound_to 11000
  139.9558  134.7537  156.0344 LP  0  0  0  0  0  0  0  0  0  0  0  0  # atno 17395 bound_to 11000

$$$$
