AV-unprocessed.smi:1160|AV-procd|sdf|4916|dock2
  -GOLD-   22720 3493D 1   1.00000     0.00000
 Structure written by MMmdl.
 44 45  0  0  0  0  0  0  0  0  1 V2000
  152.2048  138.8397  155.4192 C   0  0  0  0  0  0  0  0  0  0  0  0
  151.9745  138.5792  153.9286 C   0  0  0  0  0  0  0  0  0  0  0  0
  150.5755  138.4421  153.6994 O   0  0  0  0  0  0  0  0  0  0  0  0
  149.7400  139.4880  154.0438 C   0  0  0  0  0  0  0  0  0  0  0  0
  150.2957  140.6182  154.5481 N   0  0  0  0  0  0  0  0  0  0  0  0
  149.4825  141.6419  154.8788 C   0  0  0  0  0  0  0  0  0  0  0  0
  148.0857  141.5979  154.7196 C   0  0  0  0  0  0  0  0  0  0  0  0
  147.5065  140.4267  154.1971 C   0  0  0  0  0  0  0  0  0  0  0  0
  148.3456  139.3367  153.8592 C   0  0  0  0  0  0  0  0  0  0  0  0
  147.8741  138.1100  153.3135 N   0  0  0  0  0  0  0  0  0  0  0  0
  146.6685  137.5315  153.4490 C   0  0  0  0  0  0  0  0  0  0  0  0
  145.7170  138.0025  154.0711 O   0  0  0  0  0  0  0  0  0  0  0  0
  146.6342  136.3456  152.8245 N   0  0  0  0  0  0  0  0  0  0  0  0
  145.4972  135.4298  152.7879 C   0  0  0  0  0  0  0  0  0  0  0  0
  145.8874  134.0938  153.4549 C   0  0  0  0  0  0  0  0  0  0  0  0
  144.7921  133.0312  153.2572 C   0  0  0  0  0  0  0  0  0  0  0  0
  144.5384  132.8741  151.8202 N   0  0  0  0  0  0  0  0  0  0  0  0
  144.9010  131.7660  151.1303 C   0  0  0  0  0  0  0  0  0  0  0  0
  145.5523  130.5991  151.8758 C   0  0  0  0  0  0  0  0  0  0  0  0
  144.7296  131.6520  149.9165 O   0  0  0  0  0  0  0  0  0  0  0  0
  143.9830  134.0996  151.2317 C   0  0  0  0  0  0  0  0  0  0  0  0
  145.0339  135.2206  151.3294 C   0  0  0  0  0  0  0  0  0  0  0  0
  153.2680  138.9448  155.6363 H   0  0  0  0  0  0  0  0  0  0  0  0
  151.8197  138.0180  156.0236 H   0  0  0  0  0  0  0  0  0  0  0  0
  151.7056  139.7546  155.7394 H   0  0  0  0  0  0  0  0  0  0  0  0
  152.3756  139.4099  153.3457 H   0  0  0  0  0  0  0  0  0  0  0  0
  152.5015  137.6709  153.6317 H   0  0  0  0  0  0  0  0  0  0  0  0
  149.9606  142.5250  155.2760 H   0  0  0  0  0  0  0  0  0  0  0  0
  147.4720  142.4449  154.9882 H   0  0  0  0  0  0  0  0  0  0  0  0
  146.4376  140.3973  154.0564 H   0  0  0  0  0  0  0  0  0  0  0  0
  148.5699  137.5677  152.8227 H   0  0  0  0  0  0  0  0  0  0  0  0
  147.4685  136.0437  152.3429 H   0  0  0  0  0  0  0  0  0  0  0  0
  144.6564  135.8418  153.3492 H   0  0  0  0  0  0  0  0  0  0  0  0
  146.8219  133.7249  153.0291 H   0  0  0  0  0  0  0  0  0  0  0  0
  146.0718  134.2463  154.5190 H   0  0  0  0  0  0  0  0  0  0  0  0
  145.0883  132.0988  153.7395 H   0  0  0  0  0  0  0  0  0  0  0  0
  143.8725  133.3424  153.7552 H   0  0  0  0  0  0  0  0  0  0  0  0
  144.8884  130.2151  152.6507 H   0  0  0  0  0  0  0  0  0  0  0  0
  146.4918  130.9093  152.3336 H   0  0  0  0  0  0  0  0  0  0  0  0
  145.7716  129.7801  151.1900 H   0  0  0  0  0  0  0  0  0  0  0  0
  143.6631  133.9827  150.1973 H   0  0  0  0  0  0  0  0  0  0  0  0
  143.0851  134.3837  151.7823 H   0  0  0  0  0  0  0  0  0  0  0  0
  144.6251  136.1496  150.9301 H   0  0  0  0  0  0  0  0  0  0  0  0
  145.8882  134.9637  150.7010 H   0  0  0  0  0  0  0  0  0  0  0  0
  1  2  1  0  0  0  0
  1 23  1  0  0  0  0
  1 24  1  0  0  0  0
  1 25  1  0  0  0  0
  2  3  1  0  0  0  0
  2 26  1  0  0  0  0
  2 27  1  0  0  0  0
  3  4  1  0  0  0  0
  4  9  1  0  0  0  0
  4  5  2  0  0  0  0
  5  6  1  0  0  0  0
  6  7  2  0  0  0  0
  6 28  1  0  0  0  0
  7  8  1  0  0  0  0
  7 29  1  0  0  0  0
  8  9  2  0  0  0  0
  8 30  1  0  0  0  0
  9 10  1  0  0  0  0
 10 11  1  0  0  0  0
 10 31  1  0  0  0  0
 11 12  2  0  0  0  0
 11 13  1  0  0  0  0
 13 14  1  0  0  0  0
 13 32  1  0  0  0  0
 14 22  1  0  0  0  0
 14 15  1  0  0  0  0
 14 33  1  0  0  0  0
 15 16  1  0  0  0  0
 15 34  1  0  0  0  0
 15 35  1  0  0  0  0
 16 17  1  0  0  0  0
 16 36  1  0  0  0  0
 16 37  1  0  0  0  0
 17 18  1  0  0  0  0
 17 21  1  0  0  0  0
 18 19  1  0  0  0  0
 18 20  2  0  0  0  0
 19 38  1  0  0  0  0
 19 39  1  0  0  0  0
 19 40  1  0  0  0  0
 21 22  1  0  0  0  0
 21 41  1  0  0  0  0
 21 42  1  0  0  0  0
 22 43  1  0  0  0  0
 22 44  1  0  0  0  0
M  END
> <s_m_source_file>
AV-unprocessed.smi

> <i_m_source_file_index>
1160

> <i_lp_mmshare_version>
43012

> <i_f3d_flags>
0

> <s_epik_input>
W0NIM11bQ0gyXU9jMW5bY0hdW2NIXVtjSF1jMVtOSF1DKD1PKVtOSF1bQ0hdMltDSDJdW0NIMl1OKEMoPU8pW0NIM10pW0NIMl1bQ0gyXTI=

> <s_epik_cmdline>
J2VwaWtfcHl0aG9uJywgJy1waCcsICc3LjAnLCAnLXRuJywgJzgnLCAnLW1hJywgJzIwMCcsICctbWV0YWxfYmluZGluZycsICctaW1hZScsICc8aW5maWxlLm1hZT4nLCAnLW9tYWUnLCAnPG91dGZpbGUubWFlPic=

> <r_lp_tautomer_probability>
1

> <r_epik_Ionization_Penalty>
0.00011666

> <r_epik_Ionization_Penalty_Charging>
0

> <r_epik_Ionization_Penalty_Neutral>
0.00011666

> <r_epik_State_Penalty>
-0

> <r_epik_Charging_Adjusted_Penalty>
0

> <i_epik_Tot_Q>
0

> <i_epik_Tot_abs_Q>
0

> <r_epik_Metal_State_Penalty>
-0

> <b_epik_Metal_Only>
0

> <s_lp_Force_Field>
OPLS_2005

> <r_lp_Energy>
24.4955

> <b_lp_Chiralities_Consistent>
1

> <s_lp_Variant>
AV-unprocessed.smi:1160-1

> <Gold.Version>
5.8.1

> <Gold.Id.Protein>
6NUR|6NUR_protein|mol2

> <Gold.PLP.Fitness>
47.5196

> <Gold.PLP.PLP>
-36.5285

> <Gold.PLP.part.hbond>
-3.9278

> <Gold.PLP.part.metal>
0.0000

> <Gold.PLP.part.buried>
-2.1378

> <Gold.PLP.part.nonpolar>
-32.9674

> <Gold.PLP.part.repulsive>
1.3034

> <Gold.PLP.ligand.clash>
0.0000

> <Gold.PLP.ligand.torsion>
0.1551

> <Gold.PLP.Chemscore.Hbond>
2.9040

> <Gold.PLP.Chemscore.CHOScore>
0.8419

> <Gold.PLP.Chemscore.Metal>
0.0000

> <Gold.Chemscore.Hbonds>
donor molecule, donor type, donor heavy atom, donor atom, acceptor molecule, acceptor atom, score
      L1  H    10    31       P1  7948  1.00
      L1  H    13    32       P1  7948  1.00
      P1  H  7989  7998       L1     5  0.88
      L1  C     6    28       P1  8028  0.92

> <Gold.PLP.Chemscore.Internal.Correction>
0.0637

> <Gold.Rescore>
     Score         DG    S(hbond)    S(metal)    S(lipo)     H(rot)  DE(clash)    DE(int)     intcor
     14.86     -17.78       2.20        0.00      73.65       1.43       0.33       2.59       ----

> <Gold.Chemscore.Fitness>
14.8603

> <Gold.Chemscore.DG>
-17.7808

> <Gold.Chemscore.ZeroCoef>
-5.4800

> <Gold.Chemscore.Hbond>
2.1987

> <Gold.Chemscore.Metal>
0.0000

> <Gold.Chemscore.Lipo>
73.6502

> <Gold.Chemscore.Internal_Hbond>
0.0000

> <Gold.Chemscore.DEClash>
0.3279

> <Gold.Chemscore.DEInternal>
2.5927

> <Gold.Chemscore.Rot>
1.4297

> <Gold.Chemscore.Internal.Correction>
   9.000000E+99

> <Gold.Chemscore.Hbonds>
donor molecule, donor type, donor heavy atom, donor atom, acceptor molecule, acceptor atom, score
      L1  H    10    31       P1  7948  0.94
      L1  H    13    32       P1  7948  0.94
      P1  H  7989  7998       L1     5  0.34
      P1  H 10785 10796       L1    20  0.03

> <Gold.Chemscore.Hbond.Weighted>
-7.3438

> <Gold.Chemscore.Metal.Weighted>
-0.0000

> <Gold.Chemscore.Lipo.Weighted>
-8.6171

> <Gold.Chemscore.Internal_Hbond.Weighted>
0.0000

> <Gold.Chemscore.DEClash.Weighted>
0.3279

> <Gold.Chemscore.DEInternal.Weighted>
2.5927

> <Gold.Chemscore.Rot.Weighted>
3.6600

> <Gold.Chemscore.Internal.Correction.Weighted>
   9.000000E+99

> <Gold.Protein.RotatedTorsions>
[ 6907 6896 6895 6894 ] final  -96.83 input  -60.11 | X-H torsion
[ 7974 7965 7964 7962 ] final   74.74 input  175.53 | X-H torsion
[ 8008 7997 7996 7995 ] final -120.01 input   59.86 | X-H torsion
[ 10167 10162 10161 10158 ] final -125.29 input  -65.29 | X-H torsion
[ 10718 10713 10712 10709 ] final  -39.11 input   66.30 | X-H torsion
[ 10763 10752 10751 10750 ] final  -36.47 input  -60.55 | X-H torsion
[ 11005 11000 10999 10996 ] final  -18.07 input  -57.11 | X-H torsion

> <Gold.Protein.ActiveResidues>
 VAL166  LYS551  ARG553  GLY616  TRP617  ASP618  TYR619  PRO620  LYS621  CYS622 
 ASP623  PHE694  ASN695  SER759  ASP760  ASP761  ALA762  ILE779  LEU786  VAL792 
 PHE793  MET794  SER795  GLU796  ALA797  LYS798  CYS799  TRP800  GLU811  SER814 

> <Gold.Protein.RotatedAtoms>
  150.6999  134.1443  159.4116 H   0  0  0  0  0  0  0  0  0  0  0  0  # atno 6907 bound_to 6896
  151.9427  135.0204  160.0546 H   0  0  0  0  0  0  0  0  0  0  0  0  # atno 6908 bound_to 6896
  152.2080  133.4854  159.5131 H   0  0  0  0  0  0  0  0  0  0  0  0  # atno 6909 bound_to 6896
  145.7245  139.2660  143.1577 H   0  0  0  0  0  0  0  0  0  0  0  0  # atno 7974 bound_to 7965
  155.1249  140.0399  157.2759 H   0  0  0  0  0  0  0  0  0  0  0  0  # atno 8008 bound_to 7997
  154.6586  140.2586  155.7108 H   0  0  0  0  0  0  0  0  0  0  0  0  # atno 8009 bound_to 7997
  156.2609  140.2821  156.1049 H   0  0  0  0  0  0  0  0  0  0  0  0  # atno 8010 bound_to 7997
  139.9837  143.5715  152.2368 H   0  0  0  0  0  0  0  0  0  0  0  0  # atno 10167 bound_to 10162
  156.2962  130.4234  149.8189 H   0  0  0  0  0  0  0  0  0  0  0  0  # atno 10718 bound_to 10713
  153.8803  135.6822  153.4767 H   0  0  0  0  0  0  0  0  0  0  0  0  # atno 10763 bound_to 10752
  153.1237  135.4728  154.9236 H   0  0  0  0  0  0  0  0  0  0  0  0  # atno 10764 bound_to 10752
  154.7672  135.3228  154.8214 H   0  0  0  0  0  0  0  0  0  0  0  0  # atno 10765 bound_to 10752
  140.8231  133.8053  155.9680 H   0  0  0  0  0  0  0  0  0  0  0  0  # atno 11005 bound_to 11000
  146.0595  140.7985  142.9742 LP  0  0  0  0  0  0  0  0  0  0  0  0  # atno 17320 bound_to 7965
  144.6908  140.3175  143.7238 LP  0  0  0  0  0  0  0  0  0  0  0  0  # atno 17321 bound_to 7965
  139.6391  144.7653  151.2377 LP  0  0  0  0  0  0  0  0  0  0  0  0  # atno 17342 bound_to 10162
  140.7480  143.6348  150.8389 LP  0  0  0  0  0  0  0  0  0  0  0  0  # atno 17343 bound_to 10162
  156.5584  130.8372  151.3321 LP  0  0  0  0  0  0  0  0  0  0  0  0  # atno 17370 bound_to 10713
  157.7356  130.9764  150.2089 LP  0  0  0  0  0  0  0  0  0  0  0  0  # atno 17371 bound_to 10713
  140.9078  134.2298  157.5004 LP  0  0  0  0  0  0  0  0  0  0  0  0  # atno 17394 bound_to 11000
  139.8707  134.9736  156.4816 LP  0  0  0  0  0  0  0  0  0  0  0  0  # atno 17395 bound_to 11000

$$$$
