AV-unprocessed.smi:1793|AV-procd|sdf|7231|dock1
  -GOLD-   22720 8473D 1   1.00000     0.00000
 Structure written by MMmdl.
 47 49  0  0  0  0  0  0  0  0  2 V2000
  150.4984  136.6534  156.6705 C   0  0  0  0  0  0  0  0  0  0  0  0
  150.9037  136.7118  155.1893 C   0  0  1  0  0  0  0  0  0  0  0  0
  150.0135  135.8340  154.4322 N   0  0  0  0  0  0  0  0  0  0  0  0
  149.8942  134.5097  154.6035 C   0  0  0  0  0  0  0  0  0  0  0  0
  150.5349  133.8667  155.4346 O   0  0  0  0  0  0  0  0  0  0  0  0
  149.0064  133.9876  153.7413 N   0  0  0  0  0  0  0  0  0  0  0  0
  148.6561  132.6186  153.5669 C   0  0  0  0  0  0  0  0  0  0  0  0
  149.4318  131.5689  154.1223 C   0  0  0  0  0  0  0  0  0  0  0  0
  149.0229  130.2321  153.9547 C   0  0  0  0  0  0  0  0  0  0  0  0
  147.8394  129.9646  153.2443 C   0  0  0  0  0  0  0  0  0  0  0  0
  147.1156  130.9865  152.7418 N   0  3  0  0  0  0  0  0  0  0  0  0
  147.4592  132.2918  152.8721 C   0  0  0  0  0  0  0  0  0  0  0  0
  146.6365  133.2762  152.2835 N   0  0  0  0  0  0  0  0  0  0  0  0
  146.4468  133.1174  150.8437 C   0  0  0  0  0  0  0  0  0  0  0  0
  145.0049  133.5350  150.5467 C   0  0  0  0  0  0  0  0  0  0  0  0
  144.2870  133.2675  151.8638 C   0  0  0  0  0  0  0  0  0  0  0  0
  145.3547  133.6181  152.8985 C   0  0  0  0  0  0  0  0  0  0  0  0
  150.8458  138.1471  154.6229 C   0  0  1  0  0  0  0  0  0  0  0  0
  149.4385  138.7478  154.5612 C   0  0  0  0  0  0  0  0  0  0  0  0
  149.7252  140.2288  154.6465 C   0  0  0  0  0  0  0  0  0  0  0  0
  150.8656  140.2546  155.6562 C   0  0  0  0  0  0  0  0  0  0  0  0
  151.5926  139.0491  155.4408 O   0  0  0  0  0  0  0  0  0  0  0  0
  151.1775  137.2366  157.2929 H   0  0  0  0  0  0  0  0  0  0  0  0
  150.5192  135.6287  157.0428 H   0  0  0  0  0  0  0  0  0  0  0  0
  149.4910  137.0424  156.8226 H   0  0  0  0  0  0  0  0  0  0  0  0
  151.9284  136.3436  155.1123 H   0  0  0  0  0  0  0  0  0  0  0  0
  149.4496  136.2733  153.7196 H   0  0  0  0  0  0  0  0  0  0  0  0
  148.6209  134.6262  153.0612 H   0  0  0  0  0  0  0  0  0  0  0  0
  150.3281  131.7676  154.6901 H   0  0  0  0  0  0  0  0  0  0  0  0
  149.6071  129.4246  154.3714 H   0  0  0  0  0  0  0  0  0  0  0  0
  147.4502  128.9726  153.0670 H   0  0  0  0  0  0  0  0  0  0  0  0
  147.1568  133.7253  150.2825 H   0  0  0  0  0  0  0  0  0  0  0  0
  146.5993  132.0753  150.5576 H   0  0  0  0  0  0  0  0  0  0  0  0
  144.9675  134.6010  150.3169 H   0  0  0  0  0  0  0  0  0  0  0  0
  144.5714  132.9931  149.7057 H   0  0  0  0  0  0  0  0  0  0  0  0
  143.3736  133.8516  151.9804 H   0  0  0  0  0  0  0  0  0  0  0  0
  144.0276  132.2105  151.9383 H   0  0  0  0  0  0  0  0  0  0  0  0
  145.1632  133.1347  153.8561 H   0  0  0  0  0  0  0  0  0  0  0  0
  145.3535  134.6930  153.0829 H   0  0  0  0  0  0  0  0  0  0  0  0
  151.2857  138.1752  153.6243 H   0  0  0  0  0  0  0  0  0  0  0  0
  148.8960  138.4707  153.6571 H   0  0  0  0  0  0  0  0  0  0  0  0
  148.8473  138.4362  155.4236 H   0  0  0  0  0  0  0  0  0  0  0  0
  150.0667  140.6023  153.6802 H   0  0  0  0  0  0  0  0  0  0  0  0
  148.8631  140.8183  154.9600 H   0  0  0  0  0  0  0  0  0  0  0  0
  151.5033  141.1320  155.5468 H   0  0  0  0  0  0  0  0  0  0  0  0
  150.4726  140.2447  156.6735 H   0  0  0  0  0  0  0  0  0  0  0  0
  146.2621  130.7624  152.2300 H   0  0  0  0  0  0  0  0  0  0  0  0
  1  2  1  0  0  0  0
  1 23  1  0  0  0  0
  1 24  1  0  0  0  0
  1 25  1  0  0  0  0
  2  3  1  0  0  0  0
  2 18  1  0  0  0  0
  2 26  1  0  0  0  0
  3  4  1  0  0  0  0
  3 27  1  0  0  0  0
  4  5  2  0  0  0  0
  4  6  1  0  0  0  0
  6  7  1  0  0  0  0
  6 28  1  0  0  0  0
  7 12  1  0  0  0  0
  7  8  2  0  0  0  0
  8  9  1  0  0  0  0
  8 29  1  0  0  0  0
  9 10  2  0  0  0  0
  9 30  1  0  0  0  0
 10 11  1  0  0  0  0
 10 31  1  0  0  0  0
 11 12  2  0  0  0  0
 11 47  1  0  0  0  0
 12 13  1  0  0  0  0
 13 17  1  0  0  0  0
 13 14  1  0  0  0  0
 14 15  1  0  0  0  0
 14 32  1  0  0  0  0
 14 33  1  0  0  0  0
 15 16  1  0  0  0  0
 15 34  1  0  0  0  0
 15 35  1  0  0  0  0
 16 17  1  0  0  0  0
 16 36  1  0  0  0  0
 16 37  1  0  0  0  0
 17 38  1  0  0  0  0
 17 39  1  0  0  0  0
 18 22  1  0  0  0  0
 18 19  1  0  0  0  0
 18 40  1  0  0  0  0
 19 20  1  0  0  0  0
 19 41  1  0  0  0  0
 19 42  1  0  0  0  0
 20 21  1  0  0  0  0
 20 43  1  0  0  0  0
 20 44  1  0  0  0  0
 21 22  1  0  0  0  0
 21 45  1  0  0  0  0
 21 46  1  0  0  0  0
M  CHG  1  11   1
M  END
> <s_m_source_file>
AV-unprocessed.smi

> <i_m_source_file_index>
1793

> <i_lp_mmshare_version>
43012

> <i_f3d_flags>
0

> <s_epik_input>
TzFbQ0gyXVtDSDJdW0NIMl1bQ0BIXTFbQ0BIXShbQ0gzXSlbTkhdQyg9TylbTkhdYzJbY0hdW2NIXVtjSF1uYzJOM1tDSDJdW0NIMl1bQ0gyXVtDSDJdMw==

> <s_epik_cmdline>
J2VwaWtfcHl0aG9uJywgJy1waCcsICc3LjAnLCAnLXRuJywgJzgnLCAnLW1hJywgJzIwMCcsICctbWV0YWxfYmluZGluZycsICctaW1hZScsICc8aW5maWxlLm1hZT4nLCAnLW9tYWUnLCAnPG91dGZpbGUubWFlPic=

> <r_lp_tautomer_probability>
0.999994

> <r_epik_Ionization_Penalty>
1.11092

> <r_epik_Ionization_Penalty_Charging>
1.1109

> <r_epik_Ionization_Penalty_Neutral>
1.9363e-05

> <r_epik_State_Penalty>
1.16888

> <r_epik_Charging_Adjusted_Penalty>
2.27978

> <i_epik_Tot_Q>
1

> <i_epik_Tot_abs_Q>
1

> <r_epik_Metal_State_Penalty>
1.25472

> <b_epik_Metal_Only>
0

> <s_lp_Force_Field>
OPLS_2005

> <r_lp_Energy>
52.0623

> <b_lp_Chiralities_Consistent>
1

> <s_lp_Variant>
AV-unprocessed.smi:1793-8

> <Gold.Version>
5.8.1

> <Gold.Id.Protein>
6NUR|6NUR_protein|mol2

> <Gold.PLP.Fitness>
42.5906

> <Gold.PLP.PLP>
-37.5025

> <Gold.PLP.part.hbond>
-3.6534

> <Gold.PLP.part.metal>
0.0000

> <Gold.PLP.part.buried>
-2.7861

> <Gold.PLP.part.nonpolar>
-31.3166

> <Gold.PLP.part.repulsive>
0.2477

> <Gold.PLP.ligand.clash>
0.0000

> <Gold.PLP.ligand.torsion>
0.2762

> <Gold.PLP.Chemscore.Hbond>
1.8240

> <Gold.PLP.Chemscore.CHOScore>
0.0000

> <Gold.PLP.Chemscore.Metal>
0.0000

> <Gold.Chemscore.Hbonds>
donor molecule, donor type, donor heavy atom, donor atom, acceptor molecule, acceptor atom, score
      L1  H     3    27       P1  7948  0.86
      L1  H     6    28       P1  7948  0.91

> <Gold.PLP.Chemscore.Internal.Correction>
0.1686

> <Gold.Rescore>
     Score         DG    S(hbond)    S(metal)    S(lipo)     H(rot)  DE(clash)    DE(int)     intcor
     13.80     -15.36       1.21        0.00      80.24       1.38       0.04       1.52       ----

> <Gold.Chemscore.Fitness>
13.7979

> <Gold.Chemscore.DG>
-15.3601

> <Gold.Chemscore.ZeroCoef>
-5.4800

> <Gold.Chemscore.Hbond>
1.2051

> <Gold.Chemscore.Metal>
0.0000

> <Gold.Chemscore.Lipo>
80.2425

> <Gold.Chemscore.Internal_Hbond>
0.0000

> <Gold.Chemscore.DEClash>
0.0389

> <Gold.Chemscore.DEInternal>
1.5233

> <Gold.Chemscore.Rot>
1.3802

> <Gold.Chemscore.Internal.Correction>
   9.000000E+99

> <Gold.Chemscore.Hbonds>
donor molecule, donor type, donor heavy atom, donor atom, acceptor molecule, acceptor atom, score
      L1  H     3    27       P1  7948  0.63
      L1  H     6    28       P1  7948  0.22

> <Gold.Chemscore.Hbond.Weighted>
-4.0250

> <Gold.Chemscore.Metal.Weighted>
-0.0000

> <Gold.Chemscore.Lipo.Weighted>
-9.3884

> <Gold.Chemscore.Internal_Hbond.Weighted>
0.0000

> <Gold.Chemscore.DEClash.Weighted>
0.0389

> <Gold.Chemscore.DEInternal.Weighted>
1.5233

> <Gold.Chemscore.Rot.Weighted>
3.5332

> <Gold.Chemscore.Internal.Correction.Weighted>
   9.000000E+99

> <Gold.Protein.RotatedTorsions>
[ 6907 6896 6895 6894 ] final   42.11 input  -60.11 | X-H torsion
[ 7974 7965 7964 7962 ] final  129.32 input  175.53 | X-H torsion
[ 8008 7997 7996 7995 ] final  149.55 input   59.86 | X-H torsion
[ 10167 10162 10161 10158 ] final  -58.37 input  -65.29 | X-H torsion
[ 10718 10713 10712 10709 ] final -113.06 input   66.30 | X-H torsion
[ 10763 10752 10751 10750 ] final   19.78 input  -60.55 | X-H torsion
[ 11005 11000 10999 10996 ] final  -69.44 input  -57.11 | X-H torsion

> <Gold.Protein.ActiveResidues>
 VAL166  LYS551  ARG553  GLY616  TRP617  ASP618  TYR619  PRO620  LYS621  CYS622 
 ASP623  PHE694  ASN695  SER759  ASP760  ASP761  ALA762  ILE779  LEU786  VAL792 
 PHE793  MET794  SER795  GLU796  ALA797  LYS798  CYS799  TRP800  GLU811  SER814 

> <Gold.Protein.RotatedAtoms>
  152.2037  134.8565  160.0504 H   0  0  0  0  0  0  0  0  0  0  0  0  # atno 6907 bound_to 6896
  151.9409  133.3632  159.3973 H   0  0  0  0  0  0  0  0  0  0  0  0  # atno 6908 bound_to 6896
  150.6960  134.4365  159.5316 H   0  0  0  0  0  0  0  0  0  0  0  0  # atno 6909 bound_to 6896
  145.0300  139.4055  143.5154 H   0  0  0  0  0  0  0  0  0  0  0  0  # atno 7974 bound_to 7965
  156.2750  140.2099  156.5876 H   0  0  0  0  0  0  0  0  0  0  0  0  # atno 8008 bound_to 7997
  154.7008  140.0521  157.0479 H   0  0  0  0  0  0  0  0  0  0  0  0  # atno 8009 bound_to 7997
  155.0737  140.3179  155.4625 H   0  0  0  0  0  0  0  0  0  0  0  0  # atno 8010 bound_to 7997
  140.6201  143.2416  151.5500 H   0  0  0  0  0  0  0  0  0  0  0  0  # atno 10167 bound_to 10162
  156.0743  130.5953  150.8592 H   0  0  0  0  0  0  0  0  0  0  0  0  # atno 10718 bound_to 10713
  153.1133  135.6702  153.9462 H   0  0  0  0  0  0  0  0  0  0  0  0  # atno 10763 bound_to 10752
  153.8999  135.3037  155.3450 H   0  0  0  0  0  0  0  0  0  0  0  0  # atno 10764 bound_to 10752
  154.7551  135.5016  153.9438 H   0  0  0  0  0  0  0  0  0  0  0  0  # atno 10765 bound_to 10752
  141.1554  133.6764  156.6600 H   0  0  0  0  0  0  0  0  0  0  0  0  # atno 11005 bound_to 11000
  146.3497  139.9844  142.8692 LP  0  0  0  0  0  0  0  0  0  0  0  0  # atno 17320 bound_to 7965
  145.1783  140.9755  143.4281 LP  0  0  0  0  0  0  0  0  0  0  0  0  # atno 17321 bound_to 7965
  139.5432  144.2592  152.1391 LP  0  0  0  0  0  0  0  0  0  0  0  0  # atno 17342 bound_to 10162
  140.1810  144.4844  150.6528 LP  0  0  0  0  0  0  0  0  0  0  0  0  # atno 17343 bound_to 10162
  157.5831  131.0946  150.9240 LP  0  0  0  0  0  0  0  0  0  0  0  0  # atno 17370 bound_to 10713
  156.9431  130.5392  149.5280 LP  0  0  0  0  0  0  0  0  0  0  0  0  # atno 17371 bound_to 10713
  140.3255  134.7972  157.4286 LP  0  0  0  0  0  0  0  0  0  0  0  0  # atno 17394 bound_to 11000
  140.1061  134.5408  155.8308 LP  0  0  0  0  0  0  0  0  0  0  0  0  # atno 17395 bound_to 11000

$$$$
