AV-unprocessed.smi:422|AV-procd|sdf|2536|dock6
  -GOLD-   2262022493D 1   1.00000     0.00000
 Structure written by MMmdl.
 43 45  0  0  0  0  0  0  0  0  1 V2000
  153.6716  141.0017  160.4413 C   0  0  0  0  0  0  0  0  0  0  0  0
  152.8336  141.6356  159.4307 N   0  0  0  0  0  0  0  0  0  0  0  0
  152.4541  141.1109  158.2419 C   0  0  0  0  0  0  0  0  0  0  0  0
  152.7500  139.9958  157.8129 O   0  0  0  0  0  0  0  0  0  0  0  0
  151.6746  142.0211  157.6127 N   0  0  0  0  0  0  0  0  0  0  0  0
  151.0290  141.8595  156.3130 C   0  0  0  0  0  0  0  0  0  0  0  0
  150.1383  140.5982  156.2796 C   0  0  2  0  0  0  0  0  0  0  0  0
  150.9645  139.4598  156.1463 O   0  0  0  0  0  0  0  0  0  0  0  0
  149.1629  140.6059  155.0933 C   0  0  0  0  0  0  0  0  0  0  0  0
  148.2212  141.6450  155.3009 O   0  0  0  0  0  0  0  0  0  0  0  0
  146.8780  141.2280  155.1345 C   0  0  0  0  0  0  0  0  0  0  0  0
  145.9939  142.3901  154.7265 C   0  0  0  0  0  0  0  0  0  0  0  0
  146.1245  142.9673  153.4455 C   0  0  0  0  0  0  0  0  0  0  0  0
  145.2984  144.0435  153.0663 C   0  0  0  0  0  0  0  0  0  0  0  0
  144.3404  144.5479  153.9667 C   0  0  0  0  0  0  0  0  0  0  0  0
  144.2101  143.9774  155.2474 C   0  0  0  0  0  0  0  0  0  0  0  0
  145.0358  142.9018  155.6288 C   0  0  0  0  0  0  0  0  0  0  0  0
  144.9043  142.3625  156.8646 F   0  0  0  0  0  0  0  0  0  0  0  0
  151.5272  143.1481  158.4344 C   0  0  0  0  0  0  0  0  0  0  0  0
  150.8033  144.3396  158.2536 C   0  0  0  0  0  0  0  0  0  0  0  0
  150.8570  145.2935  159.2964 C   0  0  0  0  0  0  0  0  0  0  0  0
  151.6134  145.0442  160.4714 C   0  0  0  0  0  0  0  0  0  0  0  0
  152.3306  143.8348  160.6289 C   0  0  0  0  0  0  0  0  0  0  0  0
  152.2593  142.9051  159.5773 C   0  0  0  0  0  0  0  0  0  0  0  0
  154.1617  140.1041  160.0614 H   0  0  0  0  0  0  0  0  0  0  0  0
  153.0687  140.7201  161.3050 H   0  0  0  0  0  0  0  0  0  0  0  0
  154.4488  141.6894  160.7758 H   0  0  0  0  0  0  0  0  0  0  0  0
  150.4304  142.7522  156.1281 H   0  0  0  0  0  0  0  0  0  0  0  0
  151.7707  141.8473  155.5122 H   0  0  0  0  0  0  0  0  0  0  0  0
  149.5654  140.4982  157.2029 H   0  0  0  0  0  0  0  0  0  0  0  0
  151.8667  139.7419  156.1545 H   0  0  0  0  0  0  0  0  0  0  0  0
  149.7015  140.7515  154.1554 H   0  0  0  0  0  0  0  0  0  0  0  0
  148.6358  139.6526  155.0275 H   0  0  0  0  0  0  0  0  0  0  0  0
  146.8173  140.4593  154.3626 H   0  0  0  0  0  0  0  0  0  0  0  0
  146.5100  140.7848  156.0609 H   0  0  0  0  0  0  0  0  0  0  0  0
  146.8557  142.5859  152.7479 H   0  0  0  0  0  0  0  0  0  0  0  0
  145.3996  144.4816  152.0842 H   0  0  0  0  0  0  0  0  0  0  0  0
  143.7069  145.3727  153.6758 H   0  0  0  0  0  0  0  0  0  0  0  0
  143.4765  144.3655  155.9385 H   0  0  0  0  0  0  0  0  0  0  0  0
  150.2270  144.5238  157.3601 H   0  0  0  0  0  0  0  0  0  0  0  0
  150.3146  146.2222  159.1968 H   0  0  0  0  0  0  0  0  0  0  0  0
  151.6400  145.7858  161.2558 H   0  0  0  0  0  0  0  0  0  0  0  0
  152.9054  143.6363  161.5213 H   0  0  0  0  0  0  0  0  0  0  0  0
  1  2  1  0  0  0  0
  1 25  1  0  0  0  0
  1 26  1  0  0  0  0
  1 27  1  0  0  0  0
  2 24  1  0  0  0  0
  2  3  1  0  0  0  0
  3  4  2  0  0  0  0
  3  5  1  0  0  0  0
  5  6  1  0  0  0  0
  5 19  1  0  0  0  0
  6  7  1  0  0  0  0
  6 28  1  0  0  0  0
  6 29  1  0  0  0  0
  7  8  1  0  0  0  0
  7  9  1  0  0  0  0
  7 30  1  0  0  0  0
  8 31  1  0  0  0  0
  9 10  1  0  0  0  0
  9 32  1  0  0  0  0
  9 33  1  0  0  0  0
 10 11  1  0  0  0  0
 11 12  1  0  0  0  0
 11 34  1  0  0  0  0
 11 35  1  0  0  0  0
 12 17  1  0  0  0  0
 12 13  2  0  0  0  0
 13 14  1  0  0  0  0
 13 36  1  0  0  0  0
 14 15  2  0  0  0  0
 14 37  1  0  0  0  0
 15 16  1  0  0  0  0
 15 38  1  0  0  0  0
 16 17  2  0  0  0  0
 16 39  1  0  0  0  0
 17 18  1  0  0  0  0
 19 24  2  0  0  0  0
 19 20  1  0  0  0  0
 20 21  2  0  0  0  0
 20 40  1  0  0  0  0
 21 22  1  0  0  0  0
 21 41  1  0  0  0  0
 22 23  2  0  0  0  0
 22 42  1  0  0  0  0
 23 24  1  0  0  0  0
 23 43  1  0  0  0  0
M  END
> <s_m_source_file>
AV-unprocessed.smi

> <i_m_source_file_index>
422

> <i_lp_mmshare_version>
43012

> <i_f3d_flags>
0

> <s_epik_input>
W2NIXTFbY0hdW2NIXVtjSF1jKGMxMiluKFtDSDNdKWMoPU8pbjJbQ0gyXVtDQEhdKFtPSF0pW0NIMl1PW0NIMl1jM1tjSF1bY0hdW2NIXVtjSF1jM0Y=

> <s_epik_cmdline>
J2VwaWtfcHl0aG9uJywgJy1waCcsICc3LjAnLCAnLXRuJywgJzgnLCAnLW1hJywgJzIwMCcsICctbWV0YWxfYmluZGluZycsICctaW1hZScsICc8aW5maWxlLm1hZT4nLCAnLW9tYWUnLCAnPG91dGZpbGUubWFlPic=

> <r_lp_tautomer_probability>
1

> <r_epik_Ionization_Penalty>
1.0795e-06

> <r_epik_Ionization_Penalty_Charging>
2.82452e-09

> <r_epik_Ionization_Penalty_Neutral>
1.07667e-06

> <r_epik_State_Penalty>
-0

> <r_epik_Charging_Adjusted_Penalty>
2.82452e-09

> <i_epik_Tot_Q>
0

> <i_epik_Tot_abs_Q>
0

> <r_epik_Metal_State_Penalty>
-0

> <b_epik_Metal_Only>
0

> <s_lp_Force_Field>
OPLS_2005

> <r_lp_Energy>
45.4687

> <b_lp_Chiralities_Consistent>
1

> <s_lp_Variant>
AV-unprocessed.smi:422-1

> <Gold.Version>
5.8.1

> <Gold.Id.Protein>
6NUR|6NUR_protein|mol2

> <Gold.PLP.Fitness>
54.5265

> <Gold.PLP.PLP>
-52.9536

> <Gold.PLP.part.hbond>
-1.0000

> <Gold.PLP.part.metal>
0.0000

> <Gold.PLP.part.buried>
-9.1281

> <Gold.PLP.part.nonpolar>
-43.4814

> <Gold.PLP.part.repulsive>
0.8990

> <Gold.PLP.ligand.clash>
0.0000

> <Gold.PLP.ligand.torsion>
0.7473

> <Gold.PLP.Chemscore.Hbond>
1.0000

> <Gold.PLP.Chemscore.CHOScore>
0.0000

> <Gold.PLP.Chemscore.Metal>
0.0000

> <Gold.Chemscore.Hbonds>
donor molecule, donor type, donor heavy atom, donor atom, acceptor molecule, acceptor atom, score
      P1  H  7997  8010       L1     4  1.00

> <Gold.PLP.Chemscore.Internal.Correction>
0.0676

> <Gold.Rescore>
     Score         DG    S(hbond)    S(metal)    S(lipo)     H(rot)  DE(clash)    DE(int)     intcor
     16.92     -17.92       0.87        0.00     133.47       2.38       0.23       0.78       ----

> <Gold.Chemscore.Fitness>
16.9162

> <Gold.Chemscore.DG>
-17.9214

> <Gold.Chemscore.ZeroCoef>
-5.4800

> <Gold.Chemscore.Hbond>
0.8742

> <Gold.Chemscore.Metal>
0.0000

> <Gold.Chemscore.Lipo>
133.4739

> <Gold.Chemscore.Internal_Hbond>
0.0000

> <Gold.Chemscore.DEClash>
0.2261

> <Gold.Chemscore.DEInternal>
0.7791

> <Gold.Chemscore.Rot>
2.3809

> <Gold.Chemscore.Internal.Correction>
   9.000000E+99

> <Gold.Chemscore.Hbonds>
donor molecule, donor type, donor heavy atom, donor atom, acceptor molecule, acceptor atom, score
      P1  H  7997  8010       L1     4  0.72

> <Gold.Chemscore.Hbond.Weighted>
-2.9200

> <Gold.Chemscore.Metal.Weighted>
-0.0000

> <Gold.Chemscore.Lipo.Weighted>
-15.6164

> <Gold.Chemscore.Internal_Hbond.Weighted>
0.0000

> <Gold.Chemscore.DEClash.Weighted>
0.2261

> <Gold.Chemscore.DEInternal.Weighted>
0.7791

> <Gold.Chemscore.Rot.Weighted>
6.0951

> <Gold.Chemscore.Internal.Correction.Weighted>
   9.000000E+99

> <Gold.Protein.RotatedTorsions>
[ 6907 6896 6895 6894 ] final -150.21 input  -60.11 | X-H torsion
[ 7974 7965 7964 7962 ] final -128.51 input  175.53 | X-H torsion
[ 8008 7997 7996 7995 ] final   42.57 input   59.86 | X-H torsion
[ 10167 10162 10161 10158 ] final  -45.41 input  -65.29 | X-H torsion
[ 10718 10713 10712 10709 ] final   98.25 input   66.30 | X-H torsion
[ 10763 10752 10751 10750 ] final  116.78 input  -60.55 | X-H torsion
[ 11005 11000 10999 10996 ] final  125.34 input  -57.11 | X-H torsion

> <Gold.Protein.ActiveResidues>
 VAL166  LYS551  ARG553  GLY616  TRP617  ASP618  TYR619  PRO620  LYS621  CYS622 
 ASP623  PHE694  ASN695  SER759  ASP760  ASP761  ALA762  ILE779  LEU786  VAL792 
 PHE793  MET794  SER795  GLU796  ALA797  LYS798  CYS799  TRP800  GLU811  SER814 

> <Gold.Protein.RotatedAtoms>
  151.1952  133.4643  159.2595 H   0  0  0  0  0  0  0  0  0  0  0  0  # atno 6907 bound_to 6896
  151.1123  135.0034  159.8510 H   0  0  0  0  0  0  0  0  0  0  0  0  # atno 6908 bound_to 6896
  152.5451  134.1871  159.8712 H   0  0  0  0  0  0  0  0  0  0  0  0  # atno 6909 bound_to 6896
  144.9663  140.7500  143.4698 H   0  0  0  0  0  0  0  0  0  0  0  0  # atno 7974 bound_to 7965
  155.2884  140.3377  155.4254 H   0  0  0  0  0  0  0  0  0  0  0  0  # atno 8008 bound_to 7997
  156.2057  140.1750  156.7844 H   0  0  0  0  0  0  0  0  0  0  0  0  # atno 8009 bound_to 7997
  154.5618  140.0686  156.8815 H   0  0  0  0  0  0  0  0  0  0  0  0  # atno 8010 bound_to 7997
  140.6859  143.2881  151.3634 H   0  0  0  0  0  0  0  0  0  0  0  0  # atno 10167 bound_to 10162
  157.6899  131.0634  150.4767 H   0  0  0  0  0  0  0  0  0  0  0  0  # atno 10718 bound_to 10713
  153.5424  135.3556  155.2724 H   0  0  0  0  0  0  0  0  0  0  0  0  # atno 10763 bound_to 10752
  154.8716  135.4094  154.3028 H   0  0  0  0  0  0  0  0  0  0  0  0  # atno 10764 bound_to 10752
  153.3738  135.7065  153.6685 H   0  0  0  0  0  0  0  0  0  0  0  0  # atno 10765 bound_to 10752
  139.9402  134.9636  156.8544 H   0  0  0  0  0  0  0  0  0  0  0  0  # atno 11005 bound_to 11000
  145.2624  139.1987  143.4885 LP  0  0  0  0  0  0  0  0  0  0  0  0  # atno 17320 bound_to 7965
  146.3369  140.2557  142.8600 LP  0  0  0  0  0  0  0  0  0  0  0  0  # atno 17321 bound_to 7965
  139.6218  144.0893  152.2398 LP  0  0  0  0  0  0  0  0  0  0  0  0  # atno 17342 bound_to 10162
  140.0339  144.6059  150.7465 LP  0  0  0  0  0  0  0  0  0  0  0  0  # atno 17343 bound_to 10162
  156.5102  130.4137  149.6305 LP  0  0  0  0  0  0  0  0  0  0  0  0  # atno 17370 bound_to 10713
  156.3248  130.7300  151.2218 LP  0  0  0  0  0  0  0  0  0  0  0  0  # atno 17371 bound_to 10713
  140.5972  134.0206  155.7523 LP  0  0  0  0  0  0  0  0  0  0  0  0  # atno 17394 bound_to 11000
  141.1033  133.9734  157.3041 LP  0  0  0  0  0  0  0  0  0  0  0  0  # atno 17395 bound_to 11000

$$$$
