AV-unprocessed.smi:2520|AV-procd|sdf|9911|dock9
  -GOLD-   2272013543D 1   1.00000     0.00000
 Structure written by MMmdl.
 41 44  0  0  0  0  0  0  0  0  1 V2000
  145.5420  138.4122  153.6356 O   0  0  0  0  0  0  0  0  0  0  0  0
  146.4301  137.7221  153.1384 C   0  0  0  0  0  0  0  0  0  0  0  0
  147.7220  138.1101  153.1848 N   0  0  0  0  0  0  0  0  0  0  0  0
  148.3359  139.2695  153.7421 C   0  0  0  0  0  0  0  0  0  0  0  0
  147.5137  140.4161  153.7760 C   0  0  0  0  0  0  0  0  0  0  0  0
  148.0453  141.6062  154.3013 C   0  0  0  0  0  0  0  0  0  0  0  0
  149.3738  141.5711  154.7576 C   0  0  0  0  0  0  0  0  0  0  0  0
  150.1287  140.4528  154.7027 N   0  0  0  0  0  0  0  0  0  0  0  0
  149.6150  139.3250  154.2007 N   0  0  0  0  0  0  0  0  0  0  0  0
  146.1832  136.5524  152.5281 N   0  0  0  0  0  0  0  0  0  0  0  0
  144.8583  135.9734  152.3443 C   0  0  2  0  0  0  0  0  0  0  0  0
  144.2833  135.4003  153.6499 C   0  0  1  0  0  0  0  0  0  0  0  0
  143.0651  136.0289  154.2689 C   0  0  0  0  0  0  0  0  0  0  0  0
  141.9226  135.1697  153.7197 C   0  0  0  0  0  0  0  0  0  0  0  0
  142.4580  134.5664  152.5434 O   0  0  0  0  0  0  0  0  0  0  0  0
  143.8115  134.2147  152.8212 C   0  0  1  0  0  0  0  0  0  0  0  0
  144.8591  134.5505  151.7380 C   0  0  0  0  0  0  0  0  0  0  0  0
  146.1367  133.7071  151.7821 C   0  0  0  0  0  0  0  0  0  0  0  0
  145.8892  132.4980  150.8793 C   0  0  0  0  0  0  0  0  0  0  0  0
  144.8556  132.9653  149.8497 C   0  0  0  0  0  0  0  0  0  0  0  0
  144.4434  134.3777  150.2797 C   0  0  0  0  0  0  0  0  0  0  0  0
  148.3711  137.4444  152.7918 H   0  0  0  0  0  0  0  0  0  0  0  0
  146.4978  140.3874  153.4098 H   0  0  0  0  0  0  0  0  0  0  0  0
  147.4575  142.5107  154.3524 H   0  0  0  0  0  0  0  0  0  0  0  0
  149.8395  142.4527  155.1724 H   0  0  0  0  0  0  0  0  0  0  0  0
  146.9658  136.0405  152.1460 H   0  0  0  0  0  0  0  0  0  0  0  0
  144.1477  136.6338  151.8418 H   0  0  0  0  0  0  0  0  0  0  0  0
  145.0592  135.1086  154.3603 H   0  0  0  0  0  0  0  0  0  0  0  0
  143.0916  136.0125  155.3587 H   0  0  0  0  0  0  0  0  0  0  0  0
  142.9590  137.0666  153.9514 H   0  0  0  0  0  0  0  0  0  0  0  0
  141.6573  134.3858  154.4307 H   0  0  0  0  0  0  0  0  0  0  0  0
  141.0261  135.7503  153.5017 H   0  0  0  0  0  0  0  0  0  0  0  0
  143.9206  133.2495  153.3181 H   0  0  0  0  0  0  0  0  0  0  0  0
  146.9829  134.2694  151.3855 H   0  0  0  0  0  0  0  0  0  0  0  0
  146.4054  133.4026  152.7941 H   0  0  0  0  0  0  0  0  0  0  0  0
  146.8088  132.1427  150.4134 H   0  0  0  0  0  0  0  0  0  0  0  0
  145.4771  131.6755  151.4655 H   0  0  0  0  0  0  0  0  0  0  0  0
  145.2643  132.9681  148.8387 H   0  0  0  0  0  0  0  0  0  0  0  0
  143.9944  132.2961  149.8536 H   0  0  0  0  0  0  0  0  0  0  0  0
  143.3777  134.5450  150.1229 H   0  0  0  0  0  0  0  0  0  0  0  0
  144.9652  135.1089  149.6608 H   0  0  0  0  0  0  0  0  0  0  0  0
  1  2  2  0  0  0  0
  2  3  1  0  0  0  0
  2 10  1  0  0  0  0
  3  4  1  0  0  0  0
  3 22  1  0  0  0  0
  4  9  1  0  0  0  0
  4  5  2  0  0  0  0
  5  6  1  0  0  0  0
  5 23  1  0  0  0  0
  6  7  2  0  0  0  0
  6 24  1  0  0  0  0
  7  8  1  0  0  0  0
  7 25  1  0  0  0  0
  8  9  2  0  0  0  0
 10 11  1  0  0  0  0
 10 26  1  0  0  0  0
 11 17  1  0  0  0  0
 11 12  1  0  0  0  0
 11 27  1  0  0  0  0
 12 16  1  0  0  0  0
 12 13  1  0  0  0  0
 12 28  1  0  0  0  0
 13 14  1  0  0  0  0
 13 29  1  0  0  0  0
 13 30  1  0  0  0  0
 14 15  1  0  0  0  0
 14 31  1  0  0  0  0
 14 32  1  0  0  0  0
 15 16  1  0  0  0  0
 16 17  1  0  0  0  0
 16 33  1  0  0  0  0
 17 21  1  0  0  0  0
 17 18  1  0  0  0  0
 18 19  1  0  0  0  0
 18 34  1  0  0  0  0
 18 35  1  0  0  0  0
 19 20  1  0  0  0  0
 19 36  1  0  0  0  0
 19 37  1  0  0  0  0
 20 21  1  0  0  0  0
 20 38  1  0  0  0  0
 20 39  1  0  0  0  0
 21 40  1  0  0  0  0
 21 41  1  0  0  0  0
M  END
> <s_m_source_file>
AV-unprocessed.smi

> <i_m_source_file_index>
2520

> <i_lp_mmshare_version>
43012

> <i_f3d_flags>
0

> <s_epik_input>
bjFuW2NIXVtjSF1bY0hdYzFbTkhdQyg9TylbTkhdW0NAQEhdMltDQEBIXShbQ0gyXVtDSDJdTzMpW0NASF0zQzI0W0NIMl1bQ0gyXVtDSDJdW0NIMl00

> <s_epik_cmdline>
J2VwaWtfcHl0aG9uJywgJy1waCcsICc3LjAnLCAnLXRuJywgJzgnLCAnLW1hJywgJzIwMCcsICctbWV0YWxfYmluZGluZycsICctaW1hZScsICc8aW5maWxlLm1hZT4nLCAnLW9tYWUnLCAnPG91dGZpbGUubWFlPic=

> <r_lp_tautomer_probability>
1

> <r_epik_Ionization_Penalty>
0.00552561

> <r_epik_Ionization_Penalty_Charging>
0

> <r_epik_Ionization_Penalty_Neutral>
0.00552561

> <r_epik_State_Penalty>
-0

> <r_epik_Charging_Adjusted_Penalty>
0

> <i_epik_Tot_Q>
0

> <i_epik_Tot_abs_Q>
0

> <r_epik_Metal_State_Penalty>
-0

> <b_epik_Metal_Only>
0

> <s_lp_Force_Field>
OPLS_2005

> <r_lp_Energy>
61.2745

> <b_lp_Chiralities_Consistent>
1

> <s_lp_Variant>
AV-unprocessed.smi:2520-5

> <Gold.Version>
5.8.1

> <Gold.Id.Protein>
6NUR|6NUR_protein|mol2

> <Gold.PLP.Fitness>
42.1620

> <Gold.PLP.PLP>
-31.1824

> <Gold.PLP.part.hbond>
-3.0430

> <Gold.PLP.part.metal>
0.0000

> <Gold.PLP.part.buried>
-2.2121

> <Gold.PLP.part.nonpolar>
-26.9431

> <Gold.PLP.part.repulsive>
1.9777

> <Gold.PLP.ligand.clash>
0.0000

> <Gold.PLP.ligand.torsion>
0.2669

> <Gold.PLP.Chemscore.Hbond>
2.7760

> <Gold.PLP.Chemscore.CHOScore>
1.0000

> <Gold.PLP.Chemscore.Metal>
0.0000

> <Gold.Chemscore.Hbonds>
donor molecule, donor type, donor heavy atom, donor atom, acceptor molecule, acceptor atom, score
      L1  H     3    22       P1  7948  1.00
      L1  H    10    26       P1  7948  0.83
      P1  H  7989  7998       L1     8  0.96
      L1  C     7    25       P1  8028  1.00

> <Gold.PLP.Chemscore.Internal.Correction>
0.1854

> <Gold.Rescore>
     Score         DG    S(hbond)    S(metal)    S(lipo)     H(rot)  DE(clash)    DE(int)     intcor
     16.47     -18.27       2.16        0.00      69.38       1.00       0.17       1.63       ----

> <Gold.Chemscore.Fitness>
16.4654

> <Gold.Chemscore.DG>
-18.2687

> <Gold.Chemscore.ZeroCoef>
-5.4800

> <Gold.Chemscore.Hbond>
2.1650

> <Gold.Chemscore.Metal>
0.0000

> <Gold.Chemscore.Lipo>
69.3812

> <Gold.Chemscore.Internal_Hbond>
0.0000

> <Gold.Chemscore.DEClash>
0.1710

> <Gold.Chemscore.DEInternal>
1.6323

> <Gold.Chemscore.Rot>
1.0000

> <Gold.Chemscore.Internal.Correction>
   9.000000E+99

> <Gold.Chemscore.Hbonds>
donor molecule, donor type, donor heavy atom, donor atom, acceptor molecule, acceptor atom, score
      L1  H     3    22       P1  7948  0.99
      L1  H    10    26       P1  7948  0.79
      P1  H  7989  7998       L1     8  0.20

> <Gold.Chemscore.Hbond.Weighted>
-7.2311

> <Gold.Chemscore.Metal.Weighted>
-0.0000

> <Gold.Chemscore.Lipo.Weighted>
-8.1176

> <Gold.Chemscore.Internal_Hbond.Weighted>
0.0000

> <Gold.Chemscore.DEClash.Weighted>
0.1710

> <Gold.Chemscore.DEInternal.Weighted>
1.6323

> <Gold.Chemscore.Rot.Weighted>
2.5600

> <Gold.Chemscore.Internal.Correction.Weighted>
   9.000000E+99

> <Gold.Protein.RotatedTorsions>
[ 6907 6896 6895 6894 ] final  136.31 input  -60.11 | X-H torsion
[ 7974 7965 7964 7962 ] final  162.39 input  175.53 | X-H torsion
[ 8008 7997 7996 7995 ] final  111.43 input   59.86 | X-H torsion
[ 10167 10162 10161 10158 ] final  -16.59 input  -65.29 | X-H torsion
[ 10718 10713 10712 10709 ] final  -51.41 input   66.30 | X-H torsion
[ 10763 10752 10751 10750 ] final  -84.35 input  -60.55 | X-H torsion
[ 11005 11000 10999 10996 ] final    3.99 input  -57.11 | X-H torsion

> <Gold.Protein.ActiveResidues>
 VAL166  LYS551  ARG553  GLY616  TRP617  ASP618  TYR619  PRO620  LYS621  CYS622 
 ASP623  PHE694  ASN695  SER759  ASP760  ASP761  ALA762  ILE779  LEU786  VAL792 
 PHE793  MET794  SER795  GLU796  ALA797  LYS798  CYS799  TRP800  GLU811  SER814 

> <Gold.Protein.RotatedAtoms>
  152.2908  133.5560  159.5556 H   0  0  0  0  0  0  0  0  0  0  0  0  # atno 6907 bound_to 6896
  150.7234  134.0431  159.3781 H   0  0  0  0  0  0  0  0  0  0  0  0  # atno 6908 bound_to 6896
  151.8337  135.0613  160.0490 H   0  0  0  0  0  0  0  0  0  0  0  0  # atno 6909 bound_to 6896
  144.7639  139.8033  143.6322 H   0  0  0  0  0  0  0  0  0  0  0  0  # atno 7974 bound_to 7965
  156.2123  140.3019  155.9761 H   0  0  0  0  0  0  0  0  0  0  0  0  # atno 8008 bound_to 7997
  155.2692  140.0433  157.3022 H   0  0  0  0  0  0  0  0  0  0  0  0  # atno 8009 bound_to 7997
  154.5718  140.2350  155.8190 H   0  0  0  0  0  0  0  0  0  0  0  0  # atno 8010 bound_to 7997
  140.7236  143.5101  150.9761 H   0  0  0  0  0  0  0  0  0  0  0  0  # atno 10167 bound_to 10162
  156.1712  130.4149  149.9644 H   0  0  0  0  0  0  0  0  0  0  0  0  # atno 10718 bound_to 10713
  154.5985  135.5523  153.7350 H   0  0  0  0  0  0  0  0  0  0  0  0  # atno 10763 bound_to 10752
  153.0145  135.6360  154.1748 H   0  0  0  0  0  0  0  0  0  0  0  0  # atno 10764 bound_to 10752
  154.1688  135.2893  155.3067 H   0  0  0  0  0  0  0  0  0  0  0  0  # atno 10765 bound_to 10752
  140.5870  133.9960  155.8072 H   0  0  0  0  0  0  0  0  0  0  0  0  # atno 11005 bound_to 11000
  146.1728  139.4886  142.9916 LP  0  0  0  0  0  0  0  0  0  0  0  0  # atno 17320 bound_to 7965
  145.6532  141.0258  143.1749 LP  0  0  0  0  0  0  0  0  0  0  0  0  # atno 17321 bound_to 7965
  139.8814  143.7067  152.3156 LP  0  0  0  0  0  0  0  0  0  0  0  0  # atno 17342 bound_to 10162
  139.7351  144.7573  151.0741 LP  0  0  0  0  0  0  0  0  0  0  0  0  # atno 17343 bound_to 10162
  156.7443  130.9091  151.3634 LP  0  0  0  0  0  0  0  0  0  0  0  0  # atno 17370 bound_to 10713
  157.6804  130.9134  150.0253 LP  0  0  0  0  0  0  0  0  0  0  0  0  # atno 17371 bound_to 10713
  141.0960  133.9843  157.3160 LP  0  0  0  0  0  0  0  0  0  0  0  0  # atno 17394 bound_to 11000
  139.9291  135.0200  156.8339 LP  0  0  0  0  0  0  0  0  0  0  0  0  # atno 17395 bound_to 11000

$$$$
