AV-unprocessed.smi:1244|AV-procd|sdf|5231|dock3
  -GOLD-   22720 4333D 1   1.00000     0.00000
 Structure written by MMmdl.
 56 58  0  0  0  0  0  0  0  0  3 V2000
  147.6301  140.6184  155.7245 C   0  0  0  0  0  0  0  0  0  0  0  0
  148.7391  141.1337  154.7895 C   0  0  2  0  0  0  0  0  0  0  0  0
  149.5880  140.0104  154.1615 C   0  0  0  0  0  0  0  0  0  0  0  0
  150.5110  139.4139  155.1563 N   0  3  1  0  0  0  0  0  0  0  0  0
  151.2938  138.2839  154.5964 C   0  0  0  0  0  0  0  0  0  0  0  0
  151.0142  136.9573  155.3284 C   0  0  0  0  0  0  0  0  0  0  0  0
  150.1384  136.0862  154.5531 N   0  0  0  0  0  0  0  0  0  0  0  0
  149.8600  134.8109  154.8587 C   0  0  0  0  0  0  0  0  0  0  0  0
  150.2923  134.2437  155.8619 O   0  0  0  0  0  0  0  0  0  0  0  0
  149.0766  134.2437  153.9259 N   0  0  0  0  0  0  0  0  0  0  0  0
  148.6367  132.8910  153.8594 C   0  0  0  0  0  0  0  0  0  0  0  0
  149.2211  131.8875  154.6742 C   0  0  0  0  0  0  0  0  0  0  0  0
  148.7824  130.5540  154.5716 C   0  0  0  0  0  0  0  0  0  0  0  0
  147.7617  130.2429  153.6575 C   0  0  0  0  0  0  0  0  0  0  0  0
  147.2117  131.2223  152.9107 N   0  3  0  0  0  0  0  0  0  0  0  0
  147.5796  132.5265  152.9747 C   0  0  0  0  0  0  0  0  0  0  0  0
  146.9032  133.4435  152.1382 N   0  0  0  0  0  0  0  0  0  0  0  0
  146.0716  132.9667  151.0390 C   0  0  0  0  0  0  0  0  0  0  0  0
  145.2549  134.1810  150.6056 C   0  0  0  0  0  0  0  0  0  0  0  0
  145.0144  134.9023  151.9285 C   0  0  0  0  0  0  0  0  0  0  0  0
  146.2916  134.6290  152.7302 C   0  0  0  0  0  0  0  0  0  0  0  0
  151.3483  140.4696  155.7748 C   0  0  0  0  0  0  0  0  0  0  0  0
  150.4610  141.5526  156.4140 C   0  0  1  0  0  0  0  0  0  0  0  0
  151.2881  142.7068  156.9909 C   0  0  0  0  0  0  0  0  0  0  0  0
  149.5836  142.0912  155.4285 O   0  0  0  0  0  0  0  0  0  0  0  0
  146.9218  139.9954  155.1776 H   0  0  0  0  0  0  0  0  0  0  0  0
  147.0707  141.4477  156.1578 H   0  0  0  0  0  0  0  0  0  0  0  0
  148.0240  140.0165  156.5429 H   0  0  0  0  0  0  0  0  0  0  0  0
  148.2420  141.6658  153.9778 H   0  0  0  0  0  0  0  0  0  0  0  0
  148.9352  139.2429  153.7433 H   0  0  0  0  0  0  0  0  0  0  0  0
  150.1729  140.4126  153.3325 H   0  0  0  0  0  0  0  0  0  0  0  0
  151.0267  138.1601  153.5459 H   0  0  0  0  0  0  0  0  0  0  0  0
  152.3584  138.5227  154.6178 H   0  0  0  0  0  0  0  0  0  0  0  0
  151.9383  136.4076  155.5028 H   0  0  0  0  0  0  0  0  0  0  0  0
  150.5769  137.1479  156.3102 H   0  0  0  0  0  0  0  0  0  0  0  0
  149.7396  136.4750  153.7106 H   0  0  0  0  0  0  0  0  0  0  0  0
  148.8782  134.8063  153.1115 H   0  0  0  0  0  0  0  0  0  0  0  0
  150.0003  132.1219  155.3835 H   0  0  0  0  0  0  0  0  0  0  0  0
  149.2247  129.7818  155.1838 H   0  0  0  0  0  0  0  0  0  0  0  0
  147.3647  129.2494  153.5064 H   0  0  0  0  0  0  0  0  0  0  0  0
  146.6772  132.5731  150.2223 H   0  0  0  0  0  0  0  0  0  0  0  0
  145.4002  132.1786  151.3823 H   0  0  0  0  0  0  0  0  0  0  0  0
  145.8457  134.8114  149.9397 H   0  0  0  0  0  0  0  0  0  0  0  0
  144.3328  133.9119  150.0900 H   0  0  0  0  0  0  0  0  0  0  0  0
  144.8124  135.9663  151.8035 H   0  0  0  0  0  0  0  0  0  0  0  0
  144.1593  134.4560  152.4378 H   0  0  0  0  0  0  0  0  0  0  0  0
  146.0726  134.4940  153.7903 H   0  0  0  0  0  0  0  0  0  0  0  0
  146.9808  135.4678  152.6281 H   0  0  0  0  0  0  0  0  0  0  0  0
  151.9959  140.0432  156.5401 H   0  0  0  0  0  0  0  0  0  0  0  0
  151.9978  140.9105  155.0168 H   0  0  0  0  0  0  0  0  0  0  0  0
  149.8801  141.1164  157.2269 H   0  0  0  0  0  0  0  0  0  0  0  0
  151.9751  142.3527  157.7600 H   0  0  0  0  0  0  0  0  0  0  0  0
  150.6429  143.4597  157.4442 H   0  0  0  0  0  0  0  0  0  0  0  0
  151.8778  143.1973  156.2158 H   0  0  0  0  0  0  0  0  0  0  0  0
  149.9290  139.0288  155.8866 H   0  0  0  0  0  0  0  0  0  0  0  0
  146.4666  130.9657  152.2630 H   0  0  0  0  0  0  0  0  0  0  0  0
  1  2  1  0  0  0  0
  1 26  1  0  0  0  0
  1 27  1  0  0  0  0
  1 28  1  0  0  0  0
  2 25  1  0  0  0  0
  2  3  1  0  0  0  0
  2 29  1  0  0  0  0
  3  4  1  0  0  0  0
  3 30  1  0  0  0  0
  3 31  1  0  0  0  0
  4  5  1  0  0  0  0
  4 22  1  0  0  0  0
  4 55  1  0  0  0  0
  5  6  1  0  0  0  0
  5 32  1  0  0  0  0
  5 33  1  0  0  0  0
  6  7  1  0  0  0  0
  6 34  1  0  0  0  0
  6 35  1  0  0  0  0
  7  8  1  0  0  0  0
  7 36  1  0  0  0  0
  8  9  2  0  0  0  0
  8 10  1  0  0  0  0
 10 11  1  0  0  0  0
 10 37  1  0  0  0  0
 11 16  1  0  0  0  0
 11 12  2  0  0  0  0
 12 13  1  0  0  0  0
 12 38  1  0  0  0  0
 13 14  2  0  0  0  0
 13 39  1  0  0  0  0
 14 15  1  0  0  0  0
 14 40  1  0  0  0  0
 15 16  2  0  0  0  0
 15 56  1  0  0  0  0
 16 17  1  0  0  0  0
 17 21  1  0  0  0  0
 17 18  1  0  0  0  0
 18 19  1  0  0  0  0
 18 41  1  0  0  0  0
 18 42  1  0  0  0  0
 19 20  1  0  0  0  0
 19 43  1  0  0  0  0
 19 44  1  0  0  0  0
 20 21  1  0  0  0  0
 20 45  1  0  0  0  0
 20 46  1  0  0  0  0
 21 47  1  0  0  0  0
 21 48  1  0  0  0  0
 22 23  1  0  0  0  0
 22 49  1  0  0  0  0
 22 50  1  0  0  0  0
 23 24  1  0  0  0  0
 23 25  1  0  0  0  0
 23 51  1  0  0  0  0
 24 52  1  0  0  0  0
 24 53  1  0  0  0  0
 24 54  1  0  0  0  0
M  CHG  1   4   1
M  CHG  1  15   1
M  END
> <s_m_source_file>
AV-unprocessed.smi

> <i_m_source_file_index>
1244

> <i_lp_mmshare_version>
43012

> <i_f3d_flags>
0

> <s_epik_input>
W0NIM11bQ0BASF0xW0NIMl1OKFtDSDJdW0NASF0oTzEpW0NIM10pW0NIMl1bQ0gyXVtOSF1DKD1PKVtOSF1jMltjSF1bY0hdW2NIXW5jMk4zW0NIMl1bQ0gyXVtDSDJdW0NIMl0z

> <s_epik_cmdline>
J2VwaWtfcHl0aG9uJywgJy1waCcsICc3LjAnLCAnLXRuJywgJzgnLCAnLW1hJywgJzIwMCcsICctbWV0YWxfYmluZGluZycsICctaW1hZScsICc8aW5maWxlLm1hZT4nLCAnLW9tYWUnLCAnPG91dGZpbGUubWFlPic=

> <r_lp_tautomer_probability>
0.999994

> <r_epik_Ionization_Penalty>
1.81601

> <r_epik_Ionization_Penalty_Charging>
1.81599

> <r_epik_Ionization_Penalty_Neutral>
2.01972e-05

> <r_epik_State_Penalty>
1.85672

> <r_epik_Charging_Adjusted_Penalty>
3.6727

> <i_epik_Tot_Q>
2

> <i_epik_Tot_abs_Q>
2

> <r_epik_Metal_State_Penalty>
1.93796

> <b_epik_Metal_Only>
0

> <s_lp_Force_Field>
OPLS_2005

> <r_lp_Energy>
54.4997

> <b_lp_Chiralities_Consistent>
1

> <s_lp_Variant>
AV-unprocessed.smi:1244-11

> <Gold.Version>
5.8.1

> <Gold.Id.Protein>
6NUR|6NUR_protein|mol2

> <Gold.PLP.Fitness>
43.9560

> <Gold.PLP.PLP>
-40.9417

> <Gold.PLP.part.hbond>
-3.6897

> <Gold.PLP.part.metal>
0.0000

> <Gold.PLP.part.buried>
-5.3452

> <Gold.PLP.part.nonpolar>
-34.7154

> <Gold.PLP.part.repulsive>
2.2958

> <Gold.PLP.ligand.clash>
0.0000

> <Gold.PLP.ligand.torsion>
1.3415

> <Gold.PLP.Chemscore.Hbond>
1.7440

> <Gold.PLP.Chemscore.CHOScore>
0.0000

> <Gold.PLP.Chemscore.Metal>
0.0000

> <Gold.Chemscore.Hbonds>
donor molecule, donor type, donor heavy atom, donor atom, acceptor molecule, acceptor atom, score
      L1  H     7    36       P1  7948  0.99
      L1  H    10    37       P1  7948  0.90

> <Gold.PLP.Chemscore.Internal.Correction>
0.4652

> <Gold.Rescore>
     Score         DG    S(hbond)    S(metal)    S(lipo)     H(rot)  DE(clash)    DE(int)     intcor
     12.91     -15.74       1.22        0.00      88.57       1.63       0.18       2.66       ----

> <Gold.Chemscore.Fitness>
12.9081

> <Gold.Chemscore.DG>
-15.7435

> <Gold.Chemscore.ZeroCoef>
-5.4800

> <Gold.Chemscore.Hbond>
1.2190

> <Gold.Chemscore.Metal>
0.0000

> <Gold.Chemscore.Lipo>
88.5714

> <Gold.Chemscore.Internal_Hbond>
0.0000

> <Gold.Chemscore.DEClash>
0.1782

> <Gold.Chemscore.DEInternal>
2.6572

> <Gold.Chemscore.Rot>
1.6293

> <Gold.Chemscore.Internal.Correction>
   9.000000E+99

> <Gold.Chemscore.Hbonds>
donor molecule, donor type, donor heavy atom, donor atom, acceptor molecule, acceptor atom, score
      L1  H     7    36       P1  7948  0.41
      L1  H    10    37       P1  7948  0.18

> <Gold.Chemscore.Hbond.Weighted>
-4.0715

> <Gold.Chemscore.Metal.Weighted>
-0.0000

> <Gold.Chemscore.Lipo.Weighted>
-10.3629

> <Gold.Chemscore.Internal_Hbond.Weighted>
0.0000

> <Gold.Chemscore.DEClash.Weighted>
0.1782

> <Gold.Chemscore.DEInternal.Weighted>
2.6572

> <Gold.Chemscore.Rot.Weighted>
4.1709

> <Gold.Chemscore.Internal.Correction.Weighted>
   9.000000E+99

> <Gold.Protein.RotatedTorsions>
[ 6907 6896 6895 6894 ] final   53.08 input  -60.11 | X-H torsion
[ 7974 7965 7964 7962 ] final -123.90 input  175.53 | X-H torsion
[ 8008 7997 7996 7995 ] final   28.74 input   59.86 | X-H torsion
[ 10167 10162 10161 10158 ] final  -32.17 input  -65.29 | X-H torsion
[ 10718 10713 10712 10709 ] final  158.33 input   66.30 | X-H torsion
[ 10763 10752 10751 10750 ] final  -10.43 input  -60.55 | X-H torsion
[ 11005 11000 10999 10996 ] final  -74.16 input  -57.11 | X-H torsion

> <Gold.Protein.ActiveResidues>
 VAL166  LYS551  ARG553  GLY616  TRP617  ASP618  TYR619  PRO620  LYS621  CYS622 
 ASP623  PHE694  ASN695  SER759  ASP760  ASP761  ALA762  ILE779  LEU786  VAL792 
 PHE793  MET794  SER795  GLU796  ALA797  LYS798  CYS799  TRP800  GLU811  SER814 

> <Gold.Protein.RotatedAtoms>
  152.3300  134.7271  160.0291 H   0  0  0  0  0  0  0  0  0  0  0  0  # atno 6907 bound_to 6896
  151.7691  133.3334  159.3447 H   0  0  0  0  0  0  0  0  0  0  0  0  # atno 6908 bound_to 6896
  150.7417  134.5967  159.6060 H   0  0  0  0  0  0  0  0  0  0  0  0  # atno 6909 bound_to 6896
  145.0137  140.7928  143.4423 H   0  0  0  0  0  0  0  0  0  0  0  0  # atno 7974 bound_to 7965
  155.0635  140.3192  155.4653 H   0  0  0  0  0  0  0  0  0  0  0  0  # atno 8008 bound_to 7997
  156.2807  140.2124  156.5707 H   0  0  0  0  0  0  0  0  0  0  0  0  # atno 8009 bound_to 7997
  154.7113  140.0498  157.0540 H   0  0  0  0  0  0  0  0  0  0  0  0  # atno 8010 bound_to 7997
  140.7225  143.3715  151.1770 H   0  0  0  0  0  0  0  0  0  0  0  0  # atno 10167 bound_to 10162
  157.1793  131.0628  151.2140 H   0  0  0  0  0  0  0  0  0  0  0  0  # atno 10718 bound_to 10713
  153.4691  135.7016  153.6004 H   0  0  0  0  0  0  0  0  0  0  0  0  # atno 10763 bound_to 10752
  153.4265  135.3813  155.2144 H   0  0  0  0  0  0  0  0  0  0  0  0  # atno 10764 bound_to 10752
  154.8725  135.3940  154.4127 H   0  0  0  0  0  0  0  0  0  0  0  0  # atno 10765 bound_to 10752
  141.1632  133.6902  156.7322 H   0  0  0  0  0  0  0  0  0  0  0  0  # atno 11005 bound_to 11000
  145.1988  139.2262  143.5204 LP  0  0  0  0  0  0  0  0  0  0  0  0  # atno 17320 bound_to 7965
  146.3474  140.1801  142.8589 LP  0  0  0  0  0  0  0  0  0  0  0  0  # atno 17321 bound_to 7965
  139.7287  143.9108  152.3012 LP  0  0  0  0  0  0  0  0  0  0  0  0  # atno 17342 bound_to 10162
  139.8889  144.6976  150.8793 LP  0  0  0  0  0  0  0  0  0  0  0  0  # atno 17343 bound_to 10162
  157.3968  130.7312  149.6738 LP  0  0  0  0  0  0  0  0  0  0  0  0  # atno 17370 bound_to 10713
  155.9727  130.4131  150.4067 LP  0  0  0  0  0  0  0  0  0  0  0  0  # atno 17371 bound_to 10713
  140.2737  134.8372  157.3870 LP  0  0  0  0  0  0  0  0  0  0  0  0  # atno 17394 bound_to 11000
  140.1498  134.4865  155.7970 LP  0  0  0  0  0  0  0  0  0  0  0  0  # atno 17395 bound_to 11000

$$$$
