AV-unprocessed.smi:2725|AV-procd|sdf|10518|dock8
  -GOLD-   2272014563D 1   1.00000     0.00000
 Structure written by MMmdl.
 45 46  0  0  0  0  0  0  0  0  2 V2000
  151.0641  139.9819  154.5666 O   0  0  0  0  0  0  0  0  0  0  0  0
  150.4347  140.0588  155.6218 C   0  0  0  0  0  0  0  0  0  0  0  0
  150.3857  141.3744  156.4046 C   0  0  0  0  0  0  0  0  0  0  0  0
  151.3883  141.4137  157.5735 C   0  0  0  0  0  0  0  0  0  0  0  0
  151.3443  142.7331  158.3644 C   0  0  0  0  0  0  0  0  0  0  0  0
  151.5830  143.9889  157.5187 C   0  0  0  0  0  0  0  0  0  0  0  0
  152.0521  145.0661  158.5051 C   0  0  0  0  0  0  0  0  0  0  0  0
  152.5106  144.3260  159.7708 C   0  0  0  0  0  0  0  0  0  0  0  0
  152.4249  142.8331  159.4427 C   0  0  0  0  0  0  0  0  0  0  0  0
  149.7590  139.0261  156.1509 N   0  0  0  0  0  0  0  0  0  0  0  0
  149.6610  137.6887  155.5686 C   0  0  1  0  0  0  0  0  0  0  0  0
  148.8191  137.7437  154.2729 C   0  0  0  0  0  0  0  0  0  0  0  0
  149.5041  138.4344  153.2493 O   0  0  0  0  0  0  0  0  0  0  0  0
  151.0875  137.1322  155.3694 C   0  0  0  0  0  0  0  0  0  0  0  0
  151.1382  135.6338  155.1276 C   0  0  0  0  0  0  0  0  0  0  0  0
  151.7443  134.7506  156.0472 C   0  0  0  0  0  0  0  0  0  0  0  0
  151.7479  133.3666  155.7748 C   0  0  0  0  0  0  0  0  0  0  0  0
  151.1455  132.8948  154.5903 C   0  0  0  0  0  0  0  0  0  0  0  0
  150.5533  133.8204  153.7073 C   0  0  0  0  0  0  0  0  0  0  0  0
  150.5706  135.1386  154.0033 N   0  3  0  0  0  0  0  0  0  0  0  0
  150.5863  142.1894  155.7088 H   0  0  0  0  0  0  0  0  0  0  0  0
  149.3756  141.5302  156.7864 H   0  0  0  0  0  0  0  0  0  0  0  0
  151.1735  140.5891  158.2550 H   0  0  0  0  0  0  0  0  0  0  0  0
  152.4011  141.2465  157.2041 H   0  0  0  0  0  0  0  0  0  0  0  0
  150.3728  142.8248  158.8530 H   0  0  0  0  0  0  0  0  0  0  0  0
  152.3722  143.8006  156.7894 H   0  0  0  0  0  0  0  0  0  0  0  0
  150.6936  144.2942  156.9667 H   0  0  0  0  0  0  0  0  0  0  0  0
  152.8562  145.6640  158.0746 H   0  0  0  0  0  0  0  0  0  0  0  0
  151.2347  145.7463  158.7474 H   0  0  0  0  0  0  0  0  0  0  0  0
  153.5161  144.6157  160.0783 H   0  0  0  0  0  0  0  0  0  0  0  0
  151.8369  144.5618  160.5954 H   0  0  0  0  0  0  0  0  0  0  0  0
  152.1983  142.2270  160.3203 H   0  0  0  0  0  0  0  0  0  0  0  0
  153.3820  142.4927  159.0443 H   0  0  0  0  0  0  0  0  0  0  0  0
  149.2712  139.1809  157.0213 H   0  0  0  0  0  0  0  0  0  0  0  0
  149.1516  137.0530  156.2963 H   0  0  0  0  0  0  0  0  0  0  0  0
  148.6278  136.7387  153.8949 H   0  0  0  0  0  0  0  0  0  0  0  0
  147.8467  138.2038  154.4498 H   0  0  0  0  0  0  0  0  0  0  0  0
  149.8161  137.8036  152.6181 H   0  0  0  0  0  0  0  0  0  0  0  0
  151.5777  137.6456  154.5407 H   0  0  0  0  0  0  0  0  0  0  0  0
  151.6911  137.3463  156.2529 H   0  0  0  0  0  0  0  0  0  0  0  0
  152.1972  135.1271  156.9530 H   0  0  0  0  0  0  0  0  0  0  0  0
  152.2060  132.6755  156.4672 H   0  0  0  0  0  0  0  0  0  0  0  0
  151.1365  131.8385  154.3639 H   0  0  0  0  0  0  0  0  0  0  0  0
  150.0682  133.5484  152.7812 H   0  0  0  0  0  0  0  0  0  0  0  0
  150.1312  135.7894  153.3521 H   0  0  0  0  0  0  0  0  0  0  0  0
  1  2  2  0  0  0  0
  2  3  1  0  0  0  0
  2 10  1  0  0  0  0
  3  4  1  0  0  0  0
  3 21  1  0  0  0  0
  3 22  1  0  0  0  0
  4  5  1  0  0  0  0
  4 23  1  0  0  0  0
  4 24  1  0  0  0  0
  5  9  1  0  0  0  0
  5  6  1  0  0  0  0
  5 25  1  0  0  0  0
  6  7  1  0  0  0  0
  6 26  1  0  0  0  0
  6 27  1  0  0  0  0
  7  8  1  0  0  0  0
  7 28  1  0  0  0  0
  7 29  1  0  0  0  0
  8  9  1  0  0  0  0
  8 30  1  0  0  0  0
  8 31  1  0  0  0  0
  9 32  1  0  0  0  0
  9 33  1  0  0  0  0
 10 11  1  0  0  0  0
 10 34  1  0  0  0  0
 11 12  1  0  0  0  0
 11 14  1  0  0  0  0
 11 35  1  0  0  0  0
 12 13  1  0  0  0  0
 12 36  1  0  0  0  0
 12 37  1  0  0  0  0
 13 38  1  0  0  0  0
 14 15  1  0  0  0  0
 14 39  1  0  0  0  0
 14 40  1  0  0  0  0
 15 20  1  0  0  0  0
 15 16  2  0  0  0  0
 16 17  1  0  0  0  0
 16 41  1  0  0  0  0
 17 18  2  0  0  0  0
 17 42  1  0  0  0  0
 18 19  1  0  0  0  0
 18 43  1  0  0  0  0
 19 20  2  0  0  0  0
 19 44  1  0  0  0  0
 20 45  1  0  0  0  0
M  CHG  1  20   1
M  END
> <s_m_source_file>
AV-unprocessed.smi

> <i_m_source_file_index>
2725

> <i_lp_mmshare_version>
43012

> <i_f3d_flags>
0

> <s_epik_input>
W0NIMl0xW0NIMl1bQ0gyXVtDSDJdW0NIXTFbQ0gyXVtDSDJdQyg9TylbTkhdW0NASF0oW0NIMl1bT0hdKVtDSDJdYzJbY0hdW2NIXVtjSF1bY0hdbjI=

> <s_epik_cmdline>
J2VwaWtfcHl0aG9uJywgJy1waCcsICc3LjAnLCAnLXRuJywgJzgnLCAnLW1hJywgJzIwMCcsICctbWV0YWxfYmluZGluZycsICctaW1hZScsICc8aW5maWxlLm1hZT4nLCAnLW9tYWUnLCAnPG91dGZpbGUubWFlPic=

> <r_epik_Ionization_Penalty>
1.87189

> <r_epik_Ionization_Penalty_Charging>
1.87189

> <r_epik_Ionization_Penalty_Neutral>
6.79411e-08

> <r_epik_State_Penalty>
1.99097

> <r_epik_Charging_Adjusted_Penalty>
3.86287

> <i_epik_Tot_Q>
1

> <i_epik_Tot_abs_Q>
1

> <r_epik_Metal_State_Penalty>
2.01578

> <b_epik_Metal_Only>
0

> <s_lp_Force_Field>
OPLS_2005

> <r_lp_Energy>
28.0453

> <b_lp_Chiralities_Consistent>
1

> <s_lp_Variant>
AV-unprocessed.smi:2725-4

> <Gold.Version>
5.8.1

> <Gold.Id.Protein>
6NUR|6NUR_protein|mol2

> <Gold.PLP.Fitness>
50.8164

> <Gold.PLP.PLP>
-39.7705

> <Gold.PLP.part.hbond>
-4.0438

> <Gold.PLP.part.metal>
0.0000

> <Gold.PLP.part.buried>
-4.8085

> <Gold.PLP.part.nonpolar>
-31.3768

> <Gold.PLP.part.repulsive>
0.1102

> <Gold.PLP.ligand.clash>
0.0000

> <Gold.PLP.ligand.torsion>
0.5101

> <Gold.PLP.Chemscore.Hbond>
3.9840

> <Gold.PLP.Chemscore.CHOScore>
0.0000

> <Gold.PLP.Chemscore.Metal>
0.0000

> <Gold.Chemscore.Hbonds>
donor molecule, donor type, donor heavy atom, donor atom, acceptor molecule, acceptor atom, score
      L1  H    13    38       P1  7948  0.66
      L1  H    20    45       P1  7948  0.30
      P1  H  7989  7998       L1     1  0.93

> <Gold.PLP.Chemscore.Internal.Correction>
0.1141

> <Gold.Rescore>
     Score         DG    S(hbond)    S(metal)    S(lipo)     H(rot)  DE(clash)    DE(int)     intcor
     18.43     -20.30       2.82        0.00     102.67       2.58       0.01       1.86       ----

> <Gold.Chemscore.Fitness>
18.4252

> <Gold.Chemscore.DG>
-20.3008

> <Gold.Chemscore.ZeroCoef>
-5.4800

> <Gold.Chemscore.Hbond>
2.8163

> <Gold.Chemscore.Metal>
0.0000

> <Gold.Chemscore.Lipo>
102.6685

> <Gold.Chemscore.Internal_Hbond>
0.0000

> <Gold.Chemscore.DEClash>
0.0110

> <Gold.Chemscore.DEInternal>
1.8646

> <Gold.Chemscore.Rot>
2.5773

> <Gold.Chemscore.Internal.Correction>
   9.000000E+99

> <Gold.Chemscore.Hbonds>
donor molecule, donor type, donor heavy atom, donor atom, acceptor molecule, acceptor atom, score
      L1  H    13    38       P1  7948  0.20
      P1  H  7989  7998       L1     1  0.89

> <Gold.Chemscore.Hbond.Weighted>
-9.4064

> <Gold.Chemscore.Metal.Weighted>
-0.0000

> <Gold.Chemscore.Lipo.Weighted>
-12.0122

> <Gold.Chemscore.Internal_Hbond.Weighted>
0.0000

> <Gold.Chemscore.DEClash.Weighted>
0.0110

> <Gold.Chemscore.DEInternal.Weighted>
1.8646

> <Gold.Chemscore.Rot.Weighted>
6.5978

> <Gold.Chemscore.Internal.Correction.Weighted>
   9.000000E+99

> <Gold.Protein.RotatedTorsions>
[ 6907 6896 6895 6894 ] final   96.67 input  -60.11 | X-H torsion
[ 7974 7965 7964 7962 ] final  126.78 input  175.53 | X-H torsion
[ 8008 7997 7996 7995 ] final  -78.82 input   59.86 | X-H torsion
[ 10167 10162 10161 10158 ] final -148.04 input  -65.29 | X-H torsion
[ 10718 10713 10712 10709 ] final  -32.73 input   66.30 | X-H torsion
[ 10763 10752 10751 10750 ] final -128.40 input  -60.55 | X-H torsion
[ 11005 11000 10999 10996 ] final   31.17 input  -57.11 | X-H torsion

> <Gold.Protein.ActiveResidues>
 VAL166  LYS551  ARG553  GLY616  TRP617  ASP618  TYR619  PRO620  LYS621  CYS622 
 ASP623  PHE694  ASN695  SER759  ASP760  ASP761  ALA762  ILE779  LEU786  VAL792 
 PHE793  MET794  SER795  GLU796  ALA797  LYS798  CYS799  TRP800  GLU811  SER814 

> <Gold.Protein.RotatedAtoms>
  152.5432  134.0851  159.8252 H   0  0  0  0  0  0  0  0  0  0  0  0  # atno 6907 bound_to 6896
  151.0948  133.5281  159.2620 H   0  0  0  0  0  0  0  0  0  0  0  0  # atno 6908 bound_to 6896
  151.2058  135.0470  159.8945 H   0  0  0  0  0  0  0  0  0  0  0  0  # atno 6909 bound_to 6896
  145.0579  139.3829  143.5021 H   0  0  0  0  0  0  0  0  0  0  0  0  # atno 7974 bound_to 7965
  154.5726  140.0688  156.8986 H   0  0  0  0  0  0  0  0  0  0  0  0  # atno 8008 bound_to 7997
  155.2607  140.3358  155.4255 H   0  0  0  0  0  0  0  0  0  0  0  0  # atno 8009 bound_to 7997
  156.2129  140.1766  156.7639 H   0  0  0  0  0  0  0  0  0  0  0  0  # atno 8010 bound_to 7997
  139.7567  143.8437  152.2598 H   0  0  0  0  0  0  0  0  0  0  0  0  # atno 10167 bound_to 10162
  156.3712  130.4340  149.7543 H   0  0  0  0  0  0  0  0  0  0  0  0  # atno 10718 bound_to 10713
  154.8756  135.3929  154.3751 H   0  0  0  0  0  0  0  0  0  0  0  0  # atno 10763 bound_to 10752
  153.4506  135.7028  153.6117 H   0  0  0  0  0  0  0  0  0  0  0  0  # atno 10764 bound_to 10752
  153.4658  135.3801  155.2332 H   0  0  0  0  0  0  0  0  0  0  0  0  # atno 10765 bound_to 10752
  140.2867  134.2911  155.7786 H   0  0  0  0  0  0  0  0  0  0  0  0  # atno 11005 bound_to 11000
  146.3522  140.0262  142.8654 LP  0  0  0  0  0  0  0  0  0  0  0  0  # atno 17320 bound_to 7965
  145.1445  140.9590  143.4469 LP  0  0  0  0  0  0  0  0  0  0  0  0  # atno 17321 bound_to 7965
  139.8431  144.7200  150.9306 LP  0  0  0  0  0  0  0  0  0  0  0  0  # atno 17342 bound_to 10162
  140.7803  143.3965  151.1220 LP  0  0  0  0  0  0  0  0  0  0  0  0  # atno 17343 bound_to 10162
  156.4670  130.7978  151.2997 LP  0  0  0  0  0  0  0  0  0  0  0  0  # atno 17370 bound_to 10713
  157.7484  131.0048  150.3089 LP  0  0  0  0  0  0  0  0  0  0  0  0  # atno 17371 bound_to 10713
  141.2153  133.7559  156.9562 LP  0  0  0  0  0  0  0  0  0  0  0  0  # atno 17394 bound_to 11000
  140.1233  134.9403  157.2234 LP  0  0  0  0  0  0  0  0  0  0  0  0  # atno 17395 bound_to 11000

$$$$
