AV-unprocessed.smi:2887|AV-procd|sdf|11099|dock2
  -GOLD-   2272015563D 1   1.00000     0.00000
 Structure written by MMmdl.
 38 39  0  0  0  0  0  0  0  0  3 V2000
  147.3195  137.5472  154.1286 O   0  0  0  0  0  0  0  0  0  0  0  0
  146.9956  138.0756  153.0658 C   0  0  0  0  0  0  0  0  0  0  0  0
  147.4892  139.4994  152.7626 C   0  0  0  0  0  0  0  0  0  0  0  0
  148.6520  139.9168  153.5445 N   0  0  0  0  0  0  0  0  0  0  0  0
  148.5749  140.9573  154.4644 C   0  0  0  0  0  0  0  0  0  0  0  0
  149.5917  141.3337  155.2620 C   0  0  0  0  0  0  0  0  0  0  0  0
  150.8802  140.6159  155.1835 C   0  0  0  0  0  0  0  0  0  0  0  0
  151.8153  140.9280  155.9190 O   0  0  0  0  0  0  0  0  0  0  0  0
  150.9755  139.5046  154.1914 C   0  0  0  0  0  0  0  0  0  0  0  0
  152.1583  138.7013  153.9545 N   0  3  0  0  0  0  0  0  0  0  0  0
  153.2371  139.0777  154.4036 O   0  0  0  0  0  0  0  0  0  0  0  0
  152.0476  137.6623  153.3121 O   0  5  0  0  0  0  0  0  0  0  0  0
  149.8672  139.2379  153.4547 C   0  0  0  0  0  0  0  0  0  0  0  0
  146.2088  137.4726  152.1575 N   0  0  0  0  0  0  0  0  0  0  0  0
  145.5624  136.1721  152.3067 C   0  0  0  0  0  0  0  0  0  0  0  0
  145.0129  135.6694  150.9600 C   0  0  0  0  0  0  0  0  0  0  0  0
  145.0740  134.1599  150.8086 C   0  0  0  0  0  0  0  0  0  0  0  0
  144.0388  133.3354  150.6565 C   0  0  0  0  0  0  0  0  0  0  0  0
  144.4567  131.8951  150.5453 C   0  0  0  0  0  0  0  0  0  0  0  0
  145.9966  131.9421  150.6610 C   0  0  0  0  0  0  0  0  0  0  0  0
  146.3909  133.4278  150.8201 C   0  0  0  0  0  0  0  0  0  0  0  0
  147.7267  139.5665  151.6997 H   0  0  0  0  0  0  0  0  0  0  0  0
  146.6642  140.1935  152.9295 H   0  0  0  0  0  0  0  0  0  0  0  0
  147.6171  141.4560  154.4956 H   0  0  0  0  0  0  0  0  0  0  0  0
  149.4854  142.1490  155.9625 H   0  0  0  0  0  0  0  0  0  0  0  0
  149.8550  138.4524  152.7123 H   0  0  0  0  0  0  0  0  0  0  0  0
  146.0029  137.9817  151.3101 H   0  0  0  0  0  0  0  0  0  0  0  0
  146.2992  135.4655  152.6894 H   0  0  0  0  0  0  0  0  0  0  0  0
  144.7603  136.2040  153.0457 H   0  0  0  0  0  0  0  0  0  0  0  0
  143.9751  135.9880  150.8517 H   0  0  0  0  0  0  0  0  0  0  0  0
  145.5639  136.1273  150.1380 H   0  0  0  0  0  0  0  0  0  0  0  0
  143.0021  133.6361  150.6202 H   0  0  0  0  0  0  0  0  0  0  0  0
  144.0095  131.3088  151.3484 H   0  0  0  0  0  0  0  0  0  0  0  0
  144.1342  131.4816  149.5892 H   0  0  0  0  0  0  0  0  0  0  0  0
  146.3334  131.3623  151.5212 H   0  0  0  0  0  0  0  0  0  0  0  0
  146.4651  131.5096  149.7761 H   0  0  0  0  0  0  0  0  0  0  0  0
  147.0194  133.7686  149.9969 H   0  0  0  0  0  0  0  0  0  0  0  0
  146.9209  133.6013  151.7568 H   0  0  0  0  0  0  0  0  0  0  0  0
  1  2  2  0  0  0  0
  2  3  1  0  0  0  0
  2 14  1  0  0  0  0
  3  4  1  0  0  0  0
  3 22  1  0  0  0  0
  3 23  1  0  0  0  0
  4 13  1  0  0  0  0
  4  5  1  0  0  0  0
  5  6  2  0  0  0  0
  5 24  1  0  0  0  0
  6  7  1  0  0  0  0
  6 25  1  0  0  0  0
  7  8  2  0  0  0  0
  7  9  1  0  0  0  0
  9 10  1  0  0  0  0
  9 13  2  0  0  0  0
 10 11  2  0  0  0  0
 10 12  1  0  0  0  0
 13 26  1  0  0  0  0
 14 15  1  0  0  0  0
 14 27  1  0  0  0  0
 15 16  1  0  0  0  0
 15 28  1  0  0  0  0
 15 29  1  0  0  0  0
 16 17  1  0  0  0  0
 16 30  1  0  0  0  0
 16 31  1  0  0  0  0
 17 21  1  0  0  0  0
 17 18  2  0  0  0  0
 18 19  1  0  0  0  0
 18 32  1  0  0  0  0
 19 20  1  0  0  0  0
 19 33  1  0  0  0  0
 19 34  1  0  0  0  0
 20 21  1  0  0  0  0
 20 35  1  0  0  0  0
 20 36  1  0  0  0  0
 21 37  1  0  0  0  0
 21 38  1  0  0  0  0
M  CHG  1  10   1
M  CHG  1  12  -1
M  END
> <s_m_source_file>
AV-unprocessed.smi

> <i_m_source_file_index>
2887

> <i_lp_mmshare_version>
43012

> <i_f3d_flags>
0

> <s_epik_input>
W0NIMl0xW0NIMl1bQ0gyXVtDSF09QzFbQ0gyXVtDSDJdW05IXUMoPU8pW0NIMl1uMltjSF1bY0hdYyg9TyljKFtOK10oPU8pW08tXSlbY0hdMg==

> <s_epik_cmdline>
J2VwaWtfcHl0aG9uJywgJy1waCcsICc3LjAnLCAnLXRuJywgJzgnLCAnLW1hJywgJzIwMCcsICctbWV0YWxfYmluZGluZycsICctaW1hZScsICc8aW5maWxlLm1hZT4nLCAnLW9tYWUnLCAnPG91dGZpbGUubWFlPic=

> <r_lp_tautomer_probability>
1

> <r_epik_Ionization_Penalty>
2.85916e-08

> <r_epik_Ionization_Penalty_Charging>
1.01785e-08

> <r_epik_Ionization_Penalty_Neutral>
1.84131e-08

> <r_epik_State_Penalty>
-0

> <r_epik_Charging_Adjusted_Penalty>
1.01785e-08

> <i_epik_Tot_Q>
0

> <i_epik_Tot_abs_Q>
2

> <r_epik_Metal_State_Penalty>
-0

> <b_epik_Metal_Only>
0

> <s_lp_Force_Field>
OPLS_2005

> <r_lp_Energy>
18.7972

> <b_lp_Chiralities_Consistent>
1

> <s_lp_Variant>
AV-unprocessed.smi:2887-1

> <Gold.Version>
5.8.1

> <Gold.Id.Protein>
6NUR|6NUR_protein|mol2

> <Gold.PLP.Fitness>
46.2017

> <Gold.PLP.PLP>
-38.5234

> <Gold.PLP.part.hbond>
-3.0000

> <Gold.PLP.part.metal>
0.0000

> <Gold.PLP.part.buried>
4.7270

> <Gold.PLP.part.nonpolar>
-40.4267

> <Gold.PLP.part.repulsive>
0.8222

> <Gold.PLP.ligand.clash>
0.0000

> <Gold.PLP.ligand.torsion>
0.6716

> <Gold.PLP.Chemscore.Hbond>
1.9183

> <Gold.PLP.Chemscore.CHOScore>
1.0777

> <Gold.PLP.Chemscore.Metal>
0.0000

> <Gold.Chemscore.Hbonds>
donor molecule, donor type, donor heavy atom, donor atom, acceptor molecule, acceptor atom, score
      P1  H  7997  8010       L1    11  0.40
      P1  H 10752 10764       L1    12  0.27
      L1  C    13    26       P1  7948  1.00
      L1  C    13    26       P1  7957  0.18

> <Gold.PLP.Chemscore.Internal.Correction>
0.0339

> <Gold.Rescore>
     Score         DG    S(hbond)    S(metal)    S(lipo)     H(rot)  DE(clash)    DE(int)     intcor
     12.33     -15.59       1.73        0.00      80.80       2.00       1.17       2.08       ----

> <Gold.Chemscore.Fitness>
12.3341

> <Gold.Chemscore.DG>
-15.5867

> <Gold.Chemscore.ZeroCoef>
-5.4800

> <Gold.Chemscore.Hbond>
1.7278

> <Gold.Chemscore.Metal>
0.0000

> <Gold.Chemscore.Lipo>
80.8004

> <Gold.Chemscore.Internal_Hbond>
0.0000

> <Gold.Chemscore.DEClash>
1.1679

> <Gold.Chemscore.DEInternal>
2.0848

> <Gold.Chemscore.Rot>
1.9991

> <Gold.Chemscore.Internal.Correction>
   9.000000E+99

> <Gold.Chemscore.Hbonds>
donor molecule, donor type, donor heavy atom, donor atom, acceptor molecule, acceptor atom, score
      P1  H  7997  8010       L1    11  0.39
      P1  H 10752 10764       L1    12  0.28

> <Gold.Chemscore.Hbond.Weighted>
-5.7707

> <Gold.Chemscore.Metal.Weighted>
-0.0000

> <Gold.Chemscore.Lipo.Weighted>
-9.4536

> <Gold.Chemscore.Internal_Hbond.Weighted>
0.0000

> <Gold.Chemscore.DEClash.Weighted>
1.1679

> <Gold.Chemscore.DEInternal.Weighted>
2.0848

> <Gold.Chemscore.Rot.Weighted>
5.1177

> <Gold.Chemscore.Internal.Correction.Weighted>
   9.000000E+99

> <Gold.Protein.RotatedTorsions>
[ 6907 6896 6895 6894 ] final -110.19 input  -60.11 | X-H torsion
[ 7974 7965 7964 7962 ] final  -93.28 input  175.53 | X-H torsion
[ 8008 7997 7996 7995 ] final   94.70 input   59.86 | X-H torsion
[ 10167 10162 10161 10158 ] final -163.58 input  -65.29 | X-H torsion
[ 10718 10713 10712 10709 ] final  -63.76 input   66.30 | X-H torsion
[ 10763 10752 10751 10750 ] final  -88.83 input  -60.55 | X-H torsion
[ 11005 11000 10999 10996 ] final   65.63 input  -57.11 | X-H torsion

> <Gold.Protein.ActiveResidues>
 VAL166  LYS551  ARG553  GLY616  TRP617  ASP618  TYR619  PRO620  LYS621  CYS622 
 ASP623  PHE694  ASN695  SER759  ASP760  ASP761  ALA762  ILE779  LEU786  VAL792 
 PHE793  MET794  SER795  GLU796  ALA797  LYS798  CYS799  TRP800  GLU811  SER814 

> <Gold.Protein.RotatedAtoms>
  150.7609  133.9418  159.3458 H   0  0  0  0  0  0  0  0  0  0  0  0  # atno 6907 bound_to 6896
  151.7327  135.0869  160.0312 H   0  0  0  0  0  0  0  0  0  0  0  0  # atno 6908 bound_to 6896
  152.3579  133.6223  159.6029 H   0  0  0  0  0  0  0  0  0  0  0  0  # atno 6909 bound_to 6896
  145.3887  140.9526  143.2353 H   0  0  0  0  0  0  0  0  0  0  0  0  # atno 7974 bound_to 7965
  156.0608  140.3296  155.7459 H   0  0  0  0  0  0  0  0  0  0  0  0  # atno 8008 bound_to 7997
  155.5458  140.0606  157.2878 H   0  0  0  0  0  0  0  0  0  0  0  0  # atno 8009 bound_to 7997
  154.4480  140.1903  156.0625 H   0  0  0  0  0  0  0  0  0  0  0  0  # atno 8010 bound_to 7997
  139.6311  144.0438  152.2016 H   0  0  0  0  0  0  0  0  0  0  0  0  # atno 10167 bound_to 10162
  156.0771  130.4225  150.1323 H   0  0  0  0  0  0  0  0  0  0  0  0  # atno 10718 bound_to 10713
  154.6488  135.5363  153.7877 H   0  0  0  0  0  0  0  0  0  0  0  0  # atno 10763 bound_to 10752
  153.0374  135.6477  154.1048 H   0  0  0  0  0  0  0  0  0  0  0  0  # atno 10764 bound_to 10752
  154.0967  135.2936  155.3240 H   0  0  0  0  0  0  0  0  0  0  0  0  # atno 10765 bound_to 10752
  139.9882  134.6633  156.0137 H   0  0  0  0  0  0  0  0  0  0  0  0  # atno 11005 bound_to 11000
  144.8456  139.5403  143.6880 LP  0  0  0  0  0  0  0  0  0  0  0  0  # atno 17320 bound_to 7965
  146.2808  139.6872  142.9230 LP  0  0  0  0  0  0  0  0  0  0  0  0  # atno 17321 bound_to 7965
  140.0104  144.6228  150.7652 LP  0  0  0  0  0  0  0  0  0  0  0  0  # atno 17342 bound_to 10162
  140.7439  143.2853  151.3480 LP  0  0  0  0  0  0  0  0  0  0  0  0  # atno 17343 bound_to 10162
  156.9362  130.9730  151.3524 LP  0  0  0  0  0  0  0  0  0  0  0  0  # atno 17370 bound_to 10713
  157.5871  130.8417  149.8605 LP  0  0  0  0  0  0  0  0  0  0  0  0  # atno 17371 bound_to 10713
  141.1543  133.6544  156.4112 LP  0  0  0  0  0  0  0  0  0  0  0  0  # atno 17394 bound_to 11000
  140.4960  134.6531  157.5230 LP  0  0  0  0  0  0  0  0  0  0  0  0  # atno 17395 bound_to 11000

$$$$
