AV-unprocessed.smi:2710|AV-procd|sdf|10468|dock6
  -GOLD-   2272014503D 1   1.00000     0.00000
 Structure written by MMmdl.
 53 54  0  0  0  0  0  0  0  0  2 V2000
  148.4469  133.6021  153.7109 C   0  0  0  0  0  0  0  0  0  0  0  0
  147.4988  133.5606  152.5032 C   0  0  0  0  0  0  0  0  0  0  0  0
  146.5264  134.6865  152.4801 N   0  3  2  0  0  0  0  0  0  0  0  0
  145.9640  134.9672  153.8284 C   0  0  0  0  0  0  0  0  0  0  0  0
  145.1345  136.2616  153.8338 C   0  0  0  0  0  0  0  0  0  0  0  0
  144.0168  136.2098  152.7829 C   0  0  1  0  0  0  0  0  0  0  0  0
  143.2931  137.4779  152.7616 N   0  0  0  0  0  0  0  0  0  0  0  0
  142.0302  137.6501  153.1789 C   0  0  0  0  0  0  0  0  0  0  0  0
  141.3373  136.7382  153.6283 O   0  0  0  0  0  0  0  0  0  0  0  0
  141.6464  138.9313  153.0465 N   0  0  0  0  0  0  0  0  0  0  0  0
  140.3965  139.5267  153.3701 C   0  0  0  0  0  0  0  0  0  0  0  0
  139.2348  138.7304  153.3218 C   0  0  0  0  0  0  0  0  0  0  0  0
  138.0153  139.2222  153.6245 N   0  0  0  0  0  0  0  0  0  0  0  0
  137.9316  140.5185  153.9509 C   0  0  0  0  0  0  0  0  0  0  0  0
  136.5639  141.0356  154.4309 C   0  0  0  0  0  0  0  0  0  0  0  0
  135.5029  139.9104  154.4032 C   0  0  0  0  0  0  0  0  0  0  0  0
  136.1077  142.1974  153.5292 C   0  0  0  0  0  0  0  0  0  0  0  0
  136.6352  141.5185  155.8987 C   0  0  0  0  0  0  0  0  0  0  0  0
  138.9758  141.3480  154.0762 N   0  0  0  0  0  0  0  0  0  0  0  0
  140.2019  140.8694  153.7754 C   0  0  0  0  0  0  0  0  0  0  0  0
  144.6292  135.9015  151.4033 C   0  0  0  0  0  0  0  0  0  0  0  0
  145.4785  134.6129  151.4139 C   0  0  2  0  0  0  0  0  0  0  0  0
  144.6051  133.3416  151.4874 C   0  0  0  0  0  0  0  0  0  0  0  0
  149.0486  132.6937  153.7550 H   0  0  0  0  0  0  0  0  0  0  0  0
  147.8923  133.6756  154.6470 H   0  0  0  0  0  0  0  0  0  0  0  0
  149.1402  134.4412  153.6583 H   0  0  0  0  0  0  0  0  0  0  0  0
  148.0634  133.5170  151.5717 H   0  0  0  0  0  0  0  0  0  0  0  0
  146.9399  132.6254  152.5564 H   0  0  0  0  0  0  0  0  0  0  0  0
  145.3583  134.1252  154.1649 H   0  0  0  0  0  0  0  0  0  0  0  0
  146.7765  135.0696  154.5487 H   0  0  0  0  0  0  0  0  0  0  0  0
  144.7088  136.4215  154.8252 H   0  0  0  0  0  0  0  0  0  0  0  0
  145.7898  137.1117  153.6380 H   0  0  0  0  0  0  0  0  0  0  0  0
  143.3217  135.4152  153.0600 H   0  0  0  0  0  0  0  0  0  0  0  0
  143.7919  138.2838  152.4135 H   0  0  0  0  0  0  0  0  0  0  0  0
  142.3478  139.5691  152.6997 H   0  0  0  0  0  0  0  0  0  0  0  0
  139.2819  137.6876  153.0435 H   0  0  0  0  0  0  0  0  0  0  0  0
  134.5441  140.2594  154.7885 H   0  0  0  0  0  0  0  0  0  0  0  0
  135.8103  139.0594  155.0125 H   0  0  0  0  0  0  0  0  0  0  0  0
  135.3204  139.5444  153.3922 H   0  0  0  0  0  0  0  0  0  0  0  0
  136.0109  141.8784  152.4908 H   0  0  0  0  0  0  0  0  0  0  0  0
  136.8214  143.0219  153.5544 H   0  0  0  0  0  0  0  0  0  0  0  0
  135.1406  142.5900  153.8449 H   0  0  0  0  0  0  0  0  0  0  0  0
  135.6575  141.8407  156.2587 H   0  0  0  0  0  0  0  0  0  0  0  0
  137.3088  142.3680  156.0174 H   0  0  0  0  0  0  0  0  0  0  0  0
  136.9827  140.7249  156.5612 H   0  0  0  0  0  0  0  0  0  0  0  0
  141.0103  141.5743  153.8864 H   0  0  0  0  0  0  0  0  0  0  0  0
  143.8454  135.8231  150.6486 H   0  0  0  0  0  0  0  0  0  0  0  0
  145.2588  136.7380  151.0950 H   0  0  0  0  0  0  0  0  0  0  0  0
  145.9887  134.5891  150.4516 H   0  0  0  0  0  0  0  0  0  0  0  0
  143.8451  133.3527  150.7058 H   0  0  0  0  0  0  0  0  0  0  0  0
  144.0855  133.2474  152.4402 H   0  0  0  0  0  0  0  0  0  0  0  0
  145.1930  132.4366  151.3372 H   0  0  0  0  0  0  0  0  0  0  0  0
  147.0771  135.5022  152.2533 H   0  0  0  0  0  0  0  0  0  0  0  0
  1  2  1  0  0  0  0
  1 24  1  0  0  0  0
  1 25  1  0  0  0  0
  1 26  1  0  0  0  0
  2  3  1  0  0  0  0
  2 27  1  0  0  0  0
  2 28  1  0  0  0  0
  3 22  1  0  0  0  0
  3  4  1  0  0  0  0
  3 53  1  0  0  0  0
  4  5  1  0  0  0  0
  4 29  1  0  0  0  0
  4 30  1  0  0  0  0
  5  6  1  0  0  0  0
  5 31  1  0  0  0  0
  5 32  1  0  0  0  0
  6  7  1  0  0  0  0
  6 21  1  0  0  0  0
  6 33  1  0  0  0  0
  7  8  1  0  0  0  0
  7 34  1  0  0  0  0
  8  9  2  0  0  0  0
  8 10  1  0  0  0  0
 10 11  1  0  0  0  0
 10 35  1  0  0  0  0
 11 20  1  0  0  0  0
 11 12  2  0  0  0  0
 12 13  1  0  0  0  0
 12 36  1  0  0  0  0
 13 14  2  0  0  0  0
 14 15  1  0  0  0  0
 14 19  1  0  0  0  0
 15 16  1  0  0  0  0
 15 17  1  0  0  0  0
 15 18  1  0  0  0  0
 16 37  1  0  0  0  0
 16 38  1  0  0  0  0
 16 39  1  0  0  0  0
 17 40  1  0  0  0  0
 17 41  1  0  0  0  0
 17 42  1  0  0  0  0
 18 43  1  0  0  0  0
 18 44  1  0  0  0  0
 18 45  1  0  0  0  0
 19 20  2  0  0  0  0
 20 46  1  0  0  0  0
 21 22  1  0  0  0  0
 21 47  1  0  0  0  0
 21 48  1  0  0  0  0
 22 23  1  0  0  0  0
 22 49  1  0  0  0  0
 23 50  1  0  0  0  0
 23 51  1  0  0  0  0
 23 52  1  0  0  0  0
M  CHG  1   3   1
M  END
> <s_m_source_file>
AV-unprocessed.smi

> <i_m_source_file_index>
2710

> <i_lp_mmshare_version>
43012

> <i_f3d_flags>
0

> <s_epik_input>
W0NIM11bQ0gyXU4xW0NIMl1bQ0gyXVtDQEhdKFtDSDJdW0NASF0xW0NIM10pW05IXUMoPU8pW05IXWMyW2NIXW5jKEMoW0NIM10pKFtDSDNdKVtDSDNdKW5bY0hdMg==

> <s_epik_cmdline>
J2VwaWtfcHl0aG9uJywgJy1waCcsICc3LjAnLCAnLXRuJywgJzgnLCAnLW1hJywgJzIwMCcsICctbWV0YWxfYmluZGluZycsICctaW1hZScsICc8aW5maWxlLm1hZT4nLCAnLW9tYWUnLCAnPG91dGZpbGUubWFlPic=

> <r_lp_tautomer_probability>
1

> <r_epik_Ionization_Penalty>
0.00396003

> <r_epik_Ionization_Penalty_Charging>
0.0039379

> <r_epik_Ionization_Penalty_Neutral>
2.21316e-05

> <r_epik_State_Penalty>
0.00281651

> <r_epik_Charging_Adjusted_Penalty>
0.00675441

> <i_epik_Tot_Q>
1

> <i_epik_Tot_abs_Q>
1

> <r_epik_Metal_State_Penalty>
-0

> <b_epik_Metal_Only>
0

> <s_lp_Force_Field>
OPLS_2005

> <r_lp_Energy>
21.0502

> <b_lp_Chiralities_Consistent>
1

> <s_lp_Variant>
AV-unprocessed.smi:2710-5

> <Gold.Version>
5.8.1

> <Gold.Id.Protein>
6NUR|6NUR_protein|mol2

> <Gold.PLP.Fitness>
42.1395

> <Gold.PLP.PLP>
-29.7617

> <Gold.PLP.part.hbond>
-4.4928

> <Gold.PLP.part.metal>
0.0000

> <Gold.PLP.part.buried>
3.1576

> <Gold.PLP.part.nonpolar>
-28.0233

> <Gold.PLP.part.repulsive>
0.3722

> <Gold.PLP.ligand.clash>
0.0000

> <Gold.PLP.ligand.torsion>
0.4175

> <Gold.PLP.Chemscore.Hbond>
3.3718

> <Gold.PLP.Chemscore.CHOScore>
0.9741

> <Gold.PLP.Chemscore.Metal>
0.0000

> <Gold.Chemscore.Hbonds>
donor molecule, donor type, donor heavy atom, donor atom, acceptor molecule, acceptor atom, score
      L1  H     3    53       P1  7948  1.82
      L1  H     7    34       P1 10175  0.55
      L1  H    10    35       P1 10175  1.00
      L1  C    20    46       P1 10174  0.97

> <Gold.PLP.Chemscore.Internal.Correction>
0.1749

> <Gold.Rescore>
     Score         DG    S(hbond)    S(metal)    S(lipo)     H(rot)  DE(clash)    DE(int)     intcor
     15.59     -17.51       2.38        0.00      63.49       1.31       0.34       1.58       ----

> <Gold.Chemscore.Fitness>
15.5888

> <Gold.Chemscore.DG>
-17.5136

> <Gold.Chemscore.ZeroCoef>
-5.4800

> <Gold.Chemscore.Hbond>
2.3815

> <Gold.Chemscore.Metal>
0.0000

> <Gold.Chemscore.Lipo>
63.4890

> <Gold.Chemscore.Internal_Hbond>
0.0000

> <Gold.Chemscore.DEClash>
0.3398

> <Gold.Chemscore.DEInternal>
1.5850

> <Gold.Chemscore.Rot>
1.3081

> <Gold.Chemscore.Internal.Correction>
   9.000000E+99

> <Gold.Chemscore.Hbonds>
donor molecule, donor type, donor heavy atom, donor atom, acceptor molecule, acceptor atom, score
      L1  H     3    53       P1  7948  0.82
      L1  H     7    34       P1 10175  0.53
      L1  H    10    35       P1 10175  0.73

> <Gold.Chemscore.Hbond.Weighted>
-7.9542

> <Gold.Chemscore.Metal.Weighted>
-0.0000

> <Gold.Chemscore.Lipo.Weighted>
-7.4282

> <Gold.Chemscore.Internal_Hbond.Weighted>
0.0000

> <Gold.Chemscore.DEClash.Weighted>
0.3398

> <Gold.Chemscore.DEInternal.Weighted>
1.5850

> <Gold.Chemscore.Rot.Weighted>
3.3488

> <Gold.Chemscore.Internal.Correction.Weighted>
   9.000000E+99

> <Gold.Protein.RotatedTorsions>
[ 6907 6896 6895 6894 ] final  -83.55 input  -60.11 | X-H torsion
[ 7974 7965 7964 7962 ] final  110.56 input  175.53 | X-H torsion
[ 8008 7997 7996 7995 ] final -124.40 input   59.86 | X-H torsion
[ 10167 10162 10161 10158 ] final -101.35 input  -65.29 | X-H torsion
[ 10718 10713 10712 10709 ] final  -16.66 input   66.30 | X-H torsion
[ 10763 10752 10751 10750 ] final  161.27 input  -60.55 | X-H torsion
[ 11005 11000 10999 10996 ] final  120.65 input  -57.11 | X-H torsion

> <Gold.Protein.ActiveResidues>
 VAL166  LYS551  ARG553  GLY616  TRP617  ASP618  TYR619  PRO620  LYS621  CYS622 
 ASP623  PHE694  ASN695  SER759  ASP760  ASP761  ALA762  ILE779  LEU786  VAL792 
 PHE793  MET794  SER795  GLU796  ALA797  LYS798  CYS799  TRP800  GLU811  SER814 

> <Gold.Protein.RotatedAtoms>
  150.6884  134.3494  159.4902 H   0  0  0  0  0  0  0  0  0  0  0  0  # atno 6907 bound_to 6896
  152.1337  134.9113  160.0566 H   0  0  0  0  0  0  0  0  0  0  0  0  # atno 6908 bound_to 6896
  152.0273  133.3888  159.4319 H   0  0  0  0  0  0  0  0  0  0  0  0  # atno 6909 bound_to 6896
  145.2535  139.2730  143.4055 H   0  0  0  0  0  0  0  0  0  0  0  0  # atno 7974 bound_to 7965
  155.1963  140.0414  157.2909 H   0  0  0  0  0  0  0  0  0  0  0  0  # atno 8008 bound_to 7997
  154.6104  140.2475  155.7647 H   0  0  0  0  0  0  0  0  0  0  0  0  # atno 8009 bound_to 7997
  156.2376  140.2916  156.0364 H   0  0  0  0  0  0  0  0  0  0  0  0  # atno 8010 bound_to 7997
  140.2423  143.3530  152.0791 H   0  0  0  0  0  0  0  0  0  0  0  0  # atno 10167 bound_to 10162
  156.5845  130.4783  149.6306 H   0  0  0  0  0  0  0  0  0  0  0  0  # atno 10718 bound_to 10713
  154.2604  135.2768  155.2780 H   0  0  0  0  0  0  0  0  0  0  0  0  # atno 10763 bound_to 10752
  154.5389  135.5708  153.6825 H   0  0  0  0  0  0  0  0  0  0  0  0  # atno 10764 bound_to 10752
  152.9963  135.6246  154.2754 H   0  0  0  0  0  0  0  0  0  0  0  0  # atno 10765 bound_to 10752
  139.9194  134.9635  156.7839 H   0  0  0  0  0  0  0  0  0  0  0  0  # atno 11005 bound_to 11000
  146.3296  140.2932  142.8616 LP  0  0  0  0  0  0  0  0  0  0  0  0  # atno 17320 bound_to 7965
  144.9482  140.8150  143.5588 LP  0  0  0  0  0  0  0  0  0  0  0  0  # atno 17321 bound_to 7965
  139.5073  144.6830  151.5960 LP  0  0  0  0  0  0  0  0  0  0  0  0  # atno 17342 bound_to 10162
  140.6104  143.9446  150.6449 LP  0  0  0  0  0  0  0  0  0  0  0  0  # atno 17343 bound_to 10162
  156.2603  130.6958  151.1724 LP  0  0  0  0  0  0  0  0  0  0  0  0  # atno 17370 bound_to 10713
  157.7318  131.0605  150.5657 LP  0  0  0  0  0  0  0  0  0  0  0  0  # atno 17371 bound_to 10713
  140.6522  133.9721  155.7761 LP  0  0  0  0  0  0  0  0  0  0  0  0  # atno 17394 bound_to 11000
  141.0700  134.0219  157.3539 LP  0  0  0  0  0  0  0  0  0  0  0  0  # atno 17395 bound_to 11000

$$$$
