AV-unprocessed.smi:2916|AV-procd|sdf|11188|dock5
  -GOLD-   2272016 83D 1   1.00000     0.00000
 Structure written by MMmdl.
 38 39  0  0  0  0  0  0  0  0  2 V2000
  148.8342  136.3393  154.7536 N   0  0  0  0  0  0  0  0  0  0  0  0
  148.8445  137.6061  155.1824 C   0  0  0  0  0  0  0  0  0  0  0  0
  148.4830  137.8901  156.3228 O   0  0  0  0  0  0  0  0  0  0  0  0
  149.3699  138.6985  154.2128 C   0  0  0  0  0  0  0  0  0  0  0  0
  148.5340  138.6599  152.9815 N   0  3  0  0  0  0  0  0  0  0  0  0
  147.0848  138.9549  153.1076 C   0  0  0  0  0  0  0  0  0  0  0  0
  146.2772  138.2224  152.0223 C   0  0  0  0  0  0  0  0  0  0  0  0
  145.3495  137.2480  152.5716 N   0  0  0  0  0  0  0  0  0  0  0  0
  143.9708  137.2745  152.5525 C   0  0  0  0  0  0  0  0  0  0  0  0
  143.5334  136.1567  153.2031 C   0  0  0  0  0  0  0  0  0  0  0  0
  144.7339  135.5060  153.6030 C   0  0  0  0  0  0  0  0  0  0  0  0
  145.8184  136.1642  153.2274 N   0  0  0  0  0  0  0  0  0  0  0  0
  149.2102  140.1167  154.8321 C   0  0  0  0  0  0  0  0  0  0  0  0
  150.1404  140.3751  156.0312 C   0  0  0  0  0  0  0  0  0  0  0  0
  151.6087  140.1794  155.6330 C   0  0  0  0  0  0  0  0  0  0  0  0
  151.8346  138.7840  155.0364 C   0  0  0  0  0  0  0  0  0  0  0  0
  150.8775  138.5080  153.8586 C   0  0  0  0  0  0  0  0  0  0  0  0
  148.4736  135.6134  155.3569 H   0  0  0  0  0  0  0  0  0  0  0  0
  149.1602  136.1102  153.8260 H   0  0  0  0  0  0  0  0  0  0  0  0
  148.9284  139.3141  152.3214 H   0  0  0  0  0  0  0  0  0  0  0  0
  146.7182  138.6603  154.0904 H   0  0  0  0  0  0  0  0  0  0  0  0
  146.9104  140.0267  153.0143 H   0  0  0  0  0  0  0  0  0  0  0  0
  145.7060  138.9402  151.4324 H   0  0  0  0  0  0  0  0  0  0  0  0
  146.9507  137.7140  151.3311 H   0  0  0  0  0  0  0  0  0  0  0  0
  143.4208  138.0757  152.0810 H   0  0  0  0  0  0  0  0  0  0  0  0
  142.5111  135.8527  153.3728 H   0  0  0  0  0  0  0  0  0  0  0  0
  144.8485  134.5830  154.1520 H   0  0  0  0  0  0  0  0  0  0  0  0
  149.4255  140.8652  154.0677 H   0  0  0  0  0  0  0  0  0  0  0  0
  148.1774  140.3042  155.1286 H   0  0  0  0  0  0  0  0  0  0  0  0
  149.9929  141.3906  156.3998 H   0  0  0  0  0  0  0  0  0  0  0  0
  149.8879  139.7106  156.8582 H   0  0  0  0  0  0  0  0  0  0  0  0
  151.8942  140.9391  154.9040 H   0  0  0  0  0  0  0  0  0  0  0  0
  152.2543  140.3244  156.4999 H   0  0  0  0  0  0  0  0  0  0  0  0
  152.8674  138.6931  154.6989 H   0  0  0  0  0  0  0  0  0  0  0  0
  151.7061  138.0313  155.8143 H   0  0  0  0  0  0  0  0  0  0  0  0
  151.0720  137.4997  153.4916 H   0  0  0  0  0  0  0  0  0  0  0  0
  151.1395  139.1764  153.0369 H   0  0  0  0  0  0  0  0  0  0  0  0
  148.6137  137.7314  152.5915 H   0  0  0  0  0  0  0  0  0  0  0  0
  1  2  1  0  0  0  0
  1 18  1  0  0  0  0
  1 19  1  0  0  0  0
  2  3  2  0  0  0  0
  2  4  1  0  0  0  0
  4 17  1  0  0  0  0
  4  5  1  0  0  0  0
  4 13  1  0  0  0  0
  5  6  1  0  0  0  0
  5 20  1  0  0  0  0
  5 38  1  0  0  0  0
  6  7  1  0  0  0  0
  6 21  1  0  0  0  0
  6 22  1  0  0  0  0
  7  8  1  0  0  0  0
  7 23  1  0  0  0  0
  7 24  1  0  0  0  0
  8 12  1  0  0  0  0
  8  9  1  0  0  0  0
  9 10  2  0  0  0  0
  9 25  1  0  0  0  0
 10 11  1  0  0  0  0
 10 26  1  0  0  0  0
 11 12  2  0  0  0  0
 11 27  1  0  0  0  0
 13 14  1  0  0  0  0
 13 28  1  0  0  0  0
 13 29  1  0  0  0  0
 14 15  1  0  0  0  0
 14 30  1  0  0  0  0
 14 31  1  0  0  0  0
 15 16  1  0  0  0  0
 15 32  1  0  0  0  0
 15 33  1  0  0  0  0
 16 17  1  0  0  0  0
 16 34  1  0  0  0  0
 16 35  1  0  0  0  0
 17 36  1  0  0  0  0
 17 37  1  0  0  0  0
M  CHG  1   5   1
M  END
> <s_m_source_file>
AV-unprocessed.smi

> <i_m_source_file_index>
2916

> <i_lp_mmshare_version>
43012

> <i_f3d_flags>
0

> <s_epik_input>
W0NIMl0xW0NIMl1bQ0gyXVtDSDJdW0NIMl1DMShDKD1PKVtOSDJdKVtOSF1bQ0gyXVtDSDJdbjJbY0hdW2NIXVtjSF1uMg==

> <s_epik_cmdline>
J2VwaWtfcHl0aG9uJywgJy1waCcsICc3LjAnLCAnLXRuJywgJzgnLCAnLW1hJywgJzIwMCcsICctbWV0YWxfYmluZGluZycsICctaW1hZScsICc8aW5maWxlLm1hZT4nLCAnLW9tYWUnLCAnPG91dGZpbGUubWFlPic=

> <r_lp_tautomer_probability>
1

> <r_epik_Ionization_Penalty>
0.147888

> <r_epik_Ionization_Penalty_Charging>
0.147883

> <r_epik_Ionization_Penalty_Neutral>
4.65475e-06

> <r_epik_State_Penalty>
0.137176

> <r_epik_Charging_Adjusted_Penalty>
0.285059

> <i_epik_Tot_Q>
1

> <i_epik_Tot_abs_Q>
1

> <r_epik_Metal_State_Penalty>
0.137393

> <b_epik_Metal_Only>
0

> <s_lp_Force_Field>
OPLS_2005

> <r_lp_Energy>
14.4928

> <b_lp_Chiralities_Consistent>
1

> <s_lp_Variant>
AV-unprocessed.smi:2916-1

> <Gold.Version>
5.8.1

> <Gold.Id.Protein>
6NUR|6NUR_protein|mol2

> <Gold.PLP.Fitness>
43.3371

> <Gold.PLP.PLP>
-27.1383

> <Gold.PLP.part.hbond>
-2.9684

> <Gold.PLP.part.metal>
0.0000

> <Gold.PLP.part.buried>
-2.0249

> <Gold.PLP.part.nonpolar>
-22.8097

> <Gold.PLP.part.repulsive>
0.1873

> <Gold.PLP.ligand.clash>
0.0000

> <Gold.PLP.ligand.torsion>
0.6511

> <Gold.PLP.Chemscore.Hbond>
4.0000

> <Gold.PLP.Chemscore.CHOScore>
1.8083

> <Gold.PLP.Chemscore.Metal>
0.0000

> <Gold.Chemscore.Hbonds>
donor molecule, donor type, donor heavy atom, donor atom, acceptor molecule, acceptor atom, score
      L1  H     1    19       P1  7948  1.00
      L1  H     5    20       P1  7957  0.98
      L1  H     5    38       P1  7948  2.00
      L1  C     9    25       P1 10171  0.80
      L1  C     9    25       P1 10175  0.97

> <Gold.PLP.Chemscore.Internal.Correction>
0.0760

> <Gold.Rescore>
     Score         DG    S(hbond)    S(metal)    S(lipo)     H(rot)  DE(clash)    DE(int)     intcor
     15.06     -17.12       2.95        0.00      64.88       2.26       0.27       1.79       ----

> <Gold.Chemscore.Fitness>
15.0637

> <Gold.Chemscore.DG>
-17.1184

> <Gold.Chemscore.ZeroCoef>
-5.4800

> <Gold.Chemscore.Hbond>
2.9456

> <Gold.Chemscore.Metal>
0.0000

> <Gold.Chemscore.Lipo>
64.8768

> <Gold.Chemscore.Internal_Hbond>
0.0000

> <Gold.Chemscore.DEClash>
0.2697

> <Gold.Chemscore.DEInternal>
1.7850

> <Gold.Chemscore.Rot>
2.2619

> <Gold.Chemscore.Internal.Correction>
   9.000000E+99

> <Gold.Chemscore.Hbonds>
donor molecule, donor type, donor heavy atom, donor atom, acceptor molecule, acceptor atom, score
      L1  H     1    19       P1  7948  0.87
      L1  H     5    20       P1  7957  0.91
      L1  H     5    38       P1  7948  1.00

> <Gold.Chemscore.Hbond.Weighted>
-9.8382

> <Gold.Chemscore.Metal.Weighted>
-0.0000

> <Gold.Chemscore.Lipo.Weighted>
-7.5906

> <Gold.Chemscore.Internal_Hbond.Weighted>
0.0000

> <Gold.Chemscore.DEClash.Weighted>
0.2697

> <Gold.Chemscore.DEInternal.Weighted>
1.7850

> <Gold.Chemscore.Rot.Weighted>
5.7904

> <Gold.Chemscore.Internal.Correction.Weighted>
   9.000000E+99

> <Gold.Protein.RotatedTorsions>
[ 6907 6896 6895 6894 ] final -162.97 input  -60.11 | X-H torsion
[ 7974 7965 7964 7962 ] final -169.52 input  175.53 | X-H torsion
[ 8008 7997 7996 7995 ] final  179.46 input   59.86 | X-H torsion
[ 10167 10162 10161 10158 ] final   19.44 input  -65.29 | X-H torsion
[ 10718 10713 10712 10709 ] final -171.66 input   66.30 | X-H torsion
[ 10763 10752 10751 10750 ] final   -1.73 input  -60.55 | X-H torsion
[ 11005 11000 10999 10996 ] final  -60.72 input  -57.11 | X-H torsion

> <Gold.Protein.ActiveResidues>
 VAL166  LYS551  ARG553  GLY616  TRP617  ASP618  TYR619  PRO620  LYS621  CYS622 
 ASP623  PHE694  ASN695  SER759  ASP760  ASP761  ALA762  ILE779  LEU786  VAL792 
 PHE793  MET794  SER795  GLU796  ALA797  LYS798  CYS799  TRP800  GLU811  SER814 

> <Gold.Protein.RotatedAtoms>
  151.3887  133.3796  159.2718 H   0  0  0  0  0  0  0  0  0  0  0  0  # atno 6907 bound_to 6896
  150.9521  134.8921  159.7689 H   0  0  0  0  0  0  0  0  0  0  0  0  # atno 6908 bound_to 6896
  152.5116  134.3843  159.9414 H   0  0  0  0  0  0  0  0  0  0  0  0  # atno 6909 bound_to 6896
  144.7184  140.2208  143.6316 H   0  0  0  0  0  0  0  0  0  0  0  0  # atno 7974 bound_to 7965
  156.0431  140.1308  157.0134 H   0  0  0  0  0  0  0  0  0  0  0  0  # atno 8008 bound_to 7997
  154.4400  140.1026  156.6337 H   0  0  0  0  0  0  0  0  0  0  0  0  # atno 8009 bound_to 7997
  155.5637  140.3465  155.4500 H   0  0  0  0  0  0  0  0  0  0  0  0  # atno 8010 bound_to 7997
  140.5579  143.9392  150.6622 H   0  0  0  0  0  0  0  0  0  0  0  0  # atno 10167 bound_to 10162
  156.7441  130.9353  151.3111 H   0  0  0  0  0  0  0  0  0  0  0  0  # atno 10718 bound_to 10713
  153.3487  135.6984  153.6806 H   0  0  0  0  0  0  0  0  0  0  0  0  # atno 10763 bound_to 10752
  153.5542  135.3547  155.2773 H   0  0  0  0  0  0  0  0  0  0  0  0  # atno 10764 bound_to 10752
  154.8649  135.4234  154.2717 H   0  0  0  0  0  0  0  0  0  0  0  0  # atno 10765 bound_to 10752
  141.1298  133.6624  156.5266 H   0  0  0  0  0  0  0  0  0  0  0  0  # atno 11005 bound_to 11000
  145.8503  139.2172  143.1776 LP  0  0  0  0  0  0  0  0  0  0  0  0  # atno 17320 bound_to 7965
  146.0267  140.8297  142.9896 LP  0  0  0  0  0  0  0  0  0  0  0  0  # atno 17321 bound_to 7965
  140.2834  143.3373  152.1129 LP  0  0  0  0  0  0  0  0  0  0  0  0  # atno 17342 bound_to 10162
  139.5056  144.6798  151.6037 LP  0  0  0  0  0  0  0  0  0  0  0  0  # atno 17343 bound_to 10162
  157.6806  130.9136  150.0257 LP  0  0  0  0  0  0  0  0  0  0  0  0  # atno 17370 bound_to 10713
  156.1445  130.3642  149.9532 LP  0  0  0  0  0  0  0  0  0  0  0  0  # atno 17371 bound_to 10713
  140.4250  134.7153  157.4910 LP  0  0  0  0  0  0  0  0  0  0  0  0  # atno 17394 bound_to 11000
  140.0333  134.6373  155.9076 LP  0  0  0  0  0  0  0  0  0  0  0  0  # atno 17395 bound_to 11000

$$$$
