AV-unprocessed.smi:339|AV-procd|sdf|2378|dock4
  -GOLD-   2262022303D 1   1.00000     0.00000
 Structure written by MMmdl.
 45 46  0  0  0  0  0  0  0  0  1 V2000
  151.7594  142.5670  158.4023 C   0  0  0  0  0  0  0  0  0  0  0  0
  152.3197  142.4679  159.8094 C   0  0  0  0  0  0  0  0  0  0  0  0
  151.9780  143.4499  160.7620 C   0  0  0  0  0  0  0  0  0  0  0  0
  152.4986  143.3827  162.0675 C   0  0  0  0  0  0  0  0  0  0  0  0
  153.3671  142.3352  162.4255 C   0  0  0  0  0  0  0  0  0  0  0  0
  153.7152  141.3470  161.4817 C   0  0  0  0  0  0  0  0  0  0  0  0
  154.6604  140.2296  161.8821 C   0  0  0  0  0  0  0  0  0  0  0  0
  153.1802  141.4046  160.1731 C   0  0  0  0  0  0  0  0  0  0  0  0
  153.5199  140.4476  159.2519 O   0  0  0  0  0  0  0  0  0  0  0  0
  152.4532  139.5717  158.9175 C   0  0  0  0  0  0  0  0  0  0  0  0
  152.9017  138.6622  157.7621 C   0  0  2  0  0  0  0  0  0  0  0  0
  152.5518  139.3142  156.5565 O   0  0  0  0  0  0  0  0  0  0  0  0
  152.1803  137.2961  157.7904 C   0  0  0  0  0  0  0  0  0  0  0  0
  150.7238  137.4388  157.6721 N   0  0  0  0  0  0  0  0  0  0  0  0
  150.2932  137.7502  156.3977 N   0  0  0  0  0  0  0  0  0  0  0  0
  149.0371  137.8892  156.1266 C   0  0  0  0  0  0  0  0  0  0  0  0
  148.6860  138.2274  154.7026 C   0  0  0  0  0  0  0  0  0  0  0  0
  148.0458  137.7161  157.1836 C   0  0  0  0  0  0  0  0  0  0  0  0
  146.5807  137.8884  156.8058 C   0  0  0  0  0  0  0  0  0  0  0  0
  148.4820  137.4211  158.4336 C   0  0  0  0  0  0  0  0  0  0  0  0
  147.5876  137.2407  159.5313 C   0  0  0  0  0  0  0  0  0  0  0  0
  146.8478  137.1042  160.4113 N   0  0  0  0  0  0  0  0  0  0  0  0
  149.9041  137.2634  158.7478 C   0  0  0  0  0  0  0  0  0  0  0  0
  150.3329  136.9933  159.8706 O   0  0  0  0  0  0  0  0  0  0  0  0
  151.4706  143.5919  158.1679 H   0  0  0  0  0  0  0  0  0  0  0  0
  150.8789  141.9328  158.3009 H   0  0  0  0  0  0  0  0  0  0  0  0
  152.4978  142.2525  157.6643 H   0  0  0  0  0  0  0  0  0  0  0  0
  151.3173  144.2612  160.4934 H   0  0  0  0  0  0  0  0  0  0  0  0
  152.2356  144.1382  162.7932 H   0  0  0  0  0  0  0  0  0  0  0  0
  153.7670  142.2945  163.4282 H   0  0  0  0  0  0  0  0  0  0  0  0
  155.3692  140.0146  161.0821 H   0  0  0  0  0  0  0  0  0  0  0  0
  154.0995  139.3209  162.0994 H   0  0  0  0  0  0  0  0  0  0  0  0
  155.2323  140.4971  162.7706 H   0  0  0  0  0  0  0  0  0  0  0  0
  152.2305  138.9688  159.7988 H   0  0  0  0  0  0  0  0  0  0  0  0
  151.5385  140.1112  158.6645 H   0  0  0  0  0  0  0  0  0  0  0  0
  153.9827  138.5251  157.8102 H   0  0  0  0  0  0  0  0  0  0  0  0
  151.6820  139.6712  156.6493 H   0  0  0  0  0  0  0  0  0  0  0  0
  152.5326  136.6725  156.9668 H   0  0  0  0  0  0  0  0  0  0  0  0
  152.4473  136.7410  158.6921 H   0  0  0  0  0  0  0  0  0  0  0  0
  148.0768  139.1304  154.6569 H   0  0  0  0  0  0  0  0  0  0  0  0
  148.1239  137.4155  154.2407 H   0  0  0  0  0  0  0  0  0  0  0  0
  149.5753  138.4008  154.0945 H   0  0  0  0  0  0  0  0  0  0  0  0
  145.9107  137.6321  157.6259 H   0  0  0  0  0  0  0  0  0  0  0  0
  146.3203  137.2470  155.9632 H   0  0  0  0  0  0  0  0  0  0  0  0
  146.3803  138.9227  156.5255 H   0  0  0  0  0  0  0  0  0  0  0  0
  1  2  1  0  0  0  0
  1 25  1  0  0  0  0
  1 26  1  0  0  0  0
  1 27  1  0  0  0  0
  2  8  1  0  0  0  0
  2  3  2  0  0  0  0
  3  4  1  0  0  0  0
  3 28  1  0  0  0  0
  4  5  2  0  0  0  0
  4 29  1  0  0  0  0
  5  6  1  0  0  0  0
  5 30  1  0  0  0  0
  6  7  1  0  0  0  0
  6  8  2  0  0  0  0
  7 31  1  0  0  0  0
  7 32  1  0  0  0  0
  7 33  1  0  0  0  0
  8  9  1  0  0  0  0
  9 10  1  0  0  0  0
 10 11  1  0  0  0  0
 10 34  1  0  0  0  0
 10 35  1  0  0  0  0
 11 12  1  0  0  0  0
 11 13  1  0  0  0  0
 11 36  1  0  0  0  0
 12 37  1  0  0  0  0
 13 14  1  0  0  0  0
 13 38  1  0  0  0  0
 13 39  1  0  0  0  0
 14 23  1  0  0  0  0
 14 15  1  0  0  0  0
 15 16  2  0  0  0  0
 16 17  1  0  0  0  0
 16 18  1  0  0  0  0
 17 40  1  0  0  0  0
 17 41  1  0  0  0  0
 17 42  1  0  0  0  0
 18 19  1  0  0  0  0
 18 20  2  0  0  0  0
 19 43  1  0  0  0  0
 19 44  1  0  0  0  0
 19 45  1  0  0  0  0
 20 21  1  0  0  0  0
 20 23  1  0  0  0  0
 21 22  3  0  0  0  0
 23 24  2  0  0  0  0
M  END
> <s_m_source_file>
AV-unprocessed.smi

> <i_m_source_file_index>
339

> <i_lp_mmshare_version>
43012

> <i_f3d_flags>
0

> <s_epik_input>
W0NIM11jMVtjSF1bY0hdW2NIXWMoW0NIM10pYzFPW0NIMl1bQ0BIXShbT0hdKVtDSDJdbjJuYyhbQ0gzXSljKFtDSDNdKWMoQyNOKWMyPU8=

> <s_epik_cmdline>
J2VwaWtfcHl0aG9uJywgJy1waCcsICc3LjAnLCAnLXRuJywgJzgnLCAnLW1hJywgJzIwMCcsICctbWV0YWxfYmluZGluZycsICctaW1hZScsICc8aW5maWxlLm1hZT4nLCAnLW9tYWUnLCAnPG91dGZpbGUubWFlPic=

> <r_lp_tautomer_probability>
1

> <r_epik_Ionization_Penalty>
1.17331e-07

> <r_epik_Ionization_Penalty_Charging>
1.57223e-10

> <r_epik_Ionization_Penalty_Neutral>
1.17174e-07

> <r_epik_State_Penalty>
-0

> <r_epik_Charging_Adjusted_Penalty>
1.57223e-10

> <i_epik_Tot_Q>
0

> <i_epik_Tot_abs_Q>
0

> <r_epik_Metal_State_Penalty>
-0

> <b_epik_Metal_Only>
0

> <s_lp_Force_Field>
OPLS_2005

> <r_lp_Energy>
35.9352

> <b_lp_Chiralities_Consistent>
1

> <s_lp_Variant>
AV-unprocessed.smi:339-1

> <Gold.Version>
5.8.1

> <Gold.Id.Protein>
6NUR|6NUR_protein|mol2

> <Gold.PLP.Fitness>
47.3431

> <Gold.PLP.PLP>
-39.8769

> <Gold.PLP.part.hbond>
-3.7259

> <Gold.PLP.part.metal>
0.0000

> <Gold.PLP.part.buried>
-3.0856

> <Gold.PLP.part.nonpolar>
-32.6698

> <Gold.PLP.part.repulsive>
0.0000

> <Gold.PLP.ligand.clash>
0.0000

> <Gold.PLP.ligand.torsion>
0.6542

> <Gold.PLP.Chemscore.Hbond>
2.9000

> <Gold.PLP.Chemscore.CHOScore>
0.0000

> <Gold.PLP.Chemscore.Metal>
0.0000

> <Gold.Chemscore.Hbonds>
donor molecule, donor type, donor heavy atom, donor atom, acceptor molecule, acceptor atom, score
      P1  H  6896  6908       L1    24  0.91
      P1  H  6934  6947       L1    22  0.45
      P1  H  7997  8008       L1    12  0.70

> <Gold.PLP.Chemscore.Internal.Correction>
0.0747

> <Gold.Rescore>
     Score         DG    S(hbond)    S(metal)    S(lipo)     H(rot)  DE(clash)    DE(int)     intcor
     15.93     -18.10       1.71        0.00     109.18       2.29       0.02       2.16       ----

> <Gold.Chemscore.Fitness>
15.9300

> <Gold.Chemscore.DG>
-18.1021

> <Gold.Chemscore.ZeroCoef>
-5.4800

> <Gold.Chemscore.Hbond>
1.7102

> <Gold.Chemscore.Metal>
0.0000

> <Gold.Chemscore.Lipo>
109.1757

> <Gold.Chemscore.Internal_Hbond>
0.0000

> <Gold.Chemscore.DEClash>
0.0162

> <Gold.Chemscore.DEInternal>
2.1558

> <Gold.Chemscore.Rot>
2.2905

> <Gold.Chemscore.Internal.Correction>
   9.000000E+99

> <Gold.Chemscore.Hbonds>
donor molecule, donor type, donor heavy atom, donor atom, acceptor molecule, acceptor atom, score
      P1  H  6896  6908       L1    24  0.68
      P1  H  6934  6947       L1    22  0.02
      P1  H  7997  8008       L1    12  0.07

> <Gold.Chemscore.Hbond.Weighted>
-5.7121

> <Gold.Chemscore.Metal.Weighted>
-0.0000

> <Gold.Chemscore.Lipo.Weighted>
-12.7736

> <Gold.Chemscore.Internal_Hbond.Weighted>
0.0000

> <Gold.Chemscore.DEClash.Weighted>
0.0162

> <Gold.Chemscore.DEInternal.Weighted>
2.1558

> <Gold.Chemscore.Rot.Weighted>
5.8636

> <Gold.Chemscore.Internal.Correction.Weighted>
   9.000000E+99

> <Gold.Protein.RotatedTorsions>
[ 6907 6896 6895 6894 ] final -141.35 input  -60.11 | X-H torsion
[ 7974 7965 7964 7962 ] final  146.99 input  175.53 | X-H torsion
[ 8008 7997 7996 7995 ] final  -41.04 input   59.86 | X-H torsion
[ 10167 10162 10161 10158 ] final   67.99 input  -65.29 | X-H torsion
[ 10718 10713 10712 10709 ] final   96.93 input   66.30 | X-H torsion
[ 10763 10752 10751 10750 ] final  119.00 input  -60.55 | X-H torsion
[ 11005 11000 10999 10996 ] final  -73.89 input  -57.11 | X-H torsion

> <Gold.Protein.ActiveResidues>
 VAL166  LYS551  ARG553  GLY616  TRP617  ASP618  TYR619  PRO620  LYS621  CYS622 
 ASP623  PHE694  ASN695  SER759  ASP760  ASP761  ALA762  ILE779  LEU786  VAL792 
 PHE793  MET794  SER795  GLU796  ALA797  LYS798  CYS799  TRP800  GLU811  SER814 

> <Gold.Protein.RotatedAtoms>
  151.0726  133.5454  159.2625 H   0  0  0  0  0  0  0  0  0  0  0  0  # atno 6907 bound_to 6896
  151.2387  135.0580  159.9026 H   0  0  0  0  0  0  0  0  0  0  0  0  # atno 6908 bound_to 6896
  152.5413  134.0504  159.8161 H   0  0  0  0  0  0  0  0  0  0  0  0  # atno 6909 bound_to 6896
  144.8627  139.5973  143.5923 H   0  0  0  0  0  0  0  0  0  0  0  0  # atno 7974 bound_to 7965
  154.4007  140.1510  156.3125 H   0  0  0  0  0  0  0  0  0  0  0  0  # atno 8008 bound_to 7997
  155.8602  140.3454  155.5730 H   0  0  0  0  0  0  0  0  0  0  0  0  # atno 8009 bound_to 7997
  155.7888  140.0854  157.2010 H   0  0  0  0  0  0  0  0  0  0  0  0  # atno 8010 bound_to 7997
  140.0835  144.5050  150.7146 H   0  0  0  0  0  0  0  0  0  0  0  0  # atno 10167 bound_to 10162
  157.6920  131.0593  150.4566 H   0  0  0  0  0  0  0  0  0  0  0  0  # atno 10718 bound_to 10713
  153.5763  135.3492  155.2857 H   0  0  0  0  0  0  0  0  0  0  0  0  # atno 10763 bound_to 10752
  154.8674  135.4171  154.2669 H   0  0  0  0  0  0  0  0  0  0  0  0  # atno 10764 bound_to 10752
  153.3446  135.7052  153.6909 H   0  0  0  0  0  0  0  0  0  0  0  0  # atno 10765 bound_to 10752
  141.1628  133.6893  156.7281 H   0  0  0  0  0  0  0  0  0  0  0  0  # atno 11005 bound_to 11000
  146.2872  139.7038  142.9187 LP  0  0  0  0  0  0  0  0  0  0  0  0  # atno 17320 bound_to 7965
  145.4281  141.0413  143.2926 LP  0  0  0  0  0  0  0  0  0  0  0  0  # atno 17321 bound_to 7965
  140.7065  143.2472  151.4709 LP  0  0  0  0  0  0  0  0  0  0  0  0  # atno 17342 bound_to 10162
  139.5766  144.1806  152.1911 LP  0  0  0  0  0  0  0  0  0  0  0  0  # atno 17343 bound_to 10162
  156.4913  130.4096  149.6405 LP  0  0  0  0  0  0  0  0  0  0  0  0  # atno 17370 bound_to 10713
  156.3414  130.7384  151.2330 LP  0  0  0  0  0  0  0  0  0  0  0  0  # atno 17371 bound_to 10713
  140.2766  134.8350  157.3895 LP  0  0  0  0  0  0  0  0  0  0  0  0  # atno 17394 bound_to 11000
  140.1472  134.4896  155.7987 LP  0  0  0  0  0  0  0  0  0  0  0  0  # atno 17395 bound_to 11000

$$$$
