AV-unprocessed.smi:2668|AV-procd|sdf|10340|dock2
  -GOLD-   2272014363D 1   1.00000     0.00000
 Structure written by MMmdl.
 53 54  0  0  0  0  0  0  0  0  2 V2000
  145.4945  134.7183  152.4160 C   0  0  0  0  0  0  0  0  0  0  0  0
  146.0220  135.9484  151.7749 N   0  3  0  0  0  0  0  0  0  0  0  0
  145.3953  136.1435  150.4440 C   0  0  0  0  0  0  0  0  0  0  0  0
  145.9556  137.1597  152.6525 C   0  0  0  0  0  0  0  0  0  0  0  0
  146.7567  138.3455  152.0747 C   0  0  0  0  0  0  0  0  0  0  0  0
  146.7686  139.5551  153.0245 C   0  0  0  0  0  0  0  0  0  0  0  0
  147.3642  139.1986  154.3209 N   0  0  0  0  0  0  0  0  0  0  0  0
  147.6650  140.3559  155.2079 C   0  0  0  0  0  0  0  0  0  0  0  0
  146.5333  141.4090  155.0905 C   0  0  0  0  0  0  0  0  0  0  0  0
  147.7952  139.9260  156.6883 C   0  0  0  0  0  0  0  0  0  0  0  0
  148.9885  141.0496  154.7734 C   0  0  0  0  0  0  0  0  0  0  0  0
  149.3269  142.1879  155.6236 N   0  0  0  0  0  0  0  0  0  0  0  0
  150.0808  142.1167  156.7276 C   0  0  0  0  0  0  0  0  0  0  0  0
  150.5643  141.0671  157.1512 O   0  0  0  0  0  0  0  0  0  0  0  0
  150.2478  143.3308  157.2796 N   0  0  0  0  0  0  0  0  0  0  0  0
  150.9804  143.6802  158.4463 C   0  0  0  0  0  0  0  0  0  0  0  0
  151.9543  142.8522  159.0556 C   0  0  0  0  0  0  0  0  0  0  0  0
  152.6001  143.3078  160.2212 C   0  0  0  0  0  0  0  0  0  0  0  0
  152.2447  144.5684  160.7386 C   0  0  0  0  0  0  0  0  0  0  0  0
  151.3091  145.3620  160.1765 N   0  0  0  0  0  0  0  0  0  0  0  0
  150.6933  144.9180  159.0601 C   0  0  0  0  0  0  0  0  0  0  0  0
  146.5225  138.1602  154.9346 C   0  0  0  0  0  0  0  0  0  0  0  0
  146.5034  136.8894  154.0696 C   0  0  0  0  0  0  0  0  0  0  0  0
  144.4729  134.8673  152.7679 H   0  0  0  0  0  0  0  0  0  0  0  0
  146.1120  134.4068  153.2574 H   0  0  0  0  0  0  0  0  0  0  0  0
  145.4905  133.8821  151.7159 H   0  0  0  0  0  0  0  0  0  0  0  0
  144.3568  136.4621  150.5426 H   0  0  0  0  0  0  0  0  0  0  0  0
  145.4106  135.2188  149.8662 H   0  0  0  0  0  0  0  0  0  0  0  0
  145.9315  136.8815  149.8486 H   0  0  0  0  0  0  0  0  0  0  0  0
  144.9095  137.4583  152.7387 H   0  0  0  0  0  0  0  0  0  0  0  0
  147.7821  138.0380  151.8638 H   0  0  0  0  0  0  0  0  0  0  0  0
  146.3295  138.6777  151.1292 H   0  0  0  0  0  0  0  0  0  0  0  0
  147.3334  140.3421  152.5300 H   0  0  0  0  0  0  0  0  0  0  0  0
  145.7536  139.9300  153.1602 H   0  0  0  0  0  0  0  0  0  0  0  0
  146.8243  142.3514  155.5562 H   0  0  0  0  0  0  0  0  0  0  0  0
  145.6181  141.1003  155.5952 H   0  0  0  0  0  0  0  0  0  0  0  0
  146.2859  141.6258  154.0506 H   0  0  0  0  0  0  0  0  0  0  0  0
  148.0118  140.7879  157.3203 H   0  0  0  0  0  0  0  0  0  0  0  0
  148.6050  139.2134  156.8425 H   0  0  0  0  0  0  0  0  0  0  0  0
  146.8786  139.4793  157.0731 H   0  0  0  0  0  0  0  0  0  0  0  0
  149.8140  140.3381  154.8256 H   0  0  0  0  0  0  0  0  0  0  0  0
  148.9522  141.3542  153.7268 H   0  0  0  0  0  0  0  0  0  0  0  0
  148.9730  143.0893  155.3386 H   0  0  0  0  0  0  0  0  0  0  0  0
  149.8511  144.1072  156.7709 H   0  0  0  0  0  0  0  0  0  0  0  0
  152.2084  141.8791  158.6652 H   0  0  0  0  0  0  0  0  0  0  0  0
  153.3484  142.7016  160.7102 H   0  0  0  0  0  0  0  0  0  0  0  0
  152.7210  144.9468  161.6309 H   0  0  0  0  0  0  0  0  0  0  0  0
  149.9494  145.5785  158.6389 H   0  0  0  0  0  0  0  0  0  0  0  0
  146.8972  137.8693  155.9129 H   0  0  0  0  0  0  0  0  0  0  0  0
  145.5061  138.5273  155.0798 H   0  0  0  0  0  0  0  0  0  0  0  0
  145.8914  136.1522  154.5881 H   0  0  0  0  0  0  0  0  0  0  0  0
  147.5110  136.4746  154.0109 H   0  0  0  0  0  0  0  0  0  0  0  0
  147.0014  135.7733  151.6001 H   0  0  0  0  0  0  0  0  0  0  0  0
  1  2  1  0  0  0  0
  1 24  1  0  0  0  0
  1 25  1  0  0  0  0
  1 26  1  0  0  0  0
  2  3  1  0  0  0  0
  2  4  1  0  0  0  0
  2 53  1  0  0  0  0
  3 27  1  0  0  0  0
  3 28  1  0  0  0  0
  3 29  1  0  0  0  0
  4 23  1  0  0  0  0
  4  5  1  0  0  0  0
  4 30  1  0  0  0  0
  5  6  1  0  0  0  0
  5 31  1  0  0  0  0
  5 32  1  0  0  0  0
  6  7  1  0  0  0  0
  6 33  1  0  0  0  0
  6 34  1  0  0  0  0
  7  8  1  0  0  0  0
  7 22  1  0  0  0  0
  8  9  1  0  0  0  0
  8 10  1  0  0  0  0
  8 11  1  0  0  0  0
  9 35  1  0  0  0  0
  9 36  1  0  0  0  0
  9 37  1  0  0  0  0
 10 38  1  0  0  0  0
 10 39  1  0  0  0  0
 10 40  1  0  0  0  0
 11 12  1  0  0  0  0
 11 41  1  0  0  0  0
 11 42  1  0  0  0  0
 12 13  1  0  0  0  0
 12 43  1  0  0  0  0
 13 14  2  0  0  0  0
 13 15  1  0  0  0  0
 15 16  1  0  0  0  0
 15 44  1  0  0  0  0
 16 21  1  0  0  0  0
 16 17  2  0  0  0  0
 17 18  1  0  0  0  0
 17 45  1  0  0  0  0
 18 19  2  0  0  0  0
 18 46  1  0  0  0  0
 19 20  1  0  0  0  0
 19 47  1  0  0  0  0
 20 21  2  0  0  0  0
 21 48  1  0  0  0  0
 22 23  1  0  0  0  0
 22 49  1  0  0  0  0
 22 50  1  0  0  0  0
 23 51  1  0  0  0  0
 23 52  1  0  0  0  0
M  CHG  1   2   1
M  END
> <s_m_source_file>
AV-unprocessed.smi

> <i_m_source_file_index>
2668

> <i_lp_mmshare_version>
43012

> <i_f3d_flags>
0

> <s_epik_input>
W0NIM11OKFtDSDNdKVtDSF0xW0NIMl1bQ0gyXU4oW0NIMl1bQ0gyXTEpQyhbQ0gzXSkoW0NIM10pW0NIMl1bTkhdQyg9TylbTkhdYzJbY0hdW2NIXVtjSF1uW2NIXTI=

> <s_epik_cmdline>
J2VwaWtfcHl0aG9uJywgJy1waCcsICc3LjAnLCAnLXRuJywgJzgnLCAnLW1hJywgJzIwMCcsICctbWV0YWxfYmluZGluZycsICctaW1hZScsICc8aW5maWxlLm1hZT4nLCAnLW9tYWUnLCAnPG91dGZpbGUubWFlPic=

> <r_epik_Ionization_Penalty>
0.934314

> <r_epik_Ionization_Penalty_Charging>
0.000670549

> <r_epik_Ionization_Penalty_Neutral>
0.933644

> <r_epik_State_Penalty>
1.01912

> <r_epik_Charging_Adjusted_Penalty>
1.01979

> <i_epik_Tot_Q>
1

> <i_epik_Tot_abs_Q>
1

> <r_epik_Metal_State_Penalty>
1.01854

> <b_epik_Metal_Only>
0

> <s_lp_Force_Field>
OPLS_2005

> <r_lp_Energy>
39.6452

> <b_lp_Chiralities_Consistent>
1

> <s_lp_Variant>
AV-unprocessed.smi:2668-3

> <Gold.Version>
5.8.1

> <Gold.Id.Protein>
6NUR|6NUR_protein|mol2

> <Gold.PLP.Fitness>
47.4037

> <Gold.PLP.PLP>
-34.4956

> <Gold.PLP.part.hbond>
-3.0000

> <Gold.PLP.part.metal>
0.0000

> <Gold.PLP.part.buried>
-1.8414

> <Gold.PLP.part.nonpolar>
-31.4161

> <Gold.PLP.part.repulsive>
0.5559

> <Gold.PLP.ligand.clash>
0.0000

> <Gold.PLP.ligand.torsion>
1.0729

> <Gold.PLP.Chemscore.Hbond>
4.0000

> <Gold.PLP.Chemscore.CHOScore>
0.9784

> <Gold.PLP.Chemscore.Metal>
0.0000

> <Gold.Chemscore.Hbonds>
donor molecule, donor type, donor heavy atom, donor atom, acceptor molecule, acceptor atom, score
      L1  H     2    53       P1  7948  2.00
      L1  H    12    43       P1  8028  0.96
      L1  H    15    44       P1  8028  1.00
      L1  C    21    48       P1  8029  1.00

> <Gold.PLP.Chemscore.Internal.Correction>
0.1187

> <Gold.Rescore>
     Score         DG    S(hbond)    S(metal)    S(lipo)     H(rot)  DE(clash)    DE(int)     intcor
     19.77     -22.54       2.81        0.00     101.53       1.65       0.19       2.58       ----

> <Gold.Chemscore.Fitness>
19.7743

> <Gold.Chemscore.DG>
-22.5384

> <Gold.Chemscore.ZeroCoef>
-5.4800

> <Gold.Chemscore.Hbond>
2.8148

> <Gold.Chemscore.Metal>
0.0000

> <Gold.Chemscore.Lipo>
101.5286

> <Gold.Chemscore.Internal_Hbond>
0.0000

> <Gold.Chemscore.DEClash>
0.1884

> <Gold.Chemscore.DEInternal>
2.5756

> <Gold.Chemscore.Rot>
1.6492

> <Gold.Chemscore.Internal.Correction>
   9.000000E+99

> <Gold.Chemscore.Hbonds>
donor molecule, donor type, donor heavy atom, donor atom, acceptor molecule, acceptor atom, score
      L1  H     2    53       P1  7948  0.94
      L1  H    12    43       P1  8028  0.92
      L1  H    15    44       P1  8028  0.90

> <Gold.Chemscore.Hbond.Weighted>
-9.4015

> <Gold.Chemscore.Metal.Weighted>
-0.0000

> <Gold.Chemscore.Lipo.Weighted>
-11.8788

> <Gold.Chemscore.Internal_Hbond.Weighted>
0.0000

> <Gold.Chemscore.DEClash.Weighted>
0.1884

> <Gold.Chemscore.DEInternal.Weighted>
2.5756

> <Gold.Chemscore.Rot.Weighted>
4.2220

> <Gold.Chemscore.Internal.Correction.Weighted>
   9.000000E+99

> <Gold.Protein.RotatedTorsions>
[ 6907 6896 6895 6894 ] final  -54.05 input  -60.11 | X-H torsion
[ 7974 7965 7964 7962 ] final -120.70 input  175.53 | X-H torsion
[ 8008 7997 7996 7995 ] final   -0.45 input   59.86 | X-H torsion
[ 10167 10162 10161 10158 ] final   55.48 input  -65.29 | X-H torsion
[ 10718 10713 10712 10709 ] final  179.57 input   66.30 | X-H torsion
[ 10763 10752 10751 10750 ] final   50.85 input  -60.55 | X-H torsion
[ 11005 11000 10999 10996 ] final  171.94 input  -57.11 | X-H torsion

> <Gold.Protein.ActiveResidues>
 VAL166  LYS551  ARG553  GLY616  TRP617  ASP618  TYR619  PRO620  LYS621  CYS622 
 ASP623  PHE694  ASN695  SER759  ASP760  ASP761  ALA762  ILE779  LEU786  VAL792 
 PHE793  MET794  SER795  GLU796  ALA797  LYS798  CYS799  TRP800  GLU811  SER814 

> <Gold.Protein.RotatedAtoms>
  150.8372  134.7650  159.6902 H   0  0  0  0  0  0  0  0  0  0  0  0  # atno 6907 bound_to 6896
  152.4466  134.5478  159.9867 H   0  0  0  0  0  0  0  0  0  0  0  0  # atno 6908 bound_to 6896
  151.5625  133.3363  159.3010 H   0  0  0  0  0  0  0  0  0  0  0  0  # atno 6909 bound_to 6896
  145.0484  140.8200  143.4224 H   0  0  0  0  0  0  0  0  0  0  0  0  # atno 7974 bound_to 7965
  154.6580  140.2584  155.7140 H   0  0  0  0  0  0  0  0  0  0  0  0  # atno 8008 bound_to 7997
  156.2605  140.2854  156.0961 H   0  0  0  0  0  0  0  0  0  0  0  0  # atno 8009 bound_to 7997
  155.1351  140.0379  157.2775 H   0  0  0  0  0  0  0  0  0  0  0  0  # atno 8010 bound_to 7997
  140.2190  144.3809  150.6458 H   0  0  0  0  0  0  0  0  0  0  0  0  # atno 10167 bound_to 10162
  156.8738  130.9793  151.3070 H   0  0  0  0  0  0  0  0  0  0  0  0  # atno 10718 bound_to 10713
  152.9784  135.5865  154.4320 H   0  0  0  0  0  0  0  0  0  0  0  0  # atno 10763 bound_to 10752
  154.3932  135.2768  155.2144 H   0  0  0  0  0  0  0  0  0  0  0  0  # atno 10764 bound_to 10752
  154.4007  135.6104  153.5950 H   0  0  0  0  0  0  0  0  0  0  0  0  # atno 10765 bound_to 10752
  140.3244  134.7410  157.4088 H   0  0  0  0  0  0  0  0  0  0  0  0  # atno 11005 bound_to 11000
  145.1558  139.2487  143.5417 LP  0  0  0  0  0  0  0  0  0  0  0  0  # atno 17320 bound_to 7965
  146.3516  140.1272  142.8598 LP  0  0  0  0  0  0  0  0  0  0  0  0  # atno 17321 bound_to 7965
  140.6269  143.2182  151.6578 LP  0  0  0  0  0  0  0  0  0  0  0  0  # atno 17342 bound_to 10162
  139.5151  144.3388  152.0759 LP  0  0  0  0  0  0  0  0  0  0  0  0  # atno 17343 bound_to 10162
  157.6180  130.8633  149.9061 LP  0  0  0  0  0  0  0  0  0  0  0  0  # atno 17370 bound_to 10713
  156.0712  130.3685  150.0771 LP  0  0  0  0  0  0  0  0  0  0  0  0  # atno 17371 bound_to 10713
  140.0914  134.5596  155.8441 LP  0  0  0  0  0  0  0  0  0  0  0  0  # atno 17394 bound_to 11000
  141.2079  133.6668  156.6334 LP  0  0  0  0  0  0  0  0  0  0  0  0  # atno 17395 bound_to 11000

$$$$
