AV-unprocessed.smi:2427|AV-procd|sdf|9578|dock2
  -GOLD-   2272013213D 1   1.00000     0.00000
 Structure written by MMmdl.
 35 36  0  0  0  0  0  0  0  0  3 V2000
  146.0731  138.1403  155.0750 O   0  0  0  0  0  0  0  0  0  0  0  0
  146.7064  137.9168  154.0423 C   0  0  0  0  0  0  0  0  0  0  0  0
  147.4281  139.0542  153.3065 C   0  0  0  0  0  0  0  0  0  0  0  0
  148.5370  139.6284  154.0868 N   0  0  0  0  0  0  0  0  0  0  0  0
  149.7184  138.8665  154.1805 C   0  0  0  0  0  0  0  0  0  0  0  0
  150.7920  139.2925  154.8745 C   0  0  0  0  0  0  0  0  0  0  0  0
  151.9944  138.4937  154.9663 N   0  3  0  0  0  0  0  0  0  0  0  0
  152.0313  137.4168  154.3803 O   0  0  0  0  0  0  0  0  0  0  0  0
  152.9402  138.9140  155.6262 O   0  5  0  0  0  0  0  0  0  0  0  0
  150.7008  140.5813  155.5331 C   0  0  0  0  0  0  0  0  0  0  0  0
  149.5720  141.3127  155.4512 C   0  0  0  0  0  0  0  0  0  0  0  0
  148.4026  140.8439  154.7009 C   0  0  0  0  0  0  0  0  0  0  0  0
  147.3651  141.5033  154.6291 O   0  0  0  0  0  0  0  0  0  0  0  0
  146.8234  136.6959  153.4989 N   0  0  0  0  0  0  0  0  0  0  0  0
  146.2006  135.4788  154.0089 C   0  0  0  0  0  0  0  0  0  0  0  0
  146.6612  134.2340  153.2305 C   0  0  2  0  0  0  0  0  0  0  0  0
  146.3479  134.2479  151.7337 C   0  0  0  0  0  0  0  0  0  0  0  0
  146.3591  132.7718  151.4103 C   0  0  0  0  0  0  0  0  0  0  0  0
  145.7182  132.1705  152.6587 C   0  0  0  0  0  0  0  0  0  0  0  0
  146.0030  133.0722  153.7264 O   0  0  0  0  0  0  0  0  0  0  0  0
  147.7870  138.6667  152.3520 H   0  0  0  0  0  0  0  0  0  0  0  0
  146.7119  139.8359  153.0456 H   0  0  0  0  0  0  0  0  0  0  0  0
  149.6834  137.9191  153.6619 H   0  0  0  0  0  0  0  0  0  0  0  0
  151.5365  140.9688  156.0972 H   0  0  0  0  0  0  0  0  0  0  0  0
  149.5256  142.2697  155.9503 H   0  0  0  0  0  0  0  0  0  0  0  0
  147.3696  136.6049  152.6545 H   0  0  0  0  0  0  0  0  0  0  0  0
  146.4862  135.3764  155.0559 H   0  0  0  0  0  0  0  0  0  0  0  0
  145.1124  135.5583  153.9970 H   0  0  0  0  0  0  0  0  0  0  0  0
  147.7332  134.0842  153.3702 H   0  0  0  0  0  0  0  0  0  0  0  0
  145.3549  134.6611  151.5513 H   0  0  0  0  0  0  0  0  0  0  0  0
  147.0704  134.8199  151.1509 H   0  0  0  0  0  0  0  0  0  0  0  0
  145.8207  132.5273  150.4943 H   0  0  0  0  0  0  0  0  0  0  0  0
  147.3867  132.4201  151.3081 H   0  0  0  0  0  0  0  0  0  0  0  0
  144.6359  132.1072  152.5403 H   0  0  0  0  0  0  0  0  0  0  0  0
  146.0938  131.1698  152.8735 H   0  0  0  0  0  0  0  0  0  0  0  0
  1  2  2  0  0  0  0
  2  3  1  0  0  0  0
  2 14  1  0  0  0  0
  3  4  1  0  0  0  0
  3 21  1  0  0  0  0
  3 22  1  0  0  0  0
  4 12  1  0  0  0  0
  4  5  1  0  0  0  0
  5  6  2  0  0  0  0
  5 23  1  0  0  0  0
  6  7  1  0  0  0  0
  6 10  1  0  0  0  0
  7  8  2  0  0  0  0
  7  9  1  0  0  0  0
 10 11  2  0  0  0  0
 10 24  1  0  0  0  0
 11 12  1  0  0  0  0
 11 25  1  0  0  0  0
 12 13  2  0  0  0  0
 14 15  1  0  0  0  0
 14 26  1  0  0  0  0
 15 16  1  0  0  0  0
 15 27  1  0  0  0  0
 15 28  1  0  0  0  0
 16 20  1  0  0  0  0
 16 17  1  0  0  0  0
 16 29  1  0  0  0  0
 17 18  1  0  0  0  0
 17 30  1  0  0  0  0
 17 31  1  0  0  0  0
 18 19  1  0  0  0  0
 18 32  1  0  0  0  0
 18 33  1  0  0  0  0
 19 20  1  0  0  0  0
 19 34  1  0  0  0  0
 19 35  1  0  0  0  0
M  CHG  1   7   1
M  CHG  1   9  -1
M  END
> <s_m_source_file>
AV-unprocessed.smi

> <i_m_source_file_index>
2427

> <i_lp_mmshare_version>
43012

> <i_f3d_flags>
0

> <s_epik_input>
TzFbQ0gyXVtDSDJdW0NIMl1bQ0BIXTFbQ0gyXVtOSF1DKD1PKVtDSDJdbjJbY0hdYyhbTitdKD1PKVtPLV0pW2NIXVtjSF1jMj1P

> <s_epik_cmdline>
J2VwaWtfcHl0aG9uJywgJy1waCcsICc3LjAnLCAnLXRuJywgJzgnLCAnLW1hJywgJzIwMCcsICctbWV0YWxfYmluZGluZycsICctaW1hZScsICc8aW5maWxlLm1hZT4nLCAnLW9tYWUnLCAnPG91dGZpbGUubWFlPic=

> <r_lp_tautomer_probability>
1

> <r_epik_Ionization_Penalty>
2.69366e-08

> <r_epik_Ionization_Penalty_Charging>
7.76344e-11

> <r_epik_Ionization_Penalty_Neutral>
2.6859e-08

> <r_epik_State_Penalty>
-0

> <r_epik_Charging_Adjusted_Penalty>
7.76344e-11

> <i_epik_Tot_Q>
0

> <i_epik_Tot_abs_Q>
2

> <r_epik_Metal_State_Penalty>
-0

> <b_epik_Metal_Only>
0

> <s_lp_Force_Field>
OPLS_2005

> <r_lp_Energy>
28.4558

> <b_lp_Chiralities_Consistent>
1

> <s_lp_Variant>
AV-unprocessed.smi:2427-1

> <Gold.Version>
5.8.1

> <Gold.Id.Protein>
6NUR|6NUR_protein|mol2

> <Gold.PLP.Fitness>
42.4622

> <Gold.PLP.PLP>
-31.5249

> <Gold.PLP.part.hbond>
-3.0000

> <Gold.PLP.part.metal>
0.0000

> <Gold.PLP.part.buried>
-0.5270

> <Gold.PLP.part.nonpolar>
-26.9697

> <Gold.PLP.part.repulsive>
0.4230

> <Gold.PLP.ligand.clash>
0.0000

> <Gold.PLP.ligand.torsion>
0.2429

> <Gold.PLP.Chemscore.Hbond>
2.7920

> <Gold.PLP.Chemscore.CHOScore>
1.0000

> <Gold.PLP.Chemscore.Metal>
0.0000

> <Gold.Chemscore.Hbonds>
donor molecule, donor type, donor heavy atom, donor atom, acceptor molecule, acceptor atom, score
      L1  H    14    26       P1  7948  0.99
      P1  H  7997  8008       L1     9  1.00
      P1  H 10752 10764       L1     8  0.82
      L1  C     5    23       P1  7948  0.98

> <Gold.PLP.Chemscore.Internal.Correction>
0.0471

> <Gold.Rescore>
     Score         DG    S(hbond)    S(metal)    S(lipo)     H(rot)  DE(clash)    DE(int)     intcor
     16.06     -16.35       2.73        0.00      56.55       1.90       0.03       0.26       ----

> <Gold.Chemscore.Fitness>
16.0588

> <Gold.Chemscore.DG>
-16.3476

> <Gold.Chemscore.ZeroCoef>
-5.4800

> <Gold.Chemscore.Hbond>
2.7326

> <Gold.Chemscore.Metal>
0.0000

> <Gold.Chemscore.Lipo>
56.5475

> <Gold.Chemscore.Internal_Hbond>
0.0000

> <Gold.Chemscore.DEClash>
0.0306

> <Gold.Chemscore.DEInternal>
0.2582

> <Gold.Chemscore.Rot>
1.9044

> <Gold.Chemscore.Internal.Correction>
   9.000000E+99

> <Gold.Chemscore.Hbonds>
donor molecule, donor type, donor heavy atom, donor atom, acceptor molecule, acceptor atom, score
      L1  H    14    26       P1  7948  0.94
      P1  H  7997  8008       L1     9  0.99
      P1  H 10752 10764       L1     8  0.78

> <Gold.Chemscore.Hbond.Weighted>
-9.1268

> <Gold.Chemscore.Metal.Weighted>
-0.0000

> <Gold.Chemscore.Lipo.Weighted>
-6.6161

> <Gold.Chemscore.Internal_Hbond.Weighted>
0.0000

> <Gold.Chemscore.DEClash.Weighted>
0.0306

> <Gold.Chemscore.DEInternal.Weighted>
0.2582

> <Gold.Chemscore.Rot.Weighted>
4.8753

> <Gold.Chemscore.Internal.Correction.Weighted>
   9.000000E+99

> <Gold.Protein.RotatedTorsions>
[ 6907 6896 6895 6894 ] final -143.54 input  -60.11 | X-H torsion
[ 7974 7965 7964 7962 ] final   30.31 input  175.53 | X-H torsion
[ 8008 7997 7996 7995 ] final  -30.51 input   59.86 | X-H torsion
[ 10167 10162 10161 10158 ] final   10.42 input  -65.29 | X-H torsion
[ 10718 10713 10712 10709 ] final -127.66 input   66.30 | X-H torsion
[ 10763 10752 10751 10750 ] final  -93.61 input  -60.55 | X-H torsion
[ 11005 11000 10999 10996 ] final -107.98 input  -57.11 | X-H torsion

> <Gold.Protein.ActiveResidues>
 VAL166  LYS551  ARG553  GLY616  TRP617  ASP618  TYR619  PRO620  LYS621  CYS622 
 ASP623  PHE694  ASN695  SER759  ASP760  ASP761  ALA762  ILE779  LEU786  VAL792 
 PHE793  MET794  SER795  GLU796  ALA797  LYS798  CYS799  TRP800  GLU811  SER814 

> <Gold.Protein.RotatedAtoms>
  151.1018  133.5237  159.2609 H   0  0  0  0  0  0  0  0  0  0  0  0  # atno 6907 bound_to 6896
  151.2065  135.0463  159.8903 H   0  0  0  0  0  0  0  0  0  0  0  0  # atno 6908 bound_to 6896
  152.5443  134.0840  159.8301 H   0  0  0  0  0  0  0  0  0  0  0  0  # atno 6909 bound_to 6896
  146.1619  139.6806  142.9027 H   0  0  0  0  0  0  0  0  0  0  0  0  # atno 7974 bound_to 7965
  154.4248  140.1789  156.1419 H   0  0  0  0  0  0  0  0  0  0  0  0  # atno 8008 bound_to 7997
  155.9985  140.3362  155.6797 H   0  0  0  0  0  0  0  0  0  0  0  0  # atno 8009 bound_to 7997
  155.6275  140.0666  157.2650 H   0  0  0  0  0  0  0  0  0  0  0  0  # atno 8010 bound_to 7997
  140.6195  143.8235  150.7158 H   0  0  0  0  0  0  0  0  0  0  0  0  # atno 10167 bound_to 10162
  156.1877  130.6775  151.0386 H   0  0  0  0  0  0  0  0  0  0  0  0  # atno 10718 bound_to 10713
  154.6976  135.5188  153.8480 H   0  0  0  0  0  0  0  0  0  0  0  0  # atno 10763 bound_to 10752
  153.0679  135.6591  154.0322 H   0  0  0  0  0  0  0  0  0  0  0  0  # atno 10764 bound_to 10752
  154.0187  135.2995  155.3363 H   0  0  0  0  0  0  0  0  0  0  0  0  # atno 10765 bound_to 10752
  141.0926  133.9028  157.2040 H   0  0  0  0  0  0  0  0  0  0  0  0  # atno 11005 bound_to 11000
  145.4565  141.0431  143.2775 LP  0  0  0  0  0  0  0  0  0  0  0  0  # atno 17320 bound_to 7965
  144.8039  139.6088  143.7059 LP  0  0  0  0  0  0  0  0  0  0  0  0  # atno 17321 bound_to 7965
  140.1822  143.4106  152.1925 LP  0  0  0  0  0  0  0  0  0  0  0  0  # atno 17342 bound_to 10162
  139.5427  144.7271  151.4683 LP  0  0  0  0  0  0  0  0  0  0  0  0  # atno 17343 bound_to 10162
  157.6909  131.0810  150.7109 LP  0  0  0  0  0  0  0  0  0  0  0  0  # atno 17370 bound_to 10713
  156.7165  130.4667  149.5533 LP  0  0  0  0  0  0  0  0  0  0  0  0  # atno 17371 bound_to 10713
  139.9755  135.0115  156.9620 LP  0  0  0  0  0  0  0  0  0  0  0  0  # atno 17394 bound_to 11000
  140.5217  134.0901  155.7293 LP  0  0  0  0  0  0  0  0  0  0  0  0  # atno 17395 bound_to 11000

$$$$
