AV-unprocessed.smi:2902|AV-procd|sdf|11158|dock8
  -GOLD-   2272016 43D 1   1.00000     0.00000
 Structure written by MMmdl.
 47 48  0  0  0  0  0  0  0  0  1 V2000
  152.7991  137.8142  159.5822 C   0  0  0  0  0  0  0  0  0  0  0  0
  153.3991  139.2193  159.7172 C   0  0  0  0  0  0  0  0  0  0  0  0
  152.3709  140.3362  159.4581 C   0  0  1  0  0  0  0  0  0  0  0  0
  152.9562  141.5750  159.8607 O   0  0  0  0  0  0  0  0  0  0  0  0
  152.1743  142.7465  159.6435 C   0  0  0  0  0  0  0  0  0  0  0  0
  152.6782  143.5841  158.4652 C   0  0  0  0  0  0  0  0  0  0  0  0
  152.1601  144.9984  158.7454 C   0  0  0  0  0  0  0  0  0  0  0  0
  151.9405  145.0804  160.2647 C   0  0  0  0  0  0  0  0  0  0  0  0
  152.3166  143.7041  160.8254 C   0  0  0  0  0  0  0  0  0  0  0  0
  151.9647  140.3893  157.9763 C   0  0  0  0  0  0  0  0  0  0  0  0
  152.8215  140.3291  157.0942 O   0  0  0  0  0  0  0  0  0  0  0  0
  150.6536  140.5264  157.7230 N   0  0  0  0  0  0  0  0  0  0  0  0
  150.0528  140.6581  156.3973 C   0  0  1  0  0  0  0  0  0  0  0  0
  150.5079  139.4853  155.5071 C   0  0  0  0  0  0  0  0  0  0  0  0
  148.5117  140.7720  156.5228 C   0  0  1  0  0  0  0  0  0  0  0  0
  148.0624  141.9228  157.4428 C   0  0  0  0  0  0  0  0  0  0  0  0
  147.8755  140.9017  155.2191 N   0  0  0  0  0  0  0  0  0  0  0  0
  147.1899  141.9130  154.6801 C   0  0  0  0  0  0  0  0  0  0  0  0
  146.7548  141.6718  153.4515 N   0  0  0  0  0  0  0  0  0  0  0  0
  147.2392  140.4056  153.2829 C   0  0  0  0  0  0  0  0  0  0  0  0
  147.9170  139.8971  154.3120 N   0  0  0  0  0  0  0  0  0  0  0  0
  153.5566  137.0509  159.7606 H   0  0  0  0  0  0  0  0  0  0  0  0
  152.3934  137.6531  158.5832 H   0  0  0  0  0  0  0  0  0  0  0  0
  151.9947  137.6564  160.3012 H   0  0  0  0  0  0  0  0  0  0  0  0
  153.8301  139.3310  160.7132 H   0  0  0  0  0  0  0  0  0  0  0  0
  154.2270  139.3116  159.0125 H   0  0  0  0  0  0  0  0  0  0  0  0
  151.4874  140.1400  160.0693 H   0  0  0  0  0  0  0  0  0  0  0  0
  151.1157  142.5126  159.5146 H   0  0  0  0  0  0  0  0  0  0  0  0
  153.7692  143.5904  158.4618 H   0  0  0  0  0  0  0  0  0  0  0  0
  152.3498  143.2066  157.4975 H   0  0  0  0  0  0  0  0  0  0  0  0
  152.8586  145.7563  158.3903 H   0  0  0  0  0  0  0  0  0  0  0  0
  151.2133  145.1585  158.2284 H   0  0  0  0  0  0  0  0  0  0  0  0
  152.5366  145.8711  160.7218 H   0  0  0  0  0  0  0  0  0  0  0  0
  150.8928  145.2990  160.4748 H   0  0  0  0  0  0  0  0  0  0  0  0
  151.7015  143.4135  161.6774 H   0  0  0  0  0  0  0  0  0  0  0  0
  153.3552  143.7224  161.1594 H   0  0  0  0  0  0  0  0  0  0  0  0
  150.0244  140.5667  158.5117 H   0  0  0  0  0  0  0  0  0  0  0  0
  150.4153  141.5817  155.9416 H   0  0  0  0  0  0  0  0  0  0  0  0
  150.1603  139.5992  154.4802 H   0  0  0  0  0  0  0  0  0  0  0  0
  150.1291  138.5344  155.8827 H   0  0  0  0  0  0  0  0  0  0  0  0
  151.5955  139.4170  155.4690 H   0  0  0  0  0  0  0  0  0  0  0  0
  148.1473  139.8442  156.9687 H   0  0  0  0  0  0  0  0  0  0  0  0
  148.4204  141.7860  158.4632 H   0  0  0  0  0  0  0  0  0  0  0  0
  146.9746  141.9829  157.4896 H   0  0  0  0  0  0  0  0  0  0  0  0
  148.4326  142.8847  157.0867 H   0  0  0  0  0  0  0  0  0  0  0  0
  147.0074  142.8442  155.1964 H   0  0  0  0  0  0  0  0  0  0  0  0
  147.0870  139.8412  152.3745 H   0  0  0  0  0  0  0  0  0  0  0  0
  1  2  1  0  0  0  0
  1 22  1  0  0  0  0
  1 23  1  0  0  0  0
  1 24  1  0  0  0  0
  2  3  1  0  0  0  0
  2 25  1  0  0  0  0
  2 26  1  0  0  0  0
  3  4  1  0  0  0  0
  3 10  1  0  0  0  0
  3 27  1  0  0  0  0
  4  5  1  0  0  0  0
  5  9  1  0  0  0  0
  5  6  1  0  0  0  0
  5 28  1  0  0  0  0
  6  7  1  0  0  0  0
  6 29  1  0  0  0  0
  6 30  1  0  0  0  0
  7  8  1  0  0  0  0
  7 31  1  0  0  0  0
  7 32  1  0  0  0  0
  8  9  1  0  0  0  0
  8 33  1  0  0  0  0
  8 34  1  0  0  0  0
  9 35  1  0  0  0  0
  9 36  1  0  0  0  0
 10 11  2  0  0  0  0
 10 12  1  0  0  0  0
 12 13  1  0  0  0  0
 12 37  1  0  0  0  0
 13 14  1  0  0  0  0
 13 15  1  0  0  0  0
 13 38  1  0  0  0  0
 14 39  1  0  0  0  0
 14 40  1  0  0  0  0
 14 41  1  0  0  0  0
 15 16  1  0  0  0  0
 15 17  1  0  0  0  0
 15 42  1  0  0  0  0
 16 43  1  0  0  0  0
 16 44  1  0  0  0  0
 16 45  1  0  0  0  0
 17 21  1  0  0  0  0
 17 18  1  0  0  0  0
 18 19  2  0  0  0  0
 18 46  1  0  0  0  0
 19 20  1  0  0  0  0
 20 21  2  0  0  0  0
 20 47  1  0  0  0  0
M  END
> <s_m_source_file>
AV-unprocessed.smi

> <i_m_source_file_index>
2902

> <i_lp_mmshare_version>
43012

> <i_f3d_flags>
0

> <s_epik_input>
W0NIMl0xW0NIMl1bQ0gyXVtDSDJdW0NIXTFPW0NAQEhdKFtDSDJdW0NIM10pQyg9TylbTkhdW0NASF0oW0NIM10pW0NASF0oW0NIM10pbjJbY0hdbltjSF1uMg==

> <s_epik_cmdline>
J2VwaWtfcHl0aG9uJywgJy1waCcsICc3LjAnLCAnLXRuJywgJzgnLCAnLW1hJywgJzIwMCcsICctbWV0YWxfYmluZGluZycsICctaW1hZScsICc8aW5maWxlLm1hZT4nLCAnLW9tYWUnLCAnPG91dGZpbGUubWFlPic=

> <r_lp_tautomer_probability>
1

> <r_epik_Ionization_Penalty>
6.95617e-05

> <r_epik_Ionization_Penalty_Charging>
0

> <r_epik_Ionization_Penalty_Neutral>
6.95617e-05

> <r_epik_State_Penalty>
-0

> <r_epik_Charging_Adjusted_Penalty>
0

> <i_epik_Tot_Q>
0

> <i_epik_Tot_abs_Q>
0

> <r_epik_Metal_State_Penalty>
-0

> <b_epik_Metal_Only>
0

> <s_lp_Force_Field>
OPLS_2005

> <r_lp_Energy>
30.3462

> <b_lp_Chiralities_Consistent>
1

> <s_lp_Variant>
AV-unprocessed.smi:2902-8

> <Gold.Version>
5.8.1

> <Gold.Id.Protein>
6NUR|6NUR_protein|mol2

> <Gold.PLP.Fitness>
41.6634

> <Gold.PLP.PLP>
-36.7860

> <Gold.PLP.part.hbond>
-1.0000

> <Gold.PLP.part.metal>
0.0000

> <Gold.PLP.part.buried>
0.3402

> <Gold.PLP.part.nonpolar>
-35.6828

> <Gold.PLP.part.repulsive>
0.4068

> <Gold.PLP.ligand.clash>
0.0000

> <Gold.PLP.ligand.torsion>
1.2200

> <Gold.PLP.Chemscore.Hbond>
1.0000

> <Gold.PLP.Chemscore.CHOScore>
1.3749

> <Gold.PLP.Chemscore.Metal>
0.0000

> <Gold.Chemscore.Hbonds>
donor molecule, donor type, donor heavy atom, donor atom, acceptor molecule, acceptor atom, score
      P1  H  7997  8009       L1    11  0.94
      L1  C    18    46       P1  8028  0.52
      L1  C    20    47       P1  7957  0.17

> <Gold.PLP.Chemscore.Internal.Correction>
0.1928

> <Gold.Rescore>
     Score         DG    S(hbond)    S(metal)    S(lipo)     H(rot)  DE(clash)    DE(int)     intcor
      9.86     -12.66       0.95        0.00      93.08       2.69       0.08       2.71       ----

> <Gold.Chemscore.Fitness>
9.8599

> <Gold.Chemscore.DG>
-12.6595

> <Gold.Chemscore.ZeroCoef>
-5.4800

> <Gold.Chemscore.Hbond>
0.9536

> <Gold.Chemscore.Metal>
0.0000

> <Gold.Chemscore.Lipo>
93.0760

> <Gold.Chemscore.Internal_Hbond>
0.0000

> <Gold.Chemscore.DEClash>
0.0847

> <Gold.Chemscore.DEInternal>
2.7149

> <Gold.Chemscore.Rot>
2.6935

> <Gold.Chemscore.Internal.Correction>
   9.000000E+99

> <Gold.Chemscore.Hbonds>
donor molecule, donor type, donor heavy atom, donor atom, acceptor molecule, acceptor atom, score
      P1  H  7997  8009       L1    11  0.90

> <Gold.Chemscore.Hbond.Weighted>
-3.1850

> <Gold.Chemscore.Metal.Weighted>
-0.0000

> <Gold.Chemscore.Lipo.Weighted>
-10.8899

> <Gold.Chemscore.Internal_Hbond.Weighted>
0.0000

> <Gold.Chemscore.DEClash.Weighted>
0.0847

> <Gold.Chemscore.DEInternal.Weighted>
2.7149

> <Gold.Chemscore.Rot.Weighted>
6.8954

> <Gold.Chemscore.Internal.Correction.Weighted>
   9.000000E+99

> <Gold.Protein.RotatedTorsions>
[ 6907 6896 6895 6894 ] final  -92.14 input  -60.11 | X-H torsion
[ 7974 7965 7964 7962 ] final   58.92 input  175.53 | X-H torsion
[ 8008 7997 7996 7995 ] final  177.80 input   59.86 | X-H torsion
[ 10167 10162 10161 10158 ] final   39.20 input  -65.29 | X-H torsion
[ 10718 10713 10712 10709 ] final  -19.04 input   66.30 | X-H torsion
[ 10763 10752 10751 10750 ] final  145.64 input  -60.55 | X-H torsion
[ 11005 11000 10999 10996 ] final  114.96 input  -57.11 | X-H torsion

> <Gold.Protein.ActiveResidues>
 VAL166  LYS551  ARG553  GLY616  TRP617  ASP618  TYR619  PRO620  LYS621  CYS622 
 ASP623  PHE694  ASN695  SER759  ASP760  ASP761  ALA762  ILE779  LEU786  VAL792 
 PHE793  MET794  SER795  GLU796  ALA797  LYS798  CYS799  TRP800  GLU811  SER814 

> <Gold.Protein.RotatedAtoms>
  150.6902  134.2169  159.4380 H   0  0  0  0  0  0  0  0  0  0  0  0  # atno 6907 bound_to 6896
  152.0127  134.9865  160.0578 H   0  0  0  0  0  0  0  0  0  0  0  0  # atno 6908 bound_to 6896
  152.1473  133.4465  159.4833 H   0  0  0  0  0  0  0  0  0  0  0  0  # atno 6909 bound_to 6896
  145.9129  139.3668  143.0525 H   0  0  0  0  0  0  0  0  0  0  0  0  # atno 7974 bound_to 7965
  156.0617  140.1349  156.9933 H   0  0  0  0  0  0  0  0  0  0  0  0  # atno 8008 bound_to 7997
  154.4485  140.0990  156.6598 H   0  0  0  0  0  0  0  0  0  0  0  0  # atno 8009 bound_to 7997
  155.5367  140.3460  155.4440 H   0  0  0  0  0  0  0  0  0  0  0  0  # atno 8010 bound_to 7997
  140.3862  144.1913  150.6130 H   0  0  0  0  0  0  0  0  0  0  0  0  # atno 10167 bound_to 10162
  156.5512  130.4702  149.6451 H   0  0  0  0  0  0  0  0  0  0  0  0  # atno 10718 bound_to 10713
  154.0087  135.2916  155.3395 H   0  0  0  0  0  0  0  0  0  0  0  0  # atno 10763 bound_to 10752
  154.7116  135.5147  153.8678 H   0  0  0  0  0  0  0  0  0  0  0  0  # atno 10764 bound_to 10752
  153.0733  135.6655  154.0321 H   0  0  0  0  0  0  0  0  0  0  0  0  # atno 10765 bound_to 10752
  139.8996  134.9576  156.6972 H   0  0  0  0  0  0  0  0  0  0  0  0  # atno 11005 bound_to 11000
  145.8649  140.9454  143.0681 LP  0  0  0  0  0  0  0  0  0  0  0  0  # atno 17320 bound_to 7965
  144.6745  140.0579  143.7477 LP  0  0  0  0  0  0  0  0  0  0  0  0  # atno 17321 bound_to 7965
  140.4887  143.2355  151.8851 LP  0  0  0  0  0  0  0  0  0  0  0  0  # atno 17342 bound_to 10162
  139.4792  144.5190  151.8827 LP  0  0  0  0  0  0  0  0  0  0  0  0  # atno 17343 bound_to 10162
  156.2883  130.7109  151.1952 LP  0  0  0  0  0  0  0  0  0  0  0  0  # atno 17370 bound_to 10713
  157.7387  131.0538  150.5278 LP  0  0  0  0  0  0  0  0  0  0  0  0  # atno 17371 bound_to 10713
  140.7179  133.9166  155.8127 LP  0  0  0  0  0  0  0  0  0  0  0  0  # atno 17394 bound_to 11000
  141.0250  134.0836  157.4078 LP  0  0  0  0  0  0  0  0  0  0  0  0  # atno 17395 bound_to 11000

$$$$
