AV-unprocessed.smi:2063|AV-procd|sdf|8408|dock1
  -GOLD-   2272011 93D 1   1.00000     0.00000
 Structure written by MMmdl.
 39 40  0  0  0  0  0  0  0  0  1 V2000
  151.8557  140.1530  158.5172 C   0  0  0  0  0  0  0  0  0  0  0  0
  151.5868  140.8192  157.1600 C   0  0  0  0  0  0  0  0  0  0  0  0
  150.7374  142.0937  157.2712 C   0  0  0  0  0  0  0  0  0  0  0  0
  151.0295  139.8555  156.1590 C   0  0  0  0  0  0  0  0  0  0  0  0
  150.6999  140.2104  154.9096 N   0  0  0  0  0  0  0  0  0  0  0  0
  150.2097  139.1442  154.1695 N   0  0  0  0  0  0  0  0  0  0  0  0
  150.1812  138.0110  154.8837 C   0  0  0  0  0  0  0  0  0  0  0  0
  149.7299  136.7661  154.3704 N   0  0  0  0  0  0  0  0  0  0  0  0
  149.5090  135.6203  155.0387 C   0  0  0  0  0  0  0  0  0  0  0  0
  149.6884  135.4551  156.2454 O   0  0  0  0  0  0  0  0  0  0  0  0
  149.0572  134.6609  154.2170 N   0  0  0  0  0  0  0  0  0  0  0  0
  148.7165  133.2921  154.6033 C   0  0  2  0  0  0  0  0  0  0  0  0
  149.9607  132.6285  155.2118 C   0  0  0  0  0  0  0  0  0  0  0  0
  148.1818  132.5026  153.3899 C   0  0  2  0  0  0  0  0  0  0  0  0
  146.9991  133.1471  152.6644 C   0  0  0  0  0  0  0  0  0  0  0  0
  146.3823  131.9555  151.9697 C   0  0  0  0  0  0  0  0  0  0  0  0
  146.5548  130.8581  153.0158 C   0  0  0  0  0  0  0  0  0  0  0  0
  147.6896  131.2276  153.7964 O   0  0  0  0  0  0  0  0  0  0  0  0
  150.7569  138.1570  156.5353 S   0  0  0  0  0  0  0  0  0  0  0  0
  152.5302  139.3030  158.4097 H   0  0  0  0  0  0  0  0  0  0  0  0
  150.9329  139.7908  158.9717 H   0  0  0  0  0  0  0  0  0  0  0  0
  152.3162  140.8538  159.2141 H   0  0  0  0  0  0  0  0  0  0  0  0
  152.5583  141.1324  156.7755 H   0  0  0  0  0  0  0  0  0  0  0  0
  150.6371  142.5835  156.3021 H   0  0  0  0  0  0  0  0  0  0  0  0
  151.1909  142.8095  157.9574 H   0  0  0  0  0  0  0  0  0  0  0  0
  149.7348  141.8719  157.6382 H   0  0  0  0  0  0  0  0  0  0  0  0
  149.5455  136.7484  153.3785 H   0  0  0  0  0  0  0  0  0  0  0  0
  148.9390  134.8932  153.2418 H   0  0  0  0  0  0  0  0  0  0  0  0
  147.9436  133.3073  155.3740 H   0  0  0  0  0  0  0  0  0  0  0  0
  149.7403  131.6175  155.5549 H   0  0  0  0  0  0  0  0  0  0  0  0
  150.3256  133.1920  156.0711 H   0  0  0  0  0  0  0  0  0  0  0  0
  150.7725  132.5633  154.4864 H   0  0  0  0  0  0  0  0  0  0  0  0
  148.9853  132.3324  152.6709 H   0  0  0  0  0  0  0  0  0  0  0  0
  146.2910  133.5683  153.3798 H   0  0  0  0  0  0  0  0  0  0  0  0
  147.2990  133.9354  151.9736 H   0  0  0  0  0  0  0  0  0  0  0  0
  145.3419  132.1141  151.6844 H   0  0  0  0  0  0  0  0  0  0  0  0
  146.9510  131.7123  151.0712 H   0  0  0  0  0  0  0  0  0  0  0  0
  145.6846  130.8137  153.6713 H   0  0  0  0  0  0  0  0  0  0  0  0
  146.6875  129.8755  152.5628 H   0  0  0  0  0  0  0  0  0  0  0  0
  1  2  1  0  0  0  0
  1 20  1  0  0  0  0
  1 21  1  0  0  0  0
  1 22  1  0  0  0  0
  2  3  1  0  0  0  0
  2  4  1  0  0  0  0
  2 23  1  0  0  0  0
  3 24  1  0  0  0  0
  3 25  1  0  0  0  0
  3 26  1  0  0  0  0
  4 19  1  0  0  0  0
  4  5  2  0  0  0  0
  5  6  1  0  0  0  0
  6  7  2  0  0  0  0
  7  8  1  0  0  0  0
  7 19  1  0  0  0  0
  8  9  1  0  0  0  0
  8 27  1  0  0  0  0
  9 10  2  0  0  0  0
  9 11  1  0  0  0  0
 11 12  1  0  0  0  0
 11 28  1  0  0  0  0
 12 13  1  0  0  0  0
 12 14  1  0  0  0  0
 12 29  1  0  0  0  0
 13 30  1  0  0  0  0
 13 31  1  0  0  0  0
 13 32  1  0  0  0  0
 14 18  1  0  0  0  0
 14 15  1  0  0  0  0
 14 33  1  0  0  0  0
 15 16  1  0  0  0  0
 15 34  1  0  0  0  0
 15 35  1  0  0  0  0
 16 17  1  0  0  0  0
 16 36  1  0  0  0  0
 16 37  1  0  0  0  0
 17 18  1  0  0  0  0
 17 38  1  0  0  0  0
 17 39  1  0  0  0  0
M  END
> <s_m_source_file>
AV-unprocessed.smi

> <i_m_source_file_index>
2063

> <i_lp_mmshare_version>
43012

> <i_f3d_flags>
0

> <s_epik_input>
W0NIM11bQ0hdKFtDSDNdKWMxbm5jKHMxKVtOSF1DKD1PKVtOSF1bQ0BIXShbQ0gzXSlbQ0BASF0yW0NIMl1bQ0gyXVtDSDJdTzI=

> <s_epik_cmdline>
J2VwaWtfcHl0aG9uJywgJy1waCcsICc3LjAnLCAnLXRuJywgJzgnLCAnLW1hJywgJzIwMCcsICctbWV0YWxfYmluZGluZycsICctaW1hZScsICc8aW5maWxlLm1hZT4nLCAnLW9tYWUnLCAnPG91dGZpbGUubWFlPic=

> <r_lp_tautomer_probability>
1

> <r_epik_Ionization_Penalty>
0.00050567

> <r_epik_Ionization_Penalty_Charging>
0

> <r_epik_Ionization_Penalty_Neutral>
0.00050567

> <r_epik_State_Penalty>
-0

> <r_epik_Charging_Adjusted_Penalty>
0

> <i_epik_Tot_Q>
0

> <i_epik_Tot_abs_Q>
0

> <r_epik_Metal_State_Penalty>
0.219912

> <b_epik_Metal_Only>
0

> <s_lp_Force_Field>
OPLS_2005

> <r_lp_Energy>
10.8376

> <b_lp_Chiralities_Consistent>
1

> <s_lp_Variant>
AV-unprocessed.smi:2063-1

> <Gold.Version>
5.8.1

> <Gold.Id.Protein>
6NUR|6NUR_protein|mol2

> <Gold.PLP.Fitness>
36.4387

> <Gold.PLP.PLP>
-28.8984

> <Gold.PLP.part.hbond>
-3.6534

> <Gold.PLP.part.metal>
0.0000

> <Gold.PLP.part.buried>
-4.4842

> <Gold.PLP.part.nonpolar>
-22.3105

> <Gold.PLP.part.repulsive>
0.4357

> <Gold.PLP.ligand.clash>
0.0000

> <Gold.PLP.ligand.torsion>
0.1409

> <Gold.PLP.Chemscore.Hbond>
2.5784

> <Gold.PLP.Chemscore.CHOScore>
0.0000

> <Gold.PLP.Chemscore.Metal>
0.0000

> <Gold.Chemscore.Hbonds>
donor molecule, donor type, donor heavy atom, donor atom, acceptor molecule, acceptor atom, score
      L1  H     8    27       P1  7948  1.00
      L1  H    11    28       P1  7948  0.94
      P1  H  7989  7998       L1     5  0.65

> <Gold.PLP.Chemscore.Internal.Correction>
0.0869

> <Gold.Rescore>
     Score         DG    S(hbond)    S(metal)    S(lipo)     H(rot)  DE(clash)    DE(int)     intcor
     13.09     -14.47       1.82        0.00      55.95       1.42       0.04       1.34       ----

> <Gold.Chemscore.Fitness>
13.0946

> <Gold.Chemscore.DG>
-14.4704

> <Gold.Chemscore.ZeroCoef>
-5.4800

> <Gold.Chemscore.Hbond>
1.8166

> <Gold.Chemscore.Metal>
0.0000

> <Gold.Chemscore.Lipo>
55.9467

> <Gold.Chemscore.Internal_Hbond>
0.0000

> <Gold.Chemscore.DEClash>
0.0354

> <Gold.Chemscore.DEInternal>
1.3404

> <Gold.Chemscore.Rot>
1.4152

> <Gold.Chemscore.Internal.Correction>
   9.000000E+99

> <Gold.Chemscore.Hbonds>
donor molecule, donor type, donor heavy atom, donor atom, acceptor molecule, acceptor atom, score
      L1  H     8    27       P1  7948  0.70
      L1  H    11    28       P1  7948  0.20
      P1  H  7989  7998       L1     5  0.06

> <Gold.Chemscore.Hbond.Weighted>
-6.0675

> <Gold.Chemscore.Metal.Weighted>
-0.0000

> <Gold.Chemscore.Lipo.Weighted>
-6.5458

> <Gold.Chemscore.Internal_Hbond.Weighted>
0.0000

> <Gold.Chemscore.DEClash.Weighted>
0.0354

> <Gold.Chemscore.DEInternal.Weighted>
1.3404

> <Gold.Chemscore.Rot.Weighted>
3.6229

> <Gold.Chemscore.Internal.Correction.Weighted>
   9.000000E+99

> <Gold.Protein.RotatedTorsions>
[ 6907 6896 6895 6894 ] final  -36.26 input  -60.11 | X-H torsion
[ 7974 7965 7964 7962 ] final  -35.23 input  175.53 | X-H torsion
[ 8008 7997 7996 7995 ] final   21.70 input   59.86 | X-H torsion
[ 10167 10162 10161 10158 ] final -143.97 input  -65.29 | X-H torsion
[ 10718 10713 10712 10709 ] final  126.87 input   66.30 | X-H torsion
[ 10763 10752 10751 10750 ] final   44.24 input  -60.55 | X-H torsion
[ 11005 11000 10999 10996 ] final  -20.24 input  -57.11 | X-H torsion

> <Gold.Protein.ActiveResidues>
 VAL166  LYS551  ARG553  GLY616  TRP617  ASP618  TYR619  PRO620  LYS621  CYS622 
 ASP623  PHE694  ASN695  SER759  ASP760  ASP761  ALA762  ILE779  LEU786  VAL792 
 PHE793  MET794  SER795  GLU796  ALA797  LYS798  CYS799  TRP800  GLU811  SER814 

> <Gold.Protein.RotatedAtoms>
  151.0294  134.9528  159.8102 H   0  0  0  0  0  0  0  0  0  0  0  0  # atno 6907 bound_to 6896
  152.5342  134.2800  159.9014 H   0  0  0  0  0  0  0  0  0  0  0  0  # atno 6908 bound_to 6896
  151.2809  133.4168  159.2661 H   0  0  0  0  0  0  0  0  0  0  0  0  # atno 6909 bound_to 6896
  146.0764  140.6134  142.8928 H   0  0  0  0  0  0  0  0  0  0  0  0  # atno 7974 bound_to 7965
  154.9546  140.3070  155.5059 H   0  0  0  0  0  0  0  0  0  0  0  0  # atno 8008 bound_to 7997
  156.2983  140.2312  156.4565 H   0  0  0  0  0  0  0  0  0  0  0  0  # atno 8009 bound_to 7997
  154.8022  140.0433  157.1270 H   0  0  0  0  0  0  0  0  0  0  0  0  # atno 8010 bound_to 7997
  139.7943  143.7922  152.2653 H   0  0  0  0  0  0  0  0  0  0  0  0  # atno 10167 bound_to 10162
  157.5382  131.1097  150.8902 H   0  0  0  0  0  0  0  0  0  0  0  0  # atno 10718 bound_to 10713
  152.9845  135.6076  154.3242 H   0  0  0  0  0  0  0  0  0  0  0  0  # atno 10763 bound_to 10752
  154.2950  135.2774  155.2639 H   0  0  0  0  0  0  0  0  0  0  0  0  # atno 10764 bound_to 10752
  154.4917  135.5890  153.6521 H   0  0  0  0  0  0  0  0  0  0  0  0  # atno 10765 bound_to 10752
  140.8445  133.7902  155.9897 H   0  0  0  0  0  0  0  0  0  0  0  0  # atno 11005 bound_to 11000
  144.7264  140.4538  143.6970 LP  0  0  0  0  0  0  0  0  0  0  0  0  # atno 17320 bound_to 7965
  145.6298  139.1535  143.2975 LP  0  0  0  0  0  0  0  0  0  0  0  0  # atno 17321 bound_to 7965
  139.8023  144.7369  150.9808 LP  0  0  0  0  0  0  0  0  0  0  0  0  # atno 17342 bound_to 10162
  140.7820  143.4333  151.0662 LP  0  0  0  0  0  0  0  0  0  0  0  0  # atno 17343 bound_to 10162
  156.9463  130.5403  149.5281 LP  0  0  0  0  0  0  0  0  0  0  0  0  # atno 17370 bound_to 10713
  156.0475  130.5549  150.8914 LP  0  0  0  0  0  0  0  0  0  0  0  0  # atno 17371 bound_to 10713
  140.8859  134.2555  157.5120 LP  0  0  0  0  0  0  0  0  0  0  0  0  # atno 17394 bound_to 11000
  139.8703  134.9638  156.4473 LP  0  0  0  0  0  0  0  0  0  0  0  0  # atno 17395 bound_to 11000

$$$$
