AV-unprocessed.smi:2007|AV-procd|sdf|8139|dock9
  -GOLD-   2272010373D 1   1.00000     0.00000
 Structure written by MMmdl.
 36 37  0  0  0  0  0  0  0  0  3 V2000
  149.4156  133.7416  155.4644 C   0  0  0  0  0  0  0  0  0  0  0  0
  149.4706  135.2484  155.7496 C   0  0  2  0  0  0  0  0  0  0  0  0
  150.5818  135.9413  154.9281 C   0  0  0  0  0  0  0  0  0  0  0  0
  150.7095  137.3859  155.2456 N   0  3  0  0  0  0  0  0  0  0  0  0
  152.0467  137.9446  154.9434 C   0  0  0  0  0  0  0  0  0  0  0  0
  152.1199  139.4094  155.4081 C   0  0  0  0  0  0  0  0  0  0  0  0
  151.0855  140.1631  154.7855 O   0  0  0  0  0  0  0  0  0  0  0  0
  149.7916  139.6771  155.1254 C   0  0  0  0  0  0  0  0  0  0  0  0
  149.6473  138.2249  154.6423 C   0  0  0  0  0  0  0  0  0  0  0  0
  149.6788  135.4630  157.1831 N   0  0  0  0  0  0  0  0  0  0  0  0
  148.7563  135.8480  158.0781 C   0  0  0  0  0  0  0  0  0  0  0  0
  147.5806  135.9862  157.7336 O   0  0  0  0  0  0  0  0  0  0  0  0
  149.2599  136.0804  159.3098 N   0  5  0  0  0  0  0  0  0  0  0  0
  148.4665  135.9722  160.3877 C   0  0  0  0  0  0  0  0  0  0  0  0
  148.5324  136.8096  161.4297 N   0  0  0  0  0  0  0  0  0  0  0  0
  147.6164  136.5106  162.4401 C   0  0  0  0  0  0  0  0  0  0  0  0
  146.8401  135.4165  162.1632 C   0  0  0  0  0  0  0  0  0  0  0  0
  147.2380  134.7256  160.6158 S   0  0  0  0  0  0  0  0  0  0  0  0
  149.2350  133.5495  154.4065 H   0  0  0  0  0  0  0  0  0  0  0  0
  148.6118  133.2654  156.0270 H   0  0  0  0  0  0  0  0  0  0  0  0
  150.3497  133.2498  155.7376 H   0  0  0  0  0  0  0  0  0  0  0  0
  148.5042  135.6605  155.4566 H   0  0  0  0  0  0  0  0  0  0  0  0
  151.5266  135.4449  155.1555 H   0  0  0  0  0  0  0  0  0  0  0  0
  150.4188  135.8071  153.8578 H   0  0  0  0  0  0  0  0  0  0  0  0
  152.8162  137.3626  155.4522 H   0  0  0  0  0  0  0  0  0  0  0  0
  152.2421  137.8751  153.8722 H   0  0  0  0  0  0  0  0  0  0  0  0
  152.0316  139.4774  156.4938 H   0  0  0  0  0  0  0  0  0  0  0  0
  153.0837  139.8415  155.1389 H   0  0  0  0  0  0  0  0  0  0  0  0
  149.6327  139.7467  156.2030 H   0  0  0  0  0  0  0  0  0  0  0  0
  149.0404  140.3083  154.6505 H   0  0  0  0  0  0  0  0  0  0  0  0
  149.7162  138.1821  153.5543 H   0  0  0  0  0  0  0  0  0  0  0  0
  148.6626  137.8457  154.9143 H   0  0  0  0  0  0  0  0  0  0  0  0
  150.6231  135.3506  157.5230 H   0  0  0  0  0  0  0  0  0  0  0  0
  147.5870  137.1300  163.3242 H   0  0  0  0  0  0  0  0  0  0  0  0
  146.0640  134.9763  162.7709 H   0  0  0  0  0  0  0  0  0  0  0  0
  150.6006  137.4558  156.2485 H   0  0  0  0  0  0  0  0  0  0  0  0
  1  2  1  0  0  0  0
  1 19  1  0  0  0  0
  1 20  1  0  0  0  0
  1 21  1  0  0  0  0
  2  3  1  0  0  0  0
  2 10  1  0  0  0  0
  2 22  1  0  0  0  0
  3  4  1  0  0  0  0
  3 23  1  0  0  0  0
  3 24  1  0  0  0  0
  4  9  1  0  0  0  0
  4  5  1  0  0  0  0
  4 36  1  0  0  0  0
  5  6  1  0  0  0  0
  5 25  1  0  0  0  0
  5 26  1  0  0  0  0
  6  7  1  0  0  0  0
  6 27  1  0  0  0  0
  6 28  1  0  0  0  0
  7  8  1  0  0  0  0
  8  9  1  0  0  0  0
  8 29  1  0  0  0  0
  8 30  1  0  0  0  0
  9 31  1  0  0  0  0
  9 32  1  0  0  0  0
 10 11  1  0  0  0  0
 10 33  1  0  0  0  0
 11 12  2  0  0  0  0
 11 13  1  0  0  0  0
 13 14  1  0  0  0  0
 14 18  1  0  0  0  0
 14 15  2  0  0  0  0
 15 16  1  0  0  0  0
 16 17  2  0  0  0  0
 16 34  1  0  0  0  0
 17 18  1  0  0  0  0
 17 35  1  0  0  0  0
M  CHG  1   4   1
M  CHG  1  13  -1
M  END
> <s_m_source_file>
AV-unprocessed.smi

> <i_m_source_file_index>
2007

> <i_lp_mmshare_version>
43012

> <i_f3d_flags>
0

> <s_epik_input>
W0NIMl0xW0NIMl1PW0NIMl1bQ0gyXU4xW0NIMl1bQ0BASF0oW0NIM10pW05IXUMoPU8pW05IXWMybltjSF1bY0hdczI=

> <s_epik_cmdline>
J2VwaWtfcHl0aG9uJywgJy1waCcsICc3LjAnLCAnLXRuJywgJzgnLCAnLW1hJywgJzIwMCcsICctbWV0YWxfYmluZGluZycsICctaW1hZScsICc8aW5maWxlLm1hZT4nLCAnLW9tYWUnLCAnPG91dGZpbGUubWFlPic=

> <r_lp_tautomer_probability>
0.999

> <r_epik_Ionization_Penalty>
6.49226

> <r_epik_Ionization_Penalty_Charging>
5.74393

> <r_epik_Ionization_Penalty_Neutral>
0.748321

> <r_epik_State_Penalty>
5.94164

> <r_epik_Charging_Adjusted_Penalty>
11.6856

> <i_epik_Tot_Q>
0

> <i_epik_Tot_abs_Q>
2

> <r_epik_Metal_State_Penalty>
1.97606

> <b_epik_Metal_Only>
1

> <s_lp_Force_Field>
OPLS_2005

> <r_lp_Energy>
10.1627

> <b_lp_Chiralities_Consistent>
1

> <s_lp_Variant>
AV-unprocessed.smi:2007-7

> <Gold.Version>
5.8.1

> <Gold.Id.Protein>
6NUR|6NUR_protein|mol2

> <Gold.PLP.Fitness>
40.5730

> <Gold.PLP.PLP>
-30.0800

> <Gold.PLP.part.hbond>
-3.1360

> <Gold.PLP.part.metal>
0.0000

> <Gold.PLP.part.buried>
-4.2909

> <Gold.PLP.part.nonpolar>
-23.5995

> <Gold.PLP.part.repulsive>
0.2109

> <Gold.PLP.ligand.clash>
0.0000

> <Gold.PLP.ligand.torsion>
0.8232

> <Gold.PLP.Chemscore.Hbond>
4.0000

> <Gold.PLP.Chemscore.CHOScore>
0.0000

> <Gold.PLP.Chemscore.Metal>
0.0000

> <Gold.Chemscore.Hbonds>
donor molecule, donor type, donor heavy atom, donor atom, acceptor molecule, acceptor atom, score
      P1  H  6896  6909       L1    13  2.00
      P1  H  6931  6943       L1    15  1.00
      P1  H  7989  7998       L1     7  1.00

> <Gold.PLP.Chemscore.Internal.Correction>
0.1394

> <Gold.Rescore>
     Score         DG    S(hbond)    S(metal)    S(lipo)     H(rot)  DE(clash)    DE(int)     intcor
     15.47     -16.32       2.30        0.00      61.87       1.60       0.00       0.85       ----

> <Gold.Chemscore.Fitness>
15.4675

> <Gold.Chemscore.DG>
-16.3216

> <Gold.Chemscore.ZeroCoef>
-5.4800

> <Gold.Chemscore.Hbond>
2.3045

> <Gold.Chemscore.Metal>
0.0000

> <Gold.Chemscore.Lipo>
61.8651

> <Gold.Chemscore.Internal_Hbond>
0.0000

> <Gold.Chemscore.DEClash>
0.0048

> <Gold.Chemscore.DEInternal>
0.8493

> <Gold.Chemscore.Rot>
1.5991

> <Gold.Chemscore.Internal.Correction>
   9.000000E+99

> <Gold.Chemscore.Hbonds>
donor molecule, donor type, donor heavy atom, donor atom, acceptor molecule, acceptor atom, score
      P1  H  6896  6909       L1    13  0.31
      P1  H  6931  6943       L1    15  0.29
      P1  H  7989  7998       L1     7  0.72

> <Gold.Chemscore.Hbond.Weighted>
-7.6970

> <Gold.Chemscore.Metal.Weighted>
-0.0000

> <Gold.Chemscore.Lipo.Weighted>
-7.2382

> <Gold.Chemscore.Internal_Hbond.Weighted>
0.0000

> <Gold.Chemscore.DEClash.Weighted>
0.0048

> <Gold.Chemscore.DEInternal.Weighted>
0.8493

> <Gold.Chemscore.Rot.Weighted>
4.0936

> <Gold.Chemscore.Internal.Correction.Weighted>
   9.000000E+99

> <Gold.Protein.RotatedTorsions>
[ 6907 6896 6895 6894 ] final   66.07 input  -60.11 | X-H torsion
[ 7974 7965 7964 7962 ] final   54.55 input  175.53 | X-H torsion
[ 8008 7997 7996 7995 ] final -129.00 input   59.86 | X-H torsion
[ 10167 10162 10161 10158 ] final  -94.11 input  -65.29 | X-H torsion
[ 10718 10713 10712 10709 ] final   76.09 input   66.30 | X-H torsion
[ 10763 10752 10751 10750 ] final  154.06 input  -60.55 | X-H torsion
[ 11005 11000 10999 10996 ] final   43.38 input  -57.11 | X-H torsion

> <Gold.Protein.ActiveResidues>
 VAL166  LYS551  ARG553  GLY616  TRP617  ASP618  TYR619  PRO620  LYS621  CYS622 
 ASP623  PHE694  ASN695  SER759  ASP760  ASP761  ALA762  ILE779  LEU786  VAL792 
 PHE793  MET794  SER795  GLU796  ALA797  LYS798  CYS799  TRP800  GLU811  SER814 

> <Gold.Protein.RotatedAtoms>
  152.4454  134.5505  159.9865 H   0  0  0  0  0  0  0  0  0  0  0  0  # atno 6907 bound_to 6896
  151.5591  133.3400  159.2975 H   0  0  0  0  0  0  0  0  0  0  0  0  # atno 6908 bound_to 6896
  150.8369  134.7679  159.6964 H   0  0  0  0  0  0  0  0  0  0  0  0  # atno 6909 bound_to 6896
  145.9596  139.4047  143.0256 H   0  0  0  0  0  0  0  0  0  0  0  0  # atno 7974 bound_to 7965
  155.2720  140.0440  157.3008 H   0  0  0  0  0  0  0  0  0  0  0  0  # atno 8008 bound_to 7997
  154.5647  140.2356  155.8250 H   0  0  0  0  0  0  0  0  0  0  0  0  # atno 8009 bound_to 7997
  156.2076  140.3008  155.9668 H   0  0  0  0  0  0  0  0  0  0  0  0  # atno 8010 bound_to 7997
  140.3178  143.3067  152.0079 H   0  0  0  0  0  0  0  0  0  0  0  0  # atno 10167 bound_to 10162
  157.6660  130.9758  150.1448 H   0  0  0  0  0  0  0  0  0  0  0  0  # atno 10718 bound_to 10713
  154.1463  135.2818  155.3147 H   0  0  0  0  0  0  0  0  0  0  0  0  # atno 10763 bound_to 10752
  154.6250  135.5454  153.7620 H   0  0  0  0  0  0  0  0  0  0  0  0  # atno 10764 bound_to 10752
  153.0235  135.6448  154.1609 H   0  0  0  0  0  0  0  0  0  0  0  0  # atno 10765 bound_to 10752
  140.1650  134.4293  155.8293 H   0  0  0  0  0  0  0  0  0  0  0  0  # atno 11005 bound_to 11000
  145.8058  140.9749  143.0975 LP  0  0  0  0  0  0  0  0  0  0  0  0  # atno 17320 bound_to 7965
  144.6812  139.9858  143.7484 LP  0  0  0  0  0  0  0  0  0  0  0  0  # atno 17321 bound_to 7965
  139.4880  144.6335  151.7023 LP  0  0  0  0  0  0  0  0  0  0  0  0  # atno 17342 bound_to 10162
  140.5511  144.0424  150.6127 LP  0  0  0  0  0  0  0  0  0  0  0  0  # atno 17343 bound_to 10162
  156.2261  130.3678  149.8498 LP  0  0  0  0  0  0  0  0  0  0  0  0  # atno 17370 bound_to 10713
  156.6338  130.8676  151.3500 LP  0  0  0  0  0  0  0  0  0  0  0  0  # atno 17371 bound_to 10713
  141.2213  133.6930  156.7663 LP  0  0  0  0  0  0  0  0  0  0  0  0  # atno 17394 bound_to 11000
  140.2444  134.8589  157.3605 LP  0  0  0  0  0  0  0  0  0  0  0  0  # atno 17395 bound_to 11000

$$$$
