AV-unprocessed.smi:2278|AV-procd|sdf|9180|dock7
  -GOLD-   2272012393D 1   1.00000     0.00000
 Structure written by MMmdl.
 46 47  0  0  0  0  0  0  0  0  2 V2000
  151.9985  143.8822  160.2604 C   0  0  0  0  0  0  0  0  0  0  0  0
  151.7995  142.8955  159.1237 C   0  0  0  0  0  0  0  0  0  0  0  0
  150.8775  143.2789  158.1454 N   0  0  0  0  0  0  0  0  0  0  0  0
  150.6413  142.5004  157.1409 C   0  0  0  0  0  0  0  0  0  0  0  0
  151.2903  141.2633  156.9985 N   0  0  0  0  0  0  0  0  0  0  0  0
  150.9276  140.4664  155.8144 C   0  0  0  0  0  0  0  0  0  0  0  0
  149.6531  140.9986  155.1203 C   0  0  1  0  0  0  0  0  0  0  0  0
  149.8465  140.9329  153.7208 O   0  0  0  0  0  0  0  0  0  0  0  0
  148.4228  140.1305  155.4548 C   0  0  0  0  0  0  0  0  0  0  0  0
  147.1553  140.9048  155.4279 N   0  3  2  0  0  0  0  0  0  0  0  0
  146.9792  141.6988  154.1827 C   0  0  0  0  0  0  0  0  0  0  0  0
  145.5984  142.3745  154.1462 C   0  0  0  0  0  0  0  0  0  0  0  0
  145.3800  143.2645  155.3810 C   0  0  1  0  0  0  0  0  0  0  0  0
  143.9934  143.9231  155.3690 C   0  0  0  0  0  0  0  0  0  0  0  0
  145.6043  142.4290  156.6524 C   0  0  0  0  0  0  0  0  0  0  0  0
  146.9835  141.7481  156.6387 C   0  0  0  0  0  0  0  0  0  0  0  0
  152.2018  140.8113  157.9082 C   0  0  0  0  0  0  0  0  0  0  0  0
  152.7560  139.7179  157.7768 O   0  0  0  0  0  0  0  0  0  0  0  0
  152.4614  141.7087  159.0451 C   0  0  0  0  0  0  0  0  0  0  0  0
  153.4733  141.2365  160.0817 C   0  0  0  0  0  0  0  0  0  0  0  0
  153.0413  144.1957  160.3181 H   0  0  0  0  0  0  0  0  0  0  0  0
  151.7172  143.4291  161.2116 H   0  0  0  0  0  0  0  0  0  0  0  0
  151.3888  144.7762  160.1221 H   0  0  0  0  0  0  0  0  0  0  0  0
  149.9287  142.7520  156.3534 H   0  0  0  0  0  0  0  0  0  0  0  0
  151.7496  140.3832  155.0996 H   0  0  0  0  0  0  0  0  0  0  0  0
  150.7603  139.4394  156.1441 H   0  0  0  0  0  0  0  0  0  0  0  0
  149.4734  142.0344  155.4056 H   0  0  0  0  0  0  0  0  0  0  0  0
  149.1624  140.3991  153.3451 H   0  0  0  0  0  0  0  0  0  0  0  0
  148.3745  139.3070  154.7400 H   0  0  0  0  0  0  0  0  0  0  0  0
  148.5327  139.6694  156.4377 H   0  0  0  0  0  0  0  0  0  0  0  0
  147.7652  142.4528  154.1168 H   0  0  0  0  0  0  0  0  0  0  0  0
  147.0825  141.0624  153.3046 H   0  0  0  0  0  0  0  0  0  0  0  0
  145.5062  142.9689  153.2364 H   0  0  0  0  0  0  0  0  0  0  0  0
  144.8207  141.6109  154.0961 H   0  0  0  0  0  0  0  0  0  0  0  0
  146.1252  144.0614  155.3616 H   0  0  0  0  0  0  0  0  0  0  0  0
  143.1984  143.1768  155.3890 H   0  0  0  0  0  0  0  0  0  0  0  0
  143.8562  144.5317  154.4746 H   0  0  0  0  0  0  0  0  0  0  0  0
  143.8605  144.5746  156.2331 H   0  0  0  0  0  0  0  0  0  0  0  0
  145.5178  143.0623  157.5360 H   0  0  0  0  0  0  0  0  0  0  0  0
  144.8252  141.6701  156.7394 H   0  0  0  0  0  0  0  0  0  0  0  0
  147.0847  141.1329  157.5338 H   0  0  0  0  0  0  0  0  0  0  0  0
  147.7758  142.4977  156.6771 H   0  0  0  0  0  0  0  0  0  0  0  0
  153.1511  140.2908  160.5184 H   0  0  0  0  0  0  0  0  0  0  0  0
  153.6130  141.9426  160.8989 H   0  0  0  0  0  0  0  0  0  0  0  0
  154.4457  141.0801  159.6134 H   0  0  0  0  0  0  0  0  0  0  0  0
  146.4105  140.2227  155.4545 H   0  0  0  0  0  0  0  0  0  0  0  0
  1  2  1  0  0  0  0
  1 21  1  0  0  0  0
  1 22  1  0  0  0  0
  1 23  1  0  0  0  0
  2 19  2  0  0  0  0
  2  3  1  0  0  0  0
  3  4  2  0  0  0  0
  4  5  1  0  0  0  0
  4 24  1  0  0  0  0
  5  6  1  0  0  0  0
  5 17  1  0  0  0  0
  6  7  1  0  0  0  0
  6 25  1  0  0  0  0
  6 26  1  0  0  0  0
  7  8  1  0  0  0  0
  7  9  1  0  0  0  0
  7 27  1  0  0  0  0
  8 28  1  0  0  0  0
  9 10  1  0  0  0  0
  9 29  1  0  0  0  0
  9 30  1  0  0  0  0
 10 16  1  0  0  0  0
 10 11  1  0  0  0  0
 10 46  1  0  0  0  0
 11 12  1  0  0  0  0
 11 31  1  0  0  0  0
 11 32  1  0  0  0  0
 12 13  1  0  0  0  0
 12 33  1  0  0  0  0
 12 34  1  0  0  0  0
 13 14  1  0  0  0  0
 13 15  1  0  0  0  0
 13 35  1  0  0  0  0
 14 36  1  0  0  0  0
 14 37  1  0  0  0  0
 14 38  1  0  0  0  0
 15 16  1  0  0  0  0
 15 39  1  0  0  0  0
 15 40  1  0  0  0  0
 16 41  1  0  0  0  0
 16 42  1  0  0  0  0
 17 18  2  0  0  0  0
 17 19  1  0  0  0  0
 19 20  1  0  0  0  0
 20 43  1  0  0  0  0
 20 44  1  0  0  0  0
 20 45  1  0  0  0  0
M  CHG  1  10   1
M  END
> <s_m_source_file>
AV-unprocessed.smi

> <i_m_source_file_index>
2278

> <i_lp_mmshare_version>
43012

> <i_f3d_flags>
0

> <s_epik_input>
W0NIM11jMW5bY0hdbihjKD1PKWMxW0NIM10pW0NIMl1bQ0BIXShbT0hdKVtDSDJdTjJbQ0gyXVtDSDJdW0NIXShbQ0gzXSlbQ0gyXVtDSDJdMg==

> <s_epik_cmdline>
J2VwaWtfcHl0aG9uJywgJy1waCcsICc3LjAnLCAnLXRuJywgJzgnLCAnLW1hJywgJzIwMCcsICctbWV0YWxfYmluZGluZycsICctaW1hZScsICc8aW5maWxlLm1hZT4nLCAnLW9tYWUnLCAnPG91dGZpbGUubWFlPic=

> <r_lp_tautomer_probability>
1

> <r_epik_Ionization_Penalty>
0.00139489

> <r_epik_Ionization_Penalty_Charging>
0.00136819

> <r_epik_Ionization_Penalty_Neutral>
2.66975e-05

> <r_epik_State_Penalty>
0.000910892

> <r_epik_Charging_Adjusted_Penalty>
0.00227908

> <i_epik_Tot_Q>
1

> <i_epik_Tot_abs_Q>
1

> <r_epik_Metal_State_Penalty>
-0

> <b_epik_Metal_Only>
0

> <s_lp_Force_Field>
OPLS_2005

> <r_lp_Energy>
29.3235

> <b_lp_Chiralities_Consistent>
1

> <s_lp_Variant>
AV-unprocessed.smi:2278-2

> <Gold.Version>
5.8.1

> <Gold.Id.Protein>
6NUR|6NUR_protein|mol2

> <Gold.PLP.Fitness>
45.0950

> <Gold.PLP.PLP>
-38.8796

> <Gold.PLP.part.hbond>
-3.7812

> <Gold.PLP.part.metal>
0.0000

> <Gold.PLP.part.buried>
-3.9387

> <Gold.PLP.part.nonpolar>
-32.0226

> <Gold.PLP.part.repulsive>
0.1349

> <Gold.PLP.ligand.clash>
1.6393

> <Gold.PLP.ligand.torsion>
1.2106

> <Gold.PLP.Chemscore.Hbond>
2.4046

> <Gold.PLP.Chemscore.CHOScore>
1.0000

> <Gold.PLP.Chemscore.Metal>
0.0000

> <Gold.Chemscore.Hbonds>
donor molecule, donor type, donor heavy atom, donor atom, acceptor molecule, acceptor atom, score
      L1  H     8    28       P1  7957  0.08
      P1  H  7989  7998       L1     8  0.38
      P1  H  7997  8008       L1    18  1.00
      P1  H  8011  8017       L1     8  0.82
      L1  C     4    24       P1  8028  1.00

> <Gold.PLP.Chemscore.Internal.Correction>
0.0621

> <Gold.Rescore>
     Score         DG    S(hbond)    S(metal)    S(lipo)     H(rot)  DE(clash)    DE(int)     intcor
     12.69     -14.81       1.71        0.00      79.15       2.20       0.34       1.77       ----

> <Gold.Chemscore.Fitness>
12.6936

> <Gold.Chemscore.DG>
-14.8075

> <Gold.Chemscore.ZeroCoef>
-5.4800

> <Gold.Chemscore.Hbond>
1.7053

> <Gold.Chemscore.Metal>
0.0000

> <Gold.Chemscore.Lipo>
79.1470

> <Gold.Chemscore.Internal_Hbond>
0.0000

> <Gold.Chemscore.DEClash>
0.3398

> <Gold.Chemscore.DEInternal>
1.7740

> <Gold.Chemscore.Rot>
2.1986

> <Gold.Chemscore.Internal.Correction>
   9.000000E+99

> <Gold.Chemscore.Hbonds>
donor molecule, donor type, donor heavy atom, donor atom, acceptor molecule, acceptor atom, score
      L1  H     8    28       P1  7957  0.08
      P1  H  7989  7998       L1     8  0.21
      P1  H  7997  8008       L1    18  0.54
      P1  H  8011  8017       L1     8  0.13

> <Gold.Chemscore.Hbond.Weighted>
-5.6958

> <Gold.Chemscore.Metal.Weighted>
-0.0000

> <Gold.Chemscore.Lipo.Weighted>
-9.2602

> <Gold.Chemscore.Internal_Hbond.Weighted>
0.0000

> <Gold.Chemscore.DEClash.Weighted>
0.3398

> <Gold.Chemscore.DEInternal.Weighted>
1.7740

> <Gold.Chemscore.Rot.Weighted>
5.6285

> <Gold.Chemscore.Internal.Correction.Weighted>
   9.000000E+99

> <Gold.Protein.RotatedTorsions>
[ 6907 6896 6895 6894 ] final  -17.41 input  -60.11 | X-H torsion
[ 7974 7965 7964 7962 ] final  -45.26 input  175.53 | X-H torsion
[ 8008 7997 7996 7995 ] final  -69.21 input   59.86 | X-H torsion
[ 10167 10162 10161 10158 ] final  -84.53 input  -65.29 | X-H torsion
[ 10718 10713 10712 10709 ] final   61.75 input   66.30 | X-H torsion
[ 10763 10752 10751 10750 ] final  141.89 input  -60.55 | X-H torsion
[ 11005 11000 10999 10996 ] final -129.53 input  -57.11 | X-H torsion

> <Gold.Protein.ActiveResidues>
 VAL166  LYS551  ARG553  GLY616  TRP617  ASP618  TYR619  PRO620  LYS621  CYS622 
 ASP623  PHE694  ASN695  SER759  ASP760  ASP761  ALA762  ILE779  LEU786  VAL792 
 PHE793  MET794  SER795  GLU796  ALA797  LYS798  CYS799  TRP800  GLU811  SER814 

> <Gold.Protein.RotatedAtoms>
  151.2938  135.0749  159.9213 H   0  0  0  0  0  0  0  0  0  0  0  0  # atno 6907 bound_to 6896
  152.5311  133.9904  159.7858 H   0  0  0  0  0  0  0  0  0  0  0  0  # atno 6908 bound_to 6896
  151.0179  133.5853  159.2705 H   0  0  0  0  0  0  0  0  0  0  0  0  # atno 6909 bound_to 6896
  145.9838  140.7255  142.9350 H   0  0  0  0  0  0  0  0  0  0  0  0  # atno 7974 bound_to 7965
  154.4922  140.0858  156.7620 H   0  0  0  0  0  0  0  0  0  0  0  0  # atno 8008 bound_to 7997
  155.4202  140.3445  155.4252 H   0  0  0  0  0  0  0  0  0  0  0  0  # atno 8009 bound_to 7997
  156.1346  140.1511  156.9002 H   0  0  0  0  0  0  0  0  0  0  0  0  # atno 8010 bound_to 7997
  140.4123  143.2617  151.9001 H   0  0  0  0  0  0  0  0  0  0  0  0  # atno 10167 bound_to 10162
  157.5850  130.9012  149.9500 H   0  0  0  0  0  0  0  0  0  0  0  0  # atno 10718 bound_to 10713
  153.9467  135.2974  155.3440 H   0  0  0  0  0  0  0  0  0  0  0  0  # atno 10763 bound_to 10752
  154.7448  135.5008  153.9188 H   0  0  0  0  0  0  0  0  0  0  0  0  # atno 10764 bound_to 10752
  153.1015  135.6735  153.9772 H   0  0  0  0  0  0  0  0  0  0  0  0  # atno 10765 bound_to 10752
  140.9423  134.1176  157.4139 H   0  0  0  0  0  0  0  0  0  0  0  0  # atno 11005 bound_to 11000
  144.6869  140.2954  143.7271 LP  0  0  0  0  0  0  0  0  0  0  0  0  # atno 17320 bound_to 7965
  145.7730  139.1864  143.2201 LP  0  0  0  0  0  0  0  0  0  0  0  0  # atno 17321 bound_to 7965
  139.4782  144.5524  151.8366 LP  0  0  0  0  0  0  0  0  0  0  0  0  # atno 17342 bound_to 10162
  140.4624  144.1703  150.5908 LP  0  0  0  0  0  0  0  0  0  0  0  0  # atno 17343 bound_to 10162
  156.0899  130.3664  150.0415 LP  0  0  0  0  0  0  0  0  0  0  0  0  # atno 17370 bound_to 10713
  156.8548  130.9471  151.3623 LP  0  0  0  0  0  0  0  0  0  0  0  0  # atno 17371 bound_to 10713
  139.8824  135.0040  156.6225 LP  0  0  0  0  0  0  0  0  0  0  0  0  # atno 17394 bound_to 11000
  140.7716  133.8733  155.8496 LP  0  0  0  0  0  0  0  0  0  0  0  0  # atno 17395 bound_to 11000

$$$$
