AV-unprocessed.smi:283|AV-procd|sdf|2127|dock4
  -GOLD-   2262021433D 1   1.00000     0.00000
 Structure written by MMmdl.
 48 51  0  0  0  0  0  0  0  0  1 V2000
  151.2912  141.5057  156.7839 C   0  0  0  0  0  0  0  0  0  0  0  0
  152.1683  141.4394  158.0477 C   0  0  2  0  0  0  0  0  0  0  0  0
  152.0604  140.1336  158.6979 N   0  0  0  0  0  0  0  0  0  0  0  0
  152.2765  138.9823  158.0238 C   0  0  0  0  0  0  0  0  0  0  0  0
  153.4820  138.7076  157.4615 N   0  0  0  0  0  0  0  0  0  0  0  0
  153.6661  137.5590  156.8043 C   0  0  0  0  0  0  0  0  0  0  0  0
  152.7967  136.5678  156.5984 N   0  0  0  0  0  0  0  0  0  0  0  0
  151.5841  136.8347  157.1645 C   0  0  0  0  0  0  0  0  0  0  0  0
  151.2500  138.0118  157.8912 C   0  0  0  0  0  0  0  0  0  0  0  0
  149.9331  137.9401  158.3252 N   0  0  0  0  0  0  0  0  0  0  0  0
  149.5166  136.7862  157.8784 C   0  0  0  0  0  0  0  0  0  0  0  0
  150.4435  136.0538  157.1699 N   0  0  0  0  0  0  0  0  0  0  0  0
  150.2414  134.7056  156.5443 C   0  0  1  0  0  0  0  0  0  0  0  0
  149.0288  134.1646  156.9819 O   0  0  0  0  0  0  0  0  0  0  0  0
  148.1563  133.9288  155.8769 C   0  0  2  0  0  0  0  0  0  0  0  0
  147.2660  132.7131  156.1739 C   0  0  0  0  0  0  0  0  0  0  0  0
  146.6285  132.2843  154.9899 O   0  0  0  0  0  0  0  0  0  0  0  0
  149.1305  133.7102  154.7182 C   0  0  1  0  0  0  0  0  0  0  0  0
  148.5363  133.8717  153.4444 O   0  0  0  0  0  0  0  0  0  0  0  0
  150.2096  134.7442  155.0042 C   0  0  1  0  0  0  0  0  0  0  0  0
  149.8940  136.0227  154.4728 O   0  0  0  0  0  0  0  0  0  0  0  0
  151.8172  142.5940  158.9850 C   0  0  0  0  0  0  0  0  0  0  0  0
  150.7971  143.5086  158.6300 C   0  0  0  0  0  0  0  0  0  0  0  0
  150.4686  144.5832  159.4776 C   0  0  0  0  0  0  0  0  0  0  0  0
  151.1609  144.7605  160.6886 C   0  0  0  0  0  0  0  0  0  0  0  0
  152.1850  143.8649  161.0470 C   0  0  0  0  0  0  0  0  0  0  0  0
  152.5192  142.7873  160.2023 C   0  0  0  0  0  0  0  0  0  0  0  0
  153.7995  141.7309  160.6879 Cl  0  0  0  0  0  0  0  0  0  0  0  0
  151.0572  134.0956  156.9343 H   0  0  0  0  0  0  0  0  0  0  0  0
  147.5544  134.8181  155.6819 H   0  0  0  0  0  0  0  0  0  0  0  0
  149.5612  132.7100  154.7860 H   0  0  0  0  0  0  0  0  0  0  0  0
  151.1791  134.4379  154.6099 H   0  0  0  0  0  0  0  0  0  0  0  0
  151.4104  142.4633  156.2764 H   0  0  0  0  0  0  0  0  0  0  0  0
  150.2351  141.3910  157.0299 H   0  0  0  0  0  0  0  0  0  0  0  0
  151.5494  140.7267  156.0670 H   0  0  0  0  0  0  0  0  0  0  0  0
  153.2108  141.5614  157.7559 H   0  0  0  0  0  0  0  0  0  0  0  0
  151.7325  140.1503  159.6528 H   0  0  0  0  0  0  0  0  0  0  0  0
  154.6499  137.4129  156.3836 H   0  0  0  0  0  0  0  0  0  0  0  0
  148.5112  136.4332  158.0560 H   0  0  0  0  0  0  0  0  0  0  0  0
  147.8717  131.8831  156.5386 H   0  0  0  0  0  0  0  0  0  0  0  0
  146.5276  132.9389  156.9439 H   0  0  0  0  0  0  0  0  0  0  0  0
  146.0468  132.9701  154.6987 H   0  0  0  0  0  0  0  0  0  0  0  0
  148.7732  134.7258  153.1149 H   0  0  0  0  0  0  0  0  0  0  0  0
  149.6963  135.9246  153.5539 H   0  0  0  0  0  0  0  0  0  0  0  0
  150.2597  143.3972  157.6999 H   0  0  0  0  0  0  0  0  0  0  0  0
  149.6863  145.2729  159.1966 H   0  0  0  0  0  0  0  0  0  0  0  0
  150.9112  145.5852  161.3395 H   0  0  0  0  0  0  0  0  0  0  0  0
  152.7195  144.0085  161.9746 H   0  0  0  0  0  0  0  0  0  0  0  0
  1  2  1  0  0  0  0
  1 33  1  0  0  0  0
  1 34  1  0  0  0  0
  1 35  1  0  0  0  0
  2  3  1  0  0  0  0
  2 22  1  0  0  0  0
  2 36  1  0  0  0  0
  3  4  1  0  0  0  0
  3 37  1  0  0  0  0
  4  9  1  0  0  0  0
  4  5  2  0  0  0  0
  5  6  1  0  0  0  0
  6  7  2  0  0  0  0
  6 38  1  0  0  0  0
  7  8  1  0  0  0  0
  8 12  1  0  0  0  0
  8  9  2  0  0  0  0
  9 10  1  0  0  0  0
 10 11  2  0  0  0  0
 11 12  1  0  0  0  0
 11 39  1  0  0  0  0
 12 13  1  0  0  0  0
 13 29  1  0  0  0  0
 13 20  1  0  0  0  0
 13 14  1  0  0  0  0
 14 15  1  0  0  0  0
 15 30  1  0  0  0  0
 15 16  1  0  0  0  0
 15 18  1  0  0  0  0
 16 17  1  0  0  0  0
 16 40  1  0  0  0  0
 16 41  1  0  0  0  0
 17 42  1  0  0  0  0
 18 31  1  0  0  0  0
 18 19  1  0  0  0  0
 18 20  1  0  0  0  0
 19 43  1  0  0  0  0
 20 32  1  0  0  0  0
 20 21  1  0  0  0  0
 21 44  1  0  0  0  0
 22 27  1  0  0  0  0
 22 23  2  0  0  0  0
 23 24  1  0  0  0  0
 23 45  1  0  0  0  0
 24 25  2  0  0  0  0
 24 46  1  0  0  0  0
 25 26  1  0  0  0  0
 25 47  1  0  0  0  0
 26 27  2  0  0  0  0
 26 48  1  0  0  0  0
 27 28  1  0  0  0  0
M  END
> <s_m_source_file>
AV-unprocessed.smi

> <i_m_source_file_index>
283

> <i_lp_mmshare_version>
43012

> <i_f3d_flags>
0

> <s_epik_input>
Q2xjMVtjSF1bY0hdW2NIXVtjSF1jMVtDQEhdKFtDSDNdKVtOSF1jKG5bY0hdbjIpYyhjMjMpbltjSF1uM1tDQEBIXTRPW0NASF0oW0NIMl1bT0hdKVtDQEBIXShbT0hdKVtDQEhdNFtPSF0=

> <s_epik_cmdline>
J2VwaWtfcHl0aG9uJywgJy1waCcsICc3LjAnLCAnLXRuJywgJzgnLCAnLW1hJywgJzIwMCcsICctbWV0YWxfYmluZGluZycsICctaW1hZScsICc8aW5maWxlLm1hZT4nLCAnLW9tYWUnLCAnPG91dGZpbGUubWFlPic=

> <r_lp_tautomer_probability>
1

> <r_epik_Ionization_Penalty>
0.000266407

> <r_epik_Ionization_Penalty_Charging>
0

> <r_epik_Ionization_Penalty_Neutral>
0.000266407

> <r_epik_State_Penalty>
-0

> <r_epik_Charging_Adjusted_Penalty>
0

> <i_epik_Tot_Q>
0

> <i_epik_Tot_abs_Q>
0

> <r_epik_Metal_State_Penalty>
-0

> <b_epik_Metal_Only>
0

> <s_epik_Chemistry_Notes>
This compound contains an acetal/aminal-like group ( X-CH(R)-Y where X, Y are N, S, or O) that may be acid/base labile, releasing an aldehyde.

> <s_lp_Force_Field>
OPLS_2005

> <r_lp_Energy>
51.5446

> <b_lp_Chiralities_Consistent>
1

> <s_lp_Variant>
AV-unprocessed.smi:283-3

> <Gold.Version>
5.8.1

> <Gold.Id.Protein>
6NUR|6NUR_protein|mol2

> <Gold.PLP.Fitness>
50.8763

> <Gold.PLP.PLP>
-40.5624

> <Gold.PLP.part.hbond>
-4.1544

> <Gold.PLP.part.metal>
0.0000

> <Gold.PLP.part.buried>
-6.4054

> <Gold.PLP.part.nonpolar>
-29.8022

> <Gold.PLP.part.repulsive>
0.1213

> <Gold.PLP.ligand.clash>
0.0000

> <Gold.PLP.ligand.torsion>
0.8782

> <Gold.PLP.Chemscore.Hbond>
4.0000

> <Gold.PLP.Chemscore.CHOScore>
0.0000

> <Gold.PLP.Chemscore.Metal>
0.0000

> <Gold.Chemscore.Hbonds>
donor molecule, donor type, donor heavy atom, donor atom, acceptor molecule, acceptor atom, score
      L1  H    19    43       P1  7948  0.95
      L1  H    21    44       P1  7948  0.90
      P1  H  7997  8010       L1     5  1.00
      P1  H 10752 10765       L1     7  1.00

> <Gold.PLP.Chemscore.Internal.Correction>
0.0703

> <Gold.Rescore>
     Score         DG    S(hbond)    S(metal)    S(lipo)     H(rot)  DE(clash)    DE(int)     intcor
     18.27     -19.23       3.56        0.00     105.67       4.10       0.12       0.84       ----

> <Gold.Chemscore.Fitness>
18.2695

> <Gold.Chemscore.DG>
-19.2320

> <Gold.Chemscore.ZeroCoef>
-5.4800

> <Gold.Chemscore.Hbond>
3.5560

> <Gold.Chemscore.Metal>
0.0000

> <Gold.Chemscore.Lipo>
105.6663

> <Gold.Chemscore.Internal_Hbond>
0.0000

> <Gold.Chemscore.DEClash>
0.1226

> <Gold.Chemscore.DEInternal>
0.8398

> <Gold.Chemscore.Rot>
4.0968

> <Gold.Chemscore.Internal.Correction>
   9.000000E+99

> <Gold.Chemscore.Hbonds>
donor molecule, donor type, donor heavy atom, donor atom, acceptor molecule, acceptor atom, score
      L1  H    19    43       P1  7948  0.21
      L1  H    21    44       P1  7948  0.18
      P1  H  7997  8010       L1     5  0.86
      P1  H 10752 10765       L1     7  0.81

> <Gold.Chemscore.Hbond.Weighted>
-11.8769

> <Gold.Chemscore.Metal.Weighted>
-0.0000

> <Gold.Chemscore.Lipo.Weighted>
-12.3630

> <Gold.Chemscore.Internal_Hbond.Weighted>
0.0000

> <Gold.Chemscore.DEClash.Weighted>
0.1226

> <Gold.Chemscore.DEInternal.Weighted>
0.8398

> <Gold.Chemscore.Rot.Weighted>
10.4879

> <Gold.Chemscore.Internal.Correction.Weighted>
   9.000000E+99

> <Gold.Protein.RotatedTorsions>
[ 6907 6896 6895 6894 ] final  113.35 input  -60.11 | X-H torsion
[ 7974 7965 7964 7962 ] final   16.39 input  175.53 | X-H torsion
[ 8008 7997 7996 7995 ] final   36.33 input   59.86 | X-H torsion
[ 10167 10162 10161 10158 ] final  103.88 input  -65.29 | X-H torsion
[ 10718 10713 10712 10709 ] final   32.70 input   66.30 | X-H torsion
[ 10763 10752 10751 10750 ] final -143.95 input  -60.55 | X-H torsion
[ 11005 11000 10999 10996 ] final   51.37 input  -57.11 | X-H torsion

> <Gold.Protein.ActiveResidues>
 VAL166  LYS551  ARG553  GLY616  TRP617  ASP618  TYR619  PRO620  LYS621  CYS622 
 ASP623  PHE694  ASN695  SER759  ASP760  ASP761  ALA762  ILE779  LEU786  VAL792 
 PHE793  MET794  SER795  GLU796  ALA797  LYS798  CYS799  TRP800  GLU811  SER814 

> <Gold.Protein.RotatedAtoms>
  152.4866  133.8388  159.7141 H   0  0  0  0  0  0  0  0  0  0  0  0  # atno 6907 bound_to 6896
  150.8957  133.7175  159.2899 H   0  0  0  0  0  0  0  0  0  0  0  0  # atno 6908 bound_to 6896
  151.4633  135.1044  159.9783 H   0  0  0  0  0  0  0  0  0  0  0  0  # atno 6909 bound_to 6896
  146.2251  139.8755  142.8580 H   0  0  0  0  0  0  0  0  0  0  0  0  # atno 7974 bound_to 7965
  155.1856  140.3303  155.4367 H   0  0  0  0  0  0  0  0  0  0  0  0  # atno 8008 bound_to 7997
  156.2461  140.1919  156.6902 H   0  0  0  0  0  0  0  0  0  0  0  0  # atno 8009 bound_to 7997
  154.6241  140.0591  156.9637 H   0  0  0  0  0  0  0  0  0  0  0  0  # atno 8010 bound_to 7997
  139.7225  144.7055  151.0850 H   0  0  0  0  0  0  0  0  0  0  0  0  # atno 10167 bound_to 10162
  157.2885  130.7291  149.6597 H   0  0  0  0  0  0  0  0  0  0  0  0  # atno 10718 bound_to 10713
  154.8448  135.3453  154.6269 H   0  0  0  0  0  0  0  0  0  0  0  0  # atno 10763 bound_to 10752
  153.6878  135.6976  153.5103 H   0  0  0  0  0  0  0  0  0  0  0  0  # atno 10764 bound_to 10752
  153.2618  135.4320  155.0857 H   0  0  0  0  0  0  0  0  0  0  0  0  # atno 10765 bound_to 10752
  140.0939  134.5172  155.8826 H   0  0  0  0  0  0  0  0  0  0  0  0  # atno 11005 bound_to 11000
  145.2565  141.0062  143.3851 LP  0  0  0  0  0  0  0  0  0  0  0  0  # atno 17320 bound_to 7965
  144.9332  139.4274  143.6485 LP  0  0  0  0  0  0  0  0  0  0  0  0  # atno 17321 bound_to 7965
  140.7756  143.5148  150.9609 LP  0  0  0  0  0  0  0  0  0  0  0  0  # atno 17342 bound_to 10162
  139.8835  143.7042  152.3154 LP  0  0  0  0  0  0  0  0  0  0  0  0  # atno 17343 bound_to 10162
  155.9666  130.4316  150.4927 LP  0  0  0  0  0  0  0  0  0  0  0  0  # atno 17370 bound_to 10713
  157.2885  131.0621  151.2150 LP  0  0  0  0  0  0  0  0  0  0  0  0  # atno 17371 bound_to 10713
  141.2086  133.6675  156.6382 LP  0  0  0  0  0  0  0  0  0  0  0  0  # atno 17394 bound_to 11000
  140.3314  134.7925  157.4329 LP  0  0  0  0  0  0  0  0  0  0  0  0  # atno 17395 bound_to 11000

$$$$
