AV-unprocessed.smi:194|AV-procd|sdf|1523|dock8
  -GOLD-   2262019363D 1   1.00000     0.00000
 Structure written by MMmdl.
 53 55  0  0  0  0  0  0  0  0  1 V2000
  151.8649  141.4531  159.5764 C   0  0  0  0  0  0  0  0  0  0  0  0
  150.9321  141.5592  158.3468 C   0  0  1  0  0  0  0  0  0  0  0  0
  150.9304  143.0040  157.7918 C   0  0  0  0  0  0  0  0  0  0  0  0
  150.3847  144.2064  159.1017 S   0  0  2  0  0  0  0  0  0  0  0  0
  152.0391  145.0025  159.3570 C   0  0  0  0  0  0  0  0  0  0  0  0
  150.0895  143.3998  160.3675 O   0  0  0  0  0  0  0  0  0  0  0  0
  151.2204  140.5568  157.3080 N   0  0  0  0  0  0  0  0  0  0  0  0
  150.5724  140.7287  156.0110 C   0  0  0  0  0  0  0  0  0  0  0  0
  151.1416  139.2650  157.6983 C   0  0  0  0  0  0  0  0  0  0  0  0
  152.2907  138.5462  157.7070 N   0  0  0  0  0  0  0  0  0  0  0  0
  152.2726  137.2659  158.0900 C   0  0  0  0  0  0  0  0  0  0  0  0
  151.2340  136.5280  158.4890 N   0  0  0  0  0  0  0  0  0  0  0  0
  150.0742  137.2460  158.4667 C   0  0  0  0  0  0  0  0  0  0  0  0
  149.9393  138.6115  158.0897 C   0  0  0  0  0  0  0  0  0  0  0  0
  148.6125  139.0071  158.2016 N   0  0  0  0  0  0  0  0  0  0  0  0
  147.9991  137.9383  158.6307 C   0  0  0  0  0  0  0  0  0  0  0  0
  148.7965  136.8281  158.7997 N   0  0  0  0  0  0  0  0  0  0  0  0
  148.3735  135.5180  159.2737 C   0  0  0  0  0  0  0  0  0  0  0  0
  147.4266  135.5141  160.5124 C   0  0  0  0  0  0  0  0  0  0  0  0
  146.0721  136.2088  160.1795 C   0  0  0  0  0  0  0  0  0  0  0  0
  145.2645  135.4814  159.2763 O   0  0  0  0  0  0  0  0  0  0  0  0
  147.2190  134.0767  161.0546 C   0  0  0  0  0  0  0  0  0  0  0  0
  146.5632  134.0575  162.4456 C   0  0  0  0  0  0  0  0  0  0  0  0
  147.3636  134.7920  163.3624 O   0  0  0  0  0  0  0  0  0  0  0  0
  147.4834  136.1651  163.0143 C   0  0  0  0  0  0  0  0  0  0  0  0
  148.1469  136.3107  161.6306 C   0  0  0  0  0  0  0  0  0  0  0  0
  151.6667  142.2559  160.2870 H   0  0  0  0  0  0  0  0  0  0  0  0
  152.9161  141.5124  159.2936 H   0  0  0  0  0  0  0  0  0  0  0  0
  151.7233  140.5168  160.1163 H   0  0  0  0  0  0  0  0  0  0  0  0
  149.9179  141.3682  158.6982 H   0  0  0  0  0  0  0  0  0  0  0  0
  151.9119  143.2934  157.4174 H   0  0  0  0  0  0  0  0  0  0  0  0
  150.2454  143.0729  156.9462 H   0  0  0  0  0  0  0  0  0  0  0  0
  152.3983  145.4433  158.4271 H   0  0  0  0  0  0  0  0  0  0  0  0
  152.7671  144.2665  159.6986 H   0  0  0  0  0  0  0  0  0  0  0  0
  151.9648  145.7899  160.1068 H   0  0  0  0  0  0  0  0  0  0  0  0
  150.6802  139.8425  155.3831 H   0  0  0  0  0  0  0  0  0  0  0  0
  151.0169  141.5624  155.4682 H   0  0  0  0  0  0  0  0  0  0  0  0
  149.5078  140.9300  156.1345 H   0  0  0  0  0  0  0  0  0  0  0  0
  153.2269  136.7605  158.0752 H   0  0  0  0  0  0  0  0  0  0  0  0
  146.9369  137.9261  158.8267 H   0  0  0  0  0  0  0  0  0  0  0  0
  147.8935  135.0125  158.4345 H   0  0  0  0  0  0  0  0  0  0  0  0
  149.2701  134.9359  159.4911 H   0  0  0  0  0  0  0  0  0  0  0  0
  145.4698  136.3589  161.0735 H   0  0  0  0  0  0  0  0  0  0  0  0
  146.2483  137.2020  159.7653 H   0  0  0  0  0  0  0  0  0  0  0  0
  145.7146  134.6831  159.0459 H   0  0  0  0  0  0  0  0  0  0  0  0
  146.6306  133.4734  160.3633 H   0  0  0  0  0  0  0  0  0  0  0  0
  148.1866  133.5804  161.1342 H   0  0  0  0  0  0  0  0  0  0  0  0
  145.5500  134.4599  162.4169 H   0  0  0  0  0  0  0  0  0  0  0  0
  146.4820  133.0307  162.8022 H   0  0  0  0  0  0  0  0  0  0  0  0
  146.5070  136.6479  163.0505 H   0  0  0  0  0  0  0  0  0  0  0  0
  148.0960  136.6591  163.7688 H   0  0  0  0  0  0  0  0  0  0  0  0
  149.1761  135.9603  161.7219 H   0  0  0  0  0  0  0  0  0  0  0  0
  148.2134  137.3657  161.3626 H   0  0  0  0  0  0  0  0  0  0  0  0
  1  2  1  0  0  0  0
  1 27  1  0  0  0  0
  1 28  1  0  0  0  0
  1 29  1  0  0  0  0
  2  3  1  0  0  0  0
  2  7  1  0  0  0  0
  2 30  1  0  0  0  0
  3  4  1  0  0  0  0
  3 31  1  0  0  0  0
  3 32  1  0  0  0  0
  4  5  1  0  0  0  0
  4  6  2  0  0  0  0
  5 33  1  0  0  0  0
  5 34  1  0  0  0  0
  5 35  1  0  0  0  0
  7  8  1  0  0  0  0
  7  9  1  0  0  0  0
  8 36  1  0  0  0  0
  8 37  1  0  0  0  0
  8 38  1  0  0  0  0
  9 14  1  0  0  0  0
  9 10  2  0  0  0  0
 10 11  1  0  0  0  0
 11 12  2  0  0  0  0
 11 39  1  0  0  0  0
 12 13  1  0  0  0  0
 13 17  1  0  0  0  0
 13 14  2  0  0  0  0
 14 15  1  0  0  0  0
 15 16  2  0  0  0  0
 16 17  1  0  0  0  0
 16 40  1  0  0  0  0
 17 18  1  0  0  0  0
 18 19  1  0  0  0  0
 18 41  1  0  0  0  0
 18 42  1  0  0  0  0
 19 26  1  0  0  0  0
 19 20  1  0  0  0  0
 19 22  1  0  0  0  0
 20 21  1  0  0  0  0
 20 43  1  0  0  0  0
 20 44  1  0  0  0  0
 21 45  1  0  0  0  0
 22 23  1  0  0  0  0
 22 46  1  0  0  0  0
 22 47  1  0  0  0  0
 23 24  1  0  0  0  0
 23 48  1  0  0  0  0
 23 49  1  0  0  0  0
 24 25  1  0  0  0  0
 25 26  1  0  0  0  0
 25 50  1  0  0  0  0
 25 51  1  0  0  0  0
 26 52  1  0  0  0  0
 26 53  1  0  0  0  0
M  END
> <s_m_source_file>
AV-unprocessed.smi

> <i_m_source_file_index>
194

> <i_lp_mmshare_version>
43012

> <i_f3d_flags>
0

> <s_epik_input>
W0NIM11bU0BAXSg9TylbQ0gyXVtDQEBIXShbQ0gzXSlOKFtDSDNdKWMobltjSF1uMSljKGMxMiluW2NIXW4yW0NIMl1DMyhbQ0gyXVtPSF0pW0NIMl1bQ0gyXU9bQ0gyXVtDSDJdMw==

> <s_epik_cmdline>
J2VwaWtfcHl0aG9uJywgJy1waCcsICc3LjAnLCAnLXRuJywgJzgnLCAnLW1hJywgJzIwMCcsICctbWV0YWxfYmluZGluZycsICctaW1hZScsICc8aW5maWxlLm1hZT4nLCAnLW9tYWUnLCAnPG91dGZpbGUubWFlPic=

> <r_lp_tautomer_probability>
1

> <r_epik_Ionization_Penalty>
0.00101625

> <r_epik_Ionization_Penalty_Charging>
0

> <r_epik_Ionization_Penalty_Neutral>
0.00101625

> <r_epik_State_Penalty>
0.000568005

> <r_epik_Charging_Adjusted_Penalty>
0.000568005

> <i_epik_Tot_Q>
0

> <i_epik_Tot_abs_Q>
0

> <r_epik_Metal_State_Penalty>
-0

> <b_epik_Metal_Only>
0

> <s_lp_Force_Field>
OPLS_2005

> <r_lp_Energy>
31.3732

> <b_lp_Chiralities_Consistent>
1

> <s_lp_Variant>
AV-unprocessed.smi:194-4

> <Gold.Version>
5.8.1

> <Gold.Id.Protein>
6NUR|6NUR_protein|mol2

> <Gold.PLP.Fitness>
45.7792

> <Gold.PLP.PLP>
-44.0561

> <Gold.PLP.part.hbond>
-3.3036

> <Gold.PLP.part.metal>
0.0000

> <Gold.PLP.part.buried>
-5.8255

> <Gold.PLP.part.nonpolar>
-35.5938

> <Gold.PLP.part.repulsive>
0.1234

> <Gold.PLP.ligand.clash>
0.0000

> <Gold.PLP.ligand.torsion>
0.5369

> <Gold.PLP.Chemscore.Hbond>
0.7040

> <Gold.PLP.Chemscore.CHOScore>
0.0000

> <Gold.PLP.Chemscore.Metal>
0.0000

> <Gold.Chemscore.Hbonds>
donor molecule, donor type, donor heavy atom, donor atom, acceptor molecule, acceptor atom, score
      P1  H  6896  6909       L1    12  0.74

> <Gold.PLP.Chemscore.Internal.Correction>
0.6849

> <Gold.Rescore>
     Score         DG    S(hbond)    S(metal)    S(lipo)     H(rot)  DE(clash)    DE(int)     intcor
      8.09     -10.23       0.79        0.00      90.62       3.31       0.05       2.09       ----

> <Gold.Chemscore.Fitness>
8.0934

> <Gold.Chemscore.DG>
-10.2324

> <Gold.Chemscore.ZeroCoef>
-5.4800

> <Gold.Chemscore.Hbond>
0.7853

> <Gold.Chemscore.Metal>
0.0000

> <Gold.Chemscore.Lipo>
90.6201

> <Gold.Chemscore.Internal_Hbond>
0.0000

> <Gold.Chemscore.DEClash>
0.0515

> <Gold.Chemscore.DEInternal>
2.0875

> <Gold.Chemscore.Rot>
3.3098

> <Gold.Chemscore.Internal.Correction>
   9.000000E+99

> <Gold.Chemscore.Hbonds>
donor molecule, donor type, donor heavy atom, donor atom, acceptor molecule, acceptor atom, score
      P1  H  6896  6909       L1    12  0.58
      P1  H  6933  6944       L1     6  0.03

> <Gold.Chemscore.Hbond.Weighted>
-2.6228

> <Gold.Chemscore.Metal.Weighted>
-0.0000

> <Gold.Chemscore.Lipo.Weighted>
-10.6026

> <Gold.Chemscore.Internal_Hbond.Weighted>
0.0000

> <Gold.Chemscore.DEClash.Weighted>
0.0515

> <Gold.Chemscore.DEInternal.Weighted>
2.0875

> <Gold.Chemscore.Rot.Weighted>
8.4730

> <Gold.Chemscore.Internal.Correction.Weighted>
   9.000000E+99

> <Gold.Protein.RotatedTorsions>
[ 6907 6896 6895 6894 ] final   95.02 input  -60.11 | X-H torsion
[ 7974 7965 7964 7962 ] final   86.19 input  175.53 | X-H torsion
[ 8008 7997 7996 7995 ] final -166.89 input   59.86 | X-H torsion
[ 10167 10162 10161 10158 ] final  -89.95 input  -65.29 | X-H torsion
[ 10718 10713 10712 10709 ] final   -8.55 input   66.30 | X-H torsion
[ 10763 10752 10751 10750 ] final -162.05 input  -60.55 | X-H torsion
[ 11005 11000 10999 10996 ] final  -26.08 input  -57.11 | X-H torsion

> <Gold.Protein.ActiveResidues>
 VAL166  LYS551  ARG553  GLY616  TRP617  ASP618  TYR619  PRO620  LYS621  CYS622 
 ASP623  PHE694  ASN695  SER759  ASP760  ASP761  ALA762  ILE779  LEU786  VAL792 
 PHE793  MET794  SER795  GLU796  ALA797  LYS798  CYS799  TRP800  GLU811  SER814 

> <Gold.Protein.RotatedAtoms>
  152.5446  134.1104  159.8355 H   0  0  0  0  0  0  0  0  0  0  0  0  # atno 6907 bound_to 6896
  151.1171  133.5123  159.2611 H   0  0  0  0  0  0  0  0  0  0  0  0  # atno 6908 bound_to 6896
  151.1819  135.0374  159.8850 H   0  0  0  0  0  0  0  0  0  0  0  0  # atno 6909 bound_to 6896
  145.5756  139.2319  143.2382 H   0  0  0  0  0  0  0  0  0  0  0  0  # atno 7974 bound_to 7965
  155.8701  140.0992  157.1556 H   0  0  0  0  0  0  0  0  0  0  0  0  # atno 8008 bound_to 7997
  154.3996  140.1349  156.4130 H   0  0  0  0  0  0  0  0  0  0  0  0  # atno 8009 bound_to 7997
  155.7760  140.3459  155.5274 H   0  0  0  0  0  0  0  0  0  0  0  0  # atno 8010 bound_to 7997
  140.3597  143.2848  151.9629 H   0  0  0  0  0  0  0  0  0  0  0  0  # atno 10167 bound_to 10162
  156.7010  130.5093  149.5917 H   0  0  0  0  0  0  0  0  0  0  0  0  # atno 10718 bound_to 10713
  154.7249  135.3033  154.8988 H   0  0  0  0  0  0  0  0  0  0  0  0  # atno 10763 bound_to 10752
  153.9848  135.6726  153.4755 H   0  0  0  0  0  0  0  0  0  0  0  0  # atno 10764 bound_to 10752
  153.0866  135.4981  154.8527 H   0  0  0  0  0  0  0  0  0  0  0  0  # atno 10765 bound_to 10752
  140.8997  133.7533  156.0527 H   0  0  0  0  0  0  0  0  0  0  0  0  # atno 11005 bound_to 11000
  146.1753  140.6582  142.9214 LP  0  0  0  0  0  0  0  0  0  0  0  0  # atno 17320 bound_to 7965
  144.7417  140.4961  143.6864 LP  0  0  0  0  0  0  0  0  0  0  0  0  # atno 17321 bound_to 7965
  139.4815  144.6003  151.7617 LP  0  0  0  0  0  0  0  0  0  0  0  0  # atno 17342 bound_to 10162
  140.5139  144.0983  150.6003 LP  0  0  0  0  0  0  0  0  0  0  0  0  # atno 17343 bound_to 10162
  156.1729  130.6449  151.0859 LP  0  0  0  0  0  0  0  0  0  0  0  0  # atno 17370 bound_to 10713
  157.6973  131.0789  150.6929 LP  0  0  0  0  0  0  0  0  0  0  0  0  # atno 17371 bound_to 10713
  140.8246  134.3250  157.5370 LP  0  0  0  0  0  0  0  0  0  0  0  0  # atno 17394 bound_to 11000
  139.8740  134.9328  156.3565 LP  0  0  0  0  0  0  0  0  0  0  0  0  # atno 17395 bound_to 11000

$$$$
