AV-unprocessed.smi:2993|AV-procd|sdf|11402|dock3
  -GOLD-   2272016323D 1   1.00000     0.00000
 Structure written by MMmdl.
 34 35  0  0  0  0  0  0  0  0  1 V2000
  152.6904  139.0602  155.1153 C   0  0  0  0  0  0  0  0  0  0  0  0
  151.3588  139.7090  155.3639 C   0  0  0  0  0  0  0  0  0  0  0  0
  150.6642  140.1737  154.3390 N   0  0  0  0  0  0  0  0  0  0  0  0
  149.4917  140.7085  154.8812 O   0  0  0  0  0  0  0  0  0  0  0  0
  149.5273  140.5445  156.2280 C   0  0  0  0  0  0  0  0  0  0  0  0
  148.3512  141.0545  156.9902 C   0  0  0  0  0  0  0  0  0  0  0  0
  150.6856  139.9192  156.6022 C   0  0  0  0  0  0  0  0  0  0  0  0
  151.1463  139.5377  157.9856 C   0  0  0  0  0  0  0  0  0  0  0  0
  152.3972  140.3376  158.3483 C   0  0  0  0  0  0  0  0  0  0  0  0
  153.4914  140.0106  157.8895 O   0  0  0  0  0  0  0  0  0  0  0  0
  152.2192  141.3774  159.1780 N   0  0  0  0  0  0  0  0  0  0  0  0
  153.2699  142.2596  159.6730 C   0  0  2  0  0  0  0  0  0  0  0  0
  153.6255  141.8382  161.1055 C   0  0  0  0  0  0  0  0  0  0  0  0
  152.8996  143.7323  159.6179 C   0  0  0  0  0  0  0  0  0  0  0  0
  151.4586  144.1847  159.6634 C   0  0  0  0  0  0  0  0  0  0  0  0
  152.2557  144.3259  158.3874 C   0  0  0  0  0  0  0  0  0  0  0  0
  152.9750  138.4080  155.9408 H   0  0  0  0  0  0  0  0  0  0  0  0
  153.4736  139.8095  154.9996 H   0  0  0  0  0  0  0  0  0  0  0  0
  152.6736  138.4527  154.2099 H   0  0  0  0  0  0  0  0  0  0  0  0
  148.3276  140.6429  157.9991 H   0  0  0  0  0  0  0  0  0  0  0  0
  147.4198  140.7802  156.4946 H   0  0  0  0  0  0  0  0  0  0  0  0
  148.3861  142.1408  157.0698 H   0  0  0  0  0  0  0  0  0  0  0  0
  150.3731  139.7319  158.7297 H   0  0  0  0  0  0  0  0  0  0  0  0
  151.3661  138.4715  158.0538 H   0  0  0  0  0  0  0  0  0  0  0  0
  151.2812  141.5662  159.5002 H   0  0  0  0  0  0  0  0  0  0  0  0
  154.1617  142.1117  159.0606 H   0  0  0  0  0  0  0  0  0  0  0  0
  154.4508  142.4336  161.4972 H   0  0  0  0  0  0  0  0  0  0  0  0
  153.9301  140.7917  161.1449 H   0  0  0  0  0  0  0  0  0  0  0  0
  152.7768  141.9639  161.7787 H   0  0  0  0  0  0  0  0  0  0  0  0
  153.6156  144.3775  160.1243 H   0  0  0  0  0  0  0  0  0  0  0  0
  150.6846  143.4201  159.6866 H   0  0  0  0  0  0  0  0  0  0  0  0
  151.2346  145.0913  160.2215 H   0  0  0  0  0  0  0  0  0  0  0  0
  152.5636  145.3273  158.0940 H   0  0  0  0  0  0  0  0  0  0  0  0
  152.0114  143.6538  157.5670 H   0  0  0  0  0  0  0  0  0  0  0  0
  1  2  1  0  0  0  0
  1 17  1  0  0  0  0
  1 18  1  0  0  0  0
  1 19  1  0  0  0  0
  2  7  1  0  0  0  0
  2  3  2  0  0  0  0
  3  4  1  0  0  0  0
  4  5  1  0  0  0  0
  5  6  1  0  0  0  0
  5  7  2  0  0  0  0
  6 20  1  0  0  0  0
  6 21  1  0  0  0  0
  6 22  1  0  0  0  0
  7  8  1  0  0  0  0
  8  9  1  0  0  0  0
  8 23  1  0  0  0  0
  8 24  1  0  0  0  0
  9 10  2  0  0  0  0
  9 11  1  0  0  0  0
 11 12  1  0  0  0  0
 11 25  1  0  0  0  0
 12 13  1  0  0  0  0
 12 14  1  0  0  0  0
 12 26  1  0  0  0  0
 13 27  1  0  0  0  0
 13 28  1  0  0  0  0
 13 29  1  0  0  0  0
 14 16  1  0  0  0  0
 14 15  1  0  0  0  0
 14 30  1  0  0  0  0
 15 16  1  0  0  0  0
 15 31  1  0  0  0  0
 15 32  1  0  0  0  0
 16 33  1  0  0  0  0
 16 34  1  0  0  0  0
M  END
> <s_m_source_file>
AV-unprocessed.smi

> <i_m_source_file_index>
2993

> <i_lp_mmshare_version>
43012

> <i_f3d_flags>
0

> <s_epik_input>
W0NIM11jMW5vYyhbQ0gzXSljMVtDSDJdQyg9TylbTkhdW0NASF0oW0NIM10pW0NIXTJbQ0gyXVtDSDJdMg==

> <s_epik_cmdline>
J2VwaWtfcHl0aG9uJywgJy1waCcsICc3LjAnLCAnLXRuJywgJzgnLCAnLW1hJywgJzIwMCcsICctbWV0YWxfYmluZGluZycsICctaW1hZScsICc8aW5maWxlLm1hZT4nLCAnLW9tYWUnLCAnPG91dGZpbGUubWFlPic=

> <r_lp_tautomer_probability>
1

> <r_epik_Ionization_Penalty>
1.92533e-08

> <r_epik_Ionization_Penalty_Charging>
0

> <r_epik_Ionization_Penalty_Neutral>
1.92533e-08

> <r_epik_State_Penalty>
-0

> <r_epik_Charging_Adjusted_Penalty>
0

> <i_epik_Tot_Q>
0

> <i_epik_Tot_abs_Q>
0

> <r_epik_Metal_State_Penalty>
-0

> <b_epik_Metal_Only>
0

> <s_lp_Force_Field>
OPLS_2005

> <r_lp_Energy>
6.61094

> <b_lp_Chiralities_Consistent>
1

> <s_lp_Variant>
AV-unprocessed.smi:2993-1

> <Gold.Version>
5.8.1

> <Gold.Id.Protein>
6NUR|6NUR_protein|mol2

> <Gold.PLP.Fitness>
41.5294

> <Gold.PLP.PLP>
-36.5679

> <Gold.PLP.part.hbond>
-1.8513

> <Gold.PLP.part.metal>
0.0000

> <Gold.PLP.part.buried>
-3.7124

> <Gold.PLP.part.nonpolar>
-30.6592

> <Gold.PLP.part.repulsive>
0.3697

> <Gold.PLP.ligand.clash>
0.0000

> <Gold.PLP.ligand.torsion>
1.0544

> <Gold.PLP.Chemscore.Hbond>
2.0000

> <Gold.PLP.Chemscore.CHOScore>
0.0000

> <Gold.PLP.Chemscore.Metal>
0.0000

> <Gold.Chemscore.Hbonds>
donor molecule, donor type, donor heavy atom, donor atom, acceptor molecule, acceptor atom, score
      P1  H  7989  7998       L1     3  0.81
      P1  H  7997  8010       L1    10  0.67

> <Gold.PLP.Chemscore.Internal.Correction>
1.0704

> <Gold.Rescore>
     Score         DG    S(hbond)    S(metal)    S(lipo)     H(rot)  DE(clash)    DE(int)     intcor
     15.80     -18.35       1.86        0.00      88.95       1.46       0.04       2.51       ----

> <Gold.Chemscore.Fitness>
15.8019

> <Gold.Chemscore.DG>
-18.3517

> <Gold.Chemscore.ZeroCoef>
-5.4800

> <Gold.Chemscore.Hbond>
1.8556

> <Gold.Chemscore.Metal>
0.0000

> <Gold.Chemscore.Lipo>
88.9529

> <Gold.Chemscore.Internal_Hbond>
0.0000

> <Gold.Chemscore.DEClash>
0.0419

> <Gold.Chemscore.DEInternal>
2.5079

> <Gold.Chemscore.Rot>
1.4584

> <Gold.Chemscore.Internal.Correction>
   9.000000E+99

> <Gold.Chemscore.Hbonds>
donor molecule, donor type, donor heavy atom, donor atom, acceptor molecule, acceptor atom, score
      P1  H  7989  7998       L1     3  0.44
      P1  H  7997  8010       L1    10  0.65

> <Gold.Chemscore.Hbond.Weighted>
-6.1976

> <Gold.Chemscore.Metal.Weighted>
-0.0000

> <Gold.Chemscore.Lipo.Weighted>
-10.4075

> <Gold.Chemscore.Internal_Hbond.Weighted>
0.0000

> <Gold.Chemscore.DEClash.Weighted>
0.0419

> <Gold.Chemscore.DEInternal.Weighted>
2.5079

> <Gold.Chemscore.Rot.Weighted>
3.7334

> <Gold.Chemscore.Internal.Correction.Weighted>
   9.000000E+99

> <Gold.Protein.RotatedTorsions>
[ 6907 6896 6895 6894 ] final   93.98 input  -60.11 | X-H torsion
[ 7974 7965 7964 7962 ] final   20.10 input  175.53 | X-H torsion
[ 8008 7997 7996 7995 ] final   40.37 input   59.86 | X-H torsion
[ 10167 10162 10161 10158 ] final  -37.62 input  -65.29 | X-H torsion
[ 10718 10713 10712 10709 ] final  103.54 input   66.30 | X-H torsion
[ 10763 10752 10751 10750 ] final  -31.76 input  -60.55 | X-H torsion
[ 11005 11000 10999 10996 ] final  141.75 input  -57.11 | X-H torsion

> <Gold.Protein.ActiveResidues>
 VAL166  LYS551  ARG553  GLY616  TRP617  ASP618  TYR619  PRO620  LYS621  CYS622 
 ASP623  PHE694  ASN695  SER759  ASP760  ASP761  ALA762  ILE779  LEU786  VAL792 
 PHE793  MET794  SER795  GLU796  ALA797  LYS798  CYS799  TRP800  GLU811  SER814 

> <Gold.Protein.RotatedAtoms>
  152.5451  134.1265  159.8420 H   0  0  0  0  0  0  0  0  0  0  0  0  # atno 6907 bound_to 6896
  151.1315  133.5026  159.2606 H   0  0  0  0  0  0  0  0  0  0  0  0  # atno 6908 bound_to 6896
  151.1670  135.0310  159.8790 H   0  0  0  0  0  0  0  0  0  0  0  0  # atno 6909 bound_to 6896
  146.2124  139.8219  142.8678 H   0  0  0  0  0  0  0  0  0  0  0  0  # atno 7974 bound_to 7965
  155.2520  140.3353  155.4281 H   0  0  0  0  0  0  0  0  0  0  0  0  # atno 8008 bound_to 7997
  156.2211  140.1809  156.7517 H   0  0  0  0  0  0  0  0  0  0  0  0  # atno 8009 bound_to 7997
  154.5827  140.0651  156.9112 H   0  0  0  0  0  0  0  0  0  0  0  0  # atno 8010 bound_to 7997
  140.7114  143.3330  151.2525 H   0  0  0  0  0  0  0  0  0  0  0  0  # atno 10167 bound_to 10162
  157.6769  131.0781  150.5571 H   0  0  0  0  0  0  0  0  0  0  0  0  # atno 10718 bound_to 10713
  153.8026  135.6889  153.4853 H   0  0  0  0  0  0  0  0  0  0  0  0  # atno 10763 bound_to 10752
  153.1679  135.4554  154.9860 H   0  0  0  0  0  0  0  0  0  0  0  0  # atno 10764 bound_to 10752
  154.8000  135.3334  154.7513 H   0  0  0  0  0  0  0  0  0  0  0  0  # atno 10765 bound_to 10752
  140.0425  134.9297  157.0870 H   0  0  0  0  0  0  0  0  0  0  0  0  # atno 11005 bound_to 11000
  145.3088  141.0214  143.3566 LP  0  0  0  0  0  0  0  0  0  0  0  0  # atno 17320 bound_to 7965
  144.8951  139.4722  143.6659 LP  0  0  0  0  0  0  0  0  0  0  0  0  # atno 17321 bound_to 7965
  139.6818  143.9842  152.2812 LP  0  0  0  0  0  0  0  0  0  0  0  0  # atno 17342 bound_to 10162
  139.9474  144.6642  150.8205 LP  0  0  0  0  0  0  0  0  0  0  0  0  # atno 17343 bound_to 10162
  156.5874  130.4320  149.5951 LP  0  0  0  0  0  0  0  0  0  0  0  0  # atno 17370 bound_to 10713
  156.2611  130.6963  151.1731 LP  0  0  0  0  0  0  0  0  0  0  0  0  # atno 17371 bound_to 10713
  140.4046  134.2046  155.7163 LP  0  0  0  0  0  0  0  0  0  0  0  0  # atno 17394 bound_to 11000
  141.1890  133.8247  157.0972 LP  0  0  0  0  0  0  0  0  0  0  0  0  # atno 17395 bound_to 11000

$$$$
