AV-unprocessed.smi:2881|AV-procd|sdf|11059|dock7
  -GOLD-   2272015533D 1   1.00000     0.00000
 Structure written by MMmdl.
 40 42  0  0  0  0  0  0  0  0  1 V2000
  153.1103  142.8874  162.5651 C   0  0  0  0  0  0  0  0  0  0  0  0
  152.5381  143.3663  161.2742 C   0  0  0  0  0  0  0  0  0  0  0  0
  152.6047  142.8525  160.0100 C   0  0  0  0  0  0  0  0  0  0  0  0
  151.8614  143.7737  159.2137 C   0  0  0  0  0  0  0  0  0  0  0  0
  151.6049  143.7181  157.7320 C   0  0  0  0  0  0  0  0  0  0  0  0
  150.9233  142.3981  157.3721 C   0  0  0  0  0  0  0  0  0  0  0  0
  151.4303  141.3291  157.7120 O   0  0  0  0  0  0  0  0  0  0  0  0
  149.7752  142.4877  156.6827 N   0  0  0  0  0  0  0  0  0  0  0  0
  148.9970  141.3563  156.1775 C   0  0  2  0  0  0  0  0  0  0  0  0
  148.9011  141.4270  154.6381 C   0  0  1  0  0  0  0  0  0  0  0  0
  148.4393  140.0613  154.0980 C   0  0  0  0  0  0  0  0  0  0  0  0
  146.9596  140.0165  154.5246 C   0  0  0  0  0  0  0  0  0  0  0  0
  146.7703  141.3638  155.2498 C   0  0  2  0  0  0  0  0  0  0  0  0
  147.6586  142.2821  154.4201 C   0  0  0  0  0  0  0  0  0  0  0  0
  147.5004  141.3203  156.6151 C   0  0  2  0  0  0  0  0  0  0  0  0
  147.0427  142.4307  157.5880 C   0  0  0  0  0  0  0  0  0  0  0  0
  147.4196  142.1130  158.9116 O   0  0  0  0  0  0  0  0  0  0  0  0
  151.3674  144.7749  159.9299 N   0  0  0  0  0  0  0  0  0  0  0  0
  151.7882  144.5164  161.1820 N   0  0  0  0  0  0  0  0  0  0  0  0
  151.5594  145.1259  161.9543 H   0  0  0  0  0  0  0  0  0  0  0  0
  153.5825  141.9122  162.4437 H   0  0  0  0  0  0  0  0  0  0  0  0
  152.3332  142.7926  163.3237 H   0  0  0  0  0  0  0  0  0  0  0  0
  153.8643  143.5824  162.9357 H   0  0  0  0  0  0  0  0  0  0  0  0
  153.1141  141.9535  159.6958 H   0  0  0  0  0  0  0  0  0  0  0  0
  150.9655  144.5471  157.4267 H   0  0  0  0  0  0  0  0  0  0  0  0
  152.5334  143.8209  157.1678 H   0  0  0  0  0  0  0  0  0  0  0  0
  149.4364  143.4102  156.4501 H   0  0  0  0  0  0  0  0  0  0  0  0
  149.4995  140.4317  156.4689 H   0  0  0  0  0  0  0  0  0  0  0  0
  149.8058  141.7960  154.1527 H   0  0  0  0  0  0  0  0  0  0  0  0
  148.5251  140.0247  153.0113 H   0  0  0  0  0  0  0  0  0  0  0  0
  149.0177  139.2323  154.5071 H   0  0  0  0  0  0  0  0  0  0  0  0
  146.3119  139.9527  153.6494 H   0  0  0  0  0  0  0  0  0  0  0  0
  146.7360  139.1634  155.1660 H   0  0  0  0  0  0  0  0  0  0  0  0
  145.7259  141.6715  155.3101 H   0  0  0  0  0  0  0  0  0  0  0  0
  147.7471  143.2906  154.8268 H   0  0  0  0  0  0  0  0  0  0  0  0
  147.3566  142.3474  153.3734 H   0  0  0  0  0  0  0  0  0  0  0  0
  147.3027  140.3642  157.1027 H   0  0  0  0  0  0  0  0  0  0  0  0
  147.5125  143.3804  157.3328 H   0  0  0  0  0  0  0  0  0  0  0  0
  145.9636  142.5788  157.5494 H   0  0  0  0  0  0  0  0  0  0  0  0
  147.6786  142.9095  159.3496 H   0  0  0  0  0  0  0  0  0  0  0  0
  1  2  1  0  0  0  0
  1 21  1  0  0  0  0
  1 22  1  0  0  0  0
  1 23  1  0  0  0  0
  2 19  1  0  0  0  0
  2  3  2  0  0  0  0
  3  4  1  0  0  0  0
  3 24  1  0  0  0  0
  4  5  1  0  0  0  0
  4 18  2  0  0  0  0
  5  6  1  0  0  0  0
  5 25  1  0  0  0  0
  5 26  1  0  0  0  0
  6  7  2  0  0  0  0
  6  8  1  0  0  0  0
  8  9  1  0  0  0  0
  8 27  1  0  0  0  0
  9 15  1  0  0  0  0
  9 10  1  0  0  0  0
  9 28  1  0  0  0  0
 10 14  1  0  0  0  0
 10 11  1  0  0  0  0
 10 29  1  0  0  0  0
 11 12  1  0  0  0  0
 11 30  1  0  0  0  0
 11 31  1  0  0  0  0
 12 13  1  0  0  0  0
 12 32  1  0  0  0  0
 12 33  1  0  0  0  0
 13 14  1  0  0  0  0
 13 15  1  0  0  0  0
 13 34  1  0  0  0  0
 14 35  1  0  0  0  0
 14 36  1  0  0  0  0
 15 16  1  0  0  0  0
 15 37  1  0  0  0  0
 16 17  1  0  0  0  0
 16 38  1  0  0  0  0
 16 39  1  0  0  0  0
 17 40  1  0  0  0  0
 18 19  1  0  0  0  0
 19 20  1  0  0  0  0
M  END
> <s_m_source_file>
AV-unprocessed.smi

> <i_m_source_file_index>
2881

> <i_lp_mmshare_version>
43012

> <i_f3d_flags>
0

> <s_epik_input>
W0NIM11jMVtjSF1jKG5bbkhdMSlbQ0gyXUMoPU8pW05IXVtDQEhdKFtDQEBIXTIzKVtDQEhdKFtDSDJdW09IXSlbQ0BASF0oW0NIMl0zKVtDSDJdW0NIMl0y

> <s_epik_cmdline>
J2VwaWtfcHl0aG9uJywgJy1waCcsICc3LjAnLCAnLXRuJywgJzgnLCAnLW1hJywgJzIwMCcsICctbWV0YWxfYmluZGluZycsICctaW1hZScsICc8aW5maWxlLm1hZT4nLCAnLW9tYWUnLCAnPG91dGZpbGUubWFlPic=

> <r_lp_tautomer_probability>
0.5

> <r_epik_Ionization_Penalty>
9.4349e-05

> <r_epik_Ionization_Penalty_Charging>
0

> <r_epik_Ionization_Penalty_Neutral>
9.4349e-05

> <r_epik_State_Penalty>
0.41068

> <r_epik_Charging_Adjusted_Penalty>
0.41068

> <i_epik_Tot_Q>
0

> <i_epik_Tot_abs_Q>
0

> <r_epik_Metal_State_Penalty>
0.4107

> <b_epik_Metal_Only>
0

> <s_lp_Force_Field>
OPLS_2005

> <r_lp_Energy>
48.9716

> <b_lp_Chiralities_Consistent>
1

> <s_lp_Variant>
AV-unprocessed.smi:2881-5

> <Gold.Version>
5.8.1

> <Gold.Id.Protein>
6NUR|6NUR_protein|mol2

> <Gold.PLP.Fitness>
43.4390

> <Gold.PLP.PLP>
-40.1902

> <Gold.PLP.part.hbond>
-2.6346

> <Gold.PLP.part.metal>
0.0000

> <Gold.PLP.part.buried>
-4.9749

> <Gold.PLP.part.nonpolar>
-33.1695

> <Gold.PLP.part.repulsive>
0.2195

> <Gold.PLP.ligand.clash>
0.0000

> <Gold.PLP.ligand.torsion>
0.2318

> <Gold.PLP.Chemscore.Hbond>
1.2330

> <Gold.PLP.Chemscore.CHOScore>
0.0000

> <Gold.PLP.Chemscore.Metal>
0.0000

> <Gold.Chemscore.Hbonds>
donor molecule, donor type, donor heavy atom, donor atom, acceptor molecule, acceptor atom, score
      L1  H     8    27       P1  8028  1.00
      P1  H  6934  6946       L1    17  0.24

> <Gold.PLP.Chemscore.Internal.Correction>
0.0135

> <Gold.Rescore>
     Score         DG    S(hbond)    S(metal)    S(lipo)     H(rot)  DE(clash)    DE(int)     intcor
     14.35     -14.65       1.26        0.00      92.16       2.28       0.07       0.23       ----

> <Gold.Chemscore.Fitness>
14.3525

> <Gold.Chemscore.DG>
-14.6527

> <Gold.Chemscore.ZeroCoef>
-5.4800

> <Gold.Chemscore.Hbond>
1.2620

> <Gold.Chemscore.Metal>
0.0000

> <Gold.Chemscore.Lipo>
92.1625

> <Gold.Chemscore.Internal_Hbond>
0.0000

> <Gold.Chemscore.DEClash>
0.0662

> <Gold.Chemscore.DEInternal>
0.2340

> <Gold.Chemscore.Rot>
2.2755

> <Gold.Chemscore.Internal.Correction>
   9.000000E+99

> <Gold.Chemscore.Hbonds>
donor molecule, donor type, donor heavy atom, donor atom, acceptor molecule, acceptor atom, score
      L1  H     8    27       P1  8028  0.99
      P1  H  6934  6946       L1    17  0.06

> <Gold.Chemscore.Hbond.Weighted>
-4.2149

> <Gold.Chemscore.Metal.Weighted>
-0.0000

> <Gold.Chemscore.Lipo.Weighted>
-10.7830

> <Gold.Chemscore.Internal_Hbond.Weighted>
0.0000

> <Gold.Chemscore.DEClash.Weighted>
0.0662

> <Gold.Chemscore.DEInternal.Weighted>
0.2340

> <Gold.Chemscore.Rot.Weighted>
5.8252

> <Gold.Chemscore.Internal.Correction.Weighted>
   9.000000E+99

> <Gold.Protein.RotatedTorsions>
[ 6907 6896 6895 6894 ] final   31.73 input  -60.11 | X-H torsion
[ 7974 7965 7964 7962 ] final -110.13 input  175.53 | X-H torsion
[ 8008 7997 7996 7995 ] final -155.18 input   59.86 | X-H torsion
[ 10167 10162 10161 10158 ] final  159.82 input  -65.29 | X-H torsion
[ 10718 10713 10712 10709 ] final  -94.23 input   66.30 | X-H torsion
[ 10763 10752 10751 10750 ] final   94.36 input  -60.55 | X-H torsion
[ 11005 11000 10999 10996 ] final  164.86 input  -57.11 | X-H torsion

> <Gold.Protein.ActiveResidues>
 VAL166  LYS551  ARG553  GLY616  TRP617  ASP618  TYR619  PRO620  LYS621  CYS622 
 ASP623  PHE694  ASN695  SER759  ASP760  ASP761  ALA762  ILE779  LEU786  VAL792 
 PHE793  MET794  SER795  GLU796  ALA797  LYS798  CYS799  TRP800  GLU811  SER814 

> <Gold.Protein.RotatedAtoms>
  152.0645  134.9573  160.0574 H   0  0  0  0  0  0  0  0  0  0  0  0  # atno 6907 bound_to 6896
  152.0923  133.4202  159.4558 H   0  0  0  0  0  0  0  0  0  0  0  0  # atno 6908 bound_to 6896
  150.6837  134.2776  159.4657 H   0  0  0  0  0  0  0  0  0  0  0  0  # atno 6909 bound_to 6896
  145.1720  140.8930  143.3529 H   0  0  0  0  0  0  0  0  0  0  0  0  # atno 7974 bound_to 7965
  155.6978  140.0763  157.2422 H   0  0  0  0  0  0  0  0  0  0  0  0  # atno 8008 bound_to 7997
  154.4078  140.1653  156.2211 H   0  0  0  0  0  0  0  0  0  0  0  0  # atno 8009 bound_to 7997
  155.9394  140.3385  155.6318 H   0  0  0  0  0  0  0  0  0  0  0  0  # atno 8010 bound_to 7997
  139.4835  144.4693  151.8598 H   0  0  0  0  0  0  0  0  0  0  0  0  # atno 10167 bound_to 10162
  156.0024  130.5059  150.5895 H   0  0  0  0  0  0  0  0  0  0  0  0  # atno 10718 bound_to 10713
  153.2408  135.4292  155.0695 H   0  0  0  0  0  0  0  0  0  0  0  0  # atno 10763 bound_to 10752
  154.8339  135.3402  154.6653 H   0  0  0  0  0  0  0  0  0  0  0  0  # atno 10764 bound_to 10752
  153.7076  135.7024  153.5102 H   0  0  0  0  0  0  0  0  0  0  0  0  # atno 10765 bound_to 10752
  140.2502  134.7982  157.3495 H   0  0  0  0  0  0  0  0  0  0  0  0  # atno 11005 bound_to 11000
  145.0223  139.3413  143.6066 LP  0  0  0  0  0  0  0  0  0  0  0  0  # atno 17320 bound_to 7965
  146.3467  139.9528  142.8727 LP  0  0  0  0  0  0  0  0  0  0  0  0  # atno 17321 bound_to 7965
  140.4161  144.2305  150.5888 LP  0  0  0  0  0  0  0  0  0  0  0  0  # atno 17342 bound_to 10162
  140.4919  143.2345  151.8806 LP  0  0  0  0  0  0  0  0  0  0  0  0  # atno 17343 bound_to 10162
  157.3762  131.0773  151.1515 LP  0  0  0  0  0  0  0  0  0  0  0  0  # atno 17370 bound_to 10713
  157.2253  130.6500  149.5827 LP  0  0  0  0  0  0  0  0  0  0  0  0  # atno 17371 bound_to 10713
  140.1565  134.4783  155.7924 LP  0  0  0  0  0  0  0  0  0  0  0  0  # atno 17394 bound_to 11000
  141.2202  133.6884  156.7470 LP  0  0  0  0  0  0  0  0  0  0  0  0  # atno 17395 bound_to 11000

$$$$
