AV-unprocessed.smi:1284|AV-procd|sdf|5363|dock10
  -GOLD-   22720 4503D 1   1.00000     0.00000
 Structure written by MMmdl.
 39 41  0  0  0  0  0  0  0  0  1 V2000
  150.4449  136.8489  155.0960 N   0  0  0  0  0  0  0  0  0  0  0  0
  151.5943  137.3574  155.5491 C   0  0  0  0  0  0  0  0  0  0  0  0
  152.3524  136.7186  156.2755 O   0  0  0  0  0  0  0  0  0  0  0  0
  151.9519  138.7818  155.1137 C   0  0  0  0  0  0  0  0  0  0  0  0
  152.0804  139.6455  156.3378 C   0  0  0  0  0  0  0  0  0  0  0  0
  153.0426  139.4408  157.2402 N   0  0  0  0  0  0  0  0  0  0  0  0
  152.7941  140.4208  158.1808 C   0  0  0  0  0  0  0  0  0  0  0  0
  153.4679  140.7314  159.3835 C   0  0  0  0  0  0  0  0  0  0  0  0
  153.0215  141.7925  160.1982 C   0  0  0  0  0  0  0  0  0  0  0  0
  151.8976  142.5567  159.8228 C   0  0  0  0  0  0  0  0  0  0  0  0
  151.2132  142.2650  158.6271 C   0  0  0  0  0  0  0  0  0  0  0  0
  151.6635  141.2050  157.8175 C   0  0  0  0  0  0  0  0  0  0  0  0
  151.2270  140.6673  156.6113 N   0  0  0  0  0  0  0  0  0  0  0  0
  150.0851  141.1358  155.8367 C   0  0  0  0  0  0  0  0  0  0  0  0
  148.7646  141.0797  156.6304 C   0  0  2  0  0  0  0  0  0  0  0  0
  148.4806  139.7476  157.0122 O   0  0  0  0  0  0  0  0  0  0  0  0
  147.6233  141.7048  155.8441 C   0  0  0  0  0  0  0  0  0  0  0  0
  146.4045  142.0098  156.4877 C   0  0  0  0  0  0  0  0  0  0  0  0
  145.3472  142.5955  155.7645 C   0  0  0  0  0  0  0  0  0  0  0  0
  145.5031  142.8814  154.3946 C   0  0  0  0  0  0  0  0  0  0  0  0
  146.7182  142.5839  153.7484 C   0  0  0  0  0  0  0  0  0  0  0  0
  147.7757  141.9984  154.4711 C   0  0  0  0  0  0  0  0  0  0  0  0
  150.1674  135.9167  155.3669 H   0  0  0  0  0  0  0  0  0  0  0  0
  149.8533  137.4014  154.4921 H   0  0  0  0  0  0  0  0  0  0  0  0
  152.8747  138.7886  154.5341 H   0  0  0  0  0  0  0  0  0  0  0  0
  151.1702  139.1800  154.4653 H   0  0  0  0  0  0  0  0  0  0  0  0
  154.3291  140.1512  159.6803 H   0  0  0  0  0  0  0  0  0  0  0  0
  153.5432  142.0202  161.1161 H   0  0  0  0  0  0  0  0  0  0  0  0
  151.5612  143.3668  160.4532 H   0  0  0  0  0  0  0  0  0  0  0  0
  150.3520  142.8479  158.3362 H   0  0  0  0  0  0  0  0  0  0  0  0
  150.2871  142.1631  155.5313 H   0  0  0  0  0  0  0  0  0  0  0  0
  150.0051  140.5627  154.9142 H   0  0  0  0  0  0  0  0  0  0  0  0
  148.8901  141.6438  157.5555 H   0  0  0  0  0  0  0  0  0  0  0  0
  148.6197  139.6679  157.9435 H   0  0  0  0  0  0  0  0  0  0  0  0
  146.2757  141.7972  157.5388 H   0  0  0  0  0  0  0  0  0  0  0  0
  144.4164  142.8267  156.2613 H   0  0  0  0  0  0  0  0  0  0  0  0
  144.6919  143.3305  153.8405 H   0  0  0  0  0  0  0  0  0  0  0  0
  146.8404  142.8056  152.6985 H   0  0  0  0  0  0  0  0  0  0  0  0
  148.7065  141.7777  153.9688 H   0  0  0  0  0  0  0  0  0  0  0  0
  1  2  1  0  0  0  0
  1 23  1  0  0  0  0
  1 24  1  0  0  0  0
  2  3  2  0  0  0  0
  2  4  1  0  0  0  0
  4  5  1  0  0  0  0
  4 25  1  0  0  0  0
  4 26  1  0  0  0  0
  5 13  1  0  0  0  0
  5  6  2  0  0  0  0
  6  7  1  0  0  0  0
  7 12  2  0  0  0  0
  7  8  1  0  0  0  0
  8  9  2  0  0  0  0
  8 27  1  0  0  0  0
  9 10  1  0  0  0  0
  9 28  1  0  0  0  0
 10 11  2  0  0  0  0
 10 29  1  0  0  0  0
 11 12  1  0  0  0  0
 11 30  1  0  0  0  0
 12 13  1  0  0  0  0
 13 14  1  0  0  0  0
 14 15  1  0  0  0  0
 14 31  1  0  0  0  0
 14 32  1  0  0  0  0
 15 16  1  0  0  0  0
 15 17  1  0  0  0  0
 15 33  1  0  0  0  0
 16 34  1  0  0  0  0
 17 22  1  0  0  0  0
 17 18  2  0  0  0  0
 18 19  1  0  0  0  0
 18 35  1  0  0  0  0
 19 20  2  0  0  0  0
 19 36  1  0  0  0  0
 20 21  1  0  0  0  0
 20 37  1  0  0  0  0
 21 22  2  0  0  0  0
 21 38  1  0  0  0  0
 22 39  1  0  0  0  0
M  END
> <s_m_source_file>
AV-unprocessed.smi

> <i_m_source_file_index>
1284

> <i_lp_mmshare_version>
43012

> <i_f3d_flags>
0

> <s_epik_input>
W2NIXTFbY0hdW2NIXVtjSF1jKGMxMiluKGMobjIpW0NIMl1DKD1PKVtOSDJdKVtDSDJdW0NASF0oW09IXSljM1tjSF1bY0hdW2NIXVtjSF1bY0hdMw==

> <s_epik_cmdline>
J2VwaWtfcHl0aG9uJywgJy1waCcsICc3LjAnLCAnLXRuJywgJzgnLCAnLW1hJywgJzIwMCcsICctbWV0YWxfYmluZGluZycsICctaW1hZScsICc8aW5maWxlLm1hZT4nLCAnLW9tYWUnLCAnPG91dGZpbGUubWFlPic=

> <r_epik_Ionization_Penalty>
0.0366899

> <r_epik_Ionization_Penalty_Charging>
0

> <r_epik_Ionization_Penalty_Neutral>
0.0366899

> <r_epik_State_Penalty>
0.0306642

> <r_epik_Charging_Adjusted_Penalty>
0.0306642

> <i_epik_Tot_Q>
0

> <i_epik_Tot_abs_Q>
0

> <r_epik_Metal_State_Penalty>
0.028853

> <b_epik_Metal_Only>
0

> <s_lp_Force_Field>
OPLS_2005

> <r_lp_Energy>
12.351

> <b_lp_Chiralities_Consistent>
1

> <s_lp_Variant>
AV-unprocessed.smi:1284-1

> <Gold.Version>
5.8.1

> <Gold.Id.Protein>
6NUR|6NUR_protein|mol2

> <Gold.PLP.Fitness>
44.9433

> <Gold.PLP.PLP>
-39.4315

> <Gold.PLP.part.hbond>
-2.0000

> <Gold.PLP.part.metal>
0.0000

> <Gold.PLP.part.buried>
-3.3771

> <Gold.PLP.part.nonpolar>
-33.7416

> <Gold.PLP.part.repulsive>
0.0606

> <Gold.PLP.ligand.clash>
0.0000

> <Gold.PLP.ligand.torsion>
0.2685

> <Gold.PLP.Chemscore.Hbond>
2.0000

> <Gold.PLP.Chemscore.CHOScore>
0.0000

> <Gold.PLP.Chemscore.Metal>
0.0000

> <Gold.Chemscore.Hbonds>
donor molecule, donor type, donor heavy atom, donor atom, acceptor molecule, acceptor atom, score
      P1  H  7997  8009       L1     6  1.00
      P1  H 10752 10763       L1     3  1.00

> <Gold.PLP.Chemscore.Internal.Correction>
0.0489

> <Gold.Rescore>
     Score         DG    S(hbond)    S(metal)    S(lipo)     H(rot)  DE(clash)    DE(int)     intcor
     12.89     -13.56       1.27        0.00      95.52       2.86       0.21       0.45       ----

> <Gold.Chemscore.Fitness>
12.8938

> <Gold.Chemscore.DG>
-13.5589

> <Gold.Chemscore.ZeroCoef>
-5.4800

> <Gold.Chemscore.Hbond>
1.2652

> <Gold.Chemscore.Metal>
0.0000

> <Gold.Chemscore.Lipo>
95.5218

> <Gold.Chemscore.Internal_Hbond>
0.0000

> <Gold.Chemscore.DEClash>
0.2104

> <Gold.Chemscore.DEInternal>
0.4547

> <Gold.Chemscore.Rot>
2.8606

> <Gold.Chemscore.Internal.Correction>
   9.000000E+99

> <Gold.Chemscore.Hbonds>
donor molecule, donor type, donor heavy atom, donor atom, acceptor molecule, acceptor atom, score
      P1  H  7997  8009       L1     6  0.07
      P1  H 10752 10763       L1     3  0.66

> <Gold.Chemscore.Hbond.Weighted>
-4.2259

> <Gold.Chemscore.Metal.Weighted>
-0.0000

> <Gold.Chemscore.Lipo.Weighted>
-11.1761

> <Gold.Chemscore.Internal_Hbond.Weighted>
0.0000

> <Gold.Chemscore.DEClash.Weighted>
0.2104

> <Gold.Chemscore.DEInternal.Weighted>
0.4547

> <Gold.Chemscore.Rot.Weighted>
7.3231

> <Gold.Chemscore.Internal.Correction.Weighted>
   9.000000E+99

> <Gold.Protein.RotatedTorsions>
[ 6907 6896 6895 6894 ] final  -94.80 input  -60.11 | X-H torsion
[ 7974 7965 7964 7962 ] final  157.80 input  175.53 | X-H torsion
[ 8008 7997 7996 7995 ] final -169.18 input   59.86 | X-H torsion
[ 10167 10162 10161 10158 ] final  -53.11 input  -65.29 | X-H torsion
[ 10718 10713 10712 10709 ] final  -97.06 input   66.30 | X-H torsion
[ 10763 10752 10751 10750 ] final  104.31 input  -60.55 | X-H torsion
[ 11005 11000 10999 10996 ] final  143.18 input  -57.11 | X-H torsion

> <Gold.Protein.ActiveResidues>
 VAL166  LYS551  ARG553  GLY616  TRP617  ASP618  TYR619  PRO620  LYS621  CYS622 
 ASP623  PHE694  ASN695  SER759  ASP760  ASP761  ALA762  ILE779  LEU786  VAL792 
 PHE793  MET794  SER795  GLU796  ALA797  LYS798  CYS799  TRP800  GLU811  SER814 

> <Gold.Protein.RotatedAtoms>
  150.6949  134.1756  159.4228 H   0  0  0  0  0  0  0  0  0  0  0  0  # atno 6907 bound_to 6896
  151.9732  135.0064  160.0563 H   0  0  0  0  0  0  0  0  0  0  0  0  # atno 6908 bound_to 6896
  152.1823  133.4680  159.5001 H   0  0  0  0  0  0  0  0  0  0  0  0  # atno 6909 bound_to 6896
  144.7882  139.7391  143.6232 H   0  0  0  0  0  0  0  0  0  0  0  0  # atno 7974 bound_to 7965
  155.9014  140.1041  157.1347 H   0  0  0  0  0  0  0  0  0  0  0  0  # atno 8008 bound_to 7997
  154.4027  140.1292  156.4505 H   0  0  0  0  0  0  0  0  0  0  0  0  # atno 8009 bound_to 7997
  155.7418  140.3466  155.5110 H   0  0  0  0  0  0  0  0  0  0  0  0  # atno 8010 bound_to 7997
  140.6502  143.2561  151.4746 H   0  0  0  0  0  0  0  0  0  0  0  0  # atno 10167 bound_to 10162
  156.0075  130.5178  150.6318 H   0  0  0  0  0  0  0  0  0  0  0  0  # atno 10718 bound_to 10713
  153.3643  135.3947  155.1741 H   0  0  0  0  0  0  0  0  0  0  0  0  # atno 10763 bound_to 10752
  154.8684  135.3687  154.5060 H   0  0  0  0  0  0  0  0  0  0  0  0  # atno 10764 bound_to 10752
  153.5522  135.7082  153.5646 H   0  0  0  0  0  0  0  0  0  0  0  0  # atno 10765 bound_to 10752
  140.0534  134.9244  157.1057 H   0  0  0  0  0  0  0  0  0  0  0  0  # atno 11005 bound_to 11000
  146.2123  139.5488  142.9673 LP  0  0  0  0  0  0  0  0  0  0  0  0  # atno 17320 bound_to 7965
  145.5865  141.0375  143.2093 LP  0  0  0  0  0  0  0  0  0  0  0  0  # atno 17321 bound_to 7965
  139.5716  144.1915  152.1844 LP  0  0  0  0  0  0  0  0  0  0  0  0  # atno 17342 bound_to 10162
  140.1213  144.5371  150.6861 LP  0  0  0  0  0  0  0  0  0  0  0  0  # atno 17343 bound_to 10162
  157.4114  131.0824  151.1217 LP  0  0  0  0  0  0  0  0  0  0  0  0  # atno 17370 bound_to 10713
  157.1847  130.6325  149.5684 LP  0  0  0  0  0  0  0  0  0  0  0  0  # atno 17371 bound_to 10713
  140.3882  134.2213  155.7167 LP  0  0  0  0  0  0  0  0  0  0  0  0  # atno 17394 bound_to 11000
  141.1941  133.8137  157.0773 LP  0  0  0  0  0  0  0  0  0  0  0  0  # atno 17395 bound_to 11000

$$$$
