AV-unprocessed.smi:305|AV-procd|sdf|2280|dock2
  -GOLD-   2262022173D 1   1.00000     0.00000
 Structure written by MMmdl.
 47 49  0  0  0  0  0  0  0  0  1 V2000
  149.5050  137.0688  158.9558 C   0  0  0  0  0  0  0  0  0  0  0  0
  150.9366  137.5105  158.6446 C   0  0  0  0  0  0  0  0  0  0  0  0
  151.7802  137.1288  159.7179 O   0  0  0  0  0  0  0  0  0  0  0  0
  153.0945  137.6425  159.5875 C   0  0  0  0  0  0  0  0  0  0  0  0
  153.5439  138.2035  160.9427 C   0  0  0  0  0  0  0  0  0  0  0  0
  154.8568  138.8327  160.8589 N   0  0  0  0  0  0  0  0  0  0  0  0
  155.1493  140.1563  160.7763 C   0  0  0  0  0  0  0  0  0  0  0  0
  154.1328  141.1353  160.7541 N   0  0  0  0  0  0  0  0  0  0  0  0
  154.0118  142.0087  161.7752 N   0  0  0  0  0  0  0  0  0  0  0  0
  152.9809  142.7709  161.4521 C   0  0  0  0  0  0  0  0  0  0  0  0
  152.5660  143.8788  162.3772 C   0  0  0  0  0  0  0  0  0  0  0  0
  152.3965  142.3939  160.2080 C   0  0  0  0  0  0  0  0  0  0  0  0
  151.2147  143.0208  159.5210 C   0  0  0  0  0  0  0  0  0  0  0  0
  153.1621  141.3389  159.7908 C   0  0  0  0  0  0  0  0  0  0  0  0
  153.0682  140.5007  158.5561 C   0  0  0  0  0  0  0  0  0  0  0  0
  156.4538  140.4430  160.7338 N   0  0  0  0  0  0  0  0  0  0  0  0
  157.0449  139.1880  160.7790 C   0  0  0  0  0  0  0  0  0  0  0  0
  156.1045  138.2112  160.8527 C   0  0  0  0  0  0  0  0  0  0  0  0
  156.4479  136.7855  160.9115 C   0  0  0  0  0  0  0  0  0  0  0  0
  155.6093  135.8893  160.9761 O   0  0  0  0  0  0  0  0  0  0  0  0
  157.7840  136.5604  160.8831 N   0  0  0  0  0  0  0  0  0  0  0  0
  158.7829  137.4928  160.8085 C   0  0  0  0  0  0  0  0  0  0  0  0
  159.9598  137.1327  160.7871 O   0  0  0  0  0  0  0  0  0  0  0  0
  158.4192  138.8147  160.7594 N   0  0  0  0  0  0  0  0  0  0  0  0
  159.4472  139.8538  160.6797 C   0  0  0  0  0  0  0  0  0  0  0  0
  158.0760  135.5947  160.9194 H   0  0  0  0  0  0  0  0  0  0  0  0
  148.8278  137.3459  158.1476 H   0  0  0  0  0  0  0  0  0  0  0  0
  149.1419  137.5357  159.8717 H   0  0  0  0  0  0  0  0  0  0  0  0
  149.4482  135.9877  159.0841 H   0  0  0  0  0  0  0  0  0  0  0  0
  151.2755  137.0470  157.7169 H   0  0  0  0  0  0  0  0  0  0  0  0
  150.9696  138.5920  158.5059 H   0  0  0  0  0  0  0  0  0  0  0  0
  153.7725  136.8533  159.2601 H   0  0  0  0  0  0  0  0  0  0  0  0
  153.1140  138.4255  158.8284 H   0  0  0  0  0  0  0  0  0  0  0  0
  152.8175  138.9293  161.3091 H   0  0  0  0  0  0  0  0  0  0  0  0
  153.5763  137.4139  161.6931 H   0  0  0  0  0  0  0  0  0  0  0  0
  152.4684  144.8206  161.8371 H   0  0  0  0  0  0  0  0  0  0  0  0
  153.2915  144.0318  163.1772 H   0  0  0  0  0  0  0  0  0  0  0  0
  151.6033  143.6598  162.8393 H   0  0  0  0  0  0  0  0  0  0  0  0
  150.5484  142.2696  159.0964 H   0  0  0  0  0  0  0  0  0  0  0  0
  151.5261  143.6730  158.7049 H   0  0  0  0  0  0  0  0  0  0  0  0
  150.6172  143.6239  160.2046 H   0  0  0  0  0  0  0  0  0  0  0  0
  152.3927  140.9478  157.8271 H   0  0  0  0  0  0  0  0  0  0  0  0
  152.6948  139.5046  158.7939 H   0  0  0  0  0  0  0  0  0  0  0  0
  154.0438  140.3927  158.0819 H   0  0  0  0  0  0  0  0  0  0  0  0
  160.1516  139.7623  161.5074 H   0  0  0  0  0  0  0  0  0  0  0  0
  159.0307  140.8602  160.7211 H   0  0  0  0  0  0  0  0  0  0  0  0
  160.0045  139.7666  159.7459 H   0  0  0  0  0  0  0  0  0  0  0  0
  1  2  1  0  0  0  0
  1 27  1  0  0  0  0
  1 28  1  0  0  0  0
  1 29  1  0  0  0  0
  2  3  1  0  0  0  0
  2 30  1  0  0  0  0
  2 31  1  0  0  0  0
  3  4  1  0  0  0  0
  4  5  1  0  0  0  0
  4 32  1  0  0  0  0
  4 33  1  0  0  0  0
  5  6  1  0  0  0  0
  5 34  1  0  0  0  0
  5 35  1  0  0  0  0
  6 18  1  0  0  0  0
  6  7  1  0  0  0  0
  7  8  1  0  0  0  0
  7 16  2  0  0  0  0
  8 14  1  0  0  0  0
  8  9  1  0  0  0  0
  9 10  2  0  0  0  0
 10 11  1  0  0  0  0
 10 12  1  0  0  0  0
 11 36  1  0  0  0  0
 11 37  1  0  0  0  0
 11 38  1  0  0  0  0
 12 13  1  0  0  0  0
 12 14  2  0  0  0  0
 13 39  1  0  0  0  0
 13 40  1  0  0  0  0
 13 41  1  0  0  0  0
 14 15  1  0  0  0  0
 15 42  1  0  0  0  0
 15 43  1  0  0  0  0
 15 44  1  0  0  0  0
 16 17  1  0  0  0  0
 17 24  1  0  0  0  0
 17 18  2  0  0  0  0
 18 19  1  0  0  0  0
 19 20  2  0  0  0  0
 19 21  1  0  0  0  0
 21 26  1  0  0  0  0
 21 22  1  0  0  0  0
 22 23  2  0  0  0  0
 22 24  1  0  0  0  0
 24 25  1  0  0  0  0
 25 45  1  0  0  0  0
 25 46  1  0  0  0  0
 25 47  1  0  0  0  0
M  END
> <s_m_source_file>
AV-unprocessed.smi

> <i_m_source_file_index>
305

> <i_lp_mmshare_version>
43012

> <i_f3d_flags>
0

> <s_epik_input>
W0NIM11uMWMoPU8pW25IXWMoPU8pYyhjMTIpbihbQ0gyXVtDSDJdT1tDSDJdW0NIM10pYyhuMiktbjNuYyhbQ0gzXSljKFtDSDNdKWMzW0NIM10=

> <s_epik_cmdline>
J2VwaWtfcHl0aG9uJywgJy1waCcsICc3LjAnLCAnLXRuJywgJzgnLCAnLW1hJywgJzIwMCcsICctbWV0YWxfYmluZGluZycsICctaW1hZScsICc8aW5maWxlLm1hZT4nLCAnLW9tYWUnLCAnPG91dGZpbGUubWFlPic=

> <r_lp_tautomer_probability>
1

> <r_epik_Ionization_Penalty>
0.00243297

> <r_epik_Ionization_Penalty_Charging>
0.000715499

> <r_epik_Ionization_Penalty_Neutral>
0.00171747

> <r_epik_State_Penalty>
-0

> <r_epik_Charging_Adjusted_Penalty>
0.000715499

> <i_epik_Tot_Q>
0

> <i_epik_Tot_abs_Q>
0

> <r_epik_Metal_State_Penalty>
0.258225

> <b_epik_Metal_Only>
0

> <s_lp_Force_Field>
OPLS_2005

> <r_lp_Energy>
25.4323

> <b_lp_Chiralities_Consistent>
1

> <s_lp_Variant>
AV-unprocessed.smi:305-1

> <Gold.Version>
5.8.1

> <Gold.Id.Protein>
6NUR|6NUR_protein|mol2

> <Gold.PLP.Fitness>
33.4664

> <Gold.PLP.PLP>
-33.6435

> <Gold.PLP.part.hbond>
-3.0000

> <Gold.PLP.part.metal>
0.0000

> <Gold.PLP.part.buried>
-2.4556

> <Gold.PLP.part.nonpolar>
-27.9929

> <Gold.PLP.part.repulsive>
0.1130

> <Gold.PLP.ligand.clash>
0.0000

> <Gold.PLP.ligand.torsion>
1.8328

> <Gold.PLP.Chemscore.Hbond>
1.0000

> <Gold.PLP.Chemscore.CHOScore>
0.0000

> <Gold.PLP.Chemscore.Metal>
0.0000

> <Gold.Chemscore.Hbonds>
donor molecule, donor type, donor heavy atom, donor atom, acceptor molecule, acceptor atom, score
      P1  H  6896  6907       L1     3  1.00

> <Gold.PLP.Chemscore.Internal.Correction>
0.4884

> <Gold.Rescore>
     Score         DG    S(hbond)    S(metal)    S(lipo)     H(rot)  DE(clash)    DE(int)     intcor
     11.85     -13.88       0.84        0.00      83.86       1.65       0.07       1.96       ----

> <Gold.Chemscore.Fitness>
11.8525

> <Gold.Chemscore.DG>
-13.8799

> <Gold.Chemscore.ZeroCoef>
-5.4800

> <Gold.Chemscore.Hbond>
0.8399

> <Gold.Chemscore.Metal>
0.0000

> <Gold.Chemscore.Lipo>
83.8568

> <Gold.Chemscore.Internal_Hbond>
0.0000

> <Gold.Chemscore.DEClash>
0.0666

> <Gold.Chemscore.DEInternal>
1.9608

> <Gold.Chemscore.Rot>
1.6471

> <Gold.Chemscore.Internal.Correction>
   9.000000E+99

> <Gold.Chemscore.Hbonds>
donor molecule, donor type, donor heavy atom, donor atom, acceptor molecule, acceptor atom, score
      P1  H  6896  6907       L1     3  0.37

> <Gold.Chemscore.Hbond.Weighted>
-2.8054

> <Gold.Chemscore.Metal.Weighted>
-0.0000

> <Gold.Chemscore.Lipo.Weighted>
-9.8112

> <Gold.Chemscore.Internal_Hbond.Weighted>
0.0000

> <Gold.Chemscore.DEClash.Weighted>
0.0666

> <Gold.Chemscore.DEInternal.Weighted>
1.9608

> <Gold.Chemscore.Rot.Weighted>
4.2167

> <Gold.Chemscore.Internal.Correction.Weighted>
   9.000000E+99

> <Gold.Protein.RotatedTorsions>
[ 6907 6896 6895 6894 ] final  -12.19 input  -60.11 | X-H torsion
[ 7974 7965 7964 7962 ] final -132.72 input  175.53 | X-H torsion
[ 8008 7997 7996 7995 ] final -121.37 input   59.86 | X-H torsion
[ 10167 10162 10161 10158 ] final  121.62 input  -65.29 | X-H torsion
[ 10718 10713 10712 10709 ] final -125.10 input   66.30 | X-H torsion
[ 10763 10752 10751 10750 ] final -149.28 input  -60.55 | X-H torsion
[ 11005 11000 10999 10996 ] final  112.65 input  -57.11 | X-H torsion

> <Gold.Protein.ActiveResidues>
 VAL166  LYS551  ARG553  GLY616  TRP617  ASP618  TYR619  PRO620  LYS621  CYS622 
 ASP623  PHE694  ASN695  SER759  ASP760  ASP761  ALA762  ILE779  LEU786  VAL792 
 PHE793  MET794  SER795  GLU796  ALA797  LYS798  CYS799  TRP800  GLU811  SER814 

> <Gold.Protein.RotatedAtoms>
  151.3745  135.0928  159.9475 H   0  0  0  0  0  0  0  0  0  0  0  0  # atno 6907 bound_to 6896
  152.5126  133.9133  159.7509 H   0  0  0  0  0  0  0  0  0  0  0  0  # atno 6908 bound_to 6896
  150.9553  133.6449  159.2793 H   0  0  0  0  0  0  0  0  0  0  0  0  # atno 6909 bound_to 6896
  144.9259  140.7071  143.4936 H   0  0  0  0  0  0  0  0  0  0  0  0  # atno 7974 bound_to 7965
  155.1469  140.0403  157.2812 H   0  0  0  0  0  0  0  0  0  0  0  0  # atno 8008 bound_to 7997
  154.6432  140.2552  155.7271 H   0  0  0  0  0  0  0  0  0  0  0  0  # atno 8009 bound_to 7997
  156.2542  140.2851  156.0835 H   0  0  0  0  0  0  0  0  0  0  0  0  # atno 8010 bound_to 7997
  139.5908  144.7024  151.3295 H   0  0  0  0  0  0  0  0  0  0  0  0  # atno 10167 bound_to 10162
  156.1646  130.6625  151.0096 H   0  0  0  0  0  0  0  0  0  0  0  0  # atno 10718 bound_to 10713
  154.8186  135.3313  154.7104 H   0  0  0  0  0  0  0  0  0  0  0  0  # atno 10763 bound_to 10752
  153.7741  135.6923  153.4905 H   0  0  0  0  0  0  0  0  0  0  0  0  # atno 10764 bound_to 10752
  153.2024  135.4511  155.0231 H   0  0  0  0  0  0  0  0  0  0  0  0  # atno 10765 bound_to 10752
  139.8933  134.9534  156.6618 H   0  0  0  0  0  0  0  0  0  0  0  0  # atno 11005 bound_to 11000
  145.3219  139.1785  143.4583 LP  0  0  0  0  0  0  0  0  0  0  0  0  # atno 17320 bound_to 7965
  146.3226  140.3238  142.8635 LP  0  0  0  0  0  0  0  0  0  0  0  0  # atno 17321 bound_to 7965
  140.7171  143.7236  150.7677 LP  0  0  0  0  0  0  0  0  0  0  0  0  # atno 17342 bound_to 10162
  140.0791  143.4986  152.2539 LP  0  0  0  0  0  0  0  0  0  0  0  0  # atno 17343 bound_to 10162
  157.6758  131.0851  150.7498 LP  0  0  0  0  0  0  0  0  0  0  0  0  # atno 17370 bound_to 10713
  156.7560  130.4783  149.5447 LP  0  0  0  0  0  0  0  0  0  0  0  0  # atno 17371 bound_to 10713
  140.7441  133.8953  155.8299 LP  0  0  0  0  0  0  0  0  0  0  0  0  # atno 17394 bound_to 11000
  141.0054  134.1093  157.4276 LP  0  0  0  0  0  0  0  0  0  0  0  0  # atno 17395 bound_to 11000

$$$$
