AV-unprocessed.smi:114|AV-procd|sdf|1115|dock8
  -GOLD-   2262018233D 1   1.00000     0.00000
 Structure written by MMmdl.
 32 34  0  0  0  0  0  0  0  0  1 V2000
  150.0966  134.0090  155.7558 N   0  0  0  0  0  0  0  0  0  0  0  0
  149.6665  135.2419  155.4528 C   0  0  0  0  0  0  0  0  0  0  0  0
  148.3401  135.4336  155.2639 N   0  0  0  0  0  0  0  0  0  0  0  0
  147.8694  136.6492  154.9588 C   0  0  0  0  0  0  0  0  0  0  0  0
  146.5302  136.7514  154.7895 F   0  0  0  0  0  0  0  0  0  0  0  0
  148.5736  137.7750  154.8015 N   0  0  0  0  0  0  0  0  0  0  0  0
  149.9118  137.5865  154.9908 C   0  0  0  0  0  0  0  0  0  0  0  0
  150.5348  136.3530  155.3199 C   0  0  0  0  0  0  0  0  0  0  0  0
  151.9062  136.5314  155.4390 N   0  0  0  0  0  0  0  0  0  0  0  0
  152.0795  137.8025  155.1930 C   0  0  0  0  0  0  0  0  0  0  0  0
  150.9331  138.5115  154.9081 N   0  0  0  0  0  0  0  0  0  0  0  0
  150.8183  139.9659  154.5851 C   0  0  2  0  0  0  0  0  0  0  0  0
  151.3766  140.6885  155.6389 O   0  0  0  0  0  0  0  0  0  0  0  0
  150.5629  141.8184  155.9307 C   0  0  2  0  0  0  0  0  0  0  0  0
  150.7910  142.2618  157.3838 C   0  0  0  0  0  0  0  0  0  0  0  0
  149.8707  143.2738  157.7323 O   0  0  0  0  0  0  0  0  0  0  0  0
  149.1527  141.2860  155.6690 C   0  0  1  0  0  0  0  0  0  0  0  0
  148.2060  142.3181  155.4619 O   0  0  0  0  0  0  0  0  0  0  0  0
  149.3445  140.3841  154.4510 C   0  0  1  0  0  0  0  0  0  0  0  0
  149.1259  141.0731  153.2333 O   0  0  0  0  0  0  0  0  0  0  0  0
  151.3994  140.0967  153.6711 H   0  0  0  0  0  0  0  0  0  0  0  0
  150.7908  142.6210  155.2261 H   0  0  0  0  0  0  0  0  0  0  0  0
  148.8255  140.6821  156.5157 H   0  0  0  0  0  0  0  0  0  0  0  0
  148.6832  139.5170  154.4838 H   0  0  0  0  0  0  0  0  0  0  0  0
  151.0822  133.8421  155.9003 H   0  0  0  0  0  0  0  0  0  0  0  0
  149.4358  133.2502  155.8396 H   0  0  0  0  0  0  0  0  0  0  0  0
  153.0579  138.2606  155.2087 H   0  0  0  0  0  0  0  0  0  0  0  0
  150.6265  141.4243  158.0623 H   0  0  0  0  0  0  0  0  0  0  0  0
  151.8143  142.6059  157.5374 H   0  0  0  0  0  0  0  0  0  0  0  0
  149.3666  143.4985  156.9652 H   0  0  0  0  0  0  0  0  0  0  0  0
  148.6528  143.1488  155.5200 H   0  0  0  0  0  0  0  0  0  0  0  0
  149.0485  140.4354  152.5399 H   0  0  0  0  0  0  0  0  0  0  0  0
  1  2  1  0  0  0  0
  1 25  1  0  0  0  0
  1 26  1  0  0  0  0
  2  8  1  0  0  0  0
  2  3  2  0  0  0  0
  3  4  1  0  0  0  0
  4  5  1  0  0  0  0
  4  6  2  0  0  0  0
  6  7  1  0  0  0  0
  7 11  1  0  0  0  0
  7  8  2  0  0  0  0
  8  9  1  0  0  0  0
  9 10  2  0  0  0  0
 10 11  1  0  0  0  0
 10 27  1  0  0  0  0
 11 12  1  0  0  0  0
 12 21  1  0  0  0  0
 12 19  1  0  0  0  0
 12 13  1  0  0  0  0
 13 14  1  0  0  0  0
 14 22  1  0  0  0  0
 14 15  1  0  0  0  0
 14 17  1  0  0  0  0
 15 16  1  0  0  0  0
 15 28  1  0  0  0  0
 15 29  1  0  0  0  0
 16 30  1  0  0  0  0
 17 23  1  0  0  0  0
 17 18  1  0  0  0  0
 17 19  1  0  0  0  0
 18 31  1  0  0  0  0
 19 24  1  0  0  0  0
 19 20  1  0  0  0  0
 20 32  1  0  0  0  0
M  END
> <s_m_source_file>
AV-unprocessed.smi

> <i_m_source_file_index>
114

> <i_lp_mmshare_version>
43012

> <i_f3d_flags>
0

> <s_epik_input>
RmMobjEpbmMoW05IMl0pYyhjMTIpbltjSF1uMltDQEBIXTNPW0NASF0oW0NIMl1bT0hdKVtDQEBIXShbT0hdKVtDQEBIXTNbT0hd

> <s_epik_cmdline>
J2VwaWtfcHl0aG9uJywgJy1waCcsICc3LjAnLCAnLXRuJywgJzgnLCAnLW1hJywgJzIwMCcsICctbWV0YWxfYmluZGluZycsICctaW1hZScsICc8aW5maWxlLm1hZT4nLCAnLW9tYWUnLCAnPG91dGZpbGUubWFlPic=

> <r_lp_tautomer_probability>
1

> <r_epik_Ionization_Penalty>
1.13199e-05

> <r_epik_Ionization_Penalty_Charging>
0

> <r_epik_Ionization_Penalty_Neutral>
1.13199e-05

> <r_epik_State_Penalty>
-0

> <r_epik_Charging_Adjusted_Penalty>
0

> <i_epik_Tot_Q>
0

> <i_epik_Tot_abs_Q>
0

> <r_epik_Metal_State_Penalty>
-0

> <b_epik_Metal_Only>
0

> <s_epik_Chemistry_Notes>
This compound contains an acetal/aminal-like group ( X-CH(R)-Y where X, Y are N, S, or O) that may be acid/base labile, releasing an aldehyde.

> <s_lp_Force_Field>
OPLS_2005

> <r_lp_Energy>
39.1628

> <b_lp_Chiralities_Consistent>
1

> <s_lp_Variant>
AV-unprocessed.smi:114-9

> <Gold.Version>
5.8.1

> <Gold.Id.Protein>
6NUR|6NUR_protein|mol2

> <Gold.PLP.Fitness>
42.3148

> <Gold.PLP.PLP>
-28.0793

> <Gold.PLP.part.hbond>
-6.2642

> <Gold.PLP.part.metal>
0.0000

> <Gold.PLP.part.buried>
-2.1792

> <Gold.PLP.part.nonpolar>
-20.6017

> <Gold.PLP.part.repulsive>
0.3854

> <Gold.PLP.ligand.clash>
0.2512

> <Gold.PLP.ligand.torsion>
0.0470

> <Gold.PLP.Chemscore.Hbond>
4.8560

> <Gold.PLP.Chemscore.CHOScore>
0.0000

> <Gold.PLP.Chemscore.Metal>
0.0000

> <Gold.Chemscore.Hbonds>
donor molecule, donor type, donor heavy atom, donor atom, acceptor molecule, acceptor atom, score
      L1  H    16    30       P1  8028  0.99
      L1  H    18    31       P1  8028  1.00
      L1  H    20    32       P1  7957  0.86
      P1  H  8011  8017       L1    20  0.95
      P1  H 10752 10765       L1     9  1.00

> <Gold.PLP.Chemscore.Internal.Correction>
0.0127

> <Gold.Rescore>
     Score         DG    S(hbond)    S(metal)    S(lipo)     H(rot)  DE(clash)    DE(int)     intcor
      9.04     -12.11       3.90        0.00      33.44       4.03       1.56       1.51       ----

> <Gold.Chemscore.Fitness>
9.0429

> <Gold.Chemscore.DG>
-12.1125

> <Gold.Chemscore.ZeroCoef>
-5.4800

> <Gold.Chemscore.Hbond>
3.9016

> <Gold.Chemscore.Metal>
0.0000

> <Gold.Chemscore.Lipo>
33.4371

> <Gold.Chemscore.Internal_Hbond>
0.0000

> <Gold.Chemscore.DEClash>
1.5573

> <Gold.Chemscore.DEInternal>
1.5123

> <Gold.Chemscore.Rot>
4.0277

> <Gold.Chemscore.Internal.Correction>
   9.000000E+99

> <Gold.Chemscore.Hbonds>
donor molecule, donor type, donor heavy atom, donor atom, acceptor molecule, acceptor atom, score
      L1  H    16    30       P1  8028  0.86
      L1  H    18    31       P1  8028  0.97
      L1  H    20    32       P1  7957  0.79
      P1  H  8011  8017       L1    20  0.21
      P1  H 10752 10765       L1     9  0.83

> <Gold.Chemscore.Hbond.Weighted>
-13.0314

> <Gold.Chemscore.Metal.Weighted>
-0.0000

> <Gold.Chemscore.Lipo.Weighted>
-3.9121

> <Gold.Chemscore.Internal_Hbond.Weighted>
0.0000

> <Gold.Chemscore.DEClash.Weighted>
1.5573

> <Gold.Chemscore.DEInternal.Weighted>
1.5123

> <Gold.Chemscore.Rot.Weighted>
10.3110

> <Gold.Chemscore.Internal.Correction.Weighted>
   9.000000E+99

> <Gold.Protein.RotatedTorsions>
[ 6907 6896 6895 6894 ] final  -91.48 input  -60.11 | X-H torsion
[ 7974 7965 7964 7962 ] final -109.46 input  175.53 | X-H torsion
[ 8008 7997 7996 7995 ] final  -23.23 input   59.86 | X-H torsion
[ 10167 10162 10161 10158 ] final   73.66 input  -65.29 | X-H torsion
[ 10718 10713 10712 10709 ] final  157.35 input   66.30 | X-H torsion
[ 10763 10752 10751 10750 ] final -175.90 input  -60.55 | X-H torsion
[ 11005 11000 10999 10996 ] final   20.10 input  -57.11 | X-H torsion

> <Gold.Protein.ActiveResidues>
 VAL166  LYS551  ARG553  GLY616  TRP617  ASP618  TYR619  PRO620  LYS621  CYS622 
 ASP623  PHE694  ASN695  SER759  ASP760  ASP761  ALA762  ILE779  LEU786  VAL792 
 PHE793  MET794  SER795  GLU796  ALA797  LYS798  CYS799  TRP800  GLU811  SER814 

> <Gold.Protein.RotatedAtoms>
  150.6893  134.2270  159.4419 H   0  0  0  0  0  0  0  0  0  0  0  0  # atno 6907 bound_to 6896
  152.0223  134.9813  160.0580 H   0  0  0  0  0  0  0  0  0  0  0  0  # atno 6908 bound_to 6896
  152.1385  133.4415  159.4792 H   0  0  0  0  0  0  0  0  0  0  0  0  # atno 6909 bound_to 6896
  145.1802  140.8967  143.3484 H   0  0  0  0  0  0  0  0  0  0  0  0  # atno 7974 bound_to 7965
  154.4597  140.1986  156.0278 H   0  0  0  0  0  0  0  0  0  0  0  0  # atno 8008 bound_to 7997
  156.0817  140.3270  155.7673 H   0  0  0  0  0  0  0  0  0  0  0  0  # atno 8009 bound_to 7997
  155.5101  140.0561  157.2915 H   0  0  0  0  0  0  0  0  0  0  0  0  # atno 8010 bound_to 7997
  140.0221  144.5532  150.7574 H   0  0  0  0  0  0  0  0  0  0  0  0  # atno 10167 bound_to 10162
  157.1927  131.0658  151.2070 H   0  0  0  0  0  0  0  0  0  0  0  0  # atno 10718 bound_to 10713
  154.5788  135.2834  155.0753 H   0  0  0  0  0  0  0  0  0  0  0  0  # atno 10763 bound_to 10752
  154.2097  135.6410  153.5115 H   0  0  0  0  0  0  0  0  0  0  0  0  # atno 10764 bound_to 10752
  153.0081  135.5489  154.6435 H   0  0  0  0  0  0  0  0  0  0  0  0  # atno 10765 bound_to 10752
  140.4064  134.1665  155.7665 H   0  0  0  0  0  0  0  0  0  0  0  0  # atno 11005 bound_to 11000
  145.0144  139.3481  143.6104 LP  0  0  0  0  0  0  0  0  0  0  0  0  # atno 17320 bound_to 7965
  146.3454  139.9419  142.8740 LP  0  0  0  0  0  0  0  0  0  0  0  0  # atno 17321 bound_to 7965
  140.7338  143.2721  151.3854 LP  0  0  0  0  0  0  0  0  0  0  0  0  # atno 17342 bound_to 10162
  139.6133  144.1054  152.2320 LP  0  0  0  0  0  0  0  0  0  0  0  0  # atno 17343 bound_to 10162
  157.3844  130.7249  149.6653 LP  0  0  0  0  0  0  0  0  0  0  0  0  # atno 17370 bound_to 10713
  155.9710  130.4163  150.4226 LP  0  0  0  0  0  0  0  0  0  0  0  0  # atno 17371 bound_to 10713
  141.1838  133.8357  157.1163 LP  0  0  0  0  0  0  0  0  0  0  0  0  # atno 17394 bound_to 11000
  140.0299  134.9906  157.0760 LP  0  0  0  0  0  0  0  0  0  0  0  0  # atno 17395 bound_to 11000

$$$$
