AV-unprocessed.smi:1032|AV-procd|sdf|4484|dock4
  -GOLD-   22720 2463D 1   1.00000     0.00000
 Structure written by MMmdl.
 46 47  0  0  0  0  0  0  0  0  2 V2000
  145.6516  143.7484  157.1830 C   0  0  0  0  0  0  0  0  0  0  0  0
  144.6717  143.1000  156.1895 C   0  0  2  0  0  0  0  0  0  0  0  0
  144.7687  141.5636  156.1726 C   0  0  0  0  0  0  0  0  0  0  0  0
  146.0313  141.0664  155.4463 C   0  0  0  0  0  0  0  0  0  0  0  0
  146.1059  141.6083  154.0652 N   0  3  2  0  0  0  0  0  0  0  0  0
  147.2330  141.0240  153.2927 C   0  0  0  0  0  0  0  0  0  0  0  0
  147.2080  139.4815  153.2721 C   0  0  2  0  0  0  0  0  0  0  0  0
  148.5476  139.0277  153.2334 O   0  0  0  0  0  0  0  0  0  0  0  0
  146.4838  138.9420  152.0215 C   0  0  0  0  0  0  0  0  0  0  0  0
  146.7233  137.5155  151.8258 N   0  0  0  0  0  0  0  0  0  0  0  0
  145.7645  136.5938  151.6539 C   0  0  0  0  0  0  0  0  0  0  0  0
  144.5627  136.8605  151.6645 O   0  0  0  0  0  0  0  0  0  0  0  0
  146.2887  135.3657  151.4981 N   0  0  0  0  0  0  0  0  0  0  0  0
  145.6155  134.1432  151.2268 C   0  0  0  0  0  0  0  0  0  0  0  0
  146.4001  132.9866  151.0372 C   0  0  0  0  0  0  0  0  0  0  0  0
  145.7552  131.7685  150.7440 C   0  0  0  0  0  0  0  0  0  0  0  0
  144.4163  131.6481  150.6244 N   0  0  0  0  0  0  0  0  0  0  0  0
  143.6678  132.7588  150.7920 C   0  0  0  0  0  0  0  0  0  0  0  0
  144.2115  134.0248  151.0885 C   0  0  0  0  0  0  0  0  0  0  0  0
  146.0922  143.0957  154.0625 C   0  0  0  0  0  0  0  0  0  0  0  0
  144.8306  143.6401  154.7566 C   0  0  0  0  0  0  0  0  0  0  0  0
  146.6916  143.5453  156.9288 H   0  0  0  0  0  0  0  0  0  0  0  0
  145.4822  143.3790  158.1948 H   0  0  0  0  0  0  0  0  0  0  0  0
  145.5239  144.8310  157.2061 H   0  0  0  0  0  0  0  0  0  0  0  0
  143.6694  143.3623  156.5306 H   0  0  0  0  0  0  0  0  0  0  0  0
  144.7420  141.1721  157.1901 H   0  0  0  0  0  0  0  0  0  0  0  0
  143.8904  141.1563  155.6701 H   0  0  0  0  0  0  0  0  0  0  0  0
  146.9291  141.3463  155.9994 H   0  0  0  0  0  0  0  0  0  0  0  0
  146.0110  139.9763  155.4127 H   0  0  0  0  0  0  0  0  0  0  0  0
  147.2094  141.4214  152.2766 H   0  0  0  0  0  0  0  0  0  0  0  0
  148.1829  141.3478  153.7215 H   0  0  0  0  0  0  0  0  0  0  0  0
  146.7274  139.1005  154.1723 H   0  0  0  0  0  0  0  0  0  0  0  0
  148.8929  139.1721  152.3653 H   0  0  0  0  0  0  0  0  0  0  0  0
  145.4075  139.0981  152.1157 H   0  0  0  0  0  0  0  0  0  0  0  0
  146.7844  139.4877  151.1262 H   0  0  0  0  0  0  0  0  0  0  0  0
  147.6862  137.2115  151.8135 H   0  0  0  0  0  0  0  0  0  0  0  0
  147.2883  135.2902  151.6176 H   0  0  0  0  0  0  0  0  0  0  0  0
  147.4767  133.0249  151.1184 H   0  0  0  0  0  0  0  0  0  0  0  0
  146.3315  130.8668  150.5989 H   0  0  0  0  0  0  0  0  0  0  0  0
  142.6009  132.6369  150.6789 H   0  0  0  0  0  0  0  0  0  0  0  0
  143.5492  134.8707  151.1878 H   0  0  0  0  0  0  0  0  0  0  0  0
  146.9907  143.4728  154.5528 H   0  0  0  0  0  0  0  0  0  0  0  0
  146.1150  143.4751  153.0420 H   0  0  0  0  0  0  0  0  0  0  0  0
  143.9560  143.3567  154.1694 H   0  0  0  0  0  0  0  0  0  0  0  0
  144.8475  144.7305  154.7637 H   0  0  0  0  0  0  0  0  0  0  0  0
  145.2617  141.3060  153.5994 H   0  0  0  0  0  0  0  0  0  0  0  0
  1  2  1  0  0  0  0
  1 22  1  0  0  0  0
  1 23  1  0  0  0  0
  1 24  1  0  0  0  0
  2 21  1  0  0  0  0
  2  3  1  0  0  0  0
  2 25  1  0  0  0  0
  3  4  1  0  0  0  0
  3 26  1  0  0  0  0
  3 27  1  0  0  0  0
  4  5  1  0  0  0  0
  4 28  1  0  0  0  0
  4 29  1  0  0  0  0
  5  6  1  0  0  0  0
  5 20  1  0  0  0  0
  5 46  1  0  0  0  0
  6  7  1  0  0  0  0
  6 30  1  0  0  0  0
  6 31  1  0  0  0  0
  7  8  1  0  0  0  0
  7  9  1  0  0  0  0
  7 32  1  0  0  0  0
  8 33  1  0  0  0  0
  9 10  1  0  0  0  0
  9 34  1  0  0  0  0
  9 35  1  0  0  0  0
 10 11  1  0  0  0  0
 10 36  1  0  0  0  0
 11 12  2  0  0  0  0
 11 13  1  0  0  0  0
 13 14  1  0  0  0  0
 13 37  1  0  0  0  0
 14 19  1  0  0  0  0
 14 15  2  0  0  0  0
 15 16  1  0  0  0  0
 15 38  1  0  0  0  0
 16 17  2  0  0  0  0
 16 39  1  0  0  0  0
 17 18  1  0  0  0  0
 18 19  2  0  0  0  0
 18 40  1  0  0  0  0
 19 41  1  0  0  0  0
 20 21  1  0  0  0  0
 20 42  1  0  0  0  0
 20 43  1  0  0  0  0
 21 44  1  0  0  0  0
 21 45  1  0  0  0  0
M  CHG  1   5   1
M  END
> <s_m_source_file>
AV-unprocessed.smi

> <i_m_source_file_index>
1032

> <i_lp_mmshare_version>
43012

> <i_f3d_flags>
0

> <s_epik_input>
W0NIM11bQ0hdMVtDSDJdW0NIMl1OKFtDSDJdW0NIMl0xKVtDSDJdW0NASF0oW09IXSlbQ0gyXVtOSF1DKD1PKVtOSF1jMltjSF1bY0hdbltjSF1bY0hdMg==

> <s_epik_cmdline>
J2VwaWtfcHl0aG9uJywgJy1waCcsICc3LjAnLCAnLXRuJywgJzgnLCAnLW1hJywgJzIwMCcsICctbWV0YWxfYmluZGluZycsICctaW1hZScsICc8aW5maWxlLm1hZT4nLCAnLW9tYWUnLCAnPG91dGZpbGUubWFlPic=

> <r_epik_Ionization_Penalty>
0.11743

> <r_epik_Ionization_Penalty_Charging>
0.00147689

> <r_epik_Ionization_Penalty_Neutral>
0.115954

> <r_epik_State_Penalty>
0.105552

> <r_epik_Charging_Adjusted_Penalty>
0.107029

> <i_epik_Tot_Q>
1

> <i_epik_Tot_abs_Q>
1

> <r_epik_Metal_State_Penalty>
0.0881315

> <b_epik_Metal_Only>
0

> <s_lp_Force_Field>
OPLS_2005

> <r_lp_Energy>
27.8134

> <b_lp_Chiralities_Consistent>
1

> <s_lp_Variant>
AV-unprocessed.smi:1032-3

> <Gold.Version>
5.8.1

> <Gold.Id.Protein>
6NUR|6NUR_protein|mol2

> <Gold.PLP.Fitness>
56.0774

> <Gold.PLP.PLP>
-36.7502

> <Gold.PLP.part.hbond>
-4.6536

> <Gold.PLP.part.metal>
0.0000

> <Gold.PLP.part.buried>
-6.3611

> <Gold.PLP.part.nonpolar>
-31.1850

> <Gold.PLP.part.repulsive>
4.6558

> <Gold.PLP.ligand.clash>
0.0000

> <Gold.PLP.ligand.torsion>
0.5592

> <Gold.PLP.Chemscore.Hbond>
4.9280

> <Gold.PLP.Chemscore.CHOScore>
1.8749

> <Gold.PLP.Chemscore.Metal>
0.0000

> <Gold.Chemscore.Hbonds>
donor molecule, donor type, donor heavy atom, donor atom, acceptor molecule, acceptor atom, score
      L1  H     5    46       P1 10175  1.69
      L1  H     8    33       P1  7957  1.00
      L1  H    10    36       P1  7948  1.00
      L1  H    13    37       P1  7948  0.94
      L1  C    16    39       P1 10747  0.60
      L1  C    18    40       P1 10186  0.65

> <Gold.PLP.Chemscore.Internal.Correction>
0.0371

> <Gold.Rescore>
     Score         DG    S(hbond)    S(metal)    S(lipo)     H(rot)  DE(clash)    DE(int)     intcor
     17.91     -21.08       3.67        0.00      78.47       2.29       1.24       1.92       ----

> <Gold.Chemscore.Fitness>
17.9125

> <Gold.Chemscore.DG>
-21.0763

> <Gold.Chemscore.ZeroCoef>
-5.4800

> <Gold.Chemscore.Hbond>
3.6733

> <Gold.Chemscore.Metal>
0.0000

> <Gold.Chemscore.Lipo>
78.4720

> <Gold.Chemscore.Internal_Hbond>
0.0000

> <Gold.Chemscore.DEClash>
1.2402

> <Gold.Chemscore.DEInternal>
1.9236

> <Gold.Chemscore.Rot>
2.2865

> <Gold.Chemscore.Internal.Correction>
   9.000000E+99

> <Gold.Chemscore.Hbonds>
donor molecule, donor type, donor heavy atom, donor atom, acceptor molecule, acceptor atom, score
      L1  H     5    46       P1 10175  0.29
      L1  H     8    33       P1  7957  0.98
      L1  H    10    36       P1  7948  0.97
      L1  H    13    37       P1  7948  0.86

> <Gold.Chemscore.Hbond.Weighted>
-12.2687

> <Gold.Chemscore.Metal.Weighted>
-0.0000

> <Gold.Chemscore.Lipo.Weighted>
-9.1812

> <Gold.Chemscore.Internal_Hbond.Weighted>
0.0000

> <Gold.Chemscore.DEClash.Weighted>
1.2402

> <Gold.Chemscore.DEInternal.Weighted>
1.9236

> <Gold.Chemscore.Rot.Weighted>
5.8536

> <Gold.Chemscore.Internal.Correction.Weighted>
   9.000000E+99

> <Gold.Protein.RotatedTorsions>
[ 6907 6896 6895 6894 ] final   23.02 input  -60.11 | X-H torsion
[ 7974 7965 7964 7962 ] final  179.54 input  175.53 | X-H torsion
[ 8008 7997 7996 7995 ] final  -62.03 input   59.86 | X-H torsion
[ 10167 10162 10161 10158 ] final -151.87 input  -65.29 | X-H torsion
[ 10718 10713 10712 10709 ] final   74.55 input   66.30 | X-H torsion
[ 10763 10752 10751 10750 ] final   96.43 input  -60.55 | X-H torsion
[ 11005 11000 10999 10996 ] final   36.72 input  -57.11 | X-H torsion

> <Gold.Protein.ActiveResidues>
 VAL166  LYS551  ARG553  GLY616  TRP617  ASP618  TYR619  PRO620  LYS621  CYS622 
 ASP623  PHE694  ASN695  SER759  ASP760  ASP761  ALA762  ILE779  LEU786  VAL792 
 PHE793  MET794  SER795  GLU796  ALA797  LYS798  CYS799  TRP800  GLU811  SER814 

> <Gold.Protein.RotatedAtoms>
  151.9359  135.0235  160.0532 H   0  0  0  0  0  0  0  0  0  0  0  0  # atno 6907 bound_to 6896
  152.2078  133.4884  159.5102 H   0  0  0  0  0  0  0  0  0  0  0  0  # atno 6908 bound_to 6896
  150.6969  134.1424  159.4152 H   0  0  0  0  0  0  0  0  0  0  0  0  # atno 6909 bound_to 6896
  144.7145  140.0564  143.6434 H   0  0  0  0  0  0  0  0  0  0  0  0  # atno 7974 bound_to 7965
  154.4478  140.1005  156.6524 H   0  0  0  0  0  0  0  0  0  0  0  0  # atno 8008 bound_to 7997
  155.5383  140.3483  155.4422 H   0  0  0  0  0  0  0  0  0  0  0  0  # atno 8009 bound_to 7997
  156.0615  140.1327  156.9924 H   0  0  0  0  0  0  0  0  0  0  0  0  # atno 8010 bound_to 7997
  139.7230  143.8927  152.2510 H   0  0  0  0  0  0  0  0  0  0  0  0  # atno 10167 bound_to 10162
  157.6597  130.9683  150.1227 H   0  0  0  0  0  0  0  0  0  0  0  0  # atno 10718 bound_to 10713
  153.2648  135.4219  155.0930 H   0  0  0  0  0  0  0  0  0  0  0  0  # atno 10763 bound_to 10752
  154.8434  135.3458  154.6326 H   0  0  0  0  0  0  0  0  0  0  0  0  # atno 10764 bound_to 10752
  153.6746  135.7042  153.5193 H   0  0  0  0  0  0  0  0  0  0  0  0  # atno 10765 bound_to 10752
  140.2297  134.3542  155.7969 H   0  0  0  0  0  0  0  0  0  0  0  0  # atno 11005 bound_to 11000
  145.9901  139.3008  143.0990 LP  0  0  0  0  0  0  0  0  0  0  0  0  # atno 17320 bound_to 7965
  145.8913  140.9302  143.0551 LP  0  0  0  0  0  0  0  0  0  0  0  0  # atno 17321 bound_to 7965
  139.8829  144.7008  150.8858 LP  0  0  0  0  0  0  0  0  0  0  0  0  # atno 17342 bound_to 10162
  140.7757  143.3647  151.1761 LP  0  0  0  0  0  0  0  0  0  0  0  0  # atno 17343 bound_to 10162
  156.2094  130.3665  149.8688 LP  0  0  0  0  0  0  0  0  0  0  0  0  # atno 17370 bound_to 10713
  156.6571  130.8767  151.3541 LP  0  0  0  0  0  0  0  0  0  0  0  0  # atno 17371 bound_to 10713
  141.2218  133.7239  156.8712 LP  0  0  0  0  0  0  0  0  0  0  0  0  # atno 17394 bound_to 11000
  140.1763  134.9065  157.2895 LP  0  0  0  0  0  0  0  0  0  0  0  0  # atno 17395 bound_to 11000

$$$$
