AV-unprocessed.smi:618|AV-procd|sdf|3076|dock1
  -GOLD-   22720 0 03D 1   1.00000     0.00000
 Structure written by MMmdl.
 41 43  0  0  0  0  0  0  0  0  2 V2000
  146.4878  138.9749  154.5337 O   0  0  0  0  0  0  0  0  0  0  0  0
  147.2039  138.4278  153.6955 C   0  0  0  0  0  0  0  0  0  0  0  0
  146.7382  137.5689  152.7781 N   0  0  0  0  0  0  0  0  0  0  0  0
  145.3407  137.1754  152.6336 C   0  0  0  0  0  0  0  0  0  0  0  0
  145.2016  135.7187  152.1568 C   0  0  2  0  0  0  0  0  0  0  0  0
  145.6669  135.5432  150.6988 C   0  0  0  0  0  0  0  0  0  0  0  0
  145.4127  134.1712  150.2004 N   0  3  1  0  0  0  0  0  0  0  0  0
  146.3910  133.1340  150.5961 C   0  0  0  0  0  0  0  0  0  0  0  0
  145.6099  131.8131  150.6788 C   0  0  0  0  0  0  0  0  0  0  0  0
  144.1824  132.1538  150.2378 C   0  0  0  0  0  0  0  0  0  0  0  0
  144.0596  133.6564  150.4952 C   0  0  1  0  0  0  0  0  0  0  0  0
  143.6418  133.9678  151.9504 C   0  0  0  0  0  0  0  0  0  0  0  0
  143.8299  135.3472  152.2327 O   0  0  0  0  0  0  0  0  0  0  0  0
  148.5325  138.5903  153.5783 N   0  0  0  0  0  0  0  0  0  0  0  0
  149.3936  139.4263  154.3394 C   0  0  0  0  0  0  0  0  0  0  0  0
  148.8457  140.5947  154.9079 C   0  0  0  0  0  0  0  0  0  0  0  0
  149.6695  141.4334  155.6821 C   0  0  0  0  0  0  0  0  0  0  0  0
  151.0158  141.0639  155.8666 C   0  0  0  0  0  0  0  0  0  0  0  0
  151.5535  139.9422  155.3430 N   0  0  0  0  0  0  0  0  0  0  0  0
  150.7579  139.1433  154.5994 C   0  0  0  0  0  0  0  0  0  0  0  0
  147.3955  137.1615  152.1288 H   0  0  0  0  0  0  0  0  0  0  0  0
  144.8460  137.3048  153.5966 H   0  0  0  0  0  0  0  0  0  0  0  0
  144.8430  137.8519  151.9365 H   0  0  0  0  0  0  0  0  0  0  0  0
  145.7931  135.0739  152.8088 H   0  0  0  0  0  0  0  0  0  0  0  0
  145.1192  136.2363  150.0590 H   0  0  0  0  0  0  0  0  0  0  0  0
  146.7244  135.7872  150.5914 H   0  0  0  0  0  0  0  0  0  0  0  0
  147.1948  133.0861  149.8610 H   0  0  0  0  0  0  0  0  0  0  0  0
  146.8409  133.3623  151.5632 H   0  0  0  0  0  0  0  0  0  0  0  0
  146.0503  131.0333  150.0566 H   0  0  0  0  0  0  0  0  0  0  0  0
  145.6080  131.4487  151.7068 H   0  0  0  0  0  0  0  0  0  0  0  0
  144.0773  131.9586  149.1696 H   0  0  0  0  0  0  0  0  0  0  0  0
  143.4249  131.5644  150.7559 H   0  0  0  0  0  0  0  0  0  0  0  0
  143.3429  134.1138  149.8120 H   0  0  0  0  0  0  0  0  0  0  0  0
  142.5910  133.7178  152.0974 H   0  0  0  0  0  0  0  0  0  0  0  0
  144.2060  133.3690  152.6675 H   0  0  0  0  0  0  0  0  0  0  0  0
  148.9915  138.0090  152.8924 H   0  0  0  0  0  0  0  0  0  0  0  0
  147.8076  140.8500  154.7512 H   0  0  0  0  0  0  0  0  0  0  0  0
  149.2791  142.3378  156.1247 H   0  0  0  0  0  0  0  0  0  0  0  0
  151.6770  141.6827  156.4551 H   0  0  0  0  0  0  0  0  0  0  0  0
  151.2382  138.2504  154.2313 H   0  0  0  0  0  0  0  0  0  0  0  0
  145.4759  134.2138  149.1930 H   0  0  0  0  0  0  0  0  0  0  0  0
  1  2  2  0  0  0  0
  2  3  1  0  0  0  0
  2 14  1  0  0  0  0
  3  4  1  0  0  0  0
  3 21  1  0  0  0  0
  4  5  1  0  0  0  0
  4 22  1  0  0  0  0
  4 23  1  0  0  0  0
  5 13  1  0  0  0  0
  5  6  1  0  0  0  0
  5 24  1  0  0  0  0
  6  7  1  0  0  0  0
  6 25  1  0  0  0  0
  6 26  1  0  0  0  0
  7 11  1  0  0  0  0
  7  8  1  0  0  0  0
  7 41  1  0  0  0  0
  8  9  1  0  0  0  0
  8 27  1  0  0  0  0
  8 28  1  0  0  0  0
  9 10  1  0  0  0  0
  9 29  1  0  0  0  0
  9 30  1  0  0  0  0
 10 11  1  0  0  0  0
 10 31  1  0  0  0  0
 10 32  1  0  0  0  0
 11 12  1  0  0  0  0
 11 33  1  0  0  0  0
 12 13  1  0  0  0  0
 12 34  1  0  0  0  0
 12 35  1  0  0  0  0
 14 15  1  0  0  0  0
 14 36  1  0  0  0  0
 15 20  1  0  0  0  0
 15 16  2  0  0  0  0
 16 17  1  0  0  0  0
 16 37  1  0  0  0  0
 17 18  2  0  0  0  0
 17 38  1  0  0  0  0
 18 19  1  0  0  0  0
 18 39  1  0  0  0  0
 19 20  2  0  0  0  0
 20 40  1  0  0  0  0
M  CHG  1   7   1
M  END
> <s_m_source_file>
AV-unprocessed.smi

> <i_m_source_file_index>
618

> <i_lp_mmshare_version>
43012

> <i_f3d_flags>
0

> <s_epik_input>
W2NIXTFuW2NIXVtjSF1bY0hdYzFbTkhdQyg9TylbTkhdW0NIMl1bQ0BIXShbQ0gyXTIpT1tDSDJdW0NAQEhdKE4yMylbQ0gyXVtDSDJdW0NIMl0z

> <s_epik_cmdline>
J2VwaWtfcHl0aG9uJywgJy1waCcsICc3LjAnLCAnLXRuJywgJzgnLCAnLW1hJywgJzIwMCcsICctbWV0YWxfYmluZGluZycsICctaW1hZScsICc8aW5maWxlLm1hZT4nLCAnLW9tYWUnLCAnPG91dGZpbGUubWFlPic=

> <r_epik_Ionization_Penalty>
0.111044

> <r_epik_Ionization_Penalty_Charging>
0.10673

> <r_epik_Ionization_Penalty_Neutral>
0.00431361

> <r_epik_State_Penalty>
0.0978747

> <r_epik_Charging_Adjusted_Penalty>
0.204605

> <i_epik_Tot_Q>
1

> <i_epik_Tot_abs_Q>
1

> <r_epik_Metal_State_Penalty>
0.0947591

> <b_epik_Metal_Only>
0

> <s_lp_Force_Field>
OPLS_2005

> <r_lp_Energy>
38.5016

> <b_lp_Chiralities_Consistent>
1

> <s_lp_Variant>
AV-unprocessed.smi:618-3

> <Gold.Version>
5.8.1

> <Gold.Id.Protein>
6NUR|6NUR_protein|mol2

> <Gold.PLP.Fitness>
46.5584

> <Gold.PLP.PLP>
-38.4933

> <Gold.PLP.part.hbond>
-5.0000

> <Gold.PLP.part.metal>
0.0000

> <Gold.PLP.part.buried>
-5.3110

> <Gold.PLP.part.nonpolar>
-29.7661

> <Gold.PLP.part.repulsive>
0.4114

> <Gold.PLP.ligand.clash>
0.0000

> <Gold.PLP.ligand.torsion>
0.3968

> <Gold.PLP.Chemscore.Hbond>
2.9520

> <Gold.PLP.Chemscore.CHOScore>
0.0000

> <Gold.PLP.Chemscore.Metal>
0.0000

> <Gold.Chemscore.Hbonds>
donor molecule, donor type, donor heavy atom, donor atom, acceptor molecule, acceptor atom, score
      L1  H     3    21       P1  7948  0.99
      L1  H     7    41       P1  7921  1.00
      L1  H    14    36       P1  7948  0.96

> <Gold.PLP.Chemscore.Internal.Correction>
0.0027

> <Gold.Rescore>
     Score         DG    S(hbond)    S(metal)    S(lipo)     H(rot)  DE(clash)    DE(int)     intcor
     20.56     -22.40       2.76        0.00      93.44       1.27       0.16       1.68       ----

> <Gold.Chemscore.Fitness>
20.5562

> <Gold.Chemscore.DG>
-22.3966

> <Gold.Chemscore.ZeroCoef>
-5.4800

> <Gold.Chemscore.Hbond>
2.7616

> <Gold.Chemscore.Metal>
0.0000

> <Gold.Chemscore.Lipo>
93.4427

> <Gold.Chemscore.Internal_Hbond>
0.0000

> <Gold.Chemscore.DEClash>
0.1625

> <Gold.Chemscore.DEInternal>
1.6779

> <Gold.Chemscore.Rot>
1.2656

> <Gold.Chemscore.Internal.Correction>
   9.000000E+99

> <Gold.Chemscore.Hbonds>
donor molecule, donor type, donor heavy atom, donor atom, acceptor molecule, acceptor atom, score
      L1  H     3    21       P1  7948  0.94
      L1  H     7    41       P1  7921  0.86
      L1  H    14    36       P1  7948  0.86

> <Gold.Chemscore.Hbond.Weighted>
-9.2237

> <Gold.Chemscore.Metal.Weighted>
-0.0000

> <Gold.Chemscore.Lipo.Weighted>
-10.9328

> <Gold.Chemscore.Internal_Hbond.Weighted>
0.0000

> <Gold.Chemscore.DEClash.Weighted>
0.1625

> <Gold.Chemscore.DEInternal.Weighted>
1.6779

> <Gold.Chemscore.Rot.Weighted>
3.2399

> <Gold.Chemscore.Internal.Correction.Weighted>
   9.000000E+99

> <Gold.Protein.RotatedTorsions>
[ 6907 6896 6895 6894 ] final    8.25 input  -60.11 | X-H torsion
[ 7974 7965 7964 7962 ] final  152.46 input  175.53 | X-H torsion
[ 8008 7997 7996 7995 ] final  -11.68 input   59.86 | X-H torsion
[ 10167 10162 10161 10158 ] final  123.79 input  -65.29 | X-H torsion
[ 10718 10713 10712 10709 ] final -148.49 input   66.30 | X-H torsion
[ 10763 10752 10751 10750 ] final    4.16 input  -60.55 | X-H torsion
[ 11005 11000 10999 10996 ] final  169.45 input  -57.11 | X-H torsion

> <Gold.Protein.ActiveResidues>
 VAL166  LYS551  ARG553  GLY616  TRP617  ASP618  TYR619  PRO620  LYS621  CYS622 
 ASP623  PHE694  ASN695  SER759  ASP760  ASP761  ALA762  ILE779  LEU786  VAL792 
 PHE793  MET794  SER795  GLU796  ALA797  LYS798  CYS799  TRP800  GLU811  SER814 

> <Gold.Protein.RotatedAtoms>
  151.7029  135.0927  160.0253 H   0  0  0  0  0  0  0  0  0  0  0  0  # atno 6907 bound_to 6896
  152.3709  133.6413  159.6095 H   0  0  0  0  0  0  0  0  0  0  0  0  # atno 6908 bound_to 6896
  150.7673  133.9188  159.3433 H   0  0  0  0  0  0  0  0  0  0  0  0  # atno 6909 bound_to 6896
  144.8221  139.6671  143.6096 H   0  0  0  0  0  0  0  0  0  0  0  0  # atno 7974 bound_to 7965
  154.5444  140.2296  155.8588 H   0  0  0  0  0  0  0  0  0  0  0  0  # atno 8008 bound_to 7997
  156.1888  140.3082  155.9254 H   0  0  0  0  0  0  0  0  0  0  0  0  # atno 8009 bound_to 7997
  155.3194  140.0439  157.3029 H   0  0  0  0  0  0  0  0  0  0  0  0  # atno 8010 bound_to 7997
  139.5779  144.6972  151.3606 H   0  0  0  0  0  0  0  0  0  0  0  0  # atno 10167 bound_to 10162
  156.4210  130.8029  151.2251 H   0  0  0  0  0  0  0  0  0  0  0  0  # atno 10718 bound_to 10713
  153.2745  135.6935  153.7447 H   0  0  0  0  0  0  0  0  0  0  0  0  # atno 10763 bound_to 10752
  153.6457  135.3385  155.3086 H   0  0  0  0  0  0  0  0  0  0  0  0  # atno 10764 bound_to 10752
  154.8475  135.4442  154.1779 H   0  0  0  0  0  0  0  0  0  0  0  0  # atno 10765 bound_to 10752
  140.2979  134.7619  157.3892 H   0  0  0  0  0  0  0  0  0  0  0  0  # atno 11005 bound_to 11000
  146.2526  139.6233  142.9416 LP  0  0  0  0  0  0  0  0  0  0  0  0  # atno 17320 bound_to 7965
  145.5082  141.0436  143.2502 LP  0  0  0  0  0  0  0  0  0  0  0  0  # atno 17321 bound_to 7965
  140.7060  143.7513  150.7482 LP  0  0  0  0  0  0  0  0  0  0  0  0  # atno 17342 bound_to 10162
  140.1038  143.4763  152.2410 LP  0  0  0  0  0  0  0  0  0  0  0  0  # atno 17343 bound_to 10162
  157.7508  131.0228  150.3807 LP  0  0  0  0  0  0  0  0  0  0  0  0  # atno 17370 bound_to 10713
  156.4125  130.3937  149.6882 LP  0  0  0  0  0  0  0  0  0  0  0  0  # atno 17371 bound_to 10713
  140.1136  134.5313  155.8245 LP  0  0  0  0  0  0  0  0  0  0  0  0  # atno 17394 bound_to 11000
  141.2134  133.6732  156.6734 LP  0  0  0  0  0  0  0  0  0  0  0  0  # atno 17395 bound_to 11000

$$$$
