AV-unprocessed.smi:1286|AV-procd|sdf|5376|dock5
  -GOLD-   22720 4523D 1   1.00000     0.00000
 Structure written by MMmdl.
 36 37  0  0  0  0  0  0  0  0  1 V2000
  152.5726  137.5949  156.4786 C   0  0  0  0  0  0  0  0  0  0  0  0
  151.9927  138.7964  155.7145 C   0  0  1  0  0  0  0  0  0  0  0  0
  150.8499  138.4116  154.7492 C   0  0  0  0  0  0  0  0  0  0  0  0
  149.9391  139.5123  154.4911 N   0  0  0  0  0  0  0  0  0  0  0  0
  148.6429  139.4553  154.0244 C   0  0  0  0  0  0  0  0  0  0  0  0
  148.1858  140.7388  153.9368 C   0  0  0  0  0  0  0  0  0  0  0  0
  149.2906  141.5214  154.3746 C   0  0  0  0  0  0  0  0  0  0  0  0
  150.3393  140.7847  154.7044 N   0  0  0  0  0  0  0  0  0  0  0  0
  151.5253  139.7927  156.6741 N   0  0  0  0  0  0  0  0  0  0  0  0
  152.2116  140.2239  157.7440 C   0  0  0  0  0  0  0  0  0  0  0  0
  153.3383  139.8197  158.0325 O   0  0  0  0  0  0  0  0  0  0  0  0
  151.5216  141.2789  158.6164 C   0  0  0  0  0  0  0  0  0  0  0  0
  152.4817  142.3521  159.1749 C   0  0  2  0  0  0  0  0  0  0  0  0
  152.6243  142.3155  160.6776 C   0  0  0  0  0  0  0  0  0  0  0  0
  152.3782  143.4932  161.2465 C   0  0  0  0  0  0  0  0  0  0  0  0
  152.0200  144.5540  160.2433 C   0  0  0  0  0  0  0  0  0  0  0  0
  152.0047  143.8004  158.8944 C   0  0  0  0  0  0  0  0  0  0  0  0
  153.0140  136.8642  155.8005 H   0  0  0  0  0  0  0  0  0  0  0  0
  151.8028  137.0864  157.0602 H   0  0  0  0  0  0  0  0  0  0  0  0
  153.3571  137.9107  157.1672 H   0  0  0  0  0  0  0  0  0  0  0  0
  152.8069  139.2321  155.1323 H   0  0  0  0  0  0  0  0  0  0  0  0
  151.2582  138.0587  153.8004 H   0  0  0  0  0  0  0  0  0  0  0  0
  150.2664  137.5868  155.1603 H   0  0  0  0  0  0  0  0  0  0  0  0
  148.1603  138.5157  153.7981 H   0  0  0  0  0  0  0  0  0  0  0  0
  147.2111  141.0685  153.6095 H   0  0  0  0  0  0  0  0  0  0  0  0
  149.3613  142.5956  154.4614 H   0  0  0  0  0  0  0  0  0  0  0  0
  150.6081  140.1830  156.5124 H   0  0  0  0  0  0  0  0  0  0  0  0
  150.7497  141.7586  158.0137 H   0  0  0  0  0  0  0  0  0  0  0  0
  151.0047  140.7857  159.4415 H   0  0  0  0  0  0  0  0  0  0  0  0
  153.4769  142.2146  158.7491 H   0  0  0  0  0  0  0  0  0  0  0  0
  152.9135  141.4208  161.2093 H   0  0  0  0  0  0  0  0  0  0  0  0
  152.4338  143.6971  162.3056 H   0  0  0  0  0  0  0  0  0  0  0  0
  151.0479  144.9899  160.4761 H   0  0  0  0  0  0  0  0  0  0  0  0
  152.7701  145.3452  160.2549 H   0  0  0  0  0  0  0  0  0  0  0  0
  152.6481  144.2902  158.1625 H   0  0  0  0  0  0  0  0  0  0  0  0
  150.9948  143.8067  158.4822 H   0  0  0  0  0  0  0  0  0  0  0  0
  1  2  1  0  0  0  0
  1 18  1  0  0  0  0
  1 19  1  0  0  0  0
  1 20  1  0  0  0  0
  2  3  1  0  0  0  0
  2  9  1  0  0  0  0
  2 21  1  0  0  0  0
  3  4  1  0  0  0  0
  3 22  1  0  0  0  0
  3 23  1  0  0  0  0
  4  8  1  0  0  0  0
  4  5  1  0  0  0  0
  5  6  2  0  0  0  0
  5 24  1  0  0  0  0
  6  7  1  0  0  0  0
  6 25  1  0  0  0  0
  7  8  2  0  0  0  0
  7 26  1  0  0  0  0
  9 10  1  0  0  0  0
  9 27  1  0  0  0  0
 10 11  2  0  0  0  0
 10 12  1  0  0  0  0
 12 13  1  0  0  0  0
 12 28  1  0  0  0  0
 12 29  1  0  0  0  0
 13 17  1  0  0  0  0
 13 14  1  0  0  0  0
 13 30  1  0  0  0  0
 14 15  2  0  0  0  0
 14 31  1  0  0  0  0
 15 16  1  0  0  0  0
 15 32  1  0  0  0  0
 16 17  1  0  0  0  0
 16 33  1  0  0  0  0
 16 34  1  0  0  0  0
 17 35  1  0  0  0  0
 17 36  1  0  0  0  0
M  END
> <s_m_source_file>
AV-unprocessed.smi

> <i_m_source_file_index>
1286

> <i_lp_mmshare_version>
43012

> <i_f3d_flags>
0

> <s_epik_input>
bjFbY0hdW2NIXVtjSF1uMVtDSDJdW0NAQEhdKFtDSDNdKVtOSF1DKD1PKVtDSDJdW0NAQEhdMltDSF09W0NIXVtDSDJdW0NIMl0y

> <s_epik_cmdline>
J2VwaWtfcHl0aG9uJywgJy1waCcsICc3LjAnLCAnLXRuJywgJzgnLCAnLW1hJywgJzIwMCcsICctbWV0YWxfYmluZGluZycsICctaW1hZScsICc8aW5maWxlLm1hZT4nLCAnLW9tYWUnLCAnPG91dGZpbGUubWFlPic=

> <r_lp_tautomer_probability>
1

> <r_epik_Ionization_Penalty>
0.000301761

> <r_epik_Ionization_Penalty_Charging>
0

> <r_epik_Ionization_Penalty_Neutral>
0.000301761

> <r_epik_State_Penalty>
-0

> <r_epik_Charging_Adjusted_Penalty>
0

> <i_epik_Tot_Q>
0

> <i_epik_Tot_abs_Q>
0

> <r_epik_Metal_State_Penalty>
-0

> <b_epik_Metal_Only>
0

> <s_lp_Force_Field>
OPLS_2005

> <r_lp_Energy>
16.2902

> <b_lp_Chiralities_Consistent>
1

> <s_lp_Variant>
AV-unprocessed.smi:1286-2

> <Gold.Version>
5.8.1

> <Gold.Id.Protein>
6NUR|6NUR_protein|mol2

> <Gold.PLP.Fitness>
44.8927

> <Gold.PLP.PLP>
-39.8684

> <Gold.PLP.part.hbond>
-2.0000

> <Gold.PLP.part.metal>
0.0000

> <Gold.PLP.part.buried>
-1.0573

> <Gold.PLP.part.nonpolar>
-35.6281

> <Gold.PLP.part.repulsive>
0.2067

> <Gold.PLP.ligand.clash>
0.0000

> <Gold.PLP.ligand.torsion>
1.7625

> <Gold.PLP.Chemscore.Hbond>
1.8400

> <Gold.PLP.Chemscore.CHOScore>
1.0000

> <Gold.PLP.Chemscore.Metal>
0.0000

> <Gold.Chemscore.Hbonds>
donor molecule, donor type, donor heavy atom, donor atom, acceptor molecule, acceptor atom, score
      P1  H  7989  7998       L1     8  0.82
      P1  H  7997  8009       L1    11  1.00
      L1  C     7    26       P1  8028  1.00

> <Gold.PLP.Chemscore.Internal.Correction>
0.0293

> <Gold.Rescore>
     Score         DG    S(hbond)    S(metal)    S(lipo)     H(rot)  DE(clash)    DE(int)     intcor
     15.79     -18.86       1.64        0.00     103.53       1.64       0.01       3.06       ----

> <Gold.Chemscore.Fitness>
15.7884

> <Gold.Chemscore.DG>
-18.8597

> <Gold.Chemscore.ZeroCoef>
-5.4800

> <Gold.Chemscore.Hbond>
1.6357

> <Gold.Chemscore.Metal>
0.0000

> <Gold.Chemscore.Lipo>
103.5326

> <Gold.Chemscore.Internal_Hbond>
0.0000

> <Gold.Chemscore.DEClash>
0.0088

> <Gold.Chemscore.DEInternal>
3.0625

> <Gold.Chemscore.Rot>
1.6394

> <Gold.Chemscore.Internal.Correction>
   9.000000E+99

> <Gold.Chemscore.Hbonds>
donor molecule, donor type, donor heavy atom, donor atom, acceptor molecule, acceptor atom, score
      P1  H  7989  7998       L1     8  0.16
      P1  H  7997  8009       L1    11  0.81

> <Gold.Chemscore.Hbond.Weighted>
-5.4633

> <Gold.Chemscore.Metal.Weighted>
-0.0000

> <Gold.Chemscore.Lipo.Weighted>
-12.1133

> <Gold.Chemscore.Internal_Hbond.Weighted>
0.0000

> <Gold.Chemscore.DEClash.Weighted>
0.0088

> <Gold.Chemscore.DEInternal.Weighted>
3.0625

> <Gold.Chemscore.Rot.Weighted>
4.1969

> <Gold.Chemscore.Internal.Correction.Weighted>
   9.000000E+99

> <Gold.Protein.RotatedTorsions>
[ 6907 6896 6895 6894 ] final   65.76 input  -60.11 | X-H torsion
[ 7974 7965 7964 7962 ] final  109.42 input  175.53 | X-H torsion
[ 8008 7997 7996 7995 ] final  170.92 input   59.86 | X-H torsion
[ 10167 10162 10161 10158 ] final -172.11 input  -65.29 | X-H torsion
[ 10718 10713 10712 10709 ] final   87.96 input   66.30 | X-H torsion
[ 10763 10752 10751 10750 ] final  -55.69 input  -60.55 | X-H torsion
[ 11005 11000 10999 10996 ] final  -25.97 input  -57.11 | X-H torsion

> <Gold.Protein.ActiveResidues>
 VAL166  LYS551  ARG553  GLY616  TRP617  ASP618  TYR619  PRO620  LYS621  CYS622 
 ASP623  PHE694  ASN695  SER759  ASP760  ASP761  ALA762  ILE779  LEU786  VAL792 
 PHE793  MET794  SER795  GLU796  ALA797  LYS798  CYS799  TRP800  GLU811  SER814 

> <Gold.Protein.RotatedAtoms>
  152.4432  134.5549  159.9877 H   0  0  0  0  0  0  0  0  0  0  0  0  # atno 6907 bound_to 6896
  151.5641  133.3393  159.2984 H   0  0  0  0  0  0  0  0  0  0  0  0  # atno 6908 bound_to 6896
  150.8342  134.7641  159.6943 H   0  0  0  0  0  0  0  0  0  0  0  0  # atno 6909 bound_to 6896
  145.2681  139.2677  143.3981 H   0  0  0  0  0  0  0  0  0  0  0  0  # atno 7974 bound_to 7965
  156.1320  140.1525  156.9051 H   0  0  0  0  0  0  0  0  0  0  0  0  # atno 8008 bound_to 7997
  154.4917  140.0849  156.7648 H   0  0  0  0  0  0  0  0  0  0  0  0  # atno 8009 bound_to 7997
  155.4238  140.3424  155.4276 H   0  0  0  0  0  0  0  0  0  0  0  0  # atno 8010 bound_to 7997
  139.5763  144.1525  152.1455 H   0  0  0  0  0  0  0  0  0  0  0  0  # atno 10167 bound_to 10162
  157.6945  131.0276  150.3202 H   0  0  0  0  0  0  0  0  0  0  0  0  # atno 10718 bound_to 10713
  154.1947  135.6421  153.5070 H   0  0  0  0  0  0  0  0  0  0  0  0  # atno 10763 bound_to 10752
  153.0026  135.5437  154.6378 H   0  0  0  0  0  0  0  0  0  0  0  0  # atno 10764 bound_to 10752
  154.5776  135.2922  155.0738 H   0  0  0  0  0  0  0  0  0  0  0  0  # atno 10765 bound_to 10752
  140.8986  133.7539  156.0514 H   0  0  0  0  0  0  0  0  0  0  0  0  # atno 11005 bound_to 11000
  146.3255  140.3116  142.8627 LP  0  0  0  0  0  0  0  0  0  0  0  0  # atno 17320 bound_to 7965
  144.9359  140.8026  143.5660 LP  0  0  0  0  0  0  0  0  0  0  0  0  # atno 17321 bound_to 7965
  140.1068  144.5492  150.6951 LP  0  0  0  0  0  0  0  0  0  0  0  0  # atno 17342 bound_to 10162
  140.7045  143.2458  151.4766 LP  0  0  0  0  0  0  0  0  0  0  0  0  # atno 17343 bound_to 10162
  156.3691  130.3860  149.7190 LP  0  0  0  0  0  0  0  0  0  0  0  0  # atno 17370 bound_to 10713
  156.4610  130.7952  151.2972 LP  0  0  0  0  0  0  0  0  0  0  0  0  # atno 17371 bound_to 10713
  140.8258  134.3236  157.5366 LP  0  0  0  0  0  0  0  0  0  0  0  0  # atno 17394 bound_to 11000
  139.8739  134.9335  156.3582 LP  0  0  0  0  0  0  0  0  0  0  0  0  # atno 17395 bound_to 11000

$$$$
