AV-unprocessed.smi:111|AV-procd|sdf|1082|dock1
  -GOLD-   2262018173D 1   1.00000     0.00000
 Structure written by MMmdl.
 46 48  0  0  0  0  0  0  0  0  1 V2000
  152.9423  136.4434  159.3782 O   0  0  0  0  0  0  0  0  0  0  0  0
  153.5861  136.1563  160.3889 C   0  0  0  0  0  0  0  0  0  0  0  0
  154.0726  134.8125  160.6750 C   0  0  0  0  0  0  0  0  0  0  0  0
  153.8706  133.8287  159.7820 F   0  0  0  0  0  0  0  0  0  0  0  0
  154.7393  134.5405  161.8172 C   0  0  0  0  0  0  0  0  0  0  0  0
  154.9863  135.4880  162.7981 N   0  0  0  0  0  0  0  0  0  0  0  0
  155.8126  135.1647  164.0266 C   0  0  1  0  0  0  0  0  0  0  0  0
  155.0739  135.3808  165.3593 C   0  0  0  0  0  0  0  0  0  0  0  0
  154.7627  133.9611  165.7917 C   0  0  0  0  0  0  0  0  0  0  0  0
  155.9425  133.1958  165.2049 C   0  0  0  0  0  0  0  0  0  0  0  0
  156.1719  133.8174  163.9469 O   0  0  0  0  0  0  0  0  0  0  0  0
  154.6207  136.8341  162.5655 C   0  0  0  0  0  0  0  0  0  0  0  0
  154.8956  137.7141  163.3847 O   0  0  0  0  0  0  0  0  0  0  0  0
  153.9144  137.1217  161.3709 N   0  0  0  0  0  0  0  0  0  0  0  0
  153.4769  138.4909  161.1287 C   0  0  0  0  0  0  0  0  0  0  0  0
  154.6035  139.5558  161.0475 C   0  0  1  0  0  0  0  0  0  0  0  0
  155.7104  138.9957  160.3695 O   0  0  0  0  0  0  0  0  0  0  0  0
  154.2204  140.9121  160.4179 C   0  0  0  0  0  0  0  0  0  0  0  0
  153.0607  141.6174  161.1396 C   0  0  0  0  0  0  0  0  0  0  0  0
  152.4751  142.7428  160.3082 C   0  0  0  0  0  0  0  0  0  0  0  0
  152.2873  144.0197  160.8781 C   0  0  0  0  0  0  0  0  0  0  0  0
  151.7492  145.0673  160.1055 C   0  0  0  0  0  0  0  0  0  0  0  0
  151.3978  144.8422  158.7603 C   0  0  0  0  0  0  0  0  0  0  0  0
  151.5853  143.5691  158.1876 C   0  0  0  0  0  0  0  0  0  0  0  0
  152.1235  142.5210  158.9598 C   0  0  0  0  0  0  0  0  0  0  0  0
  155.0923  133.5302  161.9484 H   0  0  0  0  0  0  0  0  0  0  0  0
  156.6943  135.8055  163.9786 H   0  0  0  0  0  0  0  0  0  0  0  0
  155.7726  135.8347  166.0631 H   0  0  0  0  0  0  0  0  0  0  0  0
  154.2092  136.0391  165.2765 H   0  0  0  0  0  0  0  0  0  0  0  0
  154.6812  133.8525  166.8737 H   0  0  0  0  0  0  0  0  0  0  0  0
  153.8314  133.6145  165.3437 H   0  0  0  0  0  0  0  0  0  0  0  0
  156.8280  133.3170  165.8305 H   0  0  0  0  0  0  0  0  0  0  0  0
  155.7429  132.1298  165.0954 H   0  0  0  0  0  0  0  0  0  0  0  0
  152.9026  138.4913  160.2018 H   0  0  0  0  0  0  0  0  0  0  0  0
  152.7295  138.7337  161.8874 H   0  0  0  0  0  0  0  0  0  0  0  0
  154.9467  139.7392  162.0663 H   0  0  0  0  0  0  0  0  0  0  0  0
  155.3932  138.5323  159.6088 H   0  0  0  0  0  0  0  0  0  0  0  0
  155.0873  141.5737  160.3914 H   0  0  0  0  0  0  0  0  0  0  0  0
  153.9227  140.7487  159.3819 H   0  0  0  0  0  0  0  0  0  0  0  0
  152.2739  140.8992  161.3744 H   0  0  0  0  0  0  0  0  0  0  0  0
  153.3988  142.0252  162.0931 H   0  0  0  0  0  0  0  0  0  0  0  0
  152.5581  144.1989  161.9085 H   0  0  0  0  0  0  0  0  0  0  0  0
  151.6067  146.0437  160.5445 H   0  0  0  0  0  0  0  0  0  0  0  0
  150.9855  145.6458  158.1679 H   0  0  0  0  0  0  0  0  0  0  0  0
  151.3170  143.3965  157.1557 H   0  0  0  0  0  0  0  0  0  0  0  0
  152.2672  141.5480  158.5133 H   0  0  0  0  0  0  0  0  0  0  0  0
  1  2  2  0  0  0  0
  2 14  1  0  0  0  0
  2  3  1  0  0  0  0
  3  4  1  0  0  0  0
  3  5  2  0  0  0  0
  5  6  1  0  0  0  0
  5 26  1  0  0  0  0
  6  7  1  0  0  0  0
  6 12  1  0  0  0  0
  7 11  1  0  0  0  0
  7  8  1  0  0  0  0
  7 27  1  0  0  0  0
  8  9  1  0  0  0  0
  8 28  1  0  0  0  0
  8 29  1  0  0  0  0
  9 10  1  0  0  0  0
  9 30  1  0  0  0  0
  9 31  1  0  0  0  0
 10 11  1  0  0  0  0
 10 32  1  0  0  0  0
 10 33  1  0  0  0  0
 12 13  2  0  0  0  0
 12 14  1  0  0  0  0
 14 15  1  0  0  0  0
 15 16  1  0  0  0  0
 15 34  1  0  0  0  0
 15 35  1  0  0  0  0
 16 17  1  0  0  0  0
 16 18  1  0  0  0  0
 16 36  1  0  0  0  0
 17 37  1  0  0  0  0
 18 19  1  0  0  0  0
 18 38  1  0  0  0  0
 18 39  1  0  0  0  0
 19 20  1  0  0  0  0
 19 40  1  0  0  0  0
 19 41  1  0  0  0  0
 20 25  1  0  0  0  0
 20 21  2  0  0  0  0
 21 22  1  0  0  0  0
 21 42  1  0  0  0  0
 22 23  2  0  0  0  0
 22 43  1  0  0  0  0
 23 24  1  0  0  0  0
 23 44  1  0  0  0  0
 24 25  2  0  0  0  0
 24 45  1  0  0  0  0
 25 46  1  0  0  0  0
M  END
> <s_m_source_file>
AV-unprocessed.smi

> <i_m_source_file_index>
111

> <i_lp_mmshare_version>
43012

> <i_f3d_flags>
0

> <s_epik_input>
TzFbQ0gyXVtDSDJdW0NIMl1bQ0BIXTFuKFtjSF1jKEYpYzI9TyljKD1PKW4yW0NIMl1bQ0BIXShbT0hdKVtDSDJdW0NIMl1jM1tjSF1bY0hdW2NIXVtjSF1bY0hdMw==

> <s_epik_cmdline>
J2VwaWtfcHl0aG9uJywgJy1waCcsICc3LjAnLCAnLXRuJywgJzgnLCAnLW1hJywgJzIwMCcsICctbWV0YWxfYmluZGluZycsICctaW1hZScsICc8aW5maWxlLm1hZT4nLCAnLW9tYWUnLCAnPG91dGZpbGUubWFlPic=

> <r_lp_tautomer_probability>
1

> <r_epik_Ionization_Penalty>
1.88248e-07

> <r_epik_Ionization_Penalty_Charging>
4.03974e-08

> <r_epik_Ionization_Penalty_Neutral>
1.47851e-07

> <r_epik_State_Penalty>
-0

> <r_epik_Charging_Adjusted_Penalty>
4.03974e-08

> <i_epik_Tot_Q>
0

> <i_epik_Tot_abs_Q>
0

> <r_epik_Metal_State_Penalty>
-0

> <b_epik_Metal_Only>
0

> <s_epik_Chemistry_Notes>
This compound contains an acetal/aminal-like group ( X-CH(R)-Y where X, Y are N, S, or O) that may be acid/base labile, releasing an aldehyde.

> <s_lp_Force_Field>
OPLS_2005

> <r_lp_Energy>
37.7752

> <b_lp_Chiralities_Consistent>
1

> <s_lp_Variant>
AV-unprocessed.smi:111-4

> <Gold.Version>
5.8.1

> <Gold.Id.Protein>
6NUR|6NUR_protein|mol2

> <Gold.PLP.Fitness>
51.5072

> <Gold.PLP.PLP>
-51.9831

> <Gold.PLP.part.hbond>
0.0000

> <Gold.PLP.part.metal>
0.0000

> <Gold.PLP.part.buried>
-5.4578

> <Gold.PLP.part.nonpolar>
-46.6578

> <Gold.PLP.part.repulsive>
0.0000

> <Gold.PLP.ligand.clash>
0.0000

> <Gold.PLP.ligand.torsion>
0.3802

> <Gold.PLP.Chemscore.Hbond>
0.0000

> <Gold.PLP.Chemscore.CHOScore>
0.0000

> <Gold.PLP.Chemscore.Metal>
0.0000

> <Gold.Chemscore.Hbonds>
donor molecule, donor type, donor heavy atom, donor atom, acceptor molecule, acceptor atom, score
      P1  H  6896  6909       L1     1  0.05

> <Gold.PLP.Chemscore.Internal.Correction>
0.2845

> <Gold.Rescore>
     Score         DG    S(hbond)    S(metal)    S(lipo)     H(rot)  DE(clash)    DE(int)     intcor
     14.32     -14.82       0.00        0.00     138.34       2.67       0.06       0.44       ----

> <Gold.Chemscore.Fitness>
14.3203

> <Gold.Chemscore.DG>
-14.8195

> <Gold.Chemscore.ZeroCoef>
-5.4800

> <Gold.Chemscore.Hbond>
0.0000

> <Gold.Chemscore.Metal>
0.0000

> <Gold.Chemscore.Lipo>
138.3397

> <Gold.Chemscore.Internal_Hbond>
0.0000

> <Gold.Chemscore.DEClash>
0.0560

> <Gold.Chemscore.DEInternal>
0.4432

> <Gold.Chemscore.Rot>
2.6743

> <Gold.Chemscore.Internal.Correction>
   9.000000E+99

> <Gold.Chemscore.Hbonds>
donor molecule, donor type, donor heavy atom, donor atom, acceptor molecule, acceptor atom, score
      P1  H  6896  6909       L1     1  0.01

> <Gold.Chemscore.Hbond.Weighted>
-0.0000

> <Gold.Chemscore.Metal.Weighted>
-0.0000

> <Gold.Chemscore.Lipo.Weighted>
-16.1857

> <Gold.Chemscore.Internal_Hbond.Weighted>
0.0000

> <Gold.Chemscore.DEClash.Weighted>
0.0560

> <Gold.Chemscore.DEInternal.Weighted>
0.4432

> <Gold.Chemscore.Rot.Weighted>
6.8463

> <Gold.Chemscore.Internal.Correction.Weighted>
   9.000000E+99

> <Gold.Protein.RotatedTorsions>
[ 6907 6896 6895 6894 ] final   94.35 input  -60.11 | X-H torsion
[ 7974 7965 7964 7962 ] final -177.91 input  175.53 | X-H torsion
[ 8008 7997 7996 7995 ] final  -30.26 input   59.86 | X-H torsion
[ 10167 10162 10161 10158 ] final -168.70 input  -65.29 | X-H torsion
[ 10718 10713 10712 10709 ] final  120.42 input   66.30 | X-H torsion
[ 10763 10752 10751 10750 ] final  153.46 input  -60.55 | X-H torsion
[ 11005 11000 10999 10996 ] final   32.73 input  -57.11 | X-H torsion

> <Gold.Protein.ActiveResidues>
 VAL166  LYS551  ARG553  GLY616  TRP617  ASP618  TYR619  PRO620  LYS621  CYS622 
 ASP623  PHE694  ASN695  SER759  ASP760  ASP761  ALA762  ILE779  LEU786  VAL792 
 PHE793  MET794  SER795  GLU796  ALA797  LYS798  CYS799  TRP800  GLU811  SER814 

> <Gold.Protein.RotatedAtoms>
  152.5450  134.1207  159.8397 H   0  0  0  0  0  0  0  0  0  0  0  0  # atno 6907 bound_to 6896
  151.1263  133.5061  159.2608 H   0  0  0  0  0  0  0  0  0  0  0  0  # atno 6908 bound_to 6896
  151.1724  135.0334  159.8812 H   0  0  0  0  0  0  0  0  0  0  0  0  # atno 6909 bound_to 6896
  144.7129  140.0948  143.6419 H   0  0  0  0  0  0  0  0  0  0  0  0  # atno 7974 bound_to 7965
  154.4257  140.1796  156.1379 H   0  0  0  0  0  0  0  0  0  0  0  0  # atno 8008 bound_to 7997
  156.0015  140.3359  155.6826 H   0  0  0  0  0  0  0  0  0  0  0  0  # atno 8009 bound_to 7997
  155.6235  140.0662  157.2661 H   0  0  0  0  0  0  0  0  0  0  0  0  # atno 8010 bound_to 7997
  139.5969  144.1094  152.1699 H   0  0  0  0  0  0  0  0  0  0  0  0  # atno 10167 bound_to 10162
  157.5892  131.1066  150.8033 H   0  0  0  0  0  0  0  0  0  0  0  0  # atno 10718 bound_to 10713
  154.1366  135.2823  155.3171 H   0  0  0  0  0  0  0  0  0  0  0  0  # atno 10763 bound_to 10752
  154.6317  135.5433  153.7691 H   0  0  0  0  0  0  0  0  0  0  0  0  # atno 10764 bound_to 10752
  153.0264  135.6464  154.1515 H   0  0  0  0  0  0  0  0  0  0  0  0  # atno 10765 bound_to 10752
  140.2704  134.3088  155.7829 H   0  0  0  0  0  0  0  0  0  0  0  0  # atno 11005 bound_to 11000
  145.9589  139.2786  143.1167 LP  0  0  0  0  0  0  0  0  0  0  0  0  # atno 17320 bound_to 7965
  145.9242  140.9094  143.0389 LP  0  0  0  0  0  0  0  0  0  0  0  0  # atno 17321 bound_to 7965
  140.0681  144.5802  150.7212 LP  0  0  0  0  0  0  0  0  0  0  0  0  # atno 17342 bound_to 10162
  140.7219  143.2597  151.4251 LP  0  0  0  0  0  0  0  0  0  0  0  0  # atno 17343 bound_to 10162
  156.8459  130.5064  149.5316 LP  0  0  0  0  0  0  0  0  0  0  0  0  # atno 17370 bound_to 10713
  156.0944  130.5921  150.9789 LP  0  0  0  0  0  0  0  0  0  0  0  0  # atno 17371 bound_to 10713
  141.2178  133.7463  156.9326 LP  0  0  0  0  0  0  0  0  0  0  0  0  # atno 17394 bound_to 11000
  140.1378  134.9313  157.2426 LP  0  0  0  0  0  0  0  0  0  0  0  0  # atno 17395 bound_to 11000

$$$$
