AV-unprocessed.smi:634|AV-procd|sdf|3137|dock10
  -GOLD-   22720 0 63D 1   1.00000     0.00000
 Structure written by MMmdl.
 32 33  0  0  0  0  0  0  0  0  2 V2000
  143.6217  132.4062  149.8165 C   0  0  0  0  0  0  0  0  0  0  0  0
  144.6872  133.1069  150.5873 C   0  0  0  0  0  0  0  0  0  0  0  0
  145.8602  132.6858  151.1475 C   0  0  0  0  0  0  0  0  0  0  0  0
  146.3813  133.8712  151.7316 C   0  0  0  0  0  0  0  0  0  0  0  0
  147.6162  133.8504  152.4319 N   0  0  0  0  0  0  0  0  0  0  0  0
  148.1788  132.8400  153.1188 C   0  0  0  0  0  0  0  0  0  0  0  0
  147.5954  131.7563  153.2269 O   0  0  0  0  0  0  0  0  0  0  0  0
  149.3948  133.1815  153.6310 N   0  5  0  0  0  0  0  0  0  0  0  0
  149.7062  133.6346  154.9994 C   0  0  1  0  0  0  0  0  0  0  0  0
  150.6538  132.5798  155.6082 C   0  0  0  0  0  0  0  0  0  0  0  0
  150.4025  135.0228  155.0081 C   0  0  0  0  0  0  0  0  0  0  0  0
  150.3750  135.5990  156.4330 C   0  0  0  0  0  0  0  0  0  0  0  0
  148.8513  134.9425  157.2164 S   0  0  0  0  0  0  0  0  0  0  0  0
  149.2213  134.2000  158.4318 O   0  0  0  0  0  0  0  0  0  0  0  0
  147.8287  135.9993  157.2647 O   0  0  0  0  0  0  0  0  0  0  0  0
  148.4352  133.7616  155.8718 C   0  0  0  0  0  0  0  0  0  0  0  0
  145.5967  134.9220  151.5410 N   0  0  0  0  0  0  0  0  0  0  0  0
  144.5074  134.4375  150.8072 O   0  0  0  0  0  0  0  0  0  0  0  0
  143.7343  131.3244  149.8912 H   0  0  0  0  0  0  0  0  0  0  0  0
  143.6657  132.6800  148.7624 H   0  0  0  0  0  0  0  0  0  0  0  0
  142.6337  132.6694  150.1946 H   0  0  0  0  0  0  0  0  0  0  0  0
  146.2761  131.6892  151.1421 H   0  0  0  0  0  0  0  0  0  0  0  0
  148.1524  134.7047  152.3972 H   0  0  0  0  0  0  0  0  0  0  0  0
  150.9292  132.8199  156.6351 H   0  0  0  0  0  0  0  0  0  0  0  0
  151.5784  132.4981  155.0352 H   0  0  0  0  0  0  0  0  0  0  0  0
  150.1909  131.5921  155.6227 H   0  0  0  0  0  0  0  0  0  0  0  0
  151.4201  134.9737  154.6189 H   0  0  0  0  0  0  0  0  0  0  0  0
  149.8648  135.7216  154.3680 H   0  0  0  0  0  0  0  0  0  0  0  0
  151.2325  135.2616  157.0165 H   0  0  0  0  0  0  0  0  0  0  0  0
  150.3602  136.6889  156.4432 H   0  0  0  0  0  0  0  0  0  0  0  0
  147.5964  134.1907  155.3248 H   0  0  0  0  0  0  0  0  0  0  0  0
  148.1060  132.8127  156.2956 H   0  0  0  0  0  0  0  0  0  0  0  0
  1  2  1  0  0  0  0
  1 19  1  0  0  0  0
  1 20  1  0  0  0  0
  1 21  1  0  0  0  0
  2 18  1  0  0  0  0
  2  3  2  0  0  0  0
  3  4  1  0  0  0  0
  3 22  1  0  0  0  0
  4  5  1  0  0  0  0
  4 17  2  0  0  0  0
  5  6  1  0  0  0  0
  5 23  1  0  0  0  0
  6  7  2  0  0  0  0
  6  8  1  0  0  0  0
  8  9  1  0  0  0  0
  9 16  1  0  0  0  0
  9 10  1  0  0  0  0
  9 11  1  0  0  0  0
 10 24  1  0  0  0  0
 10 25  1  0  0  0  0
 10 26  1  0  0  0  0
 11 12  1  0  0  0  0
 11 27  1  0  0  0  0
 11 28  1  0  0  0  0
 12 13  1  0  0  0  0
 12 29  1  0  0  0  0
 12 30  1  0  0  0  0
 13 14  2  0  0  0  0
 13 15  2  0  0  0  0
 13 16  1  0  0  0  0
 16 31  1  0  0  0  0
 16 32  1  0  0  0  0
 17 18  1  0  0  0  0
M  CHG  1   8  -1
M  END
> <s_m_source_file>
AV-unprocessed.smi

> <i_m_source_file_index>
634

> <i_lp_mmshare_version>
43012

> <i_f3d_flags>
0

> <s_epik_input>
W0NIM11jMVtjSF1jKG5vMSlbTkhdQyg9TylbTkhdW0NAQF0yKFtDSDNdKVtDSDJdW0NIMl1TKD1PKSg9TylbQ0gyXTI=

> <s_epik_cmdline>
J2VwaWtfcHl0aG9uJywgJy1waCcsICc3LjAnLCAnLXRuJywgJzgnLCAnLW1hJywgJzIwMCcsICctbWV0YWxfYmluZGluZycsICctaW1hZScsICc8aW5maWxlLm1hZT4nLCAnLW9tYWUnLCAnPG91dGZpbGUubWFlPic=

> <r_lp_tautomer_probability>
1

> <r_epik_Ionization_Penalty>
6.62388

> <r_epik_Ionization_Penalty_Charging>
6.62387

> <r_epik_Ionization_Penalty_Neutral>
5.45748e-06

> <r_epik_State_Penalty>
6.65157

> <r_epik_Charging_Adjusted_Penalty>
13.2754

> <i_epik_Tot_Q>
-1

> <i_epik_Tot_abs_Q>
1

> <r_epik_Metal_State_Penalty>
2.59195

> <b_epik_Metal_Only>
1

> <s_lp_Force_Field>
OPLS_2005

> <r_lp_Energy>
8.12985

> <b_lp_Chiralities_Consistent>
1

> <s_lp_Variant>
AV-unprocessed.smi:634-5

> <Gold.Version>
5.8.1

> <Gold.Id.Protein>
6NUR|6NUR_protein|mol2

> <Gold.PLP.Fitness>
30.1066

> <Gold.PLP.PLP>
-25.9650

> <Gold.PLP.part.hbond>
-2.0000

> <Gold.PLP.part.metal>
0.0000

> <Gold.PLP.part.buried>
-3.9649

> <Gold.PLP.part.nonpolar>
-19.4507

> <Gold.PLP.part.repulsive>
0.6873

> <Gold.PLP.ligand.clash>
0.0000

> <Gold.PLP.ligand.torsion>
0.9309

> <Gold.PLP.Chemscore.Hbond>
2.0000

> <Gold.PLP.Chemscore.CHOScore>
0.0000

> <Gold.PLP.Chemscore.Metal>
0.0000

> <Gold.Chemscore.Hbonds>
donor molecule, donor type, donor heavy atom, donor atom, acceptor molecule, acceptor atom, score
      L1  H     5    23       P1  7948  1.00
      P1  H  6896  6907       L1    14  1.00

> <Gold.PLP.Chemscore.Internal.Correction>
0.0034

> <Gold.Rescore>
     Score         DG    S(hbond)    S(metal)    S(lipo)     H(rot)  DE(clash)    DE(int)     intcor
     12.72     -15.00       1.85        0.00      50.28       1.00       0.03       2.24       ----

> <Gold.Chemscore.Fitness>
12.7223

> <Gold.Chemscore.DG>
-14.9970

> <Gold.Chemscore.ZeroCoef>
-5.4800

> <Gold.Chemscore.Hbond>
1.8547

> <Gold.Chemscore.Metal>
0.0000

> <Gold.Chemscore.Lipo>
50.2762

> <Gold.Chemscore.Internal_Hbond>
0.0000

> <Gold.Chemscore.DEClash>
0.0321

> <Gold.Chemscore.DEInternal>
2.2426

> <Gold.Chemscore.Rot>
1.0000

> <Gold.Chemscore.Internal.Correction>
   9.000000E+99

> <Gold.Chemscore.Hbonds>
donor molecule, donor type, donor heavy atom, donor atom, acceptor molecule, acceptor atom, score
      L1  H     5    23       P1  7948  0.40
      P1  H  6896  6907       L1    14  1.00

> <Gold.Chemscore.Hbond.Weighted>
-6.1947

> <Gold.Chemscore.Metal.Weighted>
-0.0000

> <Gold.Chemscore.Lipo.Weighted>
-5.8823

> <Gold.Chemscore.Internal_Hbond.Weighted>
0.0000

> <Gold.Chemscore.DEClash.Weighted>
0.0321

> <Gold.Chemscore.DEInternal.Weighted>
2.2426

> <Gold.Chemscore.Rot.Weighted>
2.5600

> <Gold.Chemscore.Internal.Correction.Weighted>
   9.000000E+99

> <Gold.Protein.RotatedTorsions>
[ 6907 6896 6895 6894 ] final  -93.76 input  -60.11 | X-H torsion
[ 7974 7965 7964 7962 ] final   33.36 input  175.53 | X-H torsion
[ 8008 7997 7996 7995 ] final  -55.58 input   59.86 | X-H torsion
[ 10167 10162 10161 10158 ] final  -12.93 input  -65.29 | X-H torsion
[ 10718 10713 10712 10709 ] final   25.62 input   66.30 | X-H torsion
[ 10763 10752 10751 10750 ] final  175.69 input  -60.55 | X-H torsion
[ 11005 11000 10999 10996 ] final  -82.70 input  -57.11 | X-H torsion

> <Gold.Protein.ActiveResidues>
 VAL166  LYS551  ARG553  GLY616  TRP617  ASP618  TYR619  PRO620  LYS621  CYS622 
 ASP623  PHE694  ASN695  SER759  ASP760  ASP761  ALA762  ILE779  LEU786  VAL792 
 PHE793  MET794  SER795  GLU796  ALA797  LYS798  CYS799  TRP800  GLU811  SER814 

> <Gold.Protein.RotatedAtoms>
  150.6928  134.1917  159.4287 H   0  0  0  0  0  0  0  0  0  0  0  0  # atno 6907 bound_to 6896
  151.9887  134.9988  160.0570 H   0  0  0  0  0  0  0  0  0  0  0  0  # atno 6908 bound_to 6896
  152.1688  133.4594  159.4935 H   0  0  0  0  0  0  0  0  0  0  0  0  # atno 6909 bound_to 6896
  146.1425  139.6406  142.9153 H   0  0  0  0  0  0  0  0  0  0  0  0  # atno 7974 bound_to 7965
  154.4200  140.1149  156.5499 H   0  0  0  0  0  0  0  0  0  0  0  0  # atno 8008 bound_to 7997
  155.6420  140.3496  155.4699 H   0  0  0  0  0  0  0  0  0  0  0  0  # atno 8009 bound_to 7997
  155.9863  140.1170  157.0670 H   0  0  0  0  0  0  0  0  0  0  0  0  # atno 8010 bound_to 7997
  140.7171  143.5480  150.9333 H   0  0  0  0  0  0  0  0  0  0  0  0  # atno 10167 bound_to 10162
  157.1957  130.6867  149.6168 H   0  0  0  0  0  0  0  0  0  0  0  0  # atno 10718 bound_to 10713
  154.4711  135.2771  155.1642 H   0  0  0  0  0  0  0  0  0  0  0  0  # atno 10763 bound_to 10752
  154.3391  135.6174  153.5591 H   0  0  0  0  0  0  0  0  0  0  0  0  # atno 10764 bound_to 10752
  152.9864  135.5784  154.5092 H   0  0  0  0  0  0  0  0  0  0  0  0  # atno 10765 bound_to 10752
  141.1662  133.7257  156.8611 H   0  0  0  0  0  0  0  0  0  0  0  0  # atno 11005 bound_to 11000
  145.5013  141.0437  143.2539 LP  0  0  0  0  0  0  0  0  0  0  0  0  # atno 17320 bound_to 7965
  144.7809  139.6528  143.7155 LP  0  0  0  0  0  0  0  0  0  0  0  0  # atno 17321 bound_to 7965
  139.9204  143.6613  152.3098 LP  0  0  0  0  0  0  0  0  0  0  0  0  # atno 17342 bound_to 10162
  139.7027  144.7632  151.1245 LP  0  0  0  0  0  0  0  0  0  0  0  0  # atno 17343 bound_to 10162
  155.9706  130.4599  150.6054 LP  0  0  0  0  0  0  0  0  0  0  0  0  # atno 17370 bound_to 10713
  157.3816  131.0782  151.1472 LP  0  0  0  0  0  0  0  0  0  0  0  0  # atno 17371 bound_to 10713
  140.1848  134.9008  157.2991 LP  0  0  0  0  0  0  0  0  0  0  0  0  # atno 17394 bound_to 11000
  140.2355  134.3858  155.7503 LP  0  0  0  0  0  0  0  0  0  0  0  0  # atno 17395 bound_to 11000

$$$$
