AV-unprocessed.smi:264|AV-procd|sdf|2014|dock10
  -GOLD-   2262021213D 1   1.00000     0.00000
 Structure written by MMmdl.
 52 56  0  0  0  0  0  0  0  0  1 V2000
  153.3017  141.6758  159.4531 C   0  0  0  0  0  0  0  0  0  0  0  0
  152.0685  142.5734  159.6414 C   0  0  1  0  0  0  0  0  0  0  0  0
  152.5267  143.8516  160.0759 O   0  0  0  0  0  0  0  0  0  0  0  0
  151.6284  144.8432  159.6111 C   0  0  0  0  0  0  0  0  0  0  0  0
  151.3062  144.3573  158.2066 C   0  0  0  0  0  0  0  0  0  0  0  0
  151.1975  142.8446  158.3816 C   0  0  2  0  0  0  0  0  0  0  0  0
  149.8527  142.5442  158.7152 O   0  0  0  0  0  0  0  0  0  0  0  0
  151.5659  142.0439  157.1048 C   0  0  0  0  0  0  0  0  0  0  0  0
  151.2265  140.6312  157.1870 N   0  0  0  0  0  0  0  0  0  0  0  0
  151.1593  139.8638  158.3280 C   0  0  0  0  0  0  0  0  0  0  0  0
  150.8262  138.6160  158.1412 N   0  0  0  0  0  0  0  0  0  0  0  0
  150.6462  138.5147  156.7667 C   0  0  0  0  0  0  0  0  0  0  0  0
  150.2713  137.4560  155.8925 C   0  0  0  0  0  0  0  0  0  0  0  0
  150.0116  136.2001  156.3358 N   0  0  0  0  0  0  0  0  0  0  0  0
  149.4283  136.1292  157.6694 C   0  0  0  0  0  0  0  0  0  0  0  0
  148.8470  134.7295  157.9117 C   0  0  0  0  0  0  0  0  0  0  0  0
  149.8394  133.7319  157.6741 O   0  0  0  0  0  0  0  0  0  0  0  0
  150.4345  133.7631  156.3705 C   0  0  2  0  0  0  0  0  0  0  0  0
  149.4832  133.2610  155.2882 C   0  0  0  0  0  0  0  0  0  0  0  0
  149.5704  131.7522  155.4625 C   0  0  0  0  0  0  0  0  0  0  0  0
  150.9458  131.5203  155.7259 O   0  0  0  0  0  0  0  0  0  0  0  0
  151.5153  132.6697  156.3491 C   0  0  0  0  0  0  0  0  0  0  0  0
  151.0169  135.1676  156.1020 C   0  0  0  0  0  0  0  0  0  0  0  0
  150.1740  137.7447  154.5669 N   0  0  0  0  0  0  0  0  0  0  0  0
  150.4312  138.9790  154.1240 C   0  0  0  0  0  0  0  0  0  0  0  0
  150.7912  140.0576  154.8218 N   0  0  0  0  0  0  0  0  0  0  0  0
  150.8867  139.7764  156.1527 C   0  0  0  0  0  0  0  0  0  0  0  0
  153.0205  140.6728  159.1318 H   0  0  0  0  0  0  0  0  0  0  0  0
  153.8489  141.5749  160.3906 H   0  0  0  0  0  0  0  0  0  0  0  0
  153.9917  142.0906  158.7180 H   0  0  0  0  0  0  0  0  0  0  0  0
  151.4579  142.1526  160.4427 H   0  0  0  0  0  0  0  0  0  0  0  0
  150.7358  144.8592  160.2386 H   0  0  0  0  0  0  0  0  0  0  0  0
  152.0807  145.8349  159.6225 H   0  0  0  0  0  0  0  0  0  0  0  0
  150.4123  144.8197  157.7852 H   0  0  0  0  0  0  0  0  0  0  0  0
  152.1452  144.5997  157.5532 H   0  0  0  0  0  0  0  0  0  0  0  0
  149.6725  142.8916  159.5752 H   0  0  0  0  0  0  0  0  0  0  0  0
  151.0504  142.4531  156.2354 H   0  0  0  0  0  0  0  0  0  0  0  0
  152.6336  142.1272  156.8982 H   0  0  0  0  0  0  0  0  0  0  0  0
  151.3673  140.2607  159.3111 H   0  0  0  0  0  0  0  0  0  0  0  0
  150.2049  136.3417  158.4055 H   0  0  0  0  0  0  0  0  0  0  0  0
  148.6482  136.8770  157.8087 H   0  0  0  0  0  0  0  0  0  0  0  0
  148.5070  134.6432  158.9434 H   0  0  0  0  0  0  0  0  0  0  0  0
  147.9703  134.5635  157.2867 H   0  0  0  0  0  0  0  0  0  0  0  0
  148.4647  133.6388  155.3593 H   0  0  0  0  0  0  0  0  0  0  0  0
  149.8621  133.5309  154.3015 H   0  0  0  0  0  0  0  0  0  0  0  0
  148.9790  131.4284  156.3201 H   0  0  0  0  0  0  0  0  0  0  0  0
  149.2317  131.2034  154.5836 H   0  0  0  0  0  0  0  0  0  0  0  0
  152.3735  132.9764  155.7500 H   0  0  0  0  0  0  0  0  0  0  0  0
  151.8827  132.4322  157.3482 H   0  0  0  0  0  0  0  0  0  0  0  0
  151.3919  135.2280  155.0792 H   0  0  0  0  0  0  0  0  0  0  0  0
  151.8646  135.3464  156.7655 H   0  0  0  0  0  0  0  0  0  0  0  0
  150.3349  139.1226  153.0580 H   0  0  0  0  0  0  0  0  0  0  0  0
  1  2  1  0  0  0  0
  1 28  1  0  0  0  0
  1 29  1  0  0  0  0
  1 30  1  0  0  0  0
  2  6  1  0  0  0  0
  2  3  1  0  0  0  0
  2 31  1  0  0  0  0
  3  4  1  0  0  0  0
  4  5  1  0  0  0  0
  4 32  1  0  0  0  0
  4 33  1  0  0  0  0
  5  6  1  0  0  0  0
  5 34  1  0  0  0  0
  5 35  1  0  0  0  0
  6  7  1  0  0  0  0
  6  8  1  0  0  0  0
  7 36  1  0  0  0  0
  8  9  1  0  0  0  0
  8 37  1  0  0  0  0
  8 38  1  0  0  0  0
  9 27  1  0  0  0  0
  9 10  1  0  0  0  0
 10 11  2  0  0  0  0
 10 39  1  0  0  0  0
 11 12  1  0  0  0  0
 12 27  2  0  0  0  0
 12 13  1  0  0  0  0
 13 14  1  0  0  0  0
 13 24  2  0  0  0  0
 14 23  1  0  0  0  0
 14 15  1  0  0  0  0
 15 16  1  0  0  0  0
 15 40  1  0  0  0  0
 15 41  1  0  0  0  0
 16 17  1  0  0  0  0
 16 42  1  0  0  0  0
 16 43  1  0  0  0  0
 17 18  1  0  0  0  0
 18 22  1  0  0  0  0
 18 19  1  0  0  0  0
 18 23  1  0  0  0  0
 19 20  1  0  0  0  0
 19 44  1  0  0  0  0
 19 45  1  0  0  0  0
 20 21  1  0  0  0  0
 20 46  1  0  0  0  0
 20 47  1  0  0  0  0
 21 22  1  0  0  0  0
 22 48  1  0  0  0  0
 22 49  1  0  0  0  0
 23 50  1  0  0  0  0
 23 51  1  0  0  0  0
 24 25  1  0  0  0  0
 25 26  2  0  0  0  0
 25 52  1  0  0  0  0
 26 27  1  0  0  0  0
M  END
> <s_m_source_file>
AV-unprocessed.smi

> <i_m_source_file_index>
264

> <i_lp_mmshare_version>
43012

> <i_f3d_flags>
0

> <s_epik_input>
W0NIMl0xW0NIMl1PW0NAQEhdKFtDSDNdKVtDQEBdMShbT0hdKVtDSDJdbihbY0hdbjIpYyhjMjMpbltjSF1uYzNOKFtDSDJdNClbQ0gyXVtDSDJdT1tDQF00NVtDSDJdW0NIMl1PW0NIMl01

> <s_epik_cmdline>
J2VwaWtfcHl0aG9uJywgJy1waCcsICc3LjAnLCAnLXRuJywgJzgnLCAnLW1hJywgJzIwMCcsICctbWV0YWxfYmluZGluZycsICctaW1hZScsICc8aW5maWxlLm1hZT4nLCAnLW9tYWUnLCAnPG91dGZpbGUubWFlPic=

> <r_lp_tautomer_probability>
1

> <r_epik_Ionization_Penalty>
0.00539389

> <r_epik_Ionization_Penalty_Charging>
0

> <r_epik_Ionization_Penalty_Neutral>
0.00539389

> <r_epik_State_Penalty>
0.00375441

> <r_epik_Charging_Adjusted_Penalty>
0.00375441

> <i_epik_Tot_Q>
0

> <i_epik_Tot_abs_Q>
0

> <r_epik_Metal_State_Penalty>
-0

> <b_epik_Metal_Only>
0

> <s_lp_Force_Field>
OPLS_2005

> <r_lp_Energy>
54.0321

> <b_lp_Chiralities_Consistent>
1

> <s_lp_Variant>
AV-unprocessed.smi:264-8

> <Gold.Version>
5.8.1

> <Gold.Id.Protein>
6NUR|6NUR_protein|mol2

> <Gold.PLP.Fitness>
46.5767

> <Gold.PLP.PLP>
-39.7974

> <Gold.PLP.part.hbond>
-2.3199

> <Gold.PLP.part.metal>
0.0000

> <Gold.PLP.part.buried>
-7.2192

> <Gold.PLP.part.nonpolar>
-29.8611

> <Gold.PLP.part.repulsive>
0.3053

> <Gold.PLP.ligand.clash>
0.0000

> <Gold.PLP.ligand.torsion>
1.0259

> <Gold.PLP.Chemscore.Hbond>
1.8500

> <Gold.PLP.Chemscore.CHOScore>
1.0000

> <Gold.PLP.Chemscore.Metal>
0.0000

> <Gold.Chemscore.Hbonds>
donor molecule, donor type, donor heavy atom, donor atom, acceptor molecule, acceptor atom, score
      P1  H  6896  6909       L1    17  0.99
      P1  H  7989  7998       L1    26  0.80
      L1  C    25    52       P1  7957  1.00

> <Gold.PLP.Chemscore.Internal.Correction>
0.2811

> <Gold.Rescore>
     Score         DG    S(hbond)    S(metal)    S(lipo)     H(rot)  DE(clash)    DE(int)     intcor
     11.50     -16.42       1.62        0.00      93.35       2.11       1.42       3.51       ----

> <Gold.Chemscore.Fitness>
11.4954

> <Gold.Chemscore.DG>
-16.4243

> <Gold.Chemscore.ZeroCoef>
-5.4800

> <Gold.Chemscore.Hbond>
1.6211

> <Gold.Chemscore.Metal>
0.0000

> <Gold.Chemscore.Lipo>
93.3491

> <Gold.Chemscore.Internal_Hbond>
0.0000

> <Gold.Chemscore.DEClash>
1.4155

> <Gold.Chemscore.DEInternal>
3.5133

> <Gold.Chemscore.Rot>
2.1063

> <Gold.Chemscore.Internal.Correction>
   9.000000E+99

> <Gold.Chemscore.Hbonds>
donor molecule, donor type, donor heavy atom, donor atom, acceptor molecule, acceptor atom, score
      P1  H  6896  6909       L1    17  0.56
      P1  H  7989  7998       L1    26  0.12

> <Gold.Chemscore.Hbond.Weighted>
-5.4146

> <Gold.Chemscore.Metal.Weighted>
-0.0000

> <Gold.Chemscore.Lipo.Weighted>
-10.9218

> <Gold.Chemscore.Internal_Hbond.Weighted>
0.0000

> <Gold.Chemscore.DEClash.Weighted>
1.4155

> <Gold.Chemscore.DEInternal.Weighted>
3.5133

> <Gold.Chemscore.Rot.Weighted>
5.3921

> <Gold.Chemscore.Internal.Correction.Weighted>
   9.000000E+99

> <Gold.Protein.RotatedTorsions>
[ 6907 6896 6895 6894 ] final  -12.93 input  -60.11 | X-H torsion
[ 7974 7965 7964 7962 ] final  109.68 input  175.53 | X-H torsion
[ 8008 7997 7996 7995 ] final   13.70 input   59.86 | X-H torsion
[ 10167 10162 10161 10158 ] final   58.12 input  -65.29 | X-H torsion
[ 10718 10713 10712 10709 ] final  141.38 input   66.30 | X-H torsion
[ 10763 10752 10751 10750 ] final -165.55 input  -60.55 | X-H torsion
[ 11005 11000 10999 10996 ] final  -89.01 input  -57.11 | X-H torsion

> <Gold.Protein.ActiveResidues>
 VAL166  LYS551  ARG553  GLY616  TRP617  ASP618  TYR619  PRO620  LYS621  CYS622 
 ASP623  PHE694  ASN695  SER759  ASP760  ASP761  ALA762  ILE779  LEU786  VAL792 
 PHE793  MET794  SER795  GLU796  ALA797  LYS798  CYS799  TRP800  GLU811  SER814 

> <Gold.Protein.RotatedAtoms>
  151.3629  135.0907  159.9439 H   0  0  0  0  0  0  0  0  0  0  0  0  # atno 6907 bound_to 6896
  152.5157  133.9241  159.7559 H   0  0  0  0  0  0  0  0  0  0  0  0  # atno 6908 bound_to 6896
  150.9639  133.6362  159.2779 H   0  0  0  0  0  0  0  0  0  0  0  0  # atno 6909 bound_to 6896
  145.2647  139.2689  143.3998 H   0  0  0  0  0  0  0  0  0  0  0  0  # atno 7974 bound_to 7965
  154.8381  140.2910  155.5677 H   0  0  0  0  0  0  0  0  0  0  0  0  # atno 8008 bound_to 7997
  156.3010  140.2519  156.3250 H   0  0  0  0  0  0  0  0  0  0  0  0  # atno 8009 bound_to 7997
  154.9156  140.0387  157.1959 H   0  0  0  0  0  0  0  0  0  0  0  0  # atno 8010 bound_to 7997
  140.1906  144.4089  150.6573 H   0  0  0  0  0  0  0  0  0  0  0  0  # atno 10167 bound_to 10162
  157.3926  131.1006  151.0631 H   0  0  0  0  0  0  0  0  0  0  0  0  # atno 10718 bound_to 10713
  154.6921  135.2972  154.9465 H   0  0  0  0  0  0  0  0  0  0  0  0  # atno 10763 bound_to 10752
  154.0425  135.6655  153.4795 H   0  0  0  0  0  0  0  0  0  0  0  0  # atno 10764 bound_to 10752
  153.0619  135.5110  154.8018 H   0  0  0  0  0  0  0  0  0  0  0  0  # atno 10765 bound_to 10752
  141.1592  133.7604  156.9534 H   0  0  0  0  0  0  0  0  0  0  0  0  # atno 11005 bound_to 11000
  146.3264  140.3074  142.8624 LP  0  0  0  0  0  0  0  0  0  0  0  0  # atno 17320 bound_to 7965
  144.9387  140.8055  143.5644 LP  0  0  0  0  0  0  0  0  0  0  0  0  # atno 17321 bound_to 7965
  140.6458  143.2213  151.6188 LP  0  0  0  0  0  0  0  0  0  0  0  0  # atno 17342 bound_to 10162
  139.5257  144.3065  152.1029 LP  0  0  0  0  0  0  0  0  0  0  0  0  # atno 17343 bound_to 10162
  157.1659  130.6246  149.5625 LP  0  0  0  0  0  0  0  0  0  0  0  0  # atno 17370 bound_to 10713
  155.9802  130.4801  150.6760 LP  0  0  0  0  0  0  0  0  0  0  0  0  # atno 17371 bound_to 10713
  140.1242  134.9398  157.2246 LP  0  0  0  0  0  0  0  0  0  0  0  0  # atno 17394 bound_to 11000
  140.3034  134.3106  155.7284 LP  0  0  0  0  0  0  0  0  0  0  0  0  # atno 17395 bound_to 11000

$$$$
