AV-unprocessed.smi:630|AV-procd|sdf|3119|dock6
  -GOLD-   22720 0 43D 1   1.00000     0.00000
 Structure written by MMmdl.
 37 38  0  0  0  0  0  0  0  0  1 V2000
  148.3839  134.2048  153.7790 N   0  0  0  0  0  0  0  0  0  0  0  0
  147.2725  133.4772  153.9190 C   0  0  0  0  0  0  0  0  0  0  0  0
  147.0955  132.7418  154.8894 O   0  0  0  0  0  0  0  0  0  0  0  0
  146.1998  133.6067  152.8173 C   0  0  2  0  0  0  0  0  0  0  0  0
  146.7185  133.0756  151.4581 C   0  0  0  0  0  0  0  0  0  0  0  0
  145.6395  132.3029  150.6764 C   0  0  0  0  0  0  0  0  0  0  0  0
  144.5316  133.1773  150.0673 C   0  0  0  0  0  0  0  0  0  0  0  0
  143.7993  134.0941  151.0642 C   0  0  0  0  0  0  0  0  0  0  0  0
  144.6618  135.2848  151.5160 C   0  0  0  0  0  0  0  0  0  0  0  0
  145.5772  135.0333  152.7379 C   0  0  2  0  0  0  0  0  0  0  0  0
  146.5910  136.0907  152.7897 N   0  0  0  0  0  0  0  0  0  0  0  0
  146.4065  137.3272  153.2741 C   0  0  0  0  0  0  0  0  0  0  0  0
  145.3336  137.7270  153.7264 O   0  0  0  0  0  0  0  0  0  0  0  0
  147.5348  138.0510  153.1970 N   0  0  0  0  0  0  0  0  0  0  0  0
  147.7313  139.3958  153.5968 C   0  0  0  0  0  0  0  0  0  0  0  0
  146.7641  140.2855  153.3661 N   0  0  0  0  0  0  0  0  0  0  0  0
  147.1071  141.5628  153.8187 C   0  0  0  0  0  0  0  0  0  0  0  0
  148.3511  141.6283  154.3959 C   0  0  0  0  0  0  0  0  0  0  0  0
  149.1492  140.0788  154.3968 S   0  0  0  0  0  0  0  0  0  0  0  0
  149.1121  134.1452  154.4760 H   0  0  0  0  0  0  0  0  0  0  0  0
  148.4955  134.8077  152.9768 H   0  0  0  0  0  0  0  0  0  0  0  0
  145.3981  132.9351  153.1291 H   0  0  0  0  0  0  0  0  0  0  0  0
  147.1248  133.8860  150.8518 H   0  0  0  0  0  0  0  0  0  0  0  0
  147.5494  132.3863  151.6173 H   0  0  0  0  0  0  0  0  0  0  0  0
  146.1220  131.7557  149.8660 H   0  0  0  0  0  0  0  0  0  0  0  0
  145.1947  131.5404  151.3169 H   0  0  0  0  0  0  0  0  0  0  0  0
  144.9469  133.7778  149.2570 H   0  0  0  0  0  0  0  0  0  0  0  0
  143.8001  132.5194  149.5970 H   0  0  0  0  0  0  0  0  0  0  0  0
  142.9202  134.4926  150.5567 H   0  0  0  0  0  0  0  0  0  0  0  0
  143.4180  133.5328  151.9177 H   0  0  0  0  0  0  0  0  0  0  0  0
  145.2536  135.6337  150.6680 H   0  0  0  0  0  0  0  0  0  0  0  0
  144.0001  136.1173  151.7593 H   0  0  0  0  0  0  0  0  0  0  0  0
  144.9529  135.1266  153.6292 H   0  0  0  0  0  0  0  0  0  0  0  0
  147.5088  135.8506  152.4437 H   0  0  0  0  0  0  0  0  0  0  0  0
  148.3429  137.5906  152.8046 H   0  0  0  0  0  0  0  0  0  0  0  0
  146.4033  142.3714  153.6888 H   0  0  0  0  0  0  0  0  0  0  0  0
  148.8446  142.4905  154.8191 H   0  0  0  0  0  0  0  0  0  0  0  0
  1  2  1  0  0  0  0
  1 20  1  0  0  0  0
  1 21  1  0  0  0  0
  2  3  2  0  0  0  0
  2  4  1  0  0  0  0
  4 10  1  0  0  0  0
  4  5  1  0  0  0  0
  4 22  1  0  0  0  0
  5  6  1  0  0  0  0
  5 23  1  0  0  0  0
  5 24  1  0  0  0  0
  6  7  1  0  0  0  0
  6 25  1  0  0  0  0
  6 26  1  0  0  0  0
  7  8  1  0  0  0  0
  7 27  1  0  0  0  0
  7 28  1  0  0  0  0
  8  9  1  0  0  0  0
  8 29  1  0  0  0  0
  8 30  1  0  0  0  0
  9 10  1  0  0  0  0
  9 31  1  0  0  0  0
  9 32  1  0  0  0  0
 10 11  1  0  0  0  0
 10 33  1  0  0  0  0
 11 12  1  0  0  0  0
 11 34  1  0  0  0  0
 12 13  2  0  0  0  0
 12 14  1  0  0  0  0
 14 15  1  0  0  0  0
 14 35  1  0  0  0  0
 15 19  1  0  0  0  0
 15 16  2  0  0  0  0
 16 17  1  0  0  0  0
 17 18  2  0  0  0  0
 17 36  1  0  0  0  0
 18 19  1  0  0  0  0
 18 37  1  0  0  0  0
M  END
> <s_m_source_file>
AV-unprocessed.smi

> <i_m_source_file_index>
630

> <i_lp_mmshare_version>
43012

> <i_f3d_flags>
0

> <s_epik_input>
W05IMl1DKD1PKVtDQEBIXTFbQ0gyXVtDSDJdW0NIMl1bQ0gyXVtDSDJdW0NASF0xW05IXUMoPU8pW05IXWMybltjSF1bY0hdczI=

> <s_epik_cmdline>
J2VwaWtfcHl0aG9uJywgJy1waCcsICc3LjAnLCAnLXRuJywgJzgnLCAnLW1hJywgJzIwMCcsICctbWV0YWxfYmluZGluZycsICctaW1hZScsICc8aW5maWxlLm1hZT4nLCAnLW9tYWUnLCAnPG91dGZpbGUubWFlPic=

> <r_lp_tautomer_probability>
0.999

> <r_epik_Ionization_Penalty>
0.000342689

> <r_epik_Ionization_Penalty_Charging>
0

> <r_epik_Ionization_Penalty_Neutral>
0.000342689

> <r_epik_State_Penalty>
0.000177984

> <r_epik_Charging_Adjusted_Penalty>
0.000177984

> <i_epik_Tot_Q>
0

> <i_epik_Tot_abs_Q>
0

> <r_epik_Metal_State_Penalty>
0.00743087

> <b_epik_Metal_Only>
0

> <s_lp_Force_Field>
OPLS_2005

> <r_lp_Energy>
11.6017

> <b_lp_Chiralities_Consistent>
1

> <s_lp_Variant>
AV-unprocessed.smi:630-3

> <Gold.Version>
5.8.1

> <Gold.Id.Protein>
6NUR|6NUR_protein|mol2

> <Gold.PLP.Fitness>
39.6333

> <Gold.PLP.PLP>
-28.9742

> <Gold.PLP.part.hbond>
-2.9952

> <Gold.PLP.part.metal>
0.0000

> <Gold.PLP.part.buried>
-3.4721

> <Gold.PLP.part.nonpolar>
-23.7426

> <Gold.PLP.part.repulsive>
0.4118

> <Gold.PLP.ligand.clash>
0.0000

> <Gold.PLP.ligand.torsion>
0.6764

> <Gold.PLP.Chemscore.Hbond>
2.9600

> <Gold.PLP.Chemscore.CHOScore>
1.0000

> <Gold.PLP.Chemscore.Metal>
0.0000

> <Gold.Chemscore.Hbonds>
donor molecule, donor type, donor heavy atom, donor atom, acceptor molecule, acceptor atom, score
      L1  H     1    21       P1  7948  1.00
      L1  H    11    34       P1  7948  1.00
      L1  H    14    35       P1  7948  0.96
      L1  C    18    37       P1  8028  1.00

> <Gold.PLP.Chemscore.Internal.Correction>
0.1320

> <Gold.Rescore>
     Score         DG    S(hbond)    S(metal)    S(lipo)     H(rot)  DE(clash)    DE(int)     intcor
     14.85     -18.42       2.88        0.00      61.69       1.52       0.13       3.45       ----

> <Gold.Chemscore.Fitness>
14.8450

> <Gold.Chemscore.DG>
-18.4196

> <Gold.Chemscore.ZeroCoef>
-5.4800

> <Gold.Chemscore.Hbond>
2.8770

> <Gold.Chemscore.Metal>
0.0000

> <Gold.Chemscore.Lipo>
61.6877

> <Gold.Chemscore.Internal_Hbond>
0.0000

> <Gold.Chemscore.DEClash>
0.1288

> <Gold.Chemscore.DEInternal>
3.4457

> <Gold.Chemscore.Rot>
1.5184

> <Gold.Chemscore.Internal.Correction>
   9.000000E+99

> <Gold.Chemscore.Hbonds>
donor molecule, donor type, donor heavy atom, donor atom, acceptor molecule, acceptor atom, score
      L1  H     1    21       P1  7948  0.50
      L1  H    11    34       P1  7948  0.95
      L1  H    14    35       P1  7948  0.92

> <Gold.Chemscore.Hbond.Weighted>
-9.6093

> <Gold.Chemscore.Metal.Weighted>
-0.0000

> <Gold.Chemscore.Lipo.Weighted>
-7.2175

> <Gold.Chemscore.Internal_Hbond.Weighted>
0.0000

> <Gold.Chemscore.DEClash.Weighted>
0.1288

> <Gold.Chemscore.DEInternal.Weighted>
3.4457

> <Gold.Chemscore.Rot.Weighted>
3.8872

> <Gold.Chemscore.Internal.Correction.Weighted>
   9.000000E+99

> <Gold.Protein.RotatedTorsions>
[ 6907 6896 6895 6894 ] final  156.14 input  -60.11 | X-H torsion
[ 7974 7965 7964 7962 ] final  -65.34 input  175.53 | X-H torsion
[ 8008 7997 7996 7995 ] final -177.32 input   59.86 | X-H torsion
[ 10167 10162 10161 10158 ] final   74.06 input  -65.29 | X-H torsion
[ 10718 10713 10712 10709 ] final -137.53 input   66.30 | X-H torsion
[ 10763 10752 10751 10750 ] final  132.43 input  -60.55 | X-H torsion
[ 11005 11000 10999 10996 ] final  146.54 input  -57.11 | X-H torsion

> <Gold.Protein.ActiveResidues>
 VAL166  LYS551  ARG553  GLY616  TRP617  ASP618  TYR619  PRO620  LYS621  CYS622 
 ASP623  PHE694  ASN695  SER759  ASP760  ASP761  ALA762  ILE779  LEU786  VAL792 
 PHE793  MET794  SER795  GLU796  ALA797  LYS798  CYS799  TRP800  GLU811  SER814 

> <Gold.Protein.RotatedAtoms>
  152.0340  133.3949  159.4308 H   0  0  0  0  0  0  0  0  0  0  0  0  # atno 6907 bound_to 6896
  150.6880  134.3489  159.4909 H   0  0  0  0  0  0  0  0  0  0  0  0  # atno 6908 bound_to 6896
  152.1279  134.9157  160.0611 H   0  0  0  0  0  0  0  0  0  0  0  0  # atno 6909 bound_to 6896
  145.7555  140.8887  143.0457 H   0  0  0  0  0  0  0  0  0  0  0  0  # atno 7974 bound_to 7965
  156.0056  140.1229  157.0505 H   0  0  0  0  0  0  0  0  0  0  0  0  # atno 8008 bound_to 7997
  154.4257  140.1098  156.5826 H   0  0  0  0  0  0  0  0  0  0  0  0  # atno 8009 bound_to 7997
  155.6152  140.3472  155.4637 H   0  0  0  0  0  0  0  0  0  0  0  0  # atno 8010 bound_to 7997
  140.0178  144.5564  150.7606 H   0  0  0  0  0  0  0  0  0  0  0  0  # atno 10167 bound_to 10162
  156.2892  130.7365  151.1385 H   0  0  0  0  0  0  0  0  0  0  0  0  # atno 10718 bound_to 10713
  153.7906  135.3155  155.3378 H   0  0  0  0  0  0  0  0  0  0  0  0  # atno 10763 bound_to 10752
  154.8127  135.4656  154.0563 H   0  0  0  0  0  0  0  0  0  0  0  0  # atno 10764 bound_to 10752
  153.1879  135.6904  153.8477 H   0  0  0  0  0  0  0  0  0  0  0  0  # atno 10765 bound_to 10752
  140.0802  134.9102  157.1488 H   0  0  0  0  0  0  0  0  0  0  0  0  # atno 11005 bound_to 11000
  144.6841  139.9650  143.7481 LP  0  0  0  0  0  0  0  0  0  0  0  0  # atno 17320 bound_to 7965
  146.0315  139.3339  143.0752 LP  0  0  0  0  0  0  0  0  0  0  0  0  # atno 17321 bound_to 7965
  140.7355  143.2741  151.3795 LP  0  0  0  0  0  0  0  0  0  0  0  0  # atno 17342 bound_to 10162
  139.6161  144.1001  152.2346 LP  0  0  0  0  0  0  0  0  0  0  0  0  # atno 17343 bound_to 10162
  157.7337  131.0588  150.5561 LP  0  0  0  0  0  0  0  0  0  0  0  0  # atno 17370 bound_to 10713
  156.5676  130.4271  149.6034 LP  0  0  0  0  0  0  0  0  0  0  0  0  # atno 17371 bound_to 10713
  140.3499  134.2610  155.7200 LP  0  0  0  0  0  0  0  0  0  0  0  0  # atno 17394 bound_to 11000
  141.2044  133.7888  157.0290 LP  0  0  0  0  0  0  0  0  0  0  0  0  # atno 17395 bound_to 11000

$$$$
