AV-unprocessed.smi:3335|AV-procd|sdf|12841|dock2
  -GOLD-   2272019223D 1   1.00000     0.00000
 Structure written by MMmdl.
 47 48  0  0  0  0  0  0  0  0  2 V2000
  139.0667  138.3131  153.5890 C   0  0  0  0  0  0  0  0  0  0  0  0
  140.4273  137.6777  153.5754 C   0  0  0  0  0  0  0  0  0  0  0  0
  140.8269  136.4515  154.1770 C   0  0  0  0  0  0  0  0  0  0  0  0
  142.1061  136.1779  153.9817 N   0  0  0  0  0  0  0  0  0  0  0  0
  142.5701  137.2088  153.2397 N   0  0  0  0  0  0  0  0  0  0  0  0
  143.9762  137.2808  152.8465 C   0  0  2  0  0  0  0  0  0  0  0  0
  144.4202  136.0300  152.0622 C   0  0  0  0  0  0  0  0  0  0  0  0
  144.9171  137.6144  154.0360 C   0  0  2  0  0  0  0  0  0  0  0  0
  144.2283  137.5443  155.4161 C   0  0  0  0  0  0  0  0  0  0  0  0
  145.5249  138.9495  153.8125 N   0  3  0  0  0  0  0  0  0  0  0  0
  146.8671  138.9990  153.1876 C   0  0  1  0  0  0  0  0  0  0  0  0
  146.7671  138.9757  151.6483 C   0  0  0  0  0  0  0  0  0  0  0  0
  147.5931  140.2633  153.6839 C   0  0  0  0  0  0  0  0  0  0  0  0
  147.0776  141.3656  153.4933 O   0  0  0  0  0  0  0  0  0  0  0  0
  148.7658  140.1316  154.3416 N   0  0  0  0  0  0  0  0  0  0  0  0
  149.3936  138.8379  154.6063 C   0  0  0  0  0  0  0  0  0  0  0  0
  150.5547  139.1257  155.5576 C   0  0  0  0  0  0  0  0  0  0  0  0
  150.9206  140.5740  155.2674 C   0  0  0  0  0  0  0  0  0  0  0  0
  149.5955  141.2191  154.8615 C   0  0  0  0  0  0  0  0  0  0  0  0
  141.5741  138.1306  152.9881 C   0  0  0  0  0  0  0  0  0  0  0  0
  138.3520  137.7305  154.1709 H   0  0  0  0  0  0  0  0  0  0  0  0
  138.6582  138.4089  152.5830 H   0  0  0  0  0  0  0  0  0  0  0  0
  139.0934  139.3132  154.0221 H   0  0  0  0  0  0  0  0  0  0  0  0
  140.2293  135.7584  154.7508 H   0  0  0  0  0  0  0  0  0  0  0  0
  144.0515  138.1081  152.1387 H   0  0  0  0  0  0  0  0  0  0  0  0
  145.4446  136.1371  151.7043 H   0  0  0  0  0  0  0  0  0  0  0  0
  143.7853  135.8728  151.1896 H   0  0  0  0  0  0  0  0  0  0  0  0
  144.3764  135.1233  152.6653 H   0  0  0  0  0  0  0  0  0  0  0  0
  145.7176  136.8756  154.0203 H   0  0  0  0  0  0  0  0  0  0  0  0
  143.7023  136.6000  155.5518 H   0  0  0  0  0  0  0  0  0  0  0  0
  143.5038  138.3477  155.5488 H   0  0  0  0  0  0  0  0  0  0  0  0
  144.9466  137.6148  156.2317 H   0  0  0  0  0  0  0  0  0  0  0  0
  144.9022  139.4882  153.2275 H   0  0  0  0  0  0  0  0  0  0  0  0
  147.4527  138.1312  153.4847 H   0  0  0  0  0  0  0  0  0  0  0  0
  147.7455  139.1207  151.1882 H   0  0  0  0  0  0  0  0  0  0  0  0
  146.1054  139.7580  151.2736 H   0  0  0  0  0  0  0  0  0  0  0  0
  146.3883  138.0213  151.2838 H   0  0  0  0  0  0  0  0  0  0  0  0
  148.6937  138.1214  155.0399 H   0  0  0  0  0  0  0  0  0  0  0  0
  149.7631  138.4240  153.6667 H   0  0  0  0  0  0  0  0  0  0  0  0
  150.2126  139.0364  156.5895 H   0  0  0  0  0  0  0  0  0  0  0  0
  151.3926  138.4411  155.4229 H   0  0  0  0  0  0  0  0  0  0  0  0
  151.3901  141.0706  156.1170 H   0  0  0  0  0  0  0  0  0  0  0  0
  151.6189  140.6122  154.4300 H   0  0  0  0  0  0  0  0  0  0  0  0
  149.7582  142.0069  154.1257 H   0  0  0  0  0  0  0  0  0  0  0  0
  149.1060  141.6576  155.7325 H   0  0  0  0  0  0  0  0  0  0  0  0
  141.7615  139.0282  152.4170 H   0  0  0  0  0  0  0  0  0  0  0  0
  145.5826  139.4068  154.7113 H   0  0  0  0  0  0  0  0  0  0  0  0
  1  2  1  0  0  0  0
  1 21  1  0  0  0  0
  1 22  1  0  0  0  0
  1 23  1  0  0  0  0
  2 20  2  0  0  0  0
  2  3  1  0  0  0  0
  3  4  2  0  0  0  0
  3 24  1  0  0  0  0
  4  5  1  0  0  0  0
  5  6  1  0  0  0  0
  5 20  1  0  0  0  0
  6  7  1  0  0  0  0
  6  8  1  0  0  0  0
  6 25  1  0  0  0  0
  7 26  1  0  0  0  0
  7 27  1  0  0  0  0
  7 28  1  0  0  0  0
  8  9  1  0  0  0  0
  8 10  1  0  0  0  0
  8 29  1  0  0  0  0
  9 30  1  0  0  0  0
  9 31  1  0  0  0  0
  9 32  1  0  0  0  0
 10 11  1  0  0  0  0
 10 33  1  0  0  0  0
 10 47  1  0  0  0  0
 11 12  1  0  0  0  0
 11 13  1  0  0  0  0
 11 34  1  0  0  0  0
 12 35  1  0  0  0  0
 12 36  1  0  0  0  0
 12 37  1  0  0  0  0
 13 14  2  0  0  0  0
 13 15  1  0  0  0  0
 15 19  1  0  0  0  0
 15 16  1  0  0  0  0
 16 17  1  0  0  0  0
 16 38  1  0  0  0  0
 16 39  1  0  0  0  0
 17 18  1  0  0  0  0
 17 40  1  0  0  0  0
 17 41  1  0  0  0  0
 18 19  1  0  0  0  0
 18 42  1  0  0  0  0
 18 43  1  0  0  0  0
 19 44  1  0  0  0  0
 19 45  1  0  0  0  0
 20 46  1  0  0  0  0
M  CHG  1  10   1
M  END
> <s_m_source_file>
AV-unprocessed.smi

> <i_m_source_file_index>
3335

> <i_lp_mmshare_version>
43012

> <i_f3d_flags>
0

> <s_epik_input>
W0NIM11jMVtjSF1ubihbY0hdMSlbQ0BIXShbQ0gzXSlbQ0BIXShbQ0gzXSlbTkhdW0NASF0oW0NIM10pQyg9TylOMltDSDJdW0NIMl1bQ0gyXVtDSDJdMg==

> <s_epik_cmdline>
J2VwaWtfcHl0aG9uJywgJy1waCcsICc3LjAnLCAnLXRuJywgJzgnLCAnLW1hJywgJzIwMCcsICctbWV0YWxfYmluZGluZycsICctaW1hZScsICc8aW5maWxlLm1hZT4nLCAnLW9tYWUnLCAnPG91dGZpbGUubWFlPic=

> <r_lp_tautomer_probability>
1

> <r_epik_Ionization_Penalty>
0.14175

> <r_epik_Ionization_Penalty_Charging>
0.141731

> <r_epik_Ionization_Penalty_Neutral>
1.91261e-05

> <r_epik_State_Penalty>
0.131043

> <r_epik_Charging_Adjusted_Penalty>
0.272773

> <i_epik_Tot_Q>
1

> <i_epik_Tot_abs_Q>
1

> <r_epik_Metal_State_Penalty>
0.131408

> <b_epik_Metal_Only>
0

> <s_lp_Force_Field>
OPLS_2005

> <r_lp_Energy>
38.6819

> <b_lp_Chiralities_Consistent>
1

> <s_lp_Variant>
AV-unprocessed.smi:3335-5

> <Gold.Version>
5.8.1

> <Gold.Id.Protein>
6NUR|6NUR_protein|mol2

> <Gold.PLP.Fitness>
44.9158

> <Gold.PLP.PLP>
-34.7313

> <Gold.PLP.part.hbond>
-1.0000

> <Gold.PLP.part.metal>
0.0000

> <Gold.PLP.part.buried>
-0.5075

> <Gold.PLP.part.nonpolar>
-33.1169

> <Gold.PLP.part.repulsive>
0.2639

> <Gold.PLP.ligand.clash>
0.0000

> <Gold.PLP.ligand.torsion>
2.5093

> <Gold.PLP.Chemscore.Hbond>
2.0000

> <Gold.PLP.Chemscore.CHOScore>
3.0000

> <Gold.PLP.Chemscore.Metal>
0.0000

> <Gold.Chemscore.Hbonds>
donor molecule, donor type, donor heavy atom, donor atom, acceptor molecule, acceptor atom, score
      L1  H    10    33       P1 10175  2.00
      L1  C     3    24       P1 11000  1.00
      L1  C    20    46       P1 10160  1.00
      L1  C    20    46       P1 10175  1.00

> <Gold.PLP.Chemscore.Internal.Correction>
0.2031

> <Gold.Rescore>
     Score         DG    S(hbond)    S(metal)    S(lipo)     H(rot)  DE(clash)    DE(int)     intcor
     10.03     -13.91       1.00        0.00      80.22       1.68       0.23       3.65       ----

> <Gold.Chemscore.Fitness>
10.0302

> <Gold.Chemscore.DG>
-13.9107

> <Gold.Chemscore.ZeroCoef>
-5.4800

> <Gold.Chemscore.Hbond>
1.0000

> <Gold.Chemscore.Metal>
0.0000

> <Gold.Chemscore.Lipo>
80.2213

> <Gold.Chemscore.Internal_Hbond>
0.0000

> <Gold.Chemscore.DEClash>
0.2275

> <Gold.Chemscore.DEInternal>
3.6530

> <Gold.Chemscore.Rot>
1.6778

> <Gold.Chemscore.Internal.Correction>
   9.000000E+99

> <Gold.Chemscore.Hbonds>
donor molecule, donor type, donor heavy atom, donor atom, acceptor molecule, acceptor atom, score
      L1  H    10    33       P1 10175  1.00

> <Gold.Chemscore.Hbond.Weighted>
-3.3400

> <Gold.Chemscore.Metal.Weighted>
-0.0000

> <Gold.Chemscore.Lipo.Weighted>
-9.3859

> <Gold.Chemscore.Internal_Hbond.Weighted>
0.0000

> <Gold.Chemscore.DEClash.Weighted>
0.2275

> <Gold.Chemscore.DEInternal.Weighted>
3.6530

> <Gold.Chemscore.Rot.Weighted>
4.2952

> <Gold.Chemscore.Internal.Correction.Weighted>
   9.000000E+99

> <Gold.Protein.RotatedTorsions>
[ 6907 6896 6895 6894 ] final   11.99 input  -60.11 | X-H torsion
[ 7974 7965 7964 7962 ] final  -53.53 input  175.53 | X-H torsion
[ 8008 7997 7996 7995 ] final   35.70 input   59.86 | X-H torsion
[ 10167 10162 10161 10158 ] final -114.28 input  -65.29 | X-H torsion
[ 10718 10713 10712 10709 ] final   27.24 input   66.30 | X-H torsion
[ 10763 10752 10751 10750 ] final   98.16 input  -60.55 | X-H torsion
[ 11005 11000 10999 10996 ] final  -77.04 input  -57.11 | X-H torsion

> <Gold.Protein.ActiveResidues>
 VAL166  LYS551  ARG553  GLY616  TRP617  ASP618  TYR619  PRO620  LYS621  CYS622 
 ASP623  PHE694  ASN695  SER759  ASP760  ASP761  ALA762  ILE779  LEU786  VAL792 
 PHE793  MET794  SER795  GLU796  ALA797  LYS798  CYS799  TRP800  GLU811  SER814 

> <Gold.Protein.RotatedAtoms>
  151.7632  135.0805  160.0348 H   0  0  0  0  0  0  0  0  0  0  0  0  # atno 6907 bound_to 6896
  152.3339  133.5985  159.5837 H   0  0  0  0  0  0  0  0  0  0  0  0  # atno 6908 bound_to 6896
  150.7439  133.9742  159.3597 H   0  0  0  0  0  0  0  0  0  0  0  0  # atno 6909 bound_to 6896
  145.8957  140.8034  142.9768 H   0  0  0  0  0  0  0  0  0  0  0  0  # atno 7974 bound_to 7965
  155.1754  140.3295  155.4385 H   0  0  0  0  0  0  0  0  0  0  0  0  # atno 8008 bound_to 7997
  156.2495  140.1936  156.6805 H   0  0  0  0  0  0  0  0  0  0  0  0  # atno 8009 bound_to 7997
  154.6308  140.0583  156.9716 H   0  0  0  0  0  0  0  0  0  0  0  0  # atno 8010 bound_to 7997
  140.1027  143.4598  152.1802 H   0  0  0  0  0  0  0  0  0  0  0  0  # atno 10167 bound_to 10162
  157.2176  130.6963  149.6256 H   0  0  0  0  0  0  0  0  0  0  0  0  # atno 10718 bound_to 10713
  153.2857  135.4158  155.1120 H   0  0  0  0  0  0  0  0  0  0  0  0  # atno 10763 bound_to 10752
  154.8504  135.3506  154.6051 H   0  0  0  0  0  0  0  0  0  0  0  0  # atno 10764 bound_to 10752
  153.6472  135.7054  153.5279 H   0  0  0  0  0  0  0  0  0  0  0  0  # atno 10765 bound_to 10752
  141.1658  133.7007  156.7760 H   0  0  0  0  0  0  0  0  0  0  0  0  # atno 11005 bound_to 11000
  144.6733  140.1599  143.7423 LP  0  0  0  0  0  0  0  0  0  0  0  0  # atno 17320 bound_to 7965
  145.8853  139.2345  143.1581 LP  0  0  0  0  0  0  0  0  0  0  0  0  # atno 17321 bound_to 7965
  139.5662  144.7436  151.4016 LP  0  0  0  0  0  0  0  0  0  0  0  0  # atno 17342 bound_to 10162
  140.6969  143.7727  150.7340 LP  0  0  0  0  0  0  0  0  0  0  0  0  # atno 17343 bound_to 10162
  155.9685  130.4530  150.5797 LP  0  0  0  0  0  0  0  0  0  0  0  0  # atno 17370 bound_to 10713
  157.3609  131.0749  151.1637 LP  0  0  0  0  0  0  0  0  0  0  0  0  # atno 17371 bound_to 10713
  140.2429  134.8599  157.3591 LP  0  0  0  0  0  0  0  0  0  0  0  0  # atno 17394 bound_to 11000
  140.1778  134.4528  155.7791 LP  0  0  0  0  0  0  0  0  0  0  0  0  # atno 17395 bound_to 11000

$$$$
