AV-unprocessed.smi:2864|AV-procd|sdf|11013|dock6
  -GOLD-   2272015473D 1   1.00000     0.00000
 Structure written by MMmdl.
 37 38  0  0  0  0  0  0  0  0  1 V2000
  151.6959  145.8837  160.3011 C   0  0  0  0  0  0  0  0  0  0  0  0
  151.8587  144.4230  159.9344 C   0  0  0  0  0  0  0  0  0  0  0  0
  152.3912  143.5151  160.8685 C   0  0  0  0  0  0  0  0  0  0  0  0
  152.5304  142.1573  160.5286 C   0  0  0  0  0  0  0  0  0  0  0  0
  152.1428  141.6920  159.2539 C   0  0  0  0  0  0  0  0  0  0  0  0
  152.2958  140.2124  158.9423 C   0  0  0  0  0  0  0  0  0  0  0  0
  151.6165  142.6044  158.3013 C   0  0  0  0  0  0  0  0  0  0  0  0
  151.1764  142.1387  156.9130 C   0  0  2  0  0  0  0  0  0  0  0  0
  150.7704  143.2229  156.0987 O   0  0  0  0  0  0  0  0  0  0  0  0
  150.0091  141.1327  157.0153 C   0  0  0  0  0  0  0  0  0  0  0  0
  149.1371  141.1828  155.8355 N   0  0  0  0  0  0  0  0  0  0  0  0
  147.8652  141.6656  156.0941 N   0  0  0  0  0  0  0  0  0  0  0  0
  146.9758  141.7551  155.1587 C   0  0  0  0  0  0  0  0  0  0  0  0
  145.6168  142.2874  155.5419 C   0  0  0  0  0  0  0  0  0  0  0  0
  145.6245  142.6895  156.8132 F   0  0  0  0  0  0  0  0  0  0  0  0
  145.2710  143.3200  154.7724 F   0  0  0  0  0  0  0  0  0  0  0  0
  144.6965  141.3317  155.4068 F   0  0  0  0  0  0  0  0  0  0  0  0
  147.3269  141.3428  153.8099 C   0  0  0  0  0  0  0  0  0  0  0  0
  148.5664  140.8683  153.5612 C   0  0  0  0  0  0  0  0  0  0  0  0
  149.5725  140.7567  154.6146 C   0  0  0  0  0  0  0  0  0  0  0  0
  150.7042  140.3138  154.4222 O   0  0  0  0  0  0  0  0  0  0  0  0
  151.4708  143.9652  158.6599 C   0  0  0  0  0  0  0  0  0  0  0  0
  152.4646  146.1948  161.0092 H   0  0  0  0  0  0  0  0  0  0  0  0
  150.7201  146.0496  160.7579 H   0  0  0  0  0  0  0  0  0  0  0  0
  151.7744  146.5178  159.4175 H   0  0  0  0  0  0  0  0  0  0  0  0
  152.6896  143.8551  161.8495 H   0  0  0  0  0  0  0  0  0  0  0  0
  152.9345  141.4706  161.2580 H   0  0  0  0  0  0  0  0  0  0  0  0
  151.3585  139.7953  158.5742 H   0  0  0  0  0  0  0  0  0  0  0  0
  152.5810  139.6471  159.8299 H   0  0  0  0  0  0  0  0  0  0  0  0
  153.0669  140.0595  158.1870 H   0  0  0  0  0  0  0  0  0  0  0  0
  152.0234  141.6797  156.4043 H   0  0  0  0  0  0  0  0  0  0  0  0
  149.8440  143.1415  155.9301 H   0  0  0  0  0  0  0  0  0  0  0  0
  150.4167  140.1209  157.0685 H   0  0  0  0  0  0  0  0  0  0  0  0
  149.4581  141.2554  157.9499 H   0  0  0  0  0  0  0  0  0  0  0  0
  146.5993  141.4160  153.0153 H   0  0  0  0  0  0  0  0  0  0  0  0
  148.8232  140.5621  152.5575 H   0  0  0  0  0  0  0  0  0  0  0  0
  151.0540  144.6690  157.9542 H   0  0  0  0  0  0  0  0  0  0  0  0
  1  2  1  0  0  0  0
  1 23  1  0  0  0  0
  1 24  1  0  0  0  0
  1 25  1  0  0  0  0
  2 22  1  0  0  0  0
  2  3  2  0  0  0  0
  3  4  1  0  0  0  0
  3 26  1  0  0  0  0
  4  5  2  0  0  0  0
  4 27  1  0  0  0  0
  5  6  1  0  0  0  0
  5  7  1  0  0  0  0
  6 28  1  0  0  0  0
  6 29  1  0  0  0  0
  6 30  1  0  0  0  0
  7  8  1  0  0  0  0
  7 22  2  0  0  0  0
  8  9  1  0  0  0  0
  8 10  1  0  0  0  0
  8 31  1  0  0  0  0
  9 32  1  0  0  0  0
 10 11  1  0  0  0  0
 10 33  1  0  0  0  0
 10 34  1  0  0  0  0
 11 20  1  0  0  0  0
 11 12  1  0  0  0  0
 12 13  2  0  0  0  0
 13 14  1  0  0  0  0
 13 18  1  0  0  0  0
 14 15  1  0  0  0  0
 14 16  1  0  0  0  0
 14 17  1  0  0  0  0
 18 19  2  0  0  0  0
 18 35  1  0  0  0  0
 19 20  1  0  0  0  0
 19 36  1  0  0  0  0
 20 21  2  0  0  0  0
 22 37  1  0  0  0  0
M  END
> <s_m_source_file>
AV-unprocessed.smi

> <i_m_source_file_index>
2864

> <i_lp_mmshare_version>
43012

> <i_f3d_flags>
0

> <s_epik_input>
W0NIM11jMVtjSF1bY0hdYyhbQ0gzXSljKFtjSF0xKVtDQEhdKFtPSF0pW0NIMl1uMm5jKEMoRikoRilGKVtjSF1bY0hdYzI9Tw==

> <s_epik_cmdline>
J2VwaWtfcHl0aG9uJywgJy1waCcsICc3LjAnLCAnLXRuJywgJzgnLCAnLW1hJywgJzIwMCcsICctbWV0YWxfYmluZGluZycsICctaW1hZScsICc8aW5maWxlLm1hZT4nLCAnLW9tYWUnLCAnPG91dGZpbGUubWFlPic=

> <r_lp_tautomer_probability>
1

> <r_epik_Ionization_Penalty>
5.25156e-08

> <r_epik_Ionization_Penalty_Charging>
3.92872e-09

> <r_epik_Ionization_Penalty_Neutral>
4.85868e-08

> <r_epik_State_Penalty>
-0

> <r_epik_Charging_Adjusted_Penalty>
3.92872e-09

> <i_epik_Tot_Q>
0

> <i_epik_Tot_abs_Q>
0

> <r_epik_Metal_State_Penalty>
-0

> <b_epik_Metal_Only>
0

> <s_lp_Force_Field>
OPLS_2005

> <r_lp_Energy>
30.6225

> <b_lp_Chiralities_Consistent>
1

> <s_lp_Variant>
AV-unprocessed.smi:2864-1

> <Gold.Version>
5.8.1

> <Gold.Id.Protein>
6NUR|6NUR_protein|mol2

> <Gold.PLP.Fitness>
50.7901

> <Gold.PLP.PLP>
-47.6891

> <Gold.PLP.part.hbond>
-1.3530

> <Gold.PLP.part.metal>
0.0000

> <Gold.PLP.part.buried>
-5.5831

> <Gold.PLP.part.nonpolar>
-41.5069

> <Gold.PLP.part.repulsive>
0.6751

> <Gold.PLP.ligand.clash>
0.0000

> <Gold.PLP.ligand.torsion>
0.5785

> <Gold.PLP.Chemscore.Hbond>
1.4160

> <Gold.PLP.Chemscore.CHOScore>
0.0000

> <Gold.PLP.Chemscore.Metal>
0.0000

> <Gold.Chemscore.Hbonds>
donor molecule, donor type, donor heavy atom, donor atom, acceptor molecule, acceptor atom, score
      L1  H     9    32       P1  8028  0.34
      P1  H  7989  7998       L1    21  0.73

> <Gold.PLP.Chemscore.Internal.Correction>
0.0099

> <Gold.Rescore>
     Score         DG    S(hbond)    S(metal)    S(lipo)     H(rot)  DE(clash)    DE(int)     intcor
     17.42     -18.20       1.31        0.00     116.21       2.05       0.10       0.69       ----

> <Gold.Chemscore.Fitness>
17.4161

> <Gold.Chemscore.DG>
-18.2044

> <Gold.Chemscore.ZeroCoef>
-5.4800

> <Gold.Chemscore.Hbond>
1.3115

> <Gold.Chemscore.Metal>
0.0000

> <Gold.Chemscore.Lipo>
116.2070

> <Gold.Chemscore.Internal_Hbond>
0.0000

> <Gold.Chemscore.DEClash>
0.0960

> <Gold.Chemscore.DEInternal>
0.6922

> <Gold.Chemscore.Rot>
2.0517

> <Gold.Chemscore.Internal.Correction>
   9.000000E+99

> <Gold.Chemscore.Hbonds>
donor molecule, donor type, donor heavy atom, donor atom, acceptor molecule, acceptor atom, score
      L1  H     9    32       P1  8028  0.34
      P1  H  7989  7998       L1    21  0.72

> <Gold.Chemscore.Hbond.Weighted>
-4.3805

> <Gold.Chemscore.Metal.Weighted>
-0.0000

> <Gold.Chemscore.Lipo.Weighted>
-13.5962

> <Gold.Chemscore.Internal_Hbond.Weighted>
0.0000

> <Gold.Chemscore.DEClash.Weighted>
0.0960

> <Gold.Chemscore.DEInternal.Weighted>
0.6922

> <Gold.Chemscore.Rot.Weighted>
5.2524

> <Gold.Chemscore.Internal.Correction.Weighted>
   9.000000E+99

> <Gold.Protein.RotatedTorsions>
[ 6907 6896 6895 6894 ] final  162.70 input  -60.11 | X-H torsion
[ 7974 7965 7964 7962 ] final   93.94 input  175.53 | X-H torsion
[ 8008 7997 7996 7995 ] final   -4.70 input   59.86 | X-H torsion
[ 10167 10162 10161 10158 ] final  119.93 input  -65.29 | X-H torsion
[ 10718 10713 10712 10709 ] final  -18.96 input   66.30 | X-H torsion
[ 10763 10752 10751 10750 ] final  -27.20 input  -60.55 | X-H torsion
[ 11005 11000 10999 10996 ] final -108.42 input  -57.11 | X-H torsion

> <Gold.Protein.ActiveResidues>
 VAL166  LYS551  ARG553  GLY616  TRP617  ASP618  TYR619  PRO620  LYS621  CYS622 
 ASP623  PHE694  ASN695  SER759  ASP760  ASP761  ALA762  ILE779  LEU786  VAL792 
 PHE793  MET794  SER795  GLU796  ALA797  LYS798  CYS799  TRP800  GLU811  SER814 

> <Gold.Protein.RotatedAtoms>
  151.9364  133.3625  159.3949 H   0  0  0  0  0  0  0  0  0  0  0  0  # atno 6907 bound_to 6896
  150.7007  134.4484  159.5334 H   0  0  0  0  0  0  0  0  0  0  0  0  # atno 6908 bound_to 6896
  152.2134  134.8481  160.0545 H   0  0  0  0  0  0  0  0  0  0  0  0  # atno 6909 bound_to 6896
  145.4723  139.2281  143.2928 H   0  0  0  0  0  0  0  0  0  0  0  0  # atno 7974 bound_to 7965
  154.6115  140.2477  155.7662 H   0  0  0  0  0  0  0  0  0  0  0  0  # atno 8008 bound_to 7997
  156.2374  140.2945  156.0299 H   0  0  0  0  0  0  0  0  0  0  0  0  # atno 8009 bound_to 7997
  155.2044  140.0395  157.2913 H   0  0  0  0  0  0  0  0  0  0  0  0  # atno 8010 bound_to 7997
  139.6015  144.7058  151.3053 H   0  0  0  0  0  0  0  0  0  0  0  0  # atno 10167 bound_to 10162
  156.5522  130.4704  149.6446 H   0  0  0  0  0  0  0  0  0  0  0  0  # atno 10718 bound_to 10713
  153.7282  135.6940  153.4996 H   0  0  0  0  0  0  0  0  0  0  0  0  # atno 10763 bound_to 10752
  153.2155  135.4388  155.0428 H   0  0  0  0  0  0  0  0  0  0  0  0  # atno 10764 bound_to 10752
  154.8262  135.3447  154.6813 H   0  0  0  0  0  0  0  0  0  0  0  0  # atno 10765 bound_to 10752
  141.0902  133.9068  157.2093 H   0  0  0  0  0  0  0  0  0  0  0  0  # atno 11005 bound_to 11000
  146.2390  140.5502  142.8942 LP  0  0  0  0  0  0  0  0  0  0  0  0  # atno 17320 bound_to 7965
  144.7938  140.6083  143.6524 LP  0  0  0  0  0  0  0  0  0  0  0  0  # atno 17321 bound_to 7965
  140.7253  143.7022  150.7836 LP  0  0  0  0  0  0  0  0  0  0  0  0  # atno 17342 bound_to 10162
  140.0599  143.5165  152.2633 LP  0  0  0  0  0  0  0  0  0  0  0  0  # atno 17343 bound_to 10162
  156.2874  130.7105  151.1945 LP  0  0  0  0  0  0  0  0  0  0  0  0  # atno 17370 bound_to 10713
  157.7385  131.0540  150.5290 LP  0  0  0  0  0  0  0  0  0  0  0  0  # atno 17371 bound_to 10713
  139.9727  135.0123  156.9552 LP  0  0  0  0  0  0  0  0  0  0  0  0  # atno 17394 bound_to 11000
  140.5269  134.0852  155.7306 LP  0  0  0  0  0  0  0  0  0  0  0  0  # atno 17395 bound_to 11000

$$$$
