AV-unprocessed.smi:176|AV-procd|sdf|1434|dock2
  -GOLD-   2262019213D 1   1.00000     0.00000
 Structure written by MMmdl.
 57 61  0  0  0  0  0  0  0  0  1 V2000
  143.4138  134.0018  153.0852 O   0  0  0  0  0  0  0  0  0  0  0  0
  143.2118  133.7540  151.7088 C   0  0  0  0  0  0  0  0  0  0  0  0
  144.3688  132.9334  151.1162 C   0  0  0  0  0  0  0  0  0  0  0  0
  144.0432  132.5809  149.6508 C   0  0  0  0  0  0  0  0  0  0  0  0
  143.8282  133.7428  148.8750 O   0  0  0  0  0  0  0  0  0  0  0  0
  145.7835  133.5068  151.3576 C   0  0  0  0  0  0  0  0  0  0  0  0
  146.2980  132.0968  151.6548 C   0  0  0  0  0  0  0  0  0  0  0  0
  147.3475  131.8809  152.6067 N   0  0  0  0  0  0  0  0  0  0  0  0
  147.9863  132.8386  153.3622 C   0  0  0  0  0  0  0  0  0  0  0  0
  148.8852  132.3847  154.1921 N   0  0  0  0  0  0  0  0  0  0  0  0
  148.8403  131.0065  154.0190 C   0  0  0  0  0  0  0  0  0  0  0  0
  149.5331  129.9125  154.6087 C   0  0  0  0  0  0  0  0  0  0  0  0
  150.5037  130.0828  155.5405 N   0  0  0  0  0  0  0  0  0  0  0  0
  150.2056  129.4897  156.8421 C   0  0  0  0  0  0  0  0  0  0  0  0
  151.4851  129.3365  157.6822 C   0  0  0  0  0  0  0  0  0  0  0  0
  152.2744  130.6632  157.7935 C   0  0  1  0  0  0  0  0  0  0  0  0
  151.4936  131.5567  158.5677 O   0  0  0  0  0  0  0  0  0  0  0  0
  153.6103  130.4971  158.5558 C   0  0  0  0  0  0  0  0  0  0  0  0
  154.6801  129.7544  157.7385 C   0  0  0  0  0  0  0  0  0  0  0  0
  154.9055  130.4337  156.3812 C   0  0  0  0  0  0  0  0  0  0  0  0
  153.5925  130.5398  155.5925 C   0  0  0  0  0  0  0  0  0  0  0  0
  152.5026  131.2912  156.3895 C   0  0  1  0  0  0  0  0  0  0  0  0
  151.1854  131.3769  155.5883 C   0  0  0  0  0  0  0  0  0  0  0  0
  149.1888  128.6609  154.2032 N   0  0  0  0  0  0  0  0  0  0  0  0
  148.2409  128.4895  153.2769 C   0  0  0  0  0  0  0  0  0  0  0  0
  147.5233  129.4143  152.6360 N   0  0  0  0  0  0  0  0  0  0  0  0
  147.8611  130.6717  153.0420 C   0  0  0  0  0  0  0  0  0  0  0  0
  144.8447  131.7489  151.9854 C   0  0  0  0  0  0  0  0  0  0  0  0
  143.2926  133.1918  153.5567 H   0  0  0  0  0  0  0  0  0  0  0  0
  142.2524  133.2539  151.5746 H   0  0  0  0  0  0  0  0  0  0  0  0
  143.1257  134.7183  151.2073 H   0  0  0  0  0  0  0  0  0  0  0  0
  144.8572  132.0210  149.1903 H   0  0  0  0  0  0  0  0  0  0  0  0
  143.1614  131.9437  149.5803 H   0  0  0  0  0  0  0  0  0  0  0  0
  144.6115  133.9201  148.3771 H   0  0  0  0  0  0  0  0  0  0  0  0
  146.2471  133.9798  150.4914 H   0  0  0  0  0  0  0  0  0  0  0  0
  145.8375  134.1597  152.2309 H   0  0  0  0  0  0  0  0  0  0  0  0
  146.6159  131.6009  150.7361 H   0  0  0  0  0  0  0  0  0  0  0  0
  147.7703  133.8934  153.2743 H   0  0  0  0  0  0  0  0  0  0  0  0
  149.4910  130.1296  157.3613 H   0  0  0  0  0  0  0  0  0  0  0  0
  149.7277  128.5162  156.7368 H   0  0  0  0  0  0  0  0  0  0  0  0
  151.2314  128.9598  158.6739 H   0  0  0  0  0  0  0  0  0  0  0  0
  152.1052  128.5685  157.2205 H   0  0  0  0  0  0  0  0  0  0  0  0
  150.6190  131.2064  158.6384 H   0  0  0  0  0  0  0  0  0  0  0  0
  154.0053  131.4812  158.8139 H   0  0  0  0  0  0  0  0  0  0  0  0
  153.4445  129.9818  159.5029 H   0  0  0  0  0  0  0  0  0  0  0  0
  155.6161  129.7270  158.2968 H   0  0  0  0  0  0  0  0  0  0  0  0
  154.3856  128.7156  157.5877 H   0  0  0  0  0  0  0  0  0  0  0  0
  155.3230  131.4298  156.5340 H   0  0  0  0  0  0  0  0  0  0  0  0
  155.6421  129.8746  155.8035 H   0  0  0  0  0  0  0  0  0  0  0  0
  153.7783  131.0511  154.6474 H   0  0  0  0  0  0  0  0  0  0  0  0
  153.2483  129.5386  155.3309 H   0  0  0  0  0  0  0  0  0  0  0  0
  152.8676  132.3103  156.5279 H   0  0  0  0  0  0  0  0  0  0  0  0
  151.3938  131.7321  154.5779 H   0  0  0  0  0  0  0  0  0  0  0  0
  150.5190  132.1080  156.0485 H   0  0  0  0  0  0  0  0  0  0  0  0
  148.0290  127.4651  153.0092 H   0  0  0  0  0  0  0  0  0  0  0  0
  144.6127  131.8810  153.0441 H   0  0  0  0  0  0  0  0  0  0  0  0
  144.5250  130.7667  151.6362 H   0  0  0  0  0  0  0  0  0  0  0  0
  1  2  1  0  0  0  0
  1 29  1  0  0  0  0
  2  3  1  0  0  0  0
  2 30  1  0  0  0  0
  2 31  1  0  0  0  0
  3 28  1  0  0  0  0
  3  4  1  0  0  0  0
  3  6  1  0  0  0  0
  4  5  1  0  0  0  0
  4 32  1  0  0  0  0
  4 33  1  0  0  0  0
  5 34  1  0  0  0  0
  6  7  1  0  0  0  0
  6 35  1  0  0  0  0
  6 36  1  0  0  0  0
  7  8  1  0  0  0  0
  7 28  1  0  0  0  0
  7 37  1  0  0  0  0
  8 27  1  0  0  0  0
  8  9  1  0  0  0  0
  9 10  2  0  0  0  0
  9 38  1  0  0  0  0
 10 11  1  0  0  0  0
 11 27  2  0  0  0  0
 11 12  1  0  0  0  0
 12 13  1  0  0  0  0
 12 24  2  0  0  0  0
 13 23  1  0  0  0  0
 13 14  1  0  0  0  0
 14 15  1  0  0  0  0
 14 39  1  0  0  0  0
 14 40  1  0  0  0  0
 15 16  1  0  0  0  0
 15 41  1  0  0  0  0
 15 42  1  0  0  0  0
 16 22  1  0  0  0  0
 16 17  1  0  0  0  0
 16 18  1  0  0  0  0
 17 43  1  0  0  0  0
 18 19  1  0  0  0  0
 18 44  1  0  0  0  0
 18 45  1  0  0  0  0
 19 20  1  0  0  0  0
 19 46  1  0  0  0  0
 19 47  1  0  0  0  0
 20 21  1  0  0  0  0
 20 48  1  0  0  0  0
 20 49  1  0  0  0  0
 21 22  1  0  0  0  0
 21 50  1  0  0  0  0
 21 51  1  0  0  0  0
 22 23  1  0  0  0  0
 22 52  1  0  0  0  0
 23 53  1  0  0  0  0
 23 54  1  0  0  0  0
 24 25  1  0  0  0  0
 25 26  2  0  0  0  0
 25 55  1  0  0  0  0
 26 27  1  0  0  0  0
 28 56  1  0  0  0  0
 28 57  1  0  0  0  0
M  END
> <s_m_source_file>
AV-unprocessed.smi

> <i_m_source_file_index>
176

> <i_lp_mmshare_version>
43012

> <i_f3d_flags>
0

> <s_epik_input>
W09IXVtDSDJdQzEoW0NIMl1bT0hdKVtDSDJdW0NIXShbQ0gyXTEpbihbY0hdbjIpYyhjMjMpbltjSF1uYzNOKFtDSDJdW0NIMl00KVtDSDJdW0NAQEhdKFtDQF00NVtPSF0pW0NIMl1bQ0gyXVtDSDJdW0NIMl01

> <s_epik_cmdline>
J2VwaWtfcHl0aG9uJywgJy1waCcsICc3LjAnLCAnLXRuJywgJzgnLCAnLW1hJywgJzIwMCcsICctbWV0YWxfYmluZGluZycsICctaW1hZScsICc8aW5maWxlLm1hZT4nLCAnLW9tYWUnLCAnPG91dGZpbGUubWFlPic=

> <r_lp_tautomer_probability>
1

> <r_epik_Ionization_Penalty>
0.00642876

> <r_epik_Ionization_Penalty_Charging>
0

> <r_epik_Ionization_Penalty_Neutral>
0.00642876

> <r_epik_State_Penalty>
0.00467813

> <r_epik_Charging_Adjusted_Penalty>
0.00467813

> <i_epik_Tot_Q>
0

> <i_epik_Tot_abs_Q>
0

> <r_epik_Metal_State_Penalty>
-0

> <b_epik_Metal_Only>
0

> <s_lp_Force_Field>
OPLS_2005

> <r_lp_Energy>
50.7593

> <b_lp_Chiralities_Consistent>
1

> <s_lp_Variant>
AV-unprocessed.smi:176-2

> <Gold.Version>
5.8.1

> <Gold.Id.Protein>
6NUR|6NUR_protein|mol2

> <Gold.PLP.Fitness>
44.5004

> <Gold.PLP.PLP>
-35.8612

> <Gold.PLP.part.hbond>
-4.0000

> <Gold.PLP.part.metal>
0.0000

> <Gold.PLP.part.buried>
-2.4468

> <Gold.PLP.part.nonpolar>
-29.9562

> <Gold.PLP.part.repulsive>
0.9227

> <Gold.PLP.ligand.clash>
0.0000

> <Gold.PLP.ligand.torsion>
0.6354

> <Gold.PLP.Chemscore.Hbond>
3.0000

> <Gold.PLP.Chemscore.CHOScore>
0.0000

> <Gold.PLP.Chemscore.Metal>
0.0000

> <Gold.Chemscore.Hbonds>
donor molecule, donor type, donor heavy atom, donor atom, acceptor molecule, acceptor atom, score
      L1  H     1    29       P1 10957  1.00
      L1  H     5    34       P1  7921  1.00
      P1  H  6896  6909       L1    17  1.00

> <Gold.PLP.Chemscore.Internal.Correction>
0.9099

> <Gold.Rescore>
     Score         DG    S(hbond)    S(metal)    S(lipo)     H(rot)  DE(clash)    DE(int)     intcor
     12.40     -14.46       2.94        0.00      74.14       3.71       0.07       1.99       ----

> <Gold.Chemscore.Fitness>
12.4016

> <Gold.Chemscore.DG>
-14.4593

> <Gold.Chemscore.ZeroCoef>
-5.4800

> <Gold.Chemscore.Hbond>
2.9355

> <Gold.Chemscore.Metal>
0.0000

> <Gold.Chemscore.Lipo>
74.1428

> <Gold.Chemscore.Internal_Hbond>
0.0000

> <Gold.Chemscore.DEClash>
0.0669

> <Gold.Chemscore.DEInternal>
1.9908

> <Gold.Chemscore.Rot>
3.7109

> <Gold.Chemscore.Internal.Correction>
   9.000000E+99

> <Gold.Chemscore.Hbonds>
donor molecule, donor type, donor heavy atom, donor atom, acceptor molecule, acceptor atom, score
      L1  H     1    29       P1 10957  0.95
      L1  H     5    34       P1  7921  1.00
      P1  H  6896  6909       L1    17  0.74

> <Gold.Chemscore.Hbond.Weighted>
-9.8046

> <Gold.Chemscore.Metal.Weighted>
-0.0000

> <Gold.Chemscore.Lipo.Weighted>
-8.6747

> <Gold.Chemscore.Internal_Hbond.Weighted>
0.0000

> <Gold.Chemscore.DEClash.Weighted>
0.0669

> <Gold.Chemscore.DEInternal.Weighted>
1.9908

> <Gold.Chemscore.Rot.Weighted>
9.5000

> <Gold.Chemscore.Internal.Correction.Weighted>
   9.000000E+99

> <Gold.Protein.RotatedTorsions>
[ 6907 6896 6895 6894 ] final  -52.50 input  -60.11 | X-H torsion
[ 7974 7965 7964 7962 ] final   67.41 input  175.53 | X-H torsion
[ 8008 7997 7996 7995 ] final  -35.86 input   59.86 | X-H torsion
[ 10167 10162 10161 10158 ] final  -24.06 input  -65.29 | X-H torsion
[ 10718 10713 10712 10709 ] final   29.82 input   66.30 | X-H torsion
[ 10763 10752 10751 10750 ] final -124.88 input  -60.55 | X-H torsion
[ 11005 11000 10999 10996 ] final  -65.07 input  -57.11 | X-H torsion

> <Gold.Protein.ActiveResidues>
 VAL166  LYS551  ARG553  GLY616  TRP617  ASP618  TYR619  PRO620  LYS621  CYS622 
 ASP623  PHE694  ASN695  SER759  ASP760  ASP761  ALA762  ILE779  LEU786  VAL792 
 PHE793  MET794  SER795  GLU796  ALA797  LYS798  CYS799  TRP800  GLU811  SER814 

> <Gold.Protein.RotatedAtoms>
  150.8512  134.7838  159.7009 H   0  0  0  0  0  0  0  0  0  0  0  0  # atno 6907 bound_to 6896
  152.4576  134.5253  159.9804 H   0  0  0  0  0  0  0  0  0  0  0  0  # atno 6908 bound_to 6896
  151.5373  133.3400  159.2965 H   0  0  0  0  0  0  0  0  0  0  0  0  # atno 6909 bound_to 6896
  145.8150  139.3053  143.1077 H   0  0  0  0  0  0  0  0  0  0  0  0  # atno 7974 bound_to 7965
  154.4086  140.1646  156.2279 H   0  0  0  0  0  0  0  0  0  0  0  0  # atno 8008 bound_to 7997
  155.9307  140.3415  155.6224 H   0  0  0  0  0  0  0  0  0  0  0  0  # atno 8009 bound_to 7997
  155.7109  140.0756  157.2362 H   0  0  0  0  0  0  0  0  0  0  0  0  # atno 8010 bound_to 7997
  140.7288  143.4387  151.0690 H   0  0  0  0  0  0  0  0  0  0  0  0  # atno 10167 bound_to 10162
  157.2515  130.7117  149.6408 H   0  0  0  0  0  0  0  0  0  0  0  0  # atno 10718 bound_to 10713
  154.8729  135.4048  154.3178 H   0  0  0  0  0  0  0  0  0  0  0  0  # atno 10763 bound_to 10752
  153.4011  135.7018  153.6431 H   0  0  0  0  0  0  0  0  0  0  0  0  # atno 10764 bound_to 10752
  153.5173  135.3694  155.2586 H   0  0  0  0  0  0  0  0  0  0  0  0  # atno 10765 bound_to 10752
  141.1444  133.6675  156.5930 H   0  0  0  0  0  0  0  0  0  0  0  0  # atno 11005 bound_to 11000
  145.9736  140.8740  143.0150 LP  0  0  0  0  0  0  0  0  0  0  0  0  # atno 17320 bound_to 7965
  144.6753  140.1981  143.7390 LP  0  0  0  0  0  0  0  0  0  0  0  0  # atno 17321 bound_to 7965
  139.8051  143.8028  152.3166 LP  0  0  0  0  0  0  0  0  0  0  0  0  # atno 17342 bound_to 10162
  139.8059  144.7355  150.9762 LP  0  0  0  0  0  0  0  0  0  0  0  0  # atno 17343 bound_to 10162
  155.9666  130.4426  150.5387 LP  0  0  0  0  0  0  0  0  0  0  0  0  # atno 17370 bound_to 10713
  157.3272  131.0693  151.1888 LP  0  0  0  0  0  0  0  0  0  0  0  0  # atno 17371 bound_to 10713
  140.3748  134.7574  157.4622 LP  0  0  0  0  0  0  0  0  0  0  0  0  # atno 17394 bound_to 11000
  140.0683  134.5899  155.8671 LP  0  0  0  0  0  0  0  0  0  0  0  0  # atno 17395 bound_to 11000

$$$$
