AV-unprocessed.smi:2110|AV-procd|sdf|8610|dock5
  -GOLD-   2272011353D 1   1.00000     0.00000
 Structure written by MMmdl.
 45 46  0  0  0  0  0  0  0  0  2 V2000
  147.9926  133.4199  158.2170 C   0  0  0  0  0  0  0  0  0  0  0  0
  147.0728  134.5424  158.7250 C   0  0  0  0  0  0  0  0  0  0  0  0
  147.4620  135.0516  160.0560 N   0  0  0  0  0  0  0  0  0  0  0  0
  147.5935  134.0567  161.1395 C   0  0  0  0  0  0  0  0  0  0  0  0
  146.8195  134.4433  162.4090 C   0  0  0  0  0  0  0  0  0  0  0  0
  148.1526  136.6410  160.2326 S   0  0  0  0  0  0  0  0  0  0  0  0
  147.2687  137.5585  159.4943 O   0  0  0  0  0  0  0  0  0  0  0  0
  148.3185  136.8622  161.6785 O   0  0  0  0  0  0  0  0  0  0  0  0
  149.5530  136.3437  159.4746 N   0  5  0  0  0  0  0  0  0  0  0  0
  149.6584  136.6121  158.0530 C   0  0  0  0  0  0  0  0  0  0  0  0
  150.6532  137.7289  157.7645 C   0  0  0  0  0  0  0  0  0  0  0  0
  150.9388  138.1142  156.4359 C   0  0  0  0  0  0  0  0  0  0  0  0
  151.8678  139.1487  156.2241 C   0  0  0  0  0  0  0  0  0  0  0  0
  152.4937  139.8004  157.2256 N   0  0  0  0  0  0  0  0  0  0  0  0
  152.2226  139.4479  158.5067 C   0  0  0  0  0  0  0  0  0  0  0  0
  152.8771  140.1476  159.5443 N   0  0  0  0  0  0  0  0  0  0  0  0
  152.5502  141.5674  159.6511 C   0  0  0  0  0  0  0  0  0  0  0  0
  153.0727  142.1388  160.9805 C   0  0  0  0  0  0  0  0  0  0  0  0
  154.4684  141.8841  161.1004 O   0  0  0  0  0  0  0  0  0  0  0  0
  154.7524  140.4890  161.1048 C   0  0  0  0  0  0  0  0  0  0  0  0
  154.2915  139.8621  159.7781 C   0  0  0  0  0  0  0  0  0  0  0  0
  151.3119  138.4086  158.8152 C   0  0  0  0  0  0  0  0  0  0  0  0
  147.6236  133.0208  157.2725 H   0  0  0  0  0  0  0  0  0  0  0  0
  148.0555  132.5923  158.9225 H   0  0  0  0  0  0  0  0  0  0  0  0
  149.0050  133.7829  158.0398 H   0  0  0  0  0  0  0  0  0  0  0  0
  147.0875  135.3710  158.0169 H   0  0  0  0  0  0  0  0  0  0  0  0
  146.0414  134.1902  158.7551 H   0  0  0  0  0  0  0  0  0  0  0  0
  147.2462  133.0866  160.7856 H   0  0  0  0  0  0  0  0  0  0  0  0
  148.6502  133.9323  161.3771 H   0  0  0  0  0  0  0  0  0  0  0  0
  146.8962  133.6538  163.1564 H   0  0  0  0  0  0  0  0  0  0  0  0
  145.7604  134.5964  162.2042 H   0  0  0  0  0  0  0  0  0  0  0  0
  147.2133  135.3536  162.8599 H   0  0  0  0  0  0  0  0  0  0  0  0
  149.9915  135.7332  157.5003 H   0  0  0  0  0  0  0  0  0  0  0  0
  148.6919  136.8783  157.6235 H   0  0  0  0  0  0  0  0  0  0  0  0
  150.4712  137.6304  155.5891 H   0  0  0  0  0  0  0  0  0  0  0  0
  152.1144  139.4639  155.2211 H   0  0  0  0  0  0  0  0  0  0  0  0
  153.0066  142.0963  158.8135 H   0  0  0  0  0  0  0  0  0  0  0  0
  151.4772  141.7429  159.5881 H   0  0  0  0  0  0  0  0  0  0  0  0
  152.9045  143.2152  161.0175 H   0  0  0  0  0  0  0  0  0  0  0  0
  152.5379  141.7044  161.8268 H   0  0  0  0  0  0  0  0  0  0  0  0
  155.8250  140.3451  161.2351 H   0  0  0  0  0  0  0  0  0  0  0  0
  154.2610  140.0092  161.9528 H   0  0  0  0  0  0  0  0  0  0  0  0
  154.4593  138.7849  159.8100 H   0  0  0  0  0  0  0  0  0  0  0  0
  154.8825  140.2609  158.9525 H   0  0  0  0  0  0  0  0  0  0  0  0
  151.1340  138.1312  159.8451 H   0  0  0  0  0  0  0  0  0  0  0  0
  1  2  1  0  0  0  0
  1 23  1  0  0  0  0
  1 24  1  0  0  0  0
  1 25  1  0  0  0  0
  2  3  1  0  0  0  0
  2 26  1  0  0  0  0
  2 27  1  0  0  0  0
  3  4  1  0  0  0  0
  3  6  1  0  0  0  0
  4  5  1  0  0  0  0
  4 28  1  0  0  0  0
  4 29  1  0  0  0  0
  5 30  1  0  0  0  0
  5 31  1  0  0  0  0
  5 32  1  0  0  0  0
  6  7  2  0  0  0  0
  6  8  2  0  0  0  0
  6  9  1  0  0  0  0
  9 10  1  0  0  0  0
 10 11  1  0  0  0  0
 10 33  1  0  0  0  0
 10 34  1  0  0  0  0
 11 22  1  0  0  0  0
 11 12  2  0  0  0  0
 12 13  1  0  0  0  0
 12 35  1  0  0  0  0
 13 14  2  0  0  0  0
 13 36  1  0  0  0  0
 14 15  1  0  0  0  0
 15 16  1  0  0  0  0
 15 22  2  0  0  0  0
 16 21  1  0  0  0  0
 16 17  1  0  0  0  0
 17 18  1  0  0  0  0
 17 37  1  0  0  0  0
 17 38  1  0  0  0  0
 18 19  1  0  0  0  0
 18 39  1  0  0  0  0
 18 40  1  0  0  0  0
 19 20  1  0  0  0  0
 20 21  1  0  0  0  0
 20 41  1  0  0  0  0
 20 42  1  0  0  0  0
 21 43  1  0  0  0  0
 21 44  1  0  0  0  0
 22 45  1  0  0  0  0
M  CHG  1   9  -1
M  END
> <s_m_source_file>
AV-unprocessed.smi

> <i_m_source_file_index>
2110

> <i_lp_mmshare_version>
43012

> <i_f3d_flags>
0

> <s_epik_input>
W0NIM11bQ0gyXU4oW0NIMl1bQ0gzXSlTKD1PKSg9TylbTkhdW0NIMl1jMVtjSF1bY0hdbmMoW2NIXTEpTjJbQ0gyXVtDSDJdT1tDSDJdW0NIMl0y

> <s_epik_cmdline>
J2VwaWtfcHl0aG9uJywgJy1waCcsICc3LjAnLCAnLXRuJywgJzgnLCAnLW1hJywgJzIwMCcsICctbWV0YWxfYmluZGluZycsICctaW1hZScsICc8aW5maWxlLm1hZT4nLCAnLW9tYWUnLCAnPG91dGZpbGUubWFlPic=

> <r_lp_tautomer_probability>
1

> <r_epik_Ionization_Penalty>
2.67693

> <r_epik_Ionization_Penalty_Charging>
2.41478

> <r_epik_Ionization_Penalty_Neutral>
0.262148

> <r_epik_State_Penalty>
2.66454

> <r_epik_Charging_Adjusted_Penalty>
5.07933

> <i_epik_Tot_Q>
-1

> <i_epik_Tot_abs_Q>
1

> <r_epik_Metal_State_Penalty>
0.588443

> <b_epik_Metal_Only>
0

> <s_lp_Force_Field>
OPLS_2005

> <r_lp_Energy>
11.2641

> <b_lp_Chiralities_Consistent>
1

> <s_lp_Variant>
AV-unprocessed.smi:2110-3

> <Gold.Version>
5.8.1

> <Gold.Id.Protein>
6NUR|6NUR_protein|mol2

> <Gold.PLP.Fitness>
48.2960

> <Gold.PLP.PLP>
-33.9126

> <Gold.PLP.part.hbond>
-5.0929

> <Gold.PLP.part.metal>
0.0000

> <Gold.PLP.part.buried>
-2.6772

> <Gold.PLP.part.nonpolar>
-25.8675

> <Gold.PLP.part.repulsive>
0.0000

> <Gold.PLP.ligand.clash>
0.0000

> <Gold.PLP.ligand.torsion>
1.8867

> <Gold.PLP.Chemscore.Hbond>
4.8160

> <Gold.PLP.Chemscore.CHOScore>
0.0000

> <Gold.PLP.Chemscore.Metal>
0.0000

> <Gold.Chemscore.Hbonds>
donor molecule, donor type, donor heavy atom, donor atom, acceptor molecule, acceptor atom, score
      P1  H  6896  6909       L1     9  2.00
      P1  H  6931  6943       L1     8  1.00
      P1  H  6934  6947       L1     7  0.70
      P1  H  7997  8009       L1    14  1.00

> <Gold.PLP.Chemscore.Internal.Correction>
3.7089

> <Gold.Rescore>
     Score         DG    S(hbond)    S(metal)    S(lipo)     H(rot)  DE(clash)    DE(int)     intcor
     15.60     -17.90       2.52        0.00      70.64       1.66       0.32       1.99       ----

> <Gold.Chemscore.Fitness>
15.5957

> <Gold.Chemscore.DG>
-17.9026

> <Gold.Chemscore.ZeroCoef>
-5.4800

> <Gold.Chemscore.Hbond>
2.5203

> <Gold.Chemscore.Metal>
0.0000

> <Gold.Chemscore.Lipo>
70.6422

> <Gold.Chemscore.Internal_Hbond>
0.0000

> <Gold.Chemscore.DEClash>
0.3152

> <Gold.Chemscore.DEInternal>
1.9917

> <Gold.Chemscore.Rot>
1.6642

> <Gold.Chemscore.Internal.Correction>
   9.000000E+99

> <Gold.Chemscore.Hbonds>
donor molecule, donor type, donor heavy atom, donor atom, acceptor molecule, acceptor atom, score
      P1  H  6896  6909       L1     9  0.29
      P1  H  6931  6943       L1     8  0.68
      P1  H  6934  6947       L1     7  0.13
      P1  H  7997  8009       L1    14  0.67

> <Gold.Chemscore.Hbond.Weighted>
-8.4178

> <Gold.Chemscore.Metal.Weighted>
-0.0000

> <Gold.Chemscore.Lipo.Weighted>
-8.2651

> <Gold.Chemscore.Internal_Hbond.Weighted>
0.0000

> <Gold.Chemscore.DEClash.Weighted>
0.3152

> <Gold.Chemscore.DEInternal.Weighted>
1.9917

> <Gold.Chemscore.Rot.Weighted>
4.2604

> <Gold.Chemscore.Internal.Correction.Weighted>
   9.000000E+99

> <Gold.Protein.RotatedTorsions>
[ 6907 6896 6895 6894 ] final   62.17 input  -60.11 | X-H torsion
[ 7974 7965 7964 7962 ] final -178.42 input  175.53 | X-H torsion
[ 8008 7997 7996 7995 ] final  168.90 input   59.86 | X-H torsion
[ 10167 10162 10161 10158 ] final  -36.52 input  -65.29 | X-H torsion
[ 10718 10713 10712 10709 ] final   20.86 input   66.30 | X-H torsion
[ 10763 10752 10751 10750 ] final  -96.12 input  -60.55 | X-H torsion
[ 11005 11000 10999 10996 ] final  -68.85 input  -57.11 | X-H torsion

> <Gold.Protein.ActiveResidues>
 VAL166  LYS551  ARG553  GLY616  TRP617  ASP618  TYR619  PRO620  LYS621  CYS622 
 ASP623  PHE694  ASN695  SER759  ASP760  ASP761  ALA762  ILE779  LEU786  VAL792 
 PHE793  MET794  SER795  GLU796  ALA797  LYS798  CYS799  TRP800  GLU811  SER814 

> <Gold.Protein.RotatedAtoms>
  152.4150  134.6057  160.0011 H   0  0  0  0  0  0  0  0  0  0  0  0  # atno 6907 bound_to 6896
  151.6223  133.3332  159.3099 H   0  0  0  0  0  0  0  0  0  0  0  0  # atno 6908 bound_to 6896
  150.8039  134.7191  159.6692 H   0  0  0  0  0  0  0  0  0  0  0  0  # atno 6909 bound_to 6896
  144.7131  140.0871  143.6423 H   0  0  0  0  0  0  0  0  0  0  0  0  # atno 7974 bound_to 7965
  156.1505  140.1578  156.8777 H   0  0  0  0  0  0  0  0  0  0  0  0  # atno 8008 bound_to 7997
  154.5067  140.0811  156.7946 H   0  0  0  0  0  0  0  0  0  0  0  0  # atno 8009 bound_to 7997
  155.3904  140.3409  155.4253 H   0  0  0  0  0  0  0  0  0  0  0  0  # atno 8010 bound_to 7997
  140.7140  143.3403  151.2372 H   0  0  0  0  0  0  0  0  0  0  0  0  # atno 10167 bound_to 10162
  157.1304  130.6588  149.5950 H   0  0  0  0  0  0  0  0  0  0  0  0  # atno 10718 bound_to 10713
  154.7211  135.5095  153.8813 H   0  0  0  0  0  0  0  0  0  0  0  0  # atno 10763 bound_to 10752
  153.0863  135.6646  153.9951 H   0  0  0  0  0  0  0  0  0  0  0  0  # atno 10764 bound_to 10752
  153.9774  135.3032  155.3402 H   0  0  0  0  0  0  0  0  0  0  0  0  # atno 10765 bound_to 10752
  141.1541  133.6750  156.6509 H   0  0  0  0  0  0  0  0  0  0  0  0  # atno 11005 bound_to 11000
  145.9652  139.2829  143.1132 LP  0  0  0  0  0  0  0  0  0  0  0  0  # atno 17320 bound_to 7965
  145.9177  140.9137  143.0421 LP  0  0  0  0  0  0  0  0  0  0  0  0  # atno 17321 bound_to 7965
  139.6909  143.9694  152.2858 LP  0  0  0  0  0  0  0  0  0  0  0  0  # atno 17342 bound_to 10162
  139.9355  144.6714  150.8319 LP  0  0  0  0  0  0  0  0  0  0  0  0  # atno 17343 bound_to 10162
  155.9809  130.4813  150.6799 LP  0  0  0  0  0  0  0  0  0  0  0  0  # atno 17370 bound_to 10713
  157.4398  131.0860  151.0955 LP  0  0  0  0  0  0  0  0  0  0  0  0  # atno 17371 bound_to 10713
  140.3321  134.7920  157.4334 LP  0  0  0  0  0  0  0  0  0  0  0  0  # atno 17394 bound_to 11000
  140.1008  134.5475  155.8355 LP  0  0  0  0  0  0  0  0  0  0  0  0  # atno 17395 bound_to 11000

$$$$
