AV-unprocessed.smi:1762|AV-procd|sdf|7123|dock3
  -GOLD-   22720 8353D 1   1.00000     0.00000
 Structure written by MMmdl.
 52 53  0  0  0  0  0  0  0  0  3 V2000
  148.8903  140.9876  154.3968 C   0  0  0  0  0  0  0  0  0  0  0  0
  149.4191  139.5605  154.2152 C   0  0  2  0  0  0  0  0  0  0  0  0
  148.5475  138.5221  154.9468 C   0  0  0  0  0  0  0  0  0  0  0  0
  149.1188  137.1530  154.8172 N   0  3  2  0  0  0  0  0  0  0  0  0
  148.3095  136.0627  155.4603 C   0  0  2  0  0  0  0  0  0  0  0  0
  148.5999  135.9862  156.9795 C   0  0  0  0  0  0  0  0  0  0  0  0
  149.3337  135.0819  157.3943 O   0  0  0  0  0  0  0  0  0  0  0  0
  147.9832  136.9950  157.6534 N   0  5  0  0  0  0  0  0  0  0  0  0
  148.4923  137.5760  158.8943 C   0  0  0  0  0  0  0  0  0  0  0  0
  148.9335  136.4605  159.8705 C   0  0  0  0  0  0  0  0  0  0  0  0
  147.8873  136.0514  160.9059 C   0  0  0  0  0  0  0  0  0  0  0  0
  147.5348  134.6926  161.0724 C   0  0  0  0  0  0  0  0  0  0  0  0
  146.5650  134.3588  162.0368 C   0  0  0  0  0  0  0  0  0  0  0  0
  145.9758  135.3907  162.7912 C   0  0  0  0  0  0  0  0  0  0  0  0
  146.3831  136.7166  162.5443 C   0  0  0  0  0  0  0  0  0  0  0  0
  147.3122  137.0481  161.6226 N   0  0  0  0  0  0  0  0  0  0  0  0
  148.4610  134.6544  154.7885 C   0  0  0  0  0  0  0  0  0  0  0  0
  147.4547  133.6182  155.3256 C   0  0  0  0  0  0  0  0  0  0  0  0
  149.8909  134.0761  154.8340 C   0  0  0  0  0  0  0  0  0  0  0  0
  150.5376  137.1747  155.2768 C   0  0  0  0  0  0  0  0  0  0  0  0
  151.3503  138.2440  154.5258 C   0  0  2  0  0  0  0  0  0  0  0  0
  152.7977  138.3246  155.0236 C   0  0  0  0  0  0  0  0  0  0  0  0
  150.7426  139.5123  154.7297 O   0  0  0  0  0  0  0  0  0  0  0  0
  147.8772  141.0846  154.0059 H   0  0  0  0  0  0  0  0  0  0  0  0
  149.5190  141.7058  153.8701 H   0  0  0  0  0  0  0  0  0  0  0  0
  148.8714  141.2709  155.4494 H   0  0  0  0  0  0  0  0  0  0  0  0
  149.4400  139.3338  153.1476 H   0  0  0  0  0  0  0  0  0  0  0  0
  148.4548  138.7777  156.0035 H   0  0  0  0  0  0  0  0  0  0  0  0
  147.5517  138.5772  154.5117 H   0  0  0  0  0  0  0  0  0  0  0  0
  147.2669  136.3550  155.3112 H   0  0  0  0  0  0  0  0  0  0  0  0
  149.3328  138.2515  158.7273 H   0  0  0  0  0  0  0  0  0  0  0  0
  147.7241  138.1784  159.3803 H   0  0  0  0  0  0  0  0  0  0  0  0
  149.2024  135.5747  159.2936 H   0  0  0  0  0  0  0  0  0  0  0  0
  149.8464  136.7613  160.3862 H   0  0  0  0  0  0  0  0  0  0  0  0
  148.0100  133.9226  160.4826 H   0  0  0  0  0  0  0  0  0  0  0  0
  146.2802  133.3295  162.1959 H   0  0  0  0  0  0  0  0  0  0  0  0
  145.2293  135.1723  163.5402 H   0  0  0  0  0  0  0  0  0  0  0  0
  145.9491  137.5334  163.1016 H   0  0  0  0  0  0  0  0  0  0  0  0
  148.1888  134.7587  153.7392 H   0  0  0  0  0  0  0  0  0  0  0  0
  147.6568  133.3487  156.3630 H   0  0  0  0  0  0  0  0  0  0  0  0
  147.4892  132.6992  154.7403 H   0  0  0  0  0  0  0  0  0  0  0  0
  146.4348  134.0000  155.2733 H   0  0  0  0  0  0  0  0  0  0  0  0
  150.1811  133.7961  155.8465 H   0  0  0  0  0  0  0  0  0  0  0  0
  150.6317  134.7830  154.4617 H   0  0  0  0  0  0  0  0  0  0  0  0
  149.9632  133.1779  154.2202 H   0  0  0  0  0  0  0  0  0  0  0  0
  150.5662  137.3668  156.3508 H   0  0  0  0  0  0  0  0  0  0  0  0
  151.0196  136.2102  155.1187 H   0  0  0  0  0  0  0  0  0  0  0  0
  151.3635  138.0152  153.4586 H   0  0  0  0  0  0  0  0  0  0  0  0
  153.3154  137.3755  154.8818 H   0  0  0  0  0  0  0  0  0  0  0  0
  152.8375  138.5725  156.0847 H   0  0  0  0  0  0  0  0  0  0  0  0
  153.3542  139.0898  154.4818 H   0  0  0  0  0  0  0  0  0  0  0  0
  149.1360  136.9382  153.8303 H   0  0  0  0  0  0  0  0  0  0  0  0
  1  2  1  0  0  0  0
  1 24  1  0  0  0  0
  1 25  1  0  0  0  0
  1 26  1  0  0  0  0
  2 23  1  0  0  0  0
  2  3  1  0  0  0  0
  2 27  1  0  0  0  0
  3  4  1  0  0  0  0
  3 28  1  0  0  0  0
  3 29  1  0  0  0  0
  4  5  1  0  0  0  0
  4 20  1  0  0  0  0
  4 52  1  0  0  0  0
  5  6  1  0  0  0  0
  5 17  1  0  0  0  0
  5 30  1  0  0  0  0
  6  7  2  0  0  0  0
  6  8  1  0  0  0  0
  8  9  1  0  0  0  0
  9 10  1  0  0  0  0
  9 31  1  0  0  0  0
  9 32  1  0  0  0  0
 10 11  1  0  0  0  0
 10 33  1  0  0  0  0
 10 34  1  0  0  0  0
 11 16  1  0  0  0  0
 11 12  2  0  0  0  0
 12 13  1  0  0  0  0
 12 35  1  0  0  0  0
 13 14  2  0  0  0  0
 13 36  1  0  0  0  0
 14 15  1  0  0  0  0
 14 37  1  0  0  0  0
 15 16  2  0  0  0  0
 15 38  1  0  0  0  0
 17 18  1  0  0  0  0
 17 19  1  0  0  0  0
 17 39  1  0  0  0  0
 18 40  1  0  0  0  0
 18 41  1  0  0  0  0
 18 42  1  0  0  0  0
 19 43  1  0  0  0  0
 19 44  1  0  0  0  0
 19 45  1  0  0  0  0
 20 21  1  0  0  0  0
 20 46  1  0  0  0  0
 20 47  1  0  0  0  0
 21 22  1  0  0  0  0
 21 23  1  0  0  0  0
 21 48  1  0  0  0  0
 22 49  1  0  0  0  0
 22 50  1  0  0  0  0
 22 51  1  0  0  0  0
M  CHG  1   4   1
M  CHG  1   8  -1
M  END
> <s_m_source_file>
AV-unprocessed.smi

> <i_m_source_file_index>
1762

> <i_lp_mmshare_version>
43012

> <i_f3d_flags>
0

> <s_epik_input>
W0NIM11bQ0BASF0xW0NIMl1OKFtDSDJdW0NASF0oTzEpW0NIM10pW0NAQEhdKFtDSF0oW0NIM10pW0NIM10pQyg9TylbTkhdW0NIMl1bQ0gyXWMyW2NIXVtjSF1bY0hdW2NIXW4y

> <s_epik_cmdline>
J2VwaWtfcHl0aG9uJywgJy1waCcsICc3LjAnLCAnLXRuJywgJzgnLCAnLW1hJywgJzIwMCcsICctbWV0YWxfYmluZGluZycsICctaW1hZScsICc8aW5maWxlLm1hZT4nLCAnLW9tYWUnLCAnPG91dGZpbGUubWFlPic=

> <r_epik_Ionization_Penalty>
7.82966

> <r_epik_Ionization_Penalty_Charging>
7.7461

> <r_epik_Ionization_Penalty_Neutral>
0.0835571

> <r_epik_State_Penalty>
8.52273

> <r_epik_Charging_Adjusted_Penalty>
16.2688

> <i_epik_Tot_Q>
0

> <i_epik_Tot_abs_Q>
2

> <r_epik_Metal_State_Penalty>
4.47451

> <b_epik_Metal_Only>
1

> <s_lp_Force_Field>
OPLS_2005

> <r_lp_Energy>
21.039

> <b_lp_Chiralities_Consistent>
1

> <s_lp_Variant>
AV-unprocessed.smi:1762-25

> <Gold.Version>
5.8.1

> <Gold.Id.Protein>
6NUR|6NUR_protein|mol2

> <Gold.PLP.Fitness>
51.2220

> <Gold.PLP.PLP>
-39.5746

> <Gold.PLP.part.hbond>
-4.0000

> <Gold.PLP.part.metal>
0.0000

> <Gold.PLP.part.buried>
-3.1257

> <Gold.PLP.part.nonpolar>
-32.6002

> <Gold.PLP.part.repulsive>
0.1032

> <Gold.PLP.ligand.clash>
0.0000

> <Gold.PLP.ligand.torsion>
1.6217

> <Gold.PLP.Chemscore.Hbond>
4.8000

> <Gold.PLP.Chemscore.CHOScore>
0.0000

> <Gold.PLP.Chemscore.Metal>
0.0000

> <Gold.Chemscore.Hbonds>
donor molecule, donor type, donor heavy atom, donor atom, acceptor molecule, acceptor atom, score
      L1  H     4    52       P1  7948  1.76
      P1  H  6931  6943       L1    16  0.73
      P1  H  6934  6947       L1    16  0.77
      P1  H  7989  7998       L1    23  0.94

> <Gold.PLP.Chemscore.Internal.Correction>
0.4907

> <Gold.Rescore>
     Score         DG    S(hbond)    S(metal)    S(lipo)     H(rot)  DE(clash)    DE(int)     intcor
     16.62     -22.93       2.63        0.00     109.09       1.60       1.38       4.93       ----

> <Gold.Chemscore.Fitness>
16.6204

> <Gold.Chemscore.DG>
-22.9324

> <Gold.Chemscore.ZeroCoef>
-5.4800

> <Gold.Chemscore.Hbond>
2.6311

> <Gold.Chemscore.Metal>
0.0000

> <Gold.Chemscore.Lipo>
109.0911

> <Gold.Chemscore.Internal_Hbond>
0.0000

> <Gold.Chemscore.DEClash>
1.3784

> <Gold.Chemscore.DEInternal>
4.9336

> <Gold.Chemscore.Rot>
1.6012

> <Gold.Chemscore.Internal.Correction>
   9.000000E+99

> <Gold.Chemscore.Hbonds>
donor molecule, donor type, donor heavy atom, donor atom, acceptor molecule, acceptor atom, score
      L1  H     4    52       P1  7948  0.85
      P1  H  6931  6943       L1    16  0.16
      P1  H  6934  6947       L1    16  0.65
      P1  H  7989  7998       L1    23  0.13

> <Gold.Chemscore.Hbond.Weighted>
-8.7878

> <Gold.Chemscore.Metal.Weighted>
-0.0000

> <Gold.Chemscore.Lipo.Weighted>
-12.7637

> <Gold.Chemscore.Internal_Hbond.Weighted>
0.0000

> <Gold.Chemscore.DEClash.Weighted>
1.3784

> <Gold.Chemscore.DEInternal.Weighted>
4.9336

> <Gold.Chemscore.Rot.Weighted>
4.0990

> <Gold.Chemscore.Internal.Correction.Weighted>
   9.000000E+99

> <Gold.Protein.RotatedTorsions>
[ 6907 6896 6895 6894 ] final    9.94 input  -60.11 | X-H torsion
[ 7974 7965 7964 7962 ] final  106.31 input  175.53 | X-H torsion
[ 8008 7997 7996 7995 ] final  114.02 input   59.86 | X-H torsion
[ 10167 10162 10161 10158 ] final -149.26 input  -65.29 | X-H torsion
[ 10718 10713 10712 10709 ] final -113.79 input   66.30 | X-H torsion
[ 10763 10752 10751 10750 ] final   -4.00 input  -60.55 | X-H torsion
[ 11005 11000 10999 10996 ] final  -42.90 input  -57.11 | X-H torsion

> <Gold.Protein.ActiveResidues>
 VAL166  LYS551  ARG553  GLY616  TRP617  ASP618  TYR619  PRO620  LYS621  CYS622 
 ASP623  PHE694  ASN695  SER759  ASP760  ASP761  ALA762  ILE779  LEU786  VAL792 
 PHE793  MET794  SER795  GLU796  ALA797  LYS798  CYS799  TRP800  GLU811  SER814 

> <Gold.Protein.RotatedAtoms>
  151.7303  135.0876  160.0298 H   0  0  0  0  0  0  0  0  0  0  0  0  # atno 6907 bound_to 6896
  152.3546  133.6216  159.5978 H   0  0  0  0  0  0  0  0  0  0  0  0  # atno 6908 bound_to 6896
  150.7562  133.9437  159.3505 H   0  0  0  0  0  0  0  0  0  0  0  0  # atno 6909 bound_to 6896
  145.3083  139.2548  143.3777 H   0  0  0  0  0  0  0  0  0  0  0  0  # atno 7974 bound_to 7965
  156.2295  140.2968  156.0151 H   0  0  0  0  0  0  0  0  0  0  0  0  # atno 8008 bound_to 7997
  155.2265  140.0417  157.2973 H   0  0  0  0  0  0  0  0  0  0  0  0  # atno 8009 bound_to 7997
  154.5971  140.2417  155.7850 H   0  0  0  0  0  0  0  0  0  0  0  0  # atno 8010 bound_to 7997
  139.7458  143.8592  152.2574 H   0  0  0  0  0  0  0  0  0  0  0  0  # atno 10167 bound_to 10162
  156.0789  130.5992  150.8689 H   0  0  0  0  0  0  0  0  0  0  0  0  # atno 10718 bound_to 10713
  153.3789  135.6997  153.6580 H   0  0  0  0  0  0  0  0  0  0  0  0  # atno 10763 bound_to 10752
  153.5200  135.3614  155.2628 H   0  0  0  0  0  0  0  0  0  0  0  0  # atno 10764 bound_to 10752
  154.8690  135.4155  154.3083 H   0  0  0  0  0  0  0  0  0  0  0  0  # atno 10765 bound_to 10752
  141.0348  133.6805  156.2659 H   0  0  0  0  0  0  0  0  0  0  0  0  # atno 11005 bound_to 11000
  146.3127  140.3613  142.8665 LP  0  0  0  0  0  0  0  0  0  0  0  0  # atno 17320 bound_to 7965
  144.9037  140.7673  143.5851 LP  0  0  0  0  0  0  0  0  0  0  0  0  # atno 17321 bound_to 7965
  139.8556  144.7143  150.9161 LP  0  0  0  0  0  0  0  0  0  0  0  0  # atno 17342 bound_to 10162
  140.7792  143.3861  151.1391 LP  0  0  0  0  0  0  0  0  0  0  0  0  # atno 17343 bound_to 10162
  157.5897  131.0945  150.9139 LP  0  0  0  0  0  0  0  0  0  0  0  0  # atno 17370 bound_to 10713
  156.9318  130.5352  149.5279 LP  0  0  0  0  0  0  0  0  0  0  0  0  # atno 17371 bound_to 10713
  140.6343  134.5232  157.5563 LP  0  0  0  0  0  0  0  0  0  0  0  0  # atno 17394 bound_to 11000
  139.9233  134.8106  156.1146 LP  0  0  0  0  0  0  0  0  0  0  0  0  # atno 17395 bound_to 11000

$$$$
