AV-unprocessed.smi:970|AV-procd|sdf|4291|dock1
  -GOLD-   22720 2193D 1   1.00000     0.00000
 Structure written by MMmdl.
 31 31  0  0  0  0  0  0  0  0  1 V2000
  151.9277  145.2412  160.0381 C   0  0  0  0  0  0  0  0  0  0  0  0
  152.1049  143.8444  159.6722 N   0  0  0  0  0  0  0  0  0  0  0  0
  152.4583  142.8788  160.5325 C   0  0  0  0  0  0  0  0  0  0  0  0
  152.6629  143.0866  161.7300 O   0  0  0  0  0  0  0  0  0  0  0  0
  152.5796  141.4607  159.9512 C   0  0  2  0  0  0  0  0  0  0  0  0
  154.0019  140.9507  160.2368 C   0  0  0  0  0  0  0  0  0  0  0  0
  152.3941  141.4838  158.5017 N   0  0  0  0  0  0  0  0  0  0  0  0
  151.6762  140.5951  157.7943 C   0  0  0  0  0  0  0  0  0  0  0  0
  151.0885  139.6459  158.3150 O   0  0  0  0  0  0  0  0  0  0  0  0
  151.6068  140.8290  156.2744 C   0  0  2  0  0  0  0  0  0  0  0  0
  150.3697  141.6422  155.8423 C   0  0  0  0  0  0  0  0  0  0  0  0
  151.6988  139.5668  155.5495 N   0  0  0  0  0  0  0  0  0  0  0  0
  152.4047  138.4679  155.8251 C   0  0  0  0  0  0  0  0  0  0  0  0
  152.2224  137.4798  154.9606 N   0  0  0  0  0  0  0  0  0  0  0  0
  151.3241  138.0745  154.1207 C   0  0  0  0  0  0  0  0  0  0  0  0
  150.9720  139.3221  154.4305 N   0  0  0  0  0  0  0  0  0  0  0  0
  151.6800  145.8291  159.1544 H   0  0  0  0  0  0  0  0  0  0  0  0
  152.8410  145.6490  160.4737 H   0  0  0  0  0  0  0  0  0  0  0  0
  151.1175  145.3521  160.7600 H   0  0  0  0  0  0  0  0  0  0  0  0
  151.9520  143.5960  158.7053 H   0  0  0  0  0  0  0  0  0  0  0  0
  151.8502  140.7937  160.4153 H   0  0  0  0  0  0  0  0  0  0  0  0
  154.1971  140.9023  161.3088 H   0  0  0  0  0  0  0  0  0  0  0  0
  154.7629  141.5911  159.7880 H   0  0  0  0  0  0  0  0  0  0  0  0
  154.1416  139.9457  159.8374 H   0  0  0  0  0  0  0  0  0  0  0  0
  152.8378  142.2398  158.0009 H   0  0  0  0  0  0  0  0  0  0  0  0
  152.4884  141.4154  156.0105 H   0  0  0  0  0  0  0  0  0  0  0  0
  150.3496  142.6186  156.3276 H   0  0  0  0  0  0  0  0  0  0  0  0
  149.4388  141.1301  156.0887 H   0  0  0  0  0  0  0  0  0  0  0  0
  150.3765  141.8148  154.7659 H   0  0  0  0  0  0  0  0  0  0  0  0
  153.0621  138.3877  156.6785 H   0  0  0  0  0  0  0  0  0  0  0  0
  150.9134  137.5712  153.2580 H   0  0  0  0  0  0  0  0  0  0  0  0
  1  2  1  0  0  0  0
  1 17  1  0  0  0  0
  1 18  1  0  0  0  0
  1 19  1  0  0  0  0
  2  3  1  0  0  0  0
  2 20  1  0  0  0  0
  3  4  2  0  0  0  0
  3  5  1  0  0  0  0
  5  6  1  0  0  0  0
  5  7  1  0  0  0  0
  5 21  1  0  0  0  0
  6 22  1  0  0  0  0
  6 23  1  0  0  0  0
  6 24  1  0  0  0  0
  7  8  1  0  0  0  0
  7 25  1  0  0  0  0
  8  9  2  0  0  0  0
  8 10  1  0  0  0  0
 10 11  1  0  0  0  0
 10 12  1  0  0  0  0
 10 26  1  0  0  0  0
 11 27  1  0  0  0  0
 11 28  1  0  0  0  0
 11 29  1  0  0  0  0
 12 16  1  0  0  0  0
 12 13  1  0  0  0  0
 13 14  2  0  0  0  0
 13 30  1  0  0  0  0
 14 15  1  0  0  0  0
 15 16  2  0  0  0  0
 15 31  1  0  0  0  0
M  END
> <s_m_source_file>
AV-unprocessed.smi

> <i_m_source_file_index>
970

> <i_lp_mmshare_version>
43012

> <i_f3d_flags>
0

> <s_epik_input>
W0NIM11bTkhdQyg9TylbQ0BIXShbQ0gzXSlbTkhdQyg9TylbQ0BIXShbQ0gzXSluMVtjSF1uW2NIXW4x

> <s_epik_cmdline>
J2VwaWtfcHl0aG9uJywgJy1waCcsICc3LjAnLCAnLXRuJywgJzgnLCAnLW1hJywgJzIwMCcsICctbWV0YWxfYmluZGluZycsICctaW1hZScsICc8aW5maWxlLm1hZT4nLCAnLW9tYWUnLCAnPG91dGZpbGUubWFlPic=

> <r_lp_tautomer_probability>
1

> <r_epik_Ionization_Penalty>
1.07271e-05

> <r_epik_Ionization_Penalty_Charging>
0

> <r_epik_Ionization_Penalty_Neutral>
1.07271e-05

> <r_epik_State_Penalty>
-0

> <r_epik_Charging_Adjusted_Penalty>
0

> <i_epik_Tot_Q>
0

> <i_epik_Tot_abs_Q>
0

> <r_epik_Metal_State_Penalty>
-0

> <b_epik_Metal_Only>
0

> <s_lp_Force_Field>
OPLS_2005

> <r_lp_Energy>
8.61602

> <b_lp_Chiralities_Consistent>
1

> <s_lp_Variant>
AV-unprocessed.smi:970-1

> <Gold.Version>
5.8.1

> <Gold.Id.Protein>
6NUR|6NUR_protein|mol2

> <Gold.PLP.Fitness>
39.8587

> <Gold.PLP.PLP>
-34.8848

> <Gold.PLP.part.hbond>
-2.0000

> <Gold.PLP.part.metal>
0.0000

> <Gold.PLP.part.buried>
-6.7848

> <Gold.PLP.part.nonpolar>
-25.7472

> <Gold.PLP.part.repulsive>
0.4419

> <Gold.PLP.ligand.clash>
0.0000

> <Gold.PLP.ligand.torsion>
1.4167

> <Gold.PLP.Chemscore.Hbond>
1.4478

> <Gold.PLP.Chemscore.CHOScore>
1.1161

> <Gold.PLP.Chemscore.Metal>
0.0000

> <Gold.Chemscore.Hbonds>
donor molecule, donor type, donor heavy atom, donor atom, acceptor molecule, acceptor atom, score
      P1  H  7989  7998       L1    16  0.70
      P1  H 10752 10764       L1    14  0.71
      L1  C    15    31       P1  7948  0.15
      L1  C    15    31       P1  7949  0.97

> <Gold.PLP.Chemscore.Internal.Correction>
0.1154

> <Gold.Rescore>
     Score         DG    S(hbond)    S(metal)    S(lipo)     H(rot)  DE(clash)    DE(int)     intcor
      6.13      -7.18       0.91        0.00      45.08       2.59       0.00       1.05       ----

> <Gold.Chemscore.Fitness>
6.1319

> <Gold.Chemscore.DG>
-7.1818

> <Gold.Chemscore.ZeroCoef>
-5.4800

> <Gold.Chemscore.Hbond>
0.9119

> <Gold.Chemscore.Metal>
0.0000

> <Gold.Chemscore.Lipo>
45.0782

> <Gold.Chemscore.Internal_Hbond>
0.0000

> <Gold.Chemscore.DEClash>
0.0029

> <Gold.Chemscore.DEInternal>
1.0470

> <Gold.Chemscore.Rot>
2.5852

> <Gold.Chemscore.Internal.Correction>
   9.000000E+99

> <Gold.Chemscore.Hbonds>
donor molecule, donor type, donor heavy atom, donor atom, acceptor molecule, acceptor atom, score
      P1  H  7989  7998       L1    16  0.07
      P1  H 10752 10764       L1    14  0.66

> <Gold.Chemscore.Hbond.Weighted>
-3.0459

> <Gold.Chemscore.Metal.Weighted>
-0.0000

> <Gold.Chemscore.Lipo.Weighted>
-5.2741

> <Gold.Chemscore.Internal_Hbond.Weighted>
0.0000

> <Gold.Chemscore.DEClash.Weighted>
0.0029

> <Gold.Chemscore.DEInternal.Weighted>
1.0470

> <Gold.Chemscore.Rot.Weighted>
6.6182

> <Gold.Chemscore.Internal.Correction.Weighted>
   9.000000E+99

> <Gold.Protein.RotatedTorsions>
[ 6907 6896 6895 6894 ] final  -80.35 input  -60.11 | X-H torsion
[ 7974 7965 7964 7962 ] final  170.89 input  175.53 | X-H torsion
[ 8008 7997 7996 7995 ] final   95.59 input   59.86 | X-H torsion
[ 10167 10162 10161 10158 ] final  -42.13 input  -65.29 | X-H torsion
[ 10718 10713 10712 10709 ] final   82.60 input   66.30 | X-H torsion
[ 10763 10752 10751 10750 ] final  -59.70 input  -60.55 | X-H torsion
[ 11005 11000 10999 10996 ] final   34.93 input  -57.11 | X-H torsion

> <Gold.Protein.ActiveResidues>
 VAL166  LYS551  ARG553  GLY616  TRP617  ASP618  TYR619  PRO620  LYS621  CYS622 
 ASP623  PHE694  ASN695  SER759  ASP760  ASP761  ALA762  ILE779  LEU786  VAL792 
 PHE793  MET794  SER795  GLU796  ALA797  LYS798  CYS799  TRP800  GLU811  SER814 

> <Gold.Protein.RotatedAtoms>
  150.6931  134.3983  159.5107 H   0  0  0  0  0  0  0  0  0  0  0  0  # atno 6907 bound_to 6896
  152.1761  134.8791  160.0539 H   0  0  0  0  0  0  0  0  0  0  0  0  # atno 6908 bound_to 6896
  151.9799  133.3719  159.4140 H   0  0  0  0  0  0  0  0  0  0  0  0  # atno 6909 bound_to 6896
  144.7310  139.9269  143.6423 H   0  0  0  0  0  0  0  0  0  0  0  0  # atno 7974 bound_to 7965
  156.0705  140.3284  155.7570 H   0  0  0  0  0  0  0  0  0  0  0  0  # atno 8008 bound_to 7997
  155.5313  140.0593  157.2906 H   0  0  0  0  0  0  0  0  0  0  0  0  # atno 8009 bound_to 7997
  154.4527  140.1927  156.0487 H   0  0  0  0  0  0  0  0  0  0  0  0  # atno 8010 bound_to 7997
  140.6979  143.3055  151.3165 H   0  0  0  0  0  0  0  0  0  0  0  0  # atno 10167 bound_to 10162
  157.6861  131.0055  150.2399 H   0  0  0  0  0  0  0  0  0  0  0  0  # atno 10718 bound_to 10713
  154.2578  135.6314  153.5263 H   0  0  0  0  0  0  0  0  0  0  0  0  # atno 10763 bound_to 10752
  152.9901  135.5580  154.5737 H   0  0  0  0  0  0  0  0  0  0  0  0  # atno 10764 bound_to 10752
  154.5279  135.2886  155.1181 H   0  0  0  0  0  0  0  0  0  0  0  0  # atno 10765 bound_to 10752
  140.2479  134.3338  155.7901 H   0  0  0  0  0  0  0  0  0  0  0  0  # atno 11005 bound_to 11000
  146.0887  139.3876  143.0419 LP  0  0  0  0  0  0  0  0  0  0  0  0  # atno 17320 bound_to 7965
  145.7741  140.9884  143.1134 LP  0  0  0  0  0  0  0  0  0  0  0  0  # atno 17321 bound_to 7965
  139.6459  144.0452  152.2590 LP  0  0  0  0  0  0  0  0  0  0  0  0  # atno 17342 bound_to 10162
  139.9973  144.6319  150.7761 LP  0  0  0  0  0  0  0  0  0  0  0  0  # atno 17343 bound_to 10162
  156.3015  130.3759  149.7746 LP  0  0  0  0  0  0  0  0  0  0  0  0  # atno 17370 bound_to 10713
  156.5374  130.8285  151.3257 LP  0  0  0  0  0  0  0  0  0  0  0  0  # atno 17371 bound_to 10713
  141.2204  133.7336  156.8990 LP  0  0  0  0  0  0  0  0  0  0  0  0  # atno 17394 bound_to 11000
  140.1588  134.9180  157.2687 LP  0  0  0  0  0  0  0  0  0  0  0  0  # atno 17395 bound_to 11000

$$$$
