AV-unprocessed.smi:1537|AV-procd|sdf|6191|dock3
  -GOLD-   22720 6353D 1   1.00000     0.00000
 Structure written by MMmdl.
 43 43  0  0  0  0  0  0  0  0  1 V2000
  152.7626  142.2095  161.9901 C   0  0  0  0  0  0  0  0  0  0  0  0
  152.7000  143.1326  160.7689 C   0  0  0  0  0  0  0  0  0  0  0  0
  152.1902  142.4361  159.5520 C   0  0  0  0  0  0  0  0  0  0  0  0
  152.7281  141.3144  159.0664 N   0  0  0  0  0  0  0  0  0  0  0  0
  152.1019  140.8789  157.8933 C   0  0  0  0  0  0  0  0  0  0  0  0
  152.5756  139.6307  157.2077 C   0  0  0  0  0  0  0  0  0  0  0  0
  151.7695  139.3904  155.9304 C   0  0  0  0  0  0  0  0  0  0  0  0
  151.6957  140.2705  155.0728 O   0  0  0  0  0  0  0  0  0  0  0  0
  151.1666  138.1955  155.8186 N   0  0  0  0  0  0  0  0  0  0  0  0
  150.3409  137.7658  154.6919 C   0  0  1  0  0  0  0  0  0  0  0  0
  149.8853  136.3221  154.9615 C   0  0  0  0  0  0  0  0  0  0  0  0
  149.0870  138.6470  154.5688 C   0  0  0  0  0  0  0  0  0  0  0  0
  148.8433  139.5063  155.4172 O   0  0  0  0  0  0  0  0  0  0  0  0
  148.3008  138.3998  153.5061 N   0  0  0  0  0  0  0  0  0  0  0  0
  147.0524  139.0672  153.1185 C   0  0  0  0  0  0  0  0  0  0  0  0
  147.3034  140.5814  153.2252 C   0  0  0  0  0  0  0  0  0  0  0  0
  145.9083  138.6797  154.0790 C   0  0  0  0  0  0  0  0  0  0  0  0
  146.6795  138.7242  151.6609 C   0  0  0  0  0  0  0  0  0  0  0  0
  151.0734  141.6972  157.4954 C   0  0  0  0  0  0  0  0  0  0  0  0
  150.8649  143.0511  158.5714 S   0  0  0  0  0  0  0  0  0  0  0  0
  153.1411  142.7432  162.8620 H   0  0  0  0  0  0  0  0  0  0  0  0
  153.4212  141.3601  161.8070 H   0  0  0  0  0  0  0  0  0  0  0  0
  151.7749  141.8204  162.2397 H   0  0  0  0  0  0  0  0  0  0  0  0
  152.0582  143.9885  160.9808 H   0  0  0  0  0  0  0  0  0  0  0  0
  153.6916  143.5314  160.5530 H   0  0  0  0  0  0  0  0  0  0  0  0
  153.6353  139.6994  156.9581 H   0  0  0  0  0  0  0  0  0  0  0  0
  152.4708  138.7681  157.8671 H   0  0  0  0  0  0  0  0  0  0  0  0
  151.2804  137.5367  156.5754 H   0  0  0  0  0  0  0  0  0  0  0  0
  150.9224  137.8008  153.7683 H   0  0  0  0  0  0  0  0  0  0  0  0
  149.2657  135.9432  154.1476 H   0  0  0  0  0  0  0  0  0  0  0  0
  149.3081  136.2428  155.8842 H   0  0  0  0  0  0  0  0  0  0  0  0
  150.7433  135.6551  155.0524 H   0  0  0  0  0  0  0  0  0  0  0  0
  148.6080  137.6656  152.8850 H   0  0  0  0  0  0  0  0  0  0  0  0
  146.4143  141.1514  152.9528 H   0  0  0  0  0  0  0  0  0  0  0  0
  148.1108  140.8986  152.5639 H   0  0  0  0  0  0  0  0  0  0  0  0
  147.5781  140.8696  154.2407 H   0  0  0  0  0  0  0  0  0  0  0  0
  146.1741  138.8861  155.1165 H   0  0  0  0  0  0  0  0  0  0  0  0
  145.6528  137.6224  154.0086 H   0  0  0  0  0  0  0  0  0  0  0  0
  145.0012  139.2422  153.8554 H   0  0  0  0  0  0  0  0  0  0  0  0
  145.8072  139.2920  151.3359 H   0  0  0  0  0  0  0  0  0  0  0  0
  146.4368  137.6691  151.5356 H   0  0  0  0  0  0  0  0  0  0  0  0
  147.4960  138.9581  150.9768 H   0  0  0  0  0  0  0  0  0  0  0  0
  150.4337  141.5896  156.6318 H   0  0  0  0  0  0  0  0  0  0  0  0
  1  2  1  0  0  0  0
  1 21  1  0  0  0  0
  1 22  1  0  0  0  0
  1 23  1  0  0  0  0
  2  3  1  0  0  0  0
  2 24  1  0  0  0  0
  2 25  1  0  0  0  0
  3 20  1  0  0  0  0
  3  4  2  0  0  0  0
  4  5  1  0  0  0  0
  5  6  1  0  0  0  0
  5 19  2  0  0  0  0
  6  7  1  0  0  0  0
  6 26  1  0  0  0  0
  6 27  1  0  0  0  0
  7  8  2  0  0  0  0
  7  9  1  0  0  0  0
  9 10  1  0  0  0  0
  9 28  1  0  0  0  0
 10 11  1  0  0  0  0
 10 12  1  0  0  0  0
 10 29  1  0  0  0  0
 11 30  1  0  0  0  0
 11 31  1  0  0  0  0
 11 32  1  0  0  0  0
 12 13  2  0  0  0  0
 12 14  1  0  0  0  0
 14 15  1  0  0  0  0
 14 33  1  0  0  0  0
 15 16  1  0  0  0  0
 15 17  1  0  0  0  0
 15 18  1  0  0  0  0
 16 34  1  0  0  0  0
 16 35  1  0  0  0  0
 16 36  1  0  0  0  0
 17 37  1  0  0  0  0
 17 38  1  0  0  0  0
 17 39  1  0  0  0  0
 18 40  1  0  0  0  0
 18 41  1  0  0  0  0
 18 42  1  0  0  0  0
 19 20  1  0  0  0  0
 19 43  1  0  0  0  0
M  END
> <s_m_source_file>
AV-unprocessed.smi

> <i_m_source_file_index>
1537

> <i_lp_mmshare_version>
43012

> <i_f3d_flags>
0

> <s_epik_input>
W0NIM11bQ0gyXWMxbmMoW2NIXXMxKVtDSDJdQyg9TylbTkhdW0NASF0oW0NIM10pQyg9TylbTkhdQyhbQ0gzXSkoW0NIM10pW0NIM10=

> <s_epik_cmdline>
J2VwaWtfcHl0aG9uJywgJy1waCcsICc3LjAnLCAnLXRuJywgJzgnLCAnLW1hJywgJzIwMCcsICctbWV0YWxfYmluZGluZycsICctaW1hZScsICc8aW5maWxlLm1hZT4nLCAnLW9tYWUnLCAnPG91dGZpbGUubWFlPic=

> <r_lp_tautomer_probability>
1

> <r_epik_Ionization_Penalty>
4.05444e-05

> <r_epik_Ionization_Penalty_Charging>
0

> <r_epik_Ionization_Penalty_Neutral>
4.05444e-05

> <r_epik_State_Penalty>
-0

> <r_epik_Charging_Adjusted_Penalty>
0

> <i_epik_Tot_Q>
0

> <i_epik_Tot_abs_Q>
0

> <r_epik_Metal_State_Penalty>
-0

> <b_epik_Metal_Only>
0

> <s_lp_Force_Field>
OPLS_2005

> <r_lp_Energy>
-2.34744

> <b_lp_Chiralities_Consistent>
1

> <s_lp_Variant>
AV-unprocessed.smi:1537-2

> <Gold.Version>
5.8.1

> <Gold.Id.Protein>
6NUR|6NUR_protein|mol2

> <Gold.PLP.Fitness>
41.4375

> <Gold.PLP.PLP>
-36.3320

> <Gold.PLP.part.hbond>
-2.5827

> <Gold.PLP.part.metal>
0.0000

> <Gold.PLP.part.buried>
-0.2917

> <Gold.PLP.part.nonpolar>
-33.7476

> <Gold.PLP.part.repulsive>
0.1809

> <Gold.PLP.ligand.clash>
0.0000

> <Gold.PLP.ligand.torsion>
0.3782

> <Gold.PLP.Chemscore.Hbond>
1.9280

> <Gold.PLP.Chemscore.CHOScore>
0.0000

> <Gold.PLP.Chemscore.Metal>
0.0000

> <Gold.Chemscore.Hbonds>
donor molecule, donor type, donor heavy atom, donor atom, acceptor molecule, acceptor atom, score
      L1  H    14    33       P1  7948  1.00
      P1  H  7989  7998       L1     8  0.90

> <Gold.PLP.Chemscore.Internal.Correction>
0.0779

> <Gold.Rescore>
     Score         DG    S(hbond)    S(metal)    S(lipo)     H(rot)  DE(clash)    DE(int)     intcor
     15.78     -18.79       1.97        0.00      98.63       1.88       0.45       2.56       ----

> <Gold.Chemscore.Fitness>
15.7825

> <Gold.Chemscore.DG>
-18.7918

> <Gold.Chemscore.ZeroCoef>
-5.4800

> <Gold.Chemscore.Hbond>
1.9688

> <Gold.Chemscore.Metal>
0.0000

> <Gold.Chemscore.Lipo>
98.6342

> <Gold.Chemscore.Internal_Hbond>
0.0000

> <Gold.Chemscore.DEClash>
0.4451

> <Gold.Chemscore.DEInternal>
2.5642

> <Gold.Chemscore.Rot>
1.8766

> <Gold.Chemscore.Internal.Correction>
   9.000000E+99

> <Gold.Chemscore.Hbonds>
donor molecule, donor type, donor heavy atom, donor atom, acceptor molecule, acceptor atom, score
      L1  H    14    33       P1  7948  1.00
      P1  H  7989  7998       L1     8  0.88

> <Gold.Chemscore.Hbond.Weighted>
-6.5757

> <Gold.Chemscore.Metal.Weighted>
-0.0000

> <Gold.Chemscore.Lipo.Weighted>
-11.5402

> <Gold.Chemscore.Internal_Hbond.Weighted>
0.0000

> <Gold.Chemscore.DEClash.Weighted>
0.4451

> <Gold.Chemscore.DEInternal.Weighted>
2.5642

> <Gold.Chemscore.Rot.Weighted>
4.8042

> <Gold.Chemscore.Internal.Correction.Weighted>
   9.000000E+99

> <Gold.Protein.RotatedTorsions>
[ 6907 6896 6895 6894 ] final   98.91 input  -60.11 | X-H torsion
[ 7974 7965 7964 7962 ] final  -98.04 input  175.53 | X-H torsion
[ 8008 7997 7996 7995 ] final -112.09 input   59.86 | X-H torsion
[ 10167 10162 10161 10158 ] final -133.31 input  -65.29 | X-H torsion
[ 10718 10713 10712 10709 ] final -160.20 input   66.30 | X-H torsion
[ 10763 10752 10751 10750 ] final   19.13 input  -60.55 | X-H torsion
[ 11005 11000 10999 10996 ] final -126.68 input  -57.11 | X-H torsion

> <Gold.Protein.ActiveResidues>
 VAL166  LYS551  ARG553  GLY616  TRP617  ASP618  TYR619  PRO620  LYS621  CYS622 
 ASP623  PHE694  ASN695  SER759  ASP760  ASP761  ALA762  ILE779  LEU786  VAL792 
 PHE793  MET794  SER795  GLU796  ALA797  LYS798  CYS799  TRP800  GLU811  SER814 

> <Gold.Protein.RotatedAtoms>
  152.5401  134.0508  159.8108 H   0  0  0  0  0  0  0  0  0  0  0  0  # atno 6907 bound_to 6896
  151.0650  133.5505  159.2638 H   0  0  0  0  0  0  0  0  0  0  0  0  # atno 6908 bound_to 6896
  151.2390  135.0590  159.9071 H   0  0  0  0  0  0  0  0  0  0  0  0  # atno 6909 bound_to 6896
  145.3258  140.9431  143.2689 H   0  0  0  0  0  0  0  0  0  0  0  0  # atno 7974 bound_to 7965
  154.9999  140.0394  157.2355 H   0  0  0  0  0  0  0  0  0  0  0  0  # atno 8008 bound_to 7997
  154.7553  140.2774  155.6235 H   0  0  0  0  0  0  0  0  0  0  0  0  # atno 8009 bound_to 7997
  156.2893  140.2639  156.2318 H   0  0  0  0  0  0  0  0  0  0  0  0  # atno 8010 bound_to 7997
  139.8996  143.6624  152.2597 H   0  0  0  0  0  0  0  0  0  0  0  0  # atno 10167 bound_to 10162
  156.5788  130.8720  151.2859 H   0  0  0  0  0  0  0  0  0  0  0  0  # atno 10718 bound_to 10713
  153.1189  135.6714  153.9370 H   0  0  0  0  0  0  0  0  0  0  0  0  # atno 10763 bound_to 10752
  153.8892  135.3049  155.3448 H   0  0  0  0  0  0  0  0  0  0  0  0  # atno 10764 bound_to 10752
  154.7602  135.4991  153.9529 H   0  0  0  0  0  0  0  0  0  0  0  0  # atno 10765 bound_to 10752
  140.9661  134.0869  157.3918 H   0  0  0  0  0  0  0  0  0  0  0  0  # atno 11005 bound_to 11000
  144.8903  139.4784  143.6681 LP  0  0  0  0  0  0  0  0  0  0  0  0  # atno 17320 bound_to 7965
  146.3065  139.7597  142.9052 LP  0  0  0  0  0  0  0  0  0  0  0  0  # atno 17321 bound_to 7965
  139.7037  144.7631  151.1229 LP  0  0  0  0  0  0  0  0  0  0  0  0  # atno 17342 bound_to 10162
  140.7710  143.5423  150.9299 LP  0  0  0  0  0  0  0  0  0  0  0  0  # atno 17343 bound_to 10162
  157.7331  130.9725  150.1962 LP  0  0  0  0  0  0  0  0  0  0  0  0  # atno 17370 bound_to 10713
  156.2649  130.3715  149.8091 LP  0  0  0  0  0  0  0  0  0  0  0  0  # atno 17371 bound_to 10713
  139.8895  135.0105  156.6683 LP  0  0  0  0  0  0  0  0  0  0  0  0  # atno 17394 bound_to 11000
  140.7396  133.8989  155.8269 LP  0  0  0  0  0  0  0  0  0  0  0  0  # atno 17395 bound_to 11000

$$$$
