AV-unprocessed.smi:323|AV-procd|sdf|2339|dock4
  -GOLD-   2262022253D 1   1.00000     0.00000
 Structure written by MMmdl.
 41 42  0  0  0  0  0  0  0  0  1 V2000
  147.2290  132.5891  153.4010 C   0  0  0  0  0  0  0  0  0  0  0  0
  148.5678  132.9905  154.0403 C   0  0  0  0  0  0  0  0  0  0  0  0
  149.0573  131.8976  155.0012 C   0  0  0  0  0  0  0  0  0  0  0  0
  148.4982  134.3639  154.7480 C   0  0  0  0  0  0  0  0  0  0  0  0
  149.8628  134.9851  155.1155 C   0  0  0  0  0  0  0  0  0  0  0  0
  149.9999  136.3379  154.5882 N   0  0  0  0  0  0  0  0  0  0  0  0
  150.9582  137.2119  154.9342 C   0  0  0  0  0  0  0  0  0  0  0  0
  151.7509  137.0230  155.8566 O   0  0  0  0  0  0  0  0  0  0  0  0
  151.0682  138.4720  154.0729 C   0  0  0  0  0  0  0  0  0  0  0  0
  150.8484  139.6782  154.9400 C   0  0  0  0  0  0  0  0  0  0  0  0
  149.8859  140.6452  154.7824 C   0  0  0  0  0  0  0  0  0  0  0  0
  149.9146  141.8119  156.0770 S   0  0  0  0  0  0  0  0  0  0  0  0
  151.2655  140.9309  156.7964 C   0  0  0  0  0  0  0  0  0  0  0  0
  151.9134  141.2289  158.0320 N   0  0  0  0  0  0  0  0  0  0  0  0
  151.6320  142.4551  158.7736 C   0  0  0  0  0  0  0  0  0  0  0  0
  152.7003  142.5379  159.8681 C   0  0  0  0  0  0  0  0  0  0  0  0
  153.3076  141.1391  159.9443 C   0  0  0  0  0  0  0  0  0  0  0  0
  152.8322  140.4759  158.6620 C   0  0  0  0  0  0  0  0  0  0  0  0
  153.2747  139.3870  158.2995 O   0  0  0  0  0  0  0  0  0  0  0  0
  151.6531  139.8811  156.0663 N   0  0  0  0  0  0  0  0  0  0  0  0
  146.4340  132.5377  154.1452 H   0  0  0  0  0  0  0  0  0  0  0  0
  147.3015  131.6111  152.9241 H   0  0  0  0  0  0  0  0  0  0  0  0
  146.9237  133.2983  152.6325 H   0  0  0  0  0  0  0  0  0  0  0  0
  149.3070  133.0493  153.2444 H   0  0  0  0  0  0  0  0  0  0  0  0
  148.3687  131.7645  155.8361 H   0  0  0  0  0  0  0  0  0  0  0  0
  150.0367  132.1459  155.4111 H   0  0  0  0  0  0  0  0  0  0  0  0
  149.1531  130.9395  154.4892 H   0  0  0  0  0  0  0  0  0  0  0  0
  147.9424  135.0652  154.1247 H   0  0  0  0  0  0  0  0  0  0  0  0
  147.9149  134.2597  155.6640 H   0  0  0  0  0  0  0  0  0  0  0  0
  149.9836  135.0246  156.1976 H   0  0  0  0  0  0  0  0  0  0  0  0
  150.6723  134.3539  154.7459 H   0  0  0  0  0  0  0  0  0  0  0  0
  149.3926  136.5874  153.8206 H   0  0  0  0  0  0  0  0  0  0  0  0
  152.0476  138.5071  153.5934 H   0  0  0  0  0  0  0  0  0  0  0  0
  150.3292  138.4295  153.2717 H   0  0  0  0  0  0  0  0  0  0  0  0
  149.1449  140.7247  154.0010 H   0  0  0  0  0  0  0  0  0  0  0  0
  151.6584  143.3380  158.1344 H   0  0  0  0  0  0  0  0  0  0  0  0
  150.6351  142.3842  159.2105 H   0  0  0  0  0  0  0  0  0  0  0  0
  153.4682  143.2598  159.5867 H   0  0  0  0  0  0  0  0  0  0  0  0
  152.2806  142.8576  160.8222 H   0  0  0  0  0  0  0  0  0  0  0  0
  154.3963  141.1658  160.0015 H   0  0  0  0  0  0  0  0  0  0  0  0
  152.9244  140.5852  160.8018 H   0  0  0  0  0  0  0  0  0  0  0  0
  1  2  1  0  0  0  0
  1 21  1  0  0  0  0
  1 22  1  0  0  0  0
  1 23  1  0  0  0  0
  2  3  1  0  0  0  0
  2  4  1  0  0  0  0
  2 24  1  0  0  0  0
  3 25  1  0  0  0  0
  3 26  1  0  0  0  0
  3 27  1  0  0  0  0
  4  5  1  0  0  0  0
  4 28  1  0  0  0  0
  4 29  1  0  0  0  0
  5  6  1  0  0  0  0
  5 30  1  0  0  0  0
  5 31  1  0  0  0  0
  6  7  1  0  0  0  0
  6 32  1  0  0  0  0
  7  8  2  0  0  0  0
  7  9  1  0  0  0  0
  9 10  1  0  0  0  0
  9 33  1  0  0  0  0
  9 34  1  0  0  0  0
 10 20  1  0  0  0  0
 10 11  2  0  0  0  0
 11 12  1  0  0  0  0
 11 35  1  0  0  0  0
 12 13  1  0  0  0  0
 13 14  1  0  0  0  0
 13 20  2  0  0  0  0
 14 18  1  0  0  0  0
 14 15  1  0  0  0  0
 15 16  1  0  0  0  0
 15 36  1  0  0  0  0
 15 37  1  0  0  0  0
 16 17  1  0  0  0  0
 16 38  1  0  0  0  0
 16 39  1  0  0  0  0
 17 18  1  0  0  0  0
 17 40  1  0  0  0  0
 17 41  1  0  0  0  0
 18 19  2  0  0  0  0
M  END
> <s_m_source_file>
AV-unprocessed.smi

> <i_m_source_file_index>
323

> <i_lp_mmshare_version>
43012

> <i_f3d_flags>
0

> <s_epik_input>
W0NIM11bQ0hdKFtDSDNdKVtDSDJdW0NIMl1bTkhdQyg9TylbQ0gyXWMxW2NIXXNjKG4xKU4yW0NIMl1bQ0gyXVtDSDJdQzI9Tw==

> <s_epik_cmdline>
J2VwaWtfcHl0aG9uJywgJy1waCcsICc3LjAnLCAnLXRuJywgJzgnLCAnLW1hJywgJzIwMCcsICctbWV0YWxfYmluZGluZycsICctaW1hZScsICc8aW5maWxlLm1hZT4nLCAnLW9tYWUnLCAnPG91dGZpbGUubWFlPic=

> <r_lp_tautomer_probability>
1

> <r_epik_Ionization_Penalty>
3.047e-05

> <r_epik_Ionization_Penalty_Charging>
0

> <r_epik_Ionization_Penalty_Neutral>
3.047e-05

> <r_epik_State_Penalty>
-0

> <r_epik_Charging_Adjusted_Penalty>
0

> <i_epik_Tot_Q>
0

> <i_epik_Tot_abs_Q>
0

> <r_epik_Metal_State_Penalty>
-0

> <b_epik_Metal_Only>
0

> <s_lp_Force_Field>
OPLS_2005

> <r_lp_Energy>
17.0488

> <b_lp_Chiralities_Consistent>
1

> <s_lp_Variant>
AV-unprocessed.smi:323-1

> <Gold.Version>
5.8.1

> <Gold.Id.Protein>
6NUR|6NUR_protein|mol2

> <Gold.PLP.Fitness>
49.9301

> <Gold.PLP.PLP>
-42.0219

> <Gold.PLP.part.hbond>
-3.7425

> <Gold.PLP.part.metal>
0.0000

> <Gold.PLP.part.buried>
-3.2080

> <Gold.PLP.part.nonpolar>
-35.0864

> <Gold.PLP.part.repulsive>
0.0965

> <Gold.PLP.ligand.clash>
0.0000

> <Gold.PLP.ligand.torsion>
0.5449

> <Gold.PLP.Chemscore.Hbond>
2.9840

> <Gold.PLP.Chemscore.CHOScore>
0.0000

> <Gold.PLP.Chemscore.Metal>
0.0000

> <Gold.Chemscore.Hbonds>
donor molecule, donor type, donor heavy atom, donor atom, acceptor molecule, acceptor atom, score
      L1  H     6    32       P1  7948  0.86
      P1  H  7997  8009       L1    19  0.90
      P1  H 10752 10764       L1     8  0.59

> <Gold.PLP.Chemscore.Internal.Correction>
0.0460

> <Gold.Rescore>
     Score         DG    S(hbond)    S(metal)    S(lipo)     H(rot)  DE(clash)    DE(int)     intcor
     14.88     -18.10       2.20        0.00      83.34       1.74       0.06       3.16       ----

> <Gold.Chemscore.Fitness>
14.8821

> <Gold.Chemscore.DG>
-18.0971

> <Gold.Chemscore.ZeroCoef>
-5.4800

> <Gold.Chemscore.Hbond>
2.1955

> <Gold.Chemscore.Metal>
0.0000

> <Gold.Chemscore.Lipo>
83.3359

> <Gold.Chemscore.Internal_Hbond>
0.0000

> <Gold.Chemscore.DEClash>
0.0570

> <Gold.Chemscore.DEInternal>
3.1580

> <Gold.Chemscore.Rot>
1.7446

> <Gold.Chemscore.Internal.Correction>
   9.000000E+99

> <Gold.Chemscore.Hbonds>
donor molecule, donor type, donor heavy atom, donor atom, acceptor molecule, acceptor atom, score
      L1  H     6    32       P1  7948  0.75
      P1  H  7997  8009       L1    19  0.18
      P1  H 10752 10764       L1     8  0.15

> <Gold.Chemscore.Hbond.Weighted>
-7.3330

> <Gold.Chemscore.Metal.Weighted>
-0.0000

> <Gold.Chemscore.Lipo.Weighted>
-9.7503

> <Gold.Chemscore.Internal_Hbond.Weighted>
0.0000

> <Gold.Chemscore.DEClash.Weighted>
0.0570

> <Gold.Chemscore.DEInternal.Weighted>
3.1580

> <Gold.Chemscore.Rot.Weighted>
4.4662

> <Gold.Chemscore.Internal.Correction.Weighted>
   9.000000E+99

> <Gold.Protein.RotatedTorsions>
[ 6907 6896 6895 6894 ] final   81.76 input  -60.11 | X-H torsion
[ 7974 7965 7964 7962 ] final   72.99 input  175.53 | X-H torsion
[ 8008 7997 7996 7995 ] final  150.05 input   59.86 | X-H torsion
[ 10167 10162 10161 10158 ] final  153.26 input  -65.29 | X-H torsion
[ 10718 10713 10712 10709 ] final  -83.55 input   66.30 | X-H torsion
[ 10763 10752 10751 10750 ] final  -39.25 input  -60.55 | X-H torsion
[ 11005 11000 10999 10996 ] final  145.68 input  -57.11 | X-H torsion

> <Gold.Protein.ActiveResidues>
 VAL166  LYS551  ARG553  GLY616  TRP617  ASP618  TYR619  PRO620  LYS621  CYS622 
 ASP623  PHE694  ASN695  SER759  ASP760  ASP761  ALA762  ILE779  LEU786  VAL792 
 PHE793  MET794  SER795  GLU796  ALA797  LYS798  CYS799  TRP800  GLU811  SER814 

> <Gold.Protein.RotatedAtoms>
  152.5278  134.3153  159.9128 H   0  0  0  0  0  0  0  0  0  0  0  0  # atno 6907 bound_to 6896
  151.3103  133.4077  159.2654 H   0  0  0  0  0  0  0  0  0  0  0  0  # atno 6908 bound_to 6896
  151.0044  134.9364  159.8029 H   0  0  0  0  0  0  0  0  0  0  0  0  # atno 6909 bound_to 6896
  145.7465  139.2742  143.1456 H   0  0  0  0  0  0  0  0  0  0  0  0  # atno 7974 bound_to 7965
  156.2731  140.2085  156.5955 H   0  0  0  0  0  0  0  0  0  0  0  0  # atno 8008 bound_to 7997
  154.6948  140.0526  157.0423 H   0  0  0  0  0  0  0  0  0  0  0  0  # atno 8009 bound_to 7997
  155.0816  140.3187  155.4602 H   0  0  0  0  0  0  0  0  0  0  0  0  # atno 8010 bound_to 7997
  139.4828  144.5288  151.7757 H   0  0  0  0  0  0  0  0  0  0  0  0  # atno 10167 bound_to 10162
  156.0017  130.4669  150.4274 H   0  0  0  0  0  0  0  0  0  0  0  0  # atno 10718 bound_to 10713
  153.9262  135.6777  153.4746 H   0  0  0  0  0  0  0  0  0  0  0  0  # atno 10763 bound_to 10752
  153.1003  135.4831  154.8851 H   0  0  0  0  0  0  0  0  0  0  0  0  # atno 10764 bound_to 10752
  154.7452  135.3170  154.8615 H   0  0  0  0  0  0  0  0  0  0  0  0  # atno 10765 bound_to 10752
  140.0731  134.9140  157.1379 H   0  0  0  0  0  0  0  0  0  0  0  0  # atno 11005 bound_to 11000
  146.0398  140.8176  142.9834 LP  0  0  0  0  0  0  0  0  0  0  0  0  # atno 17320 bound_to 7965
  144.6859  140.2893  143.7280 LP  0  0  0  0  0  0  0  0  0  0  0  0  # atno 17321 bound_to 7965
  140.4811  144.1448  150.5933 LP  0  0  0  0  0  0  0  0  0  0  0  0  # atno 17342 bound_to 10162
  140.4276  143.2583  151.9636 LP  0  0  0  0  0  0  0  0  0  0  0  0  # atno 17343 bound_to 10162
  157.2325  131.0507  151.2484 LP  0  0  0  0  0  0  0  0  0  0  0  0  # atno 17370 bound_to 10713
  157.3697  130.7174  149.6556 LP  0  0  0  0  0  0  0  0  0  0  0  0  # atno 17371 bound_to 10713
  140.3597  134.2508  155.7188 LP  0  0  0  0  0  0  0  0  0  0  0  0  # atno 17394 bound_to 11000
  141.2019  133.7950  157.0415 LP  0  0  0  0  0  0  0  0  0  0  0  0  # atno 17395 bound_to 11000

$$$$
