AV-unprocessed.smi:259|AV-procd|sdf|1973|dock2
  -GOLD-   2262021133D 1   1.00000     0.00000
 Structure written by MMmdl.
 54 57  0  0  0  0  0  0  0  0  1 V2000
  151.6162  144.1325  158.1976 C   0  0  0  0  0  0  0  0  0  0  0  0
  150.9453  143.4031  157.1326 N   0  0  0  0  0  0  0  0  0  0  0  0
  150.9681  142.0688  157.0019 C   0  0  0  0  0  0  0  0  0  0  0  0
  151.5697  141.3310  157.7822 O   0  0  0  0  0  0  0  0  0  0  0  0
  150.2075  141.4881  155.7985 C   0  0  0  0  0  0  0  0  0  0  0  0
  148.6705  141.3357  155.9682 C   0  0  1  0  0  0  0  0  0  0  0  0
  148.2309  142.3168  156.8914 O   0  0  0  0  0  0  0  0  0  0  0  0
  147.9073  141.4884  154.6260 C   0  0  0  0  0  0  0  0  0  0  0  0
  146.4195  141.1210  154.7520 C   0  0  0  0  0  0  0  0  0  0  0  0
  146.2497  139.7273  155.3693 C   0  0  0  0  0  0  0  0  0  0  0  0
  146.9435  139.6615  156.6482 N   0  0  0  0  0  0  0  0  0  0  0  0
  146.6094  138.5808  157.3830 C   0  0  0  0  0  0  0  0  0  0  0  0
  145.3250  138.1549  157.3051 N   0  0  0  0  0  0  0  0  0  0  0  0
  144.9311  137.0907  158.0110 C   0  0  0  0  0  0  0  0  0  0  0  0
  145.6482  136.3227  158.8343 N   0  0  0  0  0  0  0  0  0  0  0  0
  146.9439  136.7440  158.9045 C   0  0  0  0  0  0  0  0  0  0  0  0
  147.5066  137.8547  158.2158 C   0  0  0  0  0  0  0  0  0  0  0  0
  148.8559  137.9706  158.5275 N   0  0  0  0  0  0  0  0  0  0  0  0
  149.0765  136.9887  159.3585 C   0  0  0  0  0  0  0  0  0  0  0  0
  147.9848  136.1962  159.6343 N   0  0  0  0  0  0  0  0  0  0  0  0
  147.9452  135.0406  160.5174 C   0  0  0  0  0  0  0  0  0  0  0  0
  146.9775  135.1969  161.7052 C   0  0  0  0  0  0  0  0  0  0  0  0
  147.0501  136.6511  162.2148 C   0  0  0  0  0  0  0  0  0  0  0  0
  148.3016  136.9598  162.7953 O   0  0  0  0  0  0  0  0  0  0  0  0
  145.5680  134.6200  161.5089 C   0  0  0  0  0  0  0  0  0  0  0  0
  145.6738  133.7977  162.6921 O   0  0  0  0  0  0  0  0  0  0  0  0
  147.0850  134.0974  162.7716 C   0  0  0  0  0  0  0  0  0  0  0  0
  148.3741  139.9594  156.6109 C   0  0  0  0  0  0  0  0  0  0  0  0
  151.4140  145.1992  158.1017 H   0  0  0  0  0  0  0  0  0  0  0  0
  152.6958  143.9839  158.1488 H   0  0  0  0  0  0  0  0  0  0  0  0
  151.2630  143.8051  159.1762 H   0  0  0  0  0  0  0  0  0  0  0  0
  150.4355  143.9457  156.4504 H   0  0  0  0  0  0  0  0  0  0  0  0
  150.4030  142.1241  154.9335 H   0  0  0  0  0  0  0  0  0  0  0  0
  150.6513  140.5209  155.5579 H   0  0  0  0  0  0  0  0  0  0  0  0
  148.9475  142.9091  157.0618 H   0  0  0  0  0  0  0  0  0  0  0  0
  147.9951  142.5046  154.2402 H   0  0  0  0  0  0  0  0  0  0  0  0
  148.3640  140.8380  153.8787 H   0  0  0  0  0  0  0  0  0  0  0  0
  145.9087  141.8593  155.3714 H   0  0  0  0  0  0  0  0  0  0  0  0
  145.9415  141.1559  153.7728 H   0  0  0  0  0  0  0  0  0  0  0  0
  145.1894  139.5088  155.5054 H   0  0  0  0  0  0  0  0  0  0  0  0
  146.6512  138.9666  154.6985 H   0  0  0  0  0  0  0  0  0  0  0  0
  143.8928  136.8152  157.9003 H   0  0  0  0  0  0  0  0  0  0  0  0
  150.0497  136.8152  159.7940 H   0  0  0  0  0  0  0  0  0  0  0  0
  147.6711  134.1751  159.9128 H   0  0  0  0  0  0  0  0  0  0  0  0
  148.9569  134.8411  160.8726 H   0  0  0  0  0  0  0  0  0  0  0  0
  146.8714  137.3561  161.4023 H   0  0  0  0  0  0  0  0  0  0  0  0
  146.2909  136.8419  162.9731 H   0  0  0  0  0  0  0  0  0  0  0  0
  148.5053  136.2994  163.4399 H   0  0  0  0  0  0  0  0  0  0  0  0
  144.7679  135.3578  161.5802 H   0  0  0  0  0  0  0  0  0  0  0  0
  145.4555  134.0126  160.6104 H   0  0  0  0  0  0  0  0  0  0  0  0
  147.6954  133.2451  162.4689 H   0  0  0  0  0  0  0  0  0  0  0  0
  147.3849  134.4524  163.7581 H   0  0  0  0  0  0  0  0  0  0  0  0
  148.8740  139.1843  156.0298 H   0  0  0  0  0  0  0  0  0  0  0  0
  148.7896  139.9119  157.6192 H   0  0  0  0  0  0  0  0  0  0  0  0
  1  2  1  0  0  0  0
  1 29  1  0  0  0  0
  1 30  1  0  0  0  0
  1 31  1  0  0  0  0
  2  3  1  0  0  0  0
  2 32  1  0  0  0  0
  3  4  2  0  0  0  0
  3  5  1  0  0  0  0
  5  6  1  0  0  0  0
  5 33  1  0  0  0  0
  5 34  1  0  0  0  0
  6 28  1  0  0  0  0
  6  7  1  0  0  0  0
  6  8  1  0  0  0  0
  7 35  1  0  0  0  0
  8  9  1  0  0  0  0
  8 36  1  0  0  0  0
  8 37  1  0  0  0  0
  9 10  1  0  0  0  0
  9 38  1  0  0  0  0
  9 39  1  0  0  0  0
 10 11  1  0  0  0  0
 10 40  1  0  0  0  0
 10 41  1  0  0  0  0
 11 12  1  0  0  0  0
 11 28  1  0  0  0  0
 12 17  1  0  0  0  0
 12 13  2  0  0  0  0
 13 14  1  0  0  0  0
 14 15  2  0  0  0  0
 14 42  1  0  0  0  0
 15 16  1  0  0  0  0
 16 20  1  0  0  0  0
 16 17  2  0  0  0  0
 17 18  1  0  0  0  0
 18 19  2  0  0  0  0
 19 20  1  0  0  0  0
 19 43  1  0  0  0  0
 20 21  1  0  0  0  0
 21 22  1  0  0  0  0
 21 44  1  0  0  0  0
 21 45  1  0  0  0  0
 22 27  1  0  0  0  0
 22 23  1  0  0  0  0
 22 25  1  0  0  0  0
 23 24  1  0  0  0  0
 23 46  1  0  0  0  0
 23 47  1  0  0  0  0
 24 48  1  0  0  0  0
 25 26  1  0  0  0  0
 25 49  1  0  0  0  0
 25 50  1  0  0  0  0
 26 27  1  0  0  0  0
 27 51  1  0  0  0  0
 27 52  1  0  0  0  0
 28 53  1  0  0  0  0
 28 54  1  0  0  0  0
M  END
> <s_m_source_file>
AV-unprocessed.smi

> <i_m_source_file_index>
259

> <i_lp_mmshare_version>
43012

> <i_f3d_flags>
0

> <s_epik_input>
W0NIM11bTkhdQyg9TylbQ0gyXVtDQEBdMShbT0hdKVtDSDJdW0NIMl1bQ0gyXU4oW0NIMl0xKWMobltjSF1uMiljKGMyMyluW2NIXW4zW0NIMl1DNChbQ0gyXVtPSF0pW0NIMl1PW0NIMl00

> <s_epik_cmdline>
J2VwaWtfcHl0aG9uJywgJy1waCcsICc3LjAnLCAnLXRuJywgJzgnLCAnLW1hJywgJzIwMCcsICctbWV0YWxfYmluZGluZycsICctaW1hZScsICc8aW5maWxlLm1hZT4nLCAnLW9tYWUnLCAnPG91dGZpbGUubWFlPic=

> <r_lp_tautomer_probability>
1

> <r_epik_Ionization_Penalty>
0.00366363

> <r_epik_Ionization_Penalty_Charging>
0

> <r_epik_Ionization_Penalty_Neutral>
0.00366363

> <r_epik_State_Penalty>
0.00243014

> <r_epik_Charging_Adjusted_Penalty>
0.00243014

> <i_epik_Tot_Q>
0

> <i_epik_Tot_abs_Q>
0

> <r_epik_Metal_State_Penalty>
-0

> <b_epik_Metal_Only>
0

> <s_lp_Force_Field>
OPLS_2005

> <r_lp_Energy>
40.2539

> <b_lp_Chiralities_Consistent>
1

> <s_lp_Variant>
AV-unprocessed.smi:259-1

> <Gold.Version>
5.8.1

> <Gold.Id.Protein>
6NUR|6NUR_protein|mol2

> <Gold.PLP.Fitness>
42.6243

> <Gold.PLP.PLP>
-39.4341

> <Gold.PLP.part.hbond>
-2.8362

> <Gold.PLP.part.metal>
0.0000

> <Gold.PLP.part.buried>
-6.3886

> <Gold.PLP.part.nonpolar>
-30.3017

> <Gold.PLP.part.repulsive>
0.0635

> <Gold.PLP.ligand.clash>
0.0000

> <Gold.PLP.ligand.torsion>
1.7435

> <Gold.PLP.Chemscore.Hbond>
1.9955

> <Gold.PLP.Chemscore.CHOScore>
0.0000

> <Gold.PLP.Chemscore.Metal>
0.0000

> <Gold.Chemscore.Hbonds>
donor molecule, donor type, donor heavy atom, donor atom, acceptor molecule, acceptor atom, score
      L1  H     2    32       P1  8028  1.00
      L1  H     7    35       P1  8028  0.08
      P1  H  6931  6943       L1    24  0.90

> <Gold.PLP.Chemscore.Internal.Correction>
0.6907

> <Gold.Rescore>
     Score         DG    S(hbond)    S(metal)    S(lipo)     H(rot)  DE(clash)    DE(int)     intcor
      6.36     -10.54       1.95        0.00      77.19       4.09       0.00       4.19       ----

> <Gold.Chemscore.Fitness>
6.3564

> <Gold.Chemscore.DG>
-10.5430

> <Gold.Chemscore.ZeroCoef>
-5.4800

> <Gold.Chemscore.Hbond>
1.9473

> <Gold.Chemscore.Metal>
0.0000

> <Gold.Chemscore.Lipo>
77.1878

> <Gold.Chemscore.Internal_Hbond>
0.0000

> <Gold.Chemscore.DEClash>
0.0000

> <Gold.Chemscore.DEInternal>
4.1866

> <Gold.Chemscore.Rot>
4.0906

> <Gold.Chemscore.Internal.Correction>
   9.000000E+99

> <Gold.Chemscore.Hbonds>
donor molecule, donor type, donor heavy atom, donor atom, acceptor molecule, acceptor atom, score
      L1  H     2    32       P1  8028  0.98
      L1  H     7    35       P1  8028  0.07
      P1  H  6931  6943       L1    24  0.64

> <Gold.Chemscore.Hbond.Weighted>
-6.5040

> <Gold.Chemscore.Metal.Weighted>
-0.0000

> <Gold.Chemscore.Lipo.Weighted>
-9.0310

> <Gold.Chemscore.Internal_Hbond.Weighted>
0.0000

> <Gold.Chemscore.DEClash.Weighted>
0.0000

> <Gold.Chemscore.DEInternal.Weighted>
4.1866

> <Gold.Chemscore.Rot.Weighted>
10.4719

> <Gold.Chemscore.Internal.Correction.Weighted>
   9.000000E+99

> <Gold.Protein.RotatedTorsions>
[ 6907 6896 6895 6894 ] final   37.42 input  -60.11 | X-H torsion
[ 7974 7965 7964 7962 ] final -155.30 input  175.53 | X-H torsion
[ 8008 7997 7996 7995 ] final  166.30 input   59.86 | X-H torsion
[ 10167 10162 10161 10158 ] final  -35.21 input  -65.29 | X-H torsion
[ 10718 10713 10712 10709 ] final  161.67 input   66.30 | X-H torsion
[ 10763 10752 10751 10750 ] final  -97.42 input  -60.55 | X-H torsion
[ 11005 11000 10999 10996 ] final -106.89 input  -57.11 | X-H torsion

> <Gold.Protein.ActiveResidues>
 VAL166  LYS551  ARG553  GLY616  TRP617  ASP618  TYR619  PRO620  LYS621  CYS622 
 ASP623  PHE694  ASN695  SER759  ASP760  ASP761  ALA762  ILE779  LEU786  VAL792 
 PHE793  MET794  SER795  GLU796  ALA797  LYS798  CYS799  TRP800  GLU811  SER814 

> <Gold.Protein.RotatedAtoms>
  152.1429  134.9048  160.0552 H   0  0  0  0  0  0  0  0  0  0  0  0  # atno 6907 bound_to 6896
  152.0109  133.3856  159.4227 H   0  0  0  0  0  0  0  0  0  0  0  0  # atno 6908 bound_to 6896
  150.6867  134.3653  159.5012 H   0  0  0  0  0  0  0  0  0  0  0  0  # atno 6909 bound_to 6896
  144.7647  140.4269  143.5951 H   0  0  0  0  0  0  0  0  0  0  0  0  # atno 7974 bound_to 7965
  156.1730  140.1647  156.8414 H   0  0  0  0  0  0  0  0  0  0  0  0  # atno 8008 bound_to 7997
  154.5277  140.0764  156.8322 H   0  0  0  0  0  0  0  0  0  0  0  0  # atno 8009 bound_to 7997
  155.3473  140.3388  155.4241 H   0  0  0  0  0  0  0  0  0  0  0  0  # atno 8010 bound_to 7997
  140.7170  143.3493  151.2189 H   0  0  0  0  0  0  0  0  0  0  0  0  # atno 10167 bound_to 10162
  157.1333  131.0522  151.2361 H   0  0  0  0  0  0  0  0  0  0  0  0  # atno 10718 bound_to 10713
  154.7326  135.5047  153.8989 H   0  0  0  0  0  0  0  0  0  0  0  0  # atno 10763 bound_to 10752
  153.0964  135.6673  153.9763 H   0  0  0  0  0  0  0  0  0  0  0  0  # atno 10764 bound_to 10752
  153.9560  135.3053  155.3415 H   0  0  0  0  0  0  0  0  0  0  0  0  # atno 10765 bound_to 10752
  141.0982  133.8933  157.1911 H   0  0  0  0  0  0  0  0  0  0  0  0  # atno 11005 bound_to 11000
  145.6508  139.1564  143.2863 LP  0  0  0  0  0  0  0  0  0  0  0  0  # atno 17320 bound_to 7965
  146.1743  140.6597  142.9218 LP  0  0  0  0  0  0  0  0  0  0  0  0  # atno 17321 bound_to 7965
  139.7020  143.9517  152.2910 LP  0  0  0  0  0  0  0  0  0  0  0  0  # atno 17342 bound_to 10162
  139.9213  144.6798  150.8458 LP  0  0  0  0  0  0  0  0  0  0  0  0  # atno 17343 bound_to 10162
  157.4373  130.7524  149.7040 LP  0  0  0  0  0  0  0  0  0  0  0  0  # atno 17370 bound_to 10713
  155.9803  130.4030  150.3534 LP  0  0  0  0  0  0  0  0  0  0  0  0  # atno 17371 bound_to 10713
  139.9824  135.0093  156.9782 LP  0  0  0  0  0  0  0  0  0  0  0  0  # atno 17394 bound_to 11000
  140.5089  134.1022  155.7266 LP  0  0  0  0  0  0  0  0  0  0  0  0  # atno 17395 bound_to 11000

$$$$
