AV-unprocessed.smi:261|AV-procd|sdf|1996|dock7
  -GOLD-   2262021183D 1   1.00000     0.00000
 Structure written by MMmdl.
 51 54  0  0  0  0  0  0  0  0  1 V2000
  146.9481  128.2994  151.0547 C   0  0  0  0  0  0  0  0  0  0  0  0
  146.6049  129.0499  152.2082 O   0  0  0  0  0  0  0  0  0  0  0  0
  145.8189  130.1979  151.9241 C   0  0  2  0  0  0  0  0  0  0  0  0
  146.2776  130.9552  150.6739 C   0  0  0  0  0  0  0  0  0  0  0  0
  145.7915  132.3966  150.9003 C   0  0  1  0  0  0  0  0  0  0  0  0
  144.3839  132.6239  150.3209 C   0  0  0  0  0  0  0  0  0  0  0  0
  143.8301  133.8181  150.5415 N   0  0  0  0  0  0  0  0  0  0  0  0
  143.8095  131.7476  149.6763 O   0  0  0  0  0  0  0  0  0  0  0  0
  145.8121  132.5325  152.3588 N   0  0  0  0  0  0  0  0  0  0  0  0
  145.8869  133.7290  153.0045 C   0  0  0  0  0  0  0  0  0  0  0  0
  145.9256  133.7274  154.3640 N   0  0  0  0  0  0  0  0  0  0  0  0
  146.0042  134.8713  155.0482 C   0  0  0  0  0  0  0  0  0  0  0  0
  146.0547  136.1188  154.5814 N   0  0  0  0  0  0  0  0  0  0  0  0
  146.0154  136.1352  153.2192 C   0  0  0  0  0  0  0  0  0  0  0  0
  145.9312  135.0018  152.3584 C   0  0  0  0  0  0  0  0  0  0  0  0
  145.9136  135.4305  151.0344 N   0  0  0  0  0  0  0  0  0  0  0  0
  145.9848  136.7307  151.1086 C   0  0  0  0  0  0  0  0  0  0  0  0
  146.0545  137.2373  152.3848 N   0  0  0  0  0  0  0  0  0  0  0  0
  146.1476  138.6360  152.7651 C   0  0  0  0  0  0  0  0  0  0  0  0
  147.3957  138.9319  153.6246 C   0  0  1  0  0  0  0  0  0  0  0  0
  148.5399  138.7540  152.8113 O   0  0  0  0  0  0  0  0  0  0  0  0
  147.4238  140.3720  154.1746 C   0  0  1  0  0  0  0  0  0  0  0  0
  147.4006  141.4669  153.1057 C   0  0  0  0  0  0  0  0  0  0  0  0
  146.8175  142.6673  153.8328 C   0  0  0  0  0  0  0  0  0  0  0  0
  146.1388  142.0577  155.0612 C   0  0  0  0  0  0  0  0  0  0  0  0
  146.2166  140.6522  154.8679 O   0  0  0  0  0  0  0  0  0  0  0  0
  145.9749  131.2475  153.0254 C   0  0  0  0  0  0  0  0  0  0  0  0
  144.7637  129.9325  151.8345 H   0  0  0  0  0  0  0  0  0  0  0  0
  146.4949  133.0894  150.4346 H   0  0  0  0  0  0  0  0  0  0  0  0
  147.5228  127.4216  151.3495 H   0  0  0  0  0  0  0  0  0  0  0  0
  147.5597  128.8811  150.3645 H   0  0  0  0  0  0  0  0  0  0  0  0
  146.0570  127.9548  150.5286 H   0  0  0  0  0  0  0  0  0  0  0  0
  147.3673  130.9468  150.6195 H   0  0  0  0  0  0  0  0  0  0  0  0
  145.9027  130.5100  149.7511 H   0  0  0  0  0  0  0  0  0  0  0  0
  142.9101  134.0221  150.1792 H   0  0  0  0  0  0  0  0  0  0  0  0
  144.3372  134.5156  151.0667 H   0  0  0  0  0  0  0  0  0  0  0  0
  146.0318  134.7724  156.1233 H   0  0  0  0  0  0  0  0  0  0  0  0
  145.9950  137.3581  150.2291 H   0  0  0  0  0  0  0  0  0  0  0  0
  146.1551  139.2448  151.8598 H   0  0  0  0  0  0  0  0  0  0  0  0
  145.2365  138.8931  153.3059 H   0  0  0  0  0  0  0  0  0  0  0  0
  147.4407  138.2239  154.4531 H   0  0  0  0  0  0  0  0  0  0  0  0
  148.6684  137.8274  152.6762 H   0  0  0  0  0  0  0  0  0  0  0  0
  148.2775  140.5238  154.8387 H   0  0  0  0  0  0  0  0  0  0  0  0
  148.3859  141.6676  152.6839 H   0  0  0  0  0  0  0  0  0  0  0  0
  146.7363  141.1797  152.2893 H   0  0  0  0  0  0  0  0  0  0  0  0
  147.5987  143.3654  154.1361 H   0  0  0  0  0  0  0  0  0  0  0  0
  146.1113  143.2056  153.2000 H   0  0  0  0  0  0  0  0  0  0  0  0
  146.6771  142.3270  155.9712 H   0  0  0  0  0  0  0  0  0  0  0  0
  145.1028  142.3792  155.1699 H   0  0  0  0  0  0  0  0  0  0  0  0
  145.2346  131.0960  153.8113 H   0  0  0  0  0  0  0  0  0  0  0  0
  146.9710  131.2003  153.4680 H   0  0  0  0  0  0  0  0  0  0  0  0
  1  2  1  0  0  0  0
  1 30  1  0  0  0  0
  1 31  1  0  0  0  0
  1 32  1  0  0  0  0
  2  3  1  0  0  0  0
  3 28  1  0  0  0  0
  3 27  1  0  0  0  0
  3  4  1  0  0  0  0
  4  5  1  0  0  0  0
  4 33  1  0  0  0  0
  4 34  1  0  0  0  0
  5 29  1  0  0  0  0
  5  6  1  0  0  0  0
  5  9  1  0  0  0  0
  6  7  1  0  0  0  0
  6  8  2  0  0  0  0
  7 35  1  0  0  0  0
  7 36  1  0  0  0  0
  9 10  1  0  0  0  0
  9 27  1  0  0  0  0
 10 15  1  0  0  0  0
 10 11  2  0  0  0  0
 11 12  1  0  0  0  0
 12 13  2  0  0  0  0
 12 37  1  0  0  0  0
 13 14  1  0  0  0  0
 14 18  1  0  0  0  0
 14 15  2  0  0  0  0
 15 16  1  0  0  0  0
 16 17  2  0  0  0  0
 17 18  1  0  0  0  0
 17 38  1  0  0  0  0
 18 19  1  0  0  0  0
 19 20  1  0  0  0  0
 19 39  1  0  0  0  0
 19 40  1  0  0  0  0
 20 21  1  0  0  0  0
 20 22  1  0  0  0  0
 20 41  1  0  0  0  0
 21 42  1  0  0  0  0
 22 26  1  0  0  0  0
 22 23  1  0  0  0  0
 22 43  1  0  0  0  0
 23 24  1  0  0  0  0
 23 44  1  0  0  0  0
 23 45  1  0  0  0  0
 24 25  1  0  0  0  0
 24 46  1  0  0  0  0
 24 47  1  0  0  0  0
 25 26  1  0  0  0  0
 25 48  1  0  0  0  0
 25 49  1  0  0  0  0
 27 50  1  0  0  0  0
 27 51  1  0  0  0  0
M  END
> <s_m_source_file>
AV-unprocessed.smi

> <i_m_source_file_index>
261

> <i_lp_mmshare_version>
43012

> <i_f3d_flags>
0

> <s_epik_input>
W0NIM11PW0NASF0xW0NIMl1bQ0BASF0oQyg9TylbTkgyXSlOKFtDSDJdMSljKG5bY0hdbjIpYyhjMjMpbltjSF1uM1tDSDJdW0NASF0oW09IXSlbQ0BASF00W0NIMl1bQ0gyXVtDSDJdTzQ=

> <s_epik_cmdline>
J2VwaWtfcHl0aG9uJywgJy1waCcsICc3LjAnLCAnLXRuJywgJzgnLCAnLW1hJywgJzIwMCcsICctbWV0YWxfYmluZGluZycsICctaW1hZScsICc8aW5maWxlLm1hZT4nLCAnLW9tYWUnLCAnPG91dGZpbGUubWFlPic=

> <r_lp_tautomer_probability>
1

> <r_epik_Ionization_Penalty>
0.000713824

> <r_epik_Ionization_Penalty_Charging>
0

> <r_epik_Ionization_Penalty_Neutral>
0.000713824

> <r_epik_State_Penalty>
0.000402132

> <r_epik_Charging_Adjusted_Penalty>
0.000402132

> <i_epik_Tot_Q>
0

> <i_epik_Tot_abs_Q>
0

> <r_epik_Metal_State_Penalty>
-0

> <b_epik_Metal_Only>
0

> <s_lp_Force_Field>
OPLS_2005

> <r_lp_Energy>
41.8336

> <b_lp_Chiralities_Consistent>
1

> <s_lp_Variant>
AV-unprocessed.smi:261-14

> <Gold.Version>
5.8.1

> <Gold.Id.Protein>
6NUR|6NUR_protein|mol2

> <Gold.PLP.Fitness>
46.7741

> <Gold.PLP.PLP>
-36.3527

> <Gold.PLP.part.hbond>
-3.9500

> <Gold.PLP.part.metal>
0.0000

> <Gold.PLP.part.buried>
-2.1113

> <Gold.PLP.part.nonpolar>
-31.2073

> <Gold.PLP.part.repulsive>
0.7392

> <Gold.PLP.ligand.clash>
0.0000

> <Gold.PLP.ligand.torsion>
0.3139

> <Gold.PLP.Chemscore.Hbond>
2.8480

> <Gold.PLP.Chemscore.CHOScore>
0.7955

> <Gold.PLP.Chemscore.Metal>
0.0000

> <Gold.Chemscore.Hbonds>
donor molecule, donor type, donor heavy atom, donor atom, acceptor molecule, acceptor atom, score
      L1  H     7    35       P1 10186  0.98
      L1  H    21    42       P1  7948  1.00
      P1  H 10785 10796       L1     8  0.83
      L1  C    17    38       P1 10171  0.71

> <Gold.PLP.Chemscore.Internal.Correction>
0.1186

> <Gold.Rescore>
     Score         DG    S(hbond)    S(metal)    S(lipo)     H(rot)  DE(clash)    DE(int)     intcor
     11.54     -16.93       2.87        0.00      85.45       3.18       3.02       2.36       ----

> <Gold.Chemscore.Fitness>
11.5410

> <Gold.Chemscore.DG>
-16.9261

> <Gold.Chemscore.ZeroCoef>
-5.4800

> <Gold.Chemscore.Hbond>
2.8734

> <Gold.Chemscore.Metal>
0.0000

> <Gold.Chemscore.Lipo>
85.4496

> <Gold.Chemscore.Internal_Hbond>
0.0000

> <Gold.Chemscore.DEClash>
3.0249

> <Gold.Chemscore.DEInternal>
2.3602

> <Gold.Chemscore.Rot>
3.1831

> <Gold.Chemscore.Internal.Correction>
   9.000000E+99

> <Gold.Chemscore.Hbonds>
donor molecule, donor type, donor heavy atom, donor atom, acceptor molecule, acceptor atom, score
      L1  H     7    35       P1 10186  0.89
      L1  H    21    42       P1  7948  1.00
      P1  H 10785 10796       L1     8  0.82

> <Gold.Chemscore.Hbond.Weighted>
-9.5971

> <Gold.Chemscore.Metal.Weighted>
-0.0000

> <Gold.Chemscore.Lipo.Weighted>
-9.9976

> <Gold.Chemscore.Internal_Hbond.Weighted>
0.0000

> <Gold.Chemscore.DEClash.Weighted>
3.0249

> <Gold.Chemscore.DEInternal.Weighted>
2.3602

> <Gold.Chemscore.Rot.Weighted>
8.1486

> <Gold.Chemscore.Internal.Correction.Weighted>
   9.000000E+99

> <Gold.Protein.RotatedTorsions>
[ 6907 6896 6895 6894 ] final   54.81 input  -60.11 | X-H torsion
[ 7974 7965 7964 7962 ] final  -96.83 input  175.53 | X-H torsion
[ 8008 7997 7996 7995 ] final   18.19 input   59.86 | X-H torsion
[ 10167 10162 10161 10158 ] final   87.33 input  -65.29 | X-H torsion
[ 10718 10713 10712 10709 ] final -179.40 input   66.30 | X-H torsion
[ 10763 10752 10751 10750 ] final  -71.56 input  -60.55 | X-H torsion
[ 11005 11000 10999 10996 ] final -177.77 input  -57.11 | X-H torsion

> <Gold.Protein.ActiveResidues>
 VAL166  LYS551  ARG553  GLY616  TRP617  ASP618  TYR619  PRO620  LYS621  CYS622 
 ASP623  PHE694  ASN695  SER759  ASP760  ASP761  ALA762  ILE779  LEU786  VAL792 
 PHE793  MET794  SER795  GLU796  ALA797  LYS798  CYS799  TRP800  GLU811  SER814 

> <Gold.Protein.RotatedAtoms>
  152.3476  134.7050  160.0245 H   0  0  0  0  0  0  0  0  0  0  0  0  # atno 6907 bound_to 6896
  151.7414  133.3317  159.3375 H   0  0  0  0  0  0  0  0  0  0  0  0  # atno 6908 bound_to 6896
  150.7519  134.6208  159.6179 H   0  0  0  0  0  0  0  0  0  0  0  0  # atno 6909 bound_to 6896
  145.3417  140.9461  143.2604 H   0  0  0  0  0  0  0  0  0  0  0  0  # atno 7974 bound_to 7965
  154.9024  140.3002  155.5310 H   0  0  0  0  0  0  0  0  0  0  0  0  # atno 8008 bound_to 7997
  156.3018  140.2404  156.3989 H   0  0  0  0  0  0  0  0  0  0  0  0  # atno 8009 bound_to 7997
  154.8507  140.0409  157.1591 H   0  0  0  0  0  0  0  0  0  0  0  0  # atno 8010 bound_to 7997
  139.8785  144.6453  150.8870 H   0  0  0  0  0  0  0  0  0  0  0  0  # atno 10167 bound_to 10162
  156.8586  130.9744  151.3085 H   0  0  0  0  0  0  0  0  0  0  0  0  # atno 10718 bound_to 10713
  154.4335  135.5958  153.6083 H   0  0  0  0  0  0  0  0  0  0  0  0  # atno 10763 bound_to 10752
  152.9800  135.5981  154.3810 H   0  0  0  0  0  0  0  0  0  0  0  0  # atno 10764 bound_to 10752
  154.3651  135.2841  155.2277 H   0  0  0  0  0  0  0  0  0  0  0  0  # atno 10765 bound_to 10752
  140.4372  134.6465  157.4740 H   0  0  0  0  0  0  0  0  0  0  0  0  # atno 11005 bound_to 11000
  144.8785  139.4937  143.6734 LP  0  0  0  0  0  0  0  0  0  0  0  0  # atno 17320 bound_to 7965
  146.3004  139.7410  142.9095 LP  0  0  0  0  0  0  0  0  0  0  0  0  # atno 17321 bound_to 7965
  140.7749  143.3605  151.1837 LP  0  0  0  0  0  0  0  0  0  0  0  0  # atno 17342 bound_to 10162
  139.7218  143.9211  152.2988 LP  0  0  0  0  0  0  0  0  0  0  0  0  # atno 17343 bound_to 10162
  157.6263  130.8694  149.9195 LP  0  0  0  0  0  0  0  0  0  0  0  0  # atno 17370 bound_to 10713
  156.0789  130.3675  150.0621 LP  0  0  0  0  0  0  0  0  0  0  0  0  # atno 17371 bound_to 10713
  140.0094  134.6713  155.9404 LP  0  0  0  0  0  0  0  0  0  0  0  0  # atno 17394 bound_to 11000
  141.1721  133.6538  156.4690 LP  0  0  0  0  0  0  0  0  0  0  0  0  # atno 17395 bound_to 11000

$$$$
