AV-unprocessed.smi:1806|AV-procd|sdf|7300|dock4
  -GOLD-   22720 8553D 1   1.00000     0.00000
 Structure written by MMmdl.
 27 28  0  0  0  0  0  0  0  0  2 V2000
  151.1100  145.3546  160.3167 C   0  0  0  0  0  0  0  0  0  0  0  0
  151.7771  144.0076  160.4981 C   0  0  0  0  0  0  0  0  0  0  0  0
  152.3718  143.6577  161.7261 C   0  0  0  0  0  0  0  0  0  0  0  0
  152.9754  142.3919  161.8303 C   0  0  0  0  0  0  0  0  0  0  0  0
  152.9622  141.5387  160.7104 C   0  0  0  0  0  0  0  0  0  0  0  0
  152.3517  141.9703  159.5096 C   0  0  0  0  0  0  0  0  0  0  0  0
  152.3219  141.1604  158.4403 N   0  5  0  0  0  0  0  0  0  0  0  0
  151.3598  141.2953  157.4910 C   0  0  0  0  0  0  0  0  0  0  0  0
  150.4404  142.1174  157.5488 O   0  0  0  0  0  0  0  0  0  0  0  0
  151.4696  140.3881  156.3513 C   0  0  0  0  0  0  0  0  0  0  0  0
  150.4598  140.3007  155.4529 C   0  0  0  0  0  0  0  0  0  0  0  0
  150.4673  139.4509  154.3747 O   0  0  0  0  0  0  0  0  0  0  0  0
  151.5054  138.4786  154.3924 C   0  0  0  0  0  0  0  0  0  0  0  0
  152.8163  139.1038  154.8895 C   0  0  0  0  0  0  0  0  0  0  0  0
  152.6314  139.6665  156.1829 O   0  0  0  0  0  0  0  0  0  0  0  0
  151.7654  143.1885  159.4238 N   0  0  0  0  0  0  0  0  0  0  0  0
  150.7895  145.7631  161.2755 H   0  0  0  0  0  0  0  0  0  0  0  0
  150.2318  145.2698  159.6753 H   0  0  0  0  0  0  0  0  0  0  0  0
  151.8045  146.0586  159.8581 H   0  0  0  0  0  0  0  0  0  0  0  0
  152.3655  144.3375  162.5652 H   0  0  0  0  0  0  0  0  0  0  0  0
  153.4405  142.0787  162.7532 H   0  0  0  0  0  0  0  0  0  0  0  0
  153.4202  140.5622  160.7719 H   0  0  0  0  0  0  0  0  0  0  0  0
  149.5340  140.8552  155.5093 H   0  0  0  0  0  0  0  0  0  0  0  0
  151.2108  137.6499  155.0377 H   0  0  0  0  0  0  0  0  0  0  0  0
  151.6325  138.0742  153.3881 H   0  0  0  0  0  0  0  0  0  0  0  0
  153.6045  138.3523  154.9366 H   0  0  0  0  0  0  0  0  0  0  0  0
  153.1540  139.8819  154.2033 H   0  0  0  0  0  0  0  0  0  0  0  0
  1  2  1  0  0  0  0
  1 17  1  0  0  0  0
  1 18  1  0  0  0  0
  1 19  1  0  0  0  0
  2 16  1  0  0  0  0
  2  3  2  0  0  0  0
  3  4  1  0  0  0  0
  3 20  1  0  0  0  0
  4  5  2  0  0  0  0
  4 21  1  0  0  0  0
  5  6  1  0  0  0  0
  5 22  1  0  0  0  0
  6  7  1  0  0  0  0
  6 16  2  0  0  0  0
  7  8  1  0  0  0  0
  8  9  2  0  0  0  0
  8 10  1  0  0  0  0
 10 15  1  0  0  0  0
 10 11  2  0  0  0  0
 11 12  1  0  0  0  0
 11 23  1  0  0  0  0
 12 13  1  0  0  0  0
 13 14  1  0  0  0  0
 13 24  1  0  0  0  0
 13 25  1  0  0  0  0
 14 15  1  0  0  0  0
 14 26  1  0  0  0  0
 14 27  1  0  0  0  0
M  CHG  1   7  -1
M  END
> <s_m_source_file>
AV-unprocessed.smi

> <i_m_source_file_index>
1806

> <i_lp_mmshare_version>
43012

> <i_f3d_flags>
0

> <s_epik_input>
W0NIM11jMVtjSF1bY0hdW2NIXWMobjEpW05IXUMoPU8pQzI9W0NIXU9bQ0gyXVtDSDJdTzI=

> <s_epik_cmdline>
J2VwaWtfcHl0aG9uJywgJy1waCcsICc3LjAnLCAnLXRuJywgJzgnLCAnLW1hJywgJzIwMCcsICctbWV0YWxfYmluZGluZycsICctaW1hZScsICc8aW5maWxlLm1hZT4nLCAnLW9tYWUnLCAnPG91dGZpbGUubWFlPic=

> <r_lp_tautomer_probability>
1

> <r_epik_Ionization_Penalty>
11.2807

> <r_epik_Ionization_Penalty_Charging>
5.82682

> <r_epik_Ionization_Penalty_Neutral>
5.45386

> <r_epik_State_Penalty>
5.82679

> <r_epik_Charging_Adjusted_Penalty>
11.6536

> <i_epik_Tot_Q>
-1

> <i_epik_Tot_abs_Q>
1

> <r_epik_Metal_State_Penalty>
1.79445

> <b_epik_Metal_Only>
1

> <s_lp_Force_Field>
OPLS_2005

> <r_lp_Energy>
4.64637

> <b_lp_Chiralities_Consistent>
1

> <s_lp_Variant>
AV-unprocessed.smi:1806-2

> <Gold.Version>
5.8.1

> <Gold.Id.Protein>
6NUR|6NUR_protein|mol2

> <Gold.PLP.Fitness>
43.8777

> <Gold.PLP.PLP>
-40.6825

> <Gold.PLP.part.hbond>
-2.0000

> <Gold.PLP.part.metal>
0.0000

> <Gold.PLP.part.buried>
-5.6981

> <Gold.PLP.part.nonpolar>
-32.8521

> <Gold.PLP.part.repulsive>
0.2542

> <Gold.PLP.ligand.clash>
0.0000

> <Gold.PLP.ligand.torsion>
0.1871

> <Gold.PLP.Chemscore.Hbond>
1.1425

> <Gold.PLP.Chemscore.CHOScore>
0.0000

> <Gold.PLP.Chemscore.Metal>
0.0000

> <Gold.Chemscore.Hbonds>
donor molecule, donor type, donor heavy atom, donor atom, acceptor molecule, acceptor atom, score
      P1  H  7989  7998       L1    12  0.21
      P1  H  7997  8008       L1    15  0.95

> <Gold.PLP.Chemscore.Internal.Correction>
0.1418

> <Gold.Rescore>
     Score         DG    S(hbond)    S(metal)    S(lipo)     H(rot)  DE(clash)    DE(int)     intcor
     16.82     -18.85       0.88        0.00      89.13       0.00       0.03       2.00       ----

> <Gold.Chemscore.Fitness>
16.8187

> <Gold.Chemscore.DG>
-18.8504

> <Gold.Chemscore.ZeroCoef>
-5.4800

> <Gold.Chemscore.Hbond>
0.8810

> <Gold.Chemscore.Metal>
0.0000

> <Gold.Chemscore.Lipo>
89.1270

> <Gold.Chemscore.Internal_Hbond>
0.0000

> <Gold.Chemscore.DEClash>
0.0310

> <Gold.Chemscore.DEInternal>
2.0007

> <Gold.Chemscore.Rot>
0.0000

> <Gold.Chemscore.Internal.Correction>
   9.000000E+99

> <Gold.Chemscore.Hbonds>
donor molecule, donor type, donor heavy atom, donor atom, acceptor molecule, acceptor atom, score
      P1  H  7997  8008       L1    15  0.21

> <Gold.Chemscore.Hbond.Weighted>
-2.9425

> <Gold.Chemscore.Metal.Weighted>
-0.0000

> <Gold.Chemscore.Lipo.Weighted>
-10.4279

> <Gold.Chemscore.Internal_Hbond.Weighted>
0.0000

> <Gold.Chemscore.DEClash.Weighted>
0.0310

> <Gold.Chemscore.DEInternal.Weighted>
2.0007

> <Gold.Chemscore.Rot.Weighted>
0.0000

> <Gold.Chemscore.Internal.Correction.Weighted>
   9.000000E+99

> <Gold.Protein.RotatedTorsions>
[ 6907 6896 6895 6894 ] final -124.28 input  -60.11 | X-H torsion
[ 7974 7965 7964 7962 ] final -161.34 input  175.53 | X-H torsion
[ 8008 7997 7996 7995 ] final  -57.68 input   59.86 | X-H torsion
[ 10167 10162 10161 10158 ] final   27.42 input  -65.29 | X-H torsion
[ 10718 10713 10712 10709 ] final  133.90 input   66.30 | X-H torsion
[ 10763 10752 10751 10750 ] final   36.74 input  -60.55 | X-H torsion
[ 11005 11000 10999 10996 ] final   67.94 input  -57.11 | X-H torsion

> <Gold.Protein.ActiveResidues>
 VAL166  LYS551  ARG553  GLY616  TRP617  ASP618  TYR619  PRO620  LYS621  CYS622 
 ASP623  PHE694  ASN695  SER759  ASP760  ASP761  ALA762  ILE779  LEU786  VAL792 
 PHE793  MET794  SER795  GLU796  ALA797  LYS798  CYS799  TRP800  GLU811  SER814 

> <Gold.Protein.RotatedAtoms>
  150.8753  133.7447  159.2948 H   0  0  0  0  0  0  0  0  0  0  0  0  # atno 6907 bound_to 6896
  151.5046  135.1061  159.9847 H   0  0  0  0  0  0  0  0  0  0  0  0  # atno 6908 bound_to 6896
  152.4723  133.8013  159.7010 H   0  0  0  0  0  0  0  0  0  0  0  0  # atno 6909 bound_to 6896
  144.7394  140.3412  143.6134 H   0  0  0  0  0  0  0  0  0  0  0  0  # atno 7974 bound_to 7965
  154.4278  140.1101  156.5836 H   0  0  0  0  0  0  0  0  0  0  0  0  # atno 8008 bound_to 7997
  155.6086  140.3494  155.4596 H   0  0  0  0  0  0  0  0  0  0  0  0  # atno 8009 bound_to 7997
  156.0117  140.1220  157.0437 H   0  0  0  0  0  0  0  0  0  0  0  0  # atno 8010 bound_to 7997
  140.4940  144.0422  150.6307 H   0  0  0  0  0  0  0  0  0  0  0  0  # atno 10167 bound_to 10162
  157.4726  131.1081  150.9783 H   0  0  0  0  0  0  0  0  0  0  0  0  # atno 10718 bound_to 10713
  153.0065  135.6297  154.2033 H   0  0  0  0  0  0  0  0  0  0  0  0  # atno 10763 bound_to 10752
  154.1776  135.2815  155.3063 H   0  0  0  0  0  0  0  0  0  0  0  0  # atno 10764 bound_to 10752
  154.5859  135.5633  153.7291 H   0  0  0  0  0  0  0  0  0  0  0  0  # atno 10765 bound_to 10752
  139.9741  134.6851  156.0389 H   0  0  0  0  0  0  0  0  0  0  0  0  # atno 11005 bound_to 11000
  145.7372  139.1753  143.2396 LP  0  0  0  0  0  0  0  0  0  0  0  0  # atno 17320 bound_to 7965
  146.1161  140.7368  142.9480 LP  0  0  0  0  0  0  0  0  0  0  0  0  # atno 17321 bound_to 7965
  140.3699  143.2860  152.0290 LP  0  0  0  0  0  0  0  0  0  0  0  0  # atno 17342 bound_to 10162
  139.4857  144.6238  151.7204 LP  0  0  0  0  0  0  0  0  0  0  0  0  # atno 17343 bound_to 10162
  157.0543  130.5800  149.5375 LP  0  0  0  0  0  0  0  0  0  0  0  0  # atno 17370 bound_to 10713
  156.0081  130.5170  150.7897 LP  0  0  0  0  0  0  0  0  0  0  0  0  # atno 17371 bound_to 10713
  141.1419  133.6563  156.3755 LP  0  0  0  0  0  0  0  0  0  0  0  0  # atno 17394 bound_to 11000
  140.5232  134.6284  157.5325 LP  0  0  0  0  0  0  0  0  0  0  0  0  # atno 17395 bound_to 11000

$$$$
