AV-unprocessed.smi:743|AV-procd|sdf|3562|dock3
  -GOLD-   22720 0563D 1   1.00000     0.00000
 Structure written by MMmdl.
 29 30  0  0  0  0  0  0  0  0  2 V2000
  152.2328  144.4852  160.6102 C   0  0  0  0  0  0  0  0  0  0  0  0
  151.7878  143.8122  159.4089 N   0  0  0  0  0  0  0  0  0  0  0  0
  151.5668  142.4670  159.2090 C   0  0  0  0  0  0  0  0  0  0  0  0
  151.1504  142.3043  157.9158 C   0  0  0  0  0  0  0  0  0  0  0  0
  150.7825  141.0372  157.1812 C   0  0  2  0  0  0  0  0  0  0  0  0
  151.9679  140.2039  156.9629 N   0  0  0  0  0  0  0  0  0  0  0  0
  152.2145  139.4129  155.9032 C   0  0  0  0  0  0  0  0  0  0  0  0
  153.2158  138.7034  155.8533 O   0  0  0  0  0  0  0  0  0  0  0  0
  151.2405  139.4269  154.7149 C   0  0  0  0  0  0  0  0  0  0  0  0
  149.8792  140.0652  155.0372 C   0  0  0  0  0  0  0  0  0  0  0  0
  150.0561  141.3515  155.8525 C   0  0  1  0  0  0  0  0  0  0  0  0
  148.7615  142.0187  156.0820 N   0  3  0  0  0  0  0  0  0  0  0  0
  151.1472  143.6351  157.4060 C   0  0  0  0  0  0  0  0  0  0  0  0
  151.5311  144.5320  158.2981 N   0  0  0  0  0  0  0  0  0  0  0  0
  150.6670  142.0426  155.2690 H   0  0  0  0  0  0  0  0  0  0  0  0
  152.6785  143.7655  161.2977 H   0  0  0  0  0  0  0  0  0  0  0  0
  151.3832  144.9644  161.0978 H   0  0  0  0  0  0  0  0  0  0  0  0
  152.9770  145.2426  160.3612 H   0  0  0  0  0  0  0  0  0  0  0  0
  151.7241  141.7431  159.9955 H   0  0  0  0  0  0  0  0  0  0  0  0
  150.1144  140.4372  157.8011 H   0  0  0  0  0  0  0  0  0  0  0  0
  152.6445  140.1870  157.7129 H   0  0  0  0  0  0  0  0  0  0  0  0
  151.7189  139.9837  153.9085 H   0  0  0  0  0  0  0  0  0  0  0  0
  151.0991  138.4095  154.3481 H   0  0  0  0  0  0  0  0  0  0  0  0
  149.3502  140.2770  154.1072 H   0  0  0  0  0  0  0  0  0  0  0  0
  149.2615  139.3546  155.5888 H   0  0  0  0  0  0  0  0  0  0  0  0
  148.3415  141.6611  156.9281 H   0  0  0  0  0  0  0  0  0  0  0  0
  148.1474  141.8407  155.3001 H   0  0  0  0  0  0  0  0  0  0  0  0
  150.8812  143.9733  156.4154 H   0  0  0  0  0  0  0  0  0  0  0  0
  148.9092  143.0138  156.1731 H   0  0  0  0  0  0  0  0  0  0  0  0
  1  2  1  0  0  0  0
  1 16  1  0  0  0  0
  1 17  1  0  0  0  0
  1 18  1  0  0  0  0
  2 14  1  0  0  0  0
  2  3  1  0  0  0  0
  3  4  2  0  0  0  0
  3 19  1  0  0  0  0
  4  5  1  0  0  0  0
  4 13  1  0  0  0  0
  5 11  1  0  0  0  0
  5  6  1  0  0  0  0
  5 20  1  0  0  0  0
  6  7  1  0  0  0  0
  6 21  1  0  0  0  0
  7  8  2  0  0  0  0
  7  9  1  0  0  0  0
  9 10  1  0  0  0  0
  9 22  1  0  0  0  0
  9 23  1  0  0  0  0
 10 11  1  0  0  0  0
 10 24  1  0  0  0  0
 10 25  1  0  0  0  0
 11 15  1  0  0  0  0
 11 12  1  0  0  0  0
 12 26  1  0  0  0  0
 12 27  1  0  0  0  0
 12 29  1  0  0  0  0
 13 14  2  0  0  0  0
 13 28  1  0  0  0  0
M  CHG  1  12   1
M  END
> <s_m_source_file>
AV-unprocessed.smi

> <i_m_source_file_index>
743

> <i_lp_mmshare_version>
43012

> <i_f3d_flags>
0

> <s_epik_input>
W0NIM11uMVtjSF1jKFtjSF1uMSlbQ0BASF0yW05IXUMoPU8pW0NIMl1bQ0gyXVtDQEBIXTJbTkgyXQ==

> <s_epik_cmdline>
J2VwaWtfcHl0aG9uJywgJy1waCcsICc3LjAnLCAnLXRuJywgJzgnLCAnLW1hJywgJzIwMCcsICctbWV0YWxfYmluZGluZycsICctaW1hZScsICc8aW5maWxlLm1hZT4nLCAnLW9tYWUnLCAnPG91dGZpbGUubWFlPic=

> <r_lp_tautomer_probability>
1

> <r_epik_Ionization_Penalty>
0.00878543

> <r_epik_Ionization_Penalty_Charging>
0.00874185

> <r_epik_Ionization_Penalty_Neutral>
4.35793e-05

> <r_epik_State_Penalty>
0.00660351

> <r_epik_Charging_Adjusted_Penalty>
0.0153454

> <i_epik_Tot_Q>
1

> <i_epik_Tot_abs_Q>
1

> <r_epik_Metal_State_Penalty>
0.00660727

> <b_epik_Metal_Only>
0

> <s_lp_Force_Field>
OPLS_2005

> <r_lp_Energy>
10.7235

> <b_lp_Chiralities_Consistent>
1

> <s_lp_Variant>
AV-unprocessed.smi:743-3

> <Gold.Version>
5.8.1

> <Gold.Id.Protein>
6NUR|6NUR_protein|mol2

> <Gold.PLP.Fitness>
38.5416

> <Gold.PLP.PLP>
-27.9616

> <Gold.PLP.part.hbond>
-2.0000

> <Gold.PLP.part.metal>
0.0000

> <Gold.PLP.part.buried>
-1.4525

> <Gold.PLP.part.nonpolar>
-25.1953

> <Gold.PLP.part.repulsive>
0.3078

> <Gold.PLP.ligand.clash>
0.0000

> <Gold.PLP.ligand.torsion>
0.2357

> <Gold.PLP.Chemscore.Hbond>
2.7000

> <Gold.PLP.Chemscore.CHOScore>
0.9766

> <Gold.PLP.Chemscore.Metal>
0.0000

> <Gold.Chemscore.Hbonds>
donor molecule, donor type, donor heavy atom, donor atom, acceptor molecule, acceptor atom, score
      L1  H    12    29       P1  8028  2.00
      P1  H  7997  8010       L1     8  0.65
      L1  C    13    28       P1  8028  0.98

> <Gold.PLP.Chemscore.Internal.Correction>
0.0215

> <Gold.Rescore>
     Score         DG    S(hbond)    S(metal)    S(lipo)     H(rot)  DE(clash)    DE(int)     intcor
     13.97     -14.18       0.99        0.00      68.03       1.00       0.01       0.19       ----

> <Gold.Chemscore.Fitness>
13.9730

> <Gold.Chemscore.DG>
-14.1771

> <Gold.Chemscore.ZeroCoef>
-5.4800

> <Gold.Chemscore.Hbond>
0.9872

> <Gold.Chemscore.Metal>
0.0000

> <Gold.Chemscore.Lipo>
68.0331

> <Gold.Chemscore.Internal_Hbond>
0.0000

> <Gold.Chemscore.DEClash>
0.0095

> <Gold.Chemscore.DEInternal>
0.1946

> <Gold.Chemscore.Rot>
1.0000

> <Gold.Chemscore.Internal.Correction>
   9.000000E+99

> <Gold.Chemscore.Hbonds>
donor molecule, donor type, donor heavy atom, donor atom, acceptor molecule, acceptor atom, score
      L1  H    12    29       P1  8028  0.98
      P1  H  7997  8010       L1     8  0.05

> <Gold.Chemscore.Hbond.Weighted>
-3.2972

> <Gold.Chemscore.Metal.Weighted>
-0.0000

> <Gold.Chemscore.Lipo.Weighted>
-7.9599

> <Gold.Chemscore.Internal_Hbond.Weighted>
0.0000

> <Gold.Chemscore.DEClash.Weighted>
0.0095

> <Gold.Chemscore.DEInternal.Weighted>
0.1946

> <Gold.Chemscore.Rot.Weighted>
2.5600

> <Gold.Chemscore.Internal.Correction.Weighted>
   9.000000E+99

> <Gold.Protein.RotatedTorsions>
[ 6907 6896 6895 6894 ] final -120.65 input  -60.11 | X-H torsion
[ 7974 7965 7964 7962 ] final  127.64 input  175.53 | X-H torsion
[ 8008 7997 7996 7995 ] final   80.69 input   59.86 | X-H torsion
[ 10167 10162 10161 10158 ] final -105.77 input  -65.29 | X-H torsion
[ 10718 10713 10712 10709 ] final  -41.32 input   66.30 | X-H torsion
[ 10763 10752 10751 10750 ] final  -55.84 input  -60.55 | X-H torsion
[ 11005 11000 10999 10996 ] final -108.99 input  -57.11 | X-H torsion

> <Gold.Protein.ActiveResidues>
 VAL166  LYS551  ARG553  GLY616  TRP617  ASP618  TYR619  PRO620  LYS621  CYS622 
 ASP623  PHE694  ASN695  SER759  ASP760  ASP761  ALA762  ILE779  LEU786  VAL792 
 PHE793  MET794  SER795  GLU796  ALA797  LYS798  CYS799  TRP800  GLU811  SER814 

> <Gold.Protein.RotatedAtoms>
  150.8412  133.7933  159.3060 H   0  0  0  0  0  0  0  0  0  0  0  0  # atno 6907 bound_to 6896
  151.5634  135.1063  159.9987 H   0  0  0  0  0  0  0  0  0  0  0  0  # atno 6908 bound_to 6896
  152.4475  133.7522  159.6757 H   0  0  0  0  0  0  0  0  0  0  0  0  # atno 6909 bound_to 6896
  145.0484  139.3904  143.5066 H   0  0  0  0  0  0  0  0  0  0  0  0  # atno 7974 bound_to 7965
  155.8869  140.3441  155.5928 H   0  0  0  0  0  0  0  0  0  0  0  0  # atno 8008 bound_to 7997
  155.7655  140.0838  157.2153 H   0  0  0  0  0  0  0  0  0  0  0  0  # atno 8009 bound_to 7997
  154.4029  140.1528  156.2869 H   0  0  0  0  0  0  0  0  0  0  0  0  # atno 8010 bound_to 7997
  140.1949  143.3863  152.1176 H   0  0  0  0  0  0  0  0  0  0  0  0  # atno 10167 bound_to 10162
  156.2717  130.4207  149.8431 H   0  0  0  0  0  0  0  0  0  0  0  0  # atno 10718 bound_to 10713
  154.1972  135.6417  153.5076 H   0  0  0  0  0  0  0  0  0  0  0  0  # atno 10763 bound_to 10752
  153.0020  135.5443  154.6353 H   0  0  0  0  0  0  0  0  0  0  0  0  # atno 10764 bound_to 10752
  154.5757  135.2920  155.0756 H   0  0  0  0  0  0  0  0  0  0  0  0  # atno 10765 bound_to 10752
  141.0872  133.9119  157.2159 H   0  0  0  0  0  0  0  0  0  0  0  0  # atno 11005 bound_to 11000
  146.3516  140.0121  142.8666 LP  0  0  0  0  0  0  0  0  0  0  0  0  # atno 17320 bound_to 7965
  145.1559  140.9647  143.4406 LP  0  0  0  0  0  0  0  0  0  0  0  0  # atno 17321 bound_to 7965
  139.5240  144.7079  151.5298 LP  0  0  0  0  0  0  0  0  0  0  0  0  # atno 17342 bound_to 10162
  140.6430  143.8851  150.6710 LP  0  0  0  0  0  0  0  0  0  0  0  0  # atno 17343 bound_to 10162
  156.5910  130.8506  151.3408 LP  0  0  0  0  0  0  0  0  0  0  0  0  # atno 17370 bound_to 10713
  157.7286  130.9659  150.1749 LP  0  0  0  0  0  0  0  0  0  0  0  0  # atno 17371 bound_to 10713
  139.9691  135.0133  156.9466 LP  0  0  0  0  0  0  0  0  0  0  0  0  # atno 17394 bound_to 11000
  140.5336  134.0789  155.7322 LP  0  0  0  0  0  0  0  0  0  0  0  0  # atno 17395 bound_to 11000

$$$$
