AV-unprocessed.smi:123|AV-procd|sdf|1146|dock5
  -GOLD-   2262018283D 1   1.00000     0.00000
 Structure written by MMmdl.
 43 45  0  0  0  0  0  0  0  0  1 V2000
  152.6504  138.0866  156.3872 C   0  0  0  0  0  0  0  0  0  0  0  0
  151.2792  138.4400  155.7966 C   0  0  1  0  0  0  0  0  0  0  0  0
  150.3277  137.3832  156.1269 N   0  0  0  0  0  0  0  0  0  0  0  0
  150.2636  136.1838  155.5289 C   0  0  0  0  0  0  0  0  0  0  0  0
  151.0294  135.8390  154.6274 O   0  0  0  0  0  0  0  0  0  0  0  0
  149.1611  135.2429  156.0386 C   0  0  0  0  0  0  0  0  0  0  0  0
  148.8630  134.1261  155.1148 N   0  0  0  0  0  0  0  0  0  0  0  0
  149.7128  132.9926  155.1242 C   0  0  0  0  0  0  0  0  0  0  0  0
  150.6705  132.9176  155.8954 O   0  0  0  0  0  0  0  0  0  0  0  0
  149.3806  131.9498  154.1612 C   0  0  0  0  0  0  0  0  0  0  0  0
  150.1402  130.8438  154.0887 F   0  0  0  0  0  0  0  0  0  0  0  0
  148.3221  132.0795  153.3354 C   0  0  0  0  0  0  0  0  0  0  0  0
  147.4879  133.1804  153.3480 N   0  0  0  0  0  0  0  0  0  0  0  0
  146.3574  133.2514  152.3441 C   0  0  1  0  0  0  0  0  0  0  0  0
  146.8198  133.1596  150.8822 C   0  0  0  0  0  0  0  0  0  0  0  0
  145.6777  132.3854  150.2600 C   0  0  0  0  0  0  0  0  0  0  0  0
  145.2779  131.4441  151.3911 C   0  0  0  0  0  0  0  0  0  0  0  0
  145.4636  132.2026  152.5833 O   0  0  0  0  0  0  0  0  0  0  0  0
  147.7648  134.2518  154.2298 C   0  0  0  0  0  0  0  0  0  0  0  0
  147.0776  135.2741  154.2267 O   0  0  0  0  0  0  0  0  0  0  0  0
  150.7943  139.7783  156.2606 C   0  0  0  0  0  0  0  0  0  0  0  0
  150.5876  140.3231  157.4979 C   0  0  0  0  0  0  0  0  0  0  0  0
  150.1069  141.6437  157.2802 C   0  0  0  0  0  0  0  0  0  0  0  0
  150.0507  141.8055  155.9253 C   0  0  0  0  0  0  0  0  0  0  0  0
  150.4626  140.6761  155.2883 O   0  0  0  0  0  0  0  0  0  0  0  0
  153.3963  138.8344  156.1167 H   0  0  0  0  0  0  0  0  0  0  0  0
  153.0015  137.1229  156.0173 H   0  0  0  0  0  0  0  0  0  0  0  0
  152.6136  138.0329  157.4759 H   0  0  0  0  0  0  0  0  0  0  0  0
  151.3909  138.4701  154.7112 H   0  0  0  0  0  0  0  0  0  0  0  0
  149.6587  137.5853  156.8555 H   0  0  0  0  0  0  0  0  0  0  0  0
  149.4526  134.8720  157.0225 H   0  0  0  0  0  0  0  0  0  0  0  0
  148.2647  135.8331  156.2356 H   0  0  0  0  0  0  0  0  0  0  0  0
  148.1244  131.2793  152.6372 H   0  0  0  0  0  0  0  0  0  0  0  0
  145.8355  134.1882  152.5435 H   0  0  0  0  0  0  0  0  0  0  0  0
  146.9578  134.1524  150.4535 H   0  0  0  0  0  0  0  0  0  0  0  0
  147.7534  132.6066  150.7895 H   0  0  0  0  0  0  0  0  0  0  0  0
  144.8524  133.0591  150.0257 H   0  0  0  0  0  0  0  0  0  0  0  0
  145.9622  131.8604  149.3479 H   0  0  0  0  0  0  0  0  0  0  0  0
  144.2499  131.0936  151.2997 H   0  0  0  0  0  0  0  0  0  0  0  0
  145.9290  130.5700  151.4105 H   0  0  0  0  0  0  0  0  0  0  0  0
  150.7645  139.8317  158.4431 H   0  0  0  0  0  0  0  0  0  0  0  0
  149.8361  142.3816  158.0207 H   0  0  0  0  0  0  0  0  0  0  0  0
  149.7553  142.6185  155.2787 H   0  0  0  0  0  0  0  0  0  0  0  0
  1  2  1  0  0  0  0
  1 26  1  0  0  0  0
  1 27  1  0  0  0  0
  1 28  1  0  0  0  0
  2  3  1  0  0  0  0
  2 21  1  0  0  0  0
  2 29  1  0  0  0  0
  3  4  1  0  0  0  0
  3 30  1  0  0  0  0
  4  5  2  0  0  0  0
  4  6  1  0  0  0  0
  6  7  1  0  0  0  0
  6 31  1  0  0  0  0
  6 32  1  0  0  0  0
  7 19  1  0  0  0  0
  7  8  1  0  0  0  0
  8  9  2  0  0  0  0
  8 10  1  0  0  0  0
 10 11  1  0  0  0  0
 10 12  2  0  0  0  0
 12 13  1  0  0  0  0
 12 33  1  0  0  0  0
 13 14  1  0  0  0  0
 13 19  1  0  0  0  0
 14 18  1  0  0  0  0
 14 15  1  0  0  0  0
 14 34  1  0  0  0  0
 15 16  1  0  0  0  0
 15 35  1  0  0  0  0
 15 36  1  0  0  0  0
 16 17  1  0  0  0  0
 16 37  1  0  0  0  0
 16 38  1  0  0  0  0
 17 18  1  0  0  0  0
 17 39  1  0  0  0  0
 17 40  1  0  0  0  0
 19 20  2  0  0  0  0
 21 25  1  0  0  0  0
 21 22  2  0  0  0  0
 22 23  1  0  0  0  0
 22 41  1  0  0  0  0
 23 24  2  0  0  0  0
 23 42  1  0  0  0  0
 24 25  1  0  0  0  0
 24 43  1  0  0  0  0
M  END
> <s_m_source_file>
AV-unprocessed.smi

> <i_m_source_file_index>
123

> <i_lp_mmshare_version>
43012

> <i_f3d_flags>
0

> <s_epik_input>
bzFbY0hdW2NIXVtjSF1jMVtDQEhdKFtDSDNdKVtOSF1DKD1PKVtDSDJdbjJjKD1PKWMoRilbY0hdbihjMj1PKVtDQEBIXTNbQ0gyXVtDSDJdW0NIMl1PMw==

> <s_epik_cmdline>
J2VwaWtfcHl0aG9uJywgJy1waCcsICc3LjAnLCAnLXRuJywgJzgnLCAnLW1hJywgJzIwMCcsICctbWV0YWxfYmluZGluZycsICctaW1hZScsICc8aW5maWxlLm1hZT4nLCAnLW9tYWUnLCAnPG91dGZpbGUubWFlPic=

> <r_lp_tautomer_probability>
1

> <r_epik_Ionization_Penalty>
2.31906e-08

> <r_epik_Ionization_Penalty_Charging>
3.85846e-09

> <r_epik_Ionization_Penalty_Neutral>
1.93321e-08

> <r_epik_State_Penalty>
-0

> <r_epik_Charging_Adjusted_Penalty>
3.85846e-09

> <i_epik_Tot_Q>
0

> <i_epik_Tot_abs_Q>
0

> <r_epik_Metal_State_Penalty>
-0

> <b_epik_Metal_Only>
0

> <s_epik_Chemistry_Notes>
This compound contains an acetal/aminal-like group ( X-CH(R)-Y where X, Y are N, S, or O) that may be acid/base labile, releasing an aldehyde.

> <s_lp_Force_Field>
OPLS_2005

> <r_lp_Energy>
16.2808

> <b_lp_Chiralities_Consistent>
1

> <s_lp_Variant>
AV-unprocessed.smi:123-4

> <Gold.Version>
5.8.1

> <Gold.Id.Protein>
6NUR|6NUR_protein|mol2

> <Gold.PLP.Fitness>
46.4476

> <Gold.PLP.PLP>
-36.3883

> <Gold.PLP.part.hbond>
-2.0000

> <Gold.PLP.part.metal>
0.0000

> <Gold.PLP.part.buried>
-5.9420

> <Gold.PLP.part.nonpolar>
-29.7173

> <Gold.PLP.part.repulsive>
1.1444

> <Gold.PLP.ligand.clash>
0.0000

> <Gold.PLP.ligand.torsion>
0.8741

> <Gold.PLP.Chemscore.Hbond>
1.9600

> <Gold.PLP.Chemscore.CHOScore>
1.9586

> <Gold.PLP.Chemscore.Metal>
0.0000

> <Gold.Chemscore.Hbonds>
donor molecule, donor type, donor heavy atom, donor atom, acceptor molecule, acceptor atom, score
      P1  H  7989  7998       L1    25  0.66
      P1  H 10752 10763       L1     5  1.00
      L1  C    12    33       P1 10747  0.99
      L1  C    24    43       P1  8028  1.00

> <Gold.PLP.Chemscore.Internal.Correction>
0.0518

> <Gold.Rescore>
     Score         DG    S(hbond)    S(metal)    S(lipo)     H(rot)  DE(clash)    DE(int)     intcor
     13.34     -14.40       1.77        0.00      74.47       2.23       0.06       0.99       ----

> <Gold.Chemscore.Fitness>
13.3438

> <Gold.Chemscore.DG>
-14.3996

> <Gold.Chemscore.ZeroCoef>
-5.4800

> <Gold.Chemscore.Hbond>
1.7748

> <Gold.Chemscore.Metal>
0.0000

> <Gold.Chemscore.Lipo>
74.4657

> <Gold.Chemscore.Internal_Hbond>
0.0000

> <Gold.Chemscore.DEClash>
0.0625

> <Gold.Chemscore.DEInternal>
0.9934

> <Gold.Chemscore.Rot>
2.2347

> <Gold.Chemscore.Internal.Correction>
   9.000000E+99

> <Gold.Chemscore.Hbonds>
donor molecule, donor type, donor heavy atom, donor atom, acceptor molecule, acceptor atom, score
      P1  H  7989  7998       L1    25  0.61
      P1  H 10752 10763       L1     5  0.97

> <Gold.Chemscore.Hbond.Weighted>
-5.9279

> <Gold.Chemscore.Metal.Weighted>
-0.0000

> <Gold.Chemscore.Lipo.Weighted>
-8.7125

> <Gold.Chemscore.Internal_Hbond.Weighted>
0.0000

> <Gold.Chemscore.DEClash.Weighted>
0.0625

> <Gold.Chemscore.DEInternal.Weighted>
0.9934

> <Gold.Chemscore.Rot.Weighted>
5.7208

> <Gold.Chemscore.Internal.Correction.Weighted>
   9.000000E+99

> <Gold.Protein.RotatedTorsions>
[ 6907 6896 6895 6894 ] final  165.04 input  -60.11 | X-H torsion
[ 7974 7965 7964 7962 ] final -121.11 input  175.53 | X-H torsion
[ 8008 7997 7996 7995 ] final   87.18 input   59.86 | X-H torsion
[ 10167 10162 10161 10158 ] final  150.30 input  -65.29 | X-H torsion
[ 10718 10713 10712 10709 ] final   91.51 input   66.30 | X-H torsion
[ 10763 10752 10751 10750 ] final   67.27 input  -60.55 | X-H torsion
[ 11005 11000 10999 10996 ] final  -39.35 input  -57.11 | X-H torsion

> <Gold.Protein.ActiveResidues>
 VAL166  LYS551  ARG553  GLY616  TRP617  ASP618  TYR619  PRO620  LYS621  CYS622 
 ASP623  PHE694  ASN695  SER759  ASP760  ASP761  ALA762  ILE779  LEU786  VAL792 
 PHE793  MET794  SER795  GLU796  ALA797  LYS798  CYS799  TRP800  GLU811  SER814 

> <Gold.Protein.RotatedAtoms>
  151.9006  133.3537  159.3829 H   0  0  0  0  0  0  0  0  0  0  0  0  # atno 6907 bound_to 6896
  150.7081  134.4832  159.5489 H   0  0  0  0  0  0  0  0  0  0  0  0  # atno 6908 bound_to 6896
  152.2419  134.8220  160.0510 H   0  0  0  0  0  0  0  0  0  0  0  0  # atno 6909 bound_to 6896
  145.0439  140.8166  143.4249 H   0  0  0  0  0  0  0  0  0  0  0  0  # atno 7974 bound_to 7965
  155.9721  140.3384  155.6585 H   0  0  0  0  0  0  0  0  0  0  0  0  # atno 8008 bound_to 7997
  155.6661  140.0721  157.2555 H   0  0  0  0  0  0  0  0  0  0  0  0  # atno 8009 bound_to 7997
  154.4169  140.1700  156.1816 H   0  0  0  0  0  0  0  0  0  0  0  0  # atno 8010 bound_to 7997
  139.4851  144.5533  151.7362 H   0  0  0  0  0  0  0  0  0  0  0  0  # atno 10167 bound_to 10162
  157.6960  131.0410  150.3741 H   0  0  0  0  0  0  0  0  0  0  0  0  # atno 10718 bound_to 10713
  153.0178  135.5290  154.6954 H   0  0  0  0  0  0  0  0  0  0  0  0  # atno 10763 bound_to 10752
  154.6077  135.2875  155.0468 H   0  0  0  0  0  0  0  0  0  0  0  0  # atno 10764 bound_to 10752
  154.1502  135.6564  153.5014 H   0  0  0  0  0  0  0  0  0  0  0  0  # atno 10765 bound_to 10752
  141.0095  133.6915  156.2174 H   0  0  0  0  0  0  0  0  0  0  0  0  # atno 11005 bound_to 11000
  145.1612  139.2457  143.5390 LP  0  0  0  0  0  0  0  0  0  0  0  0  # atno 17320 bound_to 7965
  146.3512  140.1340  142.8596 LP  0  0  0  0  0  0  0  0  0  0  0  0  # atno 17321 bound_to 7965
  140.5090  144.1054  150.5990 LP  0  0  0  0  0  0  0  0  0  0  0  0  # atno 17342 bound_to 10162
  140.3973  143.2722  151.9990 LP  0  0  0  0  0  0  0  0  0  0  0  0  # atno 17343 bound_to 10162
  156.4162  130.3944  149.6856 LP  0  0  0  0  0  0  0  0  0  0  0  0  # atno 17370 bound_to 10713
  156.4123  130.7728  151.2742 LP  0  0  0  0  0  0  0  0  0  0  0  0  # atno 17371 bound_to 10713
  140.6757  134.4820  157.5588 LP  0  0  0  0  0  0  0  0  0  0  0  0  # atno 17394 bound_to 11000
  139.9082  134.8403  156.1627 LP  0  0  0  0  0  0  0  0  0  0  0  0  # atno 17395 bound_to 11000

$$$$
