AV-unprocessed.smi:560|AV-procd|sdf|2932|dock1
  -GOLD-   2262023423D 1   1.00000     0.00000
 Structure written by MMmdl.
 41 42  0  0  0  0  0  0  0  0  3 V2000
  150.2608  144.0703  158.5325 C   0  0  0  0  0  0  0  0  0  0  0  0
  151.1200  142.8639  158.1110 C   0  0  2  0  0  0  0  0  0  0  0  0
  150.2829  141.7079  157.5423 C   0  0  0  0  0  0  0  0  0  0  0  0
  150.4189  140.5618  157.9726 O   0  0  0  0  0  0  0  0  0  0  0  0
  149.4226  142.0255  156.5619 N   0  0  0  0  0  0  0  0  0  0  0  0
  148.5620  141.0810  155.8564 C   0  0  2  0  0  0  0  0  0  0  0  0
  149.4231  140.0439  155.1180 C   0  0  0  0  0  0  0  0  0  0  0  0
  148.5510  139.0789  154.2980 C   0  0  0  0  0  0  0  0  0  0  0  0
  147.6874  139.8194  153.3392 N   0  3  1  0  0  0  0  0  0  0  0  0
  146.9214  138.9290  152.4299 C   0  0  0  0  0  0  0  0  0  0  0  0
  146.0456  137.9613  153.2326 C   0  0  0  0  0  0  0  0  0  0  0  0
  146.2176  136.6784  152.8548 N   0  5  0  0  0  0  0  0  0  0  0  0
  145.3022  138.3981  154.1081 O   0  0  0  0  0  0  0  0  0  0  0  0
  146.8184  140.8036  154.0319 C   0  0  0  0  0  0  0  0  0  0  0  0
  147.6531  141.8055  154.8464 C   0  0  0  0  0  0  0  0  0  0  0  0
  151.9395  142.3915  159.2191 N   0  0  0  0  0  0  0  0  0  0  0  0
  152.9011  141.3994  159.2243 C   0  0  0  0  0  0  0  0  0  0  0  0
  153.4027  141.3223  160.4916 C   0  0  0  0  0  0  0  0  0  0  0  0
  152.6772  142.3179  161.2029 C   0  0  0  0  0  0  0  0  0  0  0  0
  151.8051  142.9566  160.4396 N   0  0  0  0  0  0  0  0  0  0  0  0
  149.6533  144.4321  157.7023 H   0  0  0  0  0  0  0  0  0  0  0  0
  150.8902  144.8977  158.8612 H   0  0  0  0  0  0  0  0  0  0  0  0
  149.5876  143.8232  159.3544 H   0  0  0  0  0  0  0  0  0  0  0  0
  151.7867  143.2041  157.3159 H   0  0  0  0  0  0  0  0  0  0  0  0
  149.3784  142.9912  156.2683 H   0  0  0  0  0  0  0  0  0  0  0  0
  147.9409  140.5559  156.5851 H   0  0  0  0  0  0  0  0  0  0  0  0
  150.1257  140.5483  154.4526 H   0  0  0  0  0  0  0  0  0  0  0  0
  150.0248  139.4795  155.8314 H   0  0  0  0  0  0  0  0  0  0  0  0
  149.1982  138.3834  153.7631 H   0  0  0  0  0  0  0  0  0  0  0  0
  147.9274  138.4801  154.9636 H   0  0  0  0  0  0  0  0  0  0  0  0
  146.3131  139.5190  151.7424 H   0  0  0  0  0  0  0  0  0  0  0  0
  147.6005  138.3374  151.8129 H   0  0  0  0  0  0  0  0  0  0  0  0
  147.1066  136.3999  152.4233 H   0  0  0  0  0  0  0  0  0  0  0  0
  146.2235  141.3495  153.2986 H   0  0  0  0  0  0  0  0  0  0  0  0
  146.1176  140.2775  154.6822 H   0  0  0  0  0  0  0  0  0  0  0  0
  146.9873  142.4977  155.3630 H   0  0  0  0  0  0  0  0  0  0  0  0
  148.2589  142.4080  154.1679 H   0  0  0  0  0  0  0  0  0  0  0  0
  153.1460  140.8384  158.3341 H   0  0  0  0  0  0  0  0  0  0  0  0
  154.1703  140.6556  160.8551 H   0  0  0  0  0  0  0  0  0  0  0  0
  152.7585  142.5942  162.2438 H   0  0  0  0  0  0  0  0  0  0  0  0
  148.3014  140.3519  152.7386 H   0  0  0  0  0  0  0  0  0  0  0  0
  1  2  1  0  0  0  0
  1 21  1  0  0  0  0
  1 22  1  0  0  0  0
  1 23  1  0  0  0  0
  2  3  1  0  0  0  0
  2 16  1  0  0  0  0
  2 24  1  0  0  0  0
  3  4  2  0  0  0  0
  3  5  1  0  0  0  0
  5  6  1  0  0  0  0
  5 25  1  0  0  0  0
  6 15  1  0  0  0  0
  6  7  1  0  0  0  0
  6 26  1  0  0  0  0
  7  8  1  0  0  0  0
  7 27  1  0  0  0  0
  7 28  1  0  0  0  0
  8  9  1  0  0  0  0
  8 29  1  0  0  0  0
  8 30  1  0  0  0  0
  9 10  1  0  0  0  0
  9 14  1  0  0  0  0
  9 41  1  0  0  0  0
 10 11  1  0  0  0  0
 10 31  1  0  0  0  0
 10 32  1  0  0  0  0
 11 12  1  0  0  0  0
 11 13  2  0  0  0  0
 12 33  1  0  0  0  0
 14 15  1  0  0  0  0
 14 34  1  0  0  0  0
 14 35  1  0  0  0  0
 15 36  1  0  0  0  0
 15 37  1  0  0  0  0
 16 20  1  0  0  0  0
 16 17  1  0  0  0  0
 17 18  2  0  0  0  0
 17 38  1  0  0  0  0
 18 19  1  0  0  0  0
 18 39  1  0  0  0  0
 19 20  2  0  0  0  0
 19 40  1  0  0  0  0
M  CHG  1   9   1
M  CHG  1  12  -1
M  END
> <s_m_source_file>
AV-unprocessed.smi

> <i_m_source_file_index>
560

> <i_lp_mmshare_version>
43012

> <i_f3d_flags>
0

> <s_epik_input>
bjFbY0hdW2NIXVtjSF1uMVtDQEhdKFtDSDNdKUMoPU8pW05IXVtDSF0yW0NIMl1bQ0gyXU4oW0NIMl1bQ0gyXTIpW0NIMl1DKD1PKVtOSDJd

> <s_epik_cmdline>
J2VwaWtfcHl0aG9uJywgJy1waCcsICc3LjAnLCAnLXRuJywgJzgnLCAnLW1hJywgJzIwMCcsICctbWV0YWxfYmluZGluZycsICctaW1hZScsICc8aW5maWxlLm1hZT4nLCAnLW9tYWUnLCAnPG91dGZpbGUubWFlPic=

> <r_lp_tautomer_probability>
1

> <r_epik_Ionization_Penalty>
5.71084

> <r_epik_Ionization_Penalty_Charging>
5.71081

> <r_epik_Ionization_Penalty_Neutral>
3.04611e-05

> <r_epik_State_Penalty>
6.71277

> <r_epik_Charging_Adjusted_Penalty>
12.4236

> <i_epik_Tot_Q>
0

> <i_epik_Tot_abs_Q>
2

> <r_epik_Metal_State_Penalty>
2.67562

> <b_epik_Metal_Only>
1

> <s_lp_Force_Field>
OPLS_2005

> <r_lp_Energy>
10.6989

> <b_lp_Chiralities_Consistent>
1

> <s_lp_Variant>
AV-unprocessed.smi:560-7

> <Gold.Version>
5.8.1

> <Gold.Id.Protein>
6NUR|6NUR_protein|mol2

> <Gold.PLP.Fitness>
43.2990

> <Gold.PLP.PLP>
-35.7908

> <Gold.PLP.part.hbond>
-3.0257

> <Gold.PLP.part.metal>
0.0000

> <Gold.PLP.part.buried>
-3.8891

> <Gold.PLP.part.nonpolar>
-29.9374

> <Gold.PLP.part.repulsive>
0.2926

> <Gold.PLP.ligand.clash>
0.0000

> <Gold.PLP.ligand.torsion>
0.2169

> <Gold.PLP.Chemscore.Hbond>
2.6080

> <Gold.PLP.Chemscore.CHOScore>
0.0000

> <Gold.PLP.Chemscore.Metal>
0.0000

> <Gold.Chemscore.Hbonds>
donor molecule, donor type, donor heavy atom, donor atom, acceptor molecule, acceptor atom, score
      L1  H     5    25       P1  8028  1.00
      L1  H     9    41       P1  7957  0.71
      L1  H    12    33       P1  7948  1.00

> <Gold.PLP.Chemscore.Internal.Correction>
0.1179

> <Gold.Rescore>
     Score         DG    S(hbond)    S(metal)    S(lipo)     H(rot)  DE(clash)    DE(int)     intcor
     15.94     -18.60       2.80        0.00      86.43       2.47       0.18       2.49       ----

> <Gold.Chemscore.Fitness>
15.9360

> <Gold.Chemscore.DG>
-18.5972

> <Gold.Chemscore.ZeroCoef>
-5.4800

> <Gold.Chemscore.Hbond>
2.7954

> <Gold.Chemscore.Metal>
0.0000

> <Gold.Chemscore.Lipo>
86.4311

> <Gold.Chemscore.Internal_Hbond>
0.0000

> <Gold.Chemscore.DEClash>
0.1755

> <Gold.Chemscore.DEInternal>
2.4856

> <Gold.Chemscore.Rot>
2.4734

> <Gold.Chemscore.Internal.Correction>
   9.000000E+99

> <Gold.Chemscore.Hbonds>
donor molecule, donor type, donor heavy atom, donor atom, acceptor molecule, acceptor atom, score
      L1  H     5    25       P1  8028  1.00
      L1  H     9    41       P1  7957  0.69
      L1  H    12    33       P1  7948  1.00

> <Gold.Chemscore.Hbond.Weighted>
-9.3366

> <Gold.Chemscore.Metal.Weighted>
-0.0000

> <Gold.Chemscore.Lipo.Weighted>
-10.1124

> <Gold.Chemscore.Internal_Hbond.Weighted>
0.0000

> <Gold.Chemscore.DEClash.Weighted>
0.1755

> <Gold.Chemscore.DEInternal.Weighted>
2.4856

> <Gold.Chemscore.Rot.Weighted>
6.3318

> <Gold.Chemscore.Internal.Correction.Weighted>
   9.000000E+99

> <Gold.Protein.RotatedTorsions>
[ 6907 6896 6895 6894 ] final  -63.32 input  -60.11 | X-H torsion
[ 7974 7965 7964 7962 ] final   66.04 input  175.53 | X-H torsion
[ 8008 7997 7996 7995 ] final  126.32 input   59.86 | X-H torsion
[ 10167 10162 10161 10158 ] final  -98.19 input  -65.29 | X-H torsion
[ 10718 10713 10712 10709 ] final  -52.95 input   66.30 | X-H torsion
[ 10763 10752 10751 10750 ] final  -38.27 input  -60.55 | X-H torsion
[ 11005 11000 10999 10996 ] final   86.34 input  -57.11 | X-H torsion

> <Gold.Protein.ActiveResidues>
 VAL166  LYS551  ARG553  GLY616  TRP617  ASP618  TYR619  PRO620  LYS621  CYS622 
 ASP623  PHE694  ASN695  SER759  ASP760  ASP761  ALA762  ILE779  LEU786  VAL792 
 PHE793  MET794  SER795  GLU796  ALA797  LYS798  CYS799  TRP800  GLU811  SER814 

> <Gold.Protein.RotatedAtoms>
  150.7657  134.6451  159.6257 H   0  0  0  0  0  0  0  0  0  0  0  0  # atno 6907 bound_to 6896
  152.3687  134.6763  160.0192 H   0  0  0  0  0  0  0  0  0  0  0  0  # atno 6908 bound_to 6896
  151.7130  133.3276  159.3332 H   0  0  0  0  0  0  0  0  0  0  0  0  # atno 6909 bound_to 6896
  145.8313  139.3141  143.0986 H   0  0  0  0  0  0  0  0  0  0  0  0  # atno 7974 bound_to 7965
  156.2860  140.2695  156.2092 H   0  0  0  0  0  0  0  0  0  0  0  0  # atno 8008 bound_to 7997
  155.0282  140.0386  157.2482 H   0  0  0  0  0  0  0  0  0  0  0  0  # atno 8009 bound_to 7997
  154.7377  140.2719  155.6405 H   0  0  0  0  0  0  0  0  0  0  0  0  # atno 8010 bound_to 7997
  140.2756  143.3315  152.0492 H   0  0  0  0  0  0  0  0  0  0  0  0  # atno 10167 bound_to 10162
  156.1577  130.4150  149.9843 H   0  0  0  0  0  0  0  0  0  0  0  0  # atno 10718 bound_to 10713
  153.9100  135.6793  153.4751 H   0  0  0  0  0  0  0  0  0  0  0  0  # atno 10763 bound_to 10752
  153.1083  135.4795  154.8988 H   0  0  0  0  0  0  0  0  0  0  0  0  # atno 10764 bound_to 10752
  154.7532  135.3190  154.8474 H   0  0  0  0  0  0  0  0  0  0  0  0  # atno 10765 bound_to 10752
  139.8947  134.8348  156.2707 H   0  0  0  0  0  0  0  0  0  0  0  0  # atno 11005 bound_to 11000
  145.9567  140.8867  143.0231 LP  0  0  0  0  0  0  0  0  0  0  0  0  # atno 17320 bound_to 7965
  144.6739  140.1756  143.7410 LP  0  0  0  0  0  0  0  0  0  0  0  0  # atno 17321 bound_to 7965
  139.4977  144.6627  151.6428 LP  0  0  0  0  0  0  0  0  0  0  0  0  # atno 17342 bound_to 10162
  140.5854  143.9873  150.6292 LP  0  0  0  0  0  0  0  0  0  0  0  0  # atno 17343 bound_to 10162
  156.7682  130.9176  151.3643 LP  0  0  0  0  0  0  0  0  0  0  0  0  # atno 17370 bound_to 10713
  157.6708  130.9049  150.0035 LP  0  0  0  0  0  0  0  0  0  0  0  0  # atno 17371 bound_to 10713
  141.0102  133.7100  156.1100 LP  0  0  0  0  0  0  0  0  0  0  0  0  # atno 17394 bound_to 11000
  140.7377  134.4184  157.5558 LP  0  0  0  0  0  0  0  0  0  0  0  0  # atno 17395 bound_to 11000

$$$$
