AV-unprocessed.smi:1443|AV-procd|sdf|5877|dock6
  -GOLD-   22720 5553D 1   1.00000     0.00000
 Structure written by MMmdl.
 27 28  0  0  0  0  0  0  0  0  1 V2000
  146.4805  138.3256  151.9993 C   0  0  0  0  0  0  0  0  0  0  0  0
  146.7738  140.1031  152.2137 S   0  0  0  0  0  0  0  0  0  0  0  0
  147.9422  140.2461  153.5272 C   0  0  0  0  0  0  0  0  0  0  0  0
  148.6319  139.1719  153.9522 N   0  0  0  0  0  0  0  0  0  0  0  0
  149.6525  139.6515  155.2122 S   0  0  0  0  0  0  0  0  0  0  0  0
  149.0837  141.2904  155.0902 C   0  0  0  0  0  0  0  0  0  0  0  0
  149.5612  142.3328  155.9371 N   0  0  0  0  0  0  0  0  0  0  0  0
  150.2935  142.2905  157.0713 C   0  0  0  0  0  0  0  0  0  0  0  0
  150.6692  141.2191  157.5440 O   0  0  0  0  0  0  0  0  0  0  0  0
  150.5785  143.4758  157.6333 N   0  0  0  0  0  0  0  0  0  0  0  0
  151.3330  143.6818  158.8248 C   0  0  2  0  0  0  0  0  0  0  0  0
  152.5137  144.6230  158.7275 C   0  0  0  0  0  0  0  0  0  0  0  0
  152.7489  143.1431  158.8661 C   0  0  1  0  0  0  0  0  0  0  0  0
  153.3337  142.5875  160.1465 C   0  0  0  0  0  0  0  0  0  0  0  0
  148.1675  141.4257  154.1316 N   0  0  0  0  0  0  0  0  0  0  0  0
  145.7697  138.1569  151.1905 H   0  0  0  0  0  0  0  0  0  0  0  0
  146.0735  137.8931  152.9136 H   0  0  0  0  0  0  0  0  0  0  0  0
  147.4104  137.8114  151.7552 H   0  0  0  0  0  0  0  0  0  0  0  0
  149.3153  143.2635  155.6325 H   0  0  0  0  0  0  0  0  0  0  0  0
  150.2280  144.3036  157.1726 H   0  0  0  0  0  0  0  0  0  0  0  0
  150.7879  143.6954  159.7678 H   0  0  0  0  0  0  0  0  0  0  0  0
  152.7286  145.0743  157.7603 H   0  0  0  0  0  0  0  0  0  0  0  0
  152.7212  145.2542  159.5895 H   0  0  0  0  0  0  0  0  0  0  0  0
  153.0961  142.6307  157.9704 H   0  0  0  0  0  0  0  0  0  0  0  0
  152.9599  143.1337  161.0131 H   0  0  0  0  0  0  0  0  0  0  0  0
  154.4205  142.6670  160.1266 H   0  0  0  0  0  0  0  0  0  0  0  0
  153.0632  141.5370  160.2549 H   0  0  0  0  0  0  0  0  0  0  0  0
  1  2  1  0  0  0  0
  1 16  1  0  0  0  0
  1 17  1  0  0  0  0
  1 18  1  0  0  0  0
  2  3  1  0  0  0  0
  3 15  1  0  0  0  0
  3  4  2  0  0  0  0
  4  5  1  0  0  0  0
  5  6  1  0  0  0  0
  6  7  1  0  0  0  0
  6 15  2  0  0  0  0
  7  8  1  0  0  0  0
  7 19  1  0  0  0  0
  8  9  2  0  0  0  0
  8 10  1  0  0  0  0
 10 11  1  0  0  0  0
 10 20  1  0  0  0  0
 11 13  1  0  0  0  0
 11 12  1  0  0  0  0
 11 21  1  0  0  0  0
 12 13  1  0  0  0  0
 12 22  1  0  0  0  0
 12 23  1  0  0  0  0
 13 14  1  0  0  0  0
 13 24  1  0  0  0  0
 14 25  1  0  0  0  0
 14 26  1  0  0  0  0
 14 27  1  0  0  0  0
M  END
> <s_m_source_file>
AV-unprocessed.smi

> <i_m_source_file_index>
1443

> <i_lp_mmshare_version>
43012

> <i_f3d_flags>
0

> <s_epik_input>
W0NIM11TYzFuc2MobjEpW05IXUMoPU8pW05IXVtDQEBIXTJbQ0gyXVtDQEhdMltDSDNd

> <s_epik_cmdline>
J2VwaWtfcHl0aG9uJywgJy1waCcsICc3LjAnLCAnLXRuJywgJzgnLCAnLW1hJywgJzIwMCcsICctbWV0YWxfYmluZGluZycsICctaW1hZScsICc8aW5maWxlLm1hZT4nLCAnLW9tYWUnLCAnPG91dGZpbGUubWFlPic=

> <r_lp_tautomer_probability>
1

> <r_epik_Ionization_Penalty>
2.74658e-05

> <r_epik_Ionization_Penalty_Charging>
0

> <r_epik_Ionization_Penalty_Neutral>
2.74658e-05

> <r_epik_State_Penalty>
-0

> <r_epik_Charging_Adjusted_Penalty>
0

> <i_epik_Tot_Q>
0

> <i_epik_Tot_abs_Q>
0

> <r_epik_Metal_State_Penalty>
-0

> <b_epik_Metal_Only>
0

> <s_lp_Force_Field>
OPLS_2005

> <r_lp_Energy>
20.7527

> <b_lp_Chiralities_Consistent>
1

> <s_lp_Variant>
AV-unprocessed.smi:1443-1

> <Gold.Version>
5.8.1

> <Gold.Id.Protein>
6NUR|6NUR_protein|mol2

> <Gold.PLP.Fitness>
34.9983

> <Gold.PLP.PLP>
-30.2120

> <Gold.PLP.part.hbond>
-1.8875

> <Gold.PLP.part.metal>
0.0000

> <Gold.PLP.part.buried>
1.3003

> <Gold.PLP.part.nonpolar>
-31.0731

> <Gold.PLP.part.repulsive>
0.9201

> <Gold.PLP.ligand.clash>
0.0000

> <Gold.PLP.ligand.torsion>
0.2279

> <Gold.PLP.Chemscore.Hbond>
1.7363

> <Gold.PLP.Chemscore.CHOScore>
0.0000

> <Gold.PLP.Chemscore.Metal>
0.0000

> <Gold.Chemscore.Hbonds>
donor molecule, donor type, donor heavy atom, donor atom, acceptor molecule, acceptor atom, score
      L1  H     7    19       P1  8028  0.96
      L1  H    10    20       P1  8028  0.76

> <Gold.PLP.Chemscore.Internal.Correction>
0.0332

> <Gold.Rescore>
     Score         DG    S(hbond)    S(metal)    S(lipo)     H(rot)  DE(clash)    DE(int)     intcor
     14.89     -16.51       1.86        0.00      68.94       1.27       0.11       1.51       ----

> <Gold.Chemscore.Fitness>
14.8908

> <Gold.Chemscore.DG>
-16.5103

> <Gold.Chemscore.ZeroCoef>
-5.4800

> <Gold.Chemscore.Hbond>
1.8609

> <Gold.Chemscore.Metal>
0.0000

> <Gold.Chemscore.Lipo>
68.9398

> <Gold.Chemscore.Internal_Hbond>
0.0000

> <Gold.Chemscore.DEClash>
0.1119

> <Gold.Chemscore.DEInternal>
1.5075

> <Gold.Chemscore.Rot>
1.2699

> <Gold.Chemscore.Internal.Correction>
   9.000000E+99

> <Gold.Chemscore.Hbonds>
donor molecule, donor type, donor heavy atom, donor atom, acceptor molecule, acceptor atom, score
      L1  H     7    19       P1  8028  0.91
      L1  H    10    20       P1  8028  0.55

> <Gold.Chemscore.Hbond.Weighted>
-6.2153

> <Gold.Chemscore.Metal.Weighted>
-0.0000

> <Gold.Chemscore.Lipo.Weighted>
-8.0660

> <Gold.Chemscore.Internal_Hbond.Weighted>
0.0000

> <Gold.Chemscore.DEClash.Weighted>
0.1119

> <Gold.Chemscore.DEInternal.Weighted>
1.5075

> <Gold.Chemscore.Rot.Weighted>
3.2509

> <Gold.Chemscore.Internal.Correction.Weighted>
   9.000000E+99

> <Gold.Protein.RotatedTorsions>
[ 6907 6896 6895 6894 ] final  175.85 input  -60.11 | X-H torsion
[ 7974 7965 7964 7962 ] final   84.83 input  175.53 | X-H torsion
[ 8008 7997 7996 7995 ] final  161.70 input   59.86 | X-H torsion
[ 10167 10162 10161 10158 ] final   31.01 input  -65.29 | X-H torsion
[ 10718 10713 10712 10709 ] final  -62.66 input   66.30 | X-H torsion
[ 10763 10752 10751 10750 ] final   68.65 input  -60.55 | X-H torsion
[ 11005 11000 10999 10996 ] final  169.07 input  -57.11 | X-H torsion

> <Gold.Protein.ActiveResidues>
 VAL166  LYS551  ARG553  GLY616  TRP617  ASP618  TYR619  PRO620  LYS621  CYS622 
 ASP623  PHE694  ASN695  SER759  ASP760  ASP761  ALA762  ILE779  LEU786  VAL792 
 PHE793  MET794  SER795  GLU796  ALA797  LYS798  CYS799  TRP800  GLU811  SER814 

> <Gold.Protein.RotatedAtoms>
  151.7295  133.3317  159.3336 H   0  0  0  0  0  0  0  0  0  0  0  0  # atno 6907 bound_to 6896
  150.7618  134.6376  159.6229 H   0  0  0  0  0  0  0  0  0  0  0  0  # atno 6908 bound_to 6896
  152.3601  134.6887  160.0261 H   0  0  0  0  0  0  0  0  0  0  0  0  # atno 6909 bound_to 6896
  145.5936  139.2341  143.2286 H   0  0  0  0  0  0  0  0  0  0  0  0  # atno 7974 bound_to 7965
  156.2084  140.1770  156.7748 H   0  0  0  0  0  0  0  0  0  0  0  0  # atno 8008 bound_to 7997
  154.5688  140.0686  156.8962 H   0  0  0  0  0  0  0  0  0  0  0  0  # atno 8009 bound_to 7997
  155.2711  140.3342  155.4267 H   0  0  0  0  0  0  0  0  0  0  0  0  # atno 8010 bound_to 7997
  140.4627  144.0882  150.6217 H   0  0  0  0  0  0  0  0  0  0  0  0  # atno 10167 bound_to 10162
  156.0841  130.4211  150.1166 H   0  0  0  0  0  0  0  0  0  0  0  0  # atno 10718 bound_to 10713
  153.0246  135.5240  154.7166 H   0  0  0  0  0  0  0  0  0  0  0  0  # atno 10763 bound_to 10752
  154.6233  135.2891  155.0303 H   0  0  0  0  0  0  0  0  0  0  0  0  # atno 10764 bound_to 10752
  154.1281  135.6597  153.4969 H   0  0  0  0  0  0  0  0  0  0  0  0  # atno 10765 bound_to 10752
  140.2939  134.7651  157.3861 H   0  0  0  0  0  0  0  0  0  0  0  0  # atno 11005 bound_to 11000
  146.1629  140.6761  142.9269 LP  0  0  0  0  0  0  0  0  0  0  0  0  # atno 17320 bound_to 7965
  144.7340  140.4756  143.6917 LP  0  0  0  0  0  0  0  0  0  0  0  0  # atno 17321 bound_to 7965
  140.4074  143.2674  151.9874 LP  0  0  0  0  0  0  0  0  0  0  0  0  # atno 17342 bound_to 10162
  139.4808  144.5945  151.7714 LP  0  0  0  0  0  0  0  0  0  0  0  0  # atno 17343 bound_to 10162
  156.9191  130.9677  151.3551 LP  0  0  0  0  0  0  0  0  0  0  0  0  # atno 17370 bound_to 10713
  157.5969  130.8484  149.8742 LP  0  0  0  0  0  0  0  0  0  0  0  0  # atno 17371 bound_to 10713
  140.1170  134.5269  155.8216 LP  0  0  0  0  0  0  0  0  0  0  0  0  # atno 17394 bound_to 11000
  141.2141  133.6743  156.6796 LP  0  0  0  0  0  0  0  0  0  0  0  0  # atno 17395 bound_to 11000

$$$$
