AV-unprocessed.smi:23|AV-procd|sdf|173|dock7
  -GOLD-   2262015433D 1   1.00000     0.00000
 Structure written by MMmdl.
 53 56  0  0  0  0  0  0  0  0  1 V2000
  153.7806  140.4426  160.6161 C   0  0  0  0  0  0  0  0  0  0  0  0
  154.0991  141.6659  159.9627 O   0  0  0  0  0  0  0  0  0  0  0  0
  153.0333  142.5564  159.6152 C   0  0  1  0  0  0  0  0  0  0  0  0
  152.4371  142.9228  160.9894 C   0  0  0  0  0  0  0  0  0  0  0  0
  153.5915  143.8095  158.8936 C   0  0  0  0  0  0  0  0  0  0  0  0
  152.4641  144.7508  158.4343 C   0  0  0  0  0  0  0  0  0  0  0  0
  151.4135  143.9977  157.6017 C   0  0  0  0  0  0  0  0  0  0  0  0
  150.9255  142.8202  158.3212 N   0  0  0  0  0  0  0  0  0  0  0  0
  149.7625  142.2551  157.9097 C   0  0  0  0  0  0  0  0  0  0  0  0
  148.6033  142.5345  158.5636 N   0  0  0  0  0  0  0  0  0  0  0  0
  147.4524  141.9889  158.1595 C   0  0  0  0  0  0  0  0  0  0  0  0
  147.2369  141.1533  157.1417 N   0  0  0  0  0  0  0  0  0  0  0  0
  148.3960  140.8656  156.4828 C   0  0  0  0  0  0  0  0  0  0  0  0
  149.6911  141.3631  156.8024 C   0  0  0  0  0  0  0  0  0  0  0  0
  150.6317  140.8261  155.9310 N   0  0  0  0  0  0  0  0  0  0  0  0
  149.9319  140.0612  155.1385 C   0  0  0  0  0  0  0  0  0  0  0  0
  148.5762  140.0506  155.3782 N   0  0  0  0  0  0  0  0  0  0  0  0
  147.5906  139.2717  154.6861 C   0  0  0  0  0  0  0  0  0  0  0  0
  147.9482  138.4989  153.4123 C   0  0  0  0  0  0  0  0  0  0  0  0
  146.5614  138.8193  152.8119 C   0  0  0  0  0  0  0  0  0  0  0  0
  146.5775  139.3188  151.3587 C   0  0  0  0  0  0  0  0  0  0  0  0
  146.5980  138.2432  150.4421 O   0  0  0  0  0  0  0  0  0  0  0  0
  145.4831  137.7163  152.9014 C   0  0  0  0  0  0  0  0  0  0  0  0
  144.2346  138.1098  152.3691 O   0  0  0  0  0  0  0  0  0  0  0  0
  146.4814  139.9427  153.8698 C   0  0  0  0  0  0  0  0  0  0  0  0
  151.9601  141.8709  158.7329 C   0  0  0  0  0  0  0  0  0  0  0  0
  154.6924  139.8553  160.7233 H   0  0  0  0  0  0  0  0  0  0  0  0
  153.0705  139.8362  160.0564 H   0  0  0  0  0  0  0  0  0  0  0  0
  153.3915  140.6094  161.6204 H   0  0  0  0  0  0  0  0  0  0  0  0
  151.5833  143.5949  160.9070 H   0  0  0  0  0  0  0  0  0  0  0  0
  153.1788  143.4098  161.6234 H   0  0  0  0  0  0  0  0  0  0  0  0
  152.0923  142.0316  161.5150 H   0  0  0  0  0  0  0  0  0  0  0  0
  154.2880  144.3438  159.5403 H   0  0  0  0  0  0  0  0  0  0  0  0
  154.1577  143.5199  158.0095 H   0  0  0  0  0  0  0  0  0  0  0  0
  151.9850  145.2103  159.2988 H   0  0  0  0  0  0  0  0  0  0  0  0
  152.8810  145.5710  157.8493 H   0  0  0  0  0  0  0  0  0  0  0  0
  150.5860  144.6705  157.3725 H   0  0  0  0  0  0  0  0  0  0  0  0
  151.8465  143.6832  156.6511 H   0  0  0  0  0  0  0  0  0  0  0  0
  146.5783  142.2636  158.7313 H   0  0  0  0  0  0  0  0  0  0  0  0
  150.3899  139.4839  154.3484 H   0  0  0  0  0  0  0  0  0  0  0  0
  147.1646  138.6027  155.4347 H   0  0  0  0  0  0  0  0  0  0  0  0
  148.7634  138.9659  152.8569 H   0  0  0  0  0  0  0  0  0  0  0  0
  148.1439  137.4378  153.5701 H   0  0  0  0  0  0  0  0  0  0  0  0
  145.7118  139.9478  151.1475 H   0  0  0  0  0  0  0  0  0  0  0  0
  147.4581  139.9332  151.1678 H   0  0  0  0  0  0  0  0  0  0  0  0
  145.7441  138.1721  150.0433 H   0  0  0  0  0  0  0  0  0  0  0  0
  145.8022  136.8211  152.3667 H   0  0  0  0  0  0  0  0  0  0  0  0
  145.3149  137.4180  153.9365 H   0  0  0  0  0  0  0  0  0  0  0  0
  144.2278  139.0510  152.2836 H   0  0  0  0  0  0  0  0  0  0  0  0
  145.5254  140.0175  154.3892 H   0  0  0  0  0  0  0  0  0  0  0  0
  146.7875  140.9160  153.4825 H   0  0  0  0  0  0  0  0  0  0  0  0
  152.4065  141.4821  157.8175 H   0  0  0  0  0  0  0  0  0  0  0  0
  151.5420  141.0140  159.2603 H   0  0  0  0  0  0  0  0  0  0  0  0
  1  2  1  0  0  0  0
  1 27  1  0  0  0  0
  1 28  1  0  0  0  0
  1 29  1  0  0  0  0
  2  3  1  0  0  0  0
  3 26  1  0  0  0  0
  3  4  1  0  0  0  0
  3  5  1  0  0  0  0
  4 30  1  0  0  0  0
  4 31  1  0  0  0  0
  4 32  1  0  0  0  0
  5  6  1  0  0  0  0
  5 33  1  0  0  0  0
  5 34  1  0  0  0  0
  6  7  1  0  0  0  0
  6 35  1  0  0  0  0
  6 36  1  0  0  0  0
  7  8  1  0  0  0  0
  7 37  1  0  0  0  0
  7 38  1  0  0  0  0
  8  9  1  0  0  0  0
  8 26  1  0  0  0  0
  9 14  1  0  0  0  0
  9 10  2  0  0  0  0
 10 11  1  0  0  0  0
 11 12  2  0  0  0  0
 11 39  1  0  0  0  0
 12 13  1  0  0  0  0
 13 17  1  0  0  0  0
 13 14  2  0  0  0  0
 14 15  1  0  0  0  0
 15 16  2  0  0  0  0
 16 17  1  0  0  0  0
 16 40  1  0  0  0  0
 17 18  1  0  0  0  0
 18 25  1  0  0  0  0
 18 19  1  0  0  0  0
 18 41  1  0  0  0  0
 19 20  1  0  0  0  0
 19 42  1  0  0  0  0
 19 43  1  0  0  0  0
 20 21  1  0  0  0  0
 20 23  1  0  0  0  0
 20 25  1  0  0  0  0
 21 22  1  0  0  0  0
 21 44  1  0  0  0  0
 21 45  1  0  0  0  0
 22 46  1  0  0  0  0
 23 24  1  0  0  0  0
 23 47  1  0  0  0  0
 23 48  1  0  0  0  0
 24 49  1  0  0  0  0
 25 50  1  0  0  0  0
 25 51  1  0  0  0  0
 26 52  1  0  0  0  0
 26 53  1  0  0  0  0
M  END
> <s_m_source_file>
AV-unprocessed.smi

> <i_m_source_file_index>
23

> <i_lp_mmshare_version>
43012

> <i_f3d_flags>
0

> <s_epik_input>
W0NIM11PW0NAQF0xKFtDSDNdKVtDSDJdW0NIMl1bQ0gyXU4oW0NIMl0xKWMobltjSF1uMiljKGMyMyluW2NIXW4zW0NIXShbQ0gyXTQpW0NIMl1DNChbQ0gyXVtPSF0pW0NIMl1bT0hd

> <s_epik_cmdline>
J2VwaWtfcHl0aG9uJywgJy1waCcsICc3LjAnLCAnLXRuJywgJzgnLCAnLW1hJywgJzIwMCcsICctbWV0YWxfYmluZGluZycsICctaW1hZScsICc8aW5maWxlLm1hZT4nLCAnLW9tYWUnLCAnPG91dGZpbGUubWFlPic=

> <r_lp_tautomer_probability>
1

> <r_epik_Ionization_Penalty>
0.00233978

> <r_epik_Ionization_Penalty_Charging>
0

> <r_epik_Ionization_Penalty_Neutral>
0.00233978

> <r_epik_State_Penalty>
0.00146422

> <r_epik_Charging_Adjusted_Penalty>
0.00146422

> <i_epik_Tot_Q>
0

> <i_epik_Tot_abs_Q>
0

> <r_epik_Metal_State_Penalty>
-0

> <b_epik_Metal_Only>
0

> <s_lp_Force_Field>
OPLS_2005

> <r_lp_Energy>
49.0819

> <b_lp_Chiralities_Consistent>
1

> <s_lp_Variant>
AV-unprocessed.smi:23-1

> <Gold.Version>
5.8.1

> <Gold.Id.Protein>
6NUR|6NUR_protein|mol2

> <Gold.PLP.Fitness>
50.2540

> <Gold.PLP.PLP>
-41.9083

> <Gold.PLP.part.hbond>
-4.4640

> <Gold.PLP.part.metal>
0.0000

> <Gold.PLP.part.buried>
-3.6554

> <Gold.PLP.part.nonpolar>
-34.9005

> <Gold.PLP.part.repulsive>
0.3126

> <Gold.PLP.ligand.clash>
0.0000

> <Gold.PLP.ligand.torsion>
0.6818

> <Gold.PLP.Chemscore.Hbond>
2.9513

> <Gold.PLP.Chemscore.CHOScore>
0.0000

> <Gold.PLP.Chemscore.Metal>
0.0000

> <Gold.Chemscore.Hbonds>
donor molecule, donor type, donor heavy atom, donor atom, acceptor molecule, acceptor atom, score
      L1  H    22    46       P1 10171  1.00
      L1  H    24    49       P1 10175  0.94
      P1  H  7954  7966       L1    22  0.85

> <Gold.PLP.Chemscore.Internal.Correction>
0.8556

> <Gold.Rescore>
     Score         DG    S(hbond)    S(metal)    S(lipo)     H(rot)  DE(clash)    DE(int)     intcor
     18.41     -19.57       2.87        0.00     112.63       3.38       0.41       0.75       ----

> <Gold.Chemscore.Fitness>
18.4093

> <Gold.Chemscore.DG>
-19.5695

> <Gold.Chemscore.ZeroCoef>
-5.4800

> <Gold.Chemscore.Hbond>
2.8667

> <Gold.Chemscore.Metal>
0.0000

> <Gold.Chemscore.Lipo>
112.6251

> <Gold.Chemscore.Internal_Hbond>
0.0000

> <Gold.Chemscore.DEClash>
0.4143

> <Gold.Chemscore.DEInternal>
0.7459

> <Gold.Chemscore.Rot>
3.3837

> <Gold.Chemscore.Internal.Correction>
   9.000000E+99

> <Gold.Chemscore.Hbonds>
donor molecule, donor type, donor heavy atom, donor atom, acceptor molecule, acceptor atom, score
      L1  H    22    46       P1 10171  0.98
      L1  H    24    49       P1 10175  0.88
      P1  H  7954  7966       L1    22  0.72

> <Gold.Chemscore.Hbond.Weighted>
-9.5746

> <Gold.Chemscore.Metal.Weighted>
-0.0000

> <Gold.Chemscore.Lipo.Weighted>
-13.1771

> <Gold.Chemscore.Internal_Hbond.Weighted>
0.0000

> <Gold.Chemscore.DEClash.Weighted>
0.4143

> <Gold.Chemscore.DEInternal.Weighted>
0.7459

> <Gold.Chemscore.Rot.Weighted>
8.6622

> <Gold.Chemscore.Internal.Correction.Weighted>
   9.000000E+99

> <Gold.Protein.RotatedTorsions>
[ 6907 6896 6895 6894 ] final  172.30 input  -60.11 | X-H torsion
[ 7974 7965 7964 7962 ] final   66.55 input  175.53 | X-H torsion
[ 8008 7997 7996 7995 ] final  -17.29 input   59.86 | X-H torsion
[ 10167 10162 10161 10158 ] final  -25.45 input  -65.29 | X-H torsion
[ 10718 10713 10712 10709 ] final  -42.06 input   66.30 | X-H torsion
[ 10763 10752 10751 10750 ] final  -21.43 input  -60.55 | X-H torsion
[ 11005 11000 10999 10996 ] final -103.10 input  -57.11 | X-H torsion

> <Gold.Protein.ActiveResidues>
 VAL166  LYS551  ARG553  GLY616  TRP617  ASP618  TYR619  PRO620  LYS621  CYS622 
 ASP623  PHE694  ASN695  SER759  ASP760  ASP761  ALA762  ILE779  LEU786  VAL792 
 PHE793  MET794  SER795  GLU796  ALA797  LYS798  CYS799  TRP800  GLU811  SER814 

> <Gold.Protein.RotatedAtoms>
  151.7865  133.3355  159.3486 H   0  0  0  0  0  0  0  0  0  0  0  0  # atno 6907 bound_to 6896
  150.7407  134.5882  159.5983 H   0  0  0  0  0  0  0  0  0  0  0  0  # atno 6908 bound_to 6896
  152.3240  134.7346  160.0358 H   0  0  0  0  0  0  0  0  0  0  0  0  # atno 6909 bound_to 6896
  145.8253  139.3108  143.1019 H   0  0  0  0  0  0  0  0  0  0  0  0  # atno 7974 bound_to 7965
  154.4989  140.2146  155.9388 H   0  0  0  0  0  0  0  0  0  0  0  0  # atno 8008 bound_to 7997
  156.1407  140.3180  155.8459 H   0  0  0  0  0  0  0  0  0  0  0  0  # atno 8009 bound_to 7997
  155.4125  140.0491  157.3021 H   0  0  0  0  0  0  0  0  0  0  0  0  # atno 8010 bound_to 7997
  140.7286  143.4264  151.0870 H   0  0  0  0  0  0  0  0  0  0  0  0  # atno 10167 bound_to 10162
  156.2637  130.4199  149.8514 H   0  0  0  0  0  0  0  0  0  0  0  0  # atno 10718 bound_to 10713
  153.6361  135.6987  153.5258 H   0  0  0  0  0  0  0  0  0  0  0  0  # atno 10763 bound_to 10752
  153.2820  135.4183  155.1087 H   0  0  0  0  0  0  0  0  0  0  0  0  # atno 10764 bound_to 10752
  154.8511  135.3604  154.5904 H   0  0  0  0  0  0  0  0  0  0  0  0  # atno 10765 bound_to 10752
  141.1160  133.8613  157.1444 H   0  0  0  0  0  0  0  0  0  0  0  0  # atno 11005 bound_to 11000
  145.9630  140.8820  143.0201 LP  0  0  0  0  0  0  0  0  0  0  0  0  # atno 17320 bound_to 7965
  144.6744  140.1839  143.7403 LP  0  0  0  0  0  0  0  0  0  0  0  0  # atno 17321 bound_to 7965
  139.7916  143.8210  152.3152 LP  0  0  0  0  0  0  0  0  0  0  0  0  # atno 17342 bound_to 10162
  139.8196  144.7301  150.9590 LP  0  0  0  0  0  0  0  0  0  0  0  0  # atno 17343 bound_to 10162
  156.6020  130.8550  151.3434 LP  0  0  0  0  0  0  0  0  0  0  0  0  # atno 17370 bound_to 10713
  157.7260  130.9623  150.1636 LP  0  0  0  0  0  0  0  0  0  0  0  0  # atno 17371 bound_to 10713
  140.0083  134.9999  157.0340 LP  0  0  0  0  0  0  0  0  0  0  0  0  # atno 17394 bound_to 11000
  140.4643  134.1451  155.7195 LP  0  0  0  0  0  0  0  0  0  0  0  0  # atno 17395 bound_to 11000

$$$$
