AV-unprocessed.smi:333|AV-procd|sdf|2361|dock10
  -GOLD-   2262022273D 1   1.00000     0.00000
 Structure written by MMmdl.
 26 26  0  0  0  0  0  0  0  0  1 V2000
  141.3203  138.7588  153.2605 N   0  0  0  0  0  0  0  0  0  0  0  0
  141.0555  137.4466  153.2810 C   0  0  0  0  0  0  0  0  0  0  0  0
  139.9004  137.0744  153.4863 O   0  0  0  0  0  0  0  0  0  0  0  0
  142.2350  136.5862  153.0471 C   0  0  0  0  0  0  0  0  0  0  0  0
  143.3955  137.0404  152.5088 C   0  0  0  0  0  0  0  0  0  0  0  0
  144.5388  136.1713  152.2919 C   0  0  0  0  0  0  0  0  0  0  0  0
  145.8099  136.7456  151.6795 C   0  0  0  0  0  0  0  0  0  0  0  0
  146.2123  138.1001  152.2864 C   0  0  0  0  0  0  0  0  0  0  0  0
  147.3327  138.6381  151.6167 O   0  0  0  0  0  0  0  0  0  0  0  0
  144.3980  134.8687  152.6309 C   0  0  0  0  0  0  0  0  0  0  0  0
  145.4596  133.7808  152.4795 C   0  0  0  0  0  0  0  0  0  0  0  0
  145.0018  132.6182  152.9434 F   0  0  0  0  0  0  0  0  0  0  0  0
  145.7949  133.6223  151.1998 F   0  0  0  0  0  0  0  0  0  0  0  0
  146.5725  134.0760  153.1553 F   0  0  0  0  0  0  0  0  0  0  0  0
  143.1961  134.4098  153.1887 N   0  0  0  0  0  0  0  0  0  0  0  0
  142.0993  135.1615  153.4300 C   0  0  0  0  0  0  0  0  0  0  0  0
  141.1103  134.6255  153.9302 O   0  0  0  0  0  0  0  0  0  0  0  0
  143.1612  133.4291  153.4280 H   0  0  0  0  0  0  0  0  0  0  0  0
  140.5735  139.4209  153.4144 H   0  0  0  0  0  0  0  0  0  0  0  0
  142.2618  139.0829  153.0953 H   0  0  0  0  0  0  0  0  0  0  0  0
  143.5084  138.0746  152.2190 H   0  0  0  0  0  0  0  0  0  0  0  0
  146.6415  136.0470  151.7559 H   0  0  0  0  0  0  0  0  0  0  0  0
  145.6329  136.8731  150.6110 H   0  0  0  0  0  0  0  0  0  0  0  0
  145.3864  138.8068  152.2023 H   0  0  0  0  0  0  0  0  0  0  0  0
  146.4412  138.0016  153.3478 H   0  0  0  0  0  0  0  0  0  0  0  0
  147.9429  137.9384  151.4399 H   0  0  0  0  0  0  0  0  0  0  0  0
  1  2  1  0  0  0  0
  1 19  1  0  0  0  0
  1 20  1  0  0  0  0
  2  3  2  0  0  0  0
  2  4  1  0  0  0  0
  4 16  1  0  0  0  0
  4  5  2  0  0  0  0
  5  6  1  0  0  0  0
  5 21  1  0  0  0  0
  6  7  1  0  0  0  0
  6 10  2  0  0  0  0
  7  8  1  0  0  0  0
  7 22  1  0  0  0  0
  7 23  1  0  0  0  0
  8  9  1  0  0  0  0
  8 24  1  0  0  0  0
  8 25  1  0  0  0  0
  9 26  1  0  0  0  0
 10 11  1  0  0  0  0
 10 15  1  0  0  0  0
 11 12  1  0  0  0  0
 11 13  1  0  0  0  0
 11 14  1  0  0  0  0
 15 18  1  0  0  0  0
 15 16  1  0  0  0  0
 16 17  2  0  0  0  0
M  END
> <s_m_source_file>
AV-unprocessed.smi

> <i_m_source_file_index>
333

> <i_lp_mmshare_version>
43012

> <i_f3d_flags>
0

> <s_epik_input>
W05IMl1DKD1PKWMxW2NIXWMoW0NIMl1bQ0gyXVtPSF0pYyhDKEYpKEYpRilbbkhdYzE9Tw==

> <s_epik_cmdline>
J2VwaWtfcHl0aG9uJywgJy1waCcsICc3LjAnLCAnLXRuJywgJzgnLCAnLW1hJywgJzIwMCcsICctbWV0YWxfYmluZGluZycsICctaW1hZScsICc8aW5maWxlLm1hZT4nLCAnLW9tYWUnLCAnPG91dGZpbGUubWFlPic=

> <r_lp_tautomer_probability>
0.999

> <r_epik_Ionization_Penalty>
1.33848

> <r_epik_Ionization_Penalty_Charging>
1.33848

> <r_epik_Ionization_Penalty_Neutral>
1.5599e-06

> <r_epik_State_Penalty>
1.41551

> <r_epik_Charging_Adjusted_Penalty>
2.75399

> <i_epik_Tot_Q>
0

> <i_epik_Tot_abs_Q>
0

> <r_epik_Metal_State_Penalty>
1.47649

> <b_epik_Metal_Only>
0

> <s_lp_Force_Field>
OPLS_2005

> <r_lp_Energy>
21.6261

> <b_lp_Chiralities_Consistent>
1

> <s_lp_Variant>
AV-unprocessed.smi:333-2

> <Gold.Version>
5.8.1

> <Gold.Id.Protein>
6NUR|6NUR_protein|mol2

> <Gold.PLP.Fitness>
38.3255

> <Gold.PLP.PLP>
-28.1759

> <Gold.PLP.part.hbond>
-6.5671

> <Gold.PLP.part.metal>
0.0000

> <Gold.PLP.part.buried>
-4.6570

> <Gold.PLP.part.nonpolar>
-19.4875

> <Gold.PLP.part.repulsive>
0.2922

> <Gold.PLP.ligand.clash>
0.0000

> <Gold.PLP.ligand.torsion>
0.3460

> <Gold.PLP.Chemscore.Hbond>
3.6095

> <Gold.PLP.Chemscore.CHOScore>
0.0000

> <Gold.PLP.Chemscore.Metal>
0.0000

> <Gold.Chemscore.Hbonds>
donor molecule, donor type, donor heavy atom, donor atom, acceptor molecule, acceptor atom, score
      L1  H     1    20       P1 10175  1.00
      L1  H     9    26       P1  7948  1.00
      L1  H    15    18       P1 10957  0.59
      P1  H 11000 11005       L1    17  1.00

> <Gold.PLP.Chemscore.Internal.Correction>
0.0130

> <Gold.Rescore>
     Score         DG    S(hbond)    S(metal)    S(lipo)     H(rot)  DE(clash)    DE(int)     intcor
     14.35     -16.75       3.86        0.00      32.68       2.13       0.71       1.69       ----

> <Gold.Chemscore.Fitness>
14.3547

> <Gold.Chemscore.DG>
-16.7495

> <Gold.Chemscore.ZeroCoef>
-5.4800

> <Gold.Chemscore.Hbond>
3.8614

> <Gold.Chemscore.Metal>
0.0000

> <Gold.Chemscore.Lipo>
32.6792

> <Gold.Chemscore.Internal_Hbond>
0.0000

> <Gold.Chemscore.DEClash>
0.7078

> <Gold.Chemscore.DEInternal>
1.6870

> <Gold.Chemscore.Rot>
2.1294

> <Gold.Chemscore.Internal.Correction>
   9.000000E+99

> <Gold.Chemscore.Hbonds>
donor molecule, donor type, donor heavy atom, donor atom, acceptor molecule, acceptor atom, score
      L1  H     1    20       P1 10175  0.92
      L1  H     9    26       P1  7948  0.96
      L1  H    15    18       P1 10957  0.56
      P1  H 11000 11005       L1    17  0.92

> <Gold.Chemscore.Hbond.Weighted>
-12.8972

> <Gold.Chemscore.Metal.Weighted>
-0.0000

> <Gold.Chemscore.Lipo.Weighted>
-3.8235

> <Gold.Chemscore.Internal_Hbond.Weighted>
0.0000

> <Gold.Chemscore.DEClash.Weighted>
0.7078

> <Gold.Chemscore.DEInternal.Weighted>
1.6870

> <Gold.Chemscore.Rot.Weighted>
5.4512

> <Gold.Chemscore.Internal.Correction.Weighted>
   9.000000E+99

> <Gold.Protein.RotatedTorsions>
[ 6907 6896 6895 6894 ] final   22.92 input  -60.11 | X-H torsion
[ 7974 7965 7964 7962 ] final  159.18 input  175.53 | X-H torsion
[ 8008 7997 7996 7995 ] final  -28.12 input   59.86 | X-H torsion
[ 10167 10162 10161 10158 ] final  -84.48 input  -65.29 | X-H torsion
[ 10718 10713 10712 10709 ] final  -66.13 input   66.30 | X-H torsion
[ 10763 10752 10751 10750 ] final  163.70 input  -60.55 | X-H torsion
[ 11005 11000 10999 10996 ] final   34.55 input  -57.11 | X-H torsion

> <Gold.Protein.ActiveResidues>
 VAL166  LYS551  ARG553  GLY616  TRP617  ASP618  TYR619  PRO620  LYS621  CYS622 
 ASP623  PHE694  ASN695  SER759  ASP760  ASP761  ALA762  ILE779  LEU786  VAL792 
 PHE793  MET794  SER795  GLU796  ALA797  LYS798  CYS799  TRP800  GLU811  SER814 

> <Gold.Protein.RotatedAtoms>
  151.9345  135.0242  160.0531 H   0  0  0  0  0  0  0  0  0  0  0  0  # atno 6907 bound_to 6896
  152.2090  133.4892  159.5108 H   0  0  0  0  0  0  0  0  0  0  0  0  # atno 6908 bound_to 6896
  150.6972  134.1409  159.4147 H   0  0  0  0  0  0  0  0  0  0  0  0  # atno 6909 bound_to 6896
  144.7804  139.7582  143.6262 H   0  0  0  0  0  0  0  0  0  0  0  0  # atno 7974 bound_to 7965
  154.4346  140.1854  156.1039 H   0  0  0  0  0  0  0  0  0  0  0  0  # atno 8008 bound_to 7997
  156.0270  140.3334  155.7073 H   0  0  0  0  0  0  0  0  0  0  0  0  # atno 8009 bound_to 7997
  155.5894  140.0629  157.2753 H   0  0  0  0  0  0  0  0  0  0  0  0  # atno 8010 bound_to 7997
  140.4128  143.2615  151.8994 H   0  0  0  0  0  0  0  0  0  0  0  0  # atno 10167 bound_to 10162
  156.0629  130.4257  150.1665 H   0  0  0  0  0  0  0  0  0  0  0  0  # atno 10718 bound_to 10713
  154.2977  135.2759  155.2625 H   0  0  0  0  0  0  0  0  0  0  0  0  # atno 10763 bound_to 10752
  154.5076  135.5791  153.6583 H   0  0  0  0  0  0  0  0  0  0  0  0  # atno 10764 bound_to 10752
  152.9905  135.6173  154.3146 H   0  0  0  0  0  0  0  0  0  0  0  0  # atno 10765 bound_to 10752
  140.2517  134.3295  155.7888 H   0  0  0  0  0  0  0  0  0  0  0  0  # atno 11005 bound_to 11000
  146.2009  139.5303  142.9744 LP  0  0  0  0  0  0  0  0  0  0  0  0  # atno 17320 bound_to 7965
  145.6066  141.0346  143.1989 LP  0  0  0  0  0  0  0  0  0  0  0  0  # atno 17321 bound_to 7965
  139.4782  144.5519  151.8373 LP  0  0  0  0  0  0  0  0  0  0  0  0  # atno 17342 bound_to 10162
  140.4619  144.1710  150.5907 LP  0  0  0  0  0  0  0  0  0  0  0  0  # atno 17343 bound_to 10162
  156.9730  130.9840  151.3454 LP  0  0  0  0  0  0  0  0  0  0  0  0  # atno 17370 bound_to 10713
  157.5651  130.8272  149.8317 LP  0  0  0  0  0  0  0  0  0  0  0  0  # atno 17371 bound_to 10713
  141.2200  133.7357  156.9048 LP  0  0  0  0  0  0  0  0  0  0  0  0  # atno 17394 bound_to 11000
  140.1551  134.9204  157.2643 LP  0  0  0  0  0  0  0  0  0  0  0  0  # atno 17395 bound_to 11000

$$$$
