AV-unprocessed.smi:2489|AV-procd|sdf|9802|dock8
  -GOLD-   2272013433D 1   1.00000     0.00000
 Structure written by MMmdl.
 33 34  0  0  0  0  0  0  0  0  1 V2000
  151.8239  145.2817  159.6643 C   0  0  0  0  0  0  0  0  0  0  0  0
  151.6572  144.0850  160.4114 O   0  0  0  0  0  0  0  0  0  0  0  0
  152.1529  142.9224  159.8673 C   0  0  0  0  0  0  0  0  0  0  0  0
  153.1759  142.1038  160.5138 C   0  0  0  0  0  0  0  0  0  0  0  0
  153.5813  140.9862  159.8925 C   0  0  0  0  0  0  0  0  0  0  0  0
  153.0640  140.5906  158.6675 N   0  0  0  0  0  0  0  0  0  0  0  0
  152.0812  141.3322  157.9879 C   0  0  0  0  0  0  0  0  0  0  0  0
  151.5582  141.0181  156.8383 N   0  0  0  0  0  0  0  0  0  0  0  0
  151.9185  139.8716  156.1357 C   0  0  0  0  0  0  0  0  0  0  0  0
  152.7458  139.0028  156.4268 O   0  0  0  0  0  0  0  0  0  0  0  0
  151.1350  139.7390  154.8220 C   0  0  1  0  0  0  0  0  0  0  0  0
  150.1948  138.5215  154.8069 C   0  0  0  0  0  0  0  0  0  0  0  0
  148.8915  139.0899  154.2833 C   0  0  0  0  0  0  0  0  0  0  0  0
  148.9343  140.5175  154.8142 C   0  0  2  0  0  0  0  0  0  0  0  0
  148.0233  141.4945  154.0640 C   0  0  0  0  0  0  0  0  0  0  0  0
  150.2977  140.8845  154.6526 O   0  0  0  0  0  0  0  0  0  0  0  0
  151.6464  142.5429  158.6707 C   0  0  0  0  0  0  0  0  0  0  0  0
  151.3858  146.1127  160.2168 H   0  0  0  0  0  0  0  0  0  0  0  0
  151.3162  145.2254  158.7005 H   0  0  0  0  0  0  0  0  0  0  0  0
  152.8783  145.5129  159.5071 H   0  0  0  0  0  0  0  0  0  0  0  0
  153.6136  142.3648  161.4653 H   0  0  0  0  0  0  0  0  0  0  0  0
  154.3318  140.3235  160.2976 H   0  0  0  0  0  0  0  0  0  0  0  0
  151.8165  139.7044  153.9702 H   0  0  0  0  0  0  0  0  0  0  0  0
  150.5711  137.7141  154.1786 H   0  0  0  0  0  0  0  0  0  0  0  0
  150.0428  138.1168  155.8091 H   0  0  0  0  0  0  0  0  0  0  0  0
  148.8987  139.0892  153.1925 H   0  0  0  0  0  0  0  0  0  0  0  0
  148.0159  138.5343  154.6204 H   0  0  0  0  0  0  0  0  0  0  0  0
  148.6963  140.5222  155.8792 H   0  0  0  0  0  0  0  0  0  0  0  0
  146.9763  141.2063  154.1593 H   0  0  0  0  0  0  0  0  0  0  0  0
  148.2677  141.5256  153.0018 H   0  0  0  0  0  0  0  0  0  0  0  0
  148.1285  142.5050  154.4593 H   0  0  0  0  0  0  0  0  0  0  0  0
  150.8917  143.1788  158.2305 H   0  0  0  0  0  0  0  0  0  0  0  0
  153.4316  139.7335  158.2791 H   0  0  0  0  0  0  0  0  0  0  0  0
  1  2  1  0  0  0  0
  1 18  1  0  0  0  0
  1 19  1  0  0  0  0
  1 20  1  0  0  0  0
  2  3  1  0  0  0  0
  3 17  2  0  0  0  0
  3  4  1  0  0  0  0
  4  5  2  0  0  0  0
  4 21  1  0  0  0  0
  5  6  1  0  0  0  0
  5 22  1  0  0  0  0
  6  7  1  0  0  0  0
  6 33  1  0  0  0  0
  7  8  2  0  0  0  0
  7 17  1  0  0  0  0
  8  9  1  0  0  0  0
  9 10  2  0  0  0  0
  9 11  1  0  0  0  0
 11 16  1  0  0  0  0
 11 12  1  0  0  0  0
 11 23  1  0  0  0  0
 12 13  1  0  0  0  0
 12 24  1  0  0  0  0
 12 25  1  0  0  0  0
 13 14  1  0  0  0  0
 13 26  1  0  0  0  0
 13 27  1  0  0  0  0
 14 15  1  0  0  0  0
 14 16  1  0  0  0  0
 14 28  1  0  0  0  0
 15 29  1  0  0  0  0
 15 30  1  0  0  0  0
 15 31  1  0  0  0  0
 17 32  1  0  0  0  0
M  END
> <s_m_source_file>
AV-unprocessed.smi

> <i_m_source_file_index>
2489

> <i_lp_mmshare_version>
43012

> <i_f3d_flags>
0

> <s_epik_input>
W0NIM11PYzFbY0hdW2NIXW5jKFtjSF0xKVtOSF1DKD1PKVtDQEBIXTJbQ0gyXVtDSDJdW0NASF0oTzIpW0NIM10=

> <s_epik_cmdline>
J2VwaWtfcHl0aG9uJywgJy1waCcsICc3LjAnLCAnLXRuJywgJzgnLCAnLW1hJywgJzIwMCcsICctbWV0YWxfYmluZGluZycsICctaW1hZScsICc8aW5maWxlLm1hZT4nLCAnLW9tYWUnLCAnPG91dGZpbGUubWFlPic=

> <r_epik_Ionization_Penalty>
0.410206

> <r_epik_Ionization_Penalty_Charging>
0.410206

> <r_epik_Ionization_Penalty_Neutral>
6.57528e-13

> <r_epik_State_Penalty>
1.30987

> <r_epik_Charging_Adjusted_Penalty>
1.72007

> <i_epik_Tot_Q>
0

> <i_epik_Tot_abs_Q>
0

> <r_epik_Metal_State_Penalty>
1.32171

> <b_epik_Metal_Only>
0

> <s_lp_Force_Field>
OPLS_2005

> <r_lp_Energy>
36.1754

> <b_lp_Chiralities_Consistent>
1

> <s_lp_Variant>
AV-unprocessed.smi:2489-8

> <Gold.Version>
5.8.1

> <Gold.Id.Protein>
6NUR|6NUR_protein|mol2

> <Gold.PLP.Fitness>
38.4838

> <Gold.PLP.PLP>
-35.5607

> <Gold.PLP.part.hbond>
-2.0000

> <Gold.PLP.part.metal>
0.0000

> <Gold.PLP.part.buried>
-1.3373

> <Gold.PLP.part.nonpolar>
-31.5430

> <Gold.PLP.part.repulsive>
0.3962

> <Gold.PLP.ligand.clash>
0.0000

> <Gold.PLP.ligand.torsion>
0.0414

> <Gold.PLP.Chemscore.Hbond>
1.0000

> <Gold.PLP.Chemscore.CHOScore>
0.0000

> <Gold.PLP.Chemscore.Metal>
0.0000

> <Gold.Chemscore.Hbonds>
donor molecule, donor type, donor heavy atom, donor atom, acceptor molecule, acceptor atom, score
      P1  H  7997  8008       L1    10  1.00

> <Gold.PLP.Chemscore.Internal.Correction>
0.0059

> <Gold.Rescore>
     Score         DG    S(hbond)    S(metal)    S(lipo)     H(rot)  DE(clash)    DE(int)     intcor
     13.08     -14.88       0.88        0.00      82.00       1.23       0.30       1.50       ----

> <Gold.Chemscore.Fitness>
13.0830

> <Gold.Chemscore.DG>
-14.8772

> <Gold.Chemscore.ZeroCoef>
-5.4800

> <Gold.Chemscore.Hbond>
0.8809

> <Gold.Chemscore.Metal>
0.0000

> <Gold.Chemscore.Lipo>
82.0037

> <Gold.Chemscore.Internal_Hbond>
0.0000

> <Gold.Chemscore.DEClash>
0.2961

> <Gold.Chemscore.DEInternal>
1.4982

> <Gold.Chemscore.Rot>
1.2264

> <Gold.Chemscore.Internal.Correction>
   9.000000E+99

> <Gold.Chemscore.Hbonds>
donor molecule, donor type, donor heavy atom, donor atom, acceptor molecule, acceptor atom, score
      P1  H  7997  8008       L1    10  0.25

> <Gold.Chemscore.Hbond.Weighted>
-2.9424

> <Gold.Chemscore.Metal.Weighted>
-0.0000

> <Gold.Chemscore.Lipo.Weighted>
-9.5944

> <Gold.Chemscore.Internal_Hbond.Weighted>
0.0000

> <Gold.Chemscore.DEClash.Weighted>
0.2961

> <Gold.Chemscore.DEInternal.Weighted>
1.4982

> <Gold.Chemscore.Rot.Weighted>
3.1396

> <Gold.Chemscore.Internal.Correction.Weighted>
   9.000000E+99

> <Gold.Protein.RotatedTorsions>
[ 6907 6896 6895 6894 ] final  -53.51 input  -60.11 | X-H torsion
[ 7974 7965 7964 7962 ] final  -58.18 input  175.53 | X-H torsion
[ 8008 7997 7996 7995 ] final  -54.21 input   59.86 | X-H torsion
[ 10167 10162 10161 10158 ] final -158.89 input  -65.29 | X-H torsion
[ 10718 10713 10712 10709 ] final  141.65 input   66.30 | X-H torsion
[ 10763 10752 10751 10750 ] final  -37.47 input  -60.55 | X-H torsion
[ 11005 11000 10999 10996 ] final -100.83 input  -57.11 | X-H torsion

> <Gold.Protein.ActiveResidues>
 VAL166  LYS551  ARG553  GLY616  TRP617  ASP618  TYR619  PRO620  LYS621  CYS622 
 ASP623  PHE694  ASN695  SER759  ASP760  ASP761  ALA762  ILE779  LEU786  VAL792 
 PHE793  MET794  SER795  GLU796  ALA797  LYS798  CYS799  TRP800  GLU811  SER814 

> <Gold.Protein.RotatedAtoms>
  150.8420  134.7716  159.6939 H   0  0  0  0  0  0  0  0  0  0  0  0  # atno 6907 bound_to 6896
  152.4506  134.5399  159.9846 H   0  0  0  0  0  0  0  0  0  0  0  0  # atno 6908 bound_to 6896
  151.5537  133.3375  159.2993 H   0  0  0  0  0  0  0  0  0  0  0  0  # atno 6909 bound_to 6896
  145.8423  140.8409  143.0028 H   0  0  0  0  0  0  0  0  0  0  0  0  # atno 7974 bound_to 7965
  154.4156  140.1182  156.5278 H   0  0  0  0  0  0  0  0  0  0  0  0  # atno 8008 bound_to 7997
  155.6636  140.3496  155.4773 H   0  0  0  0  0  0  0  0  0  0  0  0  # atno 8009 bound_to 7997
  155.9692  140.1138  157.0817 H   0  0  0  0  0  0  0  0  0  0  0  0  # atno 8010 bound_to 7997
  139.6657  143.9833  152.2253 H   0  0  0  0  0  0  0  0  0  0  0  0  # atno 10167 bound_to 10162
  157.3896  131.1003  151.0659 H   0  0  0  0  0  0  0  0  0  0  0  0  # atno 10718 bound_to 10713
  153.8969  135.6806  153.4757 H   0  0  0  0  0  0  0  0  0  0  0  0  # atno 10763 bound_to 10752
  153.1151  135.4765  154.9098 H   0  0  0  0  0  0  0  0  0  0  0  0  # atno 10764 bound_to 10752
  154.7595  135.3206  154.8360 H   0  0  0  0  0  0  0  0  0  0  0  0  # atno 10765 bound_to 10752
  141.1255  133.8429  157.1153 H   0  0  0  0  0  0  0  0  0  0  0  0  # atno 11005 bound_to 11000
  144.6733  140.0830  143.7468 LP  0  0  0  0  0  0  0  0  0  0  0  0  # atno 17320 bound_to 7965
  145.9451  139.2695  143.1245 LP  0  0  0  0  0  0  0  0  0  0  0  0  # atno 17321 bound_to 7965
  139.9584  144.6574  150.8103 LP  0  0  0  0  0  0  0  0  0  0  0  0  # atno 17342 bound_to 10162
  140.7598  143.3138  151.2783 LP  0  0  0  0  0  0  0  0  0  0  0  0  # atno 17343 bound_to 10162
  157.1698  130.6262  149.5637 LP  0  0  0  0  0  0  0  0  0  0  0  0  # atno 17370 bound_to 10713
  155.9795  130.4789  150.6719 LP  0  0  0  0  0  0  0  0  0  0  0  0  # atno 17371 bound_to 10713
  140.0250  134.9928  157.0668 LP  0  0  0  0  0  0  0  0  0  0  0  0  # atno 17394 bound_to 11000
  140.4377  134.1713  155.7172 LP  0  0  0  0  0  0  0  0  0  0  0  0  # atno 17395 bound_to 11000

$$$$
