AV-unprocessed.smi:2579|AV-procd|sdf|10125|dock5
  -GOLD-   2272014143D 1   1.00000     0.00000
 Structure written by MMmdl.
 38 40  0  0  0  0  0  0  0  0  1 V2000
  151.2139  136.3872  154.2524 O   0  0  0  0  0  0  0  0  0  0  0  0
  151.1916  137.7985  154.2264 C   0  0  0  0  0  0  0  0  0  0  0  0
  151.9899  138.3607  155.4094 C   0  0  0  0  0  0  0  0  0  0  0  0
  151.5151  139.6739  155.8016 N   0  0  0  0  0  0  0  0  0  0  0  0
  151.8286  140.4946  156.8773 C   0  0  0  0  0  0  0  0  0  0  0  0
  152.7078  140.1755  157.8253 N   0  0  0  0  0  0  0  0  0  0  0  0
  152.6607  141.2827  158.6520 C   0  0  0  0  0  0  0  0  0  0  0  0
  153.3609  141.5660  159.8466 C   0  0  0  0  0  0  0  0  0  0  0  0
  153.1439  142.7802  160.5308 C   0  0  0  0  0  0  0  0  0  0  0  0
  152.2249  143.7264  160.0327 C   0  0  0  0  0  0  0  0  0  0  0  0
  151.5166  143.4652  158.8440 C   0  0  0  0  0  0  0  0  0  0  0  0
  151.7379  142.2530  158.1632 C   0  0  0  0  0  0  0  0  0  0  0  0
  151.2186  141.6969  156.9978 N   0  0  0  0  0  0  0  0  0  0  0  0
  150.2235  142.2944  156.1196 C   0  0  0  0  0  0  0  0  0  0  0  0
  149.0281  141.3559  155.8919 C   0  0  2  0  0  0  0  0  0  0  0  0
  148.3235  141.5652  154.5514 C   0  0  0  0  0  0  0  0  0  0  0  0
  146.9158  141.1144  154.8678 C   0  0  0  0  0  0  0  0  0  0  0  0
  146.7395  141.6473  156.2850 C   0  0  0  0  0  0  0  0  0  0  0  0
  148.0257  141.5541  156.8886 O   0  0  0  0  0  0  0  0  0  0  0  0
  150.9102  136.0659  153.4172 H   0  0  0  0  0  0  0  0  0  0  0  0
  151.6510  138.1177  153.2906 H   0  0  0  0  0  0  0  0  0  0  0  0
  150.1642  138.1650  154.2213 H   0  0  0  0  0  0  0  0  0  0  0  0
  151.9654  137.6815  156.2622 H   0  0  0  0  0  0  0  0  0  0  0  0
  153.0360  138.4661  155.1204 H   0  0  0  0  0  0  0  0  0  0  0  0
  150.8057  140.0436  155.1857 H   0  0  0  0  0  0  0  0  0  0  0  0
  154.0654  140.8470  160.2377 H   0  0  0  0  0  0  0  0  0  0  0  0
  153.6840  142.9857  161.4434 H   0  0  0  0  0  0  0  0  0  0  0  0
  152.0628  144.6526  160.5645 H   0  0  0  0  0  0  0  0  0  0  0  0
  150.8094  144.1865  158.4619 H   0  0  0  0  0  0  0  0  0  0  0  0
  149.8885  143.2313  156.5655 H   0  0  0  0  0  0  0  0  0  0  0  0
  150.6914  142.5576  155.1704 H   0  0  0  0  0  0  0  0  0  0  0  0
  149.3526  140.3164  155.9623 H   0  0  0  0  0  0  0  0  0  0  0  0
  148.3196  142.6210  154.2767 H   0  0  0  0  0  0  0  0  0  0  0  0
  148.7815  141.0026  153.7376 H   0  0  0  0  0  0  0  0  0  0  0  0
  146.1722  141.5010  154.1703 H   0  0  0  0  0  0  0  0  0  0  0  0
  146.8589  140.0250  154.8646 H   0  0  0  0  0  0  0  0  0  0  0  0
  146.4433  142.6968  156.2618 H   0  0  0  0  0  0  0  0  0  0  0  0
  145.9902  141.0946  156.8519 H   0  0  0  0  0  0  0  0  0  0  0  0
  1  2  1  0  0  0  0
  1 20  1  0  0  0  0
  2  3  1  0  0  0  0
  2 21  1  0  0  0  0
  2 22  1  0  0  0  0
  3  4  1  0  0  0  0
  3 23  1  0  0  0  0
  3 24  1  0  0  0  0
  4  5  1  0  0  0  0
  4 25  1  0  0  0  0
  5 13  1  0  0  0  0
  5  6  2  0  0  0  0
  6  7  1  0  0  0  0
  7 12  2  0  0  0  0
  7  8  1  0  0  0  0
  8  9  2  0  0  0  0
  8 26  1  0  0  0  0
  9 10  1  0  0  0  0
  9 27  1  0  0  0  0
 10 11  2  0  0  0  0
 10 28  1  0  0  0  0
 11 12  1  0  0  0  0
 11 29  1  0  0  0  0
 12 13  1  0  0  0  0
 13 14  1  0  0  0  0
 14 15  1  0  0  0  0
 14 30  1  0  0  0  0
 14 31  1  0  0  0  0
 15 19  1  0  0  0  0
 15 16  1  0  0  0  0
 15 32  1  0  0  0  0
 16 17  1  0  0  0  0
 16 33  1  0  0  0  0
 16 34  1  0  0  0  0
 17 18  1  0  0  0  0
 17 35  1  0  0  0  0
 17 36  1  0  0  0  0
 18 19  1  0  0  0  0
 18 37  1  0  0  0  0
 18 38  1  0  0  0  0
M  END
> <s_m_source_file>
AV-unprocessed.smi

> <i_m_source_file_index>
2579

> <i_lp_mmshare_version>
43012

> <i_f3d_flags>
0

> <s_epik_input>
W09IXVtDSDJdW0NIMl1bTkhdYyhuMSluKGMoYzEyKVtjSF1bY0hdW2NIXVtjSF0yKVtDSDJdW0NAQEhdM1tDSDJdW0NIMl1bQ0gyXU8z

> <s_epik_cmdline>
J2VwaWtfcHl0aG9uJywgJy1waCcsICc3LjAnLCAnLXRuJywgJzgnLCAnLW1hJywgJzIwMCcsICctbWV0YWxfYmluZGluZycsICctaW1hZScsICc8aW5maWxlLm1hZT4nLCAnLW9tYWUnLCAnPG91dGZpbGUubWFlPic=

> <r_epik_Ionization_Penalty>
1.27244

> <r_epik_Ionization_Penalty_Charging>
0

> <r_epik_Ionization_Penalty_Neutral>
1.27244

> <r_epik_State_Penalty>
1.34401

> <r_epik_Charging_Adjusted_Penalty>
1.34401

> <i_epik_Tot_Q>
0

> <i_epik_Tot_abs_Q>
0

> <r_epik_Metal_State_Penalty>
0.00511131

> <b_epik_Metal_Only>
0

> <s_lp_Force_Field>
OPLS_2005

> <r_lp_Energy>
20.4938

> <b_lp_Chiralities_Consistent>
1

> <s_lp_Variant>
AV-unprocessed.smi:2579-3

> <Gold.Version>
5.8.1

> <Gold.Id.Protein>
6NUR|6NUR_protein|mol2

> <Gold.PLP.Fitness>
46.1845

> <Gold.PLP.PLP>
-38.2907

> <Gold.PLP.part.hbond>
-3.4094

> <Gold.PLP.part.metal>
0.0000

> <Gold.PLP.part.buried>
-0.8386

> <Gold.PLP.part.nonpolar>
-31.6012

> <Gold.PLP.part.repulsive>
0.2715

> <Gold.PLP.ligand.clash>
0.0000

> <Gold.PLP.ligand.torsion>
0.5650

> <Gold.PLP.Chemscore.Hbond>
3.0000

> <Gold.PLP.Chemscore.CHOScore>
0.0000

> <Gold.PLP.Chemscore.Metal>
0.0000

> <Gold.Chemscore.Hbonds>
donor molecule, donor type, donor heavy atom, donor atom, acceptor molecule, acceptor atom, score
      L1  H     1    20       P1  7949  0.78
      P1  H  7997  8008       L1     6  1.00
      P1  H 10752 10764       L1     1  1.00

> <Gold.PLP.Chemscore.Internal.Correction>
0.0237

> <Gold.Rescore>
     Score         DG    S(hbond)    S(metal)    S(lipo)     H(rot)  DE(clash)    DE(int)     intcor
     17.15     -19.64       2.12        0.00     107.83       2.17       1.99       0.50       ----

> <Gold.Chemscore.Fitness>
17.1487

> <Gold.Chemscore.DG>
-19.6353

> <Gold.Chemscore.ZeroCoef>
-5.4800

> <Gold.Chemscore.Hbond>
2.1230

> <Gold.Chemscore.Metal>
0.0000

> <Gold.Chemscore.Lipo>
107.8348

> <Gold.Chemscore.Internal_Hbond>
0.0000

> <Gold.Chemscore.DEClash>
1.9871

> <Gold.Chemscore.DEInternal>
0.4995

> <Gold.Chemscore.Rot>
2.1688

> <Gold.Chemscore.Internal.Correction>
   9.000000E+99

> <Gold.Chemscore.Hbonds>
donor molecule, donor type, donor heavy atom, donor atom, acceptor molecule, acceptor atom, score
      L1  H     1    20       P1  7949  0.11
      P1  H  7997  8008       L1     6  0.32
      P1  H 10752 10764       L1     1  0.23

> <Gold.Chemscore.Hbond.Weighted>
-7.0908

> <Gold.Chemscore.Metal.Weighted>
-0.0000

> <Gold.Chemscore.Lipo.Weighted>
-12.6167

> <Gold.Chemscore.Internal_Hbond.Weighted>
0.0000

> <Gold.Chemscore.DEClash.Weighted>
1.9871

> <Gold.Chemscore.DEInternal.Weighted>
0.4995

> <Gold.Chemscore.Rot.Weighted>
5.5522

> <Gold.Chemscore.Internal.Correction.Weighted>
   9.000000E+99

> <Gold.Protein.RotatedTorsions>
[ 6907 6896 6895 6894 ] final   -8.54 input  -60.11 | X-H torsion
[ 7974 7965 7964 7962 ] final   30.68 input  175.53 | X-H torsion
[ 8008 7997 7996 7995 ] final  -72.80 input   59.86 | X-H torsion
[ 10167 10162 10161 10158 ] final  -22.02 input  -65.29 | X-H torsion
[ 10718 10713 10712 10709 ] final   81.07 input   66.30 | X-H torsion
[ 10763 10752 10751 10750 ] final  -76.64 input  -60.55 | X-H torsion
[ 11005 11000 10999 10996 ] final   79.35 input  -57.11 | X-H torsion

> <Gold.Protein.ActiveResidues>
 VAL166  LYS551  ARG553  GLY616  TRP617  ASP618  TYR619  PRO620  LYS621  CYS622 
 ASP623  PHE694  ASN695  SER759  ASP760  ASP761  ALA762  ILE779  LEU786  VAL792 
 PHE793  MET794  SER795  GLU796  ALA797  LYS798  CYS799  TRP800  GLU811  SER814 

> <Gold.Protein.RotatedAtoms>
  151.4320  135.1010  159.9644 H   0  0  0  0  0  0  0  0  0  0  0  0  # atno 6907 bound_to 6896
  152.4952  133.8608  159.7260 H   0  0  0  0  0  0  0  0  0  0  0  0  # atno 6908 bound_to 6896
  150.9148  133.6894  159.2874 H   0  0  0  0  0  0  0  0  0  0  0  0  # atno 6909 bound_to 6896
  146.1597  139.6757  142.9042 H   0  0  0  0  0  0  0  0  0  0  0  0  # atno 7974 bound_to 7965
  154.5195  140.0790  156.8146 H   0  0  0  0  0  0  0  0  0  0  0  0  # atno 8008 bound_to 7997
  155.3606  140.3417  155.4222 H   0  0  0  0  0  0  0  0  0  0  0  0  # atno 8009 bound_to 7997
  156.1666  140.1606  156.8508 H   0  0  0  0  0  0  0  0  0  0  0  0  # atno 8010 bound_to 7997
  140.7284  143.4573  151.0429 H   0  0  0  0  0  0  0  0  0  0  0  0  # atno 10167 bound_to 10162
  157.6823  130.9988  150.2173 H   0  0  0  0  0  0  0  0  0  0  0  0  # atno 10718 bound_to 10713
  154.5024  135.5791  153.6541 H   0  0  0  0  0  0  0  0  0  0  0  0  # atno 10763 bound_to 10752
  152.9881  135.6139  154.2985 H   0  0  0  0  0  0  0  0  0  0  0  0  # atno 10764 bound_to 10752
  154.2893  135.2849  155.2641 H   0  0  0  0  0  0  0  0  0  0  0  0  # atno 10765 bound_to 10752
  139.9176  134.7835  156.1767 H   0  0  0  0  0  0  0  0  0  0  0  0  # atno 11005 bound_to 11000
  145.4619  141.0433  143.2746 LP  0  0  0  0  0  0  0  0  0  0  0  0  # atno 17320 bound_to 7965
  144.8010  139.6140  143.7071 LP  0  0  0  0  0  0  0  0  0  0  0  0  # atno 17321 bound_to 7965
  139.8255  143.7762  152.3178 LP  0  0  0  0  0  0  0  0  0  0  0  0  # atno 17342 bound_to 10162
  139.7859  144.7428  151.0022 LP  0  0  0  0  0  0  0  0  0  0  0  0  # atno 17343 bound_to 10162
  156.2831  130.3736  149.7915 LP  0  0  0  0  0  0  0  0  0  0  0  0  # atno 17370 bound_to 10713
  156.5597  130.8378  151.3325 LP  0  0  0  0  0  0  0  0  0  0  0  0  # atno 17371 bound_to 10713
  141.0667  133.6816  156.2059 LP  0  0  0  0  0  0  0  0  0  0  0  0  # atno 17394 bound_to 11000
  140.6573  134.5004  157.5581 LP  0  0  0  0  0  0  0  0  0  0  0  0  # atno 17395 bound_to 11000

$$$$
