AV-unprocessed.smi:648|AV-procd|sdf|3170|dock3
  -GOLD-   22720 0 93D 1   1.00000     0.00000
 Structure written by MMmdl.
 46 47  0  0  0  0  0  0  0  0  2 V2000
  145.0485  133.7416  150.5462 C   0  0  0  0  0  0  0  0  0  0  0  0
  145.0052  134.7723  151.6837 C   0  0  2  0  0  0  0  0  0  0  0  0
  143.5543  135.1652  152.0215 C   0  0  0  0  0  0  0  0  0  0  0  0
  143.4419  136.2072  153.1598 C   0  0  0  0  0  0  0  0  0  0  0  0
  141.9861  136.7132  153.2176 C   0  0  0  0  0  0  0  0  0  0  0  0
  143.7453  135.5605  154.5307 C   0  0  0  0  0  0  0  0  0  0  0  0
  144.3658  137.4211  152.8552 C   0  0  0  0  0  0  0  0  0  0  0  0
  145.8360  137.0945  152.4521 C   0  0  1  0  0  0  0  0  0  0  0  0
  146.5602  138.3748  151.9484 C   0  0  0  0  0  0  0  0  0  0  0  0
  146.3790  138.6079  150.5658 O   0  0  0  0  0  0  0  0  0  0  0  0
  146.6117  136.5274  153.5890 N   0  3  0  0  0  0  0  0  0  0  0  0
  146.8528  137.3747  154.7818 C   0  0  0  0  0  0  0  0  0  0  0  0
  148.2156  137.0585  155.4180 C   0  0  0  0  0  0  0  0  0  0  0  0
  149.1810  138.1227  155.2128 N   0  0  0  0  0  0  0  0  0  0  0  0
  149.5905  138.7174  154.0912 C   0  0  0  0  0  0  0  0  0  0  0  0
  150.5035  139.6579  154.2879 N   0  0  0  0  0  0  0  0  0  0  0  0
  150.6134  139.5905  155.6478 C   0  0  0  0  0  0  0  0  0  0  0  0
  149.8443  138.6839  156.2511 N   0  0  0  0  0  0  0  0  0  0  0  0
  145.8282  136.0262  151.3284 C   0  0  0  0  0  0  0  0  0  0  0  0
  144.6188  134.1433  149.6279 H   0  0  0  0  0  0  0  0  0  0  0  0
  144.4898  132.8431  150.8091 H   0  0  0  0  0  0  0  0  0  0  0  0
  146.0733  133.4387  150.3292 H   0  0  0  0  0  0  0  0  0  0  0  0
  145.4516  134.2935  152.5548 H   0  0  0  0  0  0  0  0  0  0  0  0
  143.0888  135.5671  151.1198 H   0  0  0  0  0  0  0  0  0  0  0  0
  142.9804  134.2735  152.2782 H   0  0  0  0  0  0  0  0  0  0  0  0
  141.8541  137.4550  154.0061 H   0  0  0  0  0  0  0  0  0  0  0  0
  141.2881  135.8986  153.4143 H   0  0  0  0  0  0  0  0  0  0  0  0
  141.6829  137.1786  152.2788 H   0  0  0  0  0  0  0  0  0  0  0  0
  143.7114  136.2992  155.3320 H   0  0  0  0  0  0  0  0  0  0  0  0
  144.7178  135.0755  154.5728 H   0  0  0  0  0  0  0  0  0  0  0  0
  143.0095  134.7921  154.7708 H   0  0  0  0  0  0  0  0  0  0  0  0
  143.9140  137.9574  152.0198 H   0  0  0  0  0  0  0  0  0  0  0  0
  144.3330  138.1346  153.6781 H   0  0  0  0  0  0  0  0  0  0  0  0
  146.1995  139.2616  152.4692 H   0  0  0  0  0  0  0  0  0  0  0  0
  147.6319  138.3067  152.1399 H   0  0  0  0  0  0  0  0  0  0  0  0
  145.4522  138.6391  150.3820 H   0  0  0  0  0  0  0  0  0  0  0  0
  146.1236  135.6991  153.8987 H   0  0  0  0  0  0  0  0  0  0  0  0
  146.8147  138.4316  154.5200 H   0  0  0  0  0  0  0  0  0  0  0  0
  146.0786  137.1997  155.5267 H   0  0  0  0  0  0  0  0  0  0  0  0
  148.0956  136.9140  156.4925 H   0  0  0  0  0  0  0  0  0  0  0  0
  148.6220  136.1263  155.0223 H   0  0  0  0  0  0  0  0  0  0  0  0
  149.2162  138.4564  153.1123 H   0  0  0  0  0  0  0  0  0  0  0  0
  151.2827  140.2255  156.2091 H   0  0  0  0  0  0  0  0  0  0  0  0
  146.8523  135.7391  151.0840 H   0  0  0  0  0  0  0  0  0  0  0  0
  145.4125  136.4477  150.4124 H   0  0  0  0  0  0  0  0  0  0  0  0
  147.5126  136.2401  153.2334 H   0  0  0  0  0  0  0  0  0  0  0  0
  1  2  1  0  0  0  0
  1 20  1  0  0  0  0
  1 21  1  0  0  0  0
  1 22  1  0  0  0  0
  2 19  1  0  0  0  0
  2  3  1  0  0  0  0
  2 23  1  0  0  0  0
  3  4  1  0  0  0  0
  3 24  1  0  0  0  0
  3 25  1  0  0  0  0
  4  5  1  0  0  0  0
  4  6  1  0  0  0  0
  4  7  1  0  0  0  0
  5 26  1  0  0  0  0
  5 27  1  0  0  0  0
  5 28  1  0  0  0  0
  6 29  1  0  0  0  0
  6 30  1  0  0  0  0
  6 31  1  0  0  0  0
  7  8  1  0  0  0  0
  7 32  1  0  0  0  0
  7 33  1  0  0  0  0
  8  9  1  0  0  0  0
  8 11  1  0  0  0  0
  8 19  1  0  0  0  0
  9 10  1  0  0  0  0
  9 34  1  0  0  0  0
  9 35  1  0  0  0  0
 10 36  1  0  0  0  0
 11 12  1  0  0  0  0
 11 37  1  0  0  0  0
 11 46  1  0  0  0  0
 12 13  1  0  0  0  0
 12 38  1  0  0  0  0
 12 39  1  0  0  0  0
 13 14  1  0  0  0  0
 13 40  1  0  0  0  0
 13 41  1  0  0  0  0
 14 18  1  0  0  0  0
 14 15  1  0  0  0  0
 15 16  2  0  0  0  0
 15 42  1  0  0  0  0
 16 17  1  0  0  0  0
 17 18  2  0  0  0  0
 17 43  1  0  0  0  0
 19 44  1  0  0  0  0
 19 45  1  0  0  0  0
M  CHG  1  11   1
M  END
> <s_m_source_file>
AV-unprocessed.smi

> <i_m_source_file_index>
648

> <i_lp_mmshare_version>
43012

> <i_f3d_flags>
0

> <s_epik_input>
W0NIM11DMShbQ0gzXSlbQ0gyXVtDQEBIXShbQ0gzXSlbQ0gyXVtDQF0oW0NIMl0xKShbQ0gyXVtPSF0pW05IXVtDSDJdW0NIMl1uMltjSF1uW2NIXW4y

> <s_epik_cmdline>
J2VwaWtfcHl0aG9uJywgJy1waCcsICc3LjAnLCAnLXRuJywgJzgnLCAnLW1hJywgJzIwMCcsICctbWV0YWxfYmluZGluZycsICctaW1hZScsICc8aW5maWxlLm1hZT4nLCAnLW9tYWUnLCAnPG91dGZpbGUubWFlPic=

> <r_lp_tautomer_probability>
1

> <r_epik_Ionization_Penalty>
0.00942316

> <r_epik_Ionization_Penalty_Charging>
0.00942185

> <r_epik_Ionization_Penalty_Neutral>
1.31257e-06

> <r_epik_State_Penalty>
0.00715409

> <r_epik_Charging_Adjusted_Penalty>
0.0165759

> <i_epik_Tot_Q>
1

> <i_epik_Tot_abs_Q>
1

> <r_epik_Metal_State_Penalty>
0.00715563

> <b_epik_Metal_Only>
0

> <s_lp_Force_Field>
OPLS_2005

> <r_lp_Energy>
29.4172

> <b_lp_Chiralities_Consistent>
1

> <s_lp_Variant>
AV-unprocessed.smi:648-1

> <Gold.Version>
5.8.1

> <Gold.Id.Protein>
6NUR|6NUR_protein|mol2

> <Gold.PLP.Fitness>
45.6275

> <Gold.PLP.PLP>
-28.1612

> <Gold.PLP.part.hbond>
-4.0000

> <Gold.PLP.part.metal>
0.0000

> <Gold.PLP.part.buried>
-2.2827

> <Gold.PLP.part.nonpolar>
-22.5198

> <Gold.PLP.part.repulsive>
0.1448

> <Gold.PLP.ligand.clash>
0.0823

> <Gold.PLP.ligand.torsion>
1.1241

> <Gold.PLP.Chemscore.Hbond>
4.7771

> <Gold.PLP.Chemscore.CHOScore>
1.8006

> <Gold.PLP.Chemscore.Metal>
0.0000

> <Gold.Chemscore.Hbonds>
donor molecule, donor type, donor heavy atom, donor atom, acceptor molecule, acceptor atom, score
      L1  H    10    36       P1 10171  1.00
      L1  H    11    46       P1  7948  2.00
      P1  H  7954  7966       L1    10  0.78
      P1  H  7989  7998       L1    16  1.00
      L1  C    15    42       P1  7948  1.00
      L1  C    15    42       P1  7957  0.80

> <Gold.PLP.Chemscore.Internal.Correction>
0.0634

> <Gold.Rescore>
     Score         DG    S(hbond)    S(metal)    S(lipo)     H(rot)  DE(clash)    DE(int)     intcor
     14.46     -16.15       3.77        0.00      53.04       3.17       0.10       1.58       ----

> <Gold.Chemscore.Fitness>
14.4585

> <Gold.Chemscore.DG>
-16.1467

> <Gold.Chemscore.ZeroCoef>
-5.4800

> <Gold.Chemscore.Hbond>
3.7693

> <Gold.Chemscore.Metal>
0.0000

> <Gold.Chemscore.Lipo>
53.0360

> <Gold.Chemscore.Internal_Hbond>
0.0000

> <Gold.Chemscore.DEClash>
0.1047

> <Gold.Chemscore.DEInternal>
1.5835

> <Gold.Chemscore.Rot>
3.1750

> <Gold.Chemscore.Internal.Correction>
   9.000000E+99

> <Gold.Chemscore.Hbonds>
donor molecule, donor type, donor heavy atom, donor atom, acceptor molecule, acceptor atom, score
      L1  H    10    36       P1 10171  1.00
      L1  H    11    46       P1  7948  0.94
      P1  H  7954  7966       L1    10  0.18
      P1  H  7989  7998       L1    16  0.91

> <Gold.Chemscore.Hbond.Weighted>
-12.5894

> <Gold.Chemscore.Metal.Weighted>
-0.0000

> <Gold.Chemscore.Lipo.Weighted>
-6.2052

> <Gold.Chemscore.Internal_Hbond.Weighted>
0.0000

> <Gold.Chemscore.DEClash.Weighted>
0.1047

> <Gold.Chemscore.DEInternal.Weighted>
1.5835

> <Gold.Chemscore.Rot.Weighted>
8.1279

> <Gold.Chemscore.Internal.Correction.Weighted>
   9.000000E+99

> <Gold.Protein.RotatedTorsions>
[ 6907 6896 6895 6894 ] final -164.88 input  -60.11 | X-H torsion
[ 7974 7965 7964 7962 ] final   -3.61 input  175.53 | X-H torsion
[ 8008 7997 7996 7995 ] final   59.29 input   59.86 | X-H torsion
[ 10167 10162 10161 10158 ] final  -25.43 input  -65.29 | X-H torsion
[ 10718 10713 10712 10709 ] final  129.40 input   66.30 | X-H torsion
[ 10763 10752 10751 10750 ] final  -26.00 input  -60.55 | X-H torsion
[ 11005 11000 10999 10996 ] final    5.45 input  -57.11 | X-H torsion

> <Gold.Protein.ActiveResidues>
 VAL166  LYS551  ARG553  GLY616  TRP617  ASP618  TYR619  PRO620  LYS621  CYS622 
 ASP623  PHE694  ASN695  SER759  ASP760  ASP761  ALA762  ILE779  LEU786  VAL792 
 PHE793  MET794  SER795  GLU796  ALA797  LYS798  CYS799  TRP800  GLU811  SER814 

> <Gold.Protein.RotatedAtoms>
  151.4188  133.3705  159.2753 H   0  0  0  0  0  0  0  0  0  0  0  0  # atno 6907 bound_to 6896
  150.9309  134.8725  159.7561 H   0  0  0  0  0  0  0  0  0  0  0  0  # atno 6908 bound_to 6896
  152.5027  134.4132  159.9508 H   0  0  0  0  0  0  0  0  0  0  0  0  # atno 6909 bound_to 6896
  146.2386  140.1747  142.8332 H   0  0  0  0  0  0  0  0  0  0  0  0  # atno 7974 bound_to 7965
  155.5638  140.3488  155.4498 H   0  0  0  0  0  0  0  0  0  0  0  0  # atno 8008 bound_to 7997
  156.0495  140.1314  157.0092 H   0  0  0  0  0  0  0  0  0  0  0  0  # atno 8009 bound_to 7997
  154.4428  140.1007  156.6340 H   0  0  0  0  0  0  0  0  0  0  0  0  # atno 8010 bound_to 7997
  140.7286  143.4265  151.0868 H   0  0  0  0  0  0  0  0  0  0  0  0  # atno 10167 bound_to 10162
  157.5158  131.1097  150.9227 H   0  0  0  0  0  0  0  0  0  0  0  0  # atno 10718 bound_to 10713
  153.7088  135.6952  153.5043 H   0  0  0  0  0  0  0  0  0  0  0  0  # atno 10763 bound_to 10752
  153.2288  135.4345  155.0571 H   0  0  0  0  0  0  0  0  0  0  0  0  # atno 10764 bound_to 10752
  154.8321  135.3479  154.6626 H   0  0  0  0  0  0  0  0  0  0  0  0  # atno 10765 bound_to 10752
  140.5705  134.0106  155.8007 H   0  0  0  0  0  0  0  0  0  0  0  0  # atno 11005 bound_to 11000
  144.9983  140.8609  143.5297 LP  0  0  0  0  0  0  0  0  0  0  0  0  # atno 17320 bound_to 7965
  145.1763  139.2376  143.5316 LP  0  0  0  0  0  0  0  0  0  0  0  0  # atno 17321 bound_to 7965
  139.7917  143.8209  152.3152 LP  0  0  0  0  0  0  0  0  0  0  0  0  # atno 17342 bound_to 10162
  139.8195  144.7302  150.9591 LP  0  0  0  0  0  0  0  0  0  0  0  0  # atno 17343 bound_to 10162
  156.9853  130.5542  149.5299 LP  0  0  0  0  0  0  0  0  0  0  0  0  # atno 17370 bound_to 10713
  156.0319  130.5410  150.8556 LP  0  0  0  0  0  0  0  0  0  0  0  0  # atno 17371 bound_to 10713
  141.1059  133.9695  157.2998 LP  0  0  0  0  0  0  0  0  0  0  0  0  # atno 17394 bound_to 11000
  139.9364  135.0196  156.8568 LP  0  0  0  0  0  0  0  0  0  0  0  0  # atno 17395 bound_to 11000

$$$$
