AV-unprocessed.smi:3171|AV-procd|sdf|12111|dock5
  -GOLD-   2272017553D 1   1.00000     0.00000
 Structure written by MMmdl.
 33 34  0  0  0  0  0  0  0  0  1 V2000
  152.1042  144.9602  159.4189 C   0  0  0  0  0  0  0  0  0  0  0  0
  151.8347  143.6105  158.7776 C   0  0  0  0  0  0  0  0  0  0  0  0
  151.0307  143.6449  157.6927 N   0  0  0  0  0  0  0  0  0  0  0  0
  150.7316  142.5222  157.0376 N   0  0  0  0  0  0  0  0  0  0  0  0
  151.2241  141.3260  157.4412 C   0  0  0  0  0  0  0  0  0  0  0  0
  150.8727  140.1878  156.6908 N   0  0  0  0  0  0  0  0  0  0  0  0
  150.4524  140.3094  155.2994 C   0  0  0  0  0  0  0  0  0  0  0  0
  149.2233  141.2191  155.1425 C   0  0  2  0  0  0  0  0  0  0  0  0
  147.9823  140.6926  155.8581 C   0  0  0  0  0  0  0  0  0  0  0  0
  146.8409  141.3744  155.1223 C   0  0  0  0  0  0  0  0  0  0  0  0
  147.4608  141.7944  153.7858 C   0  0  0  0  0  0  0  0  0  0  0  0
  148.7794  141.2637  153.7957 O   0  0  0  0  0  0  0  0  0  0  0  0
  152.0768  141.2173  158.5709 C   0  0  0  0  0  0  0  0  0  0  0  0
  152.6140  139.9260  158.9953 C   0  0  0  0  0  0  0  0  0  0  0  0
  153.0391  138.9037  159.3314 N   0  0  0  0  0  0  0  0  0  0  0  0
  152.3910  142.4072  159.2750 C   0  0  0  0  0  0  0  0  0  0  0  0
  153.2962  142.3914  160.5044 C   0  0  0  0  0  0  0  0  0  0  0  0
  153.1765  145.1494  159.4749 H   0  0  0  0  0  0  0  0  0  0  0  0
  151.6900  144.9928  160.4267 H   0  0  0  0  0  0  0  0  0  0  0  0
  151.6540  145.7720  158.8460 H   0  0  0  0  0  0  0  0  0  0  0  0
  150.5497  139.3757  157.1966 H   0  0  0  0  0  0  0  0  0  0  0  0
  151.2708  140.6419  154.6601 H   0  0  0  0  0  0  0  0  0  0  0  0
  150.1954  139.3063  154.9586 H   0  0  0  0  0  0  0  0  0  0  0  0
  149.4449  142.2317  155.4860 H   0  0  0  0  0  0  0  0  0  0  0  0
  147.9057  139.6120  155.7292 H   0  0  0  0  0  0  0  0  0  0  0  0
  147.9868  140.9051  156.9274 H   0  0  0  0  0  0  0  0  0  0  0  0
  145.9946  140.6996  154.9896 H   0  0  0  0  0  0  0  0  0  0  0  0
  146.4905  142.2504  155.6693 H   0  0  0  0  0  0  0  0  0  0  0  0
  146.9010  141.4181  152.9293 H   0  0  0  0  0  0  0  0  0  0  0  0
  147.5095  142.8815  153.7096 H   0  0  0  0  0  0  0  0  0  0  0  0
  152.9888  141.6103  161.2007 H   0  0  0  0  0  0  0  0  0  0  0  0
  153.2793  143.3282  161.0586 H   0  0  0  0  0  0  0  0  0  0  0  0
  154.3271  142.1975  160.2068 H   0  0  0  0  0  0  0  0  0  0  0  0
  1  2  1  0  0  0  0
  1 18  1  0  0  0  0
  1 19  1  0  0  0  0
  1 20  1  0  0  0  0
  2 16  1  0  0  0  0
  2  3  2  0  0  0  0
  3  4  1  0  0  0  0
  4  5  2  0  0  0  0
  5  6  1  0  0  0  0
  5 13  1  0  0  0  0
  6  7  1  0  0  0  0
  6 21  1  0  0  0  0
  7  8  1  0  0  0  0
  7 22  1  0  0  0  0
  7 23  1  0  0  0  0
  8 12  1  0  0  0  0
  8  9  1  0  0  0  0
  8 24  1  0  0  0  0
  9 10  1  0  0  0  0
  9 25  1  0  0  0  0
  9 26  1  0  0  0  0
 10 11  1  0  0  0  0
 10 27  1  0  0  0  0
 10 28  1  0  0  0  0
 11 12  1  0  0  0  0
 11 29  1  0  0  0  0
 11 30  1  0  0  0  0
 13 14  1  0  0  0  0
 13 16  2  0  0  0  0
 14 15  3  0  0  0  0
 16 17  1  0  0  0  0
 17 31  1  0  0  0  0
 17 32  1  0  0  0  0
 17 33  1  0  0  0  0
M  END
> <s_m_source_file>
AV-unprocessed.smi

> <i_m_source_file_index>
3171

> <i_lp_mmshare_version>
43012

> <i_f3d_flags>
0

> <s_epik_input>
W0NIM11jMW5uYyhjKEMjTiljMVtDSDNdKVtOSF1bQ0gyXVtDQEBIXTJbQ0gyXVtDSDJdW0NIMl1PMg==

> <s_epik_cmdline>
J2VwaWtfcHl0aG9uJywgJy1waCcsICc3LjAnLCAnLXRuJywgJzgnLCAnLW1hJywgJzIwMCcsICctbWV0YWxfYmluZGluZycsICctaW1hZScsICc8aW5maWxlLm1hZT4nLCAnLW9tYWUnLCAnPG91dGZpbGUubWFlPic=

> <r_lp_tautomer_probability>
1

> <r_epik_Ionization_Penalty>
0.00108228

> <r_epik_Ionization_Penalty_Charging>
0

> <r_epik_Ionization_Penalty_Neutral>
0.00108228

> <r_epik_State_Penalty>
-0

> <r_epik_Charging_Adjusted_Penalty>
0

> <i_epik_Tot_Q>
0

> <i_epik_Tot_abs_Q>
0

> <r_epik_Metal_State_Penalty>
-0

> <b_epik_Metal_Only>
0

> <s_lp_Force_Field>
OPLS_2005

> <r_lp_Energy>
28.7028

> <b_lp_Chiralities_Consistent>
1

> <s_lp_Variant>
AV-unprocessed.smi:3171-1

> <Gold.Version>
5.8.1

> <Gold.Id.Protein>
6NUR|6NUR_protein|mol2

> <Gold.PLP.Fitness>
36.5896

> <Gold.PLP.PLP>
-34.5208

> <Gold.PLP.part.hbond>
-1.0000

> <Gold.PLP.part.metal>
0.0000

> <Gold.PLP.part.buried>
-6.1193

> <Gold.PLP.part.nonpolar>
-28.1649

> <Gold.PLP.part.repulsive>
0.8846

> <Gold.PLP.ligand.clash>
0.0000

> <Gold.PLP.ligand.torsion>
0.1224

> <Gold.PLP.Chemscore.Hbond>
0.7680

> <Gold.PLP.Chemscore.CHOScore>
0.0000

> <Gold.PLP.Chemscore.Metal>
0.0000

> <Gold.Chemscore.Hbonds>
donor molecule, donor type, donor heavy atom, donor atom, acceptor molecule, acceptor atom, score
      P1  H  8011  8017       L1    12  0.65

> <Gold.PLP.Chemscore.Internal.Correction>
0.0097

> <Gold.Rescore>
     Score         DG    S(hbond)    S(metal)    S(lipo)     H(rot)  DE(clash)    DE(int)     intcor
     12.00     -13.46       0.48        0.00      81.21       1.22       0.03       1.44       ----

> <Gold.Chemscore.Fitness>
11.9970

> <Gold.Chemscore.DG>
-13.4645

> <Gold.Chemscore.ZeroCoef>
-5.4800

> <Gold.Chemscore.Hbond>
0.4793

> <Gold.Chemscore.Metal>
0.0000

> <Gold.Chemscore.Lipo>
81.2110

> <Gold.Chemscore.Internal_Hbond>
0.0000

> <Gold.Chemscore.DEClash>
0.0272

> <Gold.Chemscore.DEInternal>
1.4402

> <Gold.Chemscore.Rot>
1.2181

> <Gold.Chemscore.Internal.Correction>
   9.000000E+99

> <Gold.Chemscore.Hbonds>
donor molecule, donor type, donor heavy atom, donor atom, acceptor molecule, acceptor atom, score
      P1  H  8011  8017       L1    12  0.24

> <Gold.Chemscore.Hbond.Weighted>
-1.6010

> <Gold.Chemscore.Metal.Weighted>
-0.0000

> <Gold.Chemscore.Lipo.Weighted>
-9.5017

> <Gold.Chemscore.Internal_Hbond.Weighted>
0.0000

> <Gold.Chemscore.DEClash.Weighted>
0.0272

> <Gold.Chemscore.DEInternal.Weighted>
1.4402

> <Gold.Chemscore.Rot.Weighted>
3.1182

> <Gold.Chemscore.Internal.Correction.Weighted>
   9.000000E+99

> <Gold.Protein.RotatedTorsions>
[ 6907 6896 6895 6894 ] final  -72.80 input  -60.11 | X-H torsion
[ 7974 7965 7964 7962 ] final   53.29 input  175.53 | X-H torsion
[ 8008 7997 7996 7995 ] final -141.05 input   59.86 | X-H torsion
[ 10167 10162 10161 10158 ] final  -50.51 input  -65.29 | X-H torsion
[ 10718 10713 10712 10709 ] final  -61.25 input   66.30 | X-H torsion
[ 10763 10752 10751 10750 ] final  168.91 input  -60.55 | X-H torsion
[ 11005 11000 10999 10996 ] final -105.66 input  -57.11 | X-H torsion

> <Gold.Protein.ActiveResidues>
 VAL166  LYS551  ARG553  GLY616  TRP617  ASP618  TYR619  PRO620  LYS621  CYS622 
 ASP623  PHE694  ASN695  SER759  ASP760  ASP761  ALA762  ILE779  LEU786  VAL792 
 PHE793  MET794  SER795  GLU796  ALA797  LYS798  CYS799  TRP800  GLU811  SER814 

> <Gold.Protein.RotatedAtoms>
  150.7155  134.5109  159.5606 H   0  0  0  0  0  0  0  0  0  0  0  0  # atno 6907 bound_to 6896
  152.2686  134.7954  160.0427 H   0  0  0  0  0  0  0  0  0  0  0  0  # atno 6908 bound_to 6896
  151.8643  133.3428  159.3750 H   0  0  0  0  0  0  0  0  0  0  0  0  # atno 6909 bound_to 6896
  145.9727  139.4164  143.0180 H   0  0  0  0  0  0  0  0  0  0  0  0  # atno 7974 bound_to 7965
  155.4713  140.0553  157.2979 H   0  0  0  0  0  0  0  0  0  0  0  0  # atno 8008 bound_to 7997
  154.4697  140.2034  155.9980 H   0  0  0  0  0  0  0  0  0  0  0  0  # atno 8009 bound_to 7997
  156.1035  140.3215  155.7978 H   0  0  0  0  0  0  0  0  0  0  0  0  # atno 8010 bound_to 7997
  140.6634  143.2655  151.4370 H   0  0  0  0  0  0  0  0  0  0  0  0  # atno 10167 bound_to 10162
  156.0935  130.4196  150.0967 H   0  0  0  0  0  0  0  0  0  0  0  0  # atno 10718 bound_to 10713
  154.3755  135.2753  155.2242 H   0  0  0  0  0  0  0  0  0  0  0  0  # atno 10763 bound_to 10752
  154.4371  135.5963  153.6109 H   0  0  0  0  0  0  0  0  0  0  0  0  # atno 10764 bound_to 10752
  152.9836  135.6009  154.3991 H   0  0  0  0  0  0  0  0  0  0  0  0  # atno 10765 bound_to 10752
  141.1043  133.8826  157.1761 H   0  0  0  0  0  0  0  0  0  0  0  0  # atno 11005 bound_to 11000
  145.7883  140.9825  143.1062 LP  0  0  0  0  0  0  0  0  0  0  0  0  # atno 17320 bound_to 7965
  144.6841  139.9651  143.7481 LP  0  0  0  0  0  0  0  0  0  0  0  0  # atno 17321 bound_to 7965
  139.5874  144.1573  152.2046 LP  0  0  0  0  0  0  0  0  0  0  0  0  # atno 17342 bound_to 10162
  140.0917  144.5615  150.7050 LP  0  0  0  0  0  0  0  0  0  0  0  0  # atno 17343 bound_to 10162
  156.8972  130.9608  151.3581 LP  0  0  0  0  0  0  0  0  0  0  0  0  # atno 17370 bound_to 10713
  157.6090  130.8568  149.8921 LP  0  0  0  0  0  0  0  0  0  0  0  0  # atno 17371 bound_to 10713
  139.9906  135.0066  156.9966 LP  0  0  0  0  0  0  0  0  0  0  0  0  # atno 17394 bound_to 11000
  140.4943  134.1161  155.7238 LP  0  0  0  0  0  0  0  0  0  0  0  0  # atno 17395 bound_to 11000

$$$$
