AV-unprocessed.smi:287|AV-procd|sdf|2193|dock7
  -GOLD-   2262021593D 1   1.00000     0.00000
 Structure written by MMmdl.
 55 58  0  0  0  0  0  0  0  0  1 V2000
  149.0273  140.3705  154.6630 C   0  0  0  0  0  0  0  0  0  0  0  0
  147.6247  140.6858  155.0552 C   0  0  0  0  0  0  0  0  0  0  0  0
  146.6522  139.9962  155.7188 C   0  0  0  0  0  0  0  0  0  0  0  0
  145.4999  140.8359  155.7794 C   0  0  0  0  0  0  0  0  0  0  0  0
  144.1685  140.4860  156.4307 C   0  0  1  0  0  0  0  0  0  0  0  0
  144.2994  140.5743  157.9601 C   0  0  0  0  0  0  0  0  0  0  0  0
  143.1361  141.3902  156.0885 O   0  0  0  0  0  0  0  0  0  0  0  0
  143.6565  139.0860  156.0214 C   0  0  0  0  0  0  0  0  0  0  0  0
  143.3396  138.9898  154.6022 N   0  0  0  0  0  0  0  0  0  0  0  0
  142.8901  137.8344  154.0704 C   0  0  0  0  0  0  0  0  0  0  0  0
  141.5730  137.5796  154.2585 N   0  0  0  0  0  0  0  0  0  0  0  0
  141.0256  136.4661  153.7632 C   0  0  0  0  0  0  0  0  0  0  0  0
  141.6074  135.4910  153.0627 N   0  0  0  0  0  0  0  0  0  0  0  0
  142.9359  135.7377  152.8764 C   0  0  0  0  0  0  0  0  0  0  0  0
  143.6547  136.8758  153.3407 C   0  0  0  0  0  0  0  0  0  0  0  0
  144.9857  136.7649  152.9491 N   0  0  0  0  0  0  0  0  0  0  0  0
  145.0407  135.6371  152.2931 C   0  0  0  0  0  0  0  0  0  0  0  0
  143.8469  134.9573  152.2020 N   0  0  0  0  0  0  0  0  0  0  0  0
  143.5477  133.6617  151.5215 C   0  0  2  0  0  0  0  0  0  0  0  0
  144.5666  132.7623  151.7960 O   0  0  0  0  0  0  0  0  0  0  0  0
  144.4876  131.7258  150.8282 C   0  0  2  0  0  0  0  0  0  0  0  0
  145.8511  131.0280  150.7131 C   0  0  0  0  0  0  0  0  0  0  0  0
  146.8223  131.9283  150.2237 O   0  0  0  0  0  0  0  0  0  0  0  0
  144.0134  132.4218  149.5350 C   0  0  1  0  0  0  0  0  0  0  0  0
  142.9599  131.6770  148.9559 O   0  0  0  0  0  0  0  0  0  0  0  0
  143.5008  133.7886  149.9928 C   0  0  2  0  0  0  0  0  0  0  0  0
  144.3242  134.8284  149.4948 O   0  0  0  0  0  0  0  0  0  0  0  0
  145.8791  141.9970  155.1494 C   0  0  0  0  0  0  0  0  0  0  0  0
  145.1955  143.2940  154.8660 C   0  0  0  0  0  0  0  0  0  0  0  0
  147.1638  141.9122  154.7036 O   0  0  0  0  0  0  0  0  0  0  0  0
  142.6099  133.3103  151.9555 H   0  0  0  0  0  0  0  0  0  0  0  0
  143.7350  131.0202  151.1873 H   0  0  0  0  0  0  0  0  0  0  0  0
  144.8219  132.5229  148.8089 H   0  0  0  0  0  0  0  0  0  0  0  0
  142.4731  133.9885  149.6856 H   0  0  0  0  0  0  0  0  0  0  0  0
  149.2434  139.3119  154.8086 H   0  0  0  0  0  0  0  0  0  0  0  0
  149.7344  140.9460  155.2607 H   0  0  0  0  0  0  0  0  0  0  0  0
  149.1987  140.6081  153.6128 H   0  0  0  0  0  0  0  0  0  0  0  0
  146.7527  138.9958  156.1129 H   0  0  0  0  0  0  0  0  0  0  0  0
  145.0547  139.8810  158.3323 H   0  0  0  0  0  0  0  0  0  0  0  0
  143.3596  140.3310  158.4576 H   0  0  0  0  0  0  0  0  0  0  0  0
  144.5909  141.5769  158.2762 H   0  0  0  0  0  0  0  0  0  0  0  0
  143.4273  141.9138  155.3577 H   0  0  0  0  0  0  0  0  0  0  0  0
  144.4420  138.3572  156.2259 H   0  0  0  0  0  0  0  0  0  0  0  0
  142.7936  138.7995  156.6239 H   0  0  0  0  0  0  0  0  0  0  0  0
  143.5864  139.7954  154.0456 H   0  0  0  0  0  0  0  0  0  0  0  0
  139.9701  136.3395  153.9548 H   0  0  0  0  0  0  0  0  0  0  0  0
  145.9572  135.2739  151.8507 H   0  0  0  0  0  0  0  0  0  0  0  0
  146.1699  130.6261  151.6754 H   0  0  0  0  0  0  0  0  0  0  0  0
  145.7853  130.1894  150.0194 H   0  0  0  0  0  0  0  0  0  0  0  0
  147.6763  131.5381  150.3321 H   0  0  0  0  0  0  0  0  0  0  0  0
  142.2333  131.6663  149.5604 H   0  0  0  0  0  0  0  0  0  0  0  0
  144.9748  134.4450  148.9261 H   0  0  0  0  0  0  0  0  0  0  0  0
  144.8045  143.7320  155.7841 H   0  0  0  0  0  0  0  0  0  0  0  0
  144.3633  143.1494  154.1772 H   0  0  0  0  0  0  0  0  0  0  0  0
  145.8812  144.0132  154.4174 H   0  0  0  0  0  0  0  0  0  0  0  0
  1  2  1  0  0  0  0
  1 35  1  0  0  0  0
  1 36  1  0  0  0  0
  1 37  1  0  0  0  0
  2 30  1  0  0  0  0
  2  3  2  0  0  0  0
  3  4  1  0  0  0  0
  3 38  1  0  0  0  0
  4  5  1  0  0  0  0
  4 28  2  0  0  0  0
  5  6  1  0  0  0  0
  5  7  1  0  0  0  0
  5  8  1  0  0  0  0
  6 39  1  0  0  0  0
  6 40  1  0  0  0  0
  6 41  1  0  0  0  0
  7 42  1  0  0  0  0
  8  9  1  0  0  0  0
  8 43  1  0  0  0  0
  8 44  1  0  0  0  0
  9 10  1  0  0  0  0
  9 45  1  0  0  0  0
 10 15  1  0  0  0  0
 10 11  2  0  0  0  0
 11 12  1  0  0  0  0
 12 13  2  0  0  0  0
 12 46  1  0  0  0  0
 13 14  1  0  0  0  0
 14 18  1  0  0  0  0
 14 15  2  0  0  0  0
 15 16  1  0  0  0  0
 16 17  2  0  0  0  0
 17 18  1  0  0  0  0
 17 47  1  0  0  0  0
 18 19  1  0  0  0  0
 19 31  1  0  0  0  0
 19 26  1  0  0  0  0
 19 20  1  0  0  0  0
 20 21  1  0  0  0  0
 21 32  1  0  0  0  0
 21 22  1  0  0  0  0
 21 24  1  0  0  0  0
 22 23  1  0  0  0  0
 22 48  1  0  0  0  0
 22 49  1  0  0  0  0
 23 50  1  0  0  0  0
 24 33  1  0  0  0  0
 24 25  1  0  0  0  0
 24 26  1  0  0  0  0
 25 51  1  0  0  0  0
 26 34  1  0  0  0  0
 26 27  1  0  0  0  0
 27 52  1  0  0  0  0
 28 29  1  0  0  0  0
 28 30  1  0  0  0  0
 29 53  1  0  0  0  0
 29 54  1  0  0  0  0
 29 55  1  0  0  0  0
M  END
> <s_m_source_file>
AV-unprocessed.smi

> <i_m_source_file_index>
287

> <i_lp_mmshare_version>
43012

> <i_f3d_flags>
0

> <s_epik_input>
W0NIM11jMVtjSF1jKGMobzEpW0NIM10pW0NAQF0oW0NIM10pKFtPSF0pW0NIMl1bTkhdYyhuW2NIXW4yKWMoYzIzKW5bY0hdbjNbQ0BASF00T1tDQEhdKFtDSDJdW09IXSlbQ0BASF0oW09IXSlbQ0BIXTRbT0hd

> <s_epik_cmdline>
J2VwaWtfcHl0aG9uJywgJy1waCcsICc3LjAnLCAnLXRuJywgJzgnLCAnLW1hJywgJzIwMCcsICctbWV0YWxfYmluZGluZycsICctaW1hZScsICc8aW5maWxlLm1hZT4nLCAnLW9tYWUnLCAnPG91dGZpbGUubWFlPic=

> <r_lp_tautomer_probability>
1

> <r_epik_Ionization_Penalty>
0.000992612

> <r_epik_Ionization_Penalty_Charging>
0

> <r_epik_Ionization_Penalty_Neutral>
0.000992612

> <r_epik_State_Penalty>
-0

> <r_epik_Charging_Adjusted_Penalty>
0

> <i_epik_Tot_Q>
0

> <i_epik_Tot_abs_Q>
0

> <r_epik_Metal_State_Penalty>
-0

> <b_epik_Metal_Only>
0

> <s_epik_Chemistry_Notes>
This compound contains an acetal/aminal-like group ( X-CH(R)-Y where X, Y are N, S, or O) that may be acid/base labile, releasing an aldehyde.

> <s_lp_Force_Field>
OPLS_2005

> <r_lp_Energy>
41.001

> <b_lp_Chiralities_Consistent>
1

> <s_lp_Variant>
AV-unprocessed.smi:287-17

> <Gold.Version>
5.8.1

> <Gold.Id.Protein>
6NUR|6NUR_protein|mol2

> <Gold.PLP.Fitness>
47.9233

> <Gold.PLP.PLP>
-38.1772

> <Gold.PLP.part.hbond>
-5.3991

> <Gold.PLP.part.metal>
0.0000

> <Gold.PLP.part.buried>
-3.7527

> <Gold.PLP.part.nonpolar>
-31.4786

> <Gold.PLP.part.repulsive>
0.7311

> <Gold.PLP.ligand.clash>
0.0110

> <Gold.PLP.ligand.torsion>
1.6844

> <Gold.PLP.Chemscore.Hbond>
4.3600

> <Gold.PLP.Chemscore.CHOScore>
0.0000

> <Gold.PLP.Chemscore.Metal>
0.0000

> <Gold.Chemscore.Hbonds>
donor molecule, donor type, donor heavy atom, donor atom, acceptor molecule, acceptor atom, score
      L1  H     9    45       P1 10175  0.93
      L1  H    23    50       P1 10747  0.83
      L1  H    25    51       P1 10952  0.51
      L1  H    27    52       P1  7921  0.86
      P1  H 10785 10796       L1    25  1.00

> <Gold.PLP.Chemscore.Internal.Correction>
0.0458

> <Gold.Rescore>
     Score         DG    S(hbond)    S(metal)    S(lipo)     H(rot)  DE(clash)    DE(int)     intcor
      8.32     -13.23       3.96        0.00      68.47       5.27       1.83       3.08       ----

> <Gold.Chemscore.Fitness>
8.3213

> <Gold.Chemscore.DG>
-13.2338

> <Gold.Chemscore.ZeroCoef>
-5.4800

> <Gold.Chemscore.Hbond>
3.9601

> <Gold.Chemscore.Metal>
0.0000

> <Gold.Chemscore.Lipo>
68.4705

> <Gold.Chemscore.Internal_Hbond>
0.0000

> <Gold.Chemscore.DEClash>
1.8342

> <Gold.Chemscore.DEInternal>
3.0782

> <Gold.Chemscore.Rot>
5.2672

> <Gold.Chemscore.Internal.Correction>
   9.000000E+99

> <Gold.Chemscore.Hbonds>
donor molecule, donor type, donor heavy atom, donor atom, acceptor molecule, acceptor atom, score
      L1  H     9    45       P1 10175  0.90
      L1  H    23    50       P1 10747  0.82
      L1  H    25    51       P1 10952  0.50
      L1  H    27    52       P1  7921  0.85
      P1  H 10785 10796       L1    25  0.27

> <Gold.Chemscore.Hbond.Weighted>
-13.2266

> <Gold.Chemscore.Metal.Weighted>
-0.0000

> <Gold.Chemscore.Lipo.Weighted>
-8.0111

> <Gold.Chemscore.Internal_Hbond.Weighted>
0.0000

> <Gold.Chemscore.DEClash.Weighted>
1.8342

> <Gold.Chemscore.DEInternal.Weighted>
3.0782

> <Gold.Chemscore.Rot.Weighted>
13.4839

> <Gold.Chemscore.Internal.Correction.Weighted>
   9.000000E+99

> <Gold.Protein.RotatedTorsions>
[ 6907 6896 6895 6894 ] final -148.98 input  -60.11 | X-H torsion
[ 7974 7965 7964 7962 ] final  -88.47 input  175.53 | X-H torsion
[ 8008 7997 7996 7995 ] final -154.41 input   59.86 | X-H torsion
[ 10167 10162 10161 10158 ] final  102.17 input  -65.29 | X-H torsion
[ 10718 10713 10712 10709 ] final   47.59 input   66.30 | X-H torsion
[ 10763 10752 10751 10750 ] final   84.82 input  -60.55 | X-H torsion
[ 11005 11000 10999 10996 ] final -161.27 input  -57.11 | X-H torsion

> <Gold.Protein.ActiveResidues>
 VAL166  LYS551  ARG553  GLY616  TRP617  ASP618  TYR619  PRO620  LYS621  CYS622 
 ASP623  PHE694  ASN695  SER759  ASP760  ASP761  ALA762  ILE779  LEU786  VAL792 
 PHE793  MET794  SER795  GLU796  ALA797  LYS798  CYS799  TRP800  GLU811  SER814 

> <Gold.Protein.RotatedAtoms>
  151.1776  133.4745  159.2593 H   0  0  0  0  0  0  0  0  0  0  0  0  # atno 6907 bound_to 6896
  151.1292  135.0121  159.8584 H   0  0  0  0  0  0  0  0  0  0  0  0  # atno 6908 bound_to 6896
  152.5459  134.1681  159.8638 H   0  0  0  0  0  0  0  0  0  0  0  0  # atno 6909 bound_to 6896
  145.4527  140.9561  143.2013 H   0  0  0  0  0  0  0  0  0  0  0  0  # atno 7974 bound_to 7965
  155.6860  140.0750  157.2466 H   0  0  0  0  0  0  0  0  0  0  0  0  # atno 8008 bound_to 7997
  154.4097  140.1673  156.2086 H   0  0  0  0  0  0  0  0  0  0  0  0  # atno 8009 bound_to 7997
  155.9494  140.3378  155.6397 H   0  0  0  0  0  0  0  0  0  0  0  0  # atno 8010 bound_to 7997
  139.7373  144.7020  151.0629 H   0  0  0  0  0  0  0  0  0  0  0  0  # atno 10167 bound_to 10162
  157.4600  130.8191  149.7876 H   0  0  0  0  0  0  0  0  0  0  0  0  # atno 10718 bound_to 10713
  153.1417  135.4640  154.9506 H   0  0  0  0  0  0  0  0  0  0  0  0  # atno 10763 bound_to 10752
  154.7753  135.3171  154.8108 H   0  0  0  0  0  0  0  0  0  0  0  0  # atno 10764 bound_to 10752
  153.8629  135.6911  153.4835 H   0  0  0  0  0  0  0  0  0  0  0  0  # atno 10765 bound_to 10752
  140.6222  134.4738  157.5224 H   0  0  0  0  0  0  0  0  0  0  0  0  # atno 11005 bound_to 11000
  144.8051  139.6066  143.7054 LP  0  0  0  0  0  0  0  0  0  0  0  0  # atno 17320 bound_to 7965
  146.2495  139.6169  142.9437 LP  0  0  0  0  0  0  0  0  0  0  0  0  # atno 17321 bound_to 7965
  140.7781  143.4968  150.9823 LP  0  0  0  0  0  0  0  0  0  0  0  0  # atno 17342 bound_to 10162
  139.8656  143.7258  152.3170 LP  0  0  0  0  0  0  0  0  0  0  0  0  # atno 17343 bound_to 10162
  156.0024  130.3873  150.2554 LP  0  0  0  0  0  0  0  0  0  0  0  0  # atno 17370 bound_to 10713
  157.0731  131.0122  151.3183 LP  0  0  0  0  0  0  0  0  0  0  0  0  # atno 17371 bound_to 10713
  139.9149  134.8267  156.1401 LP  0  0  0  0  0  0  0  0  0  0  0  0  # atno 17394 bound_to 11000
  141.0734  133.6786  156.2187 LP  0  0  0  0  0  0  0  0  0  0  0  0  # atno 17395 bound_to 11000

$$$$
