AV-unprocessed.smi:1047|AV-procd|sdf|4589|dock4
  -GOLD-   22720 3 63D 1   1.00000     0.00000
 Structure written by MMmdl.
 57 59  0  0  0  0  0  0  0  0  3 V2000
  147.5797  133.0933  152.7308 C   0  0  0  0  0  0  0  0  0  0  0  0
  149.0028  132.5275  152.8390 C   0  0  0  0  0  0  0  0  0  0  0  0
  149.7983  133.0650  153.9417 N   0  0  0  0  0  0  0  0  0  0  0  0
  149.3040  132.5787  155.2253 C   0  0  0  0  0  0  0  0  0  0  0  0
  150.1219  133.1328  156.4037 C   0  0  0  0  0  0  0  0  0  0  0  0
  150.1141  134.5557  156.3562 O   0  0  0  0  0  0  0  0  0  0  0  0
  150.6450  135.0733  155.1390 C   0  0  2  0  0  0  0  0  0  0  0  0
  150.6186  136.6059  155.2112 C   0  0  0  0  0  0  0  0  0  0  0  0
  150.8790  137.1793  153.8789 N   0  3  0  0  0  0  0  0  0  0  0  0
  151.0624  138.6431  153.8455 C   0  0  0  0  0  0  0  0  0  0  0  0
  152.2297  139.0720  154.7597 C   0  0  2  0  0  0  0  0  0  0  0  0
  153.2061  138.0526  154.7532 O   0  0  0  0  0  0  0  0  0  0  0  0
  151.8521  139.3513  156.2362 C   0  0  0  0  0  0  0  0  0  0  0  0
  151.3029  140.6927  156.4837 N   0  0  0  0  0  0  0  0  0  0  0  0
  150.4984  141.4635  155.7011 C   0  0  0  0  0  0  0  0  0  0  0  0
  150.2826  142.6343  156.3621 N   0  3  0  0  0  0  0  0  0  0  0  0
  150.9453  142.6051  157.5909 C   0  0  0  0  0  0  0  0  0  0  0  0
  151.0330  143.5553  158.6006 C   0  0  0  0  0  0  0  0  0  0  0  0
  151.7978  143.2169  159.7394 C   0  0  0  0  0  0  0  0  0  0  0  0
  151.9223  144.2373  160.8580 C   0  0  0  0  0  0  0  0  0  0  0  0
  152.4365  141.9537  159.8414 C   0  0  0  0  0  0  0  0  0  0  0  0
  153.2545  141.6003  161.0719 C   0  0  0  0  0  0  0  0  0  0  0  0
  152.3312  140.9981  158.8054 C   0  0  0  0  0  0  0  0  0  0  0  0
  151.5856  141.3538  157.6845 C   0  0  0  0  0  0  0  0  0  0  0  0
  149.8149  134.5258  153.9615 C   0  0  0  0  0  0  0  0  0  0  0  0
  147.0920  132.7275  151.8272 H   0  0  0  0  0  0  0  0  0  0  0  0
  147.5915  134.1823  152.6812 H   0  0  0  0  0  0  0  0  0  0  0  0
  146.9568  132.7984  153.5747 H   0  0  0  0  0  0  0  0  0  0  0  0
  148.9578  131.4397  152.9087 H   0  0  0  0  0  0  0  0  0  0  0  0
  149.5122  132.7459  151.8995 H   0  0  0  0  0  0  0  0  0  0  0  0
  148.2572  132.8610  155.3496 H   0  0  0  0  0  0  0  0  0  0  0  0
  149.3361  131.4888  155.2460 H   0  0  0  0  0  0  0  0  0  0  0  0
  149.6938  132.8051  157.3509 H   0  0  0  0  0  0  0  0  0  0  0  0
  151.1487  132.7651  156.3711 H   0  0  0  0  0  0  0  0  0  0  0  0
  151.6799  134.7416  155.0324 H   0  0  0  0  0  0  0  0  0  0  0  0
  149.6380  136.9376  155.5553 H   0  0  0  0  0  0  0  0  0  0  0  0
  151.3570  136.9758  155.9236 H   0  0  0  0  0  0  0  0  0  0  0  0
  151.7033  136.7386  153.4949 H   0  0  0  0  0  0  0  0  0  0  0  0
  151.2319  138.9854  152.8238 H   0  0  0  0  0  0  0  0  0  0  0  0
  150.1296  139.0965  154.1847 H   0  0  0  0  0  0  0  0  0  0  0  0
  152.7054  139.9538  154.3300 H   0  0  0  0  0  0  0  0  0  0  0  0
  153.1655  137.5941  153.9276 H   0  0  0  0  0  0  0  0  0  0  0  0
  151.0907  138.6410  156.5630 H   0  0  0  0  0  0  0  0  0  0  0  0
  152.7113  139.2052  156.8926 H   0  0  0  0  0  0  0  0  0  0  0  0
  150.1113  141.2002  154.7269 H   0  0  0  0  0  0  0  0  0  0  0  0
  150.5397  144.5132  158.5192 H   0  0  0  0  0  0  0  0  0  0  0  0
  152.9664  144.5109  161.0119 H   0  0  0  0  0  0  0  0  0  0  0  0
  151.5284  143.8338  161.7910 H   0  0  0  0  0  0  0  0  0  0  0  0
  151.3693  145.1492  160.6304 H   0  0  0  0  0  0  0  0  0  0  0  0
  153.6804  140.5995  160.9959 H   0  0  0  0  0  0  0  0  0  0  0  0
  152.6330  141.6302  161.9671 H   0  0  0  0  0  0  0  0  0  0  0  0
  154.0779  142.3035  161.1984 H   0  0  0  0  0  0  0  0  0  0  0  0
  152.8154  140.0358  158.8846 H   0  0  0  0  0  0  0  0  0  0  0  0
  150.2336  134.9091  153.0315 H   0  0  0  0  0  0  0  0  0  0  0  0
  148.7941  134.9063  154.0257 H   0  0  0  0  0  0  0  0  0  0  0  0
  150.0921  136.9574  153.2862 H   0  0  0  0  0  0  0  0  0  0  0  0
  149.7169  143.3928  156.0019 H   0  0  0  0  0  0  0  0  0  0  0  0
  1  2  1  0  0  0  0
  1 26  1  0  0  0  0
  1 27  1  0  0  0  0
  1 28  1  0  0  0  0
  2  3  1  0  0  0  0
  2 29  1  0  0  0  0
  2 30  1  0  0  0  0
  3 25  1  0  0  0  0
  3  4  1  0  0  0  0
  4  5  1  0  0  0  0
  4 31  1  0  0  0  0
  4 32  1  0  0  0  0
  5  6  1  0  0  0  0
  5 33  1  0  0  0  0
  5 34  1  0  0  0  0
  6  7  1  0  0  0  0
  7  8  1  0  0  0  0
  7 25  1  0  0  0  0
  7 35  1  0  0  0  0
  8  9  1  0  0  0  0
  8 36  1  0  0  0  0
  8 37  1  0  0  0  0
  9 10  1  0  0  0  0
  9 38  1  0  0  0  0
  9 56  1  0  0  0  0
 10 11  1  0  0  0  0
 10 39  1  0  0  0  0
 10 40  1  0  0  0  0
 11 12  1  0  0  0  0
 11 13  1  0  0  0  0
 11 41  1  0  0  0  0
 12 42  1  0  0  0  0
 13 14  1  0  0  0  0
 13 43  1  0  0  0  0
 13 44  1  0  0  0  0
 14 24  1  0  0  0  0
 14 15  1  0  0  0  0
 15 16  2  0  0  0  0
 15 45  1  0  0  0  0
 16 17  1  0  0  0  0
 16 57  1  0  0  0  0
 17 24  2  0  0  0  0
 17 18  1  0  0  0  0
 18 19  2  0  0  0  0
 18 46  1  0  0  0  0
 19 20  1  0  0  0  0
 19 21  1  0  0  0  0
 20 47  1  0  0  0  0
 20 48  1  0  0  0  0
 20 49  1  0  0  0  0
 21 22  1  0  0  0  0
 21 23  2  0  0  0  0
 22 50  1  0  0  0  0
 22 51  1  0  0  0  0
 22 52  1  0  0  0  0
 23 24  1  0  0  0  0
 23 53  1  0  0  0  0
 25 54  1  0  0  0  0
 25 55  1  0  0  0  0
M  CHG  1   9   1
M  CHG  1  16   1
M  END
> <s_m_source_file>
AV-unprocessed.smi

> <i_m_source_file_index>
1047

> <i_lp_mmshare_version>
43012

> <i_f3d_flags>
0

> <s_epik_input>
W0NIM11bQ0gyXU4xW0NIMl1bQ0gyXU9bQ0BIXShbQ0gyXTEpW0NIMl1bTkhdW0NIMl1bQ0BIXShbT0hdKVtDSDJdbihbY0hdbjIpYyhjMjMpW2NIXWMoW0NIM10pYyhbY0hdMylbQ0gzXQ==

> <s_epik_cmdline>
J2VwaWtfcHl0aG9uJywgJy1waCcsICc3LjAnLCAnLXRuJywgJzgnLCAnLW1hJywgJzIwMCcsICctbWV0YWxfYmluZGluZycsICctaW1hZScsICc8aW5maWxlLm1hZT4nLCAnLW9tYWUnLCAnPG91dGZpbGUubWFlPic=

> <r_epik_Ionization_Penalty>
1.75732

> <r_epik_Ionization_Penalty_Charging>
1.18089

> <r_epik_Ionization_Penalty_Neutral>
0.576429

> <r_epik_State_Penalty>
1.69377

> <r_epik_Charging_Adjusted_Penalty>
2.87466

> <i_epik_Tot_Q>
2

> <i_epik_Tot_abs_Q>
2

> <r_epik_Metal_State_Penalty>
5.70174

> <b_epik_Metal_Only>
0

> <s_lp_Force_Field>
OPLS_2005

> <r_lp_Energy>
41.9229

> <b_lp_Chiralities_Consistent>
1

> <s_lp_Variant>
AV-unprocessed.smi:1047-30

> <Gold.Version>
5.8.1

> <Gold.Id.Protein>
6NUR|6NUR_protein|mol2

> <Gold.PLP.Fitness>
65.6046

> <Gold.PLP.PLP>
-54.8354

> <Gold.PLP.part.hbond>
-4.0000

> <Gold.PLP.part.metal>
0.0000

> <Gold.PLP.part.buried>
-6.4064

> <Gold.PLP.part.nonpolar>
-43.6413

> <Gold.PLP.part.repulsive>
0.2482

> <Gold.PLP.ligand.clash>
0.0086

> <Gold.PLP.ligand.torsion>
1.0649

> <Gold.PLP.Chemscore.Hbond>
4.1993

> <Gold.PLP.Chemscore.CHOScore>
0.0000

> <Gold.PLP.Chemscore.Metal>
0.0000

> <Gold.Chemscore.Hbonds>
donor molecule, donor type, donor heavy atom, donor atom, acceptor molecule, acceptor atom, score
      L1  H     9    38       P1  7949  0.18
      L1  H     9    56       P1  7948  1.50
      L1  H    16    57       P1  8028  2.00

> <Gold.PLP.Chemscore.Internal.Correction>
0.3096

> <Gold.Rescore>
     Score         DG    S(hbond)    S(metal)    S(lipo)     H(rot)  DE(clash)    DE(int)     intcor
     18.55     -19.63       1.67        0.00     132.20       2.69       0.06       1.02       ----

> <Gold.Chemscore.Fitness>
18.5450

> <Gold.Chemscore.DG>
-19.6307

> <Gold.Chemscore.ZeroCoef>
-5.4800

> <Gold.Chemscore.Hbond>
1.6688

> <Gold.Chemscore.Metal>
0.0000

> <Gold.Chemscore.Lipo>
132.2029

> <Gold.Chemscore.Internal_Hbond>
0.0000

> <Gold.Chemscore.DEClash>
0.0631

> <Gold.Chemscore.DEInternal>
1.0226

> <Gold.Chemscore.Rot>
2.6917

> <Gold.Chemscore.Internal.Correction>
   9.000000E+99

> <Gold.Chemscore.Hbonds>
donor molecule, donor type, donor heavy atom, donor atom, acceptor molecule, acceptor atom, score
      L1  H     9    38       P1  7949  0.09
      L1  H     9    56       P1  7948  0.09
      L1  H    16    57       P1  8028  0.99

> <Gold.Chemscore.Hbond.Weighted>
-5.5737

> <Gold.Chemscore.Metal.Weighted>
-0.0000

> <Gold.Chemscore.Lipo.Weighted>
-15.4677

> <Gold.Chemscore.Internal_Hbond.Weighted>
0.0000

> <Gold.Chemscore.DEClash.Weighted>
0.0631

> <Gold.Chemscore.DEInternal.Weighted>
1.0226

> <Gold.Chemscore.Rot.Weighted>
6.8907

> <Gold.Chemscore.Internal.Correction.Weighted>
   9.000000E+99

> <Gold.Protein.RotatedTorsions>
[ 6907 6896 6895 6894 ] final  -58.04 input  -60.11 | X-H torsion
[ 7974 7965 7964 7962 ] final   28.26 input  175.53 | X-H torsion
[ 8008 7997 7996 7995 ] final   67.46 input   59.86 | X-H torsion
[ 10167 10162 10161 10158 ] final   70.15 input  -65.29 | X-H torsion
[ 10718 10713 10712 10709 ] final  151.51 input   66.30 | X-H torsion
[ 10763 10752 10751 10750 ] final  -78.15 input  -60.55 | X-H torsion
[ 11005 11000 10999 10996 ] final -120.01 input  -57.11 | X-H torsion

> <Gold.Protein.ActiveResidues>
 VAL166  LYS551  ARG553  GLY616  TRP617  ASP618  TYR619  PRO620  LYS621  CYS622 
 ASP623  PHE694  ASN695  SER759  ASP760  ASP761  ALA762  ILE779  LEU786  VAL792 
 PHE793  MET794  SER795  GLU796  ALA797  LYS798  CYS799  TRP800  GLU811  SER814 

> <Gold.Protein.RotatedAtoms>
  150.8038  134.7150  159.6624 H   0  0  0  0  0  0  0  0  0  0  0  0  # atno 6907 bound_to 6896
  152.4156  134.6043  160.0018 H   0  0  0  0  0  0  0  0  0  0  0  0  # atno 6908 bound_to 6896
  151.6273  133.3297  159.3137 H   0  0  0  0  0  0  0  0  0  0  0  0  # atno 6909 bound_to 6896
  146.1739  139.7080  142.8948 H   0  0  0  0  0  0  0  0  0  0  0  0  # atno 7974 bound_to 7965
  155.6932  140.3496  155.4902 H   0  0  0  0  0  0  0  0  0  0  0  0  # atno 8008 bound_to 7997
  155.9506  140.1118  157.1002 H   0  0  0  0  0  0  0  0  0  0  0  0  # atno 8009 bound_to 7997
  154.4121  140.1195  156.5033 H   0  0  0  0  0  0  0  0  0  0  0  0  # atno 8010 bound_to 7997
  140.0601  144.5240  150.7301 H   0  0  0  0  0  0  0  0  0  0  0  0  # atno 10167 bound_to 10162
  157.2697  131.0814  151.1608 H   0  0  0  0  0  0  0  0  0  0  0  0  # atno 10718 bound_to 10713
  154.5221  135.5740  153.6689 H   0  0  0  0  0  0  0  0  0  0  0  0  # atno 10763 bound_to 10752
  152.9919  135.6184  154.2740 H   0  0  0  0  0  0  0  0  0  0  0  0  # atno 10764 bound_to 10752
  154.2662  135.2854  155.2737 H   0  0  0  0  0  0  0  0  0  0  0  0  # atno 10765 bound_to 10752
  141.0174  134.0175  157.3330 H   0  0  0  0  0  0  0  0  0  0  0  0  # atno 11005 bound_to 11000
  145.4266  141.0411  143.2934 LP  0  0  0  0  0  0  0  0  0  0  0  0  # atno 17320 bound_to 7965
  144.8205  139.5800  143.6989 LP  0  0  0  0  0  0  0  0  0  0  0  0  # atno 17321 bound_to 7965
  140.7176  143.2559  151.4384 LP  0  0  0  0  0  0  0  0  0  0  0  0  # atno 17342 bound_to 10162
  139.5899  144.1521  152.2075 LP  0  0  0  0  0  0  0  0  0  0  0  0  # atno 17343 bound_to 10162
  157.3084  130.6878  149.6202 LP  0  0  0  0  0  0  0  0  0  0  0  0  # atno 17370 bound_to 10713
  155.9663  130.4371  150.5160 LP  0  0  0  0  0  0  0  0  0  0  0  0  # atno 17371 bound_to 10713
  139.9125  135.0192  156.7750 LP  0  0  0  0  0  0  0  0  0  0  0  0  # atno 17394 bound_to 11000
  140.6631  133.9627  155.7815 LP  0  0  0  0  0  0  0  0  0  0  0  0  # atno 17395 bound_to 11000

$$$$
