AV-unprocessed.smi:2750|AV-procd|sdf|10590|dock8
  -GOLD-   2272015 43D 1   1.00000     0.00000
 Structure written by MMmdl.
 25 26  0  0  0  0  0  0  0  0  2 V2000
  153.1788  136.4946  159.1434 O   0  0  0  0  0  0  0  0  0  0  0  0
  153.1455  136.9069  157.9632 C   0  0  0  0  0  0  0  0  0  0  0  0
  153.1705  136.1835  156.9425 O   0  5  0  0  0  0  0  0  0  0  0  0
  153.0407  138.4220  157.7620 C   0  0  0  0  0  0  0  0  0  0  0  0
  151.9907  138.8051  156.8330 N   0  0  0  0  0  0  0  0  0  0  0  0
  150.6381  138.5417  156.9064 C   0  0  0  0  0  0  0  0  0  0  0  0
  150.1373  139.1323  155.7816 C   0  0  0  0  0  0  0  0  0  0  0  0
  148.7180  139.1972  155.3006 C   0  0  0  0  0  0  0  0  0  0  0  0
  148.5808  139.8557  153.9126 C   0  0  1  0  0  0  0  0  0  0  0  0
  148.3452  138.8984  152.8446 N   0  0  0  0  0  0  0  0  0  0  0  0
  147.1928  139.1240  152.1994 C   0  0  0  0  0  0  0  0  0  0  0  0
  146.7508  138.4678  151.2594 O   0  0  0  0  0  0  0  0  0  0  0  0
  146.6075  140.1878  152.7603 N   0  0  0  0  0  0  0  0  0  0  0  0
  147.3173  140.6851  153.7717 C   0  0  0  0  0  0  0  0  0  0  0  0
  147.0228  141.6447  154.4817 O   0  0  0  0  0  0  0  0  0  0  0  0
  151.1888  139.7245  155.0817 N   0  0  0  0  0  0  0  0  0  0  0  0
  152.2970  139.5173  155.7216 N   0  0  0  0  0  0  0  0  0  0  0  0
  152.8412  138.8929  158.7249 H   0  0  0  0  0  0  0  0  0  0  0  0
  153.9926  138.8195  157.4057 H   0  0  0  0  0  0  0  0  0  0  0  0
  150.1807  137.9829  157.7093 H   0  0  0  0  0  0  0  0  0  0  0  0
  148.2926  138.1924  155.2784 H   0  0  0  0  0  0  0  0  0  0  0  0
  148.1172  139.7537  156.0211 H   0  0  0  0  0  0  0  0  0  0  0  0
  149.4552  140.4637  153.6767 H   0  0  0  0  0  0  0  0  0  0  0  0
  148.9835  138.1448  152.6333 H   0  0  0  0  0  0  0  0  0  0  0  0
  145.7201  140.5633  152.4589 H   0  0  0  0  0  0  0  0  0  0  0  0
  1  2  2  0  0  0  0
  2  3  1  0  0  0  0
  2  4  1  0  0  0  0
  4  5  1  0  0  0  0
  4 18  1  0  0  0  0
  4 19  1  0  0  0  0
  5 17  1  0  0  0  0
  5  6  1  0  0  0  0
  6  7  2  0  0  0  0
  6 20  1  0  0  0  0
  7  8  1  0  0  0  0
  7 16  1  0  0  0  0
  8  9  1  0  0  0  0
  8 21  1  0  0  0  0
  8 22  1  0  0  0  0
  9 14  1  0  0  0  0
  9 10  1  0  0  0  0
  9 23  1  0  0  0  0
 10 11  1  0  0  0  0
 10 24  1  0  0  0  0
 11 12  2  0  0  0  0
 11 13  1  0  0  0  0
 13 14  1  0  0  0  0
 13 25  1  0  0  0  0
 14 15  2  0  0  0  0
 16 17  2  0  0  0  0
M  CHG  1   3  -1
M  END
> <s_m_source_file>
AV-unprocessed.smi

> <i_m_source_file_index>
2750

> <i_lp_mmshare_version>
43012

> <i_f3d_flags>
0

> <s_epik_input>
Tz1DKFtPSF0pW0NIMl1uMVtjSF1jKG5uMSlbQ0gyXVtDQEBIXTJbTkhdQyg9TylbTkhdQzI9Tw==

> <s_epik_cmdline>
J2VwaWtfcHl0aG9uJywgJy1waCcsICc3LjAnLCAnLXRuJywgJzgnLCAnLW1hJywgJzIwMCcsICctbWV0YWxfYmluZGluZycsICctaW1hZScsICc8aW5maWxlLm1hZT4nLCAnLW9tYWUnLCAnPG91dGZpbGUubWFlPic=

> <r_lp_tautomer_probability>
1

> <r_epik_Ionization_Penalty>
0.019671

> <r_epik_Ionization_Penalty_Charging>
2.66176e-05

> <r_epik_Ionization_Penalty_Neutral>
0.0196444

> <r_epik_State_Penalty>
0.0155882

> <r_epik_Charging_Adjusted_Penalty>
0.0156148

> <i_epik_Tot_Q>
-1

> <i_epik_Tot_abs_Q>
1

> <r_epik_Metal_State_Penalty>
0.396229

> <b_epik_Metal_Only>
0

> <s_lp_Force_Field>
OPLS_2005

> <r_lp_Energy>
18.3652

> <b_lp_Chiralities_Consistent>
1

> <s_lp_Variant>
AV-unprocessed.smi:2750-2

> <Gold.Version>
5.8.1

> <Gold.Id.Protein>
6NUR|6NUR_protein|mol2

> <Gold.PLP.Fitness>
42.2975

> <Gold.PLP.PLP>
-18.6278

> <Gold.PLP.part.hbond>
-6.9717

> <Gold.PLP.part.metal>
0.0000

> <Gold.PLP.part.buried>
-1.9338

> <Gold.PLP.part.nonpolar>
-11.6350

> <Gold.PLP.part.repulsive>
0.6359

> <Gold.PLP.ligand.clash>
0.0000

> <Gold.PLP.ligand.torsion>
0.6923

> <Gold.PLP.Chemscore.Hbond>
8.3445

> <Gold.PLP.Chemscore.CHOScore>
0.0000

> <Gold.PLP.Chemscore.Metal>
0.0000

> <Gold.Chemscore.Hbonds>
donor molecule, donor type, donor heavy atom, donor atom, acceptor molecule, acceptor atom, score
      L1  H    10    24       P1  7948  0.82
      L1  H    13    25       P1 10175  1.00
      P1  H  6896  6907       L1     1  1.93
      P1  H  7954  7966       L1    12  0.94
      P1  H  7989  7998       L1    16  1.00
      P1  H  7997  8009       L1    17  0.57
      P1  H 10752 10763       L1     3  2.00

> <Gold.PLP.Chemscore.Internal.Correction>
0.0208

> <Gold.Rescore>
     Score         DG    S(hbond)    S(metal)    S(lipo)     H(rot)  DE(clash)    DE(int)     intcor
     14.71     -17.43       5.04        0.00      20.29       2.84       2.13       0.59       ----

> <Gold.Chemscore.Fitness>
14.7093

> <Gold.Chemscore.DG>
-17.4343

> <Gold.Chemscore.ZeroCoef>
-5.4800

> <Gold.Chemscore.Hbond>
5.0415

> <Gold.Chemscore.Metal>
0.0000

> <Gold.Chemscore.Lipo>
20.2928

> <Gold.Chemscore.Internal_Hbond>
0.0000

> <Gold.Chemscore.DEClash>
2.1321

> <Gold.Chemscore.DEInternal>
0.5929

> <Gold.Chemscore.Rot>
2.8354

> <Gold.Chemscore.Internal.Correction>
   9.000000E+99

> <Gold.Chemscore.Hbonds>
donor molecule, donor type, donor heavy atom, donor atom, acceptor molecule, acceptor atom, score
      L1  H    10    24       P1  7948  0.76
      L1  H    13    25       P1 10175  0.35
      P1  H  6896  6907       L1     1  0.86
      P1  H  7954  7966       L1    12  0.78
      P1  H  7989  7998       L1    16  0.58
      P1  H  7997  8009       L1    17  0.23
      P1  H 10752 10763       L1     3  0.99

> <Gold.Chemscore.Hbond.Weighted>
-16.8386

> <Gold.Chemscore.Metal.Weighted>
-0.0000

> <Gold.Chemscore.Lipo.Weighted>
-2.3743

> <Gold.Chemscore.Internal_Hbond.Weighted>
0.0000

> <Gold.Chemscore.DEClash.Weighted>
2.1321

> <Gold.Chemscore.DEInternal.Weighted>
0.5929

> <Gold.Chemscore.Rot.Weighted>
7.2586

> <Gold.Chemscore.Internal.Correction.Weighted>
   9.000000E+99

> <Gold.Protein.RotatedTorsions>
[ 6907 6896 6895 6894 ] final   37.82 input  -60.11 | X-H torsion
[ 7974 7965 7964 7962 ] final   16.73 input  175.53 | X-H torsion
[ 8008 7997 7996 7995 ] final -147.89 input   59.86 | X-H torsion
[ 10167 10162 10161 10158 ] final  177.46 input  -65.29 | X-H torsion
[ 10718 10713 10712 10709 ] final   30.54 input   66.30 | X-H torsion
[ 10763 10752 10751 10750 ] final  130.14 input  -60.55 | X-H torsion
[ 11005 11000 10999 10996 ] final -116.77 input  -57.11 | X-H torsion

> <Gold.Protein.ActiveResidues>
 VAL166  LYS551  ARG553  GLY616  TRP617  ASP618  TYR619  PRO620  LYS621  CYS622 
 ASP623  PHE694  ASN695  SER759  ASP760  ASP761  ALA762  ILE779  LEU786  VAL792 
 PHE793  MET794  SER795  GLU796  ALA797  LYS798  CYS799  TRP800  GLU811  SER814 

> <Gold.Protein.RotatedAtoms>
  152.1482  134.9009  160.0549 H   0  0  0  0  0  0  0  0  0  0  0  0  # atno 6907 bound_to 6896
  152.0051  133.3835  159.4205 H   0  0  0  0  0  0  0  0  0  0  0  0  # atno 6908 bound_to 6896
  150.6872  134.3714  159.5037 H   0  0  0  0  0  0  0  0  0  0  0  0  # atno 6909 bound_to 6896
  146.2240  139.8705  142.8588 H   0  0  0  0  0  0  0  0  0  0  0  0  # atno 7974 bound_to 7965
  155.5828  140.0645  157.2779 H   0  0  0  0  0  0  0  0  0  0  0  0  # atno 8008 bound_to 7997
  154.4327  140.1849  156.1041 H   0  0  0  0  0  0  0  0  0  0  0  0  # atno 8009 bound_to 7997
  156.0292  140.3308  155.7125 H   0  0  0  0  0  0  0  0  0  0  0  0  # atno 8010 bound_to 7997
  139.5254  144.2795  152.0559 H   0  0  0  0  0  0  0  0  0  0  0  0  # atno 10167 bound_to 10162
  157.2610  130.7161  149.6454 H   0  0  0  0  0  0  0  0  0  0  0  0  # atno 10718 bound_to 10713
  153.7532  135.3207  155.3325 H   0  0  0  0  0  0  0  0  0  0  0  0  # atno 10763 bound_to 10752
  154.8256  135.4572  154.0911 H   0  0  0  0  0  0  0  0  0  0  0  0  # atno 10764 bound_to 10752
  153.2120  135.6937  153.8185 H   0  0  0  0  0  0  0  0  0  0  0  0  # atno 10765 bound_to 10752
  141.0399  133.9851  157.3011 H   0  0  0  0  0  0  0  0  0  0  0  0  # atno 11005 bound_to 11000
  145.2612  141.0078  143.3825 LP  0  0  0  0  0  0  0  0  0  0  0  0  # atno 17320 bound_to 7965
  144.9297  139.4314  143.6501 LP  0  0  0  0  0  0  0  0  0  0  0  0  # atno 17321 bound_to 7965
  140.2251  144.4426  150.6324 LP  0  0  0  0  0  0  0  0  0  0  0  0  # atno 17342 bound_to 10162
  140.6393  143.2200  151.6326 LP  0  0  0  0  0  0  0  0  0  0  0  0  # atno 17343 bound_to 10162
  155.9664  130.4397  150.5271 LP  0  0  0  0  0  0  0  0  0  0  0  0  # atno 17370 bound_to 10713
  157.3176  131.0675  151.1956 LP  0  0  0  0  0  0  0  0  0  0  0  0  # atno 17371 bound_to 10713
  139.9268  135.0201  156.8263 LP  0  0  0  0  0  0  0  0  0  0  0  0  # atno 17394 bound_to 11000
  140.6253  133.9956  155.7637 LP  0  0  0  0  0  0  0  0  0  0  0  0  # atno 17395 bound_to 11000

$$$$
