AV-unprocessed.smi:290|AV-procd|sdf|2226|dock10
  -GOLD-   2262022 83D 1   1.00000     0.00000
 Structure written by MMmdl.
 59 62  0  0  0  0  0  0  0  0  2 V2000
  150.6289  139.5712  155.0349 C   0  0  0  0  0  0  0  0  0  0  0  0
  150.4238  139.9594  156.5076 C   0  0  1  0  0  0  0  0  0  0  0  0
  151.6185  140.5850  156.9673 O   0  0  0  0  0  0  0  0  0  0  0  0
  151.2842  141.4874  158.0062 C   0  0  0  0  0  0  0  0  0  0  0  0
  150.0129  142.1320  157.4763 C   0  0  0  0  0  0  0  0  0  0  0  0
  149.2783  140.9643  156.8202 C   0  0  2  0  0  0  0  0  0  0  0  0
  148.4439  140.3722  157.8016 O   0  0  0  0  0  0  0  0  0  0  0  0
  148.3865  141.3886  155.6237 C   0  0  0  0  0  0  0  0  0  0  0  0
  147.7081  140.2712  154.9845 N   0  0  0  0  0  0  0  0  0  0  0  0
  147.9275  139.7939  153.7110 C   0  0  0  0  0  0  0  0  0  0  0  0
  147.1884  138.7767  153.3605 N   0  0  0  0  0  0  0  0  0  0  0  0
  146.4085  138.5296  154.4822 C   0  0  0  0  0  0  0  0  0  0  0  0
  145.4064  137.5754  154.7925 C   0  0  0  0  0  0  0  0  0  0  0  0
  145.0228  136.6392  153.8968 N   0  0  0  0  0  0  0  0  0  0  0  0
  144.6375  137.1679  152.5978 C   0  0  0  0  0  0  0  0  0  0  0  0
  143.9090  136.0249  151.8799 C   0  0  0  0  0  0  0  0  0  0  0  0
  143.5069  135.0404  153.0001 C   0  0  1  0  0  0  0  0  0  0  0  0
  144.0407  133.6509  152.8427 N   0  3  2  0  0  0  0  0  0  0  0  0
  145.4939  133.4869  153.1057 C   0  0  0  0  0  0  0  0  0  0  0  0
  143.6260  132.9935  151.5769 C   0  0  0  0  0  0  0  0  0  0  0  0
  144.6322  133.2351  150.4385 C   0  0  0  0  0  0  0  0  0  0  0  0
  144.1072  134.1712  149.5212 O   0  0  0  0  0  0  0  0  0  0  0  0
  143.9482  135.7426  154.3001 C   0  0  1  0  0  0  0  0  0  0  0  0
  144.2923  134.8397  155.5020 C   0  0  0  0  0  0  0  0  0  0  0  0
  144.8407  137.6221  156.0275 N   0  0  0  0  0  0  0  0  0  0  0  0
  145.2356  138.5494  156.9058 C   0  0  0  0  0  0  0  0  0  0  0  0
  146.1587  139.5023  156.7552 N   0  0  0  0  0  0  0  0  0  0  0  0
  146.7245  139.4549  155.5150 C   0  0  0  0  0  0  0  0  0  0  0  0
  142.4197  134.9767  153.0370 H   0  0  0  0  0  0  0  0  0  0  0  0
  143.1089  136.3687  154.6085 H   0  0  0  0  0  0  0  0  0  0  0  0
  149.7463  139.0797  154.6254 H   0  0  0  0  0  0  0  0  0  0  0  0
  151.4638  138.8774  154.9351 H   0  0  0  0  0  0  0  0  0  0  0  0
  150.8548  140.4408  154.4173 H   0  0  0  0  0  0  0  0  0  0  0  0
  150.2924  139.0436  157.0875 H   0  0  0  0  0  0  0  0  0  0  0  0
  151.0941  140.9386  158.9298 H   0  0  0  0  0  0  0  0  0  0  0  0
  152.0808  142.2091  158.1868 H   0  0  0  0  0  0  0  0  0  0  0  0
  149.4352  142.6416  158.2488 H   0  0  0  0  0  0  0  0  0  0  0  0
  150.2875  142.8731  156.7248 H   0  0  0  0  0  0  0  0  0  0  0  0
  148.7728  140.6051  158.6564 H   0  0  0  0  0  0  0  0  0  0  0  0
  147.6183  142.0897  155.9505 H   0  0  0  0  0  0  0  0  0  0  0  0
  148.9789  141.9084  154.8695 H   0  0  0  0  0  0  0  0  0  0  0  0
  148.6560  140.2303  153.0430 H   0  0  0  0  0  0  0  0  0  0  0  0
  143.9723  138.0249  152.7142 H   0  0  0  0  0  0  0  0  0  0  0  0
  145.5132  137.4961  152.0370 H   0  0  0  0  0  0  0  0  0  0  0  0
  143.0325  136.4044  151.3540 H   0  0  0  0  0  0  0  0  0  0  0  0
  144.5507  135.5767  151.1240 H   0  0  0  0  0  0  0  0  0  0  0  0
  146.1016  133.8274  152.2678 H   0  0  0  0  0  0  0  0  0  0  0  0
  145.7215  132.4324  153.2637 H   0  0  0  0  0  0  0  0  0  0  0  0
  145.8147  134.0222  153.9982 H   0  0  0  0  0  0  0  0  0  0  0  0
  143.4916  131.9244  151.7480 H   0  0  0  0  0  0  0  0  0  0  0  0
  142.6530  133.3724  151.2588 H   0  0  0  0  0  0  0  0  0  0  0  0
  145.5963  133.5850  150.8061 H   0  0  0  0  0  0  0  0  0  0  0  0
  144.8170  132.3021  149.9055 H   0  0  0  0  0  0  0  0  0  0  0  0
  144.7080  134.2531  148.7955 H   0  0  0  0  0  0  0  0  0  0  0  0
  143.4740  134.1526  155.7187 H   0  0  0  0  0  0  0  0  0  0  0  0
  144.4621  135.4341  156.4003 H   0  0  0  0  0  0  0  0  0  0  0  0
  145.1916  134.2488  155.3326 H   0  0  0  0  0  0  0  0  0  0  0  0
  144.7423  138.5244  157.8663 H   0  0  0  0  0  0  0  0  0  0  0  0
  143.5869  133.1126  153.5674 H   0  0  0  0  0  0  0  0  0  0  0  0
  1  2  1  0  0  0  0
  1 31  1  0  0  0  0
  1 32  1  0  0  0  0
  1 33  1  0  0  0  0
  2  6  1  0  0  0  0
  2  3  1  0  0  0  0
  2 34  1  0  0  0  0
  3  4  1  0  0  0  0
  4  5  1  0  0  0  0
  4 35  1  0  0  0  0
  4 36  1  0  0  0  0
  5  6  1  0  0  0  0
  5 37  1  0  0  0  0
  5 38  1  0  0  0  0
  6  7  1  0  0  0  0
  6  8  1  0  0  0  0
  7 39  1  0  0  0  0
  8  9  1  0  0  0  0
  8 40  1  0  0  0  0
  8 41  1  0  0  0  0
  9 28  1  0  0  0  0
  9 10  1  0  0  0  0
 10 11  2  0  0  0  0
 10 42  1  0  0  0  0
 11 12  1  0  0  0  0
 12 28  2  0  0  0  0
 12 13  1  0  0  0  0
 13 14  1  0  0  0  0
 13 25  2  0  0  0  0
 14 23  1  0  0  0  0
 14 15  1  0  0  0  0
 15 16  1  0  0  0  0
 15 43  1  0  0  0  0
 15 44  1  0  0  0  0
 16 17  1  0  0  0  0
 16 45  1  0  0  0  0
 16 46  1  0  0  0  0
 17 29  1  0  0  0  0
 17 18  1  0  0  0  0
 17 23  1  0  0  0  0
 18 19  1  0  0  0  0
 18 20  1  0  0  0  0
 18 59  1  0  0  0  0
 19 47  1  0  0  0  0
 19 48  1  0  0  0  0
 19 49  1  0  0  0  0
 20 21  1  0  0  0  0
 20 50  1  0  0  0  0
 20 51  1  0  0  0  0
 21 22  1  0  0  0  0
 21 52  1  0  0  0  0
 21 53  1  0  0  0  0
 22 54  1  0  0  0  0
 23 30  1  0  0  0  0
 23 24  1  0  0  0  0
 24 55  1  0  0  0  0
 24 56  1  0  0  0  0
 24 57  1  0  0  0  0
 25 26  1  0  0  0  0
 26 27  2  0  0  0  0
 26 58  1  0  0  0  0
 27 28  1  0  0  0  0
M  CHG  1  18   1
M  END
> <s_m_source_file>
AV-unprocessed.smi

> <i_m_source_file_index>
290

> <i_lp_mmshare_version>
43012

> <i_f3d_flags>
0

> <s_epik_input>
W0NIMl0xW0NIMl1PW0NAQEhdKFtDSDNdKVtDQEBdMShbT0hdKVtDSDJdbihbY0hdbjIpYyhjMjMpbltjSF1uYzNONFtDSDJdW0NIMl1bQ0BIXShbQ0BIXTRbQ0gzXSlOKFtDSDNdKVtDSDJdW0NIMl1bT0hd

> <s_epik_cmdline>
J2VwaWtfcHl0aG9uJywgJy1waCcsICc3LjAnLCAnLXRuJywgJzgnLCAnLW1hJywgJzIwMCcsICctbWV0YWxfYmluZGluZycsICctaW1hZScsICc8aW5maWxlLm1hZT4nLCAnLW9tYWUnLCAnPG91dGZpbGUubWFlPic=

> <r_lp_tautomer_probability>
1

> <r_epik_Ionization_Penalty>
0.0036983

> <r_epik_Ionization_Penalty_Charging>
0.0032725

> <r_epik_Ionization_Penalty_Neutral>
0.000425798

> <r_epik_State_Penalty>
-0

> <r_epik_Charging_Adjusted_Penalty>
0.0032725

> <i_epik_Tot_Q>
1

> <i_epik_Tot_abs_Q>
1

> <r_epik_Metal_State_Penalty>
-0

> <b_epik_Metal_Only>
0

> <s_lp_Force_Field>
OPLS_2005

> <r_lp_Energy>
69.8612

> <b_lp_Chiralities_Consistent>
1

> <s_lp_Variant>
AV-unprocessed.smi:290-12

> <Gold.Version>
5.8.1

> <Gold.Id.Protein>
6NUR|6NUR_protein|mol2

> <Gold.PLP.Fitness>
39.9103

> <Gold.PLP.PLP>
-29.2436

> <Gold.PLP.part.hbond>
-2.8619

> <Gold.PLP.part.metal>
0.0000

> <Gold.PLP.part.buried>
-5.1523

> <Gold.PLP.part.nonpolar>
-21.2935

> <Gold.PLP.part.repulsive>
0.3074

> <Gold.PLP.ligand.clash>
0.0000

> <Gold.PLP.ligand.torsion>
0.7784

> <Gold.PLP.Chemscore.Hbond>
3.0000

> <Gold.PLP.Chemscore.CHOScore>
1.0000

> <Gold.PLP.Chemscore.Metal>
0.0000

> <Gold.Chemscore.Hbonds>
donor molecule, donor type, donor heavy atom, donor atom, acceptor molecule, acceptor atom, score
      L1  H    18    59       P1 10957  1.98
      L1  H    22    54       P1  7921  1.00
      L1  C    10    42       P1  7957  1.00

> <Gold.PLP.Chemscore.Internal.Correction>
0.2235

> <Gold.Rescore>
     Score         DG    S(hbond)    S(metal)    S(lipo)     H(rot)  DE(clash)    DE(int)     intcor
      4.14     -10.15       1.87        0.00      66.70       3.67       0.01       5.99       ----

> <Gold.Chemscore.Fitness>
4.1439

> <Gold.Chemscore.DG>
-10.1464

> <Gold.Chemscore.ZeroCoef>
-5.4800

> <Gold.Chemscore.Hbond>
1.8703

> <Gold.Chemscore.Metal>
0.0000

> <Gold.Chemscore.Lipo>
66.7010

> <Gold.Chemscore.Internal_Hbond>
0.0000

> <Gold.Chemscore.DEClash>
0.0121

> <Gold.Chemscore.DEInternal>
5.9904

> <Gold.Chemscore.Rot>
3.6658

> <Gold.Chemscore.Internal.Correction>
   9.000000E+99

> <Gold.Chemscore.Hbonds>
donor molecule, donor type, donor heavy atom, donor atom, acceptor molecule, acceptor atom, score
      L1  H    18    59       P1 10957  0.87
      L1  H    22    54       P1  7921  1.00

> <Gold.Chemscore.Hbond.Weighted>
-6.2468

> <Gold.Chemscore.Metal.Weighted>
-0.0000

> <Gold.Chemscore.Lipo.Weighted>
-7.8040

> <Gold.Chemscore.Internal_Hbond.Weighted>
0.0000

> <Gold.Chemscore.DEClash.Weighted>
0.0121

> <Gold.Chemscore.DEInternal.Weighted>
5.9904

> <Gold.Chemscore.Rot.Weighted>
9.3844

> <Gold.Chemscore.Internal.Correction.Weighted>
   9.000000E+99

> <Gold.Protein.RotatedTorsions>
[ 6907 6896 6895 6894 ] final  -29.83 input  -60.11 | X-H torsion
[ 7974 7965 7964 7962 ] final -150.26 input  175.53 | X-H torsion
[ 8008 7997 7996 7995 ] final   56.56 input   59.86 | X-H torsion
[ 10167 10162 10161 10158 ] final -168.38 input  -65.29 | X-H torsion
[ 10718 10713 10712 10709 ] final  -75.16 input   66.30 | X-H torsion
[ 10763 10752 10751 10750 ] final  163.99 input  -60.55 | X-H torsion
[ 11005 11000 10999 10996 ] final  -24.50 input  -57.11 | X-H torsion

> <Gold.Protein.ActiveResidues>
 VAL166  LYS551  ARG553  GLY616  TRP617  ASP618  TYR619  PRO620  LYS621  CYS622 
 ASP623  PHE694  ASN695  SER759  ASP760  ASP761  ALA762  ILE779  LEU786  VAL792 
 PHE793  MET794  SER795  GLU796  ALA797  LYS798  CYS799  TRP800  GLU811  SER814 

> <Gold.Protein.RotatedAtoms>
  151.1139  135.0042  159.8506 H   0  0  0  0  0  0  0  0  0  0  0  0  # atno 6907 bound_to 6896
  152.5444  134.1803  159.8643 H   0  0  0  0  0  0  0  0  0  0  0  0  # atno 6908 bound_to 6896
  151.1856  133.4654  159.2627 H   0  0  0  0  0  0  0  0  0  0  0  0  # atno 6909 bound_to 6896
  144.7918  140.4956  143.5767 H   0  0  0  0  0  0  0  0  0  0  0  0  # atno 7974 bound_to 7965
  155.5194  140.3479  155.4404 H   0  0  0  0  0  0  0  0  0  0  0  0  # atno 8008 bound_to 7997
  156.0795  140.1383  156.9757 H   0  0  0  0  0  0  0  0  0  0  0  0  # atno 8009 bound_to 7997
  154.4571  140.0949  156.6766 H   0  0  0  0  0  0  0  0  0  0  0  0  # atno 8010 bound_to 7997
  139.5989  144.1053  152.1721 H   0  0  0  0  0  0  0  0  0  0  0  0  # atno 10167 bound_to 10162
  156.0217  130.4434  150.3001 H   0  0  0  0  0  0  0  0  0  0  0  0  # atno 10718 bound_to 10713
  154.3021  135.2759  155.2606 H   0  0  0  0  0  0  0  0  0  0  0  0  # atno 10763 bound_to 10752
  154.5038  135.5801  153.6555 H   0  0  0  0  0  0  0  0  0  0  0  0  # atno 10764 bound_to 10752
  152.9899  135.6164  154.3193 H   0  0  0  0  0  0  0  0  0  0  0  0  # atno 10765 bound_to 10752
  140.8851  133.7627  156.0350 H   0  0  0  0  0  0  0  0  0  0  0  0  # atno 11005 bound_to 11000
  145.5774  139.1487  143.3254 LP  0  0  0  0  0  0  0  0  0  0  0  0  # atno 17320 bound_to 7965
  146.2173  140.5905  142.9033 LP  0  0  0  0  0  0  0  0  0  0  0  0  # atno 17321 bound_to 7965
  140.0644  144.5830  150.7238 LP  0  0  0  0  0  0  0  0  0  0  0  0  # atno 17342 bound_to 10162
  140.7234  143.2611  151.4202 LP  0  0  0  0  0  0  0  0  0  0  0  0  # atno 17343 bound_to 10162
  157.1104  131.0220  151.3050 LP  0  0  0  0  0  0  0  0  0  0  0  0  # atno 17370 bound_to 10713
  157.4709  130.7708  149.7323 LP  0  0  0  0  0  0  0  0  0  0  0  0  # atno 17371 bound_to 10713
  140.8415  134.3061  157.5311 LP  0  0  0  0  0  0  0  0  0  0  0  0  # atno 17394 bound_to 11000
  139.8723  134.9418  156.3808 LP  0  0  0  0  0  0  0  0  0  0  0  0  # atno 17395 bound_to 11000

$$$$
