AV-unprocessed.smi:21|AV-procd|sdf|161|dock9
  -GOLD-   2262015403D 1   1.00000     0.00000
 Structure written by MMmdl.
 61 64  0  0  0  0  0  0  0  0  1 V2000
  152.1788  144.3720  158.7594 C   0  0  0  0  0  0  0  0  0  0  0  0
  151.4751  143.7810  157.6786 O   0  0  0  0  0  0  0  0  0  0  0  0
  150.7524  142.6131  158.0440 C   0  0  1  0  0  0  0  0  0  0  0  0
  150.1085  141.9304  156.8241 C   0  0  0  0  0  0  0  0  0  0  0  0
  150.5451  140.4659  156.9437 C   0  0  1  0  0  0  0  0  0  0  0  0
  150.4979  139.6974  155.6056 C   0  0  0  0  0  0  0  0  0  0  0  0
  149.3733  138.7647  155.5207 N   0  0  0  0  0  0  0  0  0  0  0  0
  148.0305  139.3304  155.4037 C   0  0  0  0  0  0  0  0  0  0  0  0
  149.5031  137.5913  156.1975 C   0  0  0  0  0  0  0  0  0  0  0  0
  150.7474  137.1168  156.4786 N   0  0  0  0  0  0  0  0  0  0  0  0
  150.9046  135.9634  157.1338 C   0  0  0  0  0  0  0  0  0  0  0  0
  149.9693  135.1355  157.6002 N   0  0  0  0  0  0  0  0  0  0  0  0
  148.7180  135.6080  157.3371 C   0  0  0  0  0  0  0  0  0  0  0  0
  148.3964  136.8124  156.6475 C   0  0  0  0  0  0  0  0  0  0  0  0
  147.0153  136.9563  156.5813 N   0  0  0  0  0  0  0  0  0  0  0  0
  146.5487  135.8957  157.1803 C   0  0  0  0  0  0  0  0  0  0  0  0
  147.5035  135.0416  157.6825 N   0  0  0  0  0  0  0  0  0  0  0  0
  147.2683  133.7946  158.3882 C   0  0  0  0  0  0  0  0  0  0  0  0
  147.8018  133.7656  159.8446 C   0  0  2  0  0  0  0  0  0  0  0  0
  147.6609  132.3334  160.4101 C   0  0  0  0  0  0  0  0  0  0  0  0
  148.3392  131.3861  159.6100 O   0  0  0  0  0  0  0  0  0  0  0  0
  147.1755  134.8428  160.7779 C   0  0  1  0  0  0  0  0  0  0  0  0
  147.5921  134.7412  162.2371 C   0  0  0  0  0  0  0  0  0  0  0  0
  147.2327  136.1198  162.7697 C   0  0  0  0  0  0  0  0  0  0  0  0
  147.5800  137.0027  161.7150 O   0  0  0  0  0  0  0  0  0  0  0  0
  147.5659  136.2996  160.4755 C   0  0  0  0  0  0  0  0  0  0  0  0
  151.8635  140.5439  157.5492 N   0  0  0  0  0  0  0  0  0  0  0  0
  152.3503  139.2761  158.0757 C   0  0  0  0  0  0  0  0  0  0  0  0
  151.7215  141.5524  158.5842 C   0  0  0  0  0  0  0  0  0  0  0  0
  150.0104  142.8453  158.8099 H   0  0  0  0  0  0  0  0  0  0  0  0
  149.8768  139.9803  157.6559 H   0  0  0  0  0  0  0  0  0  0  0  0
  152.7138  145.2534  158.4064 H   0  0  0  0  0  0  0  0  0  0  0  0
  152.9118  143.6807  159.1769 H   0  0  0  0  0  0  0  0  0  0  0  0
  151.5040  144.6880  159.5555 H   0  0  0  0  0  0  0  0  0  0  0  0
  149.0243  142.0435  156.8025 H   0  0  0  0  0  0  0  0  0  0  0  0
  150.5078  142.3628  155.9072 H   0  0  0  0  0  0  0  0  0  0  0  0
  150.5027  140.4062  154.7782 H   0  0  0  0  0  0  0  0  0  0  0  0
  151.4094  139.1110  155.4895 H   0  0  0  0  0  0  0  0  0  0  0  0
  147.3131  138.5701  155.0926 H   0  0  0  0  0  0  0  0  0  0  0  0
  147.9996  140.1267  154.6613 H   0  0  0  0  0  0  0  0  0  0  0  0
  147.7037  139.7466  156.3573 H   0  0  0  0  0  0  0  0  0  0  0  0
  151.9265  135.6616  157.3105 H   0  0  0  0  0  0  0  0  0  0  0  0
  145.4885  135.7152  157.2847 H   0  0  0  0  0  0  0  0  0  0  0  0
  146.1974  133.5884  158.3751 H   0  0  0  0  0  0  0  0  0  0  0  0
  147.7387  133.0027  157.8040 H   0  0  0  0  0  0  0  0  0  0  0  0
  148.8742  133.9591  159.8053 H   0  0  0  0  0  0  0  0  0  0  0  0
  148.0625  132.2838  161.4227 H   0  0  0  0  0  0  0  0  0  0  0  0
  146.6134  132.0426  160.4883 H   0  0  0  0  0  0  0  0  0  0  0  0
  148.4927  130.6103  160.1270 H   0  0  0  0  0  0  0  0  0  0  0  0
  146.0880  134.7636  160.7369 H   0  0  0  0  0  0  0  0  0  0  0  0
  147.0813  133.9429  162.7765 H   0  0  0  0  0  0  0  0  0  0  0  0
  148.6677  134.5786  162.3194 H   0  0  0  0  0  0  0  0  0  0  0  0
  146.1602  136.1914  162.9550 H   0  0  0  0  0  0  0  0  0  0  0  0
  147.7578  136.3678  163.6921 H   0  0  0  0  0  0  0  0  0  0  0  0
  148.5644  136.3637  160.0421 H   0  0  0  0  0  0  0  0  0  0  0  0
  146.8678  136.7753  159.7880 H   0  0  0  0  0  0  0  0  0  0  0  0
  153.3110  139.4123  158.5732 H   0  0  0  0  0  0  0  0  0  0  0  0
  152.4957  138.5509  157.2754 H   0  0  0  0  0  0  0  0  0  0  0  0
  151.6516  138.8522  158.7980 H   0  0  0  0  0  0  0  0  0  0  0  0
  152.6880  141.9713  158.8669 H   0  0  0  0  0  0  0  0  0  0  0  0
  151.2864  141.1049  159.4796 H   0  0  0  0  0  0  0  0  0  0  0  0
  1  2  1  0  0  0  0
  1 32  1  0  0  0  0
  1 33  1  0  0  0  0
  1 34  1  0  0  0  0
  2  3  1  0  0  0  0
  3 30  1  0  0  0  0
  3 29  1  0  0  0  0
  3  4  1  0  0  0  0
  4  5  1  0  0  0  0
  4 35  1  0  0  0  0
  4 36  1  0  0  0  0
  5 31  1  0  0  0  0
  5  6  1  0  0  0  0
  5 27  1  0  0  0  0
  6  7  1  0  0  0  0
  6 37  1  0  0  0  0
  6 38  1  0  0  0  0
  7  8  1  0  0  0  0
  7  9  1  0  0  0  0
  8 39  1  0  0  0  0
  8 40  1  0  0  0  0
  8 41  1  0  0  0  0
  9 14  1  0  0  0  0
  9 10  2  0  0  0  0
 10 11  1  0  0  0  0
 11 12  2  0  0  0  0
 11 42  1  0  0  0  0
 12 13  1  0  0  0  0
 13 17  1  0  0  0  0
 13 14  2  0  0  0  0
 14 15  1  0  0  0  0
 15 16  2  0  0  0  0
 16 17  1  0  0  0  0
 16 43  1  0  0  0  0
 17 18  1  0  0  0  0
 18 19  1  0  0  0  0
 18 44  1  0  0  0  0
 18 45  1  0  0  0  0
 19 20  1  0  0  0  0
 19 22  1  0  0  0  0
 19 46  1  0  0  0  0
 20 21  1  0  0  0  0
 20 47  1  0  0  0  0
 20 48  1  0  0  0  0
 21 49  1  0  0  0  0
 22 26  1  0  0  0  0
 22 23  1  0  0  0  0
 22 50  1  0  0  0  0
 23 24  1  0  0  0  0
 23 51  1  0  0  0  0
 23 52  1  0  0  0  0
 24 25  1  0  0  0  0
 24 53  1  0  0  0  0
 24 54  1  0  0  0  0
 25 26  1  0  0  0  0
 26 55  1  0  0  0  0
 26 56  1  0  0  0  0
 27 28  1  0  0  0  0
 27 29  1  0  0  0  0
 28 57  1  0  0  0  0
 28 58  1  0  0  0  0
 28 59  1  0  0  0  0
 29 60  1  0  0  0  0
 29 61  1  0  0  0  0
M  END
> <s_m_source_file>
AV-unprocessed.smi

> <i_m_source_file_index>
21

> <i_lp_mmshare_version>
43012

> <i_f3d_flags>
0

> <s_epik_input>
W0NIM11PW0NASF0xW0NIMl1bQ0BIXShOKFtDSDNdKVtDSDJdMSlbQ0gyXU4oW0NIM10pYyhuW2NIXW4yKWMoYzIzKW5bY0hdbjNbQ0gyXVtDQEhdKFtDSDJdW09IXSlbQ0BASF00W0NIMl1bQ0gyXU9bQ0gyXTQ=

> <s_epik_cmdline>
J2VwaWtfcHl0aG9uJywgJy1waCcsICc3LjAnLCAnLXRuJywgJzgnLCAnLW1hJywgJzIwMCcsICctbWV0YWxfYmluZGluZycsICctaW1hZScsICc8aW5maWxlLm1hZT4nLCAnLW9tYWUnLCAnPG91dGZpbGUubWFlPic=

> <r_lp_tautomer_probability>
1

> <r_epik_Ionization_Penalty>
2.17574

> <r_epik_Ionization_Penalty_Charging>
0

> <r_epik_Ionization_Penalty_Neutral>
2.17574

> <r_epik_State_Penalty>
2.31336

> <r_epik_Charging_Adjusted_Penalty>
2.31336

> <i_epik_Tot_Q>
0

> <i_epik_Tot_abs_Q>
0

> <r_epik_Metal_State_Penalty>
2.31025

> <b_epik_Metal_Only>
0

> <s_lp_Force_Field>
OPLS_2005

> <r_lp_Energy>
70.1796

> <b_lp_Chiralities_Consistent>
1

> <s_lp_Variant>
AV-unprocessed.smi:21-41

> <Gold.Version>
5.8.1

> <Gold.Id.Protein>
6NUR|6NUR_protein|mol2

> <Gold.PLP.Fitness>
43.7283

> <Gold.PLP.PLP>
-37.7026

> <Gold.PLP.part.hbond>
-3.0000

> <Gold.PLP.part.metal>
0.0000

> <Gold.PLP.part.buried>
-4.9874

> <Gold.PLP.part.nonpolar>
-30.0082

> <Gold.PLP.part.repulsive>
0.1284

> <Gold.PLP.ligand.clash>
0.0000

> <Gold.PLP.ligand.torsion>
1.0999

> <Gold.PLP.Chemscore.Hbond>
2.4720

> <Gold.PLP.Chemscore.CHOScore>
0.0000

> <Gold.PLP.Chemscore.Metal>
0.0000

> <Gold.Chemscore.Hbonds>
donor molecule, donor type, donor heavy atom, donor atom, acceptor molecule, acceptor atom, score
      P1  H  6896  6907       L1    12  0.69
      P1  H  6931  6943       L1    25  1.00
      P1  H  6934  6947       L1    25  0.44

> <Gold.PLP.Chemscore.Internal.Correction>
0.8096

> <Gold.Rescore>
     Score         DG    S(hbond)    S(metal)    S(lipo)     H(rot)  DE(clash)    DE(int)     intcor
     12.15     -14.71       1.57        0.00      99.71       3.00       0.13       2.43       ----

> <Gold.Chemscore.Fitness>
12.1523

> <Gold.Chemscore.DG>
-14.7113

> <Gold.Chemscore.ZeroCoef>
-5.4800

> <Gold.Chemscore.Hbond>
1.5729

> <Gold.Chemscore.Metal>
0.0000

> <Gold.Chemscore.Lipo>
99.7061

> <Gold.Chemscore.Internal_Hbond>
0.0000

> <Gold.Chemscore.DEClash>
0.1258

> <Gold.Chemscore.DEInternal>
2.4331

> <Gold.Chemscore.Rot>
3.0031

> <Gold.Chemscore.Internal.Correction>
   9.000000E+99

> <Gold.Chemscore.Hbonds>
donor molecule, donor type, donor heavy atom, donor atom, acceptor molecule, acceptor atom, score
      P1  H  6896  6907       L1    12  0.39
      P1  H  6931  6943       L1    25  0.86
      P1  H  6934  6947       L1    25  0.10

> <Gold.Chemscore.Hbond.Weighted>
-5.2536

> <Gold.Chemscore.Metal.Weighted>
-0.0000

> <Gold.Chemscore.Lipo.Weighted>
-11.6656

> <Gold.Chemscore.Internal_Hbond.Weighted>
0.0000

> <Gold.Chemscore.DEClash.Weighted>
0.1258

> <Gold.Chemscore.DEInternal.Weighted>
2.4331

> <Gold.Chemscore.Rot.Weighted>
7.6880

> <Gold.Chemscore.Internal.Correction.Weighted>
   9.000000E+99

> <Gold.Protein.RotatedTorsions>
[ 6907 6896 6895 6894 ] final  -84.16 input  -60.11 | X-H torsion
[ 7974 7965 7964 7962 ] final -116.06 input  175.53 | X-H torsion
[ 8008 7997 7996 7995 ] final  173.85 input   59.86 | X-H torsion
[ 10167 10162 10161 10158 ] final   78.31 input  -65.29 | X-H torsion
[ 10718 10713 10712 10709 ] final  -99.85 input   66.30 | X-H torsion
[ 10763 10752 10751 10750 ] final -162.10 input  -60.55 | X-H torsion
[ 11005 11000 10999 10996 ] final  168.84 input  -57.11 | X-H torsion

> <Gold.Protein.ActiveResidues>
 VAL166  LYS551  ARG553  GLY616  TRP617  ASP618  TYR619  PRO620  LYS621  CYS622 
 ASP623  PHE694  ASN695  SER759  ASP760  ASP761  ALA762  ILE779  LEU786  VAL792 
 PHE793  MET794  SER795  GLU796  ALA797  LYS798  CYS799  TRP800  GLU811  SER814 

> <Gold.Protein.RotatedAtoms>
  150.6879  134.3402  159.4864 H   0  0  0  0  0  0  0  0  0  0  0  0  # atno 6907 bound_to 6896
  152.1256  134.9171  160.0570 H   0  0  0  0  0  0  0  0  0  0  0  0  # atno 6908 bound_to 6896
  152.0360  133.3922  159.4354 H   0  0  0  0  0  0  0  0  0  0  0  0  # atno 6909 bound_to 6896
  145.1011  140.8553  143.3925 H   0  0  0  0  0  0  0  0  0  0  0  0  # atno 7974 bound_to 7965
  156.1034  140.1449  156.9437 H   0  0  0  0  0  0  0  0  0  0  0  0  # atno 8008 bound_to 7997
  154.4717  140.0907  156.7206 H   0  0  0  0  0  0  0  0  0  0  0  0  # atno 8009 bound_to 7997
  155.4722  140.3442  155.4329 H   0  0  0  0  0  0  0  0  0  0  0  0  # atno 8010 bound_to 7997
  139.9723  144.5886  150.7974 H   0  0  0  0  0  0  0  0  0  0  0  0  # atno 10167 bound_to 10162
  156.0146  130.5301  150.6731 H   0  0  0  0  0  0  0  0  0  0  0  0  # atno 10718 bound_to 10713
  154.7244  135.3033  154.8994 H   0  0  0  0  0  0  0  0  0  0  0  0  # atno 10763 bound_to 10752
  153.9856  135.6725  153.4756 H   0  0  0  0  0  0  0  0  0  0  0  0  # atno 10764 bound_to 10752
  153.0862  135.4983  154.8520 H   0  0  0  0  0  0  0  0  0  0  0  0  # atno 10765 bound_to 10752
  140.2915  134.7669  157.3842 H   0  0  0  0  0  0  0  0  0  0  0  0  # atno 11005 bound_to 11000
  145.0954  139.2860  143.5713 LP  0  0  0  0  0  0  0  0  0  0  0  0  # atno 17320 bound_to 7965
  146.3529  140.0504  142.8636 LP  0  0  0  0  0  0  0  0  0  0  0  0  # atno 17321 bound_to 7965
  140.7518  143.2978  151.3158 LP  0  0  0  0  0  0  0  0  0  0  0  0  # atno 17342 bound_to 10162
  139.6472  144.0429  152.2599 LP  0  0  0  0  0  0  0  0  0  0  0  0  # atno 17343 bound_to 10162
  157.4450  131.0866  151.0905 LP  0  0  0  0  0  0  0  0  0  0  0  0  # atno 17370 bound_to 10713
  157.1438  130.6154  149.5562 LP  0  0  0  0  0  0  0  0  0  0  0  0  # atno 17371 bound_to 10713
  140.1191  134.5243  155.8199 LP  0  0  0  0  0  0  0  0  0  0  0  0  # atno 17394 bound_to 11000
  141.2145  133.6750  156.6832 LP  0  0  0  0  0  0  0  0  0  0  0  0  # atno 17395 bound_to 11000

$$$$
