AV-unprocessed.smi:1136|AV-procd|sdf|4862|dock4
  -GOLD-   22720 3433D 1   1.00000     0.00000
 Structure written by MMmdl.
 42 43  0  0  0  0  0  0  0  0  1 V2000
  151.3920  143.4774  157.9040 C   0  0  0  0  0  0  0  0  0  0  0  0
  151.2163  142.0517  157.4716 C   0  0  0  0  0  0  0  0  0  0  0  0
  150.9607  141.5507  156.1645 C   0  0  0  0  0  0  0  0  0  0  0  0
  150.8897  140.1961  156.3297 C   0  0  0  0  0  0  0  0  0  0  0  0
  150.6421  139.1151  155.3293 C   0  0  0  0  0  0  0  0  0  0  0  0
  151.0956  139.9445  157.6750 N   0  0  0  0  0  0  0  0  0  0  0  0
  151.1148  138.6704  158.3805 C   0  0  0  0  0  0  0  0  0  0  0  0
  149.7277  138.0232  158.4451 C   0  0  0  0  0  0  0  0  0  0  0  0
  148.7931  138.5162  157.8141 O   0  0  0  0  0  0  0  0  0  0  0  0
  149.6067  136.9179  159.1982 N   0  0  0  0  0  0  0  0  0  0  0  0
  148.3792  136.1479  159.3839 C   0  0  0  0  0  0  0  0  0  0  0  0
  147.8653  136.1540  160.8361 C   0  0  0  0  0  0  0  0  0  0  0  0
  147.6760  137.2330  161.4014 O   0  0  0  0  0  0  0  0  0  0  0  0
  147.6238  134.9686  161.4478 N   0  0  0  0  0  0  0  0  0  0  0  0
  147.7661  133.6435  160.8282 C   0  0  0  0  0  0  0  0  0  0  0  0
  146.3631  133.0527  160.5989 C   0  0  0  0  0  0  0  0  0  0  0  0
  145.5702  132.9921  161.9187 C   0  0  0  0  0  0  0  0  0  0  0  0
  145.5965  134.3415  162.6623 C   0  0  0  0  0  0  0  0  0  0  0  0
  147.0359  134.8743  162.7905 C   0  0  0  0  0  0  0  0  0  0  0  0
  151.2960  141.0852  158.3711 N   0  0  0  0  0  0  0  0  0  0  0  0
  151.3896  144.1524  157.0479 H   0  0  0  0  0  0  0  0  0  0  0  0
  152.3365  143.6152  158.4311 H   0  0  0  0  0  0  0  0  0  0  0  0
  150.5881  143.7860  158.5725 H   0  0  0  0  0  0  0  0  0  0  0  0
  150.8462  142.1038  155.2439 H   0  0  0  0  0  0  0  0  0  0  0  0
  150.4659  139.5346  154.3387 H   0  0  0  0  0  0  0  0  0  0  0  0
  149.7672  138.5243  155.6010 H   0  0  0  0  0  0  0  0  0  0  0  0
  151.4985  138.4441  155.2626 H   0  0  0  0  0  0  0  0  0  0  0  0
  151.8159  138.0029  157.8780 H   0  0  0  0  0  0  0  0  0  0  0  0
  151.4898  138.8190  159.3945 H   0  0  0  0  0  0  0  0  0  0  0  0
  150.4312  136.5814  159.6746 H   0  0  0  0  0  0  0  0  0  0  0  0
  147.6201  136.5878  158.7368 H   0  0  0  0  0  0  0  0  0  0  0  0
  148.5300  135.1199  159.0502 H   0  0  0  0  0  0  0  0  0  0  0  0
  148.3226  133.6515  159.8927 H   0  0  0  0  0  0  0  0  0  0  0  0
  148.3369  132.9966  161.4959 H   0  0  0  0  0  0  0  0  0  0  0  0
  145.8240  133.6656  159.8749 H   0  0  0  0  0  0  0  0  0  0  0  0
  146.4414  132.0558  160.1647 H   0  0  0  0  0  0  0  0  0  0  0  0
  144.5414  132.6859  161.7275 H   0  0  0  0  0  0  0  0  0  0  0  0
  146.0059  132.2247  162.5597 H   0  0  0  0  0  0  0  0  0  0  0  0
  144.9882  135.0680  162.1217 H   0  0  0  0  0  0  0  0  0  0  0  0
  145.1457  134.2333  163.6491 H   0  0  0  0  0  0  0  0  0  0  0  0
  147.6346  134.1979  163.4021 H   0  0  0  0  0  0  0  0  0  0  0  0
  147.0325  135.8273  163.3211 H   0  0  0  0  0  0  0  0  0  0  0  0
  1  2  1  0  0  0  0
  1 21  1  0  0  0  0
  1 22  1  0  0  0  0
  1 23  1  0  0  0  0
  2 20  2  0  0  0  0
  2  3  1  0  0  0  0
  3  4  2  0  0  0  0
  3 24  1  0  0  0  0
  4  5  1  0  0  0  0
  4  6  1  0  0  0  0
  5 25  1  0  0  0  0
  5 26  1  0  0  0  0
  5 27  1  0  0  0  0
  6  7  1  0  0  0  0
  6 20  1  0  0  0  0
  7  8  1  0  0  0  0
  7 28  1  0  0  0  0
  7 29  1  0  0  0  0
  8  9  2  0  0  0  0
  8 10  1  0  0  0  0
 10 11  1  0  0  0  0
 10 30  1  0  0  0  0
 11 12  1  0  0  0  0
 11 31  1  0  0  0  0
 11 32  1  0  0  0  0
 12 13  2  0  0  0  0
 12 14  1  0  0  0  0
 14 19  1  0  0  0  0
 14 15  1  0  0  0  0
 15 16  1  0  0  0  0
 15 33  1  0  0  0  0
 15 34  1  0  0  0  0
 16 17  1  0  0  0  0
 16 35  1  0  0  0  0
 16 36  1  0  0  0  0
 17 18  1  0  0  0  0
 17 37  1  0  0  0  0
 17 38  1  0  0  0  0
 18 19  1  0  0  0  0
 18 39  1  0  0  0  0
 18 40  1  0  0  0  0
 19 41  1  0  0  0  0
 19 42  1  0  0  0  0
M  END
> <s_m_source_file>
AV-unprocessed.smi

> <i_m_source_file_index>
1136

> <i_lp_mmshare_version>
43012

> <i_f3d_flags>
0

> <s_epik_input>
W0NIM11jMVtjSF1jKFtDSDNdKW4objEpW0NIMl1DKD1PKVtOSF1bQ0gyXUMoPU8pTjJbQ0gyXVtDSDJdW0NIMl1bQ0gyXVtDSDJdMg==

> <s_epik_cmdline>
J2VwaWtfcHl0aG9uJywgJy1waCcsICc3LjAnLCAnLXRuJywgJzgnLCAnLW1hJywgJzIwMCcsICctbWV0YWxfYmluZGluZycsICctaW1hZScsICc8aW5maWxlLm1hZT4nLCAnLW9tYWUnLCAnPG91dGZpbGUubWFlPic=

> <r_lp_tautomer_probability>
1

> <r_epik_Ionization_Penalty>
0.000263643

> <r_epik_Ionization_Penalty_Charging>
0

> <r_epik_Ionization_Penalty_Neutral>
0.000263643

> <r_epik_State_Penalty>
-0

> <r_epik_Charging_Adjusted_Penalty>
0

> <i_epik_Tot_Q>
0

> <i_epik_Tot_abs_Q>
0

> <r_epik_Metal_State_Penalty>
-0

> <b_epik_Metal_Only>
0

> <s_lp_Force_Field>
OPLS_2005

> <r_lp_Energy>
19.7074

> <b_lp_Chiralities_Consistent>
1

> <s_lp_Variant>
AV-unprocessed.smi:1136-1

> <Gold.Version>
5.8.1

> <Gold.Id.Protein>
6NUR|6NUR_protein|mol2

> <Gold.PLP.Fitness>
41.9031

> <Gold.PLP.PLP>
-36.8237

> <Gold.PLP.part.hbond>
-2.0000

> <Gold.PLP.part.metal>
0.0000

> <Gold.PLP.part.buried>
-5.2183

> <Gold.PLP.part.nonpolar>
-29.5965

> <Gold.PLP.part.repulsive>
0.2049

> <Gold.PLP.ligand.clash>
0.0000

> <Gold.PLP.ligand.torsion>
0.1847

> <Gold.PLP.Chemscore.Hbond>
1.8080

> <Gold.PLP.Chemscore.CHOScore>
0.0000

> <Gold.PLP.Chemscore.Metal>
0.0000

> <Gold.Chemscore.Hbonds>
donor molecule, donor type, donor heavy atom, donor atom, acceptor molecule, acceptor atom, score
      P1  H  6931  6943       L1    13  0.96
      P1  H  6934  6947       L1    13  0.80

> <Gold.PLP.Chemscore.Internal.Correction>
0.0248

> <Gold.Rescore>
     Score         DG    S(hbond)    S(metal)    S(lipo)     H(rot)  DE(clash)    DE(int)     intcor
     16.53     -16.84       1.71        0.00      83.70       1.61       0.10       0.22       ----

> <Gold.Chemscore.Fitness>
16.5252

> <Gold.Chemscore.DG>
-16.8402

> <Gold.Chemscore.ZeroCoef>
-5.4800

> <Gold.Chemscore.Hbond>
1.7060

> <Gold.Chemscore.Metal>
0.0000

> <Gold.Chemscore.Lipo>
83.6959

> <Gold.Chemscore.Internal_Hbond>
0.0000

> <Gold.Chemscore.DEClash>
0.0975

> <Gold.Chemscore.DEInternal>
0.2174

> <Gold.Chemscore.Rot>
1.6134

> <Gold.Chemscore.Internal.Correction>
   9.000000E+99

> <Gold.Chemscore.Hbonds>
donor molecule, donor type, donor heavy atom, donor atom, acceptor molecule, acceptor atom, score
      P1  H  6931  6943       L1    13  0.91
      P1  H  6934  6947       L1    13  0.79

> <Gold.Chemscore.Hbond.Weighted>
-5.6981

> <Gold.Chemscore.Metal.Weighted>
-0.0000

> <Gold.Chemscore.Lipo.Weighted>
-9.7924

> <Gold.Chemscore.Internal_Hbond.Weighted>
0.0000

> <Gold.Chemscore.DEClash.Weighted>
0.0975

> <Gold.Chemscore.DEInternal.Weighted>
0.2174

> <Gold.Chemscore.Rot.Weighted>
4.1303

> <Gold.Chemscore.Internal.Correction.Weighted>
   9.000000E+99

> <Gold.Protein.RotatedTorsions>
[ 6907 6896 6895 6894 ] final  -44.32 input  -60.11 | X-H torsion
[ 7974 7965 7964 7962 ] final -114.92 input  175.53 | X-H torsion
[ 8008 7997 7996 7995 ] final  -90.44 input   59.86 | X-H torsion
[ 10167 10162 10161 10158 ] final   -0.41 input  -65.29 | X-H torsion
[ 10718 10713 10712 10709 ] final  140.43 input   66.30 | X-H torsion
[ 10763 10752 10751 10750 ] final   92.80 input  -60.55 | X-H torsion
[ 11005 11000 10999 10996 ] final  -39.57 input  -57.11 | X-H torsion

> <Gold.Protein.ActiveResidues>
 VAL166  LYS551  ARG553  GLY616  TRP617  ASP618  TYR619  PRO620  LYS621  CYS622 
 ASP623  PHE694  ASN695  SER759  ASP760  ASP761  ALA762  ILE779  LEU786  VAL792 
 PHE793  MET794  SER795  GLU796  ALA797  LYS798  CYS799  TRP800  GLU811  SER814 

> <Gold.Protein.RotatedAtoms>
  150.9341  134.8755  159.7570 H   0  0  0  0  0  0  0  0  0  0  0  0  # atno 6907 bound_to 6896
  152.5051  134.4036  159.9435 H   0  0  0  0  0  0  0  0  0  0  0  0  # atno 6908 bound_to 6896
  151.4061  133.3702  159.2773 H   0  0  0  0  0  0  0  0  0  0  0  0  # atno 6909 bound_to 6896
  145.1145  140.8631  143.3850 H   0  0  0  0  0  0  0  0  0  0  0  0  # atno 7974 bound_to 7965
  154.6987  140.0530  157.0436 H   0  0  0  0  0  0  0  0  0  0  0  0  # atno 8008 bound_to 7997
  155.0715  140.3200  155.4610 H   0  0  0  0  0  0  0  0  0  0  0  0  # atno 8009 bound_to 7997
  156.2752  140.2081  156.5843 H   0  0  0  0  0  0  0  0  0  0  0  0  # atno 8010 bound_to 7997
  140.6766  143.6897  150.8037 H   0  0  0  0  0  0  0  0  0  0  0  0  # atno 10167 bound_to 10162
  157.4034  131.1019  151.0528 H   0  0  0  0  0  0  0  0  0  0  0  0  # atno 10718 bound_to 10713
  153.2231  135.4348  155.0512 H   0  0  0  0  0  0  0  0  0  0  0  0  # atno 10763 bound_to 10752
  154.8260  135.3361  154.6897 H   0  0  0  0  0  0  0  0  0  0  0  0  # atno 10764 bound_to 10752
  153.7328  135.7010  153.5041 H   0  0  0  0  0  0  0  0  0  0  0  0  # atno 10765 bound_to 10752
  141.0112  133.6907  156.2205 H   0  0  0  0  0  0  0  0  0  0  0  0  # atno 11005 bound_to 11000
  145.0810  139.2960  143.5783 LP  0  0  0  0  0  0  0  0  0  0  0  0  # atno 17320 bound_to 7965
  146.3524  140.0316  142.8650 LP  0  0  0  0  0  0  0  0  0  0  0  0  # atno 17321 bound_to 7965
  140.0591  143.5172  152.2636 LP  0  0  0  0  0  0  0  0  0  0  0  0  # atno 17342 bound_to 10162
  139.6062  144.7597  151.3056 LP  0  0  0  0  0  0  0  0  0  0  0  0  # atno 17343 bound_to 10162
  157.1519  130.6188  149.5585 LP  0  0  0  0  0  0  0  0  0  0  0  0  # atno 17370 bound_to 10713
  155.9829  130.4846  150.6908 LP  0  0  0  0  0  0  0  0  0  0  0  0  # atno 17371 bound_to 10713
  140.6731  134.4847  157.5587 LP  0  0  0  0  0  0  0  0  0  0  0  0  # atno 17394 bound_to 11000
  139.9091  134.8384  156.1595 LP  0  0  0  0  0  0  0  0  0  0  0  0  # atno 17395 bound_to 11000

$$$$
