AV-unprocessed.smi:234|AV-procd|sdf|1789|dock10
  -GOLD-   2262020343D 1   1.00000     0.00000
 Structure written by MMmdl.
 59 62  0  0  0  0  0  0  0  0  1 V2000
  151.6629  143.4323  160.9806 C   0  0  0  0  0  0  0  0  0  0  0  0
  152.4912  142.3451  160.2822 C   0  0  0  0  0  0  0  0  0  0  0  0
  151.6541  141.3798  159.6644 O   0  0  0  0  0  0  0  0  0  0  0  0
  151.8163  141.2809  158.2523 C   0  0  2  0  0  0  0  0  0  0  0  0
  150.7643  142.1320  157.5403 C   0  0  0  0  0  0  0  0  0  0  0  0
  149.8590  140.8926  157.5887 C   0  0  1  0  0  0  0  0  0  0  0  0
  149.0394  140.6975  156.3875 N   0  0  0  0  0  0  0  0  0  0  0  0
  149.4839  141.3293  155.1493 C   0  0  0  0  0  0  0  0  0  0  0  0
  148.5098  139.4671  156.1703 C   0  0  0  0  0  0  0  0  0  0  0  0
  149.1719  138.3533  156.5835 N   0  0  0  0  0  0  0  0  0  0  0  0
  148.6569  137.1413  156.3582 C   0  0  0  0  0  0  0  0  0  0  0  0
  147.5150  136.8202  155.7470 N   0  0  0  0  0  0  0  0  0  0  0  0
  146.8487  137.9337  155.3268 C   0  0  0  0  0  0  0  0  0  0  0  0
  147.2740  139.2819  155.4911 C   0  0  0  0  0  0  0  0  0  0  0  0
  146.3387  140.1460  154.9348 N   0  0  0  0  0  0  0  0  0  0  0  0
  145.4115  139.3535  154.4703 C   0  0  0  0  0  0  0  0  0  0  0  0
  145.6334  138.0092  154.6691 N   0  0  0  0  0  0  0  0  0  0  0  0
  144.7645  136.9147  154.2650 C   0  0  0  0  0  0  0  0  0  0  0  0
  144.5920  136.8054  152.7314 C   0  0  2  0  0  0  0  0  0  0  0  0
  143.8096  137.9031  152.2878 O   0  0  0  0  0  0  0  0  0  0  0  0
  143.9247  135.5177  152.2718 C   0  0  0  0  0  0  0  0  0  0  0  0
  144.4062  135.3906  150.8321 C   0  0  0  0  0  0  0  0  0  0  0  0
  145.7376  135.8884  150.8479 O   0  0  0  0  0  0  0  0  0  0  0  0
  145.9345  136.7483  151.9698 C   0  0  1  0  0  0  0  0  0  0  0  0
  146.5354  138.0930  151.5303 C   0  0  0  0  0  0  0  0  0  0  0  0
  151.1439  140.0195  157.6536 C   0  0  0  0  0  0  0  0  0  0  0  0
  151.7621  139.5565  156.3239 C   0  0  0  0  0  0  0  0  0  0  0  0
  151.0976  138.7922  158.5678 C   0  0  0  0  0  0  0  0  0  0  0  0
  152.3116  144.1935  161.4138 H   0  0  0  0  0  0  0  0  0  0  0  0
  151.0533  143.0221  161.7854 H   0  0  0  0  0  0  0  0  0  0  0  0
  150.9950  143.9262  160.2746 H   0  0  0  0  0  0  0  0  0  0  0  0
  153.0982  142.8059  159.5029 H   0  0  0  0  0  0  0  0  0  0  0  0
  153.1849  141.8681  160.9761 H   0  0  0  0  0  0  0  0  0  0  0  0
  152.8310  141.4574  157.8907 H   0  0  0  0  0  0  0  0  0  0  0  0
  150.4028  142.9863  158.1134 H   0  0  0  0  0  0  0  0  0  0  0  0
  151.0634  142.4224  156.5316 H   0  0  0  0  0  0  0  0  0  0  0  0
  149.2883  140.8482  158.5183 H   0  0  0  0  0  0  0  0  0  0  0  0
  149.7397  140.5933  154.3851 H   0  0  0  0  0  0  0  0  0  0  0  0
  150.3668  141.9453  155.3150 H   0  0  0  0  0  0  0  0  0  0  0  0
  148.6964  141.9708  154.7541 H   0  0  0  0  0  0  0  0  0  0  0  0
  149.2446  136.3101  156.7188 H   0  0  0  0  0  0  0  0  0  0  0  0
  144.5287  139.7296  153.9738 H   0  0  0  0  0  0  0  0  0  0  0  0
  145.1704  135.9856  154.6671 H   0  0  0  0  0  0  0  0  0  0  0  0
  143.7958  137.0571  154.7459 H   0  0  0  0  0  0  0  0  0  0  0  0
  144.2200  138.2701  151.5197 H   0  0  0  0  0  0  0  0  0  0  0  0
  144.3025  134.6727  152.8487 H   0  0  0  0  0  0  0  0  0  0  0  0
  142.8377  135.5270  152.3636 H   0  0  0  0  0  0  0  0  0  0  0  0
  144.3661  134.3655  150.4637 H   0  0  0  0  0  0  0  0  0  0  0  0
  143.8033  136.0134  150.1700 H   0  0  0  0  0  0  0  0  0  0  0  0
  146.6676  136.2387  152.5967 H   0  0  0  0  0  0  0  0  0  0  0  0
  146.6817  138.7551  152.3837 H   0  0  0  0  0  0  0  0  0  0  0  0
  145.8966  138.6048  150.8101 H   0  0  0  0  0  0  0  0  0  0  0  0
  147.5056  137.9446  151.0563 H   0  0  0  0  0  0  0  0  0  0  0  0
  151.1909  138.7455  155.8716 H   0  0  0  0  0  0  0  0  0  0  0  0
  152.7806  139.1945  156.4661 H   0  0  0  0  0  0  0  0  0  0  0  0
  151.8095  140.3618  155.5906 H   0  0  0  0  0  0  0  0  0  0  0  0
  150.5919  137.9508  158.0941 H   0  0  0  0  0  0  0  0  0  0  0  0
  150.5664  139.0014  159.4965 H   0  0  0  0  0  0  0  0  0  0  0  0
  152.1007  138.4606  158.8372 H   0  0  0  0  0  0  0  0  0  0  0  0
  1  2  1  0  0  0  0
  1 29  1  0  0  0  0
  1 30  1  0  0  0  0
  1 31  1  0  0  0  0
  2  3  1  0  0  0  0
  2 32  1  0  0  0  0
  2 33  1  0  0  0  0
  3  4  1  0  0  0  0
  4 26  1  0  0  0  0
  4  5  1  0  0  0  0
  4 34  1  0  0  0  0
  5  6  1  0  0  0  0
  5 35  1  0  0  0  0
  5 36  1  0  0  0  0
  6  7  1  0  0  0  0
  6 26  1  0  0  0  0
  6 37  1  0  0  0  0
  7  8  1  0  0  0  0
  7  9  1  0  0  0  0
  8 38  1  0  0  0  0
  8 39  1  0  0  0  0
  8 40  1  0  0  0  0
  9 14  1  0  0  0  0
  9 10  2  0  0  0  0
 10 11  1  0  0  0  0
 11 12  2  0  0  0  0
 11 41  1  0  0  0  0
 12 13  1  0  0  0  0
 13 17  1  0  0  0  0
 13 14  2  0  0  0  0
 14 15  1  0  0  0  0
 15 16  2  0  0  0  0
 16 17  1  0  0  0  0
 16 42  1  0  0  0  0
 17 18  1  0  0  0  0
 18 19  1  0  0  0  0
 18 43  1  0  0  0  0
 18 44  1  0  0  0  0
 19 24  1  0  0  0  0
 19 20  1  0  0  0  0
 19 21  1  0  0  0  0
 20 45  1  0  0  0  0
 21 22  1  0  0  0  0
 21 46  1  0  0  0  0
 21 47  1  0  0  0  0
 22 23  1  0  0  0  0
 22 48  1  0  0  0  0
 22 49  1  0  0  0  0
 23 24  1  0  0  0  0
 24 25  1  0  0  0  0
 24 50  1  0  0  0  0
 25 51  1  0  0  0  0
 25 52  1  0  0  0  0
 25 53  1  0  0  0  0
 26 27  1  0  0  0  0
 26 28  1  0  0  0  0
 27 54  1  0  0  0  0
 27 55  1  0  0  0  0
 27 56  1  0  0  0  0
 28 57  1  0  0  0  0
 28 58  1  0  0  0  0
 28 59  1  0  0  0  0
M  END
> <s_m_source_file>
AV-unprocessed.smi

> <i_m_source_file_index>
234

> <i_lp_mmshare_version>
43012

> <i_f3d_flags>
0

> <s_epik_input>
W0NIM11bQ0gyXU9bQ0BASF0oQzEoW0NIM10pW0NIM10pW0NIMl1bQ0BIXTFOKFtDSDNdKWMobltjSF1uMiljKGMyMyluW2NIXW4zW0NIMl1bQ0BAXTQoW09IXSlbQ0gyXVtDSDJdT1tDQEhdNFtDSDNd

> <s_epik_cmdline>
J2VwaWtfcHl0aG9uJywgJy1waCcsICc3LjAnLCAnLXRuJywgJzgnLCAnLW1hJywgJzIwMCcsICctbWV0YWxfYmluZGluZycsICctaW1hZScsICc8aW5maWxlLm1hZT4nLCAnLW9tYWUnLCAnPG91dGZpbGUubWFlPic=

> <r_lp_tautomer_probability>
1

> <r_epik_Ionization_Penalty>
0.00349132

> <r_epik_Ionization_Penalty_Charging>
0

> <r_epik_Ionization_Penalty_Neutral>
0.00349132

> <r_epik_State_Penalty>
0.00242418

> <r_epik_Charging_Adjusted_Penalty>
0.00242418

> <i_epik_Tot_Q>
0

> <i_epik_Tot_abs_Q>
0

> <r_epik_Metal_State_Penalty>
-0

> <b_epik_Metal_Only>
0

> <s_lp_Force_Field>
OPLS_2005

> <r_lp_Energy>
49.8598

> <b_lp_Chiralities_Consistent>
1

> <s_lp_Variant>
AV-unprocessed.smi:234-5

> <Gold.Version>
5.8.1

> <Gold.Id.Protein>
6NUR|6NUR_protein|mol2

> <Gold.PLP.Fitness>
38.5110

> <Gold.PLP.PLP>
-34.7234

> <Gold.PLP.part.hbond>
-2.0000

> <Gold.PLP.part.metal>
0.0000

> <Gold.PLP.part.buried>
-3.2760

> <Gold.PLP.part.nonpolar>
-30.2677

> <Gold.PLP.part.repulsive>
0.4174

> <Gold.PLP.ligand.clash>
0.0000

> <Gold.PLP.ligand.torsion>
1.6236

> <Gold.PLP.Chemscore.Hbond>
0.9760

> <Gold.PLP.Chemscore.CHOScore>
1.0000

> <Gold.PLP.Chemscore.Metal>
0.0000

> <Gold.Chemscore.Hbonds>
donor molecule, donor type, donor heavy atom, donor atom, acceptor molecule, acceptor atom, score
      L1  H    20    45       P1 10171  0.80
      L1  C    16    42       P1 10175  0.60

> <Gold.PLP.Chemscore.Internal.Correction>
1.1069

> <Gold.Rescore>
     Score         DG    S(hbond)    S(metal)    S(lipo)     H(rot)  DE(clash)    DE(int)     intcor
      7.17     -13.93       0.99        0.00     101.22       2.62       1.17       5.60       ----

> <Gold.Chemscore.Fitness>
7.1653

> <Gold.Chemscore.DG>
-13.9318

> <Gold.Chemscore.ZeroCoef>
-5.4800

> <Gold.Chemscore.Hbond>
0.9942

> <Gold.Chemscore.Metal>
0.0000

> <Gold.Chemscore.Lipo>
101.2236

> <Gold.Chemscore.Internal_Hbond>
0.0000

> <Gold.Chemscore.DEClash>
1.1666

> <Gold.Chemscore.DEInternal>
5.5999

> <Gold.Chemscore.Rot>
2.6219

> <Gold.Chemscore.Internal.Correction>
   9.000000E+99

> <Gold.Chemscore.Hbonds>
donor molecule, donor type, donor heavy atom, donor atom, acceptor molecule, acceptor atom, score
      L1  H    20    45       P1 10171  0.80

> <Gold.Chemscore.Hbond.Weighted>
-3.3207

> <Gold.Chemscore.Metal.Weighted>
-0.0000

> <Gold.Chemscore.Lipo.Weighted>
-11.8432

> <Gold.Chemscore.Internal_Hbond.Weighted>
0.0000

> <Gold.Chemscore.DEClash.Weighted>
1.1666

> <Gold.Chemscore.DEInternal.Weighted>
5.5999

> <Gold.Chemscore.Rot.Weighted>
6.7121

> <Gold.Chemscore.Internal.Correction.Weighted>
   9.000000E+99

> <Gold.Protein.RotatedTorsions>
[ 6907 6896 6895 6894 ] final  104.51 input  -60.11 | X-H torsion
[ 7974 7965 7964 7962 ] final   75.44 input  175.53 | X-H torsion
[ 8008 7997 7996 7995 ] final -123.72 input   59.86 | X-H torsion
[ 10167 10162 10161 10158 ] final    8.26 input  -65.29 | X-H torsion
[ 10718 10713 10712 10709 ] final   32.48 input   66.30 | X-H torsion
[ 10763 10752 10751 10750 ] final   87.61 input  -60.55 | X-H torsion
[ 11005 11000 10999 10996 ] final    7.18 input  -57.11 | X-H torsion

> <Gold.Protein.ActiveResidues>
 VAL166  LYS551  ARG553  GLY616  TRP617  ASP618  TYR619  PRO620  LYS621  CYS622 
 ASP623  PHE694  ASN695  SER759  ASP760  ASP761  ALA762  ILE779  LEU786  VAL792 
 PHE793  MET794  SER795  GLU796  ALA797  LYS798  CYS799  TRP800  GLU811  SER814 

> <Gold.Protein.RotatedAtoms>
  152.5262  133.9665  159.7741 H   0  0  0  0  0  0  0  0  0  0  0  0  # atno 6907 bound_to 6896
  150.9946  133.6108  159.2710 H   0  0  0  0  0  0  0  0  0  0  0  0  # atno 6908 bound_to 6896
  151.3239  135.0831  159.9368 H   0  0  0  0  0  0  0  0  0  0  0  0  # atno 6909 bound_to 6896
  145.7155  139.2630  143.1626 H   0  0  0  0  0  0  0  0  0  0  0  0  # atno 7974 bound_to 7965
  155.1851  140.0411  157.2889 H   0  0  0  0  0  0  0  0  0  0  0  0  # atno 8008 bound_to 7997
  154.6177  140.2493  155.7561 H   0  0  0  0  0  0  0  0  0  0  0  0  # atno 8009 bound_to 7997
  156.2416  140.2901  156.0470 H   0  0  0  0  0  0  0  0  0  0  0  0  # atno 8010 bound_to 7997
  140.6325  143.7962  150.7314 H   0  0  0  0  0  0  0  0  0  0  0  0  # atno 10167 bound_to 10162
  157.2858  130.7278  149.6582 H   0  0  0  0  0  0  0  0  0  0  0  0  # atno 10718 bound_to 10713
  153.1685  135.4537  154.9870 H   0  0  0  0  0  0  0  0  0  0  0  0  # atno 10763 bound_to 10752
  154.7949  135.3234  154.7692 H   0  0  0  0  0  0  0  0  0  0  0  0  # atno 10764 bound_to 10752
  153.8172  135.6950  153.4887 H   0  0  0  0  0  0  0  0  0  0  0  0  # atno 10765 bound_to 10752
  140.5511  134.0282  155.7937 H   0  0  0  0  0  0  0  0  0  0  0  0  # atno 11005 bound_to 11000
  146.0673  140.7907  142.9705 LP  0  0  0  0  0  0  0  0  0  0  0  0  # atno 17320 bound_to 7965
  144.6930  140.3288  143.7219 LP  0  0  0  0  0  0  0  0  0  0  0  0  # atno 17321 bound_to 7965
  140.1576  143.4303  152.2089 LP  0  0  0  0  0  0  0  0  0  0  0  0  # atno 17342 bound_to 10162
  139.5537  144.7357  151.4357 LP  0  0  0  0  0  0  0  0  0  0  0  0  # atno 17343 bound_to 10162
  155.9665  130.4324  150.4961 LP  0  0  0  0  0  0  0  0  0  0  0  0  # atno 17370 bound_to 10713
  157.2914  131.0627  151.2131 LP  0  0  0  0  0  0  0  0  0  0  0  0  # atno 17371 bound_to 10713
  141.1171  133.9522  157.2802 LP  0  0  0  0  0  0  0  0  0  0  0  0  # atno 17394 bound_to 11000
  139.9455  135.0185  156.8838 LP  0  0  0  0  0  0  0  0  0  0  0  0  # atno 17395 bound_to 11000

$$$$
