AV-unprocessed.smi:1712|AV-procd|sdf|6903|dock4
  -GOLD-   22720 8103D 1   1.00000     0.00000
 Structure written by MMmdl.
 38 39  0  0  0  0  0  0  0  0  2 V2000
  148.1876  139.1306  154.2194 C   0  0  0  0  0  0  0  0  0  0  0  0
  146.7095  139.1869  153.7597 C   0  0  2  0  0  0  0  0  0  0  0  0
  146.5921  138.8755  152.2405 C   0  0  0  0  0  0  0  0  0  0  0  0
  146.8752  137.4810  151.9066 N   0  0  0  0  0  0  0  0  0  0  0  0
  145.9528  136.5258  151.7159 C   0  0  0  0  0  0  0  0  0  0  0  0
  144.7402  136.7312  151.7706 O   0  0  0  0  0  0  0  0  0  0  0  0
  146.5240  135.3384  151.4561 N   0  0  0  0  0  0  0  0  0  0  0  0
  145.8695  134.1104  151.1834 C   0  0  0  0  0  0  0  0  0  0  0  0
  144.4644  133.9581  151.0326 C   0  0  0  0  0  0  0  0  0  0  0  0
  144.1382  132.6974  150.7855 N   0  0  0  0  0  0  0  0  0  0  0  0
  145.3217  132.0436  150.7768 N   0  0  0  0  0  0  0  0  0  0  0  0
  146.4028  132.8633  151.0145 C   0  0  0  0  0  0  0  0  0  0  0  0
  146.0692  140.4981  154.1197 N   0  3  0  0  0  0  0  0  0  0  0  0
  145.6914  140.6145  155.5575 C   0  0  0  0  0  0  0  0  0  0  0  0
  145.0492  141.9764  155.8707 C   0  0  0  0  0  0  0  0  0  0  0  0
  145.9331  143.0208  155.4991 O   0  0  0  0  0  0  0  0  0  0  0  0
  146.1850  143.0032  154.1039 C   0  0  0  0  0  0  0  0  0  0  0  0
  146.8767  141.6853  153.7176 C   0  0  0  0  0  0  0  0  0  0  0  0
  145.3748  131.0489  150.6093 H   0  0  0  0  0  0  0  0  0  0  0  0
  148.6671  138.1938  153.9400 H   0  0  0  0  0  0  0  0  0  0  0  0
  148.2934  139.1814  155.3016 H   0  0  0  0  0  0  0  0  0  0  0  0
  148.7702  139.9411  153.7807 H   0  0  0  0  0  0  0  0  0  0  0  0
  146.1694  138.4041  154.2952 H   0  0  0  0  0  0  0  0  0  0  0  0
  145.5735  139.0343  151.8904 H   0  0  0  0  0  0  0  0  0  0  0  0
  147.2250  139.5542  151.6659 H   0  0  0  0  0  0  0  0  0  0  0  0
  147.8480  137.2194  151.8363 H   0  0  0  0  0  0  0  0  0  0  0  0
  147.5330  135.3085  151.4475 H   0  0  0  0  0  0  0  0  0  0  0  0
  143.6857  134.7041  151.0941 H   0  0  0  0  0  0  0  0  0  0  0  0
  147.4158  132.4905  151.0403 H   0  0  0  0  0  0  0  0  0  0  0  0
  144.9642  139.8534  155.8342 H   0  0  0  0  0  0  0  0  0  0  0  0
  146.5745  140.4666  156.1811 H   0  0  0  0  0  0  0  0  0  0  0  0
  144.0941  142.0864  155.3542 H   0  0  0  0  0  0  0  0  0  0  0  0
  144.8421  142.0552  156.9381 H   0  0  0  0  0  0  0  0  0  0  0  0
  145.2548  143.1341  153.5483 H   0  0  0  0  0  0  0  0  0  0  0  0
  146.8253  143.8491  153.8526 H   0  0  0  0  0  0  0  0  0  0  0  0
  147.8621  141.6315  154.1833 H   0  0  0  0  0  0  0  0  0  0  0  0
  147.0279  141.7109  152.6403 H   0  0  0  0  0  0  0  0  0  0  0  0
  145.2069  140.5492  153.5958 H   0  0  0  0  0  0  0  0  0  0  0  0
  1  2  1  0  0  0  0
  1 20  1  0  0  0  0
  1 21  1  0  0  0  0
  1 22  1  0  0  0  0
  2  3  1  0  0  0  0
  2 13  1  0  0  0  0
  2 23  1  0  0  0  0
  3  4  1  0  0  0  0
  3 24  1  0  0  0  0
  3 25  1  0  0  0  0
  4  5  1  0  0  0  0
  4 26  1  0  0  0  0
  5  6  2  0  0  0  0
  5  7  1  0  0  0  0
  7  8  1  0  0  0  0
  7 27  1  0  0  0  0
  8 12  2  0  0  0  0
  8  9  1  0  0  0  0
  9 10  2  0  0  0  0
  9 28  1  0  0  0  0
 10 11  1  0  0  0  0
 11 19  1  0  0  0  0
 11 12  1  0  0  0  0
 12 29  1  0  0  0  0
 13 18  1  0  0  0  0
 13 14  1  0  0  0  0
 13 38  1  0  0  0  0
 14 15  1  0  0  0  0
 14 30  1  0  0  0  0
 14 31  1  0  0  0  0
 15 16  1  0  0  0  0
 15 32  1  0  0  0  0
 15 33  1  0  0  0  0
 16 17  1  0  0  0  0
 17 18  1  0  0  0  0
 17 34  1  0  0  0  0
 17 35  1  0  0  0  0
 18 36  1  0  0  0  0
 18 37  1  0  0  0  0
M  CHG  1  13   1
M  END
> <s_m_source_file>
AV-unprocessed.smi

> <i_m_source_file_index>
1712

> <i_lp_mmshare_version>
43012

> <i_f3d_flags>
0

> <s_epik_input>
W0NIMl0xW0NIMl1PW0NIMl1bQ0gyXU4xW0NASF0oW0NIM10pW0NIMl1bTkhdQyg9TylbTkhdYzJbY0hdbltuSF1bY0hdMg==

> <s_epik_cmdline>
J2VwaWtfcHl0aG9uJywgJy1waCcsICc3LjAnLCAnLXRuJywgJzgnLCAnLW1hJywgJzIwMCcsICctbWV0YWxfYmluZGluZycsICctaW1hZScsICc8aW5maWxlLm1hZT4nLCAnLW9tYWUnLCAnPG91dGZpbGUubWFlPic=

> <r_lp_tautomer_probability>
0.5

> <r_epik_Ionization_Penalty>
0.646007

> <r_epik_Ionization_Penalty_Charging>
0.645968

> <r_epik_Ionization_Penalty_Neutral>
3.91929e-05

> <r_epik_State_Penalty>
0.664063

> <r_epik_Charging_Adjusted_Penalty>
1.31003

> <i_epik_Tot_Q>
1

> <i_epik_Tot_abs_Q>
1

> <r_epik_Metal_State_Penalty>
0.664064

> <b_epik_Metal_Only>
0

> <s_lp_Force_Field>
OPLS_2005

> <r_lp_Energy>
23.9653

> <b_lp_Chiralities_Consistent>
1

> <s_lp_Variant>
AV-unprocessed.smi:1712-3

> <Gold.Version>
5.8.1

> <Gold.Id.Protein>
6NUR|6NUR_protein|mol2

> <Gold.PLP.Fitness>
40.3485

> <Gold.PLP.PLP>
-26.6384

> <Gold.PLP.part.hbond>
-2.8374

> <Gold.PLP.part.metal>
0.0000

> <Gold.PLP.part.buried>
-5.5838

> <Gold.PLP.part.nonpolar>
-20.0553

> <Gold.PLP.part.repulsive>
1.4907

> <Gold.PLP.ligand.clash>
0.0000

> <Gold.PLP.ligand.torsion>
0.5138

> <Gold.PLP.Chemscore.Hbond>
3.8960

> <Gold.PLP.Chemscore.CHOScore>
1.0000

> <Gold.PLP.Chemscore.Metal>
0.0000

> <Gold.Chemscore.Hbonds>
donor molecule, donor type, donor heavy atom, donor atom, acceptor molecule, acceptor atom, score
      L1  H     4    26       P1  7948  0.81
      L1  H     7    27       P1  7948  0.90
      L1  H    13    38       P1 10175  2.00
      L1  C    12    29       P1 10747  1.00

> <Gold.PLP.Chemscore.Internal.Correction>
0.0497

> <Gold.Rescore>
     Score         DG    S(hbond)    S(metal)    S(lipo)     H(rot)  DE(clash)    DE(int)     intcor
     15.00     -17.08       2.88        0.00      53.63       1.68       0.47       1.61       ----

> <Gold.Chemscore.Fitness>
14.9951

> <Gold.Chemscore.DG>
-17.0819

> <Gold.Chemscore.ZeroCoef>
-5.4800

> <Gold.Chemscore.Hbond>
2.8805

> <Gold.Chemscore.Metal>
0.0000

> <Gold.Chemscore.Lipo>
53.6274

> <Gold.Chemscore.Internal_Hbond>
0.0000

> <Gold.Chemscore.DEClash>
0.4720

> <Gold.Chemscore.DEInternal>
1.6147

> <Gold.Chemscore.Rot>
1.6771

> <Gold.Chemscore.Internal.Correction>
   9.000000E+99

> <Gold.Chemscore.Hbonds>
donor molecule, donor type, donor heavy atom, donor atom, acceptor molecule, acceptor atom, score
      L1  H     4    26       P1  7948  0.78
      L1  H     7    27       P1  7948  0.66
      L1  H    13    38       P1 10175  0.98

> <Gold.Chemscore.Hbond.Weighted>
-9.6210

> <Gold.Chemscore.Metal.Weighted>
-0.0000

> <Gold.Chemscore.Lipo.Weighted>
-6.2744

> <Gold.Chemscore.Internal_Hbond.Weighted>
0.0000

> <Gold.Chemscore.DEClash.Weighted>
0.4720

> <Gold.Chemscore.DEInternal.Weighted>
1.6147

> <Gold.Chemscore.Rot.Weighted>
4.2935

> <Gold.Chemscore.Internal.Correction.Weighted>
   9.000000E+99

> <Gold.Protein.RotatedTorsions>
[ 6907 6896 6895 6894 ] final   14.00 input  -60.11 | X-H torsion
[ 7974 7965 7964 7962 ] final   -4.68 input  175.53 | X-H torsion
[ 8008 7997 7996 7995 ] final  140.51 input   59.86 | X-H torsion
[ 10167 10162 10161 10158 ] final  -74.15 input  -65.29 | X-H torsion
[ 10718 10713 10712 10709 ] final  172.06 input   66.30 | X-H torsion
[ 10763 10752 10751 10750 ] final   -7.31 input  -60.55 | X-H torsion
[ 11005 11000 10999 10996 ] final  -17.80 input  -57.11 | X-H torsion

> <Gold.Protein.ActiveResidues>
 VAL166  LYS551  ARG553  GLY616  TRP617  ASP618  TYR619  PRO620  LYS621  CYS622 
 ASP623  PHE694  ASN695  SER759  ASP760  ASP761  ALA762  ILE779  LEU786  VAL792 
 PHE793  MET794  SER795  GLU796  ALA797  LYS798  CYS799  TRP800  GLU811  SER814 

> <Gold.Protein.RotatedAtoms>
  151.7953  135.0724  160.0392 H   0  0  0  0  0  0  0  0  0  0  0  0  # atno 6907 bound_to 6896
  152.3127  133.5766  159.5700 H   0  0  0  0  0  0  0  0  0  0  0  0  # atno 6908 bound_to 6896
  150.7328  134.0044  159.3691 H   0  0  0  0  0  0  0  0  0  0  0  0  # atno 6909 bound_to 6896
  146.2368  140.1907  142.8332 H   0  0  0  0  0  0  0  0  0  0  0  0  # atno 7974 bound_to 7965
  156.2978  140.2339  156.4414 H   0  0  0  0  0  0  0  0  0  0  0  0  # atno 8008 bound_to 7997
  154.8183  140.0439  157.1413 H   0  0  0  0  0  0  0  0  0  0  0  0  # atno 8009 bound_to 7997
  154.9344  140.3021  155.5155 H   0  0  0  0  0  0  0  0  0  0  0  0  # atno 8010 bound_to 7997
  140.5051  143.2354  151.7687 H   0  0  0  0  0  0  0  0  0  0  0  0  # atno 10167 bound_to 10162
  156.9845  131.0129  151.2873 H   0  0  0  0  0  0  0  0  0  0  0  0  # atno 10718 bound_to 10713
  153.4245  135.7011  153.6272 H   0  0  0  0  0  0  0  0  0  0  0  0  # atno 10763 bound_to 10752
  153.4712  135.3714  155.2392 H   0  0  0  0  0  0  0  0  0  0  0  0  # atno 10764 bound_to 10752
  154.8723  135.4043  154.3619 H   0  0  0  0  0  0  0  0  0  0  0  0  # atno 10765 bound_to 10752
  140.8205  133.8072  155.9654 H   0  0  0  0  0  0  0  0  0  0  0  0  # atno 11005 bound_to 11000
  144.9860  140.8503  143.5368 LP  0  0  0  0  0  0  0  0  0  0  0  0  # atno 17320 bound_to 7965
  145.1906  139.2303  143.5244 LP  0  0  0  0  0  0  0  0  0  0  0  0  # atno 17321 bound_to 7965
  139.4881  144.4468  151.9700 LP  0  0  0  0  0  0  0  0  0  0  0  0  # atno 17342 bound_to 10162
  140.3559  144.3033  150.5941 LP  0  0  0  0  0  0  0  0  0  0  0  0  # atno 17343 bound_to 10162
  157.5503  130.8178  149.8136 LP  0  0  0  0  0  0  0  0  0  0  0  0  # atno 17370 bound_to 10713
  156.0231  130.3788  150.1902 LP  0  0  0  0  0  0  0  0  0  0  0  0  # atno 17371 bound_to 10713
  140.9104  134.2267  157.4989 LP  0  0  0  0  0  0  0  0  0  0  0  0  # atno 17394 bound_to 11000
  139.8709  134.9747  156.4858 LP  0  0  0  0  0  0  0  0  0  0  0  0  # atno 17395 bound_to 11000

$$$$
