AV-unprocessed.smi:967|AV-procd|sdf|4285|dock3
  -GOLD-   22720 2193D 1   1.00000     0.00000
 Structure written by MMmdl.
 43 44  0  0  0  0  0  0  0  0  2 V2000
  151.1409  130.3238  158.2911 C   0  0  0  0  0  0  0  0  0  0  0  0
  151.9126  131.1726  157.3958 N   0  0  0  0  0  0  0  0  0  0  0  0
  153.1435  130.5986  156.8739 C   0  0  0  0  0  0  0  0  0  0  0  0
  151.1289  131.7756  156.4024 C   0  0  0  0  0  0  0  0  0  0  0  0
  150.5186  131.0105  155.3874 C   0  0  0  0  0  0  0  0  0  0  0  0
  149.7380  131.6585  154.4084 C   0  0  0  0  0  0  0  0  0  0  0  0
  149.5678  133.0590  154.4604 C   0  0  0  0  0  0  0  0  0  0  0  0
  148.7824  133.6671  153.4442 N   0  0  0  0  0  0  0  0  0  0  0  0
  147.6646  133.2038  152.8591 C   0  0  0  0  0  0  0  0  0  0  0  0
  147.1294  132.1236  153.1067 O   0  0  0  0  0  0  0  0  0  0  0  0
  147.2083  134.0693  151.9421 N   0  0  0  0  0  0  0  0  0  0  0  0
  146.0341  133.8826  151.0937 C   0  0  2  0  0  0  0  0  0  0  0  0
  144.7937  133.6421  151.9757 C   0  0  0  0  0  0  0  0  0  0  0  0
  143.5470  133.3402  151.1287 C   0  0  0  0  0  0  0  0  0  0  0  0
  143.7934  132.1506  150.1850 C   0  0  1  0  0  0  0  0  0  0  0  0
  142.6535  131.9443  149.3782 O   0  0  0  0  0  0  0  0  0  0  0  0
  145.0195  132.4005  149.2903 C   0  0  0  0  0  0  0  0  0  0  0  0
  146.2690  132.6993  150.1348 C   0  0  0  0  0  0  0  0  0  0  0  0
  150.2137  133.7776  155.4964 C   0  0  0  0  0  0  0  0  0  0  0  0
  150.9549  133.1185  156.4136 N   0  3  0  0  0  0  0  0  0  0  0  0
  150.2514  130.8439  158.6489 H   0  0  0  0  0  0  0  0  0  0  0  0
  151.7407  130.0478  159.1588 H   0  0  0  0  0  0  0  0  0  0  0  0
  150.8268  129.4083  157.7884 H   0  0  0  0  0  0  0  0  0  0  0  0
  153.6539  131.3043  156.2173 H   0  0  0  0  0  0  0  0  0  0  0  0
  152.9413  129.6872  156.3102 H   0  0  0  0  0  0  0  0  0  0  0  0
  153.8202  130.3510  157.6922 H   0  0  0  0  0  0  0  0  0  0  0  0
  150.6463  129.9381  155.3568 H   0  0  0  0  0  0  0  0  0  0  0  0
  149.2694  131.0786  153.6265 H   0  0  0  0  0  0  0  0  0  0  0  0
  149.1430  134.5372  153.0804 H   0  0  0  0  0  0  0  0  0  0  0  0
  147.7223  134.9281  151.8098 H   0  0  0  0  0  0  0  0  0  0  0  0
  145.8536  134.7743  150.4902 H   0  0  0  0  0  0  0  0  0  0  0  0
  144.9781  132.8065  152.6525 H   0  0  0  0  0  0  0  0  0  0  0  0
  144.6076  134.5136  152.6046 H   0  0  0  0  0  0  0  0  0  0  0  0
  142.6994  133.1313  151.7829 H   0  0  0  0  0  0  0  0  0  0  0  0
  143.2811  134.2256  150.5494 H   0  0  0  0  0  0  0  0  0  0  0  0
  143.9541  131.2475  150.7754 H   0  0  0  0  0  0  0  0  0  0  0  0
  142.1430  132.7395  149.3708 H   0  0  0  0  0  0  0  0  0  0  0  0
  145.2030  131.5337  148.6543 H   0  0  0  0  0  0  0  0  0  0  0  0
  144.8263  133.2406  148.6213 H   0  0  0  0  0  0  0  0  0  0  0  0
  147.1132  132.9122  149.4776 H   0  0  0  0  0  0  0  0  0  0  0  0
  146.5384  131.8087  150.7046 H   0  0  0  0  0  0  0  0  0  0  0  0
  150.1809  134.8490  155.6260 H   0  0  0  0  0  0  0  0  0  0  0  0
  151.4069  133.6611  157.1497 H   0  0  0  0  0  0  0  0  0  0  0  0
  1  2  1  0  0  0  0
  1 21  1  0  0  0  0
  1 22  1  0  0  0  0
  1 23  1  0  0  0  0
  2  3  1  0  0  0  0
  2  4  1  0  0  0  0
  3 24  1  0  0  0  0
  3 25  1  0  0  0  0
  3 26  1  0  0  0  0
  4 20  1  0  0  0  0
  4  5  2  0  0  0  0
  5  6  1  0  0  0  0
  5 27  1  0  0  0  0
  6  7  2  0  0  0  0
  6 28  1  0  0  0  0
  7  8  1  0  0  0  0
  7 19  1  0  0  0  0
  8  9  1  0  0  0  0
  8 29  1  0  0  0  0
  9 10  2  0  0  0  0
  9 11  1  0  0  0  0
 11 12  1  0  0  0  0
 11 30  1  0  0  0  0
 12 18  1  0  0  0  0
 12 13  1  0  0  0  0
 12 31  1  0  0  0  0
 13 14  1  0  0  0  0
 13 32  1  0  0  0  0
 13 33  1  0  0  0  0
 14 15  1  0  0  0  0
 14 34  1  0  0  0  0
 14 35  1  0  0  0  0
 15 16  1  0  0  0  0
 15 17  1  0  0  0  0
 15 36  1  0  0  0  0
 16 37  1  0  0  0  0
 17 18  1  0  0  0  0
 17 38  1  0  0  0  0
 17 39  1  0  0  0  0
 18 40  1  0  0  0  0
 18 41  1  0  0  0  0
 19 20  2  0  0  0  0
 19 42  1  0  0  0  0
 20 43  1  0  0  0  0
M  CHG  1  20   1
M  END
> <s_m_source_file>
AV-unprocessed.smi

> <i_m_source_file_index>
967

> <i_lp_mmshare_version>
43012

> <i_f3d_flags>
0

> <s_epik_input>
W0NIM11OKFtDSDNdKWMxW2NIXVtjSF1jKFtjSF1uMSlbTkhdQyg9TylbTkhdW0NAQEhdMltDSDJdW0NIMl1bQ0BASF0oW09IXSlbQ0gyXVtDSDJdMg==

> <s_epik_cmdline>
J2VwaWtfcHl0aG9uJywgJy1waCcsICc3LjAnLCAnLXRuJywgJzgnLCAnLW1hJywgJzIwMCcsICctbWV0YWxfYmluZGluZycsICctaW1hZScsICc8aW5maWxlLm1hZT4nLCAnLW9tYWUnLCAnPG91dGZpbGUubWFlPic=

> <r_lp_tautomer_probability>
0.999994

> <r_epik_Ionization_Penalty>
0.251848

> <r_epik_Ionization_Penalty_Charging>
0.251826

> <r_epik_Ionization_Penalty_Neutral>
2.16844e-05

> <r_epik_State_Penalty>
0.243201

> <r_epik_Charging_Adjusted_Penalty>
0.495027

> <i_epik_Tot_Q>
1

> <i_epik_Tot_abs_Q>
1

> <r_epik_Metal_State_Penalty>
0.534113

> <b_epik_Metal_Only>
0

> <s_lp_Force_Field>
OPLS_2005

> <r_lp_Energy>
22.3095

> <b_lp_Chiralities_Consistent>
1

> <s_lp_Variant>
AV-unprocessed.smi:967-1

> <Gold.Version>
5.8.1

> <Gold.Id.Protein>
6NUR|6NUR_protein|mol2

> <Gold.PLP.Fitness>
44.0641

> <Gold.PLP.PLP>
-35.0932

> <Gold.PLP.part.hbond>
-4.6756

> <Gold.PLP.part.metal>
0.0000

> <Gold.PLP.part.buried>
-2.6882

> <Gold.PLP.part.nonpolar>
-27.9017

> <Gold.PLP.part.repulsive>
0.2620

> <Gold.PLP.ligand.clash>
0.0000

> <Gold.PLP.ligand.torsion>
0.3872

> <Gold.PLP.Chemscore.Hbond>
3.1813

> <Gold.PLP.Chemscore.CHOScore>
0.0000

> <Gold.PLP.Chemscore.Metal>
0.0000

> <Gold.Chemscore.Hbonds>
donor molecule, donor type, donor heavy atom, donor atom, acceptor molecule, acceptor atom, score
      L1  H     8    29       P1  7948  0.39
      L1  H    11    30       P1  7948  1.00
      L1  H    16    37       P1 10186  1.00
      P1  H 10785 10796       L1    16  0.80

> <Gold.PLP.Chemscore.Internal.Correction>
0.2015

> <Gold.Rescore>
     Score         DG    S(hbond)    S(metal)    S(lipo)     H(rot)  DE(clash)    DE(int)     intcor
     14.64     -17.07       2.19        0.00      74.51       1.73       0.00       2.44       ----

> <Gold.Chemscore.Fitness>
14.6385

> <Gold.Chemscore.DG>
-17.0738

> <Gold.Chemscore.ZeroCoef>
-5.4800

> <Gold.Chemscore.Hbond>
2.1869

> <Gold.Chemscore.Metal>
0.0000

> <Gold.Chemscore.Lipo>
74.5147

> <Gold.Chemscore.Internal_Hbond>
0.0000

> <Gold.Chemscore.DEClash>
0.0000

> <Gold.Chemscore.DEInternal>
2.4353

> <Gold.Chemscore.Rot>
1.7299

> <Gold.Chemscore.Internal.Correction>
   9.000000E+99

> <Gold.Chemscore.Hbonds>
donor molecule, donor type, donor heavy atom, donor atom, acceptor molecule, acceptor atom, score
      L1  H     8    29       P1  7948  0.01
      L1  H    11    30       P1  7948  0.60
      L1  H    16    37       P1 10186  0.93
      P1  H 10785 10796       L1    16  0.11

> <Gold.Chemscore.Hbond.Weighted>
-7.3041

> <Gold.Chemscore.Metal.Weighted>
-0.0000

> <Gold.Chemscore.Lipo.Weighted>
-8.7182

> <Gold.Chemscore.Internal_Hbond.Weighted>
0.0000

> <Gold.Chemscore.DEClash.Weighted>
0.0000

> <Gold.Chemscore.DEInternal.Weighted>
2.4353

> <Gold.Chemscore.Rot.Weighted>
4.4285

> <Gold.Chemscore.Internal.Correction.Weighted>
   9.000000E+99

> <Gold.Protein.RotatedTorsions>
[ 6907 6896 6895 6894 ] final -134.76 input  -60.11 | X-H torsion
[ 7974 7965 7964 7962 ] final   54.48 input  175.53 | X-H torsion
[ 8008 7997 7996 7995 ] final  -71.47 input   59.86 | X-H torsion
[ 10167 10162 10161 10158 ] final  -32.88 input  -65.29 | X-H torsion
[ 10718 10713 10712 10709 ] final   63.73 input   66.30 | X-H torsion
[ 10763 10752 10751 10750 ] final  106.71 input  -60.55 | X-H torsion
[ 11005 11000 10999 10996 ] final -103.53 input  -57.11 | X-H torsion

> <Gold.Protein.ActiveResidues>
 VAL166  LYS551  ARG553  GLY616  TRP617  ASP618  TYR619  PRO620  LYS621  CYS622 
 ASP623  PHE694  ASN695  SER759  ASP760  ASP761  ALA762  ILE779  LEU786  VAL792 
 PHE793  MET794  SER795  GLU796  ALA797  LYS798  CYS799  TRP800  GLU811  SER814 

> <Gold.Protein.RotatedAtoms>
  150.9897  133.6162  159.2709 H   0  0  0  0  0  0  0  0  0  0  0  0  # atno 6907 bound_to 6896
  151.3387  135.0857  159.9373 H   0  0  0  0  0  0  0  0  0  0  0  0  # atno 6908 bound_to 6896
  152.5242  133.9512  159.7727 H   0  0  0  0  0  0  0  0  0  0  0  0  # atno 6909 bound_to 6896
  145.9604  139.4053  143.0252 H   0  0  0  0  0  0  0  0  0  0  0  0  # atno 7974 bound_to 7965
  154.5090  140.0815  156.7952 H   0  0  0  0  0  0  0  0  0  0  0  0  # atno 8008 bound_to 7997
  155.3828  140.3428  155.4229 H   0  0  0  0  0  0  0  0  0  0  0  0  # atno 8009 bound_to 7997
  156.1550  140.1570  156.8694 H   0  0  0  0  0  0  0  0  0  0  0  0  # atno 8010 bound_to 7997
  140.7214  143.3662  151.1867 H   0  0  0  0  0  0  0  0  0  0  0  0  # atno 10167 bound_to 10162
  157.5991  130.9121  149.9754 H   0  0  0  0  0  0  0  0  0  0  0  0  # atno 10718 bound_to 10713
  153.3967  135.3868  155.1960 H   0  0  0  0  0  0  0  0  0  0  0  0  # atno 10763 bound_to 10752
  154.8725  135.3761  154.4670 H   0  0  0  0  0  0  0  0  0  0  0  0  # atno 10764 bound_to 10752
  153.5162  135.7087  153.5816 H   0  0  0  0  0  0  0  0  0  0  0  0  # atno 10765 bound_to 10752
  141.1141  133.8648  157.1498 H   0  0  0  0  0  0  0  0  0  0  0  0  # atno 11005 bound_to 11000
  145.8048  140.9754  143.0980 LP  0  0  0  0  0  0  0  0  0  0  0  0  # atno 17320 bound_to 7965
  144.6814  139.9847  143.7484 LP  0  0  0  0  0  0  0  0  0  0  0  0  # atno 17321 bound_to 7965
  139.7224  143.9202  152.2990 LP  0  0  0  0  0  0  0  0  0  0  0  0  # atno 17342 bound_to 10162
  139.8964  144.6937  150.8713 LP  0  0  0  0  0  0  0  0  0  0  0  0  # atno 17343 bound_to 10162
  156.1060  130.3652  150.0132 LP  0  0  0  0  0  0  0  0  0  0  0  0  # atno 17370 bound_to 10713
  156.8239  130.9368  151.3640 LP  0  0  0  0  0  0  0  0  0  0  0  0  # atno 17371 bound_to 10713
  140.0053  135.0011  157.0278 LP  0  0  0  0  0  0  0  0  0  0  0  0  # atno 17394 bound_to 11000
  140.4694  134.1402  155.7201 LP  0  0  0  0  0  0  0  0  0  0  0  0  # atno 17395 bound_to 11000

$$$$
