AV-unprocessed.smi:697|AV-procd|sdf|3394|dock7
  -GOLD-   22720 0373D 1   1.00000     0.00000
 Structure written by MMmdl.
 43 44  0  0  0  0  0  0  0  0  2 V2000
  151.8649  138.8456  155.0671 C   0  0  0  0  0  0  0  0  0  0  0  0
  150.6124  139.5049  154.9265 O   0  0  0  0  0  0  0  0  0  0  0  0
  149.9578  139.9398  156.1266 C   0  0  2  0  0  0  0  0  0  0  0  0
  150.3440  141.3871  156.4567 C   0  0  0  0  0  0  0  0  0  0  0  0
  150.0750  138.8593  157.2187 C   0  0  0  0  0  0  0  0  0  0  0  0
  148.8701  138.1790  156.5721 C   0  0  1  0  0  0  0  0  0  0  0  0
  147.9604  137.5969  157.5530 N   0  0  0  0  0  0  0  0  0  0  0  0
  148.2991  136.6420  158.4291 C   0  0  0  0  0  0  0  0  0  0  0  0
  149.4309  136.1635  158.4995 O   0  0  0  0  0  0  0  0  0  0  0  0
  147.2399  136.2841  159.1769 N   0  0  0  0  0  0  0  0  0  0  0  0
  147.1601  135.3475  160.2210 C   0  0  0  0  0  0  0  0  0  0  0  0
  147.1872  133.9957  160.0569 C   0  0  0  0  0  0  0  0  0  0  0  0
  147.1177  133.0719  161.1823 C   0  0  0  0  0  0  0  0  0  0  0  0
  147.2253  131.5637  161.0431 C   0  0  0  0  0  0  0  0  0  0  0  0
  147.4371  131.2128  159.7743 F   0  0  0  0  0  0  0  0  0  0  0  0
  148.2433  131.1119  161.7741 F   0  0  0  0  0  0  0  0  0  0  0  0
  146.1119  130.9636  161.4647 F   0  0  0  0  0  0  0  0  0  0  0  0
  147.0545  133.7283  162.3961 C   0  0  0  0  0  0  0  0  0  0  0  0
  147.0151  135.0557  162.6446 N   0  5  0  0  0  0  0  0  0  0  0  0
  147.0727  135.9103  161.5844 C   0  0  0  0  0  0  0  0  0  0  0  0
  147.0523  137.1319  161.7403 O   0  0  0  0  0  0  0  0  0  0  0  0
  148.4424  139.5657  156.0262 C   0  0  0  0  0  0  0  0  0  0  0  0
  147.4840  140.3903  156.9068 C   0  0  0  0  0  0  0  0  0  0  0  0
  147.8273  139.5722  154.6225 C   0  0  0  0  0  0  0  0  0  0  0  0
  152.1638  138.4415  154.1001 H   0  0  0  0  0  0  0  0  0  0  0  0
  151.8221  138.0163  155.7723 H   0  0  0  0  0  0  0  0  0  0  0  0
  152.6484  139.5341  155.3827 H   0  0  0  0  0  0  0  0  0  0  0  0
  149.7820  141.7732  157.3064 H   0  0  0  0  0  0  0  0  0  0  0  0
  150.1547  142.0500  155.6121 H   0  0  0  0  0  0  0  0  0  0  0  0
  151.3960  141.4777  156.7257 H   0  0  0  0  0  0  0  0  0  0  0  0
  150.9847  138.2600  157.2070 H   0  0  0  0  0  0  0  0  0  0  0  0
  149.8745  139.2457  158.2197 H   0  0  0  0  0  0  0  0  0  0  0  0
  149.1748  137.4864  155.7839 H   0  0  0  0  0  0  0  0  0  0  0  0
  147.0091  137.9347  157.5568 H   0  0  0  0  0  0  0  0  0  0  0  0
  146.3589  136.7187  158.9443 H   0  0  0  0  0  0  0  0  0  0  0  0
  147.2802  133.5595  159.0760 H   0  0  0  0  0  0  0  0  0  0  0  0
  147.0393  133.0904  163.3056 H   0  0  0  0  0  0  0  0  0  0  0  0
  146.4802  139.9643  156.9175 H   0  0  0  0  0  0  0  0  0  0  0  0
  147.3939  141.4156  156.5469 H   0  0  0  0  0  0  0  0  0  0  0  0
  147.8173  140.4414  157.9434 H   0  0  0  0  0  0  0  0  0  0  0  0
  146.7903  139.2354  154.6367 H   0  0  0  0  0  0  0  0  0  0  0  0
  148.3597  138.9092  153.9402 H   0  0  0  0  0  0  0  0  0  0  0  0
  147.8454  140.5707  154.1847 H   0  0  0  0  0  0  0  0  0  0  0  0
  1  2  1  0  0  0  0
  1 25  1  0  0  0  0
  1 26  1  0  0  0  0
  1 27  1  0  0  0  0
  2  3  1  0  0  0  0
  3 22  1  0  0  0  0
  3  4  1  0  0  0  0
  3  5  1  0  0  0  0
  4 28  1  0  0  0  0
  4 29  1  0  0  0  0
  4 30  1  0  0  0  0
  5  6  1  0  0  0  0
  5 31  1  0  0  0  0
  5 32  1  0  0  0  0
  6  7  1  0  0  0  0
  6 22  1  0  0  0  0
  6 33  1  0  0  0  0
  7  8  1  0  0  0  0
  7 34  1  0  0  0  0
  8  9  2  0  0  0  0
  8 10  1  0  0  0  0
 10 11  1  0  0  0  0
 10 35  1  0  0  0  0
 11 20  1  0  0  0  0
 11 12  2  0  0  0  0
 12 13  1  0  0  0  0
 12 36  1  0  0  0  0
 13 14  1  0  0  0  0
 13 18  2  0  0  0  0
 14 15  1  0  0  0  0
 14 16  1  0  0  0  0
 14 17  1  0  0  0  0
 18 19  1  0  0  0  0
 18 37  1  0  0  0  0
 19 20  1  0  0  0  0
 20 21  2  0  0  0  0
 22 23  1  0  0  0  0
 22 24  1  0  0  0  0
 23 38  1  0  0  0  0
 23 39  1  0  0  0  0
 23 40  1  0  0  0  0
 24 41  1  0  0  0  0
 24 42  1  0  0  0  0
 24 43  1  0  0  0  0
M  CHG  1  19  -1
M  END
> <s_m_source_file>
AV-unprocessed.smi

> <i_m_source_file_index>
697

> <i_lp_mmshare_version>
43012

> <i_f3d_flags>
0

> <s_epik_input>
W0NIM11PW0NAQF0xKFtDSDNdKVtDSDJdW0NASF0oQzEoW0NIM10pW0NIM10pW05IXUMoPU8pW05IXWMyW2NIXWMoQyhGKShGKUYpW2NIXVtuSF1jMj1P

> <s_epik_cmdline>
J2VwaWtfcHl0aG9uJywgJy1waCcsICc3LjAnLCAnLXRuJywgJzgnLCAnLW1hJywgJzIwMCcsICctbWV0YWxfYmluZGluZycsICctaW1hZScsICc8aW5maWxlLm1hZT4nLCAnLW9tYWUnLCAnPG91dGZpbGUubWFlPic=

> <r_lp_tautomer_probability>
1

> <r_epik_Ionization_Penalty>
3.20094

> <r_epik_Ionization_Penalty_Charging>
0.180017

> <r_epik_Ionization_Penalty_Neutral>
3.02092

> <r_epik_State_Penalty>
3.01726

> <r_epik_Charging_Adjusted_Penalty>
3.19727

> <i_epik_Tot_Q>
-1

> <i_epik_Tot_abs_Q>
1

> <r_epik_Metal_State_Penalty>
0.455096

> <b_epik_Metal_Only>
1

> <s_lp_Force_Field>
OPLS_2005

> <r_lp_Energy>
36.2607

> <b_lp_Chiralities_Consistent>
1

> <s_lp_Variant>
AV-unprocessed.smi:697-6

> <Gold.Version>
5.8.1

> <Gold.Id.Protein>
6NUR|6NUR_protein|mol2

> <Gold.PLP.Fitness>
43.4243

> <Gold.PLP.PLP>
-34.6332

> <Gold.PLP.part.hbond>
-4.0000

> <Gold.PLP.part.metal>
0.0000

> <Gold.PLP.part.buried>
-5.3287

> <Gold.PLP.part.nonpolar>
-25.3698

> <Gold.PLP.part.repulsive>
0.1630

> <Gold.PLP.ligand.clash>
0.0000

> <Gold.PLP.ligand.torsion>
1.5288

> <Gold.PLP.Chemscore.Hbond>
3.8080

> <Gold.PLP.Chemscore.CHOScore>
0.0000

> <Gold.PLP.Chemscore.Metal>
0.0000

> <Gold.Chemscore.Hbonds>
donor molecule, donor type, donor heavy atom, donor atom, acceptor molecule, acceptor atom, score
      P1  H  6896  6909       L1     9  0.36
      P1  H  6931  6943       L1    21  0.33
      P1  H  6934  6947       L1    21  0.87
      P1  H  7989  7998       L1     2  0.18

> <Gold.PLP.Chemscore.Internal.Correction>
0.4248

> <Gold.Rescore>
     Score         DG    S(hbond)    S(metal)    S(lipo)     H(rot)  DE(clash)    DE(int)     intcor
     18.53     -21.69       3.53        0.00      66.15       1.30       0.34       2.82       ----

> <Gold.Chemscore.Fitness>
18.5347

> <Gold.Chemscore.DG>
-21.6905

> <Gold.Chemscore.ZeroCoef>
-5.4800

> <Gold.Chemscore.Hbond>
3.5304

> <Gold.Chemscore.Metal>
0.0000

> <Gold.Chemscore.Lipo>
66.1538

> <Gold.Chemscore.Internal_Hbond>
0.0000

> <Gold.Chemscore.DEClash>
0.3398

> <Gold.Chemscore.DEInternal>
2.8160

> <Gold.Chemscore.Rot>
1.2973

> <Gold.Chemscore.Internal.Correction>
   9.000000E+99

> <Gold.Chemscore.Hbonds>
donor molecule, donor type, donor heavy atom, donor atom, acceptor molecule, acceptor atom, score
      P1  H  6896  6909       L1     9  0.34
      P1  H  6931  6943       L1    21  0.32
      P1  H  6934  6947       L1    21  0.81

> <Gold.Chemscore.Hbond.Weighted>
-11.7915

> <Gold.Chemscore.Metal.Weighted>
-0.0000

> <Gold.Chemscore.Lipo.Weighted>
-7.7400

> <Gold.Chemscore.Internal_Hbond.Weighted>
0.0000

> <Gold.Chemscore.DEClash.Weighted>
0.3398

> <Gold.Chemscore.DEInternal.Weighted>
2.8160

> <Gold.Chemscore.Rot.Weighted>
3.3210

> <Gold.Chemscore.Internal.Correction.Weighted>
   9.000000E+99

> <Gold.Protein.RotatedTorsions>
[ 6907 6896 6895 6894 ] final   77.60 input  -60.11 | X-H torsion
[ 7974 7965 7964 7962 ] final  107.71 input  175.53 | X-H torsion
[ 8008 7997 7996 7995 ] final  -88.08 input   59.86 | X-H torsion
[ 10167 10162 10161 10158 ] final  -19.93 input  -65.29 | X-H torsion
[ 10718 10713 10712 10709 ] final  -78.34 input   66.30 | X-H torsion
[ 10763 10752 10751 10750 ] final  115.63 input  -60.55 | X-H torsion
[ 11005 11000 10999 10996 ] final   28.55 input  -57.11 | X-H torsion

> <Gold.Protein.ActiveResidues>
 VAL166  LYS551  ARG553  GLY616  TRP617  ASP618  TYR619  PRO620  LYS621  CYS622 
 ASP623  PHE694  ASN695  SER759  ASP760  ASP761  ALA762  ILE779  LEU786  VAL792 
 PHE793  MET794  SER795  GLU796  ALA797  LYS798  CYS799  TRP800  GLU811  SER814 

> <Gold.Protein.RotatedAtoms>
  152.5124  134.3792  159.9345 H   0  0  0  0  0  0  0  0  0  0  0  0  # atno 6907 bound_to 6896
  151.3749  133.3835  159.2711 H   0  0  0  0  0  0  0  0  0  0  0  0  # atno 6908 bound_to 6896
  150.9549  134.8964  159.7753 H   0  0  0  0  0  0  0  0  0  0  0  0  # atno 6909 bound_to 6896
  145.2900  139.2603  143.3870 H   0  0  0  0  0  0  0  0  0  0  0  0  # atno 7974 bound_to 7965
  154.6706  140.0558  157.0161 H   0  0  0  0  0  0  0  0  0  0  0  0  # atno 8008 bound_to 7997
  155.1094  140.3237  155.4507 H   0  0  0  0  0  0  0  0  0  0  0  0  # atno 8009 bound_to 7997
  156.2656  140.2017  156.6219 H   0  0  0  0  0  0  0  0  0  0  0  0  # atno 8010 bound_to 7997
  140.7272  143.4771  151.0167 H   0  0  0  0  0  0  0  0  0  0  0  0  # atno 10167 bound_to 10162
  156.0120  130.4515  150.3482 H   0  0  0  0  0  0  0  0  0  0  0  0  # atno 10718 bound_to 10713
  153.5252  135.3589  155.2650 H   0  0  0  0  0  0  0  0  0  0  0  0  # atno 10763 bound_to 10752
  154.8732  135.4055  154.3215 H   0  0  0  0  0  0  0  0  0  0  0  0  # atno 10764 bound_to 10752
  153.3893  135.7071  153.6574 H   0  0  0  0  0  0  0  0  0  0  0  0  # atno 10765 bound_to 10752
  140.3144  134.2614  155.7728 H   0  0  0  0  0  0  0  0  0  0  0  0  # atno 11005 bound_to 11000
  146.3188  140.3389  142.8646 LP  0  0  0  0  0  0  0  0  0  0  0  0  # atno 17320 bound_to 7965
  144.9180  140.7835  143.5766 LP  0  0  0  0  0  0  0  0  0  0  0  0  # atno 17321 bound_to 7965
  139.8467  143.7492  152.3179 LP  0  0  0  0  0  0  0  0  0  0  0  0  # atno 17342 bound_to 10162
  139.7659  144.7492  151.0295 LP  0  0  0  0  0  0  0  0  0  0  0  0  # atno 17343 bound_to 10162
  157.1575  131.0336  151.2856 LP  0  0  0  0  0  0  0  0  0  0  0  0  # atno 17370 bound_to 10713
  157.4339  130.7506  149.7013 LP  0  0  0  0  0  0  0  0  0  0  0  0  # atno 17371 bound_to 10713
  141.2101  133.7729  156.9954 LP  0  0  0  0  0  0  0  0  0  0  0  0  # atno 17394 bound_to 11000
  140.0997  134.9543  157.1903 LP  0  0  0  0  0  0  0  0  0  0  0  0  # atno 17395 bound_to 11000

$$$$
