AV-unprocessed.smi:2794|AV-procd|sdf|10777|dock4
  -GOLD-   2272015213D 1   1.00000     0.00000
 Structure written by MMmdl.
 34 35  0  0  0  0  0  0  0  0  1 V2000
  153.7601  141.1713  160.3889 C   0  0  0  0  0  0  0  0  0  0  0  0
  152.8435  142.3071  159.9856 C   0  0  0  0  0  0  0  0  0  0  0  0
  152.7941  143.5000  160.7330 C   0  0  0  0  0  0  0  0  0  0  0  0
  151.9192  144.5143  160.3047 C   0  0  0  0  0  0  0  0  0  0  0  0
  151.1352  144.2951  159.1556 C   0  0  0  0  0  0  0  0  0  0  0  0
  151.2458  143.0691  158.4622 C   0  0  0  0  0  0  0  0  0  0  0  0
  150.4146  142.9495  157.3176 N   0  0  0  0  0  0  0  0  0  0  0  0
  150.3037  141.9091  156.4673 C   0  0  0  0  0  0  0  0  0  0  0  0
  150.9285  140.8544  156.5653 O   0  0  0  0  0  0  0  0  0  0  0  0
  149.4368  142.1110  155.4570 N   0  0  0  0  0  0  0  0  0  0  0  0
  149.0759  141.2032  154.3657 C   0  0  1  0  0  0  0  0  0  0  0  0
  149.0898  139.7542  154.8378 C   0  0  0  0  0  0  0  0  0  0  0  0
  148.1317  138.8611  154.5370 C   0  0  0  0  0  0  0  0  0  0  0  0
  146.9234  139.1866  153.6793 C   0  0  0  0  0  0  0  0  0  0  0  0
  147.0991  140.5065  152.9082 C   0  0  0  0  0  0  0  0  0  0  0  0
  147.6984  141.6070  153.7971 C   0  0  0  0  0  0  0  0  0  0  0  0
  152.0924  142.0969  158.8832 N   0  0  0  0  0  0  0  0  0  0  0  0
  154.3794  141.4466  161.2428 H   0  0  0  0  0  0  0  0  0  0  0  0
  154.4195  140.9033  159.5630 H   0  0  0  0  0  0  0  0  0  0  0  0
  153.1748  140.2925  160.6611 H   0  0  0  0  0  0  0  0  0  0  0  0
  153.4081  143.6367  161.6110 H   0  0  0  0  0  0  0  0  0  0  0  0
  151.8498  145.4453  160.8476 H   0  0  0  0  0  0  0  0  0  0  0  0
  150.4582  145.0641  158.8128 H   0  0  0  0  0  0  0  0  0  0  0  0
  149.8424  143.7547  157.1109 H   0  0  0  0  0  0  0  0  0  0  0  0
  148.9869  143.0148  155.4346 H   0  0  0  0  0  0  0  0  0  0  0  0
  149.8084  141.2866  153.5612 H   0  0  0  0  0  0  0  0  0  0  0  0
  149.9259  139.4445  155.4482 H   0  0  0  0  0  0  0  0  0  0  0  0
  148.1967  137.8548  154.9240 H   0  0  0  0  0  0  0  0  0  0  0  0
  146.7466  138.3691  152.9799 H   0  0  0  0  0  0  0  0  0  0  0  0
  146.0515  139.2425  154.3315 H   0  0  0  0  0  0  0  0  0  0  0  0
  147.7576  140.3426  152.0541 H   0  0  0  0  0  0  0  0  0  0  0  0
  146.1407  140.8287  152.5002 H   0  0  0  0  0  0  0  0  0  0  0  0
  147.0038  141.8072  154.6147 H   0  0  0  0  0  0  0  0  0  0  0  0
  147.7856  142.5378  153.2354 H   0  0  0  0  0  0  0  0  0  0  0  0
  1  2  1  0  0  0  0
  1 18  1  0  0  0  0
  1 19  1  0  0  0  0
  1 20  1  0  0  0  0
  2 17  1  0  0  0  0
  2  3  2  0  0  0  0
  3  4  1  0  0  0  0
  3 21  1  0  0  0  0
  4  5  2  0  0  0  0
  4 22  1  0  0  0  0
  5  6  1  0  0  0  0
  5 23  1  0  0  0  0
  6  7  1  0  0  0  0
  6 17  2  0  0  0  0
  7  8  1  0  0  0  0
  7 24  1  0  0  0  0
  8  9  2  0  0  0  0
  8 10  1  0  0  0  0
 10 11  1  0  0  0  0
 10 25  1  0  0  0  0
 11 16  1  0  0  0  0
 11 12  1  0  0  0  0
 11 26  1  0  0  0  0
 12 13  2  0  0  0  0
 12 27  1  0  0  0  0
 13 14  1  0  0  0  0
 13 28  1  0  0  0  0
 14 15  1  0  0  0  0
 14 29  1  0  0  0  0
 14 30  1  0  0  0  0
 15 16  1  0  0  0  0
 15 31  1  0  0  0  0
 15 32  1  0  0  0  0
 16 33  1  0  0  0  0
 16 34  1  0  0  0  0
M  END
> <s_m_source_file>
AV-unprocessed.smi

> <i_m_source_file_index>
2794

> <i_lp_mmshare_version>
43012

> <i_f3d_flags>
0

> <s_epik_input>
W0NIM11jMVtjSF1bY0hdW2NIXWMobjEpW05IXUMoPU8pW05IXVtDQEBIXTJbQ0hdPVtDSF1bQ0gyXVtDSDJdW0NIMl0y

> <s_epik_cmdline>
J2VwaWtfcHl0aG9uJywgJy1waCcsICc3LjAnLCAnLXRuJywgJzgnLCAnLW1hJywgJzIwMCcsICctbWV0YWxfYmluZGluZycsICctaW1hZScsICc8aW5maWxlLm1hZT4nLCAnLW9tYWUnLCAnPG91dGZpbGUubWFlPic=

> <r_lp_tautomer_probability>
1

> <r_epik_Ionization_Penalty>
8.4544e-05

> <r_epik_Ionization_Penalty_Charging>
0

> <r_epik_Ionization_Penalty_Neutral>
8.4544e-05

> <r_epik_State_Penalty>
-0

> <r_epik_Charging_Adjusted_Penalty>
0

> <i_epik_Tot_Q>
0

> <i_epik_Tot_abs_Q>
0

> <r_epik_Metal_State_Penalty>
-0

> <b_epik_Metal_Only>
0

> <s_lp_Force_Field>
OPLS_2005

> <r_lp_Energy>
18.5134

> <b_lp_Chiralities_Consistent>
1

> <s_lp_Variant>
AV-unprocessed.smi:2794-2

> <Gold.Version>
5.8.1

> <Gold.Id.Protein>
6NUR|6NUR_protein|mol2

> <Gold.PLP.Fitness>
43.1687

> <Gold.PLP.PLP>
-38.0972

> <Gold.PLP.part.hbond>
-2.0000

> <Gold.PLP.part.metal>
0.0000

> <Gold.PLP.part.buried>
-5.2191

> <Gold.PLP.part.nonpolar>
-31.2023

> <Gold.PLP.part.repulsive>
0.2059

> <Gold.PLP.ligand.clash>
0.0000

> <Gold.PLP.ligand.torsion>
0.3358

> <Gold.PLP.Chemscore.Hbond>
1.9120

> <Gold.PLP.Chemscore.CHOScore>
0.0000

> <Gold.PLP.Chemscore.Metal>
0.0000

> <Gold.Chemscore.Hbonds>
donor molecule, donor type, donor heavy atom, donor atom, acceptor molecule, acceptor atom, score
      L1  H     7    24       P1  8028  0.90
      L1  H    10    25       P1  8028  1.00

> <Gold.PLP.Chemscore.Internal.Correction>
0.0072

> <Gold.Rescore>
     Score         DG    S(hbond)    S(metal)    S(lipo)     H(rot)  DE(clash)    DE(int)     intcor
     17.50     -20.63       1.96        0.00      95.49       1.00       0.05       3.08       ----

> <Gold.Chemscore.Fitness>
17.4982

> <Gold.Chemscore.DG>
-20.6269

> <Gold.Chemscore.ZeroCoef>
-5.4800

> <Gold.Chemscore.Hbond>
1.9565

> <Gold.Chemscore.Metal>
0.0000

> <Gold.Chemscore.Lipo>
95.4881

> <Gold.Chemscore.Internal_Hbond>
0.0000

> <Gold.Chemscore.DEClash>
0.0527

> <Gold.Chemscore.DEInternal>
3.0761

> <Gold.Chemscore.Rot>
1.0000

> <Gold.Chemscore.Internal.Correction>
   9.000000E+99

> <Gold.Chemscore.Hbonds>
donor molecule, donor type, donor heavy atom, donor atom, acceptor molecule, acceptor atom, score
      L1  H     7    24       P1  8028  0.80
      L1  H    10    25       P1  8028  0.98

> <Gold.Chemscore.Hbond.Weighted>
-6.5348

> <Gold.Chemscore.Metal.Weighted>
-0.0000

> <Gold.Chemscore.Lipo.Weighted>
-11.1721

> <Gold.Chemscore.Internal_Hbond.Weighted>
0.0000

> <Gold.Chemscore.DEClash.Weighted>
0.0527

> <Gold.Chemscore.DEInternal.Weighted>
3.0761

> <Gold.Chemscore.Rot.Weighted>
2.5600

> <Gold.Chemscore.Internal.Correction.Weighted>
   9.000000E+99

> <Gold.Protein.RotatedTorsions>
[ 6907 6896 6895 6894 ] final   41.99 input  -60.11 | X-H torsion
[ 7974 7965 7964 7962 ] final   18.57 input  175.53 | X-H torsion
[ 8008 7997 7996 7995 ] final    1.56 input   59.86 | X-H torsion
[ 10167 10162 10161 10158 ] final -166.62 input  -65.29 | X-H torsion
[ 10718 10713 10712 10709 ] final   99.84 input   66.30 | X-H torsion
[ 10763 10752 10751 10750 ] final -145.43 input  -60.55 | X-H torsion
[ 11005 11000 10999 10996 ] final  149.36 input  -57.11 | X-H torsion

> <Gold.Protein.ActiveResidues>
 VAL166  LYS551  ARG553  GLY616  TRP617  ASP618  TYR619  PRO620  LYS621  CYS622 
 ASP623  PHE694  ASN695  SER759  ASP760  ASP761  ALA762  ILE779  LEU786  VAL792 
 PHE793  MET794  SER795  GLU796  ALA797  LYS798  CYS799  TRP800  GLU811  SER814 

> <Gold.Protein.RotatedAtoms>
  152.2022  134.8577  160.0506 H   0  0  0  0  0  0  0  0  0  0  0  0  # atno 6907 bound_to 6896
  151.9427  133.3637  159.3979 H   0  0  0  0  0  0  0  0  0  0  0  0  # atno 6908 bound_to 6896
  150.6957  134.4347  159.5308 H   0  0  0  0  0  0  0  0  0  0  0  0  # atno 6909 bound_to 6896
  146.2180  139.8438  142.8636 H   0  0  0  0  0  0  0  0  0  0  0  0  # atno 7974 bound_to 7965
  154.6812  140.2633  155.6907 H   0  0  0  0  0  0  0  0  0  0  0  0  # atno 8008 bound_to 7997
  156.2697  140.2810  156.1279 H   0  0  0  0  0  0  0  0  0  0  0  0  # atno 8009 bound_to 7997
  155.1029  140.0374  157.2692 H   0  0  0  0  0  0  0  0  0  0  0  0  # atno 8010 bound_to 7997
  139.6103  144.0829  152.1835 H   0  0  0  0  0  0  0  0  0  0  0  0  # atno 10167 bound_to 10162
  157.6867  131.0681  150.5010 H   0  0  0  0  0  0  0  0  0  0  0  0  # atno 10718 bound_to 10713
  154.8384  135.3413  154.6502 H   0  0  0  0  0  0  0  0  0  0  0  0  # atno 10763 bound_to 10752
  153.7115  135.6963  153.5041 H   0  0  0  0  0  0  0  0  0  0  0  0  # atno 10764 bound_to 10752
  153.2448  135.4373  155.0690 H   0  0  0  0  0  0  0  0  0  0  0  0  # atno 10765 bound_to 10752
  140.1038  134.8967  157.1835 H   0  0  0  0  0  0  0  0  0  0  0  0  # atno 11005 bound_to 11000
  145.2871  141.0156  143.3684 LP  0  0  0  0  0  0  0  0  0  0  0  0  # atno 17320 bound_to 7965
  144.9105  139.4534  143.6589 LP  0  0  0  0  0  0  0  0  0  0  0  0  # atno 17321 bound_to 7965
  140.0446  144.5980  150.7384 LP  0  0  0  0  0  0  0  0  0  0  0  0  # atno 17342 bound_to 10162
  140.7314  143.2694  151.3938 LP  0  0  0  0  0  0  0  0  0  0  0  0  # atno 17343 bound_to 10162
  156.5332  130.4190  149.6191 LP  0  0  0  0  0  0  0  0  0  0  0  0  # atno 17370 bound_to 10713
  156.3051  130.7198  151.2078 LP  0  0  0  0  0  0  0  0  0  0  0  0  # atno 17371 bound_to 10713
  140.3184  134.2945  155.7251 LP  0  0  0  0  0  0  0  0  0  0  0  0  # atno 17394 bound_to 11000
  141.2113  133.7694  156.9875 LP  0  0  0  0  0  0  0  0  0  0  0  0  # atno 17395 bound_to 11000

$$$$
