AV-unprocessed.smi:261|AV-procd|sdf|1998|dock5
  -GOLD-   2262021193D 1   1.00000     0.00000
 Structure written by MMmdl.
 51 54  0  0  0  0  0  0  0  0  1 V2000
  148.5519  130.7975  154.4901 C   0  0  0  0  0  0  0  0  0  0  0  0
  148.5862  132.1826  154.7945 O   0  0  0  0  0  0  0  0  0  0  0  0
  149.8578  132.7870  154.5916 C   0  0  2  0  0  0  0  0  0  0  0  0
  150.8812  132.3456  155.6469 C   0  0  0  0  0  0  0  0  0  0  0  0
  150.6330  133.2664  156.8523 C   0  0  2  0  0  0  0  0  0  0  0  0
  149.6251  132.6477  157.8449 C   0  0  0  0  0  0  0  0  0  0  0  0
  149.2574  131.3721  157.6827 N   0  0  0  0  0  0  0  0  0  0  0  0
  149.1700  133.3353  158.7562 O   0  0  0  0  0  0  0  0  0  0  0  0
  150.1786  134.5065  156.2220 N   0  0  0  0  0  0  0  0  0  0  0  0
  150.1859  135.7381  156.8047 C   0  0  0  0  0  0  0  0  0  0  0  0
  149.8436  135.8187  158.1180 N   0  0  0  0  0  0  0  0  0  0  0  0
  149.8353  136.9931  158.7528 C   0  0  0  0  0  0  0  0  0  0  0  0
  150.1336  138.2002  158.2737 N   0  0  0  0  0  0  0  0  0  0  0  0
  150.4811  138.1360  156.9571 C   0  0  0  0  0  0  0  0  0  0  0  0
  150.5291  136.9611  156.1503 C   0  0  0  0  0  0  0  0  0  0  0  0
  150.9166  137.3083  154.8606 N   0  0  0  0  0  0  0  0  0  0  0  0
  151.0884  138.5998  154.9034 C   0  0  0  0  0  0  0  0  0  0  0  0
  150.8614  139.1794  156.1297 N   0  0  0  0  0  0  0  0  0  0  0  0
  150.9811  140.5903  156.4716 C   0  0  0  0  0  0  0  0  0  0  0  0
  151.7481  140.8559  157.7900 C   0  0  1  0  0  0  0  0  0  0  0  0
  152.9222  140.0671  157.7878 O   0  0  0  0  0  0  0  0  0  0  0  0
  152.1682  142.3253  158.0004 C   0  0  1  0  0  0  0  0  0  0  0  0
  151.0057  143.2889  158.2526 C   0  0  0  0  0  0  0  0  0  0  0  0
  151.6518  144.4395  159.0055 C   0  0  0  0  0  0  0  0  0  0  0  0
  152.9492  143.8370  159.5475 C   0  0  0  0  0  0  0  0  0  0  0  0
  152.8762  142.4552  159.2251 O   0  0  0  0  0  0  0  0  0  0  0  0
  149.7181  134.2908  154.8533 C   0  0  0  0  0  0  0  0  0  0  0  0
  150.2059  132.6024  153.5738 H   0  0  0  0  0  0  0  0  0  0  0  0
  151.5817  133.4173  157.3667 H   0  0  0  0  0  0  0  0  0  0  0  0
  147.5464  130.4138  154.6624 H   0  0  0  0  0  0  0  0  0  0  0  0
  149.2369  130.2251  155.1152 H   0  0  0  0  0  0  0  0  0  0  0  0
  148.8023  130.6189  153.4438 H   0  0  0  0  0  0  0  0  0  0  0  0
  150.8323  131.2838  155.8889 H   0  0  0  0  0  0  0  0  0  0  0  0
  151.8855  132.5316  155.2637 H   0  0  0  0  0  0  0  0  0  0  0  0
  148.5929  130.9566  158.3192 H   0  0  0  0  0  0  0  0  0  0  0  0
  149.6392  130.8322  156.9200 H   0  0  0  0  0  0  0  0  0  0  0  0
  149.5516  136.9596  159.7942 H   0  0  0  0  0  0  0  0  0  0  0  0
  151.3876  139.1618  154.0321 H   0  0  0  0  0  0  0  0  0  0  0  0
  151.4607  141.1073  155.6401 H   0  0  0  0  0  0  0  0  0  0  0  0
  149.9760  141.0080  156.5411 H   0  0  0  0  0  0  0  0  0  0  0  0
  151.1244  140.5373  158.6259 H   0  0  0  0  0  0  0  0  0  0  0  0
  152.7611  139.2862  158.2950 H   0  0  0  0  0  0  0  0  0  0  0  0
  152.7874  142.6858  157.1764 H   0  0  0  0  0  0  0  0  0  0  0  0
  150.5068  143.6154  157.3416 H   0  0  0  0  0  0  0  0  0  0  0  0
  150.2583  142.8127  158.8891 H   0  0  0  0  0  0  0  0  0  0  0  0
  151.8702  145.2742  158.3383 H   0  0  0  0  0  0  0  0  0  0  0  0
  151.0040  144.8048  159.8029 H   0  0  0  0  0  0  0  0  0  0  0  0
  153.8153  144.2789  159.0531 H   0  0  0  0  0  0  0  0  0  0  0  0
  153.0600  143.9792  160.6227 H   0  0  0  0  0  0  0  0  0  0  0  0
  150.3626  134.8504  154.1738 H   0  0  0  0  0  0  0  0  0  0  0  0
  148.6927  134.6339  154.7067 H   0  0  0  0  0  0  0  0  0  0  0  0
  1  2  1  0  0  0  0
  1 30  1  0  0  0  0
  1 31  1  0  0  0  0
  1 32  1  0  0  0  0
  2  3  1  0  0  0  0
  3 28  1  0  0  0  0
  3 27  1  0  0  0  0
  3  4  1  0  0  0  0
  4  5  1  0  0  0  0
  4 33  1  0  0  0  0
  4 34  1  0  0  0  0
  5 29  1  0  0  0  0
  5  6  1  0  0  0  0
  5  9  1  0  0  0  0
  6  7  1  0  0  0  0
  6  8  2  0  0  0  0
  7 35  1  0  0  0  0
  7 36  1  0  0  0  0
  9 10  1  0  0  0  0
  9 27  1  0  0  0  0
 10 15  1  0  0  0  0
 10 11  2  0  0  0  0
 11 12  1  0  0  0  0
 12 13  2  0  0  0  0
 12 37  1  0  0  0  0
 13 14  1  0  0  0  0
 14 18  1  0  0  0  0
 14 15  2  0  0  0  0
 15 16  1  0  0  0  0
 16 17  2  0  0  0  0
 17 18  1  0  0  0  0
 17 38  1  0  0  0  0
 18 19  1  0  0  0  0
 19 20  1  0  0  0  0
 19 39  1  0  0  0  0
 19 40  1  0  0  0  0
 20 21  1  0  0  0  0
 20 22  1  0  0  0  0
 20 41  1  0  0  0  0
 21 42  1  0  0  0  0
 22 26  1  0  0  0  0
 22 23  1  0  0  0  0
 22 43  1  0  0  0  0
 23 24  1  0  0  0  0
 23 44  1  0  0  0  0
 23 45  1  0  0  0  0
 24 25  1  0  0  0  0
 24 46  1  0  0  0  0
 24 47  1  0  0  0  0
 25 26  1  0  0  0  0
 25 48  1  0  0  0  0
 25 49  1  0  0  0  0
 27 50  1  0  0  0  0
 27 51  1  0  0  0  0
M  END
> <s_m_source_file>
AV-unprocessed.smi

> <i_m_source_file_index>
261

> <i_lp_mmshare_version>
43012

> <i_f3d_flags>
0

> <s_epik_input>
W0NIM11PW0NASF0xW0NIMl1bQ0BASF0oQyg9TylbTkgyXSlOKFtDSDJdMSljKG5bY0hdbjIpYyhjMjMpbltjSF1uM1tDSDJdW0NASF0oW09IXSlbQ0BASF00W0NIMl1bQ0gyXVtDSDJdTzQ=

> <s_epik_cmdline>
J2VwaWtfcHl0aG9uJywgJy1waCcsICc3LjAnLCAnLXRuJywgJzgnLCAnLW1hJywgJzIwMCcsICctbWV0YWxfYmluZGluZycsICctaW1hZScsICc8aW5maWxlLm1hZT4nLCAnLW9tYWUnLCAnPG91dGZpbGUubWFlPic=

> <r_lp_tautomer_probability>
1

> <r_epik_Ionization_Penalty>
0.000713824

> <r_epik_Ionization_Penalty_Charging>
0

> <r_epik_Ionization_Penalty_Neutral>
0.000713824

> <r_epik_State_Penalty>
0.000402132

> <r_epik_Charging_Adjusted_Penalty>
0.000402132

> <i_epik_Tot_Q>
0

> <i_epik_Tot_abs_Q>
0

> <r_epik_Metal_State_Penalty>
-0

> <b_epik_Metal_Only>
0

> <s_lp_Force_Field>
OPLS_2005

> <r_lp_Energy>
45.1221

> <b_lp_Chiralities_Consistent>
1

> <s_lp_Variant>
AV-unprocessed.smi:261-16

> <Gold.Version>
5.8.1

> <Gold.Id.Protein>
6NUR|6NUR_protein|mol2

> <Gold.PLP.Fitness>
42.0964

> <Gold.PLP.PLP>
-38.0938

> <Gold.PLP.part.hbond>
-2.5511

> <Gold.PLP.part.metal>
0.0000

> <Gold.PLP.part.buried>
-7.1996

> <Gold.PLP.part.nonpolar>
-28.8008

> <Gold.PLP.part.repulsive>
0.2289

> <Gold.PLP.ligand.clash>
0.0000

> <Gold.PLP.ligand.torsion>
1.0589

> <Gold.PLP.Chemscore.Hbond>
2.0000

> <Gold.PLP.Chemscore.CHOScore>
0.0000

> <Gold.PLP.Chemscore.Metal>
0.0000

> <Gold.Chemscore.Hbonds>
donor molecule, donor type, donor heavy atom, donor atom, acceptor molecule, acceptor atom, score
      P1  H  6896  6909       L1     8  0.93
      P1  H  7997  8008       L1    21  1.00

> <Gold.PLP.Chemscore.Internal.Correction>
0.1205

> <Gold.Rescore>
     Score         DG    S(hbond)    S(metal)    S(lipo)     H(rot)  DE(clash)    DE(int)     intcor
      9.10     -12.05       1.39        0.00      86.13       3.18       0.24       2.71       ----

> <Gold.Chemscore.Fitness>
9.0969

> <Gold.Chemscore.DG>
-12.0505

> <Gold.Chemscore.ZeroCoef>
-5.4800

> <Gold.Chemscore.Hbond>
1.3897

> <Gold.Chemscore.Metal>
0.0000

> <Gold.Chemscore.Lipo>
86.1340

> <Gold.Chemscore.Internal_Hbond>
0.0000

> <Gold.Chemscore.DEClash>
0.2387

> <Gold.Chemscore.DEInternal>
2.7150

> <Gold.Chemscore.Rot>
3.1831

> <Gold.Chemscore.Internal.Correction>
   9.000000E+99

> <Gold.Chemscore.Hbonds>
donor molecule, donor type, donor heavy atom, donor atom, acceptor molecule, acceptor atom, score
      P1  H  6896  6909       L1     8  0.36
      P1  H  7997  8008       L1    21  0.91

> <Gold.Chemscore.Hbond.Weighted>
-4.6415

> <Gold.Chemscore.Metal.Weighted>
-0.0000

> <Gold.Chemscore.Lipo.Weighted>
-10.0777

> <Gold.Chemscore.Internal_Hbond.Weighted>
0.0000

> <Gold.Chemscore.DEClash.Weighted>
0.2387

> <Gold.Chemscore.DEInternal.Weighted>
2.7150

> <Gold.Chemscore.Rot.Weighted>
8.1486

> <Gold.Chemscore.Internal.Correction.Weighted>
   9.000000E+99

> <Gold.Protein.RotatedTorsions>
[ 6907 6896 6895 6894 ] final   26.24 input  -60.11 | X-H torsion
[ 7974 7965 7964 7962 ] final   61.82 input  175.53 | X-H torsion
[ 8008 7997 7996 7995 ] final  -68.57 input   59.86 | X-H torsion
[ 10167 10162 10161 10158 ] final   65.32 input  -65.29 | X-H torsion
[ 10718 10713 10712 10709 ] final   71.93 input   66.30 | X-H torsion
[ 10763 10752 10751 10750 ] final   -2.97 input  -60.55 | X-H torsion
[ 11005 11000 10999 10996 ] final  -45.15 input  -57.11 | X-H torsion

> <Gold.Protein.ActiveResidues>
 VAL166  LYS551  ARG553  GLY616  TRP617  ASP618  TYR619  PRO620  LYS621  CYS622 
 ASP623  PHE694  ASN695  SER759  ASP760  ASP761  ALA762  ILE779  LEU786  VAL792 
 PHE793  MET794  SER795  GLU796  ALA797  LYS798  CYS799  TRP800  GLU811  SER814 

> <Gold.Protein.RotatedAtoms>
  151.9846  135.0011  160.0558 H   0  0  0  0  0  0  0  0  0  0  0  0  # atno 6907 bound_to 6896
  152.1665  133.4611  159.4895 H   0  0  0  0  0  0  0  0  0  0  0  0  # atno 6908 bound_to 6896
  150.6895  134.1924  159.4333 H   0  0  0  0  0  0  0  0  0  0  0  0  # atno 6909 bound_to 6896
  145.8804  139.3439  143.0709 H   0  0  0  0  0  0  0  0  0  0  0  0  # atno 7974 bound_to 7965
  154.4877  140.0870  156.7524 H   0  0  0  0  0  0  0  0  0  0  0  0  # atno 8008 bound_to 7997
  155.4308  140.3449  155.4262 H   0  0  0  0  0  0  0  0  0  0  0  0  # atno 8009 bound_to 7997
  156.1285  140.1494  156.9088 H   0  0  0  0  0  0  0  0  0  0  0  0  # atno 8010 bound_to 7997
  140.1126  144.4804  150.6968 H   0  0  0  0  0  0  0  0  0  0  0  0  # atno 10167 bound_to 10162
  157.6476  130.9553  150.0858 H   0  0  0  0  0  0  0  0  0  0  0  0  # atno 10718 bound_to 10713
  153.3651  135.6992  153.6681 H   0  0  0  0  0  0  0  0  0  0  0  0  # atno 10763 bound_to 10752
  153.5354  135.3584  155.2695 H   0  0  0  0  0  0  0  0  0  0  0  0  # atno 10764 bound_to 10752
  154.8673  135.4191  154.2917 H   0  0  0  0  0  0  0  0  0  0  0  0  # atno 10765 bound_to 10752
  141.0497  133.6748  156.2972 H   0  0  0  0  0  0  0  0  0  0  0  0  # atno 11005 bound_to 11000
  145.9030  140.9230  143.0493 LP  0  0  0  0  0  0  0  0  0  0  0  0  # atno 17320 bound_to 7965
  144.6727  140.1058  143.7458 LP  0  0  0  0  0  0  0  0  0  0  0  0  # atno 17321 bound_to 7965
  140.6917  143.2380  151.5113 LP  0  0  0  0  0  0  0  0  0  0  0  0  # atno 17342 bound_to 10162
  139.5611  144.2154  152.1692 LP  0  0  0  0  0  0  0  0  0  0  0  0  # atno 17343 bound_to 10162
  156.1821  130.3650  149.9021 LP  0  0  0  0  0  0  0  0  0  0  0  0  # atno 17370 bound_to 10713
  156.6971  130.8918  151.3595 LP  0  0  0  0  0  0  0  0  0  0  0  0  # atno 17371 bound_to 10713
  140.6079  134.5488  157.5529 LP  0  0  0  0  0  0  0  0  0  0  0  0  # atno 17394 bound_to 11000
  139.9340  134.7910  156.0853 LP  0  0  0  0  0  0  0  0  0  0  0  0  # atno 17395 bound_to 11000

$$$$
