AV-unprocessed.smi:498|AV-procd|sdf|2729|dock5
  -GOLD-   2262023173D 1   1.00000     0.00000
 Structure written by MMmdl.
 43 45  0  0  0  0  0  0  0  0  2 V2000
  148.8540  126.9595  151.0960 C   0  0  0  0  0  0  0  0  0  0  0  0
  147.5767  127.8016  151.1033 C   0  0  0  0  0  0  0  0  0  0  0  0
  147.6872  128.7936  152.1098 O   0  0  0  0  0  0  0  0  0  0  0  0
  146.4779  129.5021  152.3156 C   0  0  0  0  0  0  0  0  0  0  0  0
  146.7128  130.5810  153.3819 C   0  0  0  0  0  0  0  0  0  0  0  0
  146.8087  131.9212  152.7896 N   0  0  0  0  0  0  0  0  0  0  0  0
  147.7355  132.9079  152.9733 C   0  0  0  0  0  0  0  0  0  0  0  0
  148.9404  132.8683  153.8604 C   0  0  0  0  0  0  0  0  0  0  0  0
  149.5112  134.1951  154.0658 N   0  0  0  0  0  0  0  0  0  0  0  0
  150.3680  134.5354  155.0421 C   0  0  0  0  0  0  0  0  0  0  0  0
  150.8534  133.7288  155.8343 O   0  0  0  0  0  0  0  0  0  0  0  0
  150.6637  135.9752  155.1596 C   0  0  0  0  0  0  0  0  0  0  0  0
  149.9761  137.0803  154.7310 C   0  0  0  0  0  0  0  0  0  0  0  0
  150.7351  138.2134  155.1347 C   0  0  0  0  0  0  0  0  0  0  0  0
  151.8349  137.7201  155.7752 C   0  0  0  0  0  0  0  0  0  0  0  0
  151.8081  136.3600  155.7957 O   0  0  0  0  0  0  0  0  0  0  0  0
  147.3573  133.9613  152.1946 N   0  3  0  0  0  0  0  0  0  0  0  0
  146.1794  133.6495  151.5138 C   0  0  0  0  0  0  0  0  0  0  0  0
  145.4181  134.3953  150.6191 C   0  0  0  0  0  0  0  0  0  0  0  0
  144.2586  133.7771  150.1061 C   0  0  0  0  0  0  0  0  0  0  0  0
  143.8951  132.4684  150.4853 C   0  0  0  0  0  0  0  0  0  0  0  0
  144.6753  131.7217  151.3929 C   0  0  0  0  0  0  0  0  0  0  0  0
  145.8203  132.3403  151.8936 C   0  0  0  0  0  0  0  0  0  0  0  0
  148.8022  126.1802  150.3357 H   0  0  0  0  0  0  0  0  0  0  0  0
  149.0074  126.4750  152.0608 H   0  0  0  0  0  0  0  0  0  0  0  0
  149.7285  127.5756  150.8861 H   0  0  0  0  0  0  0  0  0  0  0  0
  147.4277  128.2700  150.1294 H   0  0  0  0  0  0  0  0  0  0  0  0
  146.7163  127.1594  151.2963 H   0  0  0  0  0  0  0  0  0  0  0  0
  146.1337  129.9515  151.3831 H   0  0  0  0  0  0  0  0  0  0  0  0
  145.7025  128.8103  152.6475 H   0  0  0  0  0  0  0  0  0  0  0  0
  145.8856  130.5984  154.0911 H   0  0  0  0  0  0  0  0  0  0  0  0
  147.6102  130.3760  153.9665 H   0  0  0  0  0  0  0  0  0  0  0  0
  148.6673  132.3885  154.8013 H   0  0  0  0  0  0  0  0  0  0  0  0
  149.7022  132.2369  153.4023 H   0  0  0  0  0  0  0  0  0  0  0  0
  149.1712  134.9321  153.4656 H   0  0  0  0  0  0  0  0  0  0  0  0
  149.0376  137.0770  154.1964 H   0  0  0  0  0  0  0  0  0  0  0  0
  150.5056  139.2567  154.9762 H   0  0  0  0  0  0  0  0  0  0  0  0
  152.6918  138.1720  156.2530 H   0  0  0  0  0  0  0  0  0  0  0  0
  145.6936  135.3984  150.3276 H   0  0  0  0  0  0  0  0  0  0  0  0
  143.6349  134.3180  149.4090 H   0  0  0  0  0  0  0  0  0  0  0  0
  142.9993  132.0275  150.0722 H   0  0  0  0  0  0  0  0  0  0  0  0
  144.3880  130.7206  151.6788 H   0  0  0  0  0  0  0  0  0  0  0  0
  147.8692  134.8323  152.1376 H   0  0  0  0  0  0  0  0  0  0  0  0
  1  2  1  0  0  0  0
  1 24  1  0  0  0  0
  1 25  1  0  0  0  0
  1 26  1  0  0  0  0
  2  3  1  0  0  0  0
  2 27  1  0  0  0  0
  2 28  1  0  0  0  0
  3  4  1  0  0  0  0
  4  5  1  0  0  0  0
  4 29  1  0  0  0  0
  4 30  1  0  0  0  0
  5  6  1  0  0  0  0
  5 31  1  0  0  0  0
  5 32  1  0  0  0  0
  6 23  1  0  0  0  0
  6  7  1  0  0  0  0
  7  8  1  0  0  0  0
  7 17  2  0  0  0  0
  8  9  1  0  0  0  0
  8 33  1  0  0  0  0
  8 34  1  0  0  0  0
  9 10  1  0  0  0  0
  9 35  1  0  0  0  0
 10 11  2  0  0  0  0
 10 12  1  0  0  0  0
 12 16  1  0  0  0  0
 12 13  2  0  0  0  0
 13 14  1  0  0  0  0
 13 36  1  0  0  0  0
 14 15  2  0  0  0  0
 14 37  1  0  0  0  0
 15 16  1  0  0  0  0
 15 38  1  0  0  0  0
 17 18  1  0  0  0  0
 17 43  1  0  0  0  0
 18 23  2  0  0  0  0
 18 19  1  0  0  0  0
 19 20  2  0  0  0  0
 19 39  1  0  0  0  0
 20 21  1  0  0  0  0
 20 40  1  0  0  0  0
 21 22  2  0  0  0  0
 21 41  1  0  0  0  0
 22 23  1  0  0  0  0
 22 42  1  0  0  0  0
M  CHG  1  17   1
M  END
> <s_m_source_file>
AV-unprocessed.smi

> <i_m_source_file_index>
498

> <i_lp_mmshare_version>
43012

> <i_f3d_flags>
0

> <s_epik_input>
W0NIM11bQ0gyXU9bQ0gyXVtDSDJdbihjKGMxMilbY0hdW2NIXVtjSF1bY0hdMiljKG4xKVtDSDJdW05IXUMoPU8pYzNbY0hdW2NIXVtjSF1vMw==

> <s_epik_cmdline>
J2VwaWtfcHl0aG9uJywgJy1waCcsICc3LjAnLCAnLXRuJywgJzgnLCAnLW1hJywgJzIwMCcsICctbWV0YWxfYmluZGluZycsICctaW1hZScsICc8aW5maWxlLm1hZT4nLCAnLW9tYWUnLCAnPG91dGZpbGUubWFlPic=

> <r_epik_Ionization_Penalty>
1.29911

> <r_epik_Ionization_Penalty_Charging>
1.29908

> <r_epik_Ionization_Penalty_Neutral>
2.77772e-05

> <r_epik_State_Penalty>
1.37286

> <r_epik_Charging_Adjusted_Penalty>
2.67194

> <i_epik_Tot_Q>
1

> <i_epik_Tot_abs_Q>
1

> <r_epik_Metal_State_Penalty>
1.47523

> <b_epik_Metal_Only>
0

> <s_lp_Force_Field>
OPLS_2005

> <r_lp_Energy>
10.1123

> <b_lp_Chiralities_Consistent>
1

> <s_lp_Variant>
AV-unprocessed.smi:498-2

> <Gold.Version>
5.8.1

> <Gold.Id.Protein>
6NUR|6NUR_protein|mol2

> <Gold.PLP.Fitness>
54.8230

> <Gold.PLP.PLP>
-45.0619

> <Gold.PLP.part.hbond>
-3.0000

> <Gold.PLP.part.metal>
0.0000

> <Gold.PLP.part.buried>
-4.7190

> <Gold.PLP.part.nonpolar>
-37.4750

> <Gold.PLP.part.repulsive>
1.1305

> <Gold.PLP.ligand.clash>
0.0000

> <Gold.PLP.ligand.torsion>
0.9432

> <Gold.PLP.Chemscore.Hbond>
3.8500

> <Gold.PLP.Chemscore.CHOScore>
0.0000

> <Gold.PLP.Chemscore.Metal>
0.0000

> <Gold.Chemscore.Hbonds>
donor molecule, donor type, donor heavy atom, donor atom, acceptor molecule, acceptor atom, score
      L1  H     9    35       P1  7948  0.84
      L1  H    17    43       P1  7948  2.00
      P1  H 10752 10765       L1    16  1.00

> <Gold.PLP.Chemscore.Internal.Correction>
0.0976

> <Gold.Rescore>
     Score         DG    S(hbond)    S(metal)    S(lipo)     H(rot)  DE(clash)    DE(int)     intcor
     17.13     -19.76       2.17        0.00     104.72       2.04       0.43       2.20       ----

> <Gold.Chemscore.Fitness>
17.1291

> <Gold.Chemscore.DG>
-19.7592

> <Gold.Chemscore.ZeroCoef>
-5.4800

> <Gold.Chemscore.Hbond>
2.1730

> <Gold.Chemscore.Metal>
0.0000

> <Gold.Chemscore.Lipo>
104.7184

> <Gold.Chemscore.Internal_Hbond>
0.0000

> <Gold.Chemscore.DEClash>
0.4281

> <Gold.Chemscore.DEInternal>
2.2021

> <Gold.Chemscore.Rot>
2.0432

> <Gold.Chemscore.Internal.Correction>
   9.000000E+99

> <Gold.Chemscore.Hbonds>
donor molecule, donor type, donor heavy atom, donor atom, acceptor molecule, acceptor atom, score
      L1  H     9    35       P1  7948  0.13
      L1  H    17    43       P1  7948  0.60
      P1  H 10752 10765       L1    16  0.48

> <Gold.Chemscore.Hbond.Weighted>
-7.2578

> <Gold.Chemscore.Metal.Weighted>
-0.0000

> <Gold.Chemscore.Lipo.Weighted>
-12.2521

> <Gold.Chemscore.Internal_Hbond.Weighted>
0.0000

> <Gold.Chemscore.DEClash.Weighted>
0.4281

> <Gold.Chemscore.DEInternal.Weighted>
2.2021

> <Gold.Chemscore.Rot.Weighted>
5.2306

> <Gold.Chemscore.Internal.Correction.Weighted>
   9.000000E+99

> <Gold.Protein.RotatedTorsions>
[ 6907 6896 6895 6894 ] final -154.90 input  -60.11 | X-H torsion
[ 7974 7965 7964 7962 ] final  146.32 input  175.53 | X-H torsion
[ 8008 7997 7996 7995 ] final -161.03 input   59.86 | X-H torsion
[ 10167 10162 10161 10158 ] final  114.68 input  -65.29 | X-H torsion
[ 10718 10713 10712 10709 ] final   23.74 input   66.30 | X-H torsion
[ 10763 10752 10751 10750 ] final -155.56 input  -60.55 | X-H torsion
[ 11005 11000 10999 10996 ] final   33.35 input  -57.11 | X-H torsion

> <Gold.Protein.ActiveResidues>
 VAL166  LYS551  ARG553  GLY616  TRP617  ASP618  TYR619  PRO620  LYS621  CYS622 
 ASP623  PHE694  ASN695  SER759  ASP760  ASP761  ALA762  ILE779  LEU786  VAL792 
 PHE793  MET794  SER795  GLU796  ALA797  LYS798  CYS799  TRP800  GLU811  SER814 

> <Gold.Protein.RotatedAtoms>
  151.2643  133.4286  159.2617 H   0  0  0  0  0  0  0  0  0  0  0  0  # atno 6907 bound_to 6896
  151.0502  134.9668  159.8217 H   0  0  0  0  0  0  0  0  0  0  0  0  # atno 6908 bound_to 6896
  152.5381  134.2598  159.8983 H   0  0  0  0  0  0  0  0  0  0  0  0  # atno 6909 bound_to 6896
  144.8680  139.5891  143.5900 H   0  0  0  0  0  0  0  0  0  0  0  0  # atno 7974 bound_to 7965
  155.7862  140.0872  157.2033 H   0  0  0  0  0  0  0  0  0  0  0  0  # atno 8008 bound_to 7997
  154.3987  140.1498  156.3167 H   0  0  0  0  0  0  0  0  0  0  0  0  # atno 8009 bound_to 7997
  155.8605  140.3430  155.5755 H   0  0  0  0  0  0  0  0  0  0  0  0  # atno 8010 bound_to 7997
  139.6371  144.7121  151.2313 H   0  0  0  0  0  0  0  0  0  0  0  0  # atno 10167 bound_to 10162
  157.1702  130.6756  149.6075 H   0  0  0  0  0  0  0  0  0  0  0  0  # atno 10718 bound_to 10713
  154.7778  135.3165  154.8056 H   0  0  0  0  0  0  0  0  0  0  0  0  # atno 10763 bound_to 10752
  153.8775  135.6838  153.4774 H   0  0  0  0  0  0  0  0  0  0  0  0  # atno 10764 bound_to 10752
  153.1406  135.4741  154.9426 H   0  0  0  0  0  0  0  0  0  0  0  0  # atno 10765 bound_to 10752
  140.2640  134.3159  155.7848 H   0  0  0  0  0  0  0  0  0  0  0  0  # atno 11005 bound_to 11000
  146.2910  139.7139  142.9161 LP  0  0  0  0  0  0  0  0  0  0  0  0  # atno 17320 bound_to 7965
  145.4184  141.0404  143.2978 LP  0  0  0  0  0  0  0  0  0  0  0  0  # atno 17321 bound_to 7965
  140.7471  143.6377  150.8363 LP  0  0  0  0  0  0  0  0  0  0  0  0  # atno 17342 bound_to 10162
  140.0010  143.5744  152.2875 LP  0  0  0  0  0  0  0  0  0  0  0  0  # atno 17343 bound_to 10162
  155.9739  130.4681  150.6350 LP  0  0  0  0  0  0  0  0  0  0  0  0  # atno 17370 bound_to 10713
  157.4050  131.0815  151.1273 LP  0  0  0  0  0  0  0  0  0  0  0  0  # atno 17371 bound_to 10713
  141.2186  133.7427  156.9232 LP  0  0  0  0  0  0  0  0  0  0  0  0  # atno 17394 bound_to 11000
  140.1437  134.9277  157.2500 LP  0  0  0  0  0  0  0  0  0  0  0  0  # atno 17395 bound_to 11000

$$$$
