AV-unprocessed.smi:90|AV-procd|sdf|832|dock2
  -GOLD-   2262017253D 1   1.00000     0.00000
 Structure written by MMmdl.
 64 67  0  0  0  0  0  0  0  0  2 V2000
  152.4744  128.3212  154.9645 C   0  0  0  0  0  0  0  0  0  0  0  0
  151.3705  129.1987  155.3454 N   0  0  0  0  0  0  0  0  0  0  0  0
  150.0088  128.8053  154.9962 C   0  0  0  0  0  0  0  0  0  0  0  0
  149.6066  129.2886  153.5885 C   0  0  0  0  0  0  0  0  0  0  0  0
  148.0777  129.4465  153.3781 C   0  0  1  0  0  0  0  0  0  0  0  0
  147.6544  130.9253  153.5702 C   0  0  0  0  0  0  0  0  0  0  0  0
  146.1535  131.1375  153.3482 C   0  0  0  0  0  0  0  0  0  0  0  0
  145.7588  130.6174  151.9663 C   0  0  0  0  0  0  0  0  0  0  0  0
  146.1705  129.1477  151.8164 C   0  0  0  0  0  0  0  0  0  0  0  0
  147.6308  128.9608  152.0312 N   0  3  2  0  0  0  0  0  0  0  0  0
  148.0231  127.5641  151.7189 C   0  0  0  0  0  0  0  0  0  0  0  0
  151.6432  130.3941  155.9441 C   0  0  0  0  0  0  0  0  0  0  0  0
  152.5833  130.4108  156.9272 N   0  0  0  0  0  0  0  0  0  0  0  0
  152.8868  131.5412  157.5690 C   0  0  0  0  0  0  0  0  0  0  0  0
  152.3834  132.7611  157.3873 N   0  0  0  0  0  0  0  0  0  0  0  0
  151.4506  132.7684  156.3941 C   0  0  0  0  0  0  0  0  0  0  0  0
  151.0202  131.6431  155.6294 C   0  0  0  0  0  0  0  0  0  0  0  0
  150.0569  132.0559  154.7136 N   0  0  0  0  0  0  0  0  0  0  0  0
  149.9178  133.3331  154.9328 C   0  0  0  0  0  0  0  0  0  0  0  0
  150.7292  133.8498  155.9155 N   0  0  0  0  0  0  0  0  0  0  0  0
  150.7747  135.2361  156.3624 C   0  0  0  0  0  0  0  0  0  0  0  0
  149.4164  135.8121  156.8647 C   0  0  0  0  0  0  0  0  0  0  0  0
  148.3945  135.9000  155.6953 C   0  0  0  0  0  0  0  0  0  0  0  0
  148.7708  136.8576  154.7259 O   0  0  0  0  0  0  0  0  0  0  0  0
  148.8394  134.9126  157.9886 C   0  0  0  0  0  0  0  0  0  0  0  0
  147.6811  135.5728  158.7603 C   0  0  0  0  0  0  0  0  0  0  0  0
  148.0925  136.8282  159.2841 O   0  0  0  0  0  0  0  0  0  0  0  0
  148.4675  137.7506  158.2696 C   0  0  0  0  0  0  0  0  0  0  0  0
  149.6784  137.2051  157.4922 C   0  0  0  0  0  0  0  0  0  0  0  0
  153.2096  128.8630  154.3686 H   0  0  0  0  0  0  0  0  0  0  0  0
  152.1201  127.4786  154.3704 H   0  0  0  0  0  0  0  0  0  0  0  0
  152.9704  127.9204  155.8489 H   0  0  0  0  0  0  0  0  0  0  0  0
  149.9524  127.7166  155.0273 H   0  0  0  0  0  0  0  0  0  0  0  0
  149.3201  129.1434  155.7670 H   0  0  0  0  0  0  0  0  0  0  0  0
  150.1048  130.2307  153.3579 H   0  0  0  0  0  0  0  0  0  0  0  0
  150.0121  128.5566  152.8930 H   0  0  0  0  0  0  0  0  0  0  0  0
  147.5676  128.8405  154.1291 H   0  0  0  0  0  0  0  0  0  0  0  0
  147.8980  131.2740  154.5727 H   0  0  0  0  0  0  0  0  0  0  0  0
  148.2138  131.5596  152.8808 H   0  0  0  0  0  0  0  0  0  0  0  0
  145.5863  130.6145  154.1193 H   0  0  0  0  0  0  0  0  0  0  0  0
  145.9046  132.1951  153.4382 H   0  0  0  0  0  0  0  0  0  0  0  0
  144.6830  130.7217  151.8213 H   0  0  0  0  0  0  0  0  0  0  0  0
  146.2380  131.2179  151.1917 H   0  0  0  0  0  0  0  0  0  0  0  0
  145.6154  128.5276  152.5225 H   0  0  0  0  0  0  0  0  0  0  0  0
  145.8981  128.8078  150.8165 H   0  0  0  0  0  0  0  0  0  0  0  0
  147.7154  126.8833  152.5137 H   0  0  0  0  0  0  0  0  0  0  0  0
  149.0982  127.4709  151.5716 H   0  0  0  0  0  0  0  0  0  0  0  0
  147.5614  127.2265  150.7905 H   0  0  0  0  0  0  0  0  0  0  0  0
  153.6387  131.4549  158.3395 H   0  0  0  0  0  0  0  0  0  0  0  0
  149.2191  133.9390  154.3741 H   0  0  0  0  0  0  0  0  0  0  0  0
  151.5193  135.2941  157.1574 H   0  0  0  0  0  0  0  0  0  0  0  0
  151.1719  135.8450  155.5494 H   0  0  0  0  0  0  0  0  0  0  0  0
  148.2849  134.9338  155.2030 H   0  0  0  0  0  0  0  0  0  0  0  0
  147.4002  136.1695  156.0477 H   0  0  0  0  0  0  0  0  0  0  0  0
  148.9084  136.4142  153.9027 H   0  0  0  0  0  0  0  0  0  0  0  0
  148.5000  133.9589  157.5832 H   0  0  0  0  0  0  0  0  0  0  0  0
  149.6291  134.6764  158.7030 H   0  0  0  0  0  0  0  0  0  0  0  0
  146.7983  135.6980  158.1331 H   0  0  0  0  0  0  0  0  0  0  0  0
  147.3805  134.9337  159.5907 H   0  0  0  0  0  0  0  0  0  0  0  0
  147.6240  137.9543  157.6094 H   0  0  0  0  0  0  0  0  0  0  0  0
  148.7278  138.6976  158.7428 H   0  0  0  0  0  0  0  0  0  0  0  0
  150.5166  137.1374  158.1871 H   0  0  0  0  0  0  0  0  0  0  0  0
  149.9847  137.9236  156.7314 H   0  0  0  0  0  0  0  0  0  0  0  0
  148.0912  129.5444  151.3474 H   0  0  0  0  0  0  0  0  0  0  0  0
  1  2  1  0  0  0  0
  1 30  1  0  0  0  0
  1 31  1  0  0  0  0
  1 32  1  0  0  0  0
  2  3  1  0  0  0  0
  2 12  1  0  0  0  0
  3  4  1  0  0  0  0
  3 33  1  0  0  0  0
  3 34  1  0  0  0  0
  4  5  1  0  0  0  0
  4 35  1  0  0  0  0
  4 36  1  0  0  0  0
  5 10  1  0  0  0  0
  5  6  1  0  0  0  0
  5 37  1  0  0  0  0
  6  7  1  0  0  0  0
  6 38  1  0  0  0  0
  6 39  1  0  0  0  0
  7  8  1  0  0  0  0
  7 40  1  0  0  0  0
  7 41  1  0  0  0  0
  8  9  1  0  0  0  0
  8 42  1  0  0  0  0
  8 43  1  0  0  0  0
  9 10  1  0  0  0  0
  9 44  1  0  0  0  0
  9 45  1  0  0  0  0
 10 11  1  0  0  0  0
 10 64  1  0  0  0  0
 11 46  1  0  0  0  0
 11 47  1  0  0  0  0
 11 48  1  0  0  0  0
 12 17  1  0  0  0  0
 12 13  2  0  0  0  0
 13 14  1  0  0  0  0
 14 15  2  0  0  0  0
 14 49  1  0  0  0  0
 15 16  1  0  0  0  0
 16 20  1  0  0  0  0
 16 17  2  0  0  0  0
 17 18  1  0  0  0  0
 18 19  2  0  0  0  0
 19 20  1  0  0  0  0
 19 50  1  0  0  0  0
 20 21  1  0  0  0  0
 21 22  1  0  0  0  0
 21 51  1  0  0  0  0
 21 52  1  0  0  0  0
 22 29  1  0  0  0  0
 22 23  1  0  0  0  0
 22 25  1  0  0  0  0
 23 24  1  0  0  0  0
 23 53  1  0  0  0  0
 23 54  1  0  0  0  0
 24 55  1  0  0  0  0
 25 26  1  0  0  0  0
 25 56  1  0  0  0  0
 25 57  1  0  0  0  0
 26 27  1  0  0  0  0
 26 58  1  0  0  0  0
 26 59  1  0  0  0  0
 27 28  1  0  0  0  0
 28 29  1  0  0  0  0
 28 60  1  0  0  0  0
 28 61  1  0  0  0  0
 29 62  1  0  0  0  0
 29 63  1  0  0  0  0
M  CHG  1  10   1
M  END
> <s_m_source_file>
AV-unprocessed.smi

> <i_m_source_file_index>
90

> <i_lp_mmshare_version>
43012

> <i_f3d_flags>
0

> <s_epik_input>
W0NIM11OMVtDSDJdW0NIMl1bQ0gyXVtDSDJdW0NASF0xW0NIMl1bQ0gyXU4oW0NIM10pYyhuW2NIXW4yKWMoYzIzKW5bY0hdbjNbQ0gyXUM0KFtDSDJdW09IXSlbQ0gyXVtDSDJdT1tDSDJdW0NIMl00

> <s_epik_cmdline>
J2VwaWtfcHl0aG9uJywgJy1waCcsICc3LjAnLCAnLXRuJywgJzgnLCAnLW1hJywgJzIwMCcsICctbWV0YWxfYmluZGluZycsICctaW1hZScsICc8aW5maWxlLm1hZT4nLCAnLW9tYWUnLCAnPG91dGZpbGUubWFlPic=

> <r_lp_tautomer_probability>
1

> <r_epik_Ionization_Penalty>
0.00234895

> <r_epik_Ionization_Penalty_Charging>
0.00106647

> <r_epik_Ionization_Penalty_Neutral>
0.00128248

> <r_epik_State_Penalty>
-0

> <r_epik_Charging_Adjusted_Penalty>
0.00106647

> <i_epik_Tot_Q>
1

> <i_epik_Tot_abs_Q>
1

> <r_epik_Metal_State_Penalty>
-0

> <b_epik_Metal_Only>
0

> <s_lp_Force_Field>
OPLS_2005

> <r_lp_Energy>
42.6574

> <b_lp_Chiralities_Consistent>
1

> <s_lp_Variant>
AV-unprocessed.smi:90-4

> <Gold.Version>
5.8.1

> <Gold.Id.Protein>
6NUR|6NUR_protein|mol2

> <Gold.PLP.Fitness>
45.1307

> <Gold.PLP.PLP>
-39.5693

> <Gold.PLP.part.hbond>
-3.0000

> <Gold.PLP.part.metal>
0.0000

> <Gold.PLP.part.buried>
-6.7400

> <Gold.PLP.part.nonpolar>
-29.7816

> <Gold.PLP.part.repulsive>
0.0673

> <Gold.PLP.ligand.clash>
0.0000

> <Gold.PLP.ligand.torsion>
1.8004

> <Gold.PLP.Chemscore.Hbond>
2.9600

> <Gold.PLP.Chemscore.CHOScore>
0.0000

> <Gold.PLP.Chemscore.Metal>
0.0000

> <Gold.Chemscore.Hbonds>
donor molecule, donor type, donor heavy atom, donor atom, acceptor molecule, acceptor atom, score
      L1  H    10    64       P1 10747  1.00
      L1  H    24    55       P1  7948  0.99
      P1  H  6896  6907       L1    15  0.86

> <Gold.PLP.Chemscore.Internal.Correction>
0.2822

> <Gold.Rescore>
     Score         DG    S(hbond)    S(metal)    S(lipo)     H(rot)  DE(clash)    DE(int)     intcor
     14.64     -16.25       2.52        0.00      79.94       2.73       0.01       1.61       ----

> <Gold.Chemscore.Fitness>
14.6353

> <Gold.Chemscore.DG>
-16.2512

> <Gold.Chemscore.ZeroCoef>
-5.4800

> <Gold.Chemscore.Hbond>
2.5206

> <Gold.Chemscore.Metal>
0.0000

> <Gold.Chemscore.Lipo>
79.9416

> <Gold.Chemscore.Internal_Hbond>
0.0000

> <Gold.Chemscore.DEClash>
0.0096

> <Gold.Chemscore.DEInternal>
1.6062

> <Gold.Chemscore.Rot>
2.7347

> <Gold.Chemscore.Internal.Correction>
   9.000000E+99

> <Gold.Chemscore.Hbonds>
donor molecule, donor type, donor heavy atom, donor atom, acceptor molecule, acceptor atom, score
      L1  H    10    64       P1 10747  0.65
      L1  H    24    55       P1  7948  0.91
      P1  H  6896  6907       L1    15  0.31

> <Gold.Chemscore.Hbond.Weighted>
-8.4189

> <Gold.Chemscore.Metal.Weighted>
-0.0000

> <Gold.Chemscore.Lipo.Weighted>
-9.3532

> <Gold.Chemscore.Internal_Hbond.Weighted>
0.0000

> <Gold.Chemscore.DEClash.Weighted>
0.0096

> <Gold.Chemscore.DEInternal.Weighted>
1.6062

> <Gold.Chemscore.Rot.Weighted>
7.0009

> <Gold.Chemscore.Internal.Correction.Weighted>
   9.000000E+99

> <Gold.Protein.RotatedTorsions>
[ 6907 6896 6895 6894 ] final  171.93 input  -60.11 | X-H torsion
[ 7974 7965 7964 7962 ] final  -17.54 input  175.53 | X-H torsion
[ 8008 7997 7996 7995 ] final  152.74 input   59.86 | X-H torsion
[ 10167 10162 10161 10158 ] final  -29.21 input  -65.29 | X-H torsion
[ 10718 10713 10712 10709 ] final  169.24 input   66.30 | X-H torsion
[ 10763 10752 10751 10750 ] final   -9.85 input  -60.55 | X-H torsion
[ 11005 11000 10999 10996 ] final -132.12 input  -57.11 | X-H torsion

> <Gold.Protein.ActiveResidues>
 VAL166  LYS551  ARG553  GLY616  TRP617  ASP618  TYR619  PRO620  LYS621  CYS622 
 ASP623  PHE694  ASN695  SER759  ASP760  ASP761  ALA762  ILE779  LEU786  VAL792 
 PHE793  MET794  SER795  GLU796  ALA797  LYS798  CYS799  TRP800  GLU811  SER814 

> <Gold.Protein.RotatedAtoms>
  151.7923  133.3360  159.3502 H   0  0  0  0  0  0  0  0  0  0  0  0  # atno 6907 bound_to 6896
  150.7387  134.5831  159.5958 H   0  0  0  0  0  0  0  0  0  0  0  0  # atno 6908 bound_to 6896
  152.3201  134.7392  160.0367 H   0  0  0  0  0  0  0  0  0  0  0  0  # atno 6909 bound_to 6896
  146.1936  140.3793  142.8449 H   0  0  0  0  0  0  0  0  0  0  0  0  # atno 7974 bound_to 7965
  156.2615  140.2012  156.6381 H   0  0  0  0  0  0  0  0  0  0  0  0  # atno 8008 bound_to 7997
  154.6631  140.0558  157.0108 H   0  0  0  0  0  0  0  0  0  0  0  0  # atno 8009 bound_to 7997
  155.1247  140.3228  155.4491 H   0  0  0  0  0  0  0  0  0  0  0  0  # atno 8010 bound_to 7997
  140.7263  143.3947  151.1368 H   0  0  0  0  0  0  0  0  0  0  0  0  # atno 10167 bound_to 10162
  157.0256  131.0244  151.2761 H   0  0  0  0  0  0  0  0  0  0  0  0  # atno 10718 bound_to 10713
  153.4608  135.7016  153.6052 H   0  0  0  0  0  0  0  0  0  0  0  0  # atno 10763 bound_to 10752
  153.4347  135.3794  155.2192 H   0  0  0  0  0  0  0  0  0  0  0  0  # atno 10764 bound_to 10752
  154.8727  135.3959  154.4033 H   0  0  0  0  0  0  0  0  0  0  0  0  # atno 10765 bound_to 10752
  140.9198  134.1458  157.4323 H   0  0  0  0  0  0  0  0  0  0  0  0  # atno 11005 bound_to 11000
  144.8535  140.7037  143.6153 LP  0  0  0  0  0  0  0  0  0  0  0  0  # atno 17320 bound_to 7965
  145.3714  139.1657  143.4330 LP  0  0  0  0  0  0  0  0  0  0  0  0  # atno 17321 bound_to 7965
  139.7558  143.8710  152.3088 LP  0  0  0  0  0  0  0  0  0  0  0  0  # atno 17342 bound_to 10162
  139.8579  144.7132  150.9135 LP  0  0  0  0  0  0  0  0  0  0  0  0  # atno 17343 bound_to 10162
  157.5217  130.8002  149.7816 LP  0  0  0  0  0  0  0  0  0  0  0  0  # atno 17370 bound_to 10713
  156.0087  130.3843  150.2339 LP  0  0  0  0  0  0  0  0  0  0  0  0  # atno 17371 bound_to 10713
  139.8773  134.9967  156.5809 LP  0  0  0  0  0  0  0  0  0  0  0  0  # atno 17394 bound_to 11000
  140.8002  133.8511  155.8720 LP  0  0  0  0  0  0  0  0  0  0  0  0  # atno 17395 bound_to 11000

$$$$
