AV-unprocessed.smi:249|AV-procd|sdf|1901|dock3
  -GOLD-   2262020573D 1   1.00000     0.00000
 Structure written by MMmdl.
 64 67  0  0  0  0  0  0  0  0  2 V2000
  144.4836  132.8629  149.3152 C   0  0  0  0  0  0  0  0  0  0  0  0
  144.0770  133.2947  150.7319 C   0  0  0  0  0  0  0  0  0  0  0  0
  144.6488  134.6079  151.1358 N   0  3  1  0  0  0  0  0  0  0  0  0
  143.9366  135.1904  152.3053 C   0  0  0  0  0  0  0  0  0  0  0  0
  144.3736  136.6400  152.5674 C   0  0  0  0  0  0  0  0  0  0  0  0
  145.9012  136.7252  152.7496 C   0  0  2  0  0  0  0  0  0  0  0  0
  146.3844  138.0685  153.0990 N   0  0  0  0  0  0  0  0  0  0  0  0
  146.7563  138.9635  152.0081 C   0  0  0  0  0  0  0  0  0  0  0  0
  147.0050  138.3442  154.2771 C   0  0  0  0  0  0  0  0  0  0  0  0
  147.0762  137.4017  155.2534 N   0  0  0  0  0  0  0  0  0  0  0  0
  147.7058  137.6619  156.4029 C   0  0  0  0  0  0  0  0  0  0  0  0
  148.3268  138.7808  156.7785 N   0  0  0  0  0  0  0  0  0  0  0  0
  148.2632  139.7319  155.8040 C   0  0  0  0  0  0  0  0  0  0  0  0
  147.6298  139.5977  154.5358 C   0  0  0  0  0  0  0  0  0  0  0  0
  147.7651  140.7778  153.8136 N   0  0  0  0  0  0  0  0  0  0  0  0
  148.4440  141.5617  154.6058 C   0  0  0  0  0  0  0  0  0  0  0  0
  148.7907  141.0114  155.8182 N   0  0  0  0  0  0  0  0  0  0  0  0
  149.5426  141.6615  156.8775 C   0  0  0  0  0  0  0  0  0  0  0  0
  151.0463  141.8242  156.5438 C   0  0  2  0  0  0  0  0  0  0  0  0
  151.7296  140.4778  156.2006 C   0  0  0  0  0  0  0  0  0  0  0  0
  151.6979  140.2215  154.8115 O   0  0  0  0  0  0  0  0  0  0  0  0
  151.7989  142.5982  157.6556 C   0  0  2  0  0  0  0  0  0  0  0  0
  151.6445  142.0206  159.0516 C   0  0  0  0  0  0  0  0  0  0  0  0
  152.0601  143.1932  159.9324 C   0  0  0  0  0  0  0  0  0  0  0  0
  151.6540  144.3622  159.2304 O   0  0  0  0  0  0  0  0  0  0  0  0
  151.3009  144.0284  157.8915 C   0  0  0  0  0  0  0  0  0  0  0  0
  146.6164  136.0907  151.5370 C   0  0  0  0  0  0  0  0  0  0  0  0
  146.1386  134.6466  151.2778 C   0  0  1  0  0  0  0  0  0  0  0  0
  146.6903  133.6500  152.3206 C   0  0  0  0  0  0  0  0  0  0  0  0
  143.9326  131.9711  149.0158 H   0  0  0  0  0  0  0  0  0  0  0  0
  145.5437  132.6184  149.2512 H   0  0  0  0  0  0  0  0  0  0  0  0
  144.2685  133.6437  148.5853 H   0  0  0  0  0  0  0  0  0  0  0  0
  142.9893  133.3740  150.7520 H   0  0  0  0  0  0  0  0  0  0  0  0
  144.3332  132.5222  151.4571 H   0  0  0  0  0  0  0  0  0  0  0  0
  142.8615  135.1786  152.1214 H   0  0  0  0  0  0  0  0  0  0  0  0
  144.1042  134.5762  153.1904 H   0  0  0  0  0  0  0  0  0  0  0  0
  144.0441  137.2622  151.7362 H   0  0  0  0  0  0  0  0  0  0  0  0
  143.8638  137.0175  153.4541 H   0  0  0  0  0  0  0  0  0  0  0  0
  146.1513  136.1095  153.6140 H   0  0  0  0  0  0  0  0  0  0  0  0
  146.1104  139.8412  152.0034 H   0  0  0  0  0  0  0  0  0  0  0  0
  146.6529  138.4726  151.0402 H   0  0  0  0  0  0  0  0  0  0  0  0
  147.7907  139.2972  152.1007 H   0  0  0  0  0  0  0  0  0  0  0  0
  147.7157  136.8581  157.1243 H   0  0  0  0  0  0  0  0  0  0  0  0
  148.7162  142.5690  154.3249 H   0  0  0  0  0  0  0  0  0  0  0  0
  149.0812  142.6328  157.0550 H   0  0  0  0  0  0  0  0  0  0  0  0
  149.4188  141.0904  157.7983 H   0  0  0  0  0  0  0  0  0  0  0  0
  151.1024  142.4321  155.6396 H   0  0  0  0  0  0  0  0  0  0  0  0
  152.7669  140.4677  156.5349 H   0  0  0  0  0  0  0  0  0  0  0  0
  151.2420  139.6517  156.7179 H   0  0  0  0  0  0  0  0  0  0  0  0
  151.2795  139.3863  154.6687 H   0  0  0  0  0  0  0  0  0  0  0  0
  152.8635  142.6365  157.4188 H   0  0  0  0  0  0  0  0  0  0  0  0
  150.6030  141.7588  159.2446 H   0  0  0  0  0  0  0  0  0  0  0  0
  152.2576  141.1356  159.2231 H   0  0  0  0  0  0  0  0  0  0  0  0
  151.6142  143.1476  160.9259 H   0  0  0  0  0  0  0  0  0  0  0  0
  153.1445  143.2162  160.0475 H   0  0  0  0  0  0  0  0  0  0  0  0
  151.7293  144.7403  157.1855 H   0  0  0  0  0  0  0  0  0  0  0  0
  150.2146  144.0798  157.8041 H   0  0  0  0  0  0  0  0  0  0  0  0
  146.4337  136.6710  150.6334 H   0  0  0  0  0  0  0  0  0  0  0  0
  147.6962  136.1055  151.6900 H   0  0  0  0  0  0  0  0  0  0  0  0
  146.5688  134.3648  150.3173 H   0  0  0  0  0  0  0  0  0  0  0  0
  147.7741  133.7386  152.4004 H   0  0  0  0  0  0  0  0  0  0  0  0
  146.4818  132.6173  152.0427 H   0  0  0  0  0  0  0  0  0  0  0  0
  146.2793  133.8163  153.3156 H   0  0  0  0  0  0  0  0  0  0  0  0
  144.4407  135.2317  150.3690 H   0  0  0  0  0  0  0  0  0  0  0  0
  1  2  1  0  0  0  0
  1 30  1  0  0  0  0
  1 31  1  0  0  0  0
  1 32  1  0  0  0  0
  2  3  1  0  0  0  0
  2 33  1  0  0  0  0
  2 34  1  0  0  0  0
  3 28  1  0  0  0  0
  3  4  1  0  0  0  0
  3 64  1  0  0  0  0
  4  5  1  0  0  0  0
  4 35  1  0  0  0  0
  4 36  1  0  0  0  0
  5  6  1  0  0  0  0
  5 37  1  0  0  0  0
  5 38  1  0  0  0  0
  6  7  1  0  0  0  0
  6 27  1  0  0  0  0
  6 39  1  0  0  0  0
  7  8  1  0  0  0  0
  7  9  1  0  0  0  0
  8 40  1  0  0  0  0
  8 41  1  0  0  0  0
  8 42  1  0  0  0  0
  9 14  1  0  0  0  0
  9 10  2  0  0  0  0
 10 11  1  0  0  0  0
 11 12  2  0  0  0  0
 11 43  1  0  0  0  0
 12 13  1  0  0  0  0
 13 17  1  0  0  0  0
 13 14  2  0  0  0  0
 14 15  1  0  0  0  0
 15 16  2  0  0  0  0
 16 17  1  0  0  0  0
 16 44  1  0  0  0  0
 17 18  1  0  0  0  0
 18 19  1  0  0  0  0
 18 45  1  0  0  0  0
 18 46  1  0  0  0  0
 19 20  1  0  0  0  0
 19 22  1  0  0  0  0
 19 47  1  0  0  0  0
 20 21  1  0  0  0  0
 20 48  1  0  0  0  0
 20 49  1  0  0  0  0
 21 50  1  0  0  0  0
 22 26  1  0  0  0  0
 22 23  1  0  0  0  0
 22 51  1  0  0  0  0
 23 24  1  0  0  0  0
 23 52  1  0  0  0  0
 23 53  1  0  0  0  0
 24 25  1  0  0  0  0
 24 54  1  0  0  0  0
 24 55  1  0  0  0  0
 25 26  1  0  0  0  0
 26 56  1  0  0  0  0
 26 57  1  0  0  0  0
 27 28  1  0  0  0  0
 27 58  1  0  0  0  0
 27 59  1  0  0  0  0
 28 29  1  0  0  0  0
 28 60  1  0  0  0  0
 29 61  1  0  0  0  0
 29 62  1  0  0  0  0
 29 63  1  0  0  0  0
M  CHG  1   3   1
M  END
> <s_m_source_file>
AV-unprocessed.smi

> <i_m_source_file_index>
249

> <i_lp_mmshare_version>
43012

> <i_f3d_flags>
0

> <s_epik_input>
W0NIM11bQ0gyXU4xW0NIMl1bQ0gyXVtDQEhdKFtDSDJdW0NASF0xW0NIM10pTihbQ0gzXSljKG5bY0hdbjIpYyhjMjMpbltjSF1uM1tDSDJdW0NASF0oW0NIMl1bT0hdKVtDQEBIXTRbQ0gyXVtDSDJdT1tDSDJdNA==

> <s_epik_cmdline>
J2VwaWtfcHl0aG9uJywgJy1waCcsICc3LjAnLCAnLXRuJywgJzgnLCAnLW1hJywgJzIwMCcsICctbWV0YWxfYmluZGluZycsICctaW1hZScsICc8aW5maWxlLm1hZT4nLCAnLW9tYWUnLCAnPG91dGZpbGUubWFlPic=

> <r_lp_tautomer_probability>
1

> <r_epik_Ionization_Penalty>
0.00294688

> <r_epik_Ionization_Penalty_Charging>
0.00169971

> <r_epik_Ionization_Penalty_Neutral>
0.00124717

> <r_epik_State_Penalty>
-0

> <r_epik_Charging_Adjusted_Penalty>
0.00169971

> <i_epik_Tot_Q>
1

> <i_epik_Tot_abs_Q>
1

> <r_epik_Metal_State_Penalty>
-0

> <b_epik_Metal_Only>
0

> <s_lp_Force_Field>
OPLS_2005

> <r_lp_Energy>
54.0004

> <b_lp_Chiralities_Consistent>
1

> <s_lp_Variant>
AV-unprocessed.smi:249-4

> <Gold.Version>
5.8.1

> <Gold.Id.Protein>
6NUR|6NUR_protein|mol2

> <Gold.PLP.Fitness>
46.7954

> <Gold.PLP.PLP>
-42.1897

> <Gold.PLP.part.hbond>
-0.8128

> <Gold.PLP.part.metal>
0.0000

> <Gold.PLP.part.buried>
-2.9500

> <Gold.PLP.part.nonpolar>
-39.0948

> <Gold.PLP.part.repulsive>
0.2511

> <Gold.PLP.ligand.clash>
0.0518

> <Gold.PLP.ligand.torsion>
1.2322

> <Gold.PLP.Chemscore.Hbond>
1.0000

> <Gold.PLP.Chemscore.CHOScore>
0.9971

> <Gold.PLP.Chemscore.Metal>
0.0000

> <Gold.Chemscore.Hbonds>
donor molecule, donor type, donor heavy atom, donor atom, acceptor molecule, acceptor atom, score
      P1  H  7989  7998       L1    21  0.78
      L1  C    16    44       P1  8028  1.00

> <Gold.PLP.Chemscore.Internal.Correction>
1.1306

> <Gold.Rescore>
     Score         DG    S(hbond)    S(metal)    S(lipo)     H(rot)  DE(clash)    DE(int)     intcor
     11.30     -14.72       0.99        0.00     108.77       2.65       0.74       2.68       ----

> <Gold.Chemscore.Fitness>
11.3009

> <Gold.Chemscore.DG>
-14.7241

> <Gold.Chemscore.ZeroCoef>
-5.4800

> <Gold.Chemscore.Hbond>
0.9899

> <Gold.Chemscore.Metal>
0.0000

> <Gold.Chemscore.Lipo>
108.7688

> <Gold.Chemscore.Internal_Hbond>
0.0000

> <Gold.Chemscore.DEClash>
0.7391

> <Gold.Chemscore.DEInternal>
2.6841

> <Gold.Chemscore.Rot>
2.6515

> <Gold.Chemscore.Internal.Correction>
   9.000000E+99

> <Gold.Chemscore.Hbonds>
donor molecule, donor type, donor heavy atom, donor atom, acceptor molecule, acceptor atom, score
      P1  H  7989  7998       L1    21  0.33

> <Gold.Chemscore.Hbond.Weighted>
-3.3061

> <Gold.Chemscore.Metal.Weighted>
-0.0000

> <Gold.Chemscore.Lipo.Weighted>
-12.7259

> <Gold.Chemscore.Internal_Hbond.Weighted>
0.0000

> <Gold.Chemscore.DEClash.Weighted>
0.7391

> <Gold.Chemscore.DEInternal.Weighted>
2.6841

> <Gold.Chemscore.Rot.Weighted>
6.7880

> <Gold.Chemscore.Internal.Correction.Weighted>
   9.000000E+99

> <Gold.Protein.RotatedTorsions>
[ 6907 6896 6895 6894 ] final -155.42 input  -60.11 | X-H torsion
[ 7974 7965 7964 7962 ] final -124.10 input  175.53 | X-H torsion
[ 8008 7997 7996 7995 ] final -174.03 input   59.86 | X-H torsion
[ 10167 10162 10161 10158 ] final   65.44 input  -65.29 | X-H torsion
[ 10718 10713 10712 10709 ] final   77.81 input   66.30 | X-H torsion
[ 10763 10752 10751 10750 ] final  -19.35 input  -60.55 | X-H torsion
[ 11005 11000 10999 10996 ] final  170.96 input  -57.11 | X-H torsion

> <Gold.Protein.ActiveResidues>
 VAL166  LYS551  ARG553  GLY616  TRP617  ASP618  TYR619  PRO620  LYS621  CYS622 
 ASP623  PHE694  ASN695  SER759  ASP760  ASP761  ALA762  ILE779  LEU786  VAL792 
 PHE793  MET794  SER795  GLU796  ALA797  LYS798  CYS799  TRP800  GLU811  SER814 

> <Gold.Protein.RotatedAtoms>
  151.2722  133.4250  159.2621 H   0  0  0  0  0  0  0  0  0  0  0  0  # atno 6907 bound_to 6896
  151.0435  134.9624  159.8184 H   0  0  0  0  0  0  0  0  0  0  0  0  # atno 6908 bound_to 6896
  152.5369  134.2679  159.9013 H   0  0  0  0  0  0  0  0  0  0  0  0  # atno 6909 bound_to 6896
  145.0117  140.7911  143.4434 H   0  0  0  0  0  0  0  0  0  0  0  0  # atno 7974 bound_to 7965
  155.9650  140.1152  157.0862 H   0  0  0  0  0  0  0  0  0  0  0  0  # atno 8008 bound_to 7997
  154.4141  140.1174  156.5297 H   0  0  0  0  0  0  0  0  0  0  0  0  # atno 8009 bound_to 7997
  155.6671  140.3473  155.4806 H   0  0  0  0  0  0  0  0  0  0  0  0  # atno 8010 bound_to 7997
  140.1113  144.4816  150.6976 H   0  0  0  0  0  0  0  0  0  0  0  0  # atno 10167 bound_to 10162
  157.6723  130.9839  150.1695 H   0  0  0  0  0  0  0  0  0  0  0  0  # atno 10718 bound_to 10713
  153.6034  135.6998  153.5375 H   0  0  0  0  0  0  0  0  0  0  0  0  # atno 10763 bound_to 10752
  153.3078  135.4110  155.1309 H   0  0  0  0  0  0  0  0  0  0  0  0  # atno 10764 bound_to 10752
  154.8578  135.3664  154.5570 H   0  0  0  0  0  0  0  0  0  0  0  0  # atno 10765 bound_to 10752
  140.3140  134.7493  157.4013 H   0  0  0  0  0  0  0  0  0  0  0  0  # atno 11005 bound_to 11000
  145.2014  139.2250  143.5191 LP  0  0  0  0  0  0  0  0  0  0  0  0  # atno 17320 bound_to 7965
  146.3471  140.1833  142.8589 LP  0  0  0  0  0  0  0  0  0  0  0  0  # atno 17321 bound_to 7965
  140.6924  143.2384  151.5094 LP  0  0  0  0  0  0  0  0  0  0  0  0  # atno 17342 bound_to 10162
  139.5618  144.2139  152.1703 LP  0  0  0  0  0  0  0  0  0  0  0  0  # atno 17343 bound_to 10162
  156.2453  130.3695  149.8292 LP  0  0  0  0  0  0  0  0  0  0  0  0  # atno 17370 bound_to 10713
  156.6080  130.8575  151.3448 LP  0  0  0  0  0  0  0  0  0  0  0  0  # atno 17371 bound_to 10713
  140.1000  134.5485  155.8362 LP  0  0  0  0  0  0  0  0  0  0  0  0  # atno 17394 bound_to 11000
  141.2102  133.6692  156.6491 LP  0  0  0  0  0  0  0  0  0  0  0  0  # atno 17395 bound_to 11000

$$$$
