AV-unprocessed.smi:213|AV-procd|sdf|1636|dock8
  -GOLD-   2262019593D 1   1.00000     0.00000
 Structure written by MMmdl.
 59 62  0  0  0  0  0  0  0  0  2 V2000
  148.7712  134.6810  156.7558 C   0  0  0  0  0  0  0  0  0  0  0  0
  148.4064  135.9044  155.8938 C   0  0  1  0  0  0  0  0  0  0  0  0
  146.9955  135.7828  155.2708 C   0  0  0  0  0  0  0  0  0  0  0  0
  147.0157  135.1718  153.9180 N   0  3  0  0  0  0  0  0  0  0  0  0
  147.6002  133.8095  153.9206 C   0  0  0  0  0  0  0  0  0  0  0  0
  147.6464  133.2393  152.4930 C   0  0  0  0  0  0  0  0  0  0  0  0
  146.3373  133.2368  151.9380 O   0  0  0  0  0  0  0  0  0  0  0  0
  145.7961  134.5489  151.8466 C   0  0  0  0  0  0  0  0  0  0  0  0
  145.6890  135.1646  153.2520 C   0  0  0  0  0  0  0  0  0  0  0  0
  148.5498  137.1490  156.6610 N   0  0  0  0  0  0  0  0  0  0  0  0
  147.6659  137.4169  157.7935 C   0  0  0  0  0  0  0  0  0  0  0  0
  149.1661  138.2268  156.0980 C   0  0  0  0  0  0  0  0  0  0  0  0
  149.0795  138.4200  154.7535 N   0  0  0  0  0  0  0  0  0  0  0  0
  149.6647  139.4730  154.1759 C   0  0  0  0  0  0  0  0  0  0  0  0
  150.3816  140.4432  154.7433 N   0  0  0  0  0  0  0  0  0  0  0  0
  150.4836  140.2562  156.0896 C   0  0  0  0  0  0  0  0  0  0  0  0
  149.9136  139.1886  156.8417 C   0  0  0  0  0  0  0  0  0  0  0  0
  150.2473  139.3356  158.1844 N   0  0  0  0  0  0  0  0  0  0  0  0
  150.9614  140.4271  158.2238 C   0  0  0  0  0  0  0  0  0  0  0  0
  151.1521  141.0438  157.0091 N   0  0  0  0  0  0  0  0  0  0  0  0
  151.9024  142.2615  156.7570 C   0  0  0  0  0  0  0  0  0  0  0  0
  151.2522  143.5007  157.4034 C   0  0  1  0  0  0  0  0  0  0  0  0
  149.9095  143.2024  157.7370 O   0  0  0  0  0  0  0  0  0  0  0  0
  151.9944  143.9484  158.6764 C   0  0  2  0  0  0  0  0  0  0  0  0
  152.2366  142.8367  159.6956 C   0  0  0  0  0  0  0  0  0  0  0  0
  152.4865  143.6211  160.9671 C   0  0  0  0  0  0  0  0  0  0  0  0
  151.6389  144.8810  160.7754 C   0  0  0  0  0  0  0  0  0  0  0  0
  151.2056  144.8691  159.4179 O   0  0  0  0  0  0  0  0  0  0  0  0
  148.7854  133.7686  156.1595 H   0  0  0  0  0  0  0  0  0  0  0  0
  148.0637  134.5273  157.5709 H   0  0  0  0  0  0  0  0  0  0  0  0
  149.7633  134.7954  157.1938 H   0  0  0  0  0  0  0  0  0  0  0  0
  149.1478  135.9260  155.0960 H   0  0  0  0  0  0  0  0  0  0  0  0
  146.3731  135.1758  155.9294 H   0  0  0  0  0  0  0  0  0  0  0  0
  146.5080  136.7570  155.2117 H   0  0  0  0  0  0  0  0  0  0  0  0
  148.6088  133.8387  154.3346 H   0  0  0  0  0  0  0  0  0  0  0  0
  147.0070  133.1579  154.5645 H   0  0  0  0  0  0  0  0  0  0  0  0
  148.3220  133.8198  151.8624 H   0  0  0  0  0  0  0  0  0  0  0  0
  148.0251  132.2171  152.5085 H   0  0  0  0  0  0  0  0  0  0  0  0
  146.4164  135.1675  151.1959 H   0  0  0  0  0  0  0  0  0  0  0  0
  144.8097  134.4921  151.3857 H   0  0  0  0  0  0  0  0  0  0  0  0
  144.9797  134.5941  153.8539 H   0  0  0  0  0  0  0  0  0  0  0  0
  145.2936  136.1765  153.1702 H   0  0  0  0  0  0  0  0  0  0  0  0
  147.2158  138.4081  157.7223 H   0  0  0  0  0  0  0  0  0  0  0  0
  148.2246  137.3572  158.7276 H   0  0  0  0  0  0  0  0  0  0  0  0
  146.8505  136.6966  157.8483 H   0  0  0  0  0  0  0  0  0  0  0  0
  149.5416  139.5493  153.1056 H   0  0  0  0  0  0  0  0  0  0  0  0
  151.3701  140.8150  159.1456 H   0  0  0  0  0  0  0  0  0  0  0  0
  152.9204  142.1267  157.1253 H   0  0  0  0  0  0  0  0  0  0  0  0
  151.9779  142.3938  155.6771 H   0  0  0  0  0  0  0  0  0  0  0  0
  151.2441  144.3206  156.6838 H   0  0  0  0  0  0  0  0  0  0  0  0
  149.3421  143.6719  157.1452 H   0  0  0  0  0  0  0  0  0  0  0  0
  152.9412  144.4281  158.4206 H   0  0  0  0  0  0  0  0  0  0  0  0
  151.3431  142.2209  159.8073 H   0  0  0  0  0  0  0  0  0  0  0  0
  153.0695  142.1858  159.4283 H   0  0  0  0  0  0  0  0  0  0  0  0
  152.2193  143.0628  161.8648 H   0  0  0  0  0  0  0  0  0  0  0  0
  153.5413  143.8897  161.0376 H   0  0  0  0  0  0  0  0  0  0  0  0
  150.7684  144.8848  161.4316 H   0  0  0  0  0  0  0  0  0  0  0  0
  152.2212  145.7802  160.9796 H   0  0  0  0  0  0  0  0  0  0  0  0
  147.6294  135.7418  153.3534 H   0  0  0  0  0  0  0  0  0  0  0  0
  1  2  1  0  0  0  0
  1 29  1  0  0  0  0
  1 30  1  0  0  0  0
  1 31  1  0  0  0  0
  2  3  1  0  0  0  0
  2 10  1  0  0  0  0
  2 32  1  0  0  0  0
  3  4  1  0  0  0  0
  3 33  1  0  0  0  0
  3 34  1  0  0  0  0
  4  9  1  0  0  0  0
  4  5  1  0  0  0  0
  4 59  1  0  0  0  0
  5  6  1  0  0  0  0
  5 35  1  0  0  0  0
  5 36  1  0  0  0  0
  6  7  1  0  0  0  0
  6 37  1  0  0  0  0
  6 38  1  0  0  0  0
  7  8  1  0  0  0  0
  8  9  1  0  0  0  0
  8 39  1  0  0  0  0
  8 40  1  0  0  0  0
  9 41  1  0  0  0  0
  9 42  1  0  0  0  0
 10 11  1  0  0  0  0
 10 12  1  0  0  0  0
 11 43  1  0  0  0  0
 11 44  1  0  0  0  0
 11 45  1  0  0  0  0
 12 17  1  0  0  0  0
 12 13  2  0  0  0  0
 13 14  1  0  0  0  0
 14 15  2  0  0  0  0
 14 46  1  0  0  0  0
 15 16  1  0  0  0  0
 16 20  1  0  0  0  0
 16 17  2  0  0  0  0
 17 18  1  0  0  0  0
 18 19  2  0  0  0  0
 19 20  1  0  0  0  0
 19 47  1  0  0  0  0
 20 21  1  0  0  0  0
 21 22  1  0  0  0  0
 21 48  1  0  0  0  0
 21 49  1  0  0  0  0
 22 23  1  0  0  0  0
 22 24  1  0  0  0  0
 22 50  1  0  0  0  0
 23 51  1  0  0  0  0
 24 28  1  0  0  0  0
 24 25  1  0  0  0  0
 24 52  1  0  0  0  0
 25 26  1  0  0  0  0
 25 53  1  0  0  0  0
 25 54  1  0  0  0  0
 26 27  1  0  0  0  0
 26 55  1  0  0  0  0
 26 56  1  0  0  0  0
 27 28  1  0  0  0  0
 27 57  1  0  0  0  0
 27 58  1  0  0  0  0
M  CHG  1   4   1
M  END
> <s_m_source_file>
AV-unprocessed.smi

> <i_m_source_file_index>
213

> <i_lp_mmshare_version>
43012

> <i_f3d_flags>
0

> <s_epik_input>
W0NIMl0xW0NIMl1PW0NIMl1bQ0gyXU4xW0NIMl1bQ0BASF0oW0NIM10pTihbQ0gzXSljKG5bY0hdbjIpYyhjMjMpbltjSF1uM1tDSDJdW0NASF0oW09IXSlbQ0BASF00W0NIMl1bQ0gyXVtDSDJdTzQ=

> <s_epik_cmdline>
J2VwaWtfcHl0aG9uJywgJy1waCcsICc3LjAnLCAnLXRuJywgJzgnLCAnLW1hJywgJzIwMCcsICctbWV0YWxfYmluZGluZycsICctaW1hZScsICc8aW5maWxlLm1hZT4nLCAnLW9tYWUnLCAnPG91dGZpbGUubWFlPic=

> <r_lp_tautomer_probability>
1

> <r_epik_Ionization_Penalty>
0.399679

> <r_epik_Ionization_Penalty_Charging>
0.399433

> <r_epik_Ionization_Penalty_Neutral>
0.000246213

> <r_epik_State_Penalty>
0.286032

> <r_epik_Charging_Adjusted_Penalty>
0.685465

> <i_epik_Tot_Q>
1

> <i_epik_Tot_abs_Q>
1

> <r_epik_Metal_State_Penalty>
0.286072

> <b_epik_Metal_Only>
0

> <s_lp_Force_Field>
OPLS_2005

> <r_lp_Energy>
43.5533

> <b_lp_Chiralities_Consistent>
1

> <s_lp_Variant>
AV-unprocessed.smi:213-4

> <Gold.Version>
5.8.1

> <Gold.Id.Protein>
6NUR|6NUR_protein|mol2

> <Gold.PLP.Fitness>
47.0479

> <Gold.PLP.PLP>
-35.7233

> <Gold.PLP.part.hbond>
-3.0000

> <Gold.PLP.part.metal>
0.0000

> <Gold.PLP.part.buried>
-5.0840

> <Gold.PLP.part.nonpolar>
-28.6550

> <Gold.PLP.part.repulsive>
0.5167

> <Gold.PLP.ligand.clash>
0.0000

> <Gold.PLP.ligand.torsion>
2.2062

> <Gold.PLP.Chemscore.Hbond>
4.0000

> <Gold.PLP.Chemscore.CHOScore>
1.0000

> <Gold.PLP.Chemscore.Metal>
0.0000

> <Gold.Chemscore.Hbonds>
donor molecule, donor type, donor heavy atom, donor atom, acceptor molecule, acceptor atom, score
      L1  H     4    59       P1  7948  1.92
      L1  H    23    51       P1  8028  1.00
      P1  H  7989  7998       L1    15  1.00
      L1  C    14    46       P1  7957  0.94

> <Gold.PLP.Chemscore.Internal.Correction>
0.7370

> <Gold.Rescore>
     Score         DG    S(hbond)    S(metal)    S(lipo)     H(rot)  DE(clash)    DE(int)     intcor
     13.37     -18.55       2.73        0.00      95.52       2.83       2.16       3.02       ----

> <Gold.Chemscore.Fitness>
13.3679

> <Gold.Chemscore.DG>
-18.5509

> <Gold.Chemscore.ZeroCoef>
-5.4800

> <Gold.Chemscore.Hbond>
2.7331

> <Gold.Chemscore.Metal>
0.0000

> <Gold.Chemscore.Lipo>
95.5166

> <Gold.Chemscore.Internal_Hbond>
0.0000

> <Gold.Chemscore.DEClash>
2.1591

> <Gold.Chemscore.DEInternal>
3.0239

> <Gold.Chemscore.Rot>
2.8254

> <Gold.Chemscore.Internal.Correction>
   9.000000E+99

> <Gold.Chemscore.Hbonds>
donor molecule, donor type, donor heavy atom, donor atom, acceptor molecule, acceptor atom, score
      L1  H     4    59       P1  7948  0.90
      L1  H    23    51       P1  8028  0.69
      P1  H  7989  7998       L1    15  0.48

> <Gold.Chemscore.Hbond.Weighted>
-9.1284

> <Gold.Chemscore.Metal.Weighted>
-0.0000

> <Gold.Chemscore.Lipo.Weighted>
-11.1754

> <Gold.Chemscore.Internal_Hbond.Weighted>
0.0000

> <Gold.Chemscore.DEClash.Weighted>
2.1591

> <Gold.Chemscore.DEInternal.Weighted>
3.0239

> <Gold.Chemscore.Rot.Weighted>
7.2330

> <Gold.Chemscore.Internal.Correction.Weighted>
   9.000000E+99

> <Gold.Protein.RotatedTorsions>
[ 6907 6896 6895 6894 ] final -177.47 input  -60.11 | X-H torsion
[ 7974 7965 7964 7962 ] final  -84.32 input  175.53 | X-H torsion
[ 8008 7997 7996 7995 ] final  154.61 input   59.86 | X-H torsion
[ 10167 10162 10161 10158 ] final  163.82 input  -65.29 | X-H torsion
[ 10718 10713 10712 10709 ] final -173.81 input   66.30 | X-H torsion
[ 10763 10752 10751 10750 ] final  173.07 input  -60.55 | X-H torsion
[ 11005 11000 10999 10996 ] final  169.02 input  -57.11 | X-H torsion

> <Gold.Protein.ActiveResidues>
 VAL166  LYS551  ARG553  GLY616  TRP617  ASP618  TYR619  PRO620  LYS621  CYS622 
 ASP623  PHE694  ASN695  SER759  ASP760  ASP761  ALA762  ILE779  LEU786  VAL792 
 PHE793  MET794  SER795  GLU796  ALA797  LYS798  CYS799  TRP800  GLU811  SER814 

> <Gold.Protein.RotatedAtoms>
  151.6215  133.3339  159.3088 H   0  0  0  0  0  0  0  0  0  0  0  0  # atno 6907 bound_to 6896
  150.8103  134.7258  159.6694 H   0  0  0  0  0  0  0  0  0  0  0  0  # atno 6908 bound_to 6896
  152.4200  134.5977  160.0043 H   0  0  0  0  0  0  0  0  0  0  0  0  # atno 6909 bound_to 6896
  145.5082  140.9542  143.1722 H   0  0  0  0  0  0  0  0  0  0  0  0  # atno 7974 bound_to 7965
  156.2522  140.1962  156.6673 H   0  0  0  0  0  0  0  0  0  0  0  0  # atno 8008 bound_to 7997
  154.6419  140.0582  156.9881 H   0  0  0  0  0  0  0  0  0  0  0  0  # atno 8009 bound_to 7997
  155.1550  140.3254  155.4426 H   0  0  0  0  0  0  0  0  0  0  0  0  # atno 8010 bound_to 7997
  139.4879  144.4298  151.9085 H   0  0  0  0  0  0  0  0  0  0  0  0  # atno 10167 bound_to 10162
  156.7757  130.9465  151.3120 H   0  0  0  0  0  0  0  0  0  0  0  0  # atno 10718 bound_to 10713
  154.4350  135.2760  155.1887 H   0  0  0  0  0  0  0  0  0  0  0  0  # atno 10763 bound_to 10752
  154.3777  135.6094  153.5777 H   0  0  0  0  0  0  0  0  0  0  0  0  # atno 10764 bound_to 10752
  152.9838  135.5873  154.4667 H   0  0  0  0  0  0  0  0  0  0  0  0  # atno 10765 bound_to 10752
  140.2933  134.7655  157.3856 H   0  0  0  0  0  0  0  0  0  0  0  0  # atno 11005 bound_to 11000
  144.7742  139.6667  143.7182 LP  0  0  0  0  0  0  0  0  0  0  0  0  # atno 17320 bound_to 7965
  146.2183  139.5589  142.9635 LP  0  0  0  0  0  0  0  0  0  0  0  0  # atno 17321 bound_to 7965
  140.3745  144.2814  150.5916 LP  0  0  0  0  0  0  0  0  0  0  0  0  # atno 17342 bound_to 10162
  140.5289  143.2248  151.8270 LP  0  0  0  0  0  0  0  0  0  0  0  0  # atno 17343 bound_to 10162
  157.6670  130.9016  149.9954 LP  0  0  0  0  0  0  0  0  0  0  0  0  # atno 17370 bound_to 10713
  156.1249  130.3645  149.9825 LP  0  0  0  0  0  0  0  0  0  0  0  0  # atno 17371 bound_to 10713
  140.1175  134.5263  155.8212 LP  0  0  0  0  0  0  0  0  0  0  0  0  # atno 17394 bound_to 11000
  141.2142  133.6745  156.6804 LP  0  0  0  0  0  0  0  0  0  0  0  0  # atno 17395 bound_to 11000

$$$$
