AV-unprocessed.smi:19|AV-procd|sdf|109|dock6
  -GOLD-   2262015273D 1   1.00000     0.00000
 Structure written by MMmdl.
 57 60  0  0  0  0  0  0  0  0  1 V2000
  144.2561  134.4590  150.9973 C   0  0  0  0  0  0  0  0  0  0  0  0
  145.3963  134.8264  151.7577 O   0  0  0  0  0  0  0  0  0  0  0  0
  145.5249  136.2247  151.9810 C   0  0  0  0  0  0  0  0  0  0  0  0
  145.0820  136.6275  153.4064 C   0  0  2  0  0  0  0  0  0  0  0  0
  145.5337  138.0429  153.8133 C   0  0  0  0  0  0  0  0  0  0  0  0
  146.9645  138.0649  154.0951 N   0  0  0  0  0  0  0  0  0  0  0  0
  147.5237  139.2996  154.1527 C   0  0  0  0  0  0  0  0  0  0  0  0
  147.0159  140.3117  153.3998 N   0  0  0  0  0  0  0  0  0  0  0  0
  147.5670  141.5281  153.4451 C   0  0  0  0  0  0  0  0  0  0  0  0
  148.6081  141.9456  154.1668 N   0  0  0  0  0  0  0  0  0  0  0  0
  149.1148  140.9394  154.9351 C   0  0  0  0  0  0  0  0  0  0  0  0
  148.6400  139.5981  154.9840 C   0  0  0  0  0  0  0  0  0  0  0  0
  149.4031  138.8595  155.8802 N   0  0  0  0  0  0  0  0  0  0  0  0
  150.2861  139.7108  156.3241 C   0  0  0  0  0  0  0  0  0  0  0  0
  150.1750  140.9896  155.8247 N   0  0  0  0  0  0  0  0  0  0  0  0
  151.0220  142.1292  156.1515 C   0  0  0  0  0  0  0  0  0  0  0  0
  151.0372  142.5270  157.6581 C   0  0  0  0  0  0  0  0  0  0  0  0
  149.6388  142.2976  158.2997 C   0  0  0  0  0  0  0  0  0  0  0  0
  148.6168  143.0020  157.6234 O   0  0  0  0  0  0  0  0  0  0  0  0
  152.0973  141.6879  158.4171 C   0  0  0  0  0  0  0  0  0  0  0  0
  152.4115  142.2346  159.8225 C   0  0  0  0  0  0  0  0  0  0  0  0
  152.8115  143.5960  159.7425 O   0  0  0  0  0  0  0  0  0  0  0  0
  151.7973  144.4370  159.2087 C   0  0  0  0  0  0  0  0  0  0  0  0
  151.4740  144.0103  157.7662 C   0  0  0  0  0  0  0  0  0  0  0  0
  147.3657  137.0735  155.0875 C   0  0  0  0  0  0  0  0  0  0  0  0
  146.9160  135.6710  154.6411 C   0  0  1  0  0  0  0  0  0  0  0  0
  147.2006  134.6120  155.7109 C   0  0  0  0  0  0  0  0  0  0  0  0
  145.5110  135.6779  154.3859 O   0  0  0  0  0  0  0  0  0  0  0  0
  144.2219  133.3740  150.8996 H   0  0  0  0  0  0  0  0  0  0  0  0
  144.2802  134.8800  149.9925 H   0  0  0  0  0  0  0  0  0  0  0  0
  143.3357  134.7776  151.4883 H   0  0  0  0  0  0  0  0  0  0  0  0
  146.5507  136.5446  151.7911 H   0  0  0  0  0  0  0  0  0  0  0  0
  144.9063  136.7281  151.2382 H   0  0  0  0  0  0  0  0  0  0  0  0
  143.9939  136.6022  153.4446 H   0  0  0  0  0  0  0  0  0  0  0  0
  145.2580  138.7562  153.0372 H   0  0  0  0  0  0  0  0  0  0  0  0
  145.0037  138.3488  154.7165 H   0  0  0  0  0  0  0  0  0  0  0  0
  147.1080  142.2735  152.8126 H   0  0  0  0  0  0  0  0  0  0  0  0
  151.0426  139.4284  157.0418 H   0  0  0  0  0  0  0  0  0  0  0  0
  152.0325  141.8889  155.8184 H   0  0  0  0  0  0  0  0  0  0  0  0
  150.7072  142.9745  155.5384 H   0  0  0  0  0  0  0  0  0  0  0  0
  149.3831  141.2379  158.3044 H   0  0  0  0  0  0  0  0  0  0  0  0
  149.6159  142.6137  159.3412 H   0  0  0  0  0  0  0  0  0  0  0  0
  149.0169  143.5756  156.9878 H   0  0  0  0  0  0  0  0  0  0  0  0
  151.7773  140.6491  158.5027 H   0  0  0  0  0  0  0  0  0  0  0  0
  153.0258  141.6750  157.8448 H   0  0  0  0  0  0  0  0  0  0  0  0
  151.5594  142.1315  160.4949 H   0  0  0  0  0  0  0  0  0  0  0  0
  153.2253  141.6610  160.2665 H   0  0  0  0  0  0  0  0  0  0  0  0
  150.9107  144.4148  159.8430 H   0  0  0  0  0  0  0  0  0  0  0  0
  152.1605  145.4647  159.2171 H   0  0  0  0  0  0  0  0  0  0  0  0
  152.3697  144.1683  157.1634 H   0  0  0  0  0  0  0  0  0  0  0  0
  150.7159  144.6714  157.3452 H   0  0  0  0  0  0  0  0  0  0  0  0
  148.4487  137.0871  155.2174 H   0  0  0  0  0  0  0  0  0  0  0  0
  146.9177  137.3253  156.0498 H   0  0  0  0  0  0  0  0  0  0  0  0
  147.4517  135.3874  153.7348 H   0  0  0  0  0  0  0  0  0  0  0  0
  148.2662  134.5590  155.9361 H   0  0  0  0  0  0  0  0  0  0  0  0
  146.8824  133.6244  155.3762 H   0  0  0  0  0  0  0  0  0  0  0  0
  146.6729  134.8363  156.6384 H   0  0  0  0  0  0  0  0  0  0  0  0
  1  2  1  0  0  0  0
  1 29  1  0  0  0  0
  1 30  1  0  0  0  0
  1 31  1  0  0  0  0
  2  3  1  0  0  0  0
  3  4  1  0  0  0  0
  3 32  1  0  0  0  0
  3 33  1  0  0  0  0
  4 28  1  0  0  0  0
  4  5  1  0  0  0  0
  4 34  1  0  0  0  0
  5  6  1  0  0  0  0
  5 35  1  0  0  0  0
  5 36  1  0  0  0  0
  6  7  1  0  0  0  0
  6 25  1  0  0  0  0
  7 12  1  0  0  0  0
  7  8  2  0  0  0  0
  8  9  1  0  0  0  0
  9 10  2  0  0  0  0
  9 37  1  0  0  0  0
 10 11  1  0  0  0  0
 11 15  1  0  0  0  0
 11 12  2  0  0  0  0
 12 13  1  0  0  0  0
 13 14  2  0  0  0  0
 14 15  1  0  0  0  0
 14 38  1  0  0  0  0
 15 16  1  0  0  0  0
 16 17  1  0  0  0  0
 16 39  1  0  0  0  0
 16 40  1  0  0  0  0
 17 24  1  0  0  0  0
 17 18  1  0  0  0  0
 17 20  1  0  0  0  0
 18 19  1  0  0  0  0
 18 41  1  0  0  0  0
 18 42  1  0  0  0  0
 19 43  1  0  0  0  0
 20 21  1  0  0  0  0
 20 44  1  0  0  0  0
 20 45  1  0  0  0  0
 21 22  1  0  0  0  0
 21 46  1  0  0  0  0
 21 47  1  0  0  0  0
 22 23  1  0  0  0  0
 23 24  1  0  0  0  0
 23 48  1  0  0  0  0
 23 49  1  0  0  0  0
 24 50  1  0  0  0  0
 24 51  1  0  0  0  0
 25 26  1  0  0  0  0
 25 52  1  0  0  0  0
 25 53  1  0  0  0  0
 26 27  1  0  0  0  0
 26 28  1  0  0  0  0
 26 54  1  0  0  0  0
 27 55  1  0  0  0  0
 27 56  1  0  0  0  0
 27 57  1  0  0  0  0
M  END
> <s_m_source_file>
AV-unprocessed.smi

> <i_m_source_file_index>
19

> <i_lp_mmshare_version>
43012

> <i_f3d_flags>
0

> <s_epik_input>
W0NIM11PW0NIMl1bQ0BASF0xW0NIMl1OKFtDSDJdW0NASF0oTzEpW0NIM10pYyhuW2NIXW4yKWMoYzIzKW5bY0hdbjNbQ0gyXUM0KFtDSDJdW09IXSlbQ0gyXVtDSDJdT1tDSDJdW0NIMl00

> <s_epik_cmdline>
J2VwaWtfcHl0aG9uJywgJy1waCcsICc3LjAnLCAnLXRuJywgJzgnLCAnLW1hJywgJzIwMCcsICctbWV0YWxfYmluZGluZycsICctaW1hZScsICc8aW5maWxlLm1hZT4nLCAnLW9tYWUnLCAnPG91dGZpbGUubWFlPic=

> <r_lp_tautomer_probability>
1

> <r_epik_Ionization_Penalty>
6.20357e-05

> <r_epik_Ionization_Penalty_Charging>
0

> <r_epik_Ionization_Penalty_Neutral>
6.20357e-05

> <r_epik_State_Penalty>
-0

> <r_epik_Charging_Adjusted_Penalty>
0

> <i_epik_Tot_Q>
0

> <i_epik_Tot_abs_Q>
0

> <r_epik_Metal_State_Penalty>
-0

> <b_epik_Metal_Only>
0

> <s_lp_Force_Field>
OPLS_2005

> <r_lp_Energy>
39.3548

> <b_lp_Chiralities_Consistent>
1

> <s_lp_Variant>
AV-unprocessed.smi:19-1

> <Gold.Version>
5.8.1

> <Gold.Id.Protein>
6NUR|6NUR_protein|mol2

> <Gold.PLP.Fitness>
40.2763

> <Gold.PLP.PLP>
-39.0955

> <Gold.PLP.part.hbond>
-2.5990

> <Gold.PLP.part.metal>
0.0000

> <Gold.PLP.part.buried>
-7.7940

> <Gold.PLP.part.nonpolar>
-29.7332

> <Gold.PLP.part.repulsive>
0.9907

> <Gold.PLP.ligand.clash>
0.0000

> <Gold.PLP.ligand.torsion>
1.3432

> <Gold.PLP.Chemscore.Hbond>
1.1404

> <Gold.PLP.Chemscore.CHOScore>
0.0000

> <Gold.PLP.Chemscore.Metal>
0.0000

> <Gold.Chemscore.Hbonds>
donor molecule, donor type, donor heavy atom, donor atom, acceptor molecule, acceptor atom, score
      L1  H    19    43       P1  8028  1.00
      P1  H  8011  8017       L1    10  0.13

> <Gold.PLP.Chemscore.Internal.Correction>
0.4460

> <Gold.Rescore>
     Score         DG    S(hbond)    S(metal)    S(lipo)     H(rot)  DE(clash)    DE(int)     intcor
      6.69     -11.14       0.74        0.00      90.19       2.87       1.27       3.19       ----

> <Gold.Chemscore.Fitness>
6.6855

> <Gold.Chemscore.DG>
-11.1391

> <Gold.Chemscore.ZeroCoef>
-5.4800

> <Gold.Chemscore.Hbond>
0.7369

> <Gold.Chemscore.Metal>
0.0000

> <Gold.Chemscore.Lipo>
90.1929

> <Gold.Chemscore.Internal_Hbond>
0.0000

> <Gold.Chemscore.DEClash>
1.2678

> <Gold.Chemscore.DEInternal>
3.1857

> <Gold.Chemscore.Rot>
2.8729

> <Gold.Chemscore.Internal.Correction>
   9.000000E+99

> <Gold.Chemscore.Hbonds>
donor molecule, donor type, donor heavy atom, donor atom, acceptor molecule, acceptor atom, score
      L1  H    19    43       P1  8028  0.57
      P1  H  8011  8017       L1    10  0.01

> <Gold.Chemscore.Hbond.Weighted>
-2.4611

> <Gold.Chemscore.Metal.Weighted>
-0.0000

> <Gold.Chemscore.Lipo.Weighted>
-10.5526

> <Gold.Chemscore.Internal_Hbond.Weighted>
0.0000

> <Gold.Chemscore.DEClash.Weighted>
1.2678

> <Gold.Chemscore.DEInternal.Weighted>
3.1857

> <Gold.Chemscore.Rot.Weighted>
7.3546

> <Gold.Chemscore.Internal.Correction.Weighted>
   9.000000E+99

> <Gold.Protein.RotatedTorsions>
[ 6907 6896 6895 6894 ] final  -18.81 input  -60.11 | X-H torsion
[ 7974 7965 7964 7962 ] final  -56.07 input  175.53 | X-H torsion
[ 8008 7997 7996 7995 ] final   69.58 input   59.86 | X-H torsion
[ 10167 10162 10161 10158 ] final  124.15 input  -65.29 | X-H torsion
[ 10718 10713 10712 10709 ] final   71.86 input   66.30 | X-H torsion
[ 10763 10752 10751 10750 ] final -145.88 input  -60.55 | X-H torsion
[ 11005 11000 10999 10996 ] final -112.10 input  -57.11 | X-H torsion

> <Gold.Protein.ActiveResidues>
 VAL166  LYS551  ARG553  GLY616  TRP617  ASP618  TYR619  PRO620  LYS621  CYS622 
 ASP623  PHE694  ASN695  SER759  ASP760  ASP761  ALA762  ILE779  LEU786  VAL792 
 PHE793  MET794  SER795  GLU796  ALA797  LYS798  CYS799  TRP800  GLU811  SER814 

> <Gold.Protein.RotatedAtoms>
  151.2726  135.0689  159.9139 H   0  0  0  0  0  0  0  0  0  0  0  0  # atno 6907 bound_to 6896
  152.5348  134.0115  159.7951 H   0  0  0  0  0  0  0  0  0  0  0  0  # atno 6908 bound_to 6896
  151.0355  133.5702  159.2687 H   0  0  0  0  0  0  0  0  0  0  0  0  # atno 6909 bound_to 6896
  145.8669  140.8244  142.9908 H   0  0  0  0  0  0  0  0  0  0  0  0  # atno 7974 bound_to 7965
  155.7258  140.3492  155.5037 H   0  0  0  0  0  0  0  0  0  0  0  0  # atno 8008 bound_to 7997
  155.9227  140.1070  157.1215 H   0  0  0  0  0  0  0  0  0  0  0  0  # atno 8009 bound_to 7997
  154.4072  140.1246  156.4688 H   0  0  0  0  0  0  0  0  0  0  0  0  # atno 8010 bound_to 7997
  139.5758  144.6962  151.3658 H   0  0  0  0  0  0  0  0  0  0  0  0  # atno 10167 bound_to 10162
  157.6472  130.9549  150.0847 H   0  0  0  0  0  0  0  0  0  0  0  0  # atno 10718 bound_to 10713
  154.8362  135.3401  154.6574 H   0  0  0  0  0  0  0  0  0  0  0  0  # atno 10763 bound_to 10752
  153.7189  135.6959  153.5022 H   0  0  0  0  0  0  0  0  0  0  0  0  # atno 10764 bound_to 10752
  153.2396  135.4389  155.0637 H   0  0  0  0  0  0  0  0  0  0  0  0  # atno 10765 bound_to 10752
  141.0695  133.9403  157.2513 H   0  0  0  0  0  0  0  0  0  0  0  0  # atno 11005 bound_to 11000
  144.6726  140.1180  143.7451 LP  0  0  0  0  0  0  0  0  0  0  0  0  # atno 17320 bound_to 7965
  145.9182  139.2529  143.1397 LP  0  0  0  0  0  0  0  0  0  0  0  0  # atno 17321 bound_to 7965
  140.7040  143.7560  150.7451 LP  0  0  0  0  0  0  0  0  0  0  0  0  # atno 17342 bound_to 10162
  140.1079  143.4727  152.2387 LP  0  0  0  0  0  0  0  0  0  0  0  0  # atno 17343 bound_to 10162
  156.1813  130.3650  149.9031 LP  0  0  0  0  0  0  0  0  0  0  0  0  # atno 17370 bound_to 10713
  156.6982  130.8923  151.3596 LP  0  0  0  0  0  0  0  0  0  0  0  0  # atno 17371 bound_to 10713
  139.9509  135.0175  156.8991 LP  0  0  0  0  0  0  0  0  0  0  0  0  # atno 17394 bound_to 11000
  140.5703  134.0449  155.7428 LP  0  0  0  0  0  0  0  0  0  0  0  0  # atno 17395 bound_to 11000

$$$$
