AV-unprocessed.smi:1797|AV-procd|sdf|7256|dock5
  -GOLD-   22720 8503D 1   1.00000     0.00000
 Structure written by MMmdl.
 30 31  0  0  0  0  0  0  0  0  1 V2000
  148.4009  135.7778  159.2057 C   0  0  0  0  0  0  0  0  0  0  0  0
  147.8995  135.4451  157.8421 C   0  0  0  0  0  0  0  0  0  0  0  0
  146.8423  134.6515  157.6363 N   0  0  0  0  0  0  0  0  0  0  0  0
  146.5648  134.4846  156.2872 N   0  0  0  0  0  0  0  0  0  0  0  0
  147.4219  135.1611  155.5087 C   0  0  0  0  0  0  0  0  0  0  0  0
  147.3892  135.1728  154.0835 N   0  0  0  0  0  0  0  0  0  0  0  0
  146.5675  134.5710  153.1969 C   0  0  0  0  0  0  0  0  0  0  0  0
  145.6460  133.8510  153.5775 O   0  0  0  0  0  0  0  0  0  0  0  0
  146.8204  134.7966  151.8971 N   0  0  0  0  0  0  0  0  0  0  0  0
  146.0661  134.2434  150.7774 C   0  0  1  0  0  0  0  0  0  0  0  0
  146.1850  132.7143  150.7781 C   0  0  0  0  0  0  0  0  0  0  0  0
  145.4193  132.1004  149.5953 C   0  0  0  0  0  0  0  0  0  0  0  0
  144.0109  132.6848  149.4107 C   0  0  0  0  0  0  0  0  0  0  0  0
  143.1871  132.0736  148.7339 O   0  0  0  0  0  0  0  0  0  0  0  0
  143.7200  133.8742  149.9663 N   0  0  0  0  0  0  0  0  0  0  0  0
  144.5811  134.6510  150.8577 C   0  0  0  0  0  0  0  0  0  0  0  0
  148.6568  136.0580  156.3773 S   0  0  0  0  0  0  0  0  0  0  0  0
  147.5680  136.0272  159.8636 H   0  0  0  0  0  0  0  0  0  0  0  0
  149.0781  136.6311  159.1632 H   0  0  0  0  0  0  0  0  0  0  0  0
  148.9371  134.9257  159.6236 H   0  0  0  0  0  0  0  0  0  0  0  0
  148.1145  135.7328  153.6598 H   0  0  0  0  0  0  0  0  0  0  0  0
  147.5970  135.4008  151.6680 H   0  0  0  0  0  0  0  0  0  0  0  0
  146.4910  134.6169  149.8434 H   0  0  0  0  0  0  0  0  0  0  0  0
  147.2336  132.4191  150.7255 H   0  0  0  0  0  0  0  0  0  0  0  0
  145.7974  132.3100  151.7147 H   0  0  0  0  0  0  0  0  0  0  0  0
  145.9727  132.2784  148.6727 H   0  0  0  0  0  0  0  0  0  0  0  0
  145.3523  131.0185  149.7145 H   0  0  0  0  0  0  0  0  0  0  0  0
  142.7967  134.2475  149.7993 H   0  0  0  0  0  0  0  0  0  0  0  0
  144.2093  134.5081  151.8732 H   0  0  0  0  0  0  0  0  0  0  0  0
  144.4638  135.7105  150.6279 H   0  0  0  0  0  0  0  0  0  0  0  0
  1  2  1  0  0  0  0
  1 18  1  0  0  0  0
  1 19  1  0  0  0  0
  1 20  1  0  0  0  0
  2 17  1  0  0  0  0
  2  3  2  0  0  0  0
  3  4  1  0  0  0  0
  4  5  2  0  0  0  0
  5  6  1  0  0  0  0
  5 17  1  0  0  0  0
  6  7  1  0  0  0  0
  6 21  1  0  0  0  0
  7  8  2  0  0  0  0
  7  9  1  0  0  0  0
  9 10  1  0  0  0  0
  9 22  1  0  0  0  0
 10 16  1  0  0  0  0
 10 11  1  0  0  0  0
 10 23  1  0  0  0  0
 11 12  1  0  0  0  0
 11 24  1  0  0  0  0
 11 25  1  0  0  0  0
 12 13  1  0  0  0  0
 12 26  1  0  0  0  0
 12 27  1  0  0  0  0
 13 14  2  0  0  0  0
 13 15  1  0  0  0  0
 15 16  1  0  0  0  0
 15 28  1  0  0  0  0
 16 29  1  0  0  0  0
 16 30  1  0  0  0  0
M  END
> <s_m_source_file>
AV-unprocessed.smi

> <i_m_source_file_index>
1797

> <i_lp_mmshare_version>
43012

> <i_f3d_flags>
0

> <s_epik_input>
W0NIM11jMW5uYyhzMSlbTkhdQyg9TylbTkhdW0NAQEhdMltDSDJdW0NIMl1DKD1PKVtOSF1bQ0gyXTI=

> <s_epik_cmdline>
J2VwaWtfcHl0aG9uJywgJy1waCcsICc3LjAnLCAnLXRuJywgJzgnLCAnLW1hJywgJzIwMCcsICctbWV0YWxfYmluZGluZycsICctaW1hZScsICc8aW5maWxlLm1hZT4nLCAnLW9tYWUnLCAnPG91dGZpbGUubWFlPic=

> <r_lp_tautomer_probability>
1

> <r_epik_Ionization_Penalty>
0.00282347

> <r_epik_Ionization_Penalty_Charging>
0

> <r_epik_Ionization_Penalty_Neutral>
0.00282347

> <r_epik_State_Penalty>
-0

> <r_epik_Charging_Adjusted_Penalty>
0

> <i_epik_Tot_Q>
0

> <i_epik_Tot_abs_Q>
0

> <r_epik_Metal_State_Penalty>
0.357935

> <b_epik_Metal_Only>
0

> <s_lp_Force_Field>
OPLS_2005

> <r_lp_Energy>
10.7191

> <b_lp_Chiralities_Consistent>
1

> <s_lp_Variant>
AV-unprocessed.smi:1797-2

> <Gold.Version>
5.8.1

> <Gold.Id.Protein>
6NUR|6NUR_protein|mol2

> <Gold.PLP.Fitness>
33.0987

> <Gold.PLP.PLP>
-21.7545

> <Gold.PLP.part.hbond>
-3.9968

> <Gold.PLP.part.metal>
0.0000

> <Gold.PLP.part.buried>
-3.6878

> <Gold.PLP.part.nonpolar>
-15.0890

> <Gold.PLP.part.repulsive>
1.0452

> <Gold.PLP.ligand.clash>
0.0000

> <Gold.PLP.ligand.torsion>
0.0052

> <Gold.PLP.Chemscore.Hbond>
3.7844

> <Gold.PLP.Chemscore.CHOScore>
0.0000

> <Gold.PLP.Chemscore.Metal>
0.0000

> <Gold.Chemscore.Hbonds>
donor molecule, donor type, donor heavy atom, donor atom, acceptor molecule, acceptor atom, score
      L1  H     6    21       P1  7948  0.86
      L1  H     9    22       P1  7948  1.00
      L1  H    15    28       P1 10186  1.00
      P1  H 10785 10796       L1    14  0.93

> <Gold.PLP.Chemscore.Internal.Correction>
0.0012

> <Gold.Rescore>
     Score         DG    S(hbond)    S(metal)    S(lipo)     H(rot)  DE(clash)    DE(int)     intcor
     17.07     -19.45       3.59        0.00      38.88       1.00       0.09       2.29       ----

> <Gold.Chemscore.Fitness>
17.0659

> <Gold.Chemscore.DG>
-19.4473

> <Gold.Chemscore.ZeroCoef>
-5.4800

> <Gold.Chemscore.Hbond>
3.5862

> <Gold.Chemscore.Metal>
0.0000

> <Gold.Chemscore.Lipo>
38.8844

> <Gold.Chemscore.Internal_Hbond>
0.0000

> <Gold.Chemscore.DEClash>
0.0904

> <Gold.Chemscore.DEInternal>
2.2910

> <Gold.Chemscore.Rot>
1.0000

> <Gold.Chemscore.Internal.Correction>
   9.000000E+99

> <Gold.Chemscore.Hbonds>
donor molecule, donor type, donor heavy atom, donor atom, acceptor molecule, acceptor atom, score
      L1  H     6    21       P1  7948  0.78
      L1  H     9    22       P1  7948  0.89
      L1  H    15    28       P1 10186  0.99
      P1  H 10785 10796       L1    14  0.87

> <Gold.Chemscore.Hbond.Weighted>
-11.9778

> <Gold.Chemscore.Metal.Weighted>
-0.0000

> <Gold.Chemscore.Lipo.Weighted>
-4.5495

> <Gold.Chemscore.Internal_Hbond.Weighted>
0.0000

> <Gold.Chemscore.DEClash.Weighted>
0.0904

> <Gold.Chemscore.DEInternal.Weighted>
2.2910

> <Gold.Chemscore.Rot.Weighted>
2.5600

> <Gold.Chemscore.Internal.Correction.Weighted>
   9.000000E+99

> <Gold.Protein.RotatedTorsions>
[ 6907 6896 6895 6894 ] final  -32.86 input  -60.11 | X-H torsion
[ 7974 7965 7964 7962 ] final  141.15 input  175.53 | X-H torsion
[ 8008 7997 7996 7995 ] final  110.06 input   59.86 | X-H torsion
[ 10167 10162 10161 10158 ] final  -87.05 input  -65.29 | X-H torsion
[ 10718 10713 10712 10709 ] final -142.72 input   66.30 | X-H torsion
[ 10763 10752 10751 10750 ] final  -83.57 input  -60.55 | X-H torsion
[ 11005 11000 10999 10996 ] final -163.33 input  -57.11 | X-H torsion

> <Gold.Protein.ActiveResidues>
 VAL166  LYS551  ARG553  GLY616  TRP617  ASP618  TYR619  PRO620  LYS621  CYS622 
 ASP623  PHE694  ASN695  SER759  ASP760  ASP761  ALA762  ILE779  LEU786  VAL792 
 PHE793  MET794  SER795  GLU796  ALA797  LYS798  CYS799  TRP800  GLU811  SER814 

> <Gold.Protein.RotatedAtoms>
  151.0731  134.9811  159.8318 H   0  0  0  0  0  0  0  0  0  0  0  0  # atno 6907 bound_to 6896
  152.5411  134.2274  159.8821 H   0  0  0  0  0  0  0  0  0  0  0  0  # atno 6908 bound_to 6896
  151.2300  133.4412  159.2637 H   0  0  0  0  0  0  0  0  0  0  0  0  # atno 6909 bound_to 6896
  144.9122  139.5278  143.5703 H   0  0  0  0  0  0  0  0  0  0  0  0  # atno 7974 bound_to 7965
  156.2025  140.3046  155.9558 H   0  0  0  0  0  0  0  0  0  0  0  0  # atno 8008 bound_to 7997
  155.2919  140.0442  157.3040 H   0  0  0  0  0  0  0  0  0  0  0  0  # atno 8009 bound_to 7997
  154.5590  140.2314  155.8374 H   0  0  0  0  0  0  0  0  0  0  0  0  # atno 8010 bound_to 7997
  140.3882  143.2717  151.9298 H   0  0  0  0  0  0  0  0  0  0  0  0  # atno 10167 bound_to 10162
  156.3493  130.7679  151.1829 H   0  0  0  0  0  0  0  0  0  0  0  0  # atno 10718 bound_to 10713
  154.5893  135.5551  153.7263 H   0  0  0  0  0  0  0  0  0  0  0  0  # atno 10763 bound_to 10752
  153.0111  135.6339  154.1871 H   0  0  0  0  0  0  0  0  0  0  0  0  # atno 10764 bound_to 10752
  154.1812  135.2887  155.3031 H   0  0  0  0  0  0  0  0  0  0  0  0  # atno 10765 bound_to 10752
  140.5993  134.4964  157.5203 H   0  0  0  0  0  0  0  0  0  0  0  0  # atno 11005 bound_to 11000
  146.3164  139.7936  142.8980 LP  0  0  0  0  0  0  0  0  0  0  0  0  # atno 17320 bound_to 7965
  145.3436  141.0293  143.3378 LP  0  0  0  0  0  0  0  0  0  0  0  0  # atno 17321 bound_to 7965
  139.4790  144.5753  151.8021 LP  0  0  0  0  0  0  0  0  0  0  0  0  # atno 17342 bound_to 10162
  140.4867  144.1370  150.5942 LP  0  0  0  0  0  0  0  0  0  0  0  0  # atno 17343 bound_to 10162
  157.7459  131.0432  150.4732 LP  0  0  0  0  0  0  0  0  0  0  0  0  # atno 17370 bound_to 10713
  156.4924  130.4098  149.6399 LP  0  0  0  0  0  0  0  0  0  0  0  0  # atno 17371 bound_to 10713
  139.9239  134.8093  156.1126 LP  0  0  0  0  0  0  0  0  0  0  0  0  # atno 17394 bound_to 11000
  141.0883  133.6725  156.2484 LP  0  0  0  0  0  0  0  0  0  0  0  0  # atno 17395 bound_to 11000

$$$$
