AV-unprocessed.smi:2226|AV-procd|sdf|9008|dock2
  -GOLD-   2272012213D 1   1.00000     0.00000
 Structure written by MMmdl.
 41 43  0  0  0  0  0  0  0  0  3 V2000
  146.7970  138.7061  152.5890 C   0  0  0  0  0  0  0  0  0  0  0  0
  146.4114  139.8824  153.4049 N   0  3  2  0  0  0  0  0  0  0  0  0
  147.3623  141.0182  153.3486 C   0  0  1  0  0  0  0  0  0  0  0  0
  146.6588  142.2930  153.8680 C   0  0  0  0  0  0  0  0  0  0  0  0
  146.0179  142.1268  155.2588 C   0  0  0  0  0  0  0  0  0  0  0  0
  145.2944  140.7753  155.4157 C   0  0  0  0  0  0  0  0  0  0  0  0
  146.0658  139.5775  154.8139 C   0  0  2  0  0  0  0  0  0  0  0  0
  147.3106  139.1240  155.6180 C   0  0  0  0  0  0  0  0  0  0  0  0
  148.5849  139.9868  155.4387 C   0  0  2  0  0  0  0  0  0  0  0  0
  148.7734  140.9073  156.5594 N   0  0  0  0  0  0  0  0  0  0  0  0
  149.8020  141.7567  156.7098 C   0  0  0  0  0  0  0  0  0  0  0  0
  150.7156  141.8725  155.8926 O   0  0  0  0  0  0  0  0  0  0  0  0
  149.7060  142.4555  157.8513 N   0  0  0  0  0  0  0  0  0  0  0  0
  150.6205  143.4386  158.2945 C   0  0  0  0  0  0  0  0  0  0  0  0
  150.3330  144.7358  158.3883 N   0  3  0  0  0  0  0  0  0  0  0  0
  151.4437  145.4014  158.8447 C   0  0  0  0  0  0  0  0  0  0  0  0
  152.4097  144.4396  159.0196 C   0  0  0  0  0  0  0  0  0  0  0  0
  151.9069  143.2000  158.6781 O   0  0  0  0  0  0  0  0  0  0  0  0
  148.6999  140.6754  154.0511 C   0  0  0  0  0  0  0  0  0  0  0  0
  147.7184  138.2424  152.9404 H   0  0  0  0  0  0  0  0  0  0  0  0
  146.9418  138.9973  151.5485 H   0  0  0  0  0  0  0  0  0  0  0  0
  146.0095  137.9526  152.6131 H   0  0  0  0  0  0  0  0  0  0  0  0
  147.5907  141.2053  152.2983 H   0  0  0  0  0  0  0  0  0  0  0  0
  147.3503  143.1363  153.8725 H   0  0  0  0  0  0  0  0  0  0  0  0
  145.8713  142.5584  153.1610 H   0  0  0  0  0  0  0  0  0  0  0  0
  146.7658  142.2486  156.0346 H   0  0  0  0  0  0  0  0  0  0  0  0
  145.3113  142.9391  155.4321 H   0  0  0  0  0  0  0  0  0  0  0  0
  145.0635  140.5934  156.4658 H   0  0  0  0  0  0  0  0  0  0  0  0
  144.3311  140.8470  154.9088 H   0  0  0  0  0  0  0  0  0  0  0  0
  145.3664  138.7402  154.8081 H   0  0  0  0  0  0  0  0  0  0  0  0
  147.0596  139.0183  156.6744 H   0  0  0  0  0  0  0  0  0  0  0  0
  147.5553  138.1116  155.2943 H   0  0  0  0  0  0  0  0  0  0  0  0
  149.4240  139.2917  155.5131 H   0  0  0  0  0  0  0  0  0  0  0  0
  148.0715  140.8810  157.2848 H   0  0  0  0  0  0  0  0  0  0  0  0
  149.4574  145.1950  158.1708 H   0  0  0  0  0  0  0  0  0  0  0  0
  151.4369  146.4713  158.9961 H   0  0  0  0  0  0  0  0  0  0  0  0
  153.4361  144.4648  159.3559 H   0  0  0  0  0  0  0  0  0  0  0  0
  149.2438  139.9925  153.3976 H   0  0  0  0  0  0  0  0  0  0  0  0
  149.3326  141.5624  154.0997 H   0  0  0  0  0  0  0  0  0  0  0  0
  145.5583  140.2193  152.9813 H   0  0  0  0  0  0  0  0  0  0  0  0
  148.9148  142.2731  158.4506 H   0  0  0  0  0  0  0  0  0  0  0  0
  1  2  1  0  0  0  0
  1 20  1  0  0  0  0
  1 21  1  0  0  0  0
  1 22  1  0  0  0  0
  2  7  1  0  0  0  0
  2  3  1  0  0  0  0
  2 40  1  0  0  0  0
  3 19  1  0  0  0  0
  3  4  1  0  0  0  0
  3 23  1  0  0  0  0
  4  5  1  0  0  0  0
  4 24  1  0  0  0  0
  4 25  1  0  0  0  0
  5  6  1  0  0  0  0
  5 26  1  0  0  0  0
  5 27  1  0  0  0  0
  6  7  1  0  0  0  0
  6 28  1  0  0  0  0
  6 29  1  0  0  0  0
  7  8  1  0  0  0  0
  7 30  1  0  0  0  0
  8  9  1  0  0  0  0
  8 31  1  0  0  0  0
  8 32  1  0  0  0  0
  9 10  1  0  0  0  0
  9 19  1  0  0  0  0
  9 33  1  0  0  0  0
 10 34  1  0  0  0  0
 10 11  1  0  0  0  0
 11 13  1  0  0  0  0
 11 12  2  0  0  0  0
 13 14  1  0  0  0  0
 13 41  1  0  0  0  0
 14 18  1  0  0  0  0
 14 15  2  0  0  0  0
 15 35  1  0  0  0  0
 15 16  1  0  0  0  0
 16 36  1  0  0  0  0
 16 17  2  0  0  0  0
 17 37  1  0  0  0  0
 17 18  1  0  0  0  0
 19 38  1  0  0  0  0
 19 39  1  0  0  0  0
M  CHG  1   2   1
M  CHG  1  15   1
M  END
> <s_m_source_file>
AV-unprocessed.smi

> <i_m_source_file_index>
2226

> <i_lp_mmshare_version>
43012

> <i_f3d_flags>
0

> <s_epik_input>
W0NIMl0xW0NIMl1bQ0gyXVtDQEhdKE4oW0NIM10pW0NIXTEyKVtDSDJdW0NASF0oW0NIMl0yKVtOSF1DKD1PKVtOSF1jM25bY0hdW2NIXW8z

> <s_epik_cmdline>
J2VwaWtfcHl0aG9uJywgJy1waCcsICc3LjAnLCAnLXRuJywgJzgnLCAnLW1hJywgJzIwMCcsICctbWV0YWxfYmluZGluZycsICctaW1hZScsICc8aW5maWxlLm1hZT4nLCAnLW9tYWUnLCAnPG91dGZpbGUubWFlPic=

> <r_epik_Ionization_Penalty>
6.92532

> <r_epik_Ionization_Penalty_Charging>
6.82059

> <r_epik_Ionization_Penalty_Neutral>
0.104727

> <r_epik_State_Penalty>
2.17671

> <r_epik_Charging_Adjusted_Penalty>
8.99731

> <i_epik_Tot_Q>
2

> <i_epik_Tot_abs_Q>
2

> <r_epik_Metal_State_Penalty>
2.20618

> <b_epik_Metal_Only>
0

> <s_lp_Force_Field>
OPLS_2005

> <r_lp_Energy>
48.5107

> <b_lp_Chiralities_Consistent>
1

> <s_lp_Variant>
AV-unprocessed.smi:2226-8

> <Gold.Version>
5.8.1

> <Gold.Id.Protein>
6NUR|6NUR_protein|mol2

> <Gold.PLP.Fitness>
42.2100

> <Gold.PLP.PLP>
-31.5108

> <Gold.PLP.part.hbond>
-2.8512

> <Gold.PLP.part.metal>
0.0000

> <Gold.PLP.part.buried>
-3.8170

> <Gold.PLP.part.nonpolar>
-24.3320

> <Gold.PLP.part.repulsive>
0.3383

> <Gold.PLP.ligand.clash>
0.0000

> <Gold.PLP.ligand.torsion>
0.6792

> <Gold.PLP.Chemscore.Hbond>
4.0000

> <Gold.PLP.Chemscore.CHOScore>
0.0000

> <Gold.PLP.Chemscore.Metal>
0.0000

> <Gold.Chemscore.Hbonds>
donor molecule, donor type, donor heavy atom, donor atom, acceptor molecule, acceptor atom, score
      L1  H     2    40       P1 10175  2.00
      L1  H    15    35       P1  8029  2.00

> <Gold.PLP.Chemscore.Internal.Correction>
0.0575

> <Gold.Rescore>
     Score         DG    S(hbond)    S(metal)    S(lipo)     H(rot)  DE(clash)    DE(int)     intcor
     14.85     -16.65       1.78        0.00      66.54       1.00       0.03       1.77       ----

> <Gold.Chemscore.Fitness>
14.8463

> <Gold.Chemscore.DG>
-16.6472

> <Gold.Chemscore.ZeroCoef>
-5.4800

> <Gold.Chemscore.Hbond>
1.7792

> <Gold.Chemscore.Metal>
0.0000

> <Gold.Chemscore.Lipo>
66.5358

> <Gold.Chemscore.Internal_Hbond>
0.0000

> <Gold.Chemscore.DEClash>
0.0320

> <Gold.Chemscore.DEInternal>
1.7690

> <Gold.Chemscore.Rot>
1.0000

> <Gold.Chemscore.Internal.Correction>
   9.000000E+99

> <Gold.Chemscore.Hbonds>
donor molecule, donor type, donor heavy atom, donor atom, acceptor molecule, acceptor atom, score
      L1  H     2    40       P1 10175  0.95
      L1  H    15    35       P1  8029  0.39

> <Gold.Chemscore.Hbond.Weighted>
-5.9425

> <Gold.Chemscore.Metal.Weighted>
-0.0000

> <Gold.Chemscore.Lipo.Weighted>
-7.7847

> <Gold.Chemscore.Internal_Hbond.Weighted>
0.0000

> <Gold.Chemscore.DEClash.Weighted>
0.0320

> <Gold.Chemscore.DEInternal.Weighted>
1.7690

> <Gold.Chemscore.Rot.Weighted>
2.5600

> <Gold.Chemscore.Internal.Correction.Weighted>
   9.000000E+99

> <Gold.Protein.RotatedTorsions>
[ 6907 6896 6895 6894 ] final -108.21 input  -60.11 | X-H torsion
[ 7974 7965 7964 7962 ] final  173.31 input  175.53 | X-H torsion
[ 8008 7997 7996 7995 ] final  -37.34 input   59.86 | X-H torsion
[ 10167 10162 10161 10158 ] final  -92.26 input  -65.29 | X-H torsion
[ 10718 10713 10712 10709 ] final  -48.86 input   66.30 | X-H torsion
[ 10763 10752 10751 10750 ] final  105.83 input  -60.55 | X-H torsion
[ 11005 11000 10999 10996 ] final  142.04 input  -57.11 | X-H torsion

> <Gold.Protein.ActiveResidues>
 VAL166  LYS551  ARG553  GLY616  TRP617  ASP618  TYR619  PRO620  LYS621  CYS622 
 ASP623  PHE694  ASN695  SER759  ASP760  ASP761  ALA762  ILE779  LEU786  VAL792 
 PHE793  MET794  SER795  GLU796  ALA797  LYS798  CYS799  TRP800  GLU811  SER814 

> <Gold.Protein.RotatedAtoms>
  150.7488  133.9711  159.3545 H   0  0  0  0  0  0  0  0  0  0  0  0  # atno 6907 bound_to 6896
  151.7645  135.0800  160.0360 H   0  0  0  0  0  0  0  0  0  0  0  0  # atno 6908 bound_to 6896
  152.3381  133.5998  159.5893 H   0  0  0  0  0  0  0  0  0  0  0  0  # atno 6909 bound_to 6896
  144.7247  139.9629  143.6435 H   0  0  0  0  0  0  0  0  0  0  0  0  # atno 7974 bound_to 7965
  154.4055  140.1607  156.2521 H   0  0  0  0  0  0  0  0  0  0  0  0  # atno 8008 bound_to 7997
  155.9110  140.3427  155.6076 H   0  0  0  0  0  0  0  0  0  0  0  0  # atno 8009 bound_to 7997
  155.7336  140.0783  157.2268 H   0  0  0  0  0  0  0  0  0  0  0  0  # atno 8010 bound_to 7997
  140.3366  143.2965  151.9882 H   0  0  0  0  0  0  0  0  0  0  0  0  # atno 10167 bound_to 10162
  156.1948  130.4154  149.9321 H   0  0  0  0  0  0  0  0  0  0  0  0  # atno 10718 bound_to 10713
  153.3847  135.3897  155.1881 H   0  0  0  0  0  0  0  0  0  0  0  0  # atno 10763 bound_to 10752
  154.8712  135.3734  154.4812 H   0  0  0  0  0  0  0  0  0  0  0  0  # atno 10764 bound_to 10752
  153.5293  135.7086  153.5753 H   0  0  0  0  0  0  0  0  0  0  0  0  # atno 10765 bound_to 10752
  140.0446  134.9287  157.0907 H   0  0  0  0  0  0  0  0  0  0  0  0  # atno 11005 bound_to 11000
  146.0623  139.3616  143.0573 LP  0  0  0  0  0  0  0  0  0  0  0  0  # atno 17320 bound_to 7965
  145.8076  140.9741  143.0966 LP  0  0  0  0  0  0  0  0  0  0  0  0  # atno 17321 bound_to 7965
  139.4847  144.6191  151.7290 LP  0  0  0  0  0  0  0  0  0  0  0  0  # atno 17342 bound_to 10162
  140.5347  144.0674  150.6066 LP  0  0  0  0  0  0  0  0  0  0  0  0  # atno 17343 bound_to 10162
  156.7050  130.8948  151.3603 LP  0  0  0  0  0  0  0  0  0  0  0  0  # atno 17370 bound_to 10713
  157.6951  130.9273  150.0621 LP  0  0  0  0  0  0  0  0  0  0  0  0  # atno 17371 bound_to 10713
  140.4013  134.2079  155.7163 LP  0  0  0  0  0  0  0  0  0  0  0  0  # atno 17394 bound_to 11000
  141.1901  133.8225  157.0933 LP  0  0  0  0  0  0  0  0  0  0  0  0  # atno 17395 bound_to 11000

$$$$
