AV-unprocessed.smi:2069|AV-procd|sdf|8434|dock5
  -GOLD-   2272011133D 1   1.00000     0.00000
 Structure written by MMmdl.
 39 40  0  0  0  0  0  0  0  0  2 V2000
  153.7043  137.7667  157.1917 C   0  0  0  0  0  0  0  0  0  0  0  0
  152.7399  138.3302  156.2049 C   0  0  0  0  0  0  0  0  0  0  0  0
  152.8167  139.5892  155.7567 N   0  0  0  0  0  0  0  0  0  0  0  0
  151.8154  139.8840  154.8420 N   0  0  0  0  0  0  0  0  0  0  0  0
  151.0113  138.8341  154.6258 C   0  0  0  0  0  0  0  0  0  0  0  0
  149.9084  138.8561  153.7316 N   0  0  0  0  0  0  0  0  0  0  0  0
  148.6412  138.4711  153.9632 C   0  0  0  0  0  0  0  0  0  0  0  0
  148.2194  138.0000  155.0199 O   0  0  0  0  0  0  0  0  0  0  0  0
  147.8679  138.6667  152.8857 N   0  0  0  0  0  0  0  0  0  0  0  0
  146.4412  138.3637  152.8209 C   0  0  0  0  0  0  0  0  0  0  0  0
  146.0612  137.0605  153.5736 C   0  0  1  0  0  0  0  0  0  0  0  0
  144.6290  137.1776  154.1498 C   0  0  0  0  0  0  0  0  0  0  0  0
  146.2520  135.8718  152.6798 N   0  3  0  0  0  0  0  0  0  0  0  0
  146.3227  134.5937  153.4400 C   0  0  0  0  0  0  0  0  0  0  0  0
  146.6178  133.4096  152.5056 C   0  0  0  0  0  0  0  0  0  0  0  0
  145.6104  133.3334  151.5081 O   0  0  0  0  0  0  0  0  0  0  0  0
  145.5853  134.5022  150.7024 C   0  0  0  0  0  0  0  0  0  0  0  0
  145.2687  135.7327  151.5702 C   0  0  0  0  0  0  0  0  0  0  0  0
  151.4164  137.3864  155.5318 S   0  0  0  0  0  0  0  0  0  0  0  0
  154.0612  138.5477  157.8638 H   0  0  0  0  0  0  0  0  0  0  0  0
  154.5583  137.3335  156.6709 H   0  0  0  0  0  0  0  0  0  0  0  0
  153.2242  136.9894  157.7861 H   0  0  0  0  0  0  0  0  0  0  0  0
  150.1072  139.2163  152.8098 H   0  0  0  0  0  0  0  0  0  0  0  0
  148.2919  139.0556  152.0560 H   0  0  0  0  0  0  0  0  0  0  0  0
  145.9016  139.2072  153.2525 H   0  0  0  0  0  0  0  0  0  0  0  0
  146.1524  138.3298  151.7711 H   0  0  0  0  0  0  0  0  0  0  0  0
  146.7309  136.9359  154.4263 H   0  0  0  0  0  0  0  0  0  0  0  0
  144.5151  138.0653  154.7716 H   0  0  0  0  0  0  0  0  0  0  0  0
  144.3767  136.3350  154.7936 H   0  0  0  0  0  0  0  0  0  0  0  0
  143.8833  137.2382  153.3564 H   0  0  0  0  0  0  0  0  0  0  0  0
  147.0950  134.6301  154.2059 H   0  0  0  0  0  0  0  0  0  0  0  0
  145.3768  134.4253  153.9574 H   0  0  0  0  0  0  0  0  0  0  0  0
  147.6022  133.5088  152.0450 H   0  0  0  0  0  0  0  0  0  0  0  0
  146.6237  132.4779  153.0717 H   0  0  0  0  0  0  0  0  0  0  0  0
  146.5402  134.6247  150.1884 H   0  0  0  0  0  0  0  0  0  0  0  0
  144.8240  134.3817  149.9315 H   0  0  0  0  0  0  0  0  0  0  0  0
  144.2605  135.6536  151.9801 H   0  0  0  0  0  0  0  0  0  0  0  0
  145.2910  136.6051  150.9180 H   0  0  0  0  0  0  0  0  0  0  0  0
  147.1491  135.9981  152.2334 H   0  0  0  0  0  0  0  0  0  0  0  0
  1  2  1  0  0  0  0
  1 20  1  0  0  0  0
  1 21  1  0  0  0  0
  1 22  1  0  0  0  0
  2 19  1  0  0  0  0
  2  3  2  0  0  0  0
  3  4  1  0  0  0  0
  4  5  2  0  0  0  0
  5  6  1  0  0  0  0
  5 19  1  0  0  0  0
  6  7  1  0  0  0  0
  6 23  1  0  0  0  0
  7  8  2  0  0  0  0
  7  9  1  0  0  0  0
  9 10  1  0  0  0  0
  9 24  1  0  0  0  0
 10 11  1  0  0  0  0
 10 25  1  0  0  0  0
 10 26  1  0  0  0  0
 11 12  1  0  0  0  0
 11 13  1  0  0  0  0
 11 27  1  0  0  0  0
 12 28  1  0  0  0  0
 12 29  1  0  0  0  0
 12 30  1  0  0  0  0
 13 18  1  0  0  0  0
 13 14  1  0  0  0  0
 13 39  1  0  0  0  0
 14 15  1  0  0  0  0
 14 31  1  0  0  0  0
 14 32  1  0  0  0  0
 15 16  1  0  0  0  0
 15 33  1  0  0  0  0
 15 34  1  0  0  0  0
 16 17  1  0  0  0  0
 17 18  1  0  0  0  0
 17 35  1  0  0  0  0
 17 36  1  0  0  0  0
 18 37  1  0  0  0  0
 18 38  1  0  0  0  0
M  CHG  1  13   1
M  END
> <s_m_source_file>
AV-unprocessed.smi

> <i_m_source_file_index>
2069

> <i_lp_mmshare_version>
43012

> <i_f3d_flags>
0

> <s_epik_input>
W0NIM11jMW5uYyhzMSlbTkhdQyg9TylbTkhdW0NIMl1bQ0BIXShbQ0gzXSlOMltDSDJdW0NIMl1PW0NIMl1bQ0gyXTI=

> <s_epik_cmdline>
J2VwaWtfcHl0aG9uJywgJy1waCcsICc3LjAnLCAnLXRuJywgJzgnLCAnLW1hJywgJzIwMCcsICctbWV0YWxfYmluZGluZycsICctaW1hZScsICc8aW5maWxlLm1hZT4nLCAnLW9tYWUnLCAnPG91dGZpbGUubWFlPic=

> <r_lp_tautomer_probability>
1

> <r_epik_Ionization_Penalty>
0.70016

> <r_epik_Ionization_Penalty_Charging>
0.695697

> <r_epik_Ionization_Penalty_Neutral>
0.00446266

> <r_epik_State_Penalty>
0.717972

> <r_epik_Charging_Adjusted_Penalty>
1.41367

> <i_epik_Tot_Q>
1

> <i_epik_Tot_abs_Q>
1

> <r_epik_Metal_State_Penalty>
1.06969

> <b_epik_Metal_Only>
0

> <s_lp_Force_Field>
OPLS_2005

> <r_lp_Energy>
18.8851

> <b_lp_Chiralities_Consistent>
1

> <s_lp_Variant>
AV-unprocessed.smi:2069-4

> <Gold.Version>
5.8.1

> <Gold.Id.Protein>
6NUR|6NUR_protein|mol2

> <Gold.PLP.Fitness>
42.6451

> <Gold.PLP.PLP>
-26.8564

> <Gold.PLP.part.hbond>
-5.9346

> <Gold.PLP.part.metal>
0.0000

> <Gold.PLP.part.buried>
-1.5025

> <Gold.PLP.part.nonpolar>
-18.7290

> <Gold.PLP.part.repulsive>
0.4593

> <Gold.PLP.ligand.clash>
0.0000

> <Gold.PLP.ligand.torsion>
1.1163

> <Gold.PLP.Chemscore.Hbond>
5.9920

> <Gold.PLP.Chemscore.CHOScore>
0.0000

> <Gold.PLP.Chemscore.Metal>
0.0000

> <Gold.Chemscore.Hbonds>
donor molecule, donor type, donor heavy atom, donor atom, acceptor molecule, acceptor atom, score
      L1  H     6    23       P1  7957  1.00
      L1  H     9    24       P1  7957  1.00
      L1  H    13    39       P1  7948  2.00
      P1  H  7989  7998       L1     4  0.99
      P1  H  7997  8008       L1     3  1.00

> <Gold.PLP.Chemscore.Internal.Correction>
0.0453

> <Gold.Rescore>
     Score         DG    S(hbond)    S(metal)    S(lipo)     H(rot)  DE(clash)    DE(int)     intcor
     19.00     -21.56       4.45        0.00      46.31       1.65       0.19       2.37       ----

> <Gold.Chemscore.Fitness>
18.9958

> <Gold.Chemscore.DG>
-21.5559

> <Gold.Chemscore.ZeroCoef>
-5.4800

> <Gold.Chemscore.Hbond>
4.4539

> <Gold.Chemscore.Metal>
0.0000

> <Gold.Chemscore.Lipo>
46.3051

> <Gold.Chemscore.Internal_Hbond>
0.0000

> <Gold.Chemscore.DEClash>
0.1947

> <Gold.Chemscore.DEInternal>
2.3653

> <Gold.Chemscore.Rot>
1.6476

> <Gold.Chemscore.Internal.Correction>
   9.000000E+99

> <Gold.Chemscore.Hbonds>
donor molecule, donor type, donor heavy atom, donor atom, acceptor molecule, acceptor atom, score
      L1  H     6    23       P1  7957  0.83
      L1  H     9    24       P1  7957  0.97
      L1  H    13    39       P1  7948  1.00
      P1  H  7989  7998       L1     4  0.51
      P1  H  7997  8008       L1     3  0.74

> <Gold.Chemscore.Hbond.Weighted>
-14.8761

> <Gold.Chemscore.Metal.Weighted>
-0.0000

> <Gold.Chemscore.Lipo.Weighted>
-5.4177

> <Gold.Chemscore.Internal_Hbond.Weighted>
0.0000

> <Gold.Chemscore.DEClash.Weighted>
0.1947

> <Gold.Chemscore.DEInternal.Weighted>
2.3653

> <Gold.Chemscore.Rot.Weighted>
4.2179

> <Gold.Chemscore.Internal.Correction.Weighted>
   9.000000E+99

> <Gold.Protein.RotatedTorsions>
[ 6907 6896 6895 6894 ] final  -36.30 input  -60.11 | X-H torsion
[ 7974 7965 7964 7962 ] final   84.29 input  175.53 | X-H torsion
[ 8008 7997 7996 7995 ] final  -20.34 input   59.86 | X-H torsion
[ 10167 10162 10161 10158 ] final   -1.81 input  -65.29 | X-H torsion
[ 10718 10713 10712 10709 ] final -172.13 input   66.30 | X-H torsion
[ 10763 10752 10751 10750 ] final   10.43 input  -60.55 | X-H torsion
[ 11005 11000 10999 10996 ] final  -92.17 input  -57.11 | X-H torsion

> <Gold.Protein.ActiveResidues>
 VAL166  LYS551  ARG553  GLY616  TRP617  ASP618  TYR619  PRO620  LYS621  CYS622 
 ASP623  PHE694  ASN695  SER759  ASP760  ASP761  ALA762  ILE779  LEU786  VAL792 
 PHE793  MET794  SER795  GLU796  ALA797  LYS798  CYS799  TRP800  GLU811  SER814 

> <Gold.Protein.RotatedAtoms>
  151.0289  134.9524  159.8099 H   0  0  0  0  0  0  0  0  0  0  0  0  # atno 6907 bound_to 6896
  152.5341  134.2806  159.9016 H   0  0  0  0  0  0  0  0  0  0  0  0  # atno 6908 bound_to 6896
  151.2815  133.4165  159.2661 H   0  0  0  0  0  0  0  0  0  0  0  0  # atno 6909 bound_to 6896
  145.6007  139.2352  143.2247 H   0  0  0  0  0  0  0  0  0  0  0  0  # atno 7974 bound_to 7965
  154.4776  140.2064  155.9840 H   0  0  0  0  0  0  0  0  0  0  0  0  # atno 8008 bound_to 7997
  156.1114  140.3228  155.8048 H   0  0  0  0  0  0  0  0  0  0  0  0  # atno 8009 bound_to 7997
  155.4628  140.0525  157.2979 H   0  0  0  0  0  0  0  0  0  0  0  0  # atno 8010 bound_to 7997
  140.6825  143.6731  150.8168 H   0  0  0  0  0  0  0  0  0  0  0  0  # atno 10167 bound_to 10162
  156.7510  130.9378  151.3114 H   0  0  0  0  0  0  0  0  0  0  0  0  # atno 10718 bound_to 10713
  153.2033  135.6859  153.8204 H   0  0  0  0  0  0  0  0  0  0  0  0  # atno 10763 bound_to 10752
  153.7463  135.3230  155.3314 H   0  0  0  0  0  0  0  0  0  0  0  0  # atno 10764 bound_to 10752
  154.8183  135.4670  154.0808 H   0  0  0  0  0  0  0  0  0  0  0  0  # atno 10765 bound_to 10752
  141.1528  133.7803  156.9983 H   0  0  0  0  0  0  0  0  0  0  0  0  # atno 11005 bound_to 11000
  146.1578  140.6832  142.9291 LP  0  0  0  0  0  0  0  0  0  0  0  0  # atno 17320 bound_to 7965
  144.7311  140.4674  143.6937 LP  0  0  0  0  0  0  0  0  0  0  0  0  # atno 17321 bound_to 7965
  140.0433  143.5323  152.2707 LP  0  0  0  0  0  0  0  0  0  0  0  0  # atno 17342 bound_to 10162
  139.6159  144.7619  151.2848 LP  0  0  0  0  0  0  0  0  0  0  0  0  # atno 17343 bound_to 10162
  157.6777  130.9110  150.0190 LP  0  0  0  0  0  0  0  0  0  0  0  0  # atno 17370 bound_to 10713
  156.1401  130.3642  149.9595 LP  0  0  0  0  0  0  0  0  0  0  0  0  # atno 17371 bound_to 10713
  140.0957  134.9566  157.1846 LP  0  0  0  0  0  0  0  0  0  0  0  0  # atno 17394 bound_to 11000
  140.3386  134.2730  155.7216 LP  0  0  0  0  0  0  0  0  0  0  0  0  # atno 17395 bound_to 11000

$$$$
