AV-unprocessed.smi:1105|AV-procd|sdf|4776|dock1
  -GOLD-   22720 3313D 1   1.00000     0.00000
 Structure written by MMmdl.
 33 34  0  0  0  0  0  0  0  0  1 V2000
  146.5122  138.3955  151.6151 C   0  0  0  0  0  0  0  0  0  0  0  0
  147.6460  138.4819  152.5227 N   0  0  0  0  0  0  0  0  0  0  0  0
  147.8767  139.5152  153.3431 C   0  0  0  0  0  0  0  0  0  0  0  0
  147.1433  140.5013  153.4127 O   0  0  0  0  0  0  0  0  0  0  0  0
  149.0069  139.3335  154.0472 N   0  0  0  0  0  0  0  0  0  0  0  0
  149.5986  140.1969  155.0082 C   0  0  0  0  0  0  0  0  0  0  0  0
  148.9145  141.2472  155.6653 C   0  0  0  0  0  0  0  0  0  0  0  0
  149.6102  142.0249  156.6109 C   0  0  0  0  0  0  0  0  0  0  0  0
  150.9617  141.7250  156.8774 C   0  0  0  0  0  0  0  0  0  0  0  0
  151.6579  142.4985  157.8170 N   0  0  0  0  0  0  0  0  0  0  0  0
  151.2463  142.2480  159.1929 C   0  0  0  0  0  0  0  0  0  0  0  0
  152.1401  143.0411  160.1616 C   0  0  0  0  0  0  0  0  0  0  0  0
  152.0968  144.4254  159.8264 O   0  0  0  0  0  0  0  0  0  0  0  0
  152.5686  144.6722  158.5046 C   0  0  0  0  0  0  0  0  0  0  0  0
  151.6871  143.9193  157.4929 C   0  0  0  0  0  0  0  0  0  0  0  0
  151.6181  140.7124  156.2633 N   0  0  0  0  0  0  0  0  0  0  0  0
  150.9457  139.9708  155.3583 C   0  0  0  0  0  0  0  0  0  0  0  0
  146.5568  137.4633  151.0524 H   0  0  0  0  0  0  0  0  0  0  0  0
  146.5198  139.2232  150.9049 H   0  0  0  0  0  0  0  0  0  0  0  0
  145.5710  138.4172  152.1661 H   0  0  0  0  0  0  0  0  0  0  0  0
  148.2969  137.7103  152.5229 H   0  0  0  0  0  0  0  0  0  0  0  0
  149.5424  138.5082  153.8206 H   0  0  0  0  0  0  0  0  0  0  0  0
  147.8747  141.4634  155.4757 H   0  0  0  0  0  0  0  0  0  0  0  0
  149.1110  142.8338  157.1241 H   0  0  0  0  0  0  0  0  0  0  0  0
  150.2041  142.5416  159.3273 H   0  0  0  0  0  0  0  0  0  0  0  0
  151.3119  141.1810  159.4103 H   0  0  0  0  0  0  0  0  0  0  0  0
  151.7913  142.9123  161.1863 H   0  0  0  0  0  0  0  0  0  0  0  0
  153.1692  142.6794  160.1268 H   0  0  0  0  0  0  0  0  0  0  0  0
  152.5337  145.7438  158.3088 H   0  0  0  0  0  0  0  0  0  0  0  0
  153.6120  144.3653  158.4159 H   0  0  0  0  0  0  0  0  0  0  0  0
  152.0727  144.0595  156.4824 H   0  0  0  0  0  0  0  0  0  0  0  0
  150.6744  144.3247  157.5117 H   0  0  0  0  0  0  0  0  0  0  0  0
  151.5062  139.1726  154.8941 H   0  0  0  0  0  0  0  0  0  0  0  0
  1  2  1  0  0  0  0
  1 18  1  0  0  0  0
  1 19  1  0  0  0  0
  1 20  1  0  0  0  0
  2  3  1  0  0  0  0
  2 21  1  0  0  0  0
  3  4  2  0  0  0  0
  3  5  1  0  0  0  0
  5  6  1  0  0  0  0
  5 22  1  0  0  0  0
  6 17  1  0  0  0  0
  6  7  2  0  0  0  0
  7  8  1  0  0  0  0
  7 23  1  0  0  0  0
  8  9  2  0  0  0  0
  8 24  1  0  0  0  0
  9 10  1  0  0  0  0
  9 16  1  0  0  0  0
 10 15  1  0  0  0  0
 10 11  1  0  0  0  0
 11 12  1  0  0  0  0
 11 25  1  0  0  0  0
 11 26  1  0  0  0  0
 12 13  1  0  0  0  0
 12 27  1  0  0  0  0
 12 28  1  0  0  0  0
 13 14  1  0  0  0  0
 14 15  1  0  0  0  0
 14 29  1  0  0  0  0
 14 30  1  0  0  0  0
 15 31  1  0  0  0  0
 15 32  1  0  0  0  0
 16 17  2  0  0  0  0
 17 33  1  0  0  0  0
M  END
> <s_m_source_file>
AV-unprocessed.smi

> <i_m_source_file_index>
1105

> <i_lp_mmshare_version>
43012

> <i_f3d_flags>
0

> <s_epik_input>
W0NIM11bTkhdQyg9TylbTkhdYzFbY0hdW2NIXWMobltjSF0xKU4yW0NIMl1bQ0gyXU9bQ0gyXVtDSDJdMg==

> <s_epik_cmdline>
J2VwaWtfcHl0aG9uJywgJy1waCcsICc3LjAnLCAnLXRuJywgJzgnLCAnLW1hJywgJzIwMCcsICctbWV0YWxfYmluZGluZycsICctaW1hZScsICc8aW5maWxlLm1hZT4nLCAnLW9tYWUnLCAnPG91dGZpbGUubWFlPic=

> <r_lp_tautomer_probability>
1

> <r_epik_Ionization_Penalty>
0.00679356

> <r_epik_Ionization_Penalty_Charging>
0

> <r_epik_Ionization_Penalty_Neutral>
0.00679356

> <r_epik_State_Penalty>
0.00501419

> <r_epik_Charging_Adjusted_Penalty>
0.00501419

> <i_epik_Tot_Q>
0

> <i_epik_Tot_abs_Q>
0

> <r_epik_Metal_State_Penalty>
-0

> <b_epik_Metal_Only>
0

> <s_lp_Force_Field>
OPLS_2005

> <r_lp_Energy>
21.2477

> <b_lp_Chiralities_Consistent>
1

> <s_lp_Variant>
AV-unprocessed.smi:1105-1

> <Gold.Version>
5.8.1

> <Gold.Id.Protein>
6NUR|6NUR_protein|mol2

> <Gold.PLP.Fitness>
34.7644

> <Gold.PLP.PLP>
-32.0611

> <Gold.PLP.part.hbond>
-3.0000

> <Gold.PLP.part.metal>
0.0000

> <Gold.PLP.part.buried>
2.5181

> <Gold.PLP.part.nonpolar>
-31.7579

> <Gold.PLP.part.repulsive>
0.4012

> <Gold.PLP.ligand.clash>
0.0000

> <Gold.PLP.ligand.torsion>
0.1993

> <Gold.PLP.Chemscore.Hbond>
1.0000

> <Gold.PLP.Chemscore.CHOScore>
0.0000

> <Gold.PLP.Chemscore.Metal>
0.0000

> <Gold.Chemscore.Hbonds>
donor molecule, donor type, donor heavy atom, donor atom, acceptor molecule, acceptor atom, score
      L1  H     2    21       P1  7948  1.00

> <Gold.PLP.Chemscore.Internal.Correction>
0.1020

> <Gold.Rescore>
     Score         DG    S(hbond)    S(metal)    S(lipo)     H(rot)  DE(clash)    DE(int)     intcor
     12.74     -15.61       0.93        0.00      81.83       1.00       1.69       1.18       ----

> <Gold.Chemscore.Fitness>
12.7427

> <Gold.Chemscore.DG>
-15.6109

> <Gold.Chemscore.ZeroCoef>
-5.4800

> <Gold.Chemscore.Hbond>
0.9333

> <Gold.Chemscore.Metal>
0.0000

> <Gold.Chemscore.Lipo>
81.8268

> <Gold.Chemscore.Internal_Hbond>
0.0000

> <Gold.Chemscore.DEClash>
1.6904

> <Gold.Chemscore.DEInternal>
1.1778

> <Gold.Chemscore.Rot>
1.0000

> <Gold.Chemscore.Internal.Correction>
   9.000000E+99

> <Gold.Chemscore.Hbonds>
donor molecule, donor type, donor heavy atom, donor atom, acceptor molecule, acceptor atom, score
      L1  H     2    21       P1  7948  0.96

> <Gold.Chemscore.Hbond.Weighted>
-3.1171

> <Gold.Chemscore.Metal.Weighted>
-0.0000

> <Gold.Chemscore.Lipo.Weighted>
-9.5737

> <Gold.Chemscore.Internal_Hbond.Weighted>
0.0000

> <Gold.Chemscore.DEClash.Weighted>
1.6904

> <Gold.Chemscore.DEInternal.Weighted>
1.1778

> <Gold.Chemscore.Rot.Weighted>
2.5600

> <Gold.Chemscore.Internal.Correction.Weighted>
   9.000000E+99

> <Gold.Protein.RotatedTorsions>
[ 6907 6896 6895 6894 ] final -100.46 input  -60.11 | X-H torsion
[ 7974 7965 7964 7962 ] final -143.60 input  175.53 | X-H torsion
[ 8008 7997 7996 7995 ] final -165.66 input   59.86 | X-H torsion
[ 10167 10162 10161 10158 ] final  126.68 input  -65.29 | X-H torsion
[ 10718 10713 10712 10709 ] final  138.27 input   66.30 | X-H torsion
[ 10763 10752 10751 10750 ] final   -6.19 input  -60.55 | X-H torsion
[ 11005 11000 10999 10996 ] final  145.54 input  -57.11 | X-H torsion

> <Gold.Protein.ActiveResidues>
 VAL166  LYS551  ARG553  GLY616  TRP617  ASP618  TYR619  PRO620  LYS621  CYS622 
 ASP623  PHE694  ASN695  SER759  ASP760  ASP761  ALA762  ILE779  LEU786  VAL792 
 PHE793  MET794  SER795  GLU796  ALA797  LYS798  CYS799  TRP800  GLU811  SER814 

> <Gold.Protein.RotatedAtoms>
  150.7117  134.0884  159.3922 H   0  0  0  0  0  0  0  0  0  0  0  0  # atno 6907 bound_to 6896
  151.8869  135.0429  160.0503 H   0  0  0  0  0  0  0  0  0  0  0  0  # atno 6908 bound_to 6896
  152.2523  133.5190  159.5369 H   0  0  0  0  0  0  0  0  0  0  0  0  # atno 6909 bound_to 6896
  144.8358  140.5814  143.5485 H   0  0  0  0  0  0  0  0  0  0  0  0  # atno 7974 bound_to 7965
  155.8529  140.0966  157.1663 H   0  0  0  0  0  0  0  0  0  0  0  0  # atno 8008 bound_to 7997
  154.3986  140.1380  156.3928 H   0  0  0  0  0  0  0  0  0  0  0  0  # atno 8009 bound_to 7997
  155.7941  140.3455  155.5368 H   0  0  0  0  0  0  0  0  0  0  0  0  # atno 8010 bound_to 7997
  139.5618  144.6887  151.4021 H   0  0  0  0  0  0  0  0  0  0  0  0  # atno 10167 bound_to 10162
  157.4271  131.1045  151.0290 H   0  0  0  0  0  0  0  0  0  0  0  0  # atno 10718 bound_to 10713
  153.4089  135.7007  153.6373 H   0  0  0  0  0  0  0  0  0  0  0  0  # atno 10763 bound_to 10752
  153.4875  135.3680  155.2475 H   0  0  0  0  0  0  0  0  0  0  0  0  # atno 10764 bound_to 10752
  154.8716  135.4081  154.3438 H   0  0  0  0  0  0  0  0  0  0  0  0  # atno 10765 bound_to 10752
  140.0721  134.9146  157.1362 H   0  0  0  0  0  0  0  0  0  0  0  0  # atno 11005 bound_to 11000
  145.4799  139.1496  143.3768 LP  0  0  0  0  0  0  0  0  0  0  0  0  # atno 17320 bound_to 7965
  146.2656  140.4935  142.8835 LP  0  0  0  0  0  0  0  0  0  0  0  0  # atno 17321 bound_to 7965
  140.6899  143.7887  150.7239 LP  0  0  0  0  0  0  0  0  0  0  0  0  # atno 17342 bound_to 10162
  140.1366  143.4478  152.2221 LP  0  0  0  0  0  0  0  0  0  0  0  0  # atno 17343 bound_to 10162
  157.1200  130.6057  149.5502 LP  0  0  0  0  0  0  0  0  0  0  0  0  # atno 17370 bound_to 10713
  155.9900  130.4950  150.7240 LP  0  0  0  0  0  0  0  0  0  0  0  0  # atno 17371 bound_to 10713
  140.3612  134.2492  155.7187 LP  0  0  0  0  0  0  0  0  0  0  0  0  # atno 17394 bound_to 11000
  141.2015  133.7960  157.0435 LP  0  0  0  0  0  0  0  0  0  0  0  0  # atno 17395 bound_to 11000

$$$$
