AV-unprocessed.smi:1225|AV-procd|sdf|5143|dock8
  -GOLD-   22720 4213D 1   1.00000     0.00000
 Structure written by MMmdl.
 49 51  0  0  0  0  0  0  0  0  2 V2000
  142.2397  141.5625  159.1555 C   0  0  0  0  0  0  0  0  0  0  0  0
  142.9173  141.7688  157.8440 C   0  0  0  0  0  0  0  0  0  0  0  0
  142.2777  141.7668  156.6723 N   0  0  0  0  0  0  0  0  0  0  0  0
  143.1388  141.9766  155.5934 C   0  0  0  0  0  0  0  0  0  0  0  0
  144.4528  142.1438  155.9567 C   0  0  0  0  0  0  0  0  0  0  0  0
  145.6253  142.3897  155.0628 C   0  0  0  0  0  0  0  0  0  0  0  0
  145.9757  141.2079  154.2342 N   0  3  2  0  0  0  0  0  0  0  0  0
  146.0697  139.9591  155.0314 C   0  0  0  0  0  0  0  0  0  0  0  0
  147.1799  141.4452  153.3963 C   0  0  0  0  0  0  0  0  0  0  0  0
  148.4893  141.0558  154.1180 C   0  0  1  0  0  0  0  0  0  0  0  0
  149.5841  141.4577  153.3201 O   0  0  0  0  0  0  0  0  0  0  0  0
  148.6479  141.7163  155.5024 C   0  0  0  0  0  0  0  0  0  0  0  0
  149.6535  141.0634  156.3208 N   0  0  0  0  0  0  0  0  0  0  0  0
  149.9788  139.7559  156.3206 C   0  0  0  0  0  0  0  0  0  0  0  0
  150.9445  139.3691  157.1482 N   0  0  0  0  0  0  0  0  0  0  0  0
  151.2756  140.5615  157.7687 C   0  0  0  0  0  0  0  0  0  0  0  0
  152.2376  140.8414  158.7634 C   0  0  0  0  0  0  0  0  0  0  0  0
  152.4062  142.1537  159.2596 C   0  0  0  0  0  0  0  0  0  0  0  0
  153.4523  142.4096  160.3305 C   0  0  0  0  0  0  0  0  0  0  0  0
  151.6042  143.2111  158.7596 C   0  0  0  0  0  0  0  0  0  0  0  0
  151.7641  144.6279  159.2818 C   0  0  0  0  0  0  0  0  0  0  0  0
  150.6394  142.9490  157.7645 C   0  0  0  0  0  0  0  0  0  0  0  0
  150.4825  141.6395  157.2773 C   0  0  0  0  0  0  0  0  0  0  0  0
  144.6485  142.0396  157.6878 S   0  0  0  0  0  0  0  0  0  0  0  0
  141.1619  141.4660  159.0208 H   0  0  0  0  0  0  0  0  0  0  0  0
  142.4350  142.4094  159.8134 H   0  0  0  0  0  0  0  0  0  0  0  0
  142.6150  140.6557  159.6299 H   0  0  0  0  0  0  0  0  0  0  0  0
  142.7290  141.9953  154.5943 H   0  0  0  0  0  0  0  0  0  0  0  0
  145.3832  143.2331  154.4152 H   0  0  0  0  0  0  0  0  0  0  0  0
  146.4932  142.6940  155.6500 H   0  0  0  0  0  0  0  0  0  0  0  0
  146.8593  140.0339  155.7801 H   0  0  0  0  0  0  0  0  0  0  0  0
  146.2825  139.0955  154.4032 H   0  0  0  0  0  0  0  0  0  0  0  0
  145.1329  139.7490  155.5474 H   0  0  0  0  0  0  0  0  0  0  0  0
  147.1196  140.8662  152.4735 H   0  0  0  0  0  0  0  0  0  0  0  0
  147.1907  142.4931  153.0932 H   0  0  0  0  0  0  0  0  0  0  0  0
  148.5473  139.9753  154.2435 H   0  0  0  0  0  0  0  0  0  0  0  0
  149.5433  140.9948  152.4964 H   0  0  0  0  0  0  0  0  0  0  0  0
  148.9271  142.7652  155.3938 H   0  0  0  0  0  0  0  0  0  0  0  0
  147.6994  141.6991  156.0416 H   0  0  0  0  0  0  0  0  0  0  0  0
  149.4853  139.0493  155.6690 H   0  0  0  0  0  0  0  0  0  0  0  0
  152.8474  140.0358  159.1453 H   0  0  0  0  0  0  0  0  0  0  0  0
  152.9913  142.8309  161.2236 H   0  0  0  0  0  0  0  0  0  0  0  0
  154.2068  143.1077  159.9675 H   0  0  0  0  0  0  0  0  0  0  0  0
  153.9600  141.4892  160.6197 H   0  0  0  0  0  0  0  0  0  0  0  0
  151.0902  145.3180  158.7735 H   0  0  0  0  0  0  0  0  0  0  0  0
  152.7836  144.9812  159.1262 H   0  0  0  0  0  0  0  0  0  0  0  0
  151.5421  144.6680  160.3484 H   0  0  0  0  0  0  0  0  0  0  0  0
  150.0209  143.7454  157.3782 H   0  0  0  0  0  0  0  0  0  0  0  0
  145.2102  141.0902  153.5853 H   0  0  0  0  0  0  0  0  0  0  0  0
  1  2  1  0  0  0  0
  1 25  1  0  0  0  0
  1 26  1  0  0  0  0
  1 27  1  0  0  0  0
  2 24  1  0  0  0  0
  2  3  2  0  0  0  0
  3  4  1  0  0  0  0
  4  5  2  0  0  0  0
  4 28  1  0  0  0  0
  5  6  1  0  0  0  0
  5 24  1  0  0  0  0
  6  7  1  0  0  0  0
  6 29  1  0  0  0  0
  6 30  1  0  0  0  0
  7  8  1  0  0  0  0
  7  9  1  0  0  0  0
  7 49  1  0  0  0  0
  8 31  1  0  0  0  0
  8 32  1  0  0  0  0
  8 33  1  0  0  0  0
  9 10  1  0  0  0  0
  9 34  1  0  0  0  0
  9 35  1  0  0  0  0
 10 11  1  0  0  0  0
 10 12  1  0  0  0  0
 10 36  1  0  0  0  0
 11 37  1  0  0  0  0
 12 13  1  0  0  0  0
 12 38  1  0  0  0  0
 12 39  1  0  0  0  0
 13 23  1  0  0  0  0
 13 14  1  0  0  0  0
 14 15  2  0  0  0  0
 14 40  1  0  0  0  0
 15 16  1  0  0  0  0
 16 23  2  0  0  0  0
 16 17  1  0  0  0  0
 17 18  2  0  0  0  0
 17 41  1  0  0  0  0
 18 19  1  0  0  0  0
 18 20  1  0  0  0  0
 19 42  1  0  0  0  0
 19 43  1  0  0  0  0
 19 44  1  0  0  0  0
 20 21  1  0  0  0  0
 20 22  2  0  0  0  0
 21 45  1  0  0  0  0
 21 46  1  0  0  0  0
 21 47  1  0  0  0  0
 22 23  1  0  0  0  0
 22 48  1  0  0  0  0
M  CHG  1   7   1
M  END
> <s_m_source_file>
AV-unprocessed.smi

> <i_m_source_file_index>
1225

> <i_lp_mmshare_version>
43012

> <i_f3d_flags>
0

> <s_epik_input>
W0NIM11jMW5bY0hdYyhzMSlbQ0gyXU4oW0NIM10pW0NIMl1bQ0BIXShbT0hdKVtDSDJdbihbY0hdbjIpYyhjMjMpW2NIXWMoW0NIM10pYyhbY0hdMylbQ0gzXQ==

> <s_epik_cmdline>
J2VwaWtfcHl0aG9uJywgJy1waCcsICc3LjAnLCAnLXRuJywgJzgnLCAnLW1hJywgJzIwMCcsICctbWV0YWxfYmluZGluZycsICctaW1hZScsICc8aW5maWxlLm1hZT4nLCAnLW9tYWUnLCAnPG91dGZpbGUubWFlPic=

> <r_epik_Ionization_Penalty>
1.62543

> <r_epik_Ionization_Penalty_Charging>
1.53932

> <r_epik_Ionization_Penalty_Neutral>
0.0861152

> <r_epik_State_Penalty>
1.73127

> <r_epik_Charging_Adjusted_Penalty>
3.27059

> <i_epik_Tot_Q>
1

> <i_epik_Tot_abs_Q>
1

> <r_epik_Metal_State_Penalty>
1.71387

> <b_epik_Metal_Only>
0

> <s_lp_Force_Field>
OPLS_2005

> <r_lp_Energy>
12.5396

> <b_lp_Chiralities_Consistent>
1

> <s_lp_Variant>
AV-unprocessed.smi:1225-8

> <Gold.Version>
5.8.1

> <Gold.Id.Protein>
6NUR|6NUR_protein|mol2

> <Gold.PLP.Fitness>
54.9658

> <Gold.PLP.PLP>
-41.4662

> <Gold.PLP.part.hbond>
-3.2758

> <Gold.PLP.part.metal>
0.0000

> <Gold.PLP.part.buried>
-5.1991

> <Gold.PLP.part.nonpolar>
-34.3478

> <Gold.PLP.part.repulsive>
0.0451

> <Gold.PLP.ligand.clash>
0.0000

> <Gold.PLP.ligand.torsion>
0.9312

> <Gold.PLP.Chemscore.Hbond>
4.0880

> <Gold.PLP.Chemscore.CHOScore>
1.0000

> <Gold.PLP.Chemscore.Metal>
0.0000

> <Gold.Chemscore.Hbonds>
donor molecule, donor type, donor heavy atom, donor atom, acceptor molecule, acceptor atom, score
      L1  H     7    49       P1 10175  2.00
      L1  H    11    37       P1  7957  1.00
      P1  H  7989  7998       L1    11  0.01
      L1  C     4    28       P1 10174  0.83
      L1  C     4    28       P1 10175  0.19

> <Gold.PLP.Chemscore.Internal.Correction>
0.0982

> <Gold.Rescore>
     Score         DG    S(hbond)    S(metal)    S(lipo)     H(rot)  DE(clash)    DE(int)     intcor
     17.77     -18.92       2.12        0.00     106.43       2.37       0.25       0.90       ----

> <Gold.Chemscore.Fitness>
17.7696

> <Gold.Chemscore.DG>
-18.9233

> <Gold.Chemscore.ZeroCoef>
-5.4800

> <Gold.Chemscore.Hbond>
2.1171

> <Gold.Chemscore.Metal>
0.0000

> <Gold.Chemscore.Lipo>
106.4295

> <Gold.Chemscore.Internal_Hbond>
0.0000

> <Gold.Chemscore.DEClash>
0.2497

> <Gold.Chemscore.DEInternal>
0.9040

> <Gold.Chemscore.Rot>
2.3750

> <Gold.Chemscore.Internal.Correction>
   9.000000E+99

> <Gold.Chemscore.Hbonds>
donor molecule, donor type, donor heavy atom, donor atom, acceptor molecule, acceptor atom, score
      L1  H     7    49       P1 10175  0.59
      L1  H    11    37       P1  7957  0.99

> <Gold.Chemscore.Hbond.Weighted>
-7.0711

> <Gold.Chemscore.Metal.Weighted>
-0.0000

> <Gold.Chemscore.Lipo.Weighted>
-12.4522

> <Gold.Chemscore.Internal_Hbond.Weighted>
0.0000

> <Gold.Chemscore.DEClash.Weighted>
0.2497

> <Gold.Chemscore.DEInternal.Weighted>
0.9040

> <Gold.Chemscore.Rot.Weighted>
6.0800

> <Gold.Chemscore.Internal.Correction.Weighted>
   9.000000E+99

> <Gold.Protein.RotatedTorsions>
[ 6907 6896 6895 6894 ] final    5.20 input  -60.11 | X-H torsion
[ 7974 7965 7964 7962 ] final   50.98 input  175.53 | X-H torsion
[ 8008 7997 7996 7995 ] final  -48.21 input   59.86 | X-H torsion
[ 10167 10162 10161 10158 ] final -109.21 input  -65.29 | X-H torsion
[ 10718 10713 10712 10709 ] final   84.30 input   66.30 | X-H torsion
[ 10763 10752 10751 10750 ] final    5.86 input  -60.55 | X-H torsion
[ 11005 11000 10999 10996 ] final  117.85 input  -57.11 | X-H torsion

> <Gold.Protein.ActiveResidues>
 VAL166  LYS551  ARG553  GLY616  TRP617  ASP618  TYR619  PRO620  LYS621  CYS622 
 ASP623  PHE694  ASN695  SER759  ASP760  ASP761  ALA762  ILE779  LEU786  VAL792 
 PHE793  MET794  SER795  GLU796  ALA797  LYS798  CYS799  TRP800  GLU811  SER814 

> <Gold.Protein.RotatedAtoms>
  151.6536  135.0998  160.0165 H   0  0  0  0  0  0  0  0  0  0  0  0  # atno 6907 bound_to 6896
  152.3987  133.6781  159.6306 H   0  0  0  0  0  0  0  0  0  0  0  0  # atno 6908 bound_to 6896
  150.7890  133.8746  159.3309 H   0  0  0  0  0  0  0  0  0  0  0  0  # atno 6909 bound_to 6896
  145.9959  139.4387  143.0045 H   0  0  0  0  0  0  0  0  0  0  0  0  # atno 7974 bound_to 7965
  154.4026  140.1327  156.4302 H   0  0  0  0  0  0  0  0  0  0  0  0  # atno 8008 bound_to 7997
  155.7558  140.3487  155.5153 H   0  0  0  0  0  0  0  0  0  0  0  0  # atno 8009 bound_to 7997
  155.8906  140.1002  157.1412 H   0  0  0  0  0  0  0  0  0  0  0  0  # atno 8010 bound_to 7997
  140.1578  143.4145  152.1448 H   0  0  0  0  0  0  0  0  0  0  0  0  # atno 10167 bound_to 10162
  157.6895  131.0127  150.2651 H   0  0  0  0  0  0  0  0  0  0  0  0  # atno 10718 bound_to 10713
  153.2545  135.6917  153.7644 H   0  0  0  0  0  0  0  0  0  0  0  0  # atno 10763 bound_to 10752
  153.6726  135.3342  155.3158 H   0  0  0  0  0  0  0  0  0  0  0  0  # atno 10764 bound_to 10752
  154.8407  135.4503  154.1514 H   0  0  0  0  0  0  0  0  0  0  0  0  # atno 10765 bound_to 10752
  139.9089  134.9614  156.7414 H   0  0  0  0  0  0  0  0  0  0  0  0  # atno 11005 bound_to 11000
  145.7561  140.9953  143.1225 LP  0  0  0  0  0  0  0  0  0  0  0  0  # atno 17320 bound_to 7965
  144.6903  139.9273  143.7470 LP  0  0  0  0  0  0  0  0  0  0  0  0  # atno 17321 bound_to 7965
  139.5395  144.7243  151.4780 LP  0  0  0  0  0  0  0  0  0  0  0  0  # atno 17342 bound_to 10162
  140.6662  143.8392  150.6945 LP  0  0  0  0  0  0  0  0  0  0  0  0  # atno 17343 bound_to 10162
  156.3224  130.3788  149.7563 LP  0  0  0  0  0  0  0  0  0  0  0  0  # atno 17370 bound_to 10713
  156.5129  130.8180  151.3175 LP  0  0  0  0  0  0  0  0  0  0  0  0  # atno 17371 bound_to 10713
  140.6846  133.9444  155.7930 LP  0  0  0  0  0  0  0  0  0  0  0  0  # atno 17394 bound_to 11000
  141.0485  134.0519  157.3813 LP  0  0  0  0  0  0  0  0  0  0  0  0  # atno 17395 bound_to 11000

$$$$
