AV-unprocessed.smi:142|AV-procd|sdf|1191|dock1
  -GOLD-   2262018343D 1   1.00000     0.00000
 Structure written by MMmdl.
 52 55  0  0  0  0  0  0  0  0  1 V2000
  150.1324  139.6115  154.5001 C   0  0  0  0  0  0  0  0  0  0  0  0
  151.1632  139.1399  155.5345 C   0  0  2  0  0  0  0  0  0  0  0  0
  150.6777  137.9194  156.1757 N   0  0  0  0  0  0  0  0  0  0  0  0
  150.9535  136.6704  155.7707 C   0  0  0  0  0  0  0  0  0  0  0  0
  151.6165  136.4193  154.7633 O   0  0  0  0  0  0  0  0  0  0  0  0
  150.3916  135.5423  156.6480 C   0  0  0  0  0  0  0  0  0  0  0  0
  150.2057  134.2736  155.9110 N   0  0  0  0  0  0  0  0  0  0  0  0
  149.2127  134.2214  154.9010 C   0  0  0  0  0  0  0  0  0  0  0  0
  148.5327  135.2105  154.6229 O   0  0  0  0  0  0  0  0  0  0  0  0
  149.0530  132.9305  154.2416 C   0  0  0  0  0  0  0  0  0  0  0  0
  148.1248  132.7835  153.2809 F   0  0  0  0  0  0  0  0  0  0  0  0
  149.8211  131.8761  154.5850 C   0  0  0  0  0  0  0  0  0  0  0  0
  150.7998  131.9454  155.5569 N   0  0  0  0  0  0  0  0  0  0  0  0
  151.5748  130.6981  155.9143 C   0  0  1  0  0  0  0  0  0  0  0  0
  151.0678  129.4296  155.2020 C   0  0  0  0  0  0  0  0  0  0  0  0
  152.2959  128.9508  154.4446 C   0  0  0  0  0  0  0  0  0  0  0  0
  153.4406  129.6164  155.2002 C   0  0  0  0  0  0  0  0  0  0  0  0
  152.9082  130.8841  155.5514 O   0  0  0  0  0  0  0  0  0  0  0  0
  150.9920  133.1520  156.2688 C   0  0  0  0  0  0  0  0  0  0  0  0
  151.8151  133.2256  157.1824 O   0  0  0  0  0  0  0  0  0  0  0  0
  151.4881  140.2545  156.5265 C   0  0  0  0  0  0  0  0  0  0  0  0
  150.8978  141.5250  156.3556 C   0  0  0  0  0  0  0  0  0  0  0  0
  151.1733  142.5693  157.2594 C   0  0  0  0  0  0  0  0  0  0  0  0
  152.0428  142.3518  158.3471 C   0  0  0  0  0  0  0  0  0  0  0  0
  152.3234  143.3930  159.2560 C   0  0  0  0  0  0  0  0  0  0  0  0
  153.1931  143.1670  160.3408 C   0  0  0  0  0  0  0  0  0  0  0  0
  153.7847  141.9015  160.5199 C   0  0  0  0  0  0  0  0  0  0  0  0
  153.5082  140.8583  159.6151 C   0  0  0  0  0  0  0  0  0  0  0  0
  152.6370  141.0786  158.5283 C   0  0  0  0  0  0  0  0  0  0  0  0
  152.3549  140.0365  157.6225 C   0  0  0  0  0  0  0  0  0  0  0  0
  150.4966  140.4808  153.9521 H   0  0  0  0  0  0  0  0  0  0  0  0
  149.1914  139.8896  154.9765 H   0  0  0  0  0  0  0  0  0  0  0  0
  149.9195  138.8296  153.7704 H   0  0  0  0  0  0  0  0  0  0  0  0
  152.0809  138.8924  154.9972 H   0  0  0  0  0  0  0  0  0  0  0  0
  150.1208  138.0344  157.0099 H   0  0  0  0  0  0  0  0  0  0  0  0
  151.0542  135.3898  157.5019 H   0  0  0  0  0  0  0  0  0  0  0  0
  149.4598  135.8900  157.0960 H   0  0  0  0  0  0  0  0  0  0  0  0
  149.6579  130.9401  154.0707 H   0  0  0  0  0  0  0  0  0  0  0  0
  151.5094  130.6032  156.9992 H   0  0  0  0  0  0  0  0  0  0  0  0
  150.7664  128.7043  155.9584 H   0  0  0  0  0  0  0  0  0  0  0  0
  150.2140  129.6249  154.5525 H   0  0  0  0  0  0  0  0  0  0  0  0
  152.3822  127.8645  154.4166 H   0  0  0  0  0  0  0  0  0  0  0  0
  152.2696  129.3123  153.4163 H   0  0  0  0  0  0  0  0  0  0  0  0
  153.6849  129.0594  156.1062 H   0  0  0  0  0  0  0  0  0  0  0  0
  154.3449  129.7123  154.5987 H   0  0  0  0  0  0  0  0  0  0  0  0
  150.2290  141.7032  155.5262 H   0  0  0  0  0  0  0  0  0  0  0  0
  150.7141  143.5363  157.1133 H   0  0  0  0  0  0  0  0  0  0  0  0
  151.8749  144.3673  159.1260 H   0  0  0  0  0  0  0  0  0  0  0  0
  153.4074  143.9653  161.0357 H   0  0  0  0  0  0  0  0  0  0  0  0
  154.4519  141.7307  161.3519 H   0  0  0  0  0  0  0  0  0  0  0  0
  153.9681  139.8911  159.7588 H   0  0  0  0  0  0  0  0  0  0  0  0
  152.8085  139.0677  157.7737 H   0  0  0  0  0  0  0  0  0  0  0  0
  1  2  1  0  0  0  0
  1 31  1  0  0  0  0
  1 32  1  0  0  0  0
  1 33  1  0  0  0  0
  2  3  1  0  0  0  0
  2 21  1  0  0  0  0
  2 34  1  0  0  0  0
  3  4  1  0  0  0  0
  3 35  1  0  0  0  0
  4  5  2  0  0  0  0
  4  6  1  0  0  0  0
  6  7  1  0  0  0  0
  6 36  1  0  0  0  0
  6 37  1  0  0  0  0
  7 19  1  0  0  0  0
  7  8  1  0  0  0  0
  8  9  2  0  0  0  0
  8 10  1  0  0  0  0
 10 11  1  0  0  0  0
 10 12  2  0  0  0  0
 12 13  1  0  0  0  0
 12 38  1  0  0  0  0
 13 14  1  0  0  0  0
 13 19  1  0  0  0  0
 14 18  1  0  0  0  0
 14 15  1  0  0  0  0
 14 39  1  0  0  0  0
 15 16  1  0  0  0  0
 15 40  1  0  0  0  0
 15 41  1  0  0  0  0
 16 17  1  0  0  0  0
 16 42  1  0  0  0  0
 16 43  1  0  0  0  0
 17 18  1  0  0  0  0
 17 44  1  0  0  0  0
 17 45  1  0  0  0  0
 19 20  2  0  0  0  0
 21 30  1  0  0  0  0
 21 22  2  0  0  0  0
 22 23  1  0  0  0  0
 22 46  1  0  0  0  0
 23 24  2  0  0  0  0
 23 47  1  0  0  0  0
 24 29  1  0  0  0  0
 24 25  1  0  0  0  0
 25 26  2  0  0  0  0
 25 48  1  0  0  0  0
 26 27  1  0  0  0  0
 26 49  1  0  0  0  0
 27 28  2  0  0  0  0
 27 50  1  0  0  0  0
 28 29  1  0  0  0  0
 28 51  1  0  0  0  0
 29 30  2  0  0  0  0
 30 52  1  0  0  0  0
M  END
> <s_m_source_file>
AV-unprocessed.smi

> <i_m_source_file_index>
142

> <i_lp_mmshare_version>
43012

> <i_f3d_flags>
0

> <s_epik_input>
W2NIXTFbY0hdW2NIXVtjSF1jKGMxMilbY0hdYyhbY0hdW2NIXTIpW0NASF0oW0NIM10pW05IXUMoPU8pW0NIMl1uM2MoPU8pYyhGKVtjSF1uKGMzPU8pW0NAQEhdNFtDSDJdW0NIMl1bQ0gyXU80

> <s_epik_cmdline>
J2VwaWtfcHl0aG9uJywgJy1waCcsICc3LjAnLCAnLXRuJywgJzgnLCAnLW1hJywgJzIwMCcsICctbWV0YWxfYmluZGluZycsICctaW1hZScsICc8aW5maWxlLm1hZT4nLCAnLW9tYWUnLCAnPG91dGZpbGUubWFlPic=

> <r_lp_tautomer_probability>
1

> <r_epik_Ionization_Penalty>
3.35688e-08

> <r_epik_Ionization_Penalty_Charging>
3.59856e-09

> <r_epik_Ionization_Penalty_Neutral>
2.99702e-08

> <r_epik_State_Penalty>
-0

> <r_epik_Charging_Adjusted_Penalty>
3.59856e-09

> <i_epik_Tot_Q>
0

> <i_epik_Tot_abs_Q>
0

> <r_epik_Metal_State_Penalty>
-0

> <b_epik_Metal_Only>
0

> <s_epik_Chemistry_Notes>
This compound contains an acetal/aminal-like group ( X-CH(R)-Y where X, Y are N, S, or O) that may be acid/base labile, releasing an aldehyde.

> <s_lp_Force_Field>
OPLS_2005

> <r_lp_Energy>
25.6775

> <b_lp_Chiralities_Consistent>
1

> <s_lp_Variant>
AV-unprocessed.smi:142-3

> <Gold.Version>
5.8.1

> <Gold.Id.Protein>
6NUR|6NUR_protein|mol2

> <Gold.PLP.Fitness>
62.3146

> <Gold.PLP.PLP>
-59.0537

> <Gold.PLP.part.hbond>
-2.0000

> <Gold.PLP.part.metal>
0.0000

> <Gold.PLP.part.buried>
-5.3071

> <Gold.PLP.part.nonpolar>
-54.0358

> <Gold.PLP.part.repulsive>
1.8575

> <Gold.PLP.ligand.clash>
0.0000

> <Gold.PLP.ligand.torsion>
0.9177

> <Gold.PLP.Chemscore.Hbond>
1.6720

> <Gold.PLP.Chemscore.CHOScore>
0.0000

> <Gold.PLP.Chemscore.Metal>
0.0000

> <Gold.Chemscore.Hbonds>
donor molecule, donor type, donor heavy atom, donor atom, acceptor molecule, acceptor atom, score
      P1  H  6896  6907       L1    20  0.64
      P1  H 10752 10765       L1     5  1.00

> <Gold.PLP.Chemscore.Internal.Correction>
0.0802

> <Gold.Rescore>
     Score         DG    S(hbond)    S(metal)    S(lipo)     H(rot)  DE(clash)    DE(int)     intcor
     19.28     -21.62       1.77        0.00     131.58       2.02       0.05       2.30       ----

> <Gold.Chemscore.Fitness>
19.2788

> <Gold.Chemscore.DG>
-21.6215

> <Gold.Chemscore.ZeroCoef>
-5.4800

> <Gold.Chemscore.Hbond>
1.7701

> <Gold.Chemscore.Metal>
0.0000

> <Gold.Chemscore.Lipo>
131.5751

> <Gold.Chemscore.Internal_Hbond>
0.0000

> <Gold.Chemscore.DEClash>
0.0460

> <Gold.Chemscore.DEInternal>
2.2967

> <Gold.Chemscore.Rot>
2.0175

> <Gold.Chemscore.Internal.Correction>
   9.000000E+99

> <Gold.Chemscore.Hbonds>
donor molecule, donor type, donor heavy atom, donor atom, acceptor molecule, acceptor atom, score
      P1  H  6896  6907       L1    20  0.62
      P1  H 10752 10765       L1     5  0.97

> <Gold.Chemscore.Hbond.Weighted>
-5.9120

> <Gold.Chemscore.Metal.Weighted>
-0.0000

> <Gold.Chemscore.Lipo.Weighted>
-15.3943

> <Gold.Chemscore.Internal_Hbond.Weighted>
0.0000

> <Gold.Chemscore.DEClash.Weighted>
0.0460

> <Gold.Chemscore.DEInternal.Weighted>
2.2967

> <Gold.Chemscore.Rot.Weighted>
5.1648

> <Gold.Chemscore.Internal.Correction.Weighted>
   9.000000E+99

> <Gold.Protein.RotatedTorsions>
[ 6907 6896 6895 6894 ] final -170.17 input  -60.11 | X-H torsion
[ 7974 7965 7964 7962 ] final  132.88 input  175.53 | X-H torsion
[ 8008 7997 7996 7995 ] final  -70.66 input   59.86 | X-H torsion
[ 10167 10162 10161 10158 ] final -120.30 input  -65.29 | X-H torsion
[ 10718 10713 10712 10709 ] final  -66.95 input   66.30 | X-H torsion
[ 10763 10752 10751 10750 ] final  165.71 input  -60.55 | X-H torsion
[ 11005 11000 10999 10996 ] final  -48.46 input  -57.11 | X-H torsion

> <Gold.Protein.ActiveResidues>
 VAL166  LYS551  ARG553  GLY616  TRP617  ASP618  TYR619  PRO620  LYS621  CYS622 
 ASP623  PHE694  ASN695  SER759  ASP760  ASP761  ALA762  ILE779  LEU786  VAL792 
 PHE793  MET794  SER795  GLU796  ALA797  LYS798  CYS799  TRP800  GLU811  SER814 

> <Gold.Protein.RotatedAtoms>
  151.5034  133.3499  159.2872 H   0  0  0  0  0  0  0  0  0  0  0  0  # atno 6907 bound_to 6896
  150.8758  134.8143  159.7200 H   0  0  0  0  0  0  0  0  0  0  0  0  # atno 6908 bound_to 6896
  152.4730  134.4925  159.9751 H   0  0  0  0  0  0  0  0  0  0  0  0  # atno 6909 bound_to 6896
  144.9923  139.4394  143.5333 H   0  0  0  0  0  0  0  0  0  0  0  0  # atno 7974 bound_to 7965
  154.5028  140.0830  156.7833 H   0  0  0  0  0  0  0  0  0  0  0  0  # atno 8008 bound_to 7997
  155.3962  140.3435  155.4236 H   0  0  0  0  0  0  0  0  0  0  0  0  # atno 8009 bound_to 7997
  156.1478  140.1549  156.8806 H   0  0  0  0  0  0  0  0  0  0  0  0  # atno 8010 bound_to 7997
  140.0373  143.5188  152.2147 H   0  0  0  0  0  0  0  0  0  0  0  0  # atno 10167 bound_to 10162
  156.0584  130.4270  150.1783 H   0  0  0  0  0  0  0  0  0  0  0  0  # atno 10718 bound_to 10713
  154.3281  135.2755  155.2485 H   0  0  0  0  0  0  0  0  0  0  0  0  # atno 10763 bound_to 10752
  154.4809  135.5858  153.6392 H   0  0  0  0  0  0  0  0  0  0  0  0  # atno 10764 bound_to 10752
  152.9869  135.6111  154.3471 H   0  0  0  0  0  0  0  0  0  0  0  0  # atno 10765 bound_to 10752
  141.0702  133.6681  156.3444 H   0  0  0  0  0  0  0  0  0  0  0  0  # atno 11005 bound_to 11000
  146.3434  139.9261  142.8760 LP  0  0  0  0  0  0  0  0  0  0  0  0  # atno 17320 bound_to 7965
  145.2269  140.9957  143.4013 LP  0  0  0  0  0  0  0  0  0  0  0  0  # atno 17321 bound_to 7965
  139.6036  144.7590  151.3113 LP  0  0  0  0  0  0  0  0  0  0  0  0  # atno 17342 bound_to 10162
  140.7275  143.6960  150.7883 LP  0  0  0  0  0  0  0  0  0  0  0  0  # atno 17343 bound_to 10162
  156.9856  130.9877  151.3427 LP  0  0  0  0  0  0  0  0  0  0  0  0  # atno 17370 bound_to 10713
  157.5573  130.8222  149.8221 LP  0  0  0  0  0  0  0  0  0  0  0  0  # atno 17371 bound_to 10713
  140.5690  134.5859  157.5453 LP  0  0  0  0  0  0  0  0  0  0  0  0  # atno 17394 bound_to 11000
  139.9515  134.7608  156.0437 LP  0  0  0  0  0  0  0  0  0  0  0  0  # atno 17395 bound_to 11000

$$$$
