AV-unprocessed.smi:1047|AV-procd|sdf|4575|dock8
  -GOLD-   22720 3 33D 1   1.00000     0.00000
 Structure written by MMmdl.
 56 58  0  0  0  0  0  0  0  0  2 V2000
  152.1200  130.7466  163.8121 C   0  0  0  0  0  0  0  0  0  0  0  0
  153.2918  130.8713  164.7962 C   0  0  0  0  0  0  0  0  0  0  0  0
  154.1977  131.9987  164.4631 N   0  3  2  0  0  0  0  0  0  0  0  0
  155.4213  132.0050  165.2997 C   0  0  0  0  0  0  0  0  0  0  0  0
  156.3611  133.1442  164.8716 C   0  0  0  0  0  0  0  0  0  0  0  0
  155.6799  134.3892  164.9597 O   0  0  0  0  0  0  0  0  0  0  0  0
  154.5328  134.4388  164.1173 C   0  0  2  0  0  0  0  0  0  0  0  0
  153.9355  135.8550  164.1738 C   0  0  0  0  0  0  0  0  0  0  0  0
  154.3697  136.6718  163.0445 N   0  0  0  0  0  0  0  0  0  0  0  0
  154.2861  135.9853  161.7577 C   0  0  0  0  0  0  0  0  0  0  0  0
  153.7730  136.9143  160.6425 C   0  0  2  0  0  0  0  0  0  0  0  0
  153.5595  136.1551  159.4678 O   0  0  0  0  0  0  0  0  0  0  0  0
  154.6777  138.1349  160.3722 C   0  0  0  0  0  0  0  0  0  0  0  0
  153.9441  139.2461  159.7942 N   0  0  0  0  0  0  0  0  0  0  0  0
  153.5136  139.3611  158.5233 C   0  0  0  0  0  0  0  0  0  0  0  0
  152.8634  140.4752  158.1997 N   0  0  0  0  0  0  0  0  0  0  0  0
  152.8714  141.1626  159.4014 C   0  0  0  0  0  0  0  0  0  0  0  0
  152.3436  142.4284  159.7381 C   0  0  0  0  0  0  0  0  0  0  0  0
  152.4725  142.9426  161.0481 C   0  0  0  0  0  0  0  0  0  0  0  0
  151.8931  144.3100  161.3653 C   0  0  0  0  0  0  0  0  0  0  0  0
  153.1371  142.1855  162.0462 C   0  0  0  0  0  0  0  0  0  0  0  0
  153.2858  142.7161  163.4611 C   0  0  0  0  0  0  0  0  0  0  0  0
  153.6717  140.9201  161.7264 C   0  0  0  0  0  0  0  0  0  0  0  0
  153.5378  140.4199  160.4193 C   0  0  0  0  0  0  0  0  0  0  0  0
  153.5364  133.3262  164.5084 C   0  0  0  0  0  0  0  0  0  0  0  0
  151.5319  129.8544  164.0290 H   0  0  0  0  0  0  0  0  0  0  0  0
  152.4744  130.6654  162.7841 H   0  0  0  0  0  0  0  0  0  0  0  0
  151.4442  131.5993  163.8706 H   0  0  0  0  0  0  0  0  0  0  0  0
  152.9262  130.9722  165.8192 H   0  0  0  0  0  0  0  0  0  0  0  0
  153.8573  129.9390  164.7606 H   0  0  0  0  0  0  0  0  0  0  0  0
  155.1470  132.1202  166.3497 H   0  0  0  0  0  0  0  0  0  0  0  0
  155.9405  131.0504  165.2061 H   0  0  0  0  0  0  0  0  0  0  0  0
  157.2349  133.1747  165.5225 H   0  0  0  0  0  0  0  0  0  0  0  0
  156.7272  132.9865  163.8558 H   0  0  0  0  0  0  0  0  0  0  0  0
  154.8599  134.2670  163.0903 H   0  0  0  0  0  0  0  0  0  0  0  0
  152.8471  135.7843  164.1841 H   0  0  0  0  0  0  0  0  0  0  0  0
  154.2240  136.3342  165.1101 H   0  0  0  0  0  0  0  0  0  0  0  0
  155.3251  136.9815  163.1959 H   0  0  0  0  0  0  0  0  0  0  0  0
  155.2633  135.5893  161.4782 H   0  0  0  0  0  0  0  0  0  0  0  0
  153.6197  135.1264  161.8453 H   0  0  0  0  0  0  0  0  0  0  0  0
  152.7927  137.2818  160.9486 H   0  0  0  0  0  0  0  0  0  0  0  0
  153.1144  136.6997  158.8362 H   0  0  0  0  0  0  0  0  0  0  0  0
  155.1390  138.4730  161.3009 H   0  0  0  0  0  0  0  0  0  0  0  0
  155.4936  137.8761  159.6966 H   0  0  0  0  0  0  0  0  0  0  0  0
  153.6911  138.5844  157.7939 H   0  0  0  0  0  0  0  0  0  0  0  0
  151.8376  143.0047  158.9773 H   0  0  0  0  0  0  0  0  0  0  0  0
  151.1334  144.2320  162.1434 H   0  0  0  0  0  0  0  0  0  0  0  0
  151.4277  144.7591  160.4875 H   0  0  0  0  0  0  0  0  0  0  0  0
  152.6755  144.9859  161.7107 H   0  0  0  0  0  0  0  0  0  0  0  0
  153.8078  142.0037  164.1007 H   0  0  0  0  0  0  0  0  0  0  0  0
  152.3072  142.9064  163.9025 H   0  0  0  0  0  0  0  0  0  0  0  0
  153.8543  143.6463  163.4627 H   0  0  0  0  0  0  0  0  0  0  0  0
  154.1843  140.3350  162.4755 H   0  0  0  0  0  0  0  0  0  0  0  0
  152.6864  133.3503  163.8272 H   0  0  0  0  0  0  0  0  0  0  0  0
  153.1456  133.4952  165.5130 H   0  0  0  0  0  0  0  0  0  0  0  0
  154.5050  131.8521  163.5120 H   0  0  0  0  0  0  0  0  0  0  0  0
  1  2  1  0  0  0  0
  1 26  1  0  0  0  0
  1 27  1  0  0  0  0
  1 28  1  0  0  0  0
  2  3  1  0  0  0  0
  2 29  1  0  0  0  0
  2 30  1  0  0  0  0
  3 25  1  0  0  0  0
  3  4  1  0  0  0  0
  3 56  1  0  0  0  0
  4  5  1  0  0  0  0
  4 31  1  0  0  0  0
  4 32  1  0  0  0  0
  5  6  1  0  0  0  0
  5 33  1  0  0  0  0
  5 34  1  0  0  0  0
  6  7  1  0  0  0  0
  7  8  1  0  0  0  0
  7 25  1  0  0  0  0
  7 35  1  0  0  0  0
  8  9  1  0  0  0  0
  8 36  1  0  0  0  0
  8 37  1  0  0  0  0
  9 10  1  0  0  0  0
  9 38  1  0  0  0  0
 10 11  1  0  0  0  0
 10 39  1  0  0  0  0
 10 40  1  0  0  0  0
 11 12  1  0  0  0  0
 11 13  1  0  0  0  0
 11 41  1  0  0  0  0
 12 42  1  0  0  0  0
 13 14  1  0  0  0  0
 13 43  1  0  0  0  0
 13 44  1  0  0  0  0
 14 24  1  0  0  0  0
 14 15  1  0  0  0  0
 15 16  2  0  0  0  0
 15 45  1  0  0  0  0
 16 17  1  0  0  0  0
 17 24  2  0  0  0  0
 17 18  1  0  0  0  0
 18 19  2  0  0  0  0
 18 46  1  0  0  0  0
 19 20  1  0  0  0  0
 19 21  1  0  0  0  0
 20 47  1  0  0  0  0
 20 48  1  0  0  0  0
 20 49  1  0  0  0  0
 21 22  1  0  0  0  0
 21 23  2  0  0  0  0
 22 50  1  0  0  0  0
 22 51  1  0  0  0  0
 22 52  1  0  0  0  0
 23 24  1  0  0  0  0
 23 53  1  0  0  0  0
 25 54  1  0  0  0  0
 25 55  1  0  0  0  0
M  CHG  1   3   1
M  END
> <s_m_source_file>
AV-unprocessed.smi

> <i_m_source_file_index>
1047

> <i_lp_mmshare_version>
43012

> <i_f3d_flags>
0

> <s_epik_input>
W0NIM11bQ0gyXU4xW0NIMl1bQ0gyXU9bQ0BIXShbQ0gyXTEpW0NIMl1bTkhdW0NIMl1bQ0BIXShbT0hdKVtDSDJdbihbY0hdbjIpYyhjMjMpW2NIXWMoW0NIM10pYyhbY0hdMylbQ0gzXQ==

> <s_epik_cmdline>
J2VwaWtfcHl0aG9uJywgJy1waCcsICc3LjAnLCAnLXRuJywgJzgnLCAnLW1hJywgJzIwMCcsICctbWV0YWxfYmluZGluZycsICctaW1hZScsICc8aW5maWxlLm1hZT4nLCAnLW9tYWUnLCAnPG91dGZpbGUubWFlPic=

> <r_epik_Ionization_Penalty>
1.19246

> <r_epik_Ionization_Penalty_Charging>
0.210041

> <r_epik_Ionization_Penalty_Neutral>
0.982415

> <r_epik_State_Penalty>
1.57595

> <r_epik_Charging_Adjusted_Penalty>
1.78599

> <i_epik_Tot_Q>
1

> <i_epik_Tot_abs_Q>
1

> <r_epik_Metal_State_Penalty>
1.46172

> <b_epik_Metal_Only>
0

> <s_lp_Force_Field>
OPLS_2005

> <r_lp_Energy>
33.3518

> <b_lp_Chiralities_Consistent>
1

> <s_lp_Variant>
AV-unprocessed.smi:1047-16

> <Gold.Version>
5.8.1

> <Gold.Id.Protein>
6NUR|6NUR_protein|mol2

> <Gold.PLP.Fitness>
51.8341

> <Gold.PLP.PLP>
-51.2762

> <Gold.PLP.part.hbond>
-1.6235

> <Gold.PLP.part.metal>
0.0000

> <Gold.PLP.part.buried>
-4.1957

> <Gold.PLP.part.nonpolar>
-43.8659

> <Gold.PLP.part.repulsive>
0.0904

> <Gold.PLP.ligand.clash>
0.0000

> <Gold.PLP.ligand.torsion>
1.3520

> <Gold.PLP.Chemscore.Hbond>
1.0000

> <Gold.PLP.Chemscore.CHOScore>
0.0000

> <Gold.PLP.Chemscore.Metal>
0.0000

> <Gold.Chemscore.Hbonds>
donor molecule, donor type, donor heavy atom, donor atom, acceptor molecule, acceptor atom, score
      P1  H  6896  6908       L1    12  1.00

> <Gold.PLP.Chemscore.Internal.Correction>
0.2620

> <Gold.Rescore>
     Score         DG    S(hbond)    S(metal)    S(lipo)     H(rot)  DE(clash)    DE(int)     intcor
     17.93     -19.41       0.85        0.00     152.04       2.62       0.03       1.46       ----

> <Gold.Chemscore.Fitness>
17.9303

> <Gold.Chemscore.DG>
-19.4129

> <Gold.Chemscore.ZeroCoef>
-5.4800

> <Gold.Chemscore.Hbond>
0.8545

> <Gold.Chemscore.Metal>
0.0000

> <Gold.Chemscore.Lipo>
152.0379

> <Gold.Chemscore.Internal_Hbond>
0.0000

> <Gold.Chemscore.DEClash>
0.0275

> <Gold.Chemscore.DEInternal>
1.4552

> <Gold.Chemscore.Rot>
2.6209

> <Gold.Chemscore.Internal.Correction>
   9.000000E+99

> <Gold.Chemscore.Hbonds>
donor molecule, donor type, donor heavy atom, donor atom, acceptor molecule, acceptor atom, score
      P1  H  6896  6908       L1    12  0.12

> <Gold.Chemscore.Hbond.Weighted>
-2.8541

> <Gold.Chemscore.Metal.Weighted>
-0.0000

> <Gold.Chemscore.Lipo.Weighted>
-17.7884

> <Gold.Chemscore.Internal_Hbond.Weighted>
0.0000

> <Gold.Chemscore.DEClash.Weighted>
0.0275

> <Gold.Chemscore.DEInternal.Weighted>
1.4552

> <Gold.Chemscore.Rot.Weighted>
6.7096

> <Gold.Chemscore.Internal.Correction.Weighted>
   9.000000E+99

> <Gold.Protein.RotatedTorsions>
[ 6907 6896 6895 6894 ] final  -83.84 input  -60.11 | X-H torsion
[ 7974 7965 7964 7962 ] final -104.14 input  175.53 | X-H torsion
[ 8008 7997 7996 7995 ] final   30.20 input   59.86 | X-H torsion
[ 10167 10162 10161 10158 ] final   43.20 input  -65.29 | X-H torsion
[ 10718 10713 10712 10709 ] final -178.44 input   66.30 | X-H torsion
[ 10763 10752 10751 10750 ] final -128.42 input  -60.55 | X-H torsion
[ 11005 11000 10999 10996 ] final  158.92 input  -57.11 | X-H torsion

> <Gold.Protein.ActiveResidues>
 VAL166  LYS551  ARG553  GLY616  TRP617  ASP618  TYR619  PRO620  LYS621  CYS622 
 ASP623  PHE694  ASN695  SER759  ASP760  ASP761  ALA762  ILE779  LEU786  VAL792 
 PHE793  MET794  SER795  GLU796  ALA797  LYS798  CYS799  TRP800  GLU811  SER814 

> <Gold.Protein.RotatedAtoms>
  150.6881  134.3450  159.4884 H   0  0  0  0  0  0  0  0  0  0  0  0  # atno 6907 bound_to 6896
  152.1298  134.9140  160.0568 H   0  0  0  0  0  0  0  0  0  0  0  0  # atno 6908 bound_to 6896
  152.0314  133.3904  159.4336 H   0  0  0  0  0  0  0  0  0  0  0  0  # atno 6909 bound_to 6896
  145.2470  140.9225  143.3117 H   0  0  0  0  0  0  0  0  0  0  0  0  # atno 7974 bound_to 7965
  155.0866  140.3215  155.4586 H   0  0  0  0  0  0  0  0  0  0  0  0  # atno 8008 bound_to 7997
  156.2753  140.2085  156.5940 H   0  0  0  0  0  0  0  0  0  0  0  0  # atno 8009 bound_to 7997
  154.6936  140.0514  157.0375 H   0  0  0  0  0  0  0  0  0  0  0  0  # atno 8010 bound_to 7997
  140.3468  144.2401  150.6149 H   0  0  0  0  0  0  0  0  0  0  0  0  # atno 10167 bound_to 10162
  156.8443  130.9697  151.3097 H   0  0  0  0  0  0  0  0  0  0  0  0  # atno 10718 bound_to 10713
  154.8756  135.3929  154.3755 H   0  0  0  0  0  0  0  0  0  0  0  0  # atno 10763 bound_to 10752
  153.4509  135.7028  153.6115 H   0  0  0  0  0  0  0  0  0  0  0  0  # atno 10764 bound_to 10752
  153.4655  135.3802  155.2331 H   0  0  0  0  0  0  0  0  0  0  0  0  # atno 10765 bound_to 10752
  140.1911  134.8406  157.2913 H   0  0  0  0  0  0  0  0  0  0  0  0  # atno 11005 bound_to 11000
  144.9537  139.4054  143.6390 LP  0  0  0  0  0  0  0  0  0  0  0  0  # atno 17320 bound_to 7965
  146.3313  139.8557  142.8865 LP  0  0  0  0  0  0  0  0  0  0  0  0  # atno 17321 bound_to 7965
  140.5257  143.2255  151.8319 LP  0  0  0  0  0  0  0  0  0  0  0  0  # atno 17342 bound_to 10162
  139.4832  144.4782  151.9340 LP  0  0  0  0  0  0  0  0  0  0  0  0  # atno 17343 bound_to 10162
  157.6338  130.8750  149.9322 LP  0  0  0  0  0  0  0  0  0  0  0  0  # atno 17370 bound_to 10713
  156.0863  130.3667  150.0481 LP  0  0  0  0  0  0  0  0  0  0  0  0  # atno 17371 bound_to 10713
  140.2158  134.4083  155.7590 LP  0  0  0  0  0  0  0  0  0  0  0  0  # atno 17394 bound_to 11000
  141.2226  133.7141  156.8411 LP  0  0  0  0  0  0  0  0  0  0  0  0  # atno 17395 bound_to 11000

$$$$
