AV-unprocessed.smi:1279|AV-procd|sdf|5355|dock6
  -GOLD-   22720 4493D 1   1.00000     0.00000
 Structure written by MMmdl.
 46 47  0  0  0  0  0  0  0  0  2 V2000
  151.1883  143.1108  157.0055 C   0  0  0  0  0  0  0  0  0  0  0  0
  150.9173  141.9433  156.1033 C   0  0  0  0  0  0  0  0  0  0  0  0
  150.2721  141.9466  154.8323 C   0  0  0  0  0  0  0  0  0  0  0  0
  150.3011  140.6258  154.4768 C   0  0  0  0  0  0  0  0  0  0  0  0
  149.8273  140.0332  153.3485 N   0  0  0  0  0  0  0  0  0  0  0  0
  148.5654  139.9951  152.8859 C   0  0  0  0  0  0  0  0  0  0  0  0
  147.5882  140.5140  153.4261 O   0  0  0  0  0  0  0  0  0  0  0  0
  148.4901  139.3037  151.7396 N   0  0  0  0  0  0  0  0  0  0  0  0
  147.2673  139.0828  150.9759 C   0  0  0  0  0  0  0  0  0  0  0  0
  146.1630  138.4473  151.8432 C   0  0  0  0  0  0  0  0  0  0  0  0
  145.9056  137.0295  151.4853 N   0  3  2  0  0  0  0  0  0  0  0  0
  145.4584  136.8795  150.0762 C   0  0  0  0  0  0  0  0  0  0  0  0
  145.3281  135.3975  149.6865 C   0  0  0  0  0  0  0  0  0  0  0  0
  144.3706  134.6533  150.6316 C   0  0  1  0  0  0  0  0  0  0  0  0
  144.2563  133.1654  150.2713 C   0  0  0  0  0  0  0  0  0  0  0  0
  144.8378  134.8533  152.0827 C   0  0  0  0  0  0  0  0  0  0  0  0
  144.9771  136.3460  152.4251 C   0  0  0  0  0  0  0  0  0  0  0  0
  150.9234  139.9096  155.4750 N   0  0  0  0  0  0  0  0  0  0  0  0
  151.1964  138.4880  155.5572 C   0  0  0  0  0  0  0  0  0  0  0  0
  151.3032  140.7291  156.4790 N   0  0  0  0  0  0  0  0  0  0  0  0
  150.8088  144.0376  156.5750 H   0  0  0  0  0  0  0  0  0  0  0  0
  152.2582  143.2368  157.1742 H   0  0  0  0  0  0  0  0  0  0  0  0
  150.7102  142.9761  157.9761 H   0  0  0  0  0  0  0  0  0  0  0  0
  149.8662  142.7882  154.2915 H   0  0  0  0  0  0  0  0  0  0  0  0
  150.5200  139.5507  152.7951 H   0  0  0  0  0  0  0  0  0  0  0  0
  149.3411  138.9117  151.3628 H   0  0  0  0  0  0  0  0  0  0  0  0
  146.9222  140.0249  150.5463 H   0  0  0  0  0  0  0  0  0  0  0  0
  147.5261  138.4364  150.1383 H   0  0  0  0  0  0  0  0  0  0  0  0
  146.4088  138.5231  152.9037 H   0  0  0  0  0  0  0  0  0  0  0  0
  145.2445  139.0183  151.7003 H   0  0  0  0  0  0  0  0  0  0  0  0
  144.5040  137.3907  149.9393 H   0  0  0  0  0  0  0  0  0  0  0  0
  146.1741  137.3599  149.4081 H   0  0  0  0  0  0  0  0  0  0  0  0
  144.9734  135.3195  148.6581 H   0  0  0  0  0  0  0  0  0  0  0  0
  146.3124  134.9273  149.7096 H   0  0  0  0  0  0  0  0  0  0  0  0
  143.3787  135.0964  150.5291 H   0  0  0  0  0  0  0  0  0  0  0  0
  145.2186  132.6599  150.3585 H   0  0  0  0  0  0  0  0  0  0  0  0
  143.9036  133.0353  149.2478 H   0  0  0  0  0  0  0  0  0  0  0  0
  143.5515  132.6555  150.9291 H   0  0  0  0  0  0  0  0  0  0  0  0
  144.1323  134.3846  152.7698 H   0  0  0  0  0  0  0  0  0  0  0  0
  145.7957  134.3540  152.2365 H   0  0  0  0  0  0  0  0  0  0  0  0
  145.3364  136.4368  153.4492 H   0  0  0  0  0  0  0  0  0  0  0  0
  144.0000  136.8306  152.3901 H   0  0  0  0  0  0  0  0  0  0  0  0
  150.2951  137.9249  155.3136 H   0  0  0  0  0  0  0  0  0  0  0  0
  151.5176  138.2168  156.5642 H   0  0  0  0  0  0  0  0  0  0  0  0
  151.9837  138.2263  154.8502 H   0  0  0  0  0  0  0  0  0  0  0  0
  146.7943  136.5534  151.5484 H   0  0  0  0  0  0  0  0  0  0  0  0
  1  2  1  0  0  0  0
  1 21  1  0  0  0  0
  1 22  1  0  0  0  0
  1 23  1  0  0  0  0
  2 20  2  0  0  0  0
  2  3  1  0  0  0  0
  3  4  2  0  0  0  0
  3 24  1  0  0  0  0
  4  5  1  0  0  0  0
  4 18  1  0  0  0  0
  5  6  1  0  0  0  0
  5 25  1  0  0  0  0
  6  7  2  0  0  0  0
  6  8  1  0  0  0  0
  8  9  1  0  0  0  0
  8 26  1  0  0  0  0
  9 10  1  0  0  0  0
  9 27  1  0  0  0  0
  9 28  1  0  0  0  0
 10 11  1  0  0  0  0
 10 29  1  0  0  0  0
 10 30  1  0  0  0  0
 11 17  1  0  0  0  0
 11 12  1  0  0  0  0
 11 46  1  0  0  0  0
 12 13  1  0  0  0  0
 12 31  1  0  0  0  0
 12 32  1  0  0  0  0
 13 14  1  0  0  0  0
 13 33  1  0  0  0  0
 13 34  1  0  0  0  0
 14 15  1  0  0  0  0
 14 16  1  0  0  0  0
 14 35  1  0  0  0  0
 15 36  1  0  0  0  0
 15 37  1  0  0  0  0
 15 38  1  0  0  0  0
 16 17  1  0  0  0  0
 16 39  1  0  0  0  0
 16 40  1  0  0  0  0
 17 41  1  0  0  0  0
 17 42  1  0  0  0  0
 18 19  1  0  0  0  0
 18 20  1  0  0  0  0
 19 43  1  0  0  0  0
 19 44  1  0  0  0  0
 19 45  1  0  0  0  0
M  CHG  1  11   1
M  END
> <s_m_source_file>
AV-unprocessed.smi

> <i_m_source_file_index>
1279

> <i_lp_mmshare_version>
43012

> <i_f3d_flags>
0

> <s_epik_input>
W0NIM11jMVtjSF1jKG4objEpW0NIM10pW05IXUMoPU8pW05IXVtDSDJdW0NIMl1OMltDSDJdW0NIMl1bQ0hdKFtDSDNdKVtDSDJdW0NIMl0y

> <s_epik_cmdline>
J2VwaWtfcHl0aG9uJywgJy1waCcsICc3LjAnLCAnLXRuJywgJzgnLCAnLW1hJywgJzIwMCcsICctbWV0YWxfYmluZGluZycsICctaW1hZScsICc8aW5maWxlLm1hZT4nLCAnLW9tYWUnLCAnPG91dGZpbGUubWFlPic=

> <r_lp_tautomer_probability>
1

> <r_epik_Ionization_Penalty>
0.00166091

> <r_epik_Ionization_Penalty_Charging>
0.0015841

> <r_epik_Ionization_Penalty_Neutral>
7.68112e-05

> <r_epik_State_Penalty>
0.00106518

> <r_epik_Charging_Adjusted_Penalty>
0.00264928

> <i_epik_Tot_Q>
1

> <i_epik_Tot_abs_Q>
1

> <r_epik_Metal_State_Penalty>
-0

> <b_epik_Metal_Only>
0

> <s_lp_Force_Field>
OPLS_2005

> <r_lp_Energy>
17.7032

> <b_lp_Chiralities_Consistent>
1

> <s_lp_Variant>
AV-unprocessed.smi:1279-1

> <Gold.Version>
5.8.1

> <Gold.Id.Protein>
6NUR|6NUR_protein|mol2

> <Gold.PLP.Fitness>
50.5431

> <Gold.PLP.PLP>
-37.4865

> <Gold.PLP.part.hbond>
-4.9842

> <Gold.PLP.part.metal>
0.0000

> <Gold.PLP.part.buried>
-3.0322

> <Gold.PLP.part.nonpolar>
-29.2064

> <Gold.PLP.part.repulsive>
0.2442

> <Gold.PLP.ligand.clash>
0.0000

> <Gold.PLP.ligand.torsion>
0.9414

> <Gold.PLP.Chemscore.Hbond>
4.9673

> <Gold.PLP.Chemscore.CHOScore>
0.0000

> <Gold.PLP.Chemscore.Metal>
0.0000

> <Gold.Chemscore.Hbonds>
donor molecule, donor type, donor heavy atom, donor atom, acceptor molecule, acceptor atom, score
      L1  H    11    46       P1  7948  1.30

> <Gold.PLP.Chemscore.Internal.Correction>
0.0377

> <Gold.Rescore>
     Score         DG    S(hbond)    S(metal)    S(lipo)     H(rot)  DE(clash)    DE(int)     intcor
     16.75     -19.06       2.49        0.00      77.43       1.48       1.45       0.87       ----

> <Gold.Chemscore.Fitness>
16.7457

> <Gold.Chemscore.DG>
-19.0624

> <Gold.Chemscore.ZeroCoef>
-5.4800

> <Gold.Chemscore.Hbond>
2.4915

> <Gold.Chemscore.Metal>
0.0000

> <Gold.Chemscore.Lipo>
77.4287

> <Gold.Chemscore.Internal_Hbond>
0.0000

> <Gold.Chemscore.DEClash>
1.4453

> <Gold.Chemscore.DEInternal>
0.8714

> <Gold.Chemscore.Rot>
1.4838

> <Gold.Chemscore.Internal.Correction>
   9.000000E+99

> <Gold.Chemscore.Hbonds>
donor molecule, donor type, donor heavy atom, donor atom, acceptor molecule, acceptor atom, score
      L1  H     5    25       P1  7957  0.01
      L1  H    11    46       P1  7948  0.64

> <Gold.Chemscore.Hbond.Weighted>
-8.3217

> <Gold.Chemscore.Metal.Weighted>
-0.0000

> <Gold.Chemscore.Lipo.Weighted>
-9.0592

> <Gold.Chemscore.Internal_Hbond.Weighted>
0.0000

> <Gold.Chemscore.DEClash.Weighted>
1.4453

> <Gold.Chemscore.DEInternal.Weighted>
0.8714

> <Gold.Chemscore.Rot.Weighted>
3.7985

> <Gold.Chemscore.Internal.Correction.Weighted>
   9.000000E+99

> <Gold.Protein.RotatedTorsions>
[ 6907 6896 6895 6894 ] final   58.98 input  -60.11 | X-H torsion
[ 7974 7965 7964 7962 ] final  158.82 input  175.53 | X-H torsion
[ 8008 7997 7996 7995 ] final   87.80 input   59.86 | X-H torsion
[ 10167 10162 10161 10158 ] final  120.18 input  -65.29 | X-H torsion
[ 10718 10713 10712 10709 ] final  -13.14 input   66.30 | X-H torsion
[ 10763 10752 10751 10750 ] final -100.55 input  -60.55 | X-H torsion
[ 11005 11000 10999 10996 ] final -104.03 input  -57.11 | X-H torsion

> <Gold.Protein.ActiveResidues>
 VAL166  LYS551  ARG553  GLY616  TRP617  ASP618  TYR619  PRO620  LYS621  CYS622 
 ASP623  PHE694  ASN695  SER759  ASP760  ASP761  ALA762  ILE779  LEU786  VAL792 
 PHE793  MET794  SER795  GLU796  ALA797  LYS798  CYS799  TRP800  GLU811  SER814 

> <Gold.Protein.RotatedAtoms>
  152.3873  134.6497  160.0120 H   0  0  0  0  0  0  0  0  0  0  0  0  # atno 6907 bound_to 6896
  151.6741  133.3307  159.3211 H   0  0  0  0  0  0  0  0  0  0  0  0  # atno 6908 bound_to 6896
  150.7797  134.6774  159.6469 H   0  0  0  0  0  0  0  0  0  0  0  0  # atno 6909 bound_to 6896
  144.7824  139.7531  143.6254 H   0  0  0  0  0  0  0  0  0  0  0  0  # atno 7974 bound_to 7965
  155.9799  140.3378  155.6653 H   0  0  0  0  0  0  0  0  0  0  0  0  # atno 8008 bound_to 7997
  155.6562  140.0711  157.2588 H   0  0  0  0  0  0  0  0  0  0  0  0  # atno 8009 bound_to 7997
  154.4189  140.1716  156.1715 H   0  0  0  0  0  0  0  0  0  0  0  0  # atno 8010 bound_to 7997
  139.5998  144.7053  151.3089 H   0  0  0  0  0  0  0  0  0  0  0  0  # atno 10167 bound_to 10162
  156.6345  130.4911  149.6117 H   0  0  0  0  0  0  0  0  0  0  0  0  # atno 10718 bound_to 10713
  154.7588  135.4931  153.9425 H   0  0  0  0  0  0  0  0  0  0  0  0  # atno 10763 bound_to 10752
  153.1227  135.6735  153.9317 H   0  0  0  0  0  0  0  0  0  0  0  0  # atno 10764 bound_to 10752
  153.9044  135.3106  155.3427 H   0  0  0  0  0  0  0  0  0  0  0  0  # atno 10765 bound_to 10752
  141.1119  133.8689  157.1560 H   0  0  0  0  0  0  0  0  0  0  0  0  # atno 11005 bound_to 11000
  146.2039  139.5351  142.9725 LP  0  0  0  0  0  0  0  0  0  0  0  0  # atno 17320 bound_to 7965
  145.6013  141.0355  143.2016 LP  0  0  0  0  0  0  0  0  0  0  0  0  # atno 17321 bound_to 7965
  140.7241  143.7054  150.7812 LP  0  0  0  0  0  0  0  0  0  0  0  0  # atno 17342 bound_to 10162
  140.0628  143.5138  152.2619 LP  0  0  0  0  0  0  0  0  0  0  0  0  # atno 17343 bound_to 10162
  156.2208  130.6736  151.1366 LP  0  0  0  0  0  0  0  0  0  0  0  0  # atno 17370 bound_to 10713
  157.7190  131.0693  150.6213 LP  0  0  0  0  0  0  0  0  0  0  0  0  # atno 17371 bound_to 10713
  140.0018  135.0025  157.0206 LP  0  0  0  0  0  0  0  0  0  0  0  0  # atno 17394 bound_to 11000
  140.4752  134.1346  155.7208 LP  0  0  0  0  0  0  0  0  0  0  0  0  # atno 17395 bound_to 11000

$$$$
