AV-unprocessed.smi:2315|AV-procd|sdf|9268|dock5
  -GOLD-   2272012493D 1   1.00000     0.00000
 Structure written by MMmdl.
 40 41  0  0  0  0  0  0  0  0  1 V2000
  147.0058  140.0695  152.5447 O   0  0  0  0  0  0  0  0  0  0  0  0
  147.6637  139.0321  152.4658 C   0  0  0  0  0  0  0  0  0  0  0  0
  147.3214  137.9999  151.6813 N   0  0  0  0  0  0  0  0  0  0  0  0
  146.1351  137.9476  150.8338 C   0  0  0  0  0  0  0  0  0  0  0  0
  145.8970  136.5286  150.2773 C   0  0  0  0  0  0  0  0  0  0  0  0
  145.0005  135.6519  151.1698 C   0  0  0  0  0  0  0  0  0  0  0  0
  143.9488  136.1239  151.6051 O   0  0  0  0  0  0  0  0  0  0  0  0
  145.3912  134.3838  151.4485 N   0  0  0  0  0  0  0  0  0  0  0  0
  146.5970  133.7265  150.9248 C   0  0  0  0  0  0  0  0  0  0  0  0
  146.1735  132.6507  149.9081 C   0  0  0  0  0  0  0  0  0  0  0  0
  145.2002  131.6429  150.5487 C   0  0  0  0  0  0  0  0  0  0  0  0
  144.0363  132.3531  151.2655 C   0  0  0  0  0  0  0  0  0  0  0  0
  144.5575  133.4480  152.2152 C   0  0  0  0  0  0  0  0  0  0  0  0
  148.8102  138.7827  153.1217 N   0  0  0  0  0  0  0  0  0  0  0  0
  149.5075  139.6037  154.0505 C   0  0  0  0  0  0  0  0  0  0  0  0
  149.1910  140.9590  154.3127 C   0  0  0  0  0  0  0  0  0  0  0  0
  149.9511  141.6564  155.2735 C   0  0  0  0  0  0  0  0  0  0  0  0
  150.9663  141.0992  155.9668 N   0  0  0  0  0  0  0  0  0  0  0  0
  151.2575  139.8041  155.7234 C   0  0  0  0  0  0  0  0  0  0  0  0
  150.5599  139.0169  154.7853 C   0  0  0  0  0  0  0  0  0  0  0  0
  150.9013  137.7195  154.5939 F   0  0  0  0  0  0  0  0  0  0  0  0
  147.9216  137.1881  151.6726 H   0  0  0  0  0  0  0  0  0  0  0  0
  145.2844  138.2626  151.4393 H   0  0  0  0  0  0  0  0  0  0  0  0
  146.2267  138.6723  150.0225 H   0  0  0  0  0  0  0  0  0  0  0  0
  145.4374  136.6035  149.2909 H   0  0  0  0  0  0  0  0  0  0  0  0
  146.8578  136.0278  150.1517 H   0  0  0  0  0  0  0  0  0  0  0  0
  147.3082  134.4112  150.4661 H   0  0  0  0  0  0  0  0  0  0  0  0
  147.1376  133.2628  151.7513 H   0  0  0  0  0  0  0  0  0  0  0  0
  145.6966  133.1274  149.0505 H   0  0  0  0  0  0  0  0  0  0  0  0
  147.0509  132.1292  149.5248 H   0  0  0  0  0  0  0  0  0  0  0  0
  144.8163  130.9562  149.7939 H   0  0  0  0  0  0  0  0  0  0  0  0
  145.7440  131.0336  151.2718 H   0  0  0  0  0  0  0  0  0  0  0  0
  143.3710  132.8010  150.5261 H   0  0  0  0  0  0  0  0  0  0  0  0
  143.4405  131.6267  151.8189 H   0  0  0  0  0  0  0  0  0  0  0  0
  145.1543  133.0015  153.0118 H   0  0  0  0  0  0  0  0  0  0  0  0
  143.7185  133.9357  152.7128 H   0  0  0  0  0  0  0  0  0  0  0  0
  149.2703  137.9139  152.8918 H   0  0  0  0  0  0  0  0  0  0  0  0
  148.3835  141.4713  153.8138 H   0  0  0  0  0  0  0  0  0  0  0  0
  149.7325  142.6904  155.4951 H   0  0  0  0  0  0  0  0  0  0  0  0
  152.0698  139.3808  156.2954 H   0  0  0  0  0  0  0  0  0  0  0  0
  1  2  2  0  0  0  0
  2  3  1  0  0  0  0
  2 14  1  0  0  0  0
  3  4  1  0  0  0  0
  3 22  1  0  0  0  0
  4  5  1  0  0  0  0
  4 23  1  0  0  0  0
  4 24  1  0  0  0  0
  5  6  1  0  0  0  0
  5 25  1  0  0  0  0
  5 26  1  0  0  0  0
  6  7  2  0  0  0  0
  6  8  1  0  0  0  0
  8 13  1  0  0  0  0
  8  9  1  0  0  0  0
  9 10  1  0  0  0  0
  9 27  1  0  0  0  0
  9 28  1  0  0  0  0
 10 11  1  0  0  0  0
 10 29  1  0  0  0  0
 10 30  1  0  0  0  0
 11 12  1  0  0  0  0
 11 31  1  0  0  0  0
 11 32  1  0  0  0  0
 12 13  1  0  0  0  0
 12 33  1  0  0  0  0
 12 34  1  0  0  0  0
 13 35  1  0  0  0  0
 13 36  1  0  0  0  0
 14 15  1  0  0  0  0
 14 37  1  0  0  0  0
 15 20  1  0  0  0  0
 15 16  2  0  0  0  0
 16 17  1  0  0  0  0
 16 38  1  0  0  0  0
 17 18  2  0  0  0  0
 17 39  1  0  0  0  0
 18 19  1  0  0  0  0
 19 20  2  0  0  0  0
 19 40  1  0  0  0  0
 20 21  1  0  0  0  0
M  END
> <s_m_source_file>
AV-unprocessed.smi

> <i_m_source_file_index>
2315

> <i_lp_mmshare_version>
43012

> <i_f3d_flags>
0

> <s_epik_input>
RmMxW2NIXW5bY0hdW2NIXWMxW05IXUMoPU8pW05IXVtDSDJdW0NIMl1DKD1PKU4yW0NIMl1bQ0gyXVtDSDJdW0NIMl1bQ0gyXTI=

> <s_epik_cmdline>
J2VwaWtfcHl0aG9uJywgJy1waCcsICc3LjAnLCAnLXRuJywgJzgnLCAnLW1hJywgJzIwMCcsICctbWV0YWxfYmluZGluZycsICctaW1hZScsICc8aW5maWxlLm1hZT4nLCAnLW9tYWUnLCAnPG91dGZpbGUubWFlPic=

> <r_epik_Ionization_Penalty>
0.00291221

> <r_epik_Ionization_Penalty_Charging>
0

> <r_epik_Ionization_Penalty_Neutral>
0.00291221

> <r_epik_State_Penalty>
0.0020173

> <r_epik_Charging_Adjusted_Penalty>
0.0020173

> <i_epik_Tot_Q>
0

> <i_epik_Tot_abs_Q>
0

> <r_epik_Metal_State_Penalty>
-0

> <b_epik_Metal_Only>
0

> <s_lp_Force_Field>
OPLS_2005

> <r_lp_Energy>
31.5376

> <b_lp_Chiralities_Consistent>
1

> <s_lp_Variant>
AV-unprocessed.smi:2315-1

> <Gold.Version>
5.8.1

> <Gold.Id.Protein>
6NUR|6NUR_protein|mol2

> <Gold.PLP.Fitness>
46.5548

> <Gold.PLP.PLP>
-38.7728

> <Gold.PLP.part.hbond>
-3.4254

> <Gold.PLP.part.metal>
0.0000

> <Gold.PLP.part.buried>
5.8472

> <Gold.PLP.part.nonpolar>
-41.6497

> <Gold.PLP.part.repulsive>
0.6305

> <Gold.PLP.ligand.clash>
0.0000

> <Gold.PLP.ligand.torsion>
0.4265

> <Gold.PLP.Chemscore.Hbond>
1.8710

> <Gold.PLP.Chemscore.CHOScore>
1.0000

> <Gold.PLP.Chemscore.Metal>
0.0000

> <Gold.Chemscore.Hbonds>
donor molecule, donor type, donor heavy atom, donor atom, acceptor molecule, acceptor atom, score
      L1  H     3    22       P1  7948  0.63
      L1  H    14    37       P1  7948  0.82
      L1  C    17    39       P1  8028  1.00

> <Gold.PLP.Chemscore.Internal.Correction>
0.0219

> <Gold.Rescore>
     Score         DG    S(hbond)    S(metal)    S(lipo)     H(rot)  DE(clash)    DE(int)     intcor
     13.28     -18.17       1.92        0.00      88.17       1.57       3.29       1.59       ----

> <Gold.Chemscore.Fitness>
13.2765

> <Gold.Chemscore.DG>
-18.1654

> <Gold.Chemscore.ZeroCoef>
-5.4800

> <Gold.Chemscore.Hbond>
1.9150

> <Gold.Chemscore.Metal>
0.0000

> <Gold.Chemscore.Lipo>
88.1743

> <Gold.Chemscore.Internal_Hbond>
0.0000

> <Gold.Chemscore.DEClash>
3.2948

> <Gold.Chemscore.DEInternal>
1.5941

> <Gold.Chemscore.Rot>
1.5731

> <Gold.Chemscore.Internal.Correction>
   9.000000E+99

> <Gold.Chemscore.Hbonds>
donor molecule, donor type, donor heavy atom, donor atom, acceptor molecule, acceptor atom, score
      L1  H     3    22       P1  7948  0.65
      L1  H    14    37       P1  7948  0.77

> <Gold.Chemscore.Hbond.Weighted>
-6.3961

> <Gold.Chemscore.Metal.Weighted>
-0.0000

> <Gold.Chemscore.Lipo.Weighted>
-10.3164

> <Gold.Chemscore.Internal_Hbond.Weighted>
0.0000

> <Gold.Chemscore.DEClash.Weighted>
3.2948

> <Gold.Chemscore.DEInternal.Weighted>
1.5941

> <Gold.Chemscore.Rot.Weighted>
4.0271

> <Gold.Chemscore.Internal.Correction.Weighted>
   9.000000E+99

> <Gold.Protein.RotatedTorsions>
[ 6907 6896 6895 6894 ] final -115.99 input  -60.11 | X-H torsion
[ 7974 7965 7964 7962 ] final  109.69 input  175.53 | X-H torsion
[ 8008 7997 7996 7995 ] final  -59.52 input   59.86 | X-H torsion
[ 10167 10162 10161 10158 ] final  -26.10 input  -65.29 | X-H torsion
[ 10718 10713 10712 10709 ] final   -5.46 input   66.30 | X-H torsion
[ 10763 10752 10751 10750 ] final  112.55 input  -60.55 | X-H torsion
[ 11005 11000 10999 10996 ] final  172.85 input  -57.11 | X-H torsion

> <Gold.Protein.ActiveResidues>
 VAL166  LYS551  ARG553  GLY616  TRP617  ASP618  TYR619  PRO620  LYS621  CYS622 
 ASP623  PHE694  ASN695  SER759  ASP760  ASP761  ALA762  ILE779  LEU786  VAL792 
 PHE793  MET794  SER795  GLU796  ALA797  LYS798  CYS799  TRP800  GLU811  SER814 

> <Gold.Protein.RotatedAtoms>
  150.8021  133.8579  159.3223 H   0  0  0  0  0  0  0  0  0  0  0  0  # atno 6907 bound_to 6896
  151.6389  135.1013  160.0146 H   0  0  0  0  0  0  0  0  0  0  0  0  # atno 6908 bound_to 6896
  152.4109  133.6922  159.6432 H   0  0  0  0  0  0  0  0  0  0  0  0  # atno 6909 bound_to 6896
  145.2645  139.2689  143.3999 H   0  0  0  0  0  0  0  0  0  0  0  0  # atno 7974 bound_to 7965
  154.4356  140.1060  156.6128 H   0  0  0  0  0  0  0  0  0  0  0  0  # atno 8008 bound_to 7997
  155.5791  140.3490  155.4516 H   0  0  0  0  0  0  0  0  0  0  0  0  # atno 8009 bound_to 7997
  156.0332  140.1265  157.0225 H   0  0  0  0  0  0  0  0  0  0  0  0  # atno 8010 bound_to 7997
  140.7284  143.4208  151.0955 H   0  0  0  0  0  0  0  0  0  0  0  0  # atno 10167 bound_to 10162
  156.7462  130.5225  149.5813 H   0  0  0  0  0  0  0  0  0  0  0  0  # atno 10718 bound_to 10713
  153.4795  135.3683  155.2434 H   0  0  0  0  0  0  0  0  0  0  0  0  # atno 10763 bound_to 10752
  154.8755  135.3951  154.3717 H   0  0  0  0  0  0  0  0  0  0  0  0  # atno 10764 bound_to 10752
  153.4318  135.7082  153.6290 H   0  0  0  0  0  0  0  0  0  0  0  0  # atno 10765 bound_to 10752
  140.3341  134.7332  157.4156 H   0  0  0  0  0  0  0  0  0  0  0  0  # atno 11005 bound_to 11000
  146.3265  140.3072  142.8624 LP  0  0  0  0  0  0  0  0  0  0  0  0  # atno 17320 bound_to 7965
  144.9389  140.8056  143.5643 LP  0  0  0  0  0  0  0  0  0  0  0  0  # atno 17321 bound_to 7965
  139.7853  143.8296  152.3144 LP  0  0  0  0  0  0  0  0  0  0  0  0  # atno 17342 bound_to 10162
  139.8261  144.7274  150.9509 LP  0  0  0  0  0  0  0  0  0  0  0  0  # atno 17343 bound_to 10162
  156.1432  130.6259  151.0495 LP  0  0  0  0  0  0  0  0  0  0  0  0  # atno 17370 bound_to 10713
  157.6797  131.0841  150.7402 LP  0  0  0  0  0  0  0  0  0  0  0  0  # atno 17371 bound_to 10713
  140.0835  134.5698  155.8515 LP  0  0  0  0  0  0  0  0  0  0  0  0  # atno 17394 bound_to 11000
  141.2056  133.6648  156.6188 LP  0  0  0  0  0  0  0  0  0  0  0  0  # atno 17395 bound_to 11000

$$$$
