AV-unprocessed.smi:305|AV-procd|sdf|2280|dock3
  -GOLD-   2262022173D 1   1.00000     0.00000
 Structure written by MMmdl.
 47 49  0  0  0  0  0  0  0  0  1 V2000
  143.1169  132.7273  158.0228 C   0  0  0  0  0  0  0  0  0  0  0  0
  144.5739  133.1898  158.0904 C   0  0  0  0  0  0  0  0  0  0  0  0
  144.8816  133.9171  156.9133 O   0  0  0  0  0  0  0  0  0  0  0  0
  146.2449  134.2990  156.8493 C   0  0  0  0  0  0  0  0  0  0  0  0
  146.4468  135.5594  157.7000 C   0  0  0  0  0  0  0  0  0  0  0  0
  147.8577  135.9054  157.8274 N   0  0  0  0  0  0  0  0  0  0  0  0
  148.5817  136.0714  158.9643 C   0  0  0  0  0  0  0  0  0  0  0  0
  147.9954  135.9215  160.2394 N   0  0  0  0  0  0  0  0  0  0  0  0
  148.0277  136.9402  161.1233 N   0  0  0  0  0  0  0  0  0  0  0  0
  147.4093  136.4800  162.1975 C   0  0  0  0  0  0  0  0  0  0  0  0
  147.2501  137.3729  163.3944 C   0  0  0  0  0  0  0  0  0  0  0  0
  146.9713  135.1334  162.0359 C   0  0  0  0  0  0  0  0  0  0  0  0
  146.2403  134.2792  163.0347 C   0  0  0  0  0  0  0  0  0  0  0  0
  147.3673  134.8084  160.7667 C   0  0  0  0  0  0  0  0  0  0  0  0
  147.2029  133.5384  159.9947 C   0  0  0  0  0  0  0  0  0  0  0  0
  149.8706  136.3677  158.7727 N   0  0  0  0  0  0  0  0  0  0  0  0
  149.9733  136.4079  157.3891 C   0  0  0  0  0  0  0  0  0  0  0  0
  148.7778  136.1352  156.8058 C   0  0  0  0  0  0  0  0  0  0  0  0
  148.5954  136.1113  155.3497 C   0  0  0  0  0  0  0  0  0  0  0  0
  147.5202  135.8684  154.8061 O   0  0  0  0  0  0  0  0  0  0  0  0
  149.7336  136.3883  154.6682 N   0  0  0  0  0  0  0  0  0  0  0  0
  150.9666  136.6722  155.1894 C   0  0  0  0  0  0  0  0  0  0  0  0
  151.9122  136.9092  154.4378 O   0  0  0  0  0  0  0  0  0  0  0  0
  151.0953  136.6805  156.5552 N   0  0  0  0  0  0  0  0  0  0  0  0
  152.3921  136.9773  157.1661 C   0  0  0  0  0  0  0  0  0  0  0  0
  149.6637  136.3869  153.6611 H   0  0  0  0  0  0  0  0  0  0  0  0
  142.8452  132.1646  158.9162 H   0  0  0  0  0  0  0  0  0  0  0  0
  142.9503  132.0841  157.1584 H   0  0  0  0  0  0  0  0  0  0  0  0
  142.4396  133.5780  157.9444 H   0  0  0  0  0  0  0  0  0  0  0  0
  144.7245  133.8172  158.9702 H   0  0  0  0  0  0  0  0  0  0  0  0
  145.2337  132.3259  158.1828 H   0  0  0  0  0  0  0  0  0  0  0  0
  146.8766  133.4888  157.2159 H   0  0  0  0  0  0  0  0  0  0  0  0
  146.5287  134.4915  155.8139 H   0  0  0  0  0  0  0  0  0  0  0  0
  145.9064  136.3993  157.2625 H   0  0  0  0  0  0  0  0  0  0  0  0
  146.0239  135.4226  158.6950 H   0  0  0  0  0  0  0  0  0  0  0  0
  146.2132  137.3923  163.7302 H   0  0  0  0  0  0  0  0  0  0  0  0
  147.5445  138.4002  163.1758 H   0  0  0  0  0  0  0  0  0  0  0  0
  147.8617  137.0220  164.2257 H   0  0  0  0  0  0  0  0  0  0  0  0
  146.6260  133.2597  163.0540 H   0  0  0  0  0  0  0  0  0  0  0  0
  145.1765  134.2166  162.8049 H   0  0  0  0  0  0  0  0  0  0  0  0
  146.3279  134.6702  164.0484 H   0  0  0  0  0  0  0  0  0  0  0  0
  146.5004  132.8663  160.4871 H   0  0  0  0  0  0  0  0  0  0  0  0
  148.1563  133.0183  159.9007 H   0  0  0  0  0  0  0  0  0  0  0  0
  146.8248  133.7368  158.9917 H   0  0  0  0  0  0  0  0  0  0  0  0
  153.1581  136.2968  156.7922 H   0  0  0  0  0  0  0  0  0  0  0  0
  152.3768  136.8797  158.2516 H   0  0  0  0  0  0  0  0  0  0  0  0
  152.6981  137.9978  156.9319 H   0  0  0  0  0  0  0  0  0  0  0  0
  1  2  1  0  0  0  0
  1 27  1  0  0  0  0
  1 28  1  0  0  0  0
  1 29  1  0  0  0  0
  2  3  1  0  0  0  0
  2 30  1  0  0  0  0
  2 31  1  0  0  0  0
  3  4  1  0  0  0  0
  4  5  1  0  0  0  0
  4 32  1  0  0  0  0
  4 33  1  0  0  0  0
  5  6  1  0  0  0  0
  5 34  1  0  0  0  0
  5 35  1  0  0  0  0
  6 18  1  0  0  0  0
  6  7  1  0  0  0  0
  7  8  1  0  0  0  0
  7 16  2  0  0  0  0
  8 14  1  0  0  0  0
  8  9  1  0  0  0  0
  9 10  2  0  0  0  0
 10 11  1  0  0  0  0
 10 12  1  0  0  0  0
 11 36  1  0  0  0  0
 11 37  1  0  0  0  0
 11 38  1  0  0  0  0
 12 13  1  0  0  0  0
 12 14  2  0  0  0  0
 13 39  1  0  0  0  0
 13 40  1  0  0  0  0
 13 41  1  0  0  0  0
 14 15  1  0  0  0  0
 15 42  1  0  0  0  0
 15 43  1  0  0  0  0
 15 44  1  0  0  0  0
 16 17  1  0  0  0  0
 17 24  1  0  0  0  0
 17 18  2  0  0  0  0
 18 19  1  0  0  0  0
 19 20  2  0  0  0  0
 19 21  1  0  0  0  0
 21 26  1  0  0  0  0
 21 22  1  0  0  0  0
 22 23  2  0  0  0  0
 22 24  1  0  0  0  0
 24 25  1  0  0  0  0
 25 45  1  0  0  0  0
 25 46  1  0  0  0  0
 25 47  1  0  0  0  0
M  END
> <s_m_source_file>
AV-unprocessed.smi

> <i_m_source_file_index>
305

> <i_lp_mmshare_version>
43012

> <i_f3d_flags>
0

> <s_epik_input>
W0NIM11uMWMoPU8pW25IXWMoPU8pYyhjMTIpbihbQ0gyXVtDSDJdT1tDSDJdW0NIM10pYyhuMiktbjNuYyhbQ0gzXSljKFtDSDNdKWMzW0NIM10=

> <s_epik_cmdline>
J2VwaWtfcHl0aG9uJywgJy1waCcsICc3LjAnLCAnLXRuJywgJzgnLCAnLW1hJywgJzIwMCcsICctbWV0YWxfYmluZGluZycsICctaW1hZScsICc8aW5maWxlLm1hZT4nLCAnLW9tYWUnLCAnPG91dGZpbGUubWFlPic=

> <r_lp_tautomer_probability>
1

> <r_epik_Ionization_Penalty>
0.00243297

> <r_epik_Ionization_Penalty_Charging>
0.000715499

> <r_epik_Ionization_Penalty_Neutral>
0.00171747

> <r_epik_State_Penalty>
-0

> <r_epik_Charging_Adjusted_Penalty>
0.000715499

> <i_epik_Tot_Q>
0

> <i_epik_Tot_abs_Q>
0

> <r_epik_Metal_State_Penalty>
0.258225

> <b_epik_Metal_Only>
0

> <s_lp_Force_Field>
OPLS_2005

> <r_lp_Energy>
25.4323

> <b_lp_Chiralities_Consistent>
1

> <s_lp_Variant>
AV-unprocessed.smi:305-1

> <Gold.Version>
5.8.1

> <Gold.Id.Protein>
6NUR|6NUR_protein|mol2

> <Gold.PLP.Fitness>
39.8595

> <Gold.PLP.PLP>
-28.7466

> <Gold.PLP.part.hbond>
-4.9793

> <Gold.PLP.part.metal>
0.0000

> <Gold.PLP.part.buried>
-2.7892

> <Gold.PLP.part.nonpolar>
-22.7532

> <Gold.PLP.part.repulsive>
0.3433

> <Gold.PLP.ligand.clash>
0.0000

> <Gold.PLP.ligand.torsion>
1.2367

> <Gold.PLP.Chemscore.Hbond>
4.3660

> <Gold.PLP.Chemscore.CHOScore>
0.0000

> <Gold.PLP.Chemscore.Metal>
0.0000

> <Gold.Chemscore.Hbonds>
donor molecule, donor type, donor heavy atom, donor atom, acceptor molecule, acceptor atom, score
      L1  H    21    26       P1  7948  1.00
      P1  H  6896  6908       L1    16  1.00
      P1  H  6931  6943       L1     9  0.95
      P1  H  6934  6947       L1     9  0.34
      P1  H 10752 10765       L1    23  1.00

> <Gold.PLP.Chemscore.Internal.Correction>
0.4884

> <Gold.Rescore>
     Score         DG    S(hbond)    S(metal)    S(lipo)     H(rot)  DE(clash)    DE(int)     intcor
     14.66     -17.64       2.89        0.00      57.46       1.65       0.51       2.48       ----

> <Gold.Chemscore.Fitness>
14.6572

> <Gold.Chemscore.DG>
-17.6424

> <Gold.Chemscore.ZeroCoef>
-5.4800

> <Gold.Chemscore.Hbond>
2.8912

> <Gold.Chemscore.Metal>
0.0000

> <Gold.Chemscore.Lipo>
57.4566

> <Gold.Chemscore.Internal_Hbond>
0.0000

> <Gold.Chemscore.DEClash>
0.5074

> <Gold.Chemscore.DEInternal>
2.4778

> <Gold.Chemscore.Rot>
1.6471

> <Gold.Chemscore.Internal.Correction>
   9.000000E+99

> <Gold.Chemscore.Hbonds>
donor molecule, donor type, donor heavy atom, donor atom, acceptor molecule, acceptor atom, score
      L1  H    21    26       P1  7948  0.50
      P1  H  6896  6908       L1    16  0.54
      P1  H  6931  6943       L1     9  0.21
      P1  H  6934  6947       L1     9  0.14
      P1  H 10752 10765       L1    23  0.91

> <Gold.Chemscore.Hbond.Weighted>
-9.6567

> <Gold.Chemscore.Metal.Weighted>
-0.0000

> <Gold.Chemscore.Lipo.Weighted>
-6.7224

> <Gold.Chemscore.Internal_Hbond.Weighted>
0.0000

> <Gold.Chemscore.DEClash.Weighted>
0.5074

> <Gold.Chemscore.DEInternal.Weighted>
2.4778

> <Gold.Chemscore.Rot.Weighted>
4.2167

> <Gold.Chemscore.Internal.Correction.Weighted>
   9.000000E+99

> <Gold.Protein.RotatedTorsions>
[ 6907 6896 6895 6894 ] final -159.09 input  -60.11 | X-H torsion
[ 7974 7965 7964 7962 ] final   -6.19 input  175.53 | X-H torsion
[ 8008 7997 7996 7995 ] final  -40.20 input   59.86 | X-H torsion
[ 10167 10162 10161 10158 ] final  109.34 input  -65.29 | X-H torsion
[ 10718 10713 10712 10709 ] final -147.43 input   66.30 | X-H torsion
[ 10763 10752 10751 10750 ] final  155.54 input  -60.55 | X-H torsion
[ 11005 11000 10999 10996 ] final  -13.86 input  -57.11 | X-H torsion

> <Gold.Protein.ActiveResidues>
 VAL166  LYS551  ARG553  GLY616  TRP617  ASP618  TYR619  PRO620  LYS621  CYS622 
 ASP623  PHE694  ASN695  SER759  ASP760  ASP761  ALA762  ILE779  LEU786  VAL792 
 PHE793  MET794  SER795  GLU796  ALA797  LYS798  CYS799  TRP800  GLU811  SER814 

> <Gold.Protein.RotatedAtoms>
  151.3282  133.4011  159.2660 H   0  0  0  0  0  0  0  0  0  0  0  0  # atno 6907 bound_to 6896
  150.9977  134.9298  159.7946 H   0  0  0  0  0  0  0  0  0  0  0  0  # atno 6908 bound_to 6896
  152.5266  134.3247  159.9213 H   0  0  0  0  0  0  0  0  0  0  0  0  # atno 6909 bound_to 6896
  146.2336  140.2133  142.8336 H   0  0  0  0  0  0  0  0  0  0  0  0  # atno 7974 bound_to 7965
  154.4014  140.1531  156.2989 H   0  0  0  0  0  0  0  0  0  0  0  0  # atno 8008 bound_to 7997
  155.8718  140.3448  155.5805 H   0  0  0  0  0  0  0  0  0  0  0  0  # atno 8009 bound_to 7997
  155.7765  140.0837  157.2072 H   0  0  0  0  0  0  0  0  0  0  0  0  # atno 8010 bound_to 7997
  139.6774  144.7121  151.1577 H   0  0  0  0  0  0  0  0  0  0  0  0  # atno 10167 bound_to 10162
  156.4075  130.7964  151.2180 H   0  0  0  0  0  0  0  0  0  0  0  0  # atno 10718 bound_to 10713
  154.1700  135.2805  155.3083 H   0  0  0  0  0  0  0  0  0  0  0  0  # atno 10763 bound_to 10752
  154.6082  135.5507  153.7448 H   0  0  0  0  0  0  0  0  0  0  0  0  # atno 10764 bound_to 10752
  153.0167  135.6409  154.1841 H   0  0  0  0  0  0  0  0  0  0  0  0  # atno 10765 bound_to 10752
  140.7804  133.8367  155.9287 H   0  0  0  0  0  0  0  0  0  0  0  0  # atno 11005 bound_to 11000
  144.9689  140.8349  143.5467 LP  0  0  0  0  0  0  0  0  0  0  0  0  # atno 17320 bound_to 7965
  145.2112  139.2203  143.5142 LP  0  0  0  0  0  0  0  0  0  0  0  0  # atno 17321 bound_to 7965
  140.7640  143.5751  150.8954 LP  0  0  0  0  0  0  0  0  0  0  0  0  # atno 17342 bound_to 10162
  139.9420  143.6370  152.3051 LP  0  0  0  0  0  0  0  0  0  0  0  0  # atno 17343 bound_to 10162
  157.7506  131.0268  150.3977 LP  0  0  0  0  0  0  0  0  0  0  0  0  # atno 17370 bound_to 10713
  156.4269  130.3964  149.6787 LP  0  0  0  0  0  0  0  0  0  0  0  0  # atno 17371 bound_to 10713
  140.9488  134.1806  157.4743 LP  0  0  0  0  0  0  0  0  0  0  0  0  # atno 17394 bound_to 11000
  139.8743  134.9901  156.5486 LP  0  0  0  0  0  0  0  0  0  0  0  0  # atno 17395 bound_to 11000

$$$$
