AV-unprocessed.smi:1254|AV-procd|sdf|5271|dock8
  -GOLD-   22720 4383D 1   1.00000     0.00000
 Structure written by MMmdl.
 46 47  0  0  0  0  0  0  0  0  2 V2000
  149.8182  141.4514  155.5500 C   0  0  0  0  0  0  0  0  0  0  0  0
  148.8664  140.5537  154.8369 C   0  0  0  0  0  0  0  0  0  0  0  0
  149.0361  139.4191  154.0941 C   0  0  0  0  0  0  0  0  0  0  0  0
  147.7091  139.0857  153.7128 C   0  0  0  0  0  0  0  0  0  0  0  0
  147.4460  137.9471  152.9091 N   0  0  0  0  0  0  0  0  0  0  0  0
  146.2503  137.5039  152.4856 C   0  0  0  0  0  0  0  0  0  0  0  0
  145.1649  138.0211  152.7523 O   0  0  0  0  0  0  0  0  0  0  0  0
  146.3775  136.4135  151.7161 N   0  0  0  0  0  0  0  0  0  0  0  0
  145.2691  135.7012  151.0894 C   0  0  0  0  0  0  0  0  0  0  0  0
  145.3136  134.1921  151.3899 C   0  0  2  0  0  0  0  0  0  0  0  0
  146.6867  133.5771  151.0497 C   0  0  0  0  0  0  0  0  0  0  0  0
  146.6935  132.1125  151.2867 N   0  3  1  0  0  0  0  0  0  0  0  0
  146.8049  131.7422  152.7237 C   0  0  0  0  0  0  0  0  0  0  0  0
  148.2516  131.8234  153.2569 C   0  0  0  0  0  0  0  0  0  0  0  0
  148.3381  131.2276  154.6700 C   0  0  0  0  0  0  0  0  0  0  0  0
  148.7853  133.2656  153.2501 C   0  0  0  0  0  0  0  0  0  0  0  0
  145.5688  131.4659  150.5630 C   0  0  0  0  0  0  0  0  0  0  0  0
  144.2256  132.1551  150.8726 C   0  0  0  0  0  0  0  0  0  0  0  0
  144.3232  133.5465  150.5953 O   0  0  0  0  0  0  0  0  0  0  0  0
  146.8109  139.9386  154.1808 N   0  0  0  0  0  0  0  0  0  0  0  0
  147.5480  140.8834  154.9041 O   0  0  0  0  0  0  0  0  0  0  0  0
  150.8453  141.1073  155.4275 H   0  0  0  0  0  0  0  0  0  0  0  0
  149.5964  141.4805  156.6168 H   0  0  0  0  0  0  0  0  0  0  0  0
  149.7544  142.4684  155.1625 H   0  0  0  0  0  0  0  0  0  0  0  0
  149.9618  138.9137  153.8619 H   0  0  0  0  0  0  0  0  0  0  0  0
  148.2561  137.4214  152.6165 H   0  0  0  0  0  0  0  0  0  0  0  0
  147.3053  136.0536  151.5453 H   0  0  0  0  0  0  0  0  0  0  0  0
  144.3347  136.1295  151.4527 H   0  0  0  0  0  0  0  0  0  0  0  0
  145.2903  135.8740  150.0120 H   0  0  0  0  0  0  0  0  0  0  0  0
  145.0949  134.0312  152.4467 H   0  0  0  0  0  0  0  0  0  0  0  0
  146.9155  133.7553  149.9981 H   0  0  0  0  0  0  0  0  0  0  0  0
  147.4821  134.0586  151.6199 H   0  0  0  0  0  0  0  0  0  0  0  0
  146.1873  132.4147  153.3207 H   0  0  0  0  0  0  0  0  0  0  0  0
  146.3971  130.7440  152.8832 H   0  0  0  0  0  0  0  0  0  0  0  0
  148.9025  131.2226  152.6225 H   0  0  0  0  0  0  0  0  0  0  0  0
  147.7162  131.7820  155.3738 H   0  0  0  0  0  0  0  0  0  0  0  0
  149.3621  131.2473  155.0441 H   0  0  0  0  0  0  0  0  0  0  0  0
  148.0065  130.1888  154.6807 H   0  0  0  0  0  0  0  0  0  0  0  0
  148.1733  133.9185  153.8734 H   0  0  0  0  0  0  0  0  0  0  0  0
  148.7987  133.6830  152.2431 H   0  0  0  0  0  0  0  0  0  0  0  0
  149.8065  133.3068  153.6305 H   0  0  0  0  0  0  0  0  0  0  0  0
  145.7688  131.5418  149.4933 H   0  0  0  0  0  0  0  0  0  0  0  0
  145.5136  130.4010  150.7846 H   0  0  0  0  0  0  0  0  0  0  0  0
  143.4379  131.7298  150.2507 H   0  0  0  0  0  0  0  0  0  0  0  0
  143.9231  131.9987  151.9086 H   0  0  0  0  0  0  0  0  0  0  0  0
  147.5447  131.7706  150.8636 H   0  0  0  0  0  0  0  0  0  0  0  0
  1  2  1  0  0  0  0
  1 22  1  0  0  0  0
  1 23  1  0  0  0  0
  1 24  1  0  0  0  0
  2 21  1  0  0  0  0
  2  3  2  0  0  0  0
  3  4  1  0  0  0  0
  3 25  1  0  0  0  0
  4  5  1  0  0  0  0
  4 20  2  0  0  0  0
  5  6  1  0  0  0  0
  5 26  1  0  0  0  0
  6  7  2  0  0  0  0
  6  8  1  0  0  0  0
  8  9  1  0  0  0  0
  8 27  1  0  0  0  0
  9 10  1  0  0  0  0
  9 28  1  0  0  0  0
  9 29  1  0  0  0  0
 10 19  1  0  0  0  0
 10 11  1  0  0  0  0
 10 30  1  0  0  0  0
 11 12  1  0  0  0  0
 11 31  1  0  0  0  0
 11 32  1  0  0  0  0
 12 13  1  0  0  0  0
 12 17  1  0  0  0  0
 12 46  1  0  0  0  0
 13 14  1  0  0  0  0
 13 33  1  0  0  0  0
 13 34  1  0  0  0  0
 14 15  1  0  0  0  0
 14 16  1  0  0  0  0
 14 35  1  0  0  0  0
 15 36  1  0  0  0  0
 15 37  1  0  0  0  0
 15 38  1  0  0  0  0
 16 39  1  0  0  0  0
 16 40  1  0  0  0  0
 16 41  1  0  0  0  0
 17 18  1  0  0  0  0
 17 42  1  0  0  0  0
 17 43  1  0  0  0  0
 18 19  1  0  0  0  0
 18 44  1  0  0  0  0
 18 45  1  0  0  0  0
 20 21  1  0  0  0  0
M  CHG  1  12   1
M  END
> <s_m_source_file>
AV-unprocessed.smi

> <i_m_source_file_index>
1254

> <i_lp_mmshare_version>
43012

> <i_f3d_flags>
0

> <s_epik_input>
W0NIM11jMVtjSF1jKG5vMSlbTkhdQyg9TylbTkhdW0NIMl1bQ0BASF0yW0NIMl1OKFtDSDJdW0NIMl1PMilbQ0gyXVtDSF0oW0NIM10pW0NIM10=

> <s_epik_cmdline>
J2VwaWtfcHl0aG9uJywgJy1waCcsICc3LjAnLCAnLXRuJywgJzgnLCAnLW1hJywgJzIwMCcsICctbWV0YWxfYmluZGluZycsICctaW1hZScsICc8aW5maWxlLm1hZT4nLCAnLW9tYWUnLCAnPG91dGZpbGUubWFlPic=

> <r_epik_Ionization_Penalty>
0.0986825

> <r_epik_Ionization_Penalty_Charging>
0.0986478

> <r_epik_Ionization_Penalty_Neutral>
3.46838e-05

> <r_epik_State_Penalty>
0.0887259

> <r_epik_Charging_Adjusted_Penalty>
0.187374

> <i_epik_Tot_Q>
1

> <i_epik_Tot_abs_Q>
1

> <r_epik_Metal_State_Penalty>
0.103424

> <b_epik_Metal_Only>
0

> <s_lp_Force_Field>
OPLS_2005

> <r_lp_Energy>
16.7856

> <b_lp_Chiralities_Consistent>
1

> <s_lp_Variant>
AV-unprocessed.smi:1254-3

> <Gold.Version>
5.8.1

> <Gold.Id.Protein>
6NUR|6NUR_protein|mol2

> <Gold.PLP.Fitness>
41.5074

> <Gold.PLP.PLP>
-33.2886

> <Gold.PLP.part.hbond>
-2.9279

> <Gold.PLP.part.metal>
0.0000

> <Gold.PLP.part.buried>
-2.9351

> <Gold.PLP.part.nonpolar>
-30.0086

> <Gold.PLP.part.repulsive>
2.5914

> <Gold.PLP.ligand.clash>
0.0000

> <Gold.PLP.ligand.torsion>
0.3552

> <Gold.PLP.Chemscore.Hbond>
2.9600

> <Gold.PLP.Chemscore.CHOScore>
0.0000

> <Gold.PLP.Chemscore.Metal>
0.0000

> <Gold.Chemscore.Hbonds>
donor molecule, donor type, donor heavy atom, donor atom, acceptor molecule, acceptor atom, score
      L1  H     5    26       P1  7948  1.00
      L1  H     8    27       P1  7948  0.94
      L1  H    12    46       P1 10747  1.00

> <Gold.PLP.Chemscore.Internal.Correction>
0.0492

> <Gold.Rescore>
     Score         DG    S(hbond)    S(metal)    S(lipo)     H(rot)  DE(clash)    DE(int)     intcor
     17.84     -19.71       2.90        0.00      76.53       1.73       0.20       1.67       ----

> <Gold.Chemscore.Fitness>
17.8412

> <Gold.Chemscore.DG>
-19.7102

> <Gold.Chemscore.ZeroCoef>
-5.4800

> <Gold.Chemscore.Hbond>
2.9049

> <Gold.Chemscore.Metal>
0.0000

> <Gold.Chemscore.Lipo>
76.5321

> <Gold.Chemscore.Internal_Hbond>
0.0000

> <Gold.Chemscore.DEClash>
0.1981

> <Gold.Chemscore.DEInternal>
1.6709

> <Gold.Chemscore.Rot>
1.7291

> <Gold.Chemscore.Internal.Correction>
   9.000000E+99

> <Gold.Chemscore.Hbonds>
donor molecule, donor type, donor heavy atom, donor atom, acceptor molecule, acceptor atom, score
      L1  H     5    26       P1  7948  0.93
      L1  H     8    27       P1  7948  0.92
      L1  H    12    46       P1 10747  1.00

> <Gold.Chemscore.Hbond.Weighted>
-9.7024

> <Gold.Chemscore.Metal.Weighted>
-0.0000

> <Gold.Chemscore.Lipo.Weighted>
-8.9543

> <Gold.Chemscore.Internal_Hbond.Weighted>
0.0000

> <Gold.Chemscore.DEClash.Weighted>
0.1981

> <Gold.Chemscore.DEInternal.Weighted>
1.6709

> <Gold.Chemscore.Rot.Weighted>
4.4265

> <Gold.Chemscore.Internal.Correction.Weighted>
   9.000000E+99

> <Gold.Protein.RotatedTorsions>
[ 6907 6896 6895 6894 ] final    4.97 input  -60.11 | X-H torsion
[ 7974 7965 7964 7962 ] final -145.57 input  175.53 | X-H torsion
[ 8008 7997 7996 7995 ] final  -28.34 input   59.86 | X-H torsion
[ 10167 10162 10161 10158 ] final   65.25 input  -65.29 | X-H torsion
[ 10718 10713 10712 10709 ] final   39.04 input   66.30 | X-H torsion
[ 10763 10752 10751 10750 ] final  -13.22 input  -60.55 | X-H torsion
[ 11005 11000 10999 10996 ] final  176.96 input  -57.11 | X-H torsion

> <Gold.Protein.ActiveResidues>
 VAL166  LYS551  ARG553  GLY616  TRP617  ASP618  TYR619  PRO620  LYS621  CYS622 
 ASP623  PHE694  ASN695  SER759  ASP760  ASP761  ALA762  ILE779  LEU786  VAL792 
 PHE793  MET794  SER795  GLU796  ALA797  LYS798  CYS799  TRP800  GLU811  SER814 

> <Gold.Protein.RotatedAtoms>
  151.6499  135.1003  160.0158 H   0  0  0  0  0  0  0  0  0  0  0  0  # atno 6907 bound_to 6896
  152.4006  133.6808  159.6322 H   0  0  0  0  0  0  0  0  0  0  0  0  # atno 6908 bound_to 6896
  150.7907  133.8714  159.3301 H   0  0  0  0  0  0  0  0  0  0  0  0  # atno 6909 bound_to 6896
  144.8218  140.5566  143.5573 H   0  0  0  0  0  0  0  0  0  0  0  0  # atno 7974 bound_to 7965
  154.4336  140.1848  156.1075 H   0  0  0  0  0  0  0  0  0  0  0  0  # atno 8008 bound_to 7997
  156.0244  140.3337  155.7047 H   0  0  0  0  0  0  0  0  0  0  0  0  # atno 8009 bound_to 7997
  155.5930  140.0633  157.2744 H   0  0  0  0  0  0  0  0  0  0  0  0  # atno 8010 bound_to 7997
  140.1133  144.4798  150.6964 H   0  0  0  0  0  0  0  0  0  0  0  0  # atno 10167 bound_to 10162
  157.3659  130.7675  149.7082 H   0  0  0  0  0  0  0  0  0  0  0  0  # atno 10718 bound_to 10713
  153.5100  135.7016  153.5786 H   0  0  0  0  0  0  0  0  0  0  0  0  # atno 10763 bound_to 10752
  153.3880  135.3903  155.1903 H   0  0  0  0  0  0  0  0  0  0  0  0  # atno 10764 bound_to 10752
  154.8704  135.3851  154.4579 H   0  0  0  0  0  0  0  0  0  0  0  0  # atno 10765 bound_to 10752
  140.3789  134.6964  157.4439 H   0  0  0  0  0  0  0  0  0  0  0  0  # atno 11005 bound_to 11000
  145.5088  139.1480  143.3616 LP  0  0  0  0  0  0  0  0  0  0  0  0  # atno 17320 bound_to 7965
  146.2523  140.5228  142.8888 LP  0  0  0  0  0  0  0  0  0  0  0  0  # atno 17321 bound_to 7965
  140.6913  143.2378  151.5122 LP  0  0  0  0  0  0  0  0  0  0  0  0  # atno 17342 bound_to 10162
  139.5607  144.2163  152.1687 LP  0  0  0  0  0  0  0  0  0  0  0  0  # atno 17343 bound_to 10162
  155.9746  130.4101  150.3911 LP  0  0  0  0  0  0  0  0  0  0  0  0  # atno 17370 bound_to 10713
  157.1995  131.0434  151.2658 LP  0  0  0  0  0  0  0  0  0  0  0  0  # atno 17371 bound_to 10713
  140.0494  134.6153  155.8881 LP  0  0  0  0  0  0  0  0  0  0  0  0  # atno 17394 bound_to 11000
  141.1930  133.6577  156.5528 LP  0  0  0  0  0  0  0  0  0  0  0  0  # atno 17395 bound_to 11000

$$$$
