AV-unprocessed.smi:1672|AV-procd|sdf|6705|dock8
  -GOLD-   22720 7443D 1   1.00000     0.00000
 Structure written by MMmdl.
 49 51  0  0  0  0  0  0  0  0  3 V2000
  144.2930  135.9662  151.8400 C   0  0  0  0  0  0  0  0  0  0  0  0
  145.1593  136.5650  152.9566 C   0  0  2  0  0  0  0  0  0  0  0  0
  146.0332  137.7208  152.4410 C   0  0  0  0  0  0  0  0  0  0  0  0
  146.9202  138.2920  153.5594 C   0  0  0  0  0  0  0  0  0  0  0  0
  147.7708  137.2316  154.1628 N   0  3  1  0  0  0  0  0  0  0  0  0
  148.7381  137.7557  155.1606 C   0  0  0  0  0  0  0  0  0  0  0  0
  149.7504  138.7484  154.5462 C   0  0  2  0  0  0  0  0  0  0  0  0
  150.3852  138.1364  153.4421 O   0  0  0  0  0  0  0  0  0  0  0  0
  150.8582  139.1813  155.5280 C   0  0  0  0  0  0  0  0  0  0  0  0
  150.6904  140.5593  156.0163 N   0  0  0  0  0  0  0  0  0  0  0  0
  149.9778  141.6088  155.5088 C   0  0  0  0  0  0  0  0  0  0  0  0
  149.1524  141.6306  154.2618 C   0  0  0  0  0  0  0  0  0  0  0  0
  148.4845  142.8594  154.0769 O   0  0  0  0  0  0  0  0  0  0  0  0
  150.1578  142.6624  156.3554 N   0  3  0  0  0  0  0  0  0  0  0  0
  150.9874  142.2874  157.4119 C   0  0  0  0  0  0  0  0  0  0  0  0
  151.4507  143.0087  158.5078 C   0  0  0  0  0  0  0  0  0  0  0  0
  152.2877  142.3201  159.4103 C   0  0  0  0  0  0  0  0  0  0  0  0
  152.6335  140.9686  159.2057 C   0  0  0  0  0  0  0  0  0  0  0  0
  152.1581  140.2482  158.0900 C   0  0  0  0  0  0  0  0  0  0  0  0
  151.3313  140.9367  157.2024 C   0  0  0  0  0  0  0  0  0  0  0  0
  146.9482  136.1196  154.7043 C   0  0  0  0  0  0  0  0  0  0  0  0
  146.0591  135.5034  153.6109 C   0  0  0  0  0  0  0  0  0  0  0  0
  144.9066  135.5518  151.0394 H   0  0  0  0  0  0  0  0  0  0  0  0
  143.6406  136.7219  151.4017 H   0  0  0  0  0  0  0  0  0  0  0  0
  143.6587  135.1656  152.2219 H   0  0  0  0  0  0  0  0  0  0  0  0
  144.4885  136.9603  153.7210 H   0  0  0  0  0  0  0  0  0  0  0  0
  146.6616  137.3734  151.6195 H   0  0  0  0  0  0  0  0  0  0  0  0
  145.4027  138.5119  152.0335 H   0  0  0  0  0  0  0  0  0  0  0  0
  147.5379  139.0890  153.1474 H   0  0  0  0  0  0  0  0  0  0  0  0
  146.2986  138.7461  154.3329 H   0  0  0  0  0  0  0  0  0  0  0  0
  148.1762  138.2171  155.9734 H   0  0  0  0  0  0  0  0  0  0  0  0
  149.2952  136.9328  155.6114 H   0  0  0  0  0  0  0  0  0  0  0  0
  149.2417  139.6408  154.1845 H   0  0  0  0  0  0  0  0  0  0  0  0
  149.8313  137.4474  153.1092 H   0  0  0  0  0  0  0  0  0  0  0  0
  150.8849  138.5176  156.3926 H   0  0  0  0  0  0  0  0  0  0  0  0
  151.8416  139.1032  155.0620 H   0  0  0  0  0  0  0  0  0  0  0  0
  149.7788  141.4481  153.3896 H   0  0  0  0  0  0  0  0  0  0  0  0
  148.4172  140.8270  154.3071 H   0  0  0  0  0  0  0  0  0  0  0  0
  147.7503  142.8953  154.6716 H   0  0  0  0  0  0  0  0  0  0  0  0
  151.1858  144.0436  158.6680 H   0  0  0  0  0  0  0  0  0  0  0  0
  152.6707  142.8383  160.2777 H   0  0  0  0  0  0  0  0  0  0  0  0
  153.2754  140.4739  159.9204 H   0  0  0  0  0  0  0  0  0  0  0  0
  152.4276  139.2124  157.9450 H   0  0  0  0  0  0  0  0  0  0  0  0
  147.5986  135.3444  155.1116 H   0  0  0  0  0  0  0  0  0  0  0  0
  146.3347  136.4856  155.5293 H   0  0  0  0  0  0  0  0  0  0  0  0
  145.4477  134.7091  154.0407 H   0  0  0  0  0  0  0  0  0  0  0  0
  146.6878  135.0326  152.8537 H   0  0  0  0  0  0  0  0  0  0  0  0
  148.3202  136.8304  153.4164 H   0  0  0  0  0  0  0  0  0  0  0  0
  149.7403  143.5736  156.2139 H   0  0  0  0  0  0  0  0  0  0  0  0
  1  2  1  0  0  0  0
  1 23  1  0  0  0  0
  1 24  1  0  0  0  0
  1 25  1  0  0  0  0
  2 22  1  0  0  0  0
  2  3  1  0  0  0  0
  2 26  1  0  0  0  0
  3  4  1  0  0  0  0
  3 27  1  0  0  0  0
  3 28  1  0  0  0  0
  4  5  1  0  0  0  0
  4 29  1  0  0  0  0
  4 30  1  0  0  0  0
  5  6  1  0  0  0  0
  5 21  1  0  0  0  0
  5 48  1  0  0  0  0
  6  7  1  0  0  0  0
  6 31  1  0  0  0  0
  6 32  1  0  0  0  0
  7  8  1  0  0  0  0
  7  9  1  0  0  0  0
  7 33  1  0  0  0  0
  8 34  1  0  0  0  0
  9 10  1  0  0  0  0
  9 35  1  0  0  0  0
  9 36  1  0  0  0  0
 10 20  1  0  0  0  0
 10 11  1  0  0  0  0
 11 12  1  0  0  0  0
 11 14  2  0  0  0  0
 12 13  1  0  0  0  0
 12 37  1  0  0  0  0
 12 38  1  0  0  0  0
 13 39  1  0  0  0  0
 14 15  1  0  0  0  0
 14 49  1  0  0  0  0
 15 20  2  0  0  0  0
 15 16  1  0  0  0  0
 16 17  2  0  0  0  0
 16 40  1  0  0  0  0
 17 18  1  0  0  0  0
 17 41  1  0  0  0  0
 18 19  2  0  0  0  0
 18 42  1  0  0  0  0
 19 20  1  0  0  0  0
 19 43  1  0  0  0  0
 21 22  1  0  0  0  0
 21 44  1  0  0  0  0
 21 45  1  0  0  0  0
 22 46  1  0  0  0  0
 22 47  1  0  0  0  0
M  CHG  1   5   1
M  CHG  1  14   1
M  END
> <s_m_source_file>
AV-unprocessed.smi

> <i_m_source_file_index>
1672

> <i_lp_mmshare_version>
43012

> <i_f3d_flags>
0

> <s_epik_input>
W0NIM11bQ0hdMVtDSDJdW0NIMl1OKFtDSDJdW0NIMl0xKVtDSDJdW0NASF0oW09IXSlbQ0gyXW4oYyhuMilbQ0gyXVtPSF0pYyhjMjMpW2NIXVtjSF1bY0hdW2NIXTM=

> <s_epik_cmdline>
J2VwaWtfcHl0aG9uJywgJy1waCcsICc3LjAnLCAnLXRuJywgJzgnLCAnLW1hJywgJzIwMCcsICctbWV0YWxfYmluZGluZycsICctaW1hZScsICc8aW5maWxlLm1hZT4nLCAnLW9tYWUnLCAnPG91dGZpbGUubWFlPic=

> <r_epik_Ionization_Penalty>
1.51642

> <r_epik_Ionization_Penalty_Charging>
1.51557

> <r_epik_Ionization_Penalty_Neutral>
0.000856474

> <r_epik_State_Penalty>
1.6048

> <r_epik_Charging_Adjusted_Penalty>
3.12037

> <i_epik_Tot_Q>
2

> <i_epik_Tot_abs_Q>
2

> <r_epik_Metal_State_Penalty>
5.65673

> <b_epik_Metal_Only>
0

> <s_lp_Force_Field>
OPLS_2005

> <r_lp_Energy>
31.4563

> <b_lp_Chiralities_Consistent>
1

> <s_lp_Variant>
AV-unprocessed.smi:1672-5

> <Gold.Version>
5.8.1

> <Gold.Id.Protein>
6NUR|6NUR_protein|mol2

> <Gold.PLP.Fitness>
53.2737

> <Gold.PLP.PLP>
-38.6578

> <Gold.PLP.part.hbond>
-7.4575

> <Gold.PLP.part.metal>
0.0000

> <Gold.PLP.part.buried>
-0.0432

> <Gold.PLP.part.nonpolar>
-31.1473

> <Gold.PLP.part.repulsive>
0.0855

> <Gold.PLP.ligand.clash>
1.4147

> <Gold.PLP.ligand.torsion>
1.0084

> <Gold.PLP.Chemscore.Hbond>
6.0000

> <Gold.PLP.Chemscore.CHOScore>
0.0000

> <Gold.PLP.Chemscore.Metal>
0.0000

> <Gold.Chemscore.Hbonds>
donor molecule, donor type, donor heavy atom, donor atom, acceptor molecule, acceptor atom, score
      L1  H     5    48       P1  7948  2.00
      L1  H     8    34       P1  7948  1.00
      L1  H    14    49       P1  8028  2.00
      P1  H  8022  8030       L1    13  0.95

> <Gold.PLP.Chemscore.Internal.Correction>
0.0475

> <Gold.Rescore>
     Score         DG    S(hbond)    S(metal)    S(lipo)     H(rot)  DE(clash)    DE(int)     intcor
     18.30     -20.80       3.57        0.00      93.68       2.96       0.29       2.21       ----

> <Gold.Chemscore.Fitness>
18.2970

> <Gold.Chemscore.DG>
-20.7972

> <Gold.Chemscore.ZeroCoef>
-5.4800

> <Gold.Chemscore.Hbond>
3.5695

> <Gold.Chemscore.Metal>
0.0000

> <Gold.Chemscore.Lipo>
93.6838

> <Gold.Chemscore.Internal_Hbond>
0.0000

> <Gold.Chemscore.DEClash>
0.2893

> <Gold.Chemscore.DEInternal>
2.2109

> <Gold.Chemscore.Rot>
2.9555

> <Gold.Chemscore.Internal.Correction>
   9.000000E+99

> <Gold.Chemscore.Hbonds>
donor molecule, donor type, donor heavy atom, donor atom, acceptor molecule, acceptor atom, score
      L1  H     5    48       P1  7948  1.00
      L1  H     8    34       P1  7948  0.44
      L1  H    14    49       P1  8028  0.93
      P1  H  8022  8030       L1    13  0.21

> <Gold.Chemscore.Hbond.Weighted>
-11.9222

> <Gold.Chemscore.Metal.Weighted>
-0.0000

> <Gold.Chemscore.Lipo.Weighted>
-10.9610

> <Gold.Chemscore.Internal_Hbond.Weighted>
0.0000

> <Gold.Chemscore.DEClash.Weighted>
0.2893

> <Gold.Chemscore.DEInternal.Weighted>
2.2109

> <Gold.Chemscore.Rot.Weighted>
7.5660

> <Gold.Chemscore.Internal.Correction.Weighted>
   9.000000E+99

> <Gold.Protein.RotatedTorsions>
[ 6907 6896 6895 6894 ] final  -87.23 input  -60.11 | X-H torsion
[ 7974 7965 7964 7962 ] final -127.83 input  175.53 | X-H torsion
[ 8008 7997 7996 7995 ] final -123.20 input   59.86 | X-H torsion
[ 10167 10162 10161 10158 ] final  141.90 input  -65.29 | X-H torsion
[ 10718 10713 10712 10709 ] final  154.72 input   66.30 | X-H torsion
[ 10763 10752 10751 10750 ] final   -0.05 input  -60.55 | X-H torsion
[ 11005 11000 10999 10996 ] final -102.57 input  -57.11 | X-H torsion

> <Gold.Protein.ActiveResidues>
 VAL166  LYS551  ARG553  GLY616  TRP617  ASP618  TYR619  PRO620  LYS621  CYS622 
 ASP623  PHE694  ASN695  SER759  ASP760  ASP761  ALA762  ILE779  LEU786  VAL792 
 PHE793  MET794  SER795  GLU796  ALA797  LYS798  CYS799  TRP800  GLU811  SER814 

> <Gold.Protein.RotatedAtoms>
  150.6866  134.2928  159.4673 H   0  0  0  0  0  0  0  0  0  0  0  0  # atno 6907 bound_to 6896
  152.0832  134.9455  160.0582 H   0  0  0  0  0  0  0  0  0  0  0  0  # atno 6908 bound_to 6896
  152.0799  133.4113  159.4533 H   0  0  0  0  0  0  0  0  0  0  0  0  # atno 6909 bound_to 6896
  144.9731  140.7565  143.4658 H   0  0  0  0  0  0  0  0  0  0  0  0  # atno 7974 bound_to 7965
  155.1766  140.0409  157.2874 H   0  0  0  0  0  0  0  0  0  0  0  0  # atno 8008 bound_to 7997
  154.6232  140.2506  155.7496 H   0  0  0  0  0  0  0  0  0  0  0  0  # atno 8009 bound_to 7997
  156.2445  140.2890  156.0550 H   0  0  0  0  0  0  0  0  0  0  0  0  # atno 8010 bound_to 7997
  139.5008  144.6142  151.6202 H   0  0  0  0  0  0  0  0  0  0  0  0  # atno 10167 bound_to 10162
  157.2279  131.0732  151.1871 H   0  0  0  0  0  0  0  0  0  0  0  0  # atno 10718 bound_to 10713
  153.3270  135.6973  153.6981 H   0  0  0  0  0  0  0  0  0  0  0  0  # atno 10763 bound_to 10752
  153.5798  135.3500  155.2871 H   0  0  0  0  0  0  0  0  0  0  0  0  # atno 10764 bound_to 10752
  154.8610  135.4292  154.2449 H   0  0  0  0  0  0  0  0  0  0  0  0  # atno 10765 bound_to 10752
  141.1183  133.8569  157.1377 H   0  0  0  0  0  0  0  0  0  0  0  0  # atno 11005 bound_to 11000
  145.2529  139.2024  143.4932 LP  0  0  0  0  0  0  0  0  0  0  0  0  # atno 17320 bound_to 7965
  146.3388  140.2446  142.8596 LP  0  0  0  0  0  0  0  0  0  0  0  0  # atno 17321 bound_to 7965
  140.5825  143.9921  150.6276 LP  0  0  0  0  0  0  0  0  0  0  0  0  # atno 17342 bound_to 10162
  140.3075  143.3220  152.0912 LP  0  0  0  0  0  0  0  0  0  0  0  0  # atno 17343 bound_to 10162
  157.3509  130.7081  149.6440 LP  0  0  0  0  0  0  0  0  0  0  0  0  # atno 17370 bound_to 10713
  155.9677  130.4253  150.4647 LP  0  0  0  0  0  0  0  0  0  0  0  0  # atno 17371 bound_to 10713
  140.0121  134.9983  157.0418 LP  0  0  0  0  0  0  0  0  0  0  0  0  # atno 17394 bound_to 11000
  140.4581  134.1512  155.7188 LP  0  0  0  0  0  0  0  0  0  0  0  0  # atno 17395 bound_to 11000

$$$$
