AV-unprocessed.smi:2282|AV-procd|sdf|9195|dock9
  -GOLD-   2272012413D 1   1.00000     0.00000
 Structure written by MMmdl.
 32 33  0  0  0  0  0  0  0  0  1 V2000
  147.0664  139.4464  153.2569 C   0  0  0  0  0  0  0  0  0  0  0  0
  148.3489  139.6384  154.0446 C   0  0  0  0  0  0  0  0  0  0  0  0
  149.2835  138.6762  153.8838 N   0  0  0  0  0  0  0  0  0  0  0  0
  150.4398  138.7942  154.5676 C   0  0  0  0  0  0  0  0  0  0  0  0
  150.7226  139.8688  155.4321 C   0  0  0  0  0  0  0  0  0  0  0  0
  149.7529  140.8877  155.5899 C   0  0  0  0  0  0  0  0  0  0  0  0
  149.9265  142.0048  156.4534 N   0  0  0  0  0  0  0  0  0  0  0  0
  150.5708  142.0685  157.6329 C   0  0  0  0  0  0  0  0  0  0  0  0
  151.1408  141.1172  158.1684 O   0  0  0  0  0  0  0  0  0  0  0  0
  150.5676  143.4498  158.3091 C   0  0  2  0  0  0  0  0  0  0  0  0
  151.6642  144.4084  157.8009 C   0  0  0  0  0  0  0  0  0  0  0  0
  152.5104  144.6985  159.0297 C   0  0  0  0  0  0  0  0  0  0  0  0
  152.2121  143.5148  159.9432 C   0  0  1  0  0  0  0  0  0  0  0  0
  152.4594  143.7904  161.4300 C   0  0  0  0  0  0  0  0  0  0  0  0
  150.8327  143.2795  159.7001 O   0  0  0  0  0  0  0  0  0  0  0  0
  148.5313  140.7598  154.8879 C   0  0  0  0  0  0  0  0  0  0  0  0
  147.2868  141.9538  155.0505 Cl  0  0  0  0  0  0  0  0  0  0  0  0
  146.9115  140.2829  152.5750 H   0  0  0  0  0  0  0  0  0  0  0  0
  146.2120  139.3885  153.9315 H   0  0  0  0  0  0  0  0  0  0  0  0
  147.0913  138.5299  152.6659 H   0  0  0  0  0  0  0  0  0  0  0  0
  151.1612  138.0033  154.4268 H   0  0  0  0  0  0  0  0  0  0  0  0
  151.6624  139.8817  155.9617 H   0  0  0  0  0  0  0  0  0  0  0  0
  149.5773  142.8824  156.0963 H   0  0  0  0  0  0  0  0  0  0  0  0
  149.5844  143.9104  158.2006 H   0  0  0  0  0  0  0  0  0  0  0  0
  152.2770  143.9644  157.0152 H   0  0  0  0  0  0  0  0  0  0  0  0
  151.2389  145.3259  157.3925 H   0  0  0  0  0  0  0  0  0  0  0  0
  153.5718  144.8010  158.8019 H   0  0  0  0  0  0  0  0  0  0  0  0
  152.1735  145.6266  159.4936 H   0  0  0  0  0  0  0  0  0  0  0  0
  152.7860  142.6431  159.6250 H   0  0  0  0  0  0  0  0  0  0  0  0
  153.5110  144.0094  161.6167 H   0  0  0  0  0  0  0  0  0  0  0  0
  152.1860  142.9259  162.0355 H   0  0  0  0  0  0  0  0  0  0  0  0
  151.8720  144.6401  161.7788 H   0  0  0  0  0  0  0  0  0  0  0  0
  1  2  1  0  0  0  0
  1 18  1  0  0  0  0
  1 19  1  0  0  0  0
  1 20  1  0  0  0  0
  2 16  1  0  0  0  0
  2  3  2  0  0  0  0
  3  4  1  0  0  0  0
  4  5  2  0  0  0  0
  4 21  1  0  0  0  0
  5  6  1  0  0  0  0
  5 22  1  0  0  0  0
  6  7  1  0  0  0  0
  6 16  2  0  0  0  0
  7  8  1  0  0  0  0
  7 23  1  0  0  0  0
  8  9  2  0  0  0  0
  8 10  1  0  0  0  0
 10 15  1  0  0  0  0
 10 11  1  0  0  0  0
 10 24  1  0  0  0  0
 11 12  1  0  0  0  0
 11 25  1  0  0  0  0
 11 26  1  0  0  0  0
 12 13  1  0  0  0  0
 12 27  1  0  0  0  0
 12 28  1  0  0  0  0
 13 14  1  0  0  0  0
 13 15  1  0  0  0  0
 13 29  1  0  0  0  0
 14 30  1  0  0  0  0
 14 31  1  0  0  0  0
 14 32  1  0  0  0  0
 16 17  1  0  0  0  0
M  END
> <s_m_source_file>
AV-unprocessed.smi

> <i_m_source_file_index>
2282

> <i_lp_mmshare_version>
43012

> <i_f3d_flags>
0

> <s_epik_input>
W0NIM11jMW5bY0hdW2NIXWMoYzFDbClbTkhdQyg9TylbQ0BASF0yW0NIMl1bQ0gyXVtDQEhdKE8yKVtDSDNd

> <s_epik_cmdline>
J2VwaWtfcHl0aG9uJywgJy1waCcsICc3LjAnLCAnLXRuJywgJzgnLCAnLW1hJywgJzIwMCcsICctbWV0YWxfYmluZGluZycsICctaW1hZScsICc8aW5maWxlLm1hZT4nLCAnLW9tYWUnLCAnPG91dGZpbGUubWFlPic=

> <r_epik_Ionization_Penalty>
0.00037231

> <r_epik_Ionization_Penalty_Charging>
0

> <r_epik_Ionization_Penalty_Neutral>
0.00037231

> <r_epik_State_Penalty>
0.000225113

> <r_epik_Charging_Adjusted_Penalty>
0.000225113

> <i_epik_Tot_Q>
0

> <i_epik_Tot_abs_Q>
0

> <r_epik_Metal_State_Penalty>
-0

> <b_epik_Metal_Only>
0

> <s_lp_Force_Field>
OPLS_2005

> <r_lp_Energy>
24.6828

> <b_lp_Chiralities_Consistent>
1

> <s_lp_Variant>
AV-unprocessed.smi:2282-1

> <Gold.Version>
5.8.1

> <Gold.Id.Protein>
6NUR|6NUR_protein|mol2

> <Gold.PLP.Fitness>
40.0432

> <Gold.PLP.PLP>
-38.7817

> <Gold.PLP.part.hbond>
-1.6558

> <Gold.PLP.part.metal>
0.0000

> <Gold.PLP.part.buried>
-3.6235

> <Gold.PLP.part.nonpolar>
-34.4531

> <Gold.PLP.part.repulsive>
1.4533

> <Gold.PLP.ligand.clash>
0.0000

> <Gold.PLP.ligand.torsion>
0.8734

> <Gold.PLP.Chemscore.Hbond>
1.0000

> <Gold.PLP.Chemscore.CHOScore>
0.0000

> <Gold.PLP.Chemscore.Metal>
0.0000

> <Gold.Chemscore.Hbonds>
donor molecule, donor type, donor heavy atom, donor atom, acceptor molecule, acceptor atom, score
      L1  H     7    23       P1  8028  1.00

> <Gold.PLP.Chemscore.Internal.Correction>
0.0083

> <Gold.Rescore>
     Score         DG    S(hbond)    S(metal)    S(lipo)     H(rot)  DE(clash)    DE(int)     intcor
     16.48     -18.40       1.00        0.00     103.75       1.00       0.13       1.79       ----

> <Gold.Chemscore.Fitness>
16.4805

> <Gold.Chemscore.DG>
-18.3979

> <Gold.Chemscore.ZeroCoef>
-5.4800

> <Gold.Chemscore.Hbond>
0.9999

> <Gold.Chemscore.Metal>
0.0000

> <Gold.Chemscore.Lipo>
103.7465

> <Gold.Chemscore.Internal_Hbond>
0.0000

> <Gold.Chemscore.DEClash>
0.1278

> <Gold.Chemscore.DEInternal>
1.7896

> <Gold.Chemscore.Rot>
1.0000

> <Gold.Chemscore.Internal.Correction>
   9.000000E+99

> <Gold.Chemscore.Hbonds>
donor molecule, donor type, donor heavy atom, donor atom, acceptor molecule, acceptor atom, score
      L1  H     7    23       P1  8028  0.95

> <Gold.Chemscore.Hbond.Weighted>
-3.3395

> <Gold.Chemscore.Metal.Weighted>
-0.0000

> <Gold.Chemscore.Lipo.Weighted>
-12.1383

> <Gold.Chemscore.Internal_Hbond.Weighted>
0.0000

> <Gold.Chemscore.DEClash.Weighted>
0.1278

> <Gold.Chemscore.DEInternal.Weighted>
1.7896

> <Gold.Chemscore.Rot.Weighted>
2.5600

> <Gold.Chemscore.Internal.Correction.Weighted>
   9.000000E+99

> <Gold.Protein.RotatedTorsions>
[ 6907 6896 6895 6894 ] final  117.63 input  -60.11 | X-H torsion
[ 7974 7965 7964 7962 ] final  102.02 input  175.53 | X-H torsion
[ 8008 7997 7996 7995 ] final   91.39 input   59.86 | X-H torsion
[ 10167 10162 10161 10158 ] final  -69.54 input  -65.29 | X-H torsion
[ 10718 10713 10712 10709 ] final  -29.94 input   66.30 | X-H torsion
[ 10763 10752 10751 10750 ] final   -1.22 input  -60.55 | X-H torsion
[ 11005 11000 10999 10996 ] final  102.78 input  -57.11 | X-H torsion

> <Gold.Protein.ActiveResidues>
 VAL166  LYS551  ARG553  GLY616  TRP617  ASP618  TYR619  PRO620  LYS621  CYS622 
 ASP623  PHE694  ASN695  SER759  ASP760  ASP761  ALA762  ILE779  LEU786  VAL792 
 PHE793  MET794  SER795  GLU796  ALA797  LYS798  CYS799  TRP800  GLU811  SER814 

> <Gold.Protein.RotatedAtoms>
  152.4599  133.7800  159.6844 H   0  0  0  0  0  0  0  0  0  0  0  0  # atno 6907 bound_to 6896
  150.8539  133.7736  159.3022 H   0  0  0  0  0  0  0  0  0  0  0  0  # atno 6908 bound_to 6896
  151.5322  135.1071  159.9957 H   0  0  0  0  0  0  0  0  0  0  0  0  # atno 6909 bound_to 6896
  145.3646  139.2410  143.3488 H   0  0  0  0  0  0  0  0  0  0  0  0  # atno 7974 bound_to 7965
  156.0232  140.3338  155.7061 H   0  0  0  0  0  0  0  0  0  0  0  0  # atno 8008 bound_to 7997
  155.5992  140.0654  157.2755 H   0  0  0  0  0  0  0  0  0  0  0  0  # atno 8009 bound_to 7997
  154.4324  140.1813  156.1143 H   0  0  0  0  0  0  0  0  0  0  0  0  # atno 8010 bound_to 7997
  140.5423  143.2314  151.7067 H   0  0  0  0  0  0  0  0  0  0  0  0  # atno 10167 bound_to 10162
  156.4061  130.4399  149.7287 H   0  0  0  0  0  0  0  0  0  0  0  0  # atno 10718 bound_to 10713
  153.3420  135.6981  153.6859 H   0  0  0  0  0  0  0  0  0  0  0  0  # atno 10763 bound_to 10752
  153.5620  135.3533  155.2804 H   0  0  0  0  0  0  0  0  0  0  0  0  # atno 10764 bound_to 10752
  154.8638  135.4251  154.2635 H   0  0  0  0  0  0  0  0  0  0  0  0  # atno 10765 bound_to 10752
  139.8779  134.9237  156.5110 H   0  0  0  0  0  0  0  0  0  0  0  0  # atno 11005 bound_to 11000
  146.2912  140.4286  142.8739 LP  0  0  0  0  0  0  0  0  0  0  0  0  # atno 17320 bound_to 7965
  144.8621  140.7154  143.6101 LP  0  0  0  0  0  0  0  0  0  0  0  0  # atno 17321 bound_to 7965
  139.4993  144.3950  152.0241 LP  0  0  0  0  0  0  0  0  0  0  0  0  # atno 17342 bound_to 10162
  140.3060  144.3593  150.6047 LP  0  0  0  0  0  0  0  0  0  0  0  0  # atno 17343 bound_to 10162
  156.4284  130.7803  151.2822 LP  0  0  0  0  0  0  0  0  0  0  0  0  # atno 17370 bound_to 10713
  157.7505  131.0161  150.3533 LP  0  0  0  0  0  0  0  0  0  0  0  0  # atno 17371 bound_to 10713
  140.8520  133.8125  155.9178 LP  0  0  0  0  0  0  0  0  0  0  0  0  # atno 17394 bound_to 11000
  140.9135  134.2231  157.4971 LP  0  0  0  0  0  0  0  0  0  0  0  0  # atno 17395 bound_to 11000

$$$$
