AV-unprocessed.smi:51|AV-procd|sdf|505|dock6
  -GOLD-   2262016373D 1   1.00000     0.00000
 Structure written by MMmdl.
 26 27  0  0  0  0  0  0  0  0  3 V2000
  151.9721  137.2340  154.9564 O   0  0  0  0  0  0  0  0  0  0  0  0
  152.0121  138.4247  155.3342 C   0  0  0  0  0  0  0  0  0  0  0  0
  153.0530  139.0847  155.5482 O   0  5  0  0  0  0  0  0  0  0  0  0
  150.6617  139.1151  155.5788 C   0  0  2  0  0  0  0  0  0  0  0  0
  149.8262  139.2157  154.2884 C   0  0  0  0  0  0  0  0  0  0  0  0
  149.0793  140.5413  154.4444 C   0  0  2  0  0  0  0  0  0  0  0  0
  148.6939  141.1000  153.2066 O   0  0  0  0  0  0  0  0  0  0  0  0
  150.0728  141.4249  155.1989 C   0  0  0  0  0  0  0  0  0  0  0  0
  150.8126  140.4946  156.0389 N   0  0  0  0  0  0  0  0  0  0  0  0
  151.3751  140.8670  157.2764 C   0  0  0  0  0  0  0  0  0  0  0  0
  151.3726  142.2021  157.7339 C   0  0  0  0  0  0  0  0  0  0  0  0
  151.9488  142.4551  158.9916 C   0  0  0  0  0  0  0  0  0  0  0  0
  152.4861  141.4439  159.7149 N   0  3  0  0  0  0  0  0  0  0  0  0
  152.4644  140.1973  159.2223 C   0  0  0  0  0  0  0  0  0  0  0  0
  151.9303  139.8936  158.0340 N   0  0  0  0  0  0  0  0  0  0  0  0
  150.0957  138.5648  156.3315 H   0  0  0  0  0  0  0  0  0  0  0  0
  150.4690  139.2591  153.4067 H   0  0  0  0  0  0  0  0  0  0  0  0
  149.1503  138.3696  154.1619 H   0  0  0  0  0  0  0  0  0  0  0  0
  148.1918  140.3838  155.0592 H   0  0  0  0  0  0  0  0  0  0  0  0
  148.6995  140.4160  152.5548 H   0  0  0  0  0  0  0  0  0  0  0  0
  150.7746  141.9089  154.5177 H   0  0  0  0  0  0  0  0  0  0  0  0
  149.5547  142.1978  155.7680 H   0  0  0  0  0  0  0  0  0  0  0  0
  150.9442  143.0100  157.1590 H   0  0  0  0  0  0  0  0  0  0  0  0
  151.9974  143.4354  159.4425 H   0  0  0  0  0  0  0  0  0  0  0  0
  152.9070  139.4247  159.8335 H   0  0  0  0  0  0  0  0  0  0  0  0
  152.9011  141.6386  160.6262 H   0  0  0  0  0  0  0  0  0  0  0  0
  1  2  2  0  0  0  0
  2  3  1  0  0  0  0
  2  4  1  0  0  0  0
  4  9  1  0  0  0  0
  4  5  1  0  0  0  0
  4 16  1  0  0  0  0
  5  6  1  0  0  0  0
  5 17  1  0  0  0  0
  5 18  1  0  0  0  0
  6  7  1  0  0  0  0
  6  8  1  0  0  0  0
  6 19  1  0  0  0  0
  7 20  1  0  0  0  0
  8  9  1  0  0  0  0
  8 21  1  0  0  0  0
  8 22  1  0  0  0  0
  9 10  1  0  0  0  0
 10 15  1  0  0  0  0
 10 11  2  0  0  0  0
 11 12  1  0  0  0  0
 11 23  1  0  0  0  0
 12 13  2  0  0  0  0
 12 24  1  0  0  0  0
 13 14  1  0  0  0  0
 13 26  1  0  0  0  0
 14 15  2  0  0  0  0
 14 25  1  0  0  0  0
M  CHG  1   3  -1
M  CHG  1  13   1
M  END
> <s_m_source_file>
AV-unprocessed.smi

> <i_m_source_file_index>
51

> <i_lp_mmshare_version>
43012

> <i_f3d_flags>
0

> <s_epik_input>
Tz1DKFtPSF0pW0NAQEhdMVtDSDJdW0NAQEhdKFtPSF0pW0NIMl1OMWMyW2NIXVtjSF1uW2NIXW4y

> <s_epik_cmdline>
J2VwaWtfcHl0aG9uJywgJy1waCcsICc3LjAnLCAnLXRuJywgJzgnLCAnLW1hJywgJzIwMCcsICctbWV0YWxfYmluZGluZycsICctaW1hZScsICc8aW5maWxlLm1hZT4nLCAnLW9tYWUnLCAnPG91dGZpbGUubWFlPic=

> <r_lp_tautomer_probability>
0.999336

> <r_epik_Ionization_Penalty>
0.688427

> <r_epik_Ionization_Penalty_Charging>
0.688427

> <r_epik_Ionization_Penalty_Neutral>
1.98379e-07

> <r_epik_State_Penalty>
0.709817

> <r_epik_Charging_Adjusted_Penalty>
1.39824

> <i_epik_Tot_Q>
0

> <i_epik_Tot_abs_Q>
2

> <r_epik_Metal_State_Penalty>
0.873261

> <b_epik_Metal_Only>
0

> <s_lp_Force_Field>
OPLS_2005

> <r_lp_Energy>
15.0263

> <b_lp_Chiralities_Consistent>
1

> <s_lp_Variant>
AV-unprocessed.smi:51-7

> <Gold.Version>
5.8.1

> <Gold.Id.Protein>
6NUR|6NUR_protein|mol2

> <Gold.PLP.Fitness>
44.8320

> <Gold.PLP.PLP>
-28.0163

> <Gold.PLP.part.hbond>
-3.7965

> <Gold.PLP.part.metal>
0.0000

> <Gold.PLP.part.buried>
-3.4799

> <Gold.PLP.part.nonpolar>
-20.6603

> <Gold.PLP.part.repulsive>
0.2171

> <Gold.PLP.ligand.clash>
0.0000

> <Gold.PLP.ligand.torsion>
0.0262

> <Gold.PLP.Chemscore.Hbond>
5.6080

> <Gold.PLP.Chemscore.CHOScore>
0.0000

> <Gold.PLP.Chemscore.Metal>
0.0000

> <Gold.Chemscore.Hbonds>
donor molecule, donor type, donor heavy atom, donor atom, acceptor molecule, acceptor atom, score
      L1  H     7    20       P1  7957  0.74
      P1  H  7997  8009       L1     3  2.00
      P1  H  8011  8017       L1     7  1.00
      P1  H 10752 10765       L1     1  1.86

> <Gold.PLP.Chemscore.Internal.Correction>
0.0442

> <Gold.Rescore>
     Score         DG    S(hbond)    S(metal)    S(lipo)     H(rot)  DE(clash)    DE(int)     intcor
     16.50     -17.09       3.15        0.00      46.71       1.70       0.17       0.42       ----

> <Gold.Chemscore.Fitness>
16.5026

> <Gold.Chemscore.DG>
-17.0929

> <Gold.Chemscore.ZeroCoef>
-5.4800

> <Gold.Chemscore.Hbond>
3.1452

> <Gold.Chemscore.Metal>
0.0000

> <Gold.Chemscore.Lipo>
46.7098

> <Gold.Chemscore.Internal_Hbond>
0.0000

> <Gold.Chemscore.DEClash>
0.1723

> <Gold.Chemscore.DEInternal>
0.4180

> <Gold.Chemscore.Rot>
1.7020

> <Gold.Chemscore.Internal.Correction>
   9.000000E+99

> <Gold.Chemscore.Hbonds>
donor molecule, donor type, donor heavy atom, donor atom, acceptor molecule, acceptor atom, score
      L1  H     7    20       P1  7957  0.74
      P1  H  7997  8009       L1     3  1.00
      P1  H  8011  8017       L1     7  0.24
      P1  H 10752 10765       L1     1  0.91

> <Gold.Chemscore.Hbond.Weighted>
-10.5049

> <Gold.Chemscore.Metal.Weighted>
-0.0000

> <Gold.Chemscore.Lipo.Weighted>
-5.4650

> <Gold.Chemscore.Internal_Hbond.Weighted>
0.0000

> <Gold.Chemscore.DEClash.Weighted>
0.1723

> <Gold.Chemscore.DEInternal.Weighted>
0.4180

> <Gold.Chemscore.Rot.Weighted>
4.3571

> <Gold.Chemscore.Internal.Correction.Weighted>
   9.000000E+99

> <Gold.Protein.RotatedTorsions>
[ 6907 6896 6895 6894 ] final   22.84 input  -60.11 | X-H torsion
[ 7974 7965 7964 7962 ] final  114.57 input  175.53 | X-H torsion
[ 8008 7997 7996 7995 ] final -141.50 input   59.86 | X-H torsion
[ 10167 10162 10161 10158 ] final  -23.05 input  -65.29 | X-H torsion
[ 10718 10713 10712 10709 ] final  124.83 input   66.30 | X-H torsion
[ 10763 10752 10751 10750 ] final  177.57 input  -60.55 | X-H torsion
[ 11005 11000 10999 10996 ] final   81.45 input  -57.11 | X-H torsion

> <Gold.Protein.ActiveResidues>
 VAL166  LYS551  ARG553  GLY616  TRP617  ASP618  TYR619  PRO620  LYS621  CYS622 
 ASP623  PHE694  ASN695  SER759  ASP760  ASP761  ALA762  ILE779  LEU786  VAL792 
 PHE793  MET794  SER795  GLU796  ALA797  LYS798  CYS799  TRP800  GLU811  SER814 

> <Gold.Protein.RotatedAtoms>
  151.9333  135.0247  160.0530 H   0  0  0  0  0  0  0  0  0  0  0  0  # atno 6907 bound_to 6896
  152.2100  133.4899  159.5113 H   0  0  0  0  0  0  0  0  0  0  0  0  # atno 6908 bound_to 6896
  150.6974  134.1396  159.4143 H   0  0  0  0  0  0  0  0  0  0  0  0  # atno 6909 bound_to 6896
  145.2028  139.2944  143.4309 H   0  0  0  0  0  0  0  0  0  0  0  0  # atno 7974 bound_to 7965
  155.4789  140.0558  157.2970 H   0  0  0  0  0  0  0  0  0  0  0  0  # atno 8008 bound_to 7997
  154.4668  140.2022  156.0050 H   0  0  0  0  0  0  0  0  0  0  0  0  # atno 8009 bound_to 7997
  156.0988  140.3222  155.7919 H   0  0  0  0  0  0  0  0  0  0  0  0  # atno 8010 bound_to 7997
  140.7287  143.4478  151.0561 H   0  0  0  0  0  0  0  0  0  0  0  0  # atno 10167 bound_to 10162
  157.5553  131.1092  150.8632 H   0  0  0  0  0  0  0  0  0  0  0  0  # atno 10718 bound_to 10713
  154.4962  135.2781  155.1457 H   0  0  0  0  0  0  0  0  0  0  0  0  # atno 10763 bound_to 10752
  154.3109  135.6229  153.5469 H   0  0  0  0  0  0  0  0  0  0  0  0  # atno 10764 bound_to 10752
  152.9895  135.5719  154.5395 H   0  0  0  0  0  0  0  0  0  0  0  0  # atno 10765 bound_to 10752
  139.9097  134.7998  156.2043 H   0  0  0  0  0  0  0  0  0  0  0  0  # atno 11005 bound_to 11000
  146.3414  140.2278  142.8592 LP  0  0  0  0  0  0  0  0  0  0  0  0  # atno 17320 bound_to 7965
  144.9932  140.8565  143.5327 LP  0  0  0  0  0  0  0  0  0  0  0  0  # atno 17321 bound_to 7965
  139.8151  143.7896  152.3174 LP  0  0  0  0  0  0  0  0  0  0  0  0  # atno 17342 bound_to 10162
  139.7960  144.7392  150.9890 LP  0  0  0  0  0  0  0  0  0  0  0  0  # atno 17343 bound_to 10162
  156.9146  130.5293  149.5280 LP  0  0  0  0  0  0  0  0  0  0  0  0  # atno 17370 bound_to 10713
  156.0613  130.5665  150.9198 LP  0  0  0  0  0  0  0  0  0  0  0  0  # atno 17371 bound_to 10713
  141.0505  133.6891  156.1763 LP  0  0  0  0  0  0  0  0  0  0  0  0  # atno 17394 bound_to 11000
  140.6818  134.4759  157.5589 LP  0  0  0  0  0  0  0  0  0  0  0  0  # atno 17395 bound_to 11000

$$$$
