AV-unprocessed.smi:1661|AV-procd|sdf|6653|dock8
  -GOLD-   22720 7363D 1   1.00000     0.00000
 Structure written by MMmdl.
 38 39  0  0  0  0  0  0  0  0  2 V2000
  143.8173  132.1047  150.3115 C   0  0  0  0  0  0  0  0  0  0  0  0
  144.9201  132.3184  151.3578 C   0  0  2  0  0  0  0  0  0  0  0  0
  146.1067  133.1092  150.7823 C   0  0  0  0  0  0  0  0  0  0  0  0
  147.2189  133.2895  151.8291 C   0  0  0  0  0  0  0  0  0  0  0  0
  147.6802  131.9788  152.3553 N   0  3  1  0  0  0  0  0  0  0  0  0
  148.8402  132.1190  153.2706 C   0  0  0  0  0  0  0  0  0  0  0  0
  148.5765  133.1325  154.4014 C   0  0  0  0  0  0  0  0  0  0  0  0
  149.1287  134.4447  154.0849 N   0  0  0  0  0  0  0  0  0  0  0  0
  150.0262  135.0967  154.8384 C   0  0  0  0  0  0  0  0  0  0  0  0
  150.4720  134.6483  155.8951 O   0  0  0  0  0  0  0  0  0  0  0  0
  150.3592  136.2789  154.2912 N   0  0  0  0  0  0  0  0  0  0  0  0
  151.2672  137.2523  154.7863 C   0  0  0  0  0  0  0  0  0  0  0  0
  152.2628  136.9739  155.6425 N   0  0  0  0  0  0  0  0  0  0  0  0
  152.9999  138.1052  155.9678 N   0  0  0  0  0  0  0  0  0  0  0  0
  152.5324  139.1907  155.3448 C   0  0  0  0  0  0  0  0  0  0  0  0
  151.1455  138.9370  154.2993 S   0  0  0  0  0  0  0  0  0  0  0  0
  146.5560  131.2079  152.9513 C   0  0  0  0  0  0  0  0  0  0  0  0
  145.4306  130.9845  151.9274 C   0  0  0  0  0  0  0  0  0  0  0  0
  144.1824  131.5291  149.4603 H   0  0  0  0  0  0  0  0  0  0  0  0
  143.4444  133.0571  149.9337 H   0  0  0  0  0  0  0  0  0  0  0  0
  142.9706  131.5666  150.7386 H   0  0  0  0  0  0  0  0  0  0  0  0
  144.4918  132.8967  152.1780 H   0  0  0  0  0  0  0  0  0  0  0  0
  146.5089  132.5920  149.9098 H   0  0  0  0  0  0  0  0  0  0  0  0
  145.7704  134.0862  150.4336 H   0  0  0  0  0  0  0  0  0  0  0  0
  148.0553  133.8183  151.3705 H   0  0  0  0  0  0  0  0  0  0  0  0
  146.8646  133.9101  152.6538 H   0  0  0  0  0  0  0  0  0  0  0  0
  149.0564  131.1535  153.7304 H   0  0  0  0  0  0  0  0  0  0  0  0
  149.7269  132.3885  152.6946 H   0  0  0  0  0  0  0  0  0  0  0  0
  147.5111  133.2368  154.6078 H   0  0  0  0  0  0  0  0  0  0  0  0
  149.0381  132.7850  155.3261 H   0  0  0  0  0  0  0  0  0  0  0  0
  148.8149  134.8799  153.2295 H   0  0  0  0  0  0  0  0  0  0  0  0
  149.9115  136.5120  153.4171 H   0  0  0  0  0  0  0  0  0  0  0  0
  153.0079  140.1476  155.5018 H   0  0  0  0  0  0  0  0  0  0  0  0
  146.9039  130.2389  153.3067 H   0  0  0  0  0  0  0  0  0  0  0  0
  146.1690  131.7402  153.8219 H   0  0  0  0  0  0  0  0  0  0  0  0
  144.6103  130.4420  152.3988 H   0  0  0  0  0  0  0  0  0  0  0  0
  145.7954  130.3500  151.1182 H   0  0  0  0  0  0  0  0  0  0  0  0
  148.0071  131.4554  151.5558 H   0  0  0  0  0  0  0  0  0  0  0  0
  1  2  1  0  0  0  0
  1 19  1  0  0  0  0
  1 20  1  0  0  0  0
  1 21  1  0  0  0  0
  2 18  1  0  0  0  0
  2  3  1  0  0  0  0
  2 22  1  0  0  0  0
  3  4  1  0  0  0  0
  3 23  1  0  0  0  0
  3 24  1  0  0  0  0
  4  5  1  0  0  0  0
  4 25  1  0  0  0  0
  4 26  1  0  0  0  0
  5  6  1  0  0  0  0
  5 17  1  0  0  0  0
  5 38  1  0  0  0  0
  6  7  1  0  0  0  0
  6 27  1  0  0  0  0
  6 28  1  0  0  0  0
  7  8  1  0  0  0  0
  7 29  1  0  0  0  0
  7 30  1  0  0  0  0
  8  9  1  0  0  0  0
  8 31  1  0  0  0  0
  9 10  2  0  0  0  0
  9 11  1  0  0  0  0
 11 12  1  0  0  0  0
 11 32  1  0  0  0  0
 12 16  1  0  0  0  0
 12 13  2  0  0  0  0
 13 14  1  0  0  0  0
 14 15  2  0  0  0  0
 15 16  1  0  0  0  0
 15 33  1  0  0  0  0
 17 18  1  0  0  0  0
 17 34  1  0  0  0  0
 17 35  1  0  0  0  0
 18 36  1  0  0  0  0
 18 37  1  0  0  0  0
M  CHG  1   5   1
M  END
> <s_m_source_file>
AV-unprocessed.smi

> <i_m_source_file_index>
1661

> <i_lp_mmshare_version>
43012

> <i_f3d_flags>
0

> <s_epik_input>
W0NIM11bQ0hdMVtDSDJdW0NIMl1OKFtDSDJdW0NIMl0xKVtDSDJdW0NIMl1bTkhdQyg9TylbTkhdYzJubltjSF1zMg==

> <s_epik_cmdline>
J2VwaWtfcHl0aG9uJywgJy1waCcsICc3LjAnLCAnLXRuJywgJzgnLCAnLW1hJywgJzIwMCcsICctbWV0YWxfYmluZGluZycsICctaW1hZScsICc8aW5maWxlLm1hZT4nLCAnLW9tYWUnLCAnPG91dGZpbGUubWFlPic=

> <r_lp_tautomer_probability>
1

> <r_epik_Ionization_Penalty>
0.0053917

> <r_epik_Ionization_Penalty_Charging>
0.00168873

> <r_epik_Ionization_Penalty_Neutral>
0.00370297

> <r_epik_State_Penalty>
-0

> <r_epik_Charging_Adjusted_Penalty>
0.00168873

> <i_epik_Tot_Q>
1

> <i_epik_Tot_abs_Q>
1

> <r_epik_Metal_State_Penalty>
0.36997

> <b_epik_Metal_Only>
0

> <s_lp_Force_Field>
OPLS_2005

> <r_lp_Energy>
14.0049

> <b_lp_Chiralities_Consistent>
1

> <s_lp_Variant>
AV-unprocessed.smi:1661-1

> <Gold.Version>
5.8.1

> <Gold.Id.Protein>
6NUR|6NUR_protein|mol2

> <Gold.PLP.Fitness>
47.0629

> <Gold.PLP.PLP>
-36.1752

> <Gold.PLP.part.hbond>
-5.0305

> <Gold.PLP.part.metal>
0.0000

> <Gold.PLP.part.buried>
-3.5034

> <Gold.PLP.part.nonpolar>
-26.6552

> <Gold.PLP.part.repulsive>
0.1478

> <Gold.PLP.ligand.clash>
0.0000

> <Gold.PLP.ligand.torsion>
0.4362

> <Gold.PLP.Chemscore.Hbond>
3.9120

> <Gold.PLP.Chemscore.CHOScore>
0.0000

> <Gold.PLP.Chemscore.Metal>
0.0000

> <Gold.Chemscore.Hbonds>
donor molecule, donor type, donor heavy atom, donor atom, acceptor molecule, acceptor atom, score
      L1  H     5    38       P1 10747  1.00
      L1  H     8    31       P1  7948  1.00
      L1  H    11    32       P1  7948  0.85
      P1  H 10752 10764       L1    13  0.90

> <Gold.PLP.Chemscore.Internal.Correction>
0.0241

> <Gold.Rescore>
     Score         DG    S(hbond)    S(metal)    S(lipo)     H(rot)  DE(clash)    DE(int)     intcor
     18.52     -19.27       2.91        0.00      72.17       1.70       0.12       0.62       ----

> <Gold.Chemscore.Fitness>
18.5242

> <Gold.Chemscore.DG>
-19.2656

> <Gold.Chemscore.ZeroCoef>
-5.4800

> <Gold.Chemscore.Hbond>
2.9058

> <Gold.Chemscore.Metal>
0.0000

> <Gold.Chemscore.Lipo>
72.1725

> <Gold.Chemscore.Internal_Hbond>
0.0000

> <Gold.Chemscore.DEClash>
0.1172

> <Gold.Chemscore.DEInternal>
0.6242

> <Gold.Chemscore.Rot>
1.7046

> <Gold.Chemscore.Internal.Correction>
   9.000000E+99

> <Gold.Chemscore.Hbonds>
donor molecule, donor type, donor heavy atom, donor atom, acceptor molecule, acceptor atom, score
      L1  H     5    38       P1 10747  1.00
      L1  H     8    31       P1  7948  0.29
      L1  H    11    32       P1  7948  0.14
      P1  H 10752 10764       L1    13  0.26

> <Gold.Chemscore.Hbond.Weighted>
-9.7052

> <Gold.Chemscore.Metal.Weighted>
-0.0000

> <Gold.Chemscore.Lipo.Weighted>
-8.4442

> <Gold.Chemscore.Internal_Hbond.Weighted>
0.0000

> <Gold.Chemscore.DEClash.Weighted>
0.1172

> <Gold.Chemscore.DEInternal.Weighted>
0.6242

> <Gold.Chemscore.Rot.Weighted>
4.3638

> <Gold.Chemscore.Internal.Correction.Weighted>
   9.000000E+99

> <Gold.Protein.RotatedTorsions>
[ 6907 6896 6895 6894 ] final -128.12 input  -60.11 | X-H torsion
[ 7974 7965 7964 7962 ] final  -71.54 input  175.53 | X-H torsion
[ 8008 7997 7996 7995 ] final   73.62 input   59.86 | X-H torsion
[ 10167 10162 10161 10158 ] final  164.13 input  -65.29 | X-H torsion
[ 10718 10713 10712 10709 ] final  -49.73 input   66.30 | X-H torsion
[ 10763 10752 10751 10750 ] final  -45.71 input  -60.55 | X-H torsion
[ 11005 11000 10999 10996 ] final  151.54 input  -57.11 | X-H torsion

> <Gold.Protein.ActiveResidues>
 VAL166  LYS551  ARG553  GLY616  TRP617  ASP618  TYR619  PRO620  LYS621  CYS622 
 ASP623  PHE694  ASN695  SER759  ASP760  ASP761  ALA762  ILE779  LEU786  VAL792 
 PHE793  MET794  SER795  GLU796  ALA797  LYS798  CYS799  TRP800  GLU811  SER814 

> <Gold.Protein.RotatedAtoms>
  150.9146  133.6955  159.2846 H   0  0  0  0  0  0  0  0  0  0  0  0  # atno 6907 bound_to 6896
  151.4431  135.1021  159.9685 H   0  0  0  0  0  0  0  0  0  0  0  0  # atno 6908 bound_to 6896
  152.4948  133.8549  159.7276 H   0  0  0  0  0  0  0  0  0  0  0  0  # atno 6909 bound_to 6896
  145.6767  140.9202  143.0854 H   0  0  0  0  0  0  0  0  0  0  0  0  # atno 7974 bound_to 7965
  155.7864  140.3480  155.5325 H   0  0  0  0  0  0  0  0  0  0  0  0  # atno 8008 bound_to 7997
  155.8677  140.0981  157.1591 H   0  0  0  0  0  0  0  0  0  0  0  0  # atno 8009 bound_to 7997
  154.4015  140.1346  156.4027 H   0  0  0  0  0  0  0  0  0  0  0  0  # atno 8010 bound_to 7997
  139.4884  144.4266  151.9122 H   0  0  0  0  0  0  0  0  0  0  0  0  # atno 10167 bound_to 10162
  156.1866  130.4151  149.9430 H   0  0  0  0  0  0  0  0  0  0  0  0  # atno 10718 bound_to 10713
  154.0330  135.6654  153.4782 H   0  0  0  0  0  0  0  0  0  0  0  0  # atno 10763 bound_to 10752
  153.0532  135.5071  154.7915 H   0  0  0  0  0  0  0  0  0  0  0  0  # atno 10764 bound_to 10752
  154.6866  135.3054  154.9504 H   0  0  0  0  0  0  0  0  0  0  0  0  # atno 10765 bound_to 10752
  140.1228  134.8852  157.2096 H   0  0  0  0  0  0  0  0  0  0  0  0  # atno 11005 bound_to 11000
  144.7039  139.8643  143.7436 LP  0  0  0  0  0  0  0  0  0  0  0  0  # atno 17320 bound_to 7965
  146.0999  139.3994  143.0353 LP  0  0  0  0  0  0  0  0  0  0  0  0  # atno 17321 bound_to 7965
  140.3712  144.2853  150.5920 LP  0  0  0  0  0  0  0  0  0  0  0  0  # atno 17342 bound_to 10162
  140.5317  143.2242  151.8228 LP  0  0  0  0  0  0  0  0  0  0  0  0  # atno 17343 bound_to 10162
  156.7184  130.8997  151.3616 LP  0  0  0  0  0  0  0  0  0  0  0  0  # atno 17370 bound_to 10713
  157.6903  130.9226  150.0495 LP  0  0  0  0  0  0  0  0  0  0  0  0  # atno 17371 bound_to 10713
  140.2943  134.3205  155.7307 LP  0  0  0  0  0  0  0  0  0  0  0  0  # atno 17394 bound_to 11000
  141.2155  133.7553  156.9548 LP  0  0  0  0  0  0  0  0  0  0  0  0  # atno 17395 bound_to 11000

$$$$
