AV-unprocessed.smi:1990|AV-procd|sdf|8061|dock9
  -GOLD-   2272010263D 1   1.00000     0.00000
 Structure written by MMmdl.
 46 47  0  0  0  0  0  0  0  0  1 V2000
  150.6309  144.7823  159.5705 C   0  0  0  0  0  0  0  0  0  0  0  0
  151.8662  144.4959  158.6985 C   0  0  2  0  0  0  0  0  0  0  0  0
  151.5442  143.6884  157.4250 C   0  0  0  0  0  0  0  0  0  0  0  0
  151.3173  142.2806  157.7380 N   0  0  0  0  0  0  0  0  0  0  0  0
  150.7475  141.5163  156.6979 C   0  0  0  0  0  0  0  0  0  0  0  0
  151.5194  140.5318  156.0379 C   0  0  0  0  0  0  0  0  0  0  0  0
  150.9365  139.7786  155.0007 C   0  0  0  0  0  0  0  0  0  0  0  0
  149.5872  140.0222  154.6526 C   0  0  0  0  0  0  0  0  0  0  0  0
  148.8851  139.3526  153.6141 N   0  0  0  0  0  0  0  0  0  0  0  0
  147.5577  139.2164  153.4350 C   0  0  0  0  0  0  0  0  0  0  0  0
  146.7001  139.7337  154.1500 O   0  0  0  0  0  0  0  0  0  0  0  0
  147.1371  138.3738  152.2226 C   0  0  2  0  0  0  0  0  0  0  0  0
  146.4781  139.2292  151.1275 C   0  0  0  0  0  0  0  0  0  0  0  0
  145.9773  137.0290  152.7565 S   0  0  0  0  0  0  0  0  0  0  0  0
  145.6964  136.0746  151.2053 C   0  0  0  0  0  0  0  0  0  0  0  0
  146.6704  136.1509  153.7119 O   0  0  0  0  0  0  0  0  0  0  0  0
  144.7047  137.6551  153.1461 O   0  0  0  0  0  0  0  0  0  0  0  0
  148.9046  141.0324  155.3590 C   0  0  0  0  0  0  0  0  0  0  0  0
  149.4602  141.7587  156.3506 N   0  0  0  0  0  0  0  0  0  0  0  0
  152.3996  141.6832  158.5147 C   0  0  0  0  0  0  0  0  0  0  0  0
  152.6595  142.5043  159.7897 C   0  0  1  0  0  0  0  0  0  0  0  0
  153.8695  141.9795  160.5698 C   0  0  0  0  0  0  0  0  0  0  0  0
  152.9139  143.8635  159.4375 O   0  0  0  0  0  0  0  0  0  0  0  0
  149.9044  145.3838  159.0239 H   0  0  0  0  0  0  0  0  0  0  0  0
  150.9086  145.3354  160.4679 H   0  0  0  0  0  0  0  0  0  0  0  0
  150.1233  143.8697  159.8826 H   0  0  0  0  0  0  0  0  0  0  0  0
  152.2591  145.4632  158.3846 H   0  0  0  0  0  0  0  0  0  0  0  0
  150.6903  144.1360  156.9179 H   0  0  0  0  0  0  0  0  0  0  0  0
  152.3846  143.7498  156.7321 H   0  0  0  0  0  0  0  0  0  0  0  0
  152.5528  140.3612  156.3019 H   0  0  0  0  0  0  0  0  0  0  0  0
  151.5418  139.0478  154.4882 H   0  0  0  0  0  0  0  0  0  0  0  0
  149.4691  138.9450  152.8984 H   0  0  0  0  0  0  0  0  0  0  0  0
  148.0170  137.8887  151.7987 H   0  0  0  0  0  0  0  0  0  0  0  0
  147.1266  140.0506  150.8211 H   0  0  0  0  0  0  0  0  0  0  0  0
  145.5329  139.6556  151.4663 H   0  0  0  0  0  0  0  0  0  0  0  0
  146.2677  138.6300  150.2414 H   0  0  0  0  0  0  0  0  0  0  0  0
  144.9403  135.3109  151.3863 H   0  0  0  0  0  0  0  0  0  0  0  0
  146.6209  135.5894  150.8936 H   0  0  0  0  0  0  0  0  0  0  0  0
  145.3500  136.7449  150.4192 H   0  0  0  0  0  0  0  0  0  0  0  0
  147.8775  141.2686  155.1215 H   0  0  0  0  0  0  0  0  0  0  0  0
  152.1446  140.6590  158.7900 H   0  0  0  0  0  0  0  0  0  0  0  0
  153.3011  141.6422  157.9017 H   0  0  0  0  0  0  0  0  0  0  0  0
  151.7886  142.4508  160.4430 H   0  0  0  0  0  0  0  0  0  0  0  0
  153.7199  140.9437  160.8746 H   0  0  0  0  0  0  0  0  0  0  0  0
  154.0382  142.5699  161.4705 H   0  0  0  0  0  0  0  0  0  0  0  0
  154.7774  142.0234  159.9676 H   0  0  0  0  0  0  0  0  0  0  0  0
  1  2  1  0  0  0  0
  1 24  1  0  0  0  0
  1 25  1  0  0  0  0
  1 26  1  0  0  0  0
  2 23  1  0  0  0  0
  2  3  1  0  0  0  0
  2 27  1  0  0  0  0
  3  4  1  0  0  0  0
  3 28  1  0  0  0  0
  3 29  1  0  0  0  0
  4  5  1  0  0  0  0
  4 20  1  0  0  0  0
  5 19  1  0  0  0  0
  5  6  2  0  0  0  0
  6  7  1  0  0  0  0
  6 30  1  0  0  0  0
  7  8  2  0  0  0  0
  7 31  1  0  0  0  0
  8  9  1  0  0  0  0
  8 18  1  0  0  0  0
  9 10  1  0  0  0  0
  9 32  1  0  0  0  0
 10 11  2  0  0  0  0
 10 12  1  0  0  0  0
 12 13  1  0  0  0  0
 12 14  1  0  0  0  0
 12 33  1  0  0  0  0
 13 34  1  0  0  0  0
 13 35  1  0  0  0  0
 13 36  1  0  0  0  0
 14 15  1  0  0  0  0
 14 16  2  0  0  0  0
 14 17  2  0  0  0  0
 15 37  1  0  0  0  0
 15 38  1  0  0  0  0
 15 39  1  0  0  0  0
 18 19  2  0  0  0  0
 18 40  1  0  0  0  0
 20 21  1  0  0  0  0
 20 41  1  0  0  0  0
 20 42  1  0  0  0  0
 21 22  1  0  0  0  0
 21 23  1  0  0  0  0
 21 43  1  0  0  0  0
 22 44  1  0  0  0  0
 22 45  1  0  0  0  0
 22 46  1  0  0  0  0
M  END
> <s_m_source_file>
AV-unprocessed.smi

> <i_m_source_file_index>
1990

> <i_lp_mmshare_version>
43012

> <i_f3d_flags>
0

> <s_epik_input>
W0NIM11bQ0BASF0xW0NIMl1OKFtDSDJdW0NASF0oTzEpW0NIM10pYzJbY0hdW2NIXWMoW2NIXW4yKVtOSF1DKD1PKVtDQEhdKFtDSDNdKVMoPU8pKD1PKVtDSDNd

> <s_epik_cmdline>
J2VwaWtfcHl0aG9uJywgJy1waCcsICc3LjAnLCAnLXRuJywgJzgnLCAnLW1hJywgJzIwMCcsICctbWV0YWxfYmluZGluZycsICctaW1hZScsICc8aW5maWxlLm1hZT4nLCAnLW9tYWUnLCAnPG91dGZpbGUubWFlPic=

> <r_lp_tautomer_probability>
1

> <r_epik_Ionization_Penalty>
0.000334888

> <r_epik_Ionization_Penalty_Charging>
0

> <r_epik_Ionization_Penalty_Neutral>
0.000334888

> <r_epik_State_Penalty>
0.000200905

> <r_epik_Charging_Adjusted_Penalty>
0.000200905

> <i_epik_Tot_Q>
0

> <i_epik_Tot_abs_Q>
0

> <r_epik_Metal_State_Penalty>
-0

> <b_epik_Metal_Only>
0

> <s_lp_Force_Field>
OPLS_2005

> <r_lp_Energy>
21.5885

> <b_lp_Chiralities_Consistent>
1

> <s_lp_Variant>
AV-unprocessed.smi:1990-1

> <Gold.Version>
5.8.1

> <Gold.Id.Protein>
6NUR|6NUR_protein|mol2

> <Gold.PLP.Fitness>
42.3839

> <Gold.PLP.PLP>
-42.8624

> <Gold.PLP.part.hbond>
-1.0000

> <Gold.PLP.part.metal>
0.0000

> <Gold.PLP.part.buried>
0.5988

> <Gold.PLP.part.nonpolar>
-43.5601

> <Gold.PLP.part.repulsive>
2.4725

> <Gold.PLP.ligand.clash>
0.0000

> <Gold.PLP.ligand.torsion>
0.7400

> <Gold.PLP.Chemscore.Hbond>
0.1789

> <Gold.PLP.Chemscore.CHOScore>
0.0000

> <Gold.PLP.Chemscore.Metal>
0.0000

> <Gold.Chemscore.Hbonds>
donor molecule, donor type, donor heavy atom, donor atom, acceptor molecule, acceptor atom, score
      L1  H     9    32       P1  7957  0.31

> <Gold.PLP.Chemscore.Internal.Correction>
0.4649

> <Gold.Rescore>
     Score         DG    S(hbond)    S(metal)    S(lipo)     H(rot)  DE(clash)    DE(int)     intcor
     13.30     -16.09       0.28        0.00     115.96       1.52       0.75       2.05       ----

> <Gold.Chemscore.Fitness>
13.2993

> <Gold.Chemscore.DG>
-16.0948

> <Gold.Chemscore.ZeroCoef>
-5.4800

> <Gold.Chemscore.Hbond>
0.2793

> <Gold.Chemscore.Metal>
0.0000

> <Gold.Chemscore.Lipo>
115.9587

> <Gold.Chemscore.Internal_Hbond>
0.0000

> <Gold.Chemscore.DEClash>
0.7454

> <Gold.Chemscore.DEInternal>
2.0500

> <Gold.Chemscore.Rot>
1.5177

> <Gold.Chemscore.Internal.Correction>
   9.000000E+99

> <Gold.Chemscore.Hbonds>
donor molecule, donor type, donor heavy atom, donor atom, acceptor molecule, acceptor atom, score
      L1  H     9    32       P1  7957  0.28

> <Gold.Chemscore.Hbond.Weighted>
-0.9329

> <Gold.Chemscore.Metal.Weighted>
-0.0000

> <Gold.Chemscore.Lipo.Weighted>
-13.5672

> <Gold.Chemscore.Internal_Hbond.Weighted>
0.0000

> <Gold.Chemscore.DEClash.Weighted>
0.7454

> <Gold.Chemscore.DEInternal.Weighted>
2.0500

> <Gold.Chemscore.Rot.Weighted>
3.8853

> <Gold.Chemscore.Internal.Correction.Weighted>
   9.000000E+99

> <Gold.Protein.RotatedTorsions>
[ 6907 6896 6895 6894 ] final  -71.89 input  -60.11 | X-H torsion
[ 7974 7965 7964 7962 ] final  123.38 input  175.53 | X-H torsion
[ 8008 7997 7996 7995 ] final   -9.54 input   59.86 | X-H torsion
[ 10167 10162 10161 10158 ] final  -70.85 input  -65.29 | X-H torsion
[ 10718 10713 10712 10709 ] final -174.50 input   66.30 | X-H torsion
[ 10763 10752 10751 10750 ] final  167.71 input  -60.55 | X-H torsion
[ 11005 11000 10999 10996 ] final  -16.71 input  -57.11 | X-H torsion

> <Gold.Protein.ActiveResidues>
 VAL166  LYS551  ARG553  GLY616  TRP617  ASP618  TYR619  PRO620  LYS621  CYS622 
 ASP623  PHE694  ASN695  SER759  ASP760  ASP761  ALA762  ILE779  LEU786  VAL792 
 PHE793  MET794  SER795  GLU796  ALA797  LYS798  CYS799  TRP800  GLU811  SER814 

> <Gold.Protein.RotatedAtoms>
  150.7193  134.5242  159.5668 H   0  0  0  0  0  0  0  0  0  0  0  0  # atno 6907 bound_to 6896
  152.2790  134.7846  160.0409 H   0  0  0  0  0  0  0  0  0  0  0  0  # atno 6908 bound_to 6896
  151.8500  133.3403  159.3707 H   0  0  0  0  0  0  0  0  0  0  0  0  # atno 6909 bound_to 6896
  145.0966  139.3548  143.4833 H   0  0  0  0  0  0  0  0  0  0  0  0  # atno 7974 bound_to 7965
  154.5637  140.2352  155.8296 H   0  0  0  0  0  0  0  0  0  0  0  0  # atno 8008 bound_to 7997
  156.2051  140.3042  155.9568 H   0  0  0  0  0  0  0  0  0  0  0  0  # atno 8009 bound_to 7997
  155.2840  140.0423  157.3008 H   0  0  0  0  0  0  0  0  0  0  0  0  # atno 8010 bound_to 7997
  140.5320  143.2321  151.7245 H   0  0  0  0  0  0  0  0  0  0  0  0  # atno 10167 bound_to 10162
  156.7860  130.9501  151.3120 H   0  0  0  0  0  0  0  0  0  0  0  0  # atno 10718 bound_to 10713
  154.3579  135.2753  155.2336 H   0  0  0  0  0  0  0  0  0  0  0  0  # atno 10763 bound_to 10752
  154.4537  135.5924  153.6212 H   0  0  0  0  0  0  0  0  0  0  0  0  # atno 10764 bound_to 10752
  152.9845  135.6048  154.3796 H   0  0  0  0  0  0  0  0  0  0  0  0  # atno 10765 bound_to 10752
  140.8095  133.8152  155.9549 H   0  0  0  0  0  0  0  0  0  0  0  0  # atno 11005 bound_to 11000
  146.3530  140.0825  142.8617 LP  0  0  0  0  0  0  0  0  0  0  0  0  # atno 17320 bound_to 7965
  145.1003  140.9341  143.4716 LP  0  0  0  0  0  0  0  0  0  0  0  0  # atno 17321 bound_to 7965
  139.4957  144.4100  152.0091 LP  0  0  0  0  0  0  0  0  0  0  0  0  # atno 17342 bound_to 10162
  140.3203  144.3436  150.6011 LP  0  0  0  0  0  0  0  0  0  0  0  0  # atno 17343 bound_to 10162
  157.6623  130.8977  149.9857 LP  0  0  0  0  0  0  0  0  0  0  0  0  # atno 17370 bound_to 10713
  156.1188  130.3646  149.9922 LP  0  0  0  0  0  0  0  0  0  0  0  0  # atno 17371 bound_to 10713
  140.9212  134.2139  157.4925 LP  0  0  0  0  0  0  0  0  0  0  0  0  # atno 17394 bound_to 11000
  139.8715  134.9793  156.5031 LP  0  0  0  0  0  0  0  0  0  0  0  0  # atno 17395 bound_to 11000

$$$$
