AV-unprocessed.smi:1726|AV-procd|sdf|6964|dock9
  -GOLD-   22720 8173D 1   1.00000     0.00000
 Structure written by MMmdl.
 42 43  0  0  0  0  0  0  0  0  3 V2000
  146.4218  138.4420  151.8111 C   0  0  0  0  0  0  0  0  0  0  0  0
  147.1052  139.1359  152.9984 C   0  0  0  0  0  0  0  0  0  0  0  0
  148.1122  138.2712  153.6646 N   0  3  2  0  0  0  0  0  0  0  0  0
  147.4816  137.2808  154.5757 C   0  0  0  0  0  0  0  0  0  0  0  0
  148.5244  136.3093  155.1531 C   0  0  0  0  0  0  0  0  0  0  0  0
  149.6476  137.0691  155.8697 C   0  0  0  0  0  0  0  0  0  0  0  0
  150.2706  138.1021  154.9185 C   0  0  2  0  0  0  0  0  0  0  0  0
  151.3008  138.8644  155.6171 N   0  0  0  0  0  0  0  0  0  0  0  0
  151.0884  139.6494  156.6833 C   0  0  0  0  0  0  0  0  0  0  0  0
  149.9777  139.8055  157.1910 O   0  0  0  0  0  0  0  0  0  0  0  0
  152.2389  140.1988  157.1116 N   0  0  0  0  0  0  0  0  0  0  0  0
  152.4570  141.0886  158.1770 C   0  0  0  0  0  0  0  0  0  0  0  0
  151.8088  142.2747  158.3431 C   0  0  0  0  0  0  0  0  0  0  0  0
  152.0861  143.1646  159.4636 C   0  0  0  0  0  0  0  0  0  0  0  0
  151.4367  144.5256  159.6409 C   0  0  0  0  0  0  0  0  0  0  0  0
  151.9342  145.1590  160.7035 F   0  0  0  0  0  0  0  0  0  0  0  0
  151.6290  145.2914  158.5668 F   0  0  0  0  0  0  0  0  0  0  0  0
  150.1245  144.3823  159.8199 F   0  0  0  0  0  0  0  0  0  0  0  0
  153.0833  142.6773  160.2860 C   0  0  0  0  0  0  0  0  0  0  0  0
  153.7682  141.5161  160.1963 N   0  5  0  0  0  0  0  0  0  0  0  0
  153.4929  140.6862  159.1507 C   0  0  0  0  0  0  0  0  0  0  0  0
  154.0843  139.6159  159.0038 O   0  0  0  0  0  0  0  0  0  0  0  0
  149.1829  139.0404  154.3531 C   0  0  0  0  0  0  0  0  0  0  0  0
  145.6161  139.0628  151.4184 H   0  0  0  0  0  0  0  0  0  0  0  0
  145.9864  137.4877  152.1094 H   0  0  0  0  0  0  0  0  0  0  0  0
  147.1127  138.2563  150.9893 H   0  0  0  0  0  0  0  0  0  0  0  0
  147.5650  140.0741  152.6844 H   0  0  0  0  0  0  0  0  0  0  0  0
  146.3291  139.3989  153.7183 H   0  0  0  0  0  0  0  0  0  0  0  0
  146.9670  137.8043  155.3831 H   0  0  0  0  0  0  0  0  0  0  0  0
  146.7251  136.7106  154.0349 H   0  0  0  0  0  0  0  0  0  0  0  0
  148.0449  135.6151  155.8437 H   0  0  0  0  0  0  0  0  0  0  0  0
  148.9459  135.7039  154.3493 H   0  0  0  0  0  0  0  0  0  0  0  0
  149.2470  137.5669  156.7542 H   0  0  0  0  0  0  0  0  0  0  0  0
  150.4065  136.3688  156.2209 H   0  0  0  0  0  0  0  0  0  0  0  0
  150.7366  137.5626  154.0911 H   0  0  0  0  0  0  0  0  0  0  0  0
  152.2443  138.7889  155.2651 H   0  0  0  0  0  0  0  0  0  0  0  0
  153.0815  139.9122  156.6344 H   0  0  0  0  0  0  0  0  0  0  0  0
  151.0710  142.6057  157.6311 H   0  0  0  0  0  0  0  0  0  0  0  0
  153.3773  143.3191  161.1437 H   0  0  0  0  0  0  0  0  0  0  0  0
  149.6422  139.7397  153.6553 H   0  0  0  0  0  0  0  0  0  0  0  0
  148.7439  139.6380  155.1539 H   0  0  0  0  0  0  0  0  0  0  0  0
  148.5593  137.7370  152.9330 H   0  0  0  0  0  0  0  0  0  0  0  0
  1  2  1  0  0  0  0
  1 24  1  0  0  0  0
  1 25  1  0  0  0  0
  1 26  1  0  0  0  0
  2  3  1  0  0  0  0
  2 27  1  0  0  0  0
  2 28  1  0  0  0  0
  3 23  1  0  0  0  0
  3  4  1  0  0  0  0
  3 42  1  0  0  0  0
  4  5  1  0  0  0  0
  4 29  1  0  0  0  0
  4 30  1  0  0  0  0
  5  6  1  0  0  0  0
  5 31  1  0  0  0  0
  5 32  1  0  0  0  0
  6  7  1  0  0  0  0
  6 33  1  0  0  0  0
  6 34  1  0  0  0  0
  7  8  1  0  0  0  0
  7 23  1  0  0  0  0
  7 35  1  0  0  0  0
  8  9  1  0  0  0  0
  8 36  1  0  0  0  0
  9 10  2  0  0  0  0
  9 11  1  0  0  0  0
 11 12  1  0  0  0  0
 11 37  1  0  0  0  0
 12 21  1  0  0  0  0
 12 13  2  0  0  0  0
 13 14  1  0  0  0  0
 13 38  1  0  0  0  0
 14 15  1  0  0  0  0
 14 19  2  0  0  0  0
 15 16  1  0  0  0  0
 15 17  1  0  0  0  0
 15 18  1  0  0  0  0
 19 20  1  0  0  0  0
 19 39  1  0  0  0  0
 20 21  1  0  0  0  0
 21 22  2  0  0  0  0
 23 40  1  0  0  0  0
 23 41  1  0  0  0  0
M  CHG  1   3   1
M  CHG  1  20  -1
M  END
> <s_m_source_file>
AV-unprocessed.smi

> <i_m_source_file_index>
1726

> <i_lp_mmshare_version>
43012

> <i_f3d_flags>
0

> <s_epik_input>
W0NIM11bQ0gyXU4xW0NIMl1bQ0gyXVtDSDJdW0NASF0oW0NIMl0xKVtOSF1DKD1PKVtOSF1jMltjSF1jKEMoRikoRilGKVtjSF1bbkhdYzI9Tw==

> <s_epik_cmdline>
J2VwaWtfcHl0aG9uJywgJy1waCcsICc3LjAnLCAnLXRuJywgJzgnLCAnLW1hJywgJzIwMCcsICctbWV0YWxfYmluZGluZycsICctaW1hZScsICc8aW5maWxlLm1hZT4nLCAnLW9tYWUnLCAnPG91dGZpbGUubWFlPic=

> <r_lp_tautomer_probability>
1

> <r_epik_Ionization_Penalty>
3.01007

> <r_epik_Ionization_Penalty_Charging>
0.14897

> <r_epik_Ionization_Penalty_Neutral>
2.8611

> <r_epik_State_Penalty>
2.85632

> <r_epik_Charging_Adjusted_Penalty>
3.00529

> <i_epik_Tot_Q>
0

> <i_epik_Tot_abs_Q>
2

> <r_epik_Metal_State_Penalty>
0.443826

> <b_epik_Metal_Only>
1

> <s_lp_Force_Field>
OPLS_2005

> <r_lp_Energy>
27.5552

> <b_lp_Chiralities_Consistent>
1

> <s_lp_Variant>
AV-unprocessed.smi:1726-8

> <Gold.Version>
5.8.1

> <Gold.Id.Protein>
6NUR|6NUR_protein|mol2

> <Gold.PLP.Fitness>
47.3337

> <Gold.PLP.PLP>
-39.8008

> <Gold.PLP.part.hbond>
-2.0000

> <Gold.PLP.part.metal>
0.0000

> <Gold.PLP.part.buried>
-4.4941

> <Gold.PLP.part.nonpolar>
-32.7817

> <Gold.PLP.part.repulsive>
0.3237

> <Gold.PLP.ligand.clash>
0.0000

> <Gold.PLP.ligand.torsion>
0.7523

> <Gold.PLP.Chemscore.Hbond>
2.9913

> <Gold.PLP.Chemscore.CHOScore>
0.0000

> <Gold.PLP.Chemscore.Metal>
0.0000

> <Gold.Chemscore.Hbonds>
donor molecule, donor type, donor heavy atom, donor atom, acceptor molecule, acceptor atom, score
      L1  H     3    42       P1  7948  2.00
      P1  H  7997  8008       L1    22  1.00

> <Gold.PLP.Chemscore.Internal.Correction>
0.0638

> <Gold.Rescore>
     Score         DG    S(hbond)    S(metal)    S(lipo)     H(rot)  DE(clash)    DE(int)     intcor
     15.48     -17.15       1.71        0.00      79.06       1.28       0.09       1.57       ----

> <Gold.Chemscore.Fitness>
15.4844

> <Gold.Chemscore.DG>
-17.1484

> <Gold.Chemscore.ZeroCoef>
-5.4800

> <Gold.Chemscore.Hbond>
1.7050

> <Gold.Chemscore.Metal>
0.0000

> <Gold.Chemscore.Lipo>
79.0555

> <Gold.Chemscore.Internal_Hbond>
0.0000

> <Gold.Chemscore.DEClash>
0.0924

> <Gold.Chemscore.DEInternal>
1.5717

> <Gold.Chemscore.Rot>
1.2796

> <Gold.Chemscore.Internal.Correction>
   9.000000E+99

> <Gold.Chemscore.Hbonds>
donor molecule, donor type, donor heavy atom, donor atom, acceptor molecule, acceptor atom, score
      L1  H     3    42       P1  7948  0.99
      P1  H  7997  8008       L1    22  0.23

> <Gold.Chemscore.Hbond.Weighted>
-5.6948

> <Gold.Chemscore.Metal.Weighted>
-0.0000

> <Gold.Chemscore.Lipo.Weighted>
-9.2495

> <Gold.Chemscore.Internal_Hbond.Weighted>
0.0000

> <Gold.Chemscore.DEClash.Weighted>
0.0924

> <Gold.Chemscore.DEInternal.Weighted>
1.5717

> <Gold.Chemscore.Rot.Weighted>
3.2759

> <Gold.Chemscore.Internal.Correction.Weighted>
   9.000000E+99

> <Gold.Protein.RotatedTorsions>
[ 6907 6896 6895 6894 ] final -100.98 input  -60.11 | X-H torsion
[ 7974 7965 7964 7962 ] final -129.25 input  175.53 | X-H torsion
[ 8008 7997 7996 7995 ] final -124.22 input   59.86 | X-H torsion
[ 10167 10162 10161 10158 ] final  -79.51 input  -65.29 | X-H torsion
[ 10718 10713 10712 10709 ] final   87.27 input   66.30 | X-H torsion
[ 10763 10752 10751 10750 ] final  -10.91 input  -60.55 | X-H torsion
[ 11005 11000 10999 10996 ] final -150.47 input  -57.11 | X-H torsion

> <Gold.Protein.ActiveResidues>
 VAL166  LYS551  ARG553  GLY616  TRP617  ASP618  TYR619  PRO620  LYS621  CYS622 
 ASP623  PHE694  ASN695  SER759  ASP760  ASP761  ALA762  ILE779  LEU786  VAL792 
 PHE793  MET794  SER795  GLU796  ALA797  LYS798  CYS799  TRP800  GLU811  SER814 

> <Gold.Protein.RotatedAtoms>
  150.7136  134.0804  159.3895 H   0  0  0  0  0  0  0  0  0  0  0  0  # atno 6907 bound_to 6896
  151.8788  135.0459  160.0496 H   0  0  0  0  0  0  0  0  0  0  0  0  # atno 6908 bound_to 6896
  152.2584  133.5240  159.5404 H   0  0  0  0  0  0  0  0  0  0  0  0  # atno 6909 bound_to 6896
  144.9590  140.7427  143.4740 H   0  0  0  0  0  0  0  0  0  0  0  0  # atno 7974 bound_to 7965
  155.1933  140.0414  157.2904 H   0  0  0  0  0  0  0  0  0  0  0  0  # atno 8008 bound_to 7997
  154.6124  140.2480  155.7624 H   0  0  0  0  0  0  0  0  0  0  0  0  # atno 8009 bound_to 7997
  156.2387  140.2912  156.0392 H   0  0  0  0  0  0  0  0  0  0  0  0  # atno 8010 bound_to 7997
  140.4587  143.2460  151.8381 H   0  0  0  0  0  0  0  0  0  0  0  0  # atno 10167 bound_to 10162
  157.6938  131.0249  150.3099 H   0  0  0  0  0  0  0  0  0  0  0  0  # atno 10718 bound_to 10713
  153.4761  135.7017  153.5965 H   0  0  0  0  0  0  0  0  0  0  0  0  # atno 10763 bound_to 10752
  153.4198  135.3828  155.2104 H   0  0  0  0  0  0  0  0  0  0  0  0  # atno 10764 bound_to 10752
  154.8723  135.3925  154.4205 H   0  0  0  0  0  0  0  0  0  0  0  0  # atno 10765 bound_to 10752
  140.7399  134.3526  157.5150 H   0  0  0  0  0  0  0  0  0  0  0  0  # atno 11005 bound_to 11000
  145.2728  139.1948  143.4832 LP  0  0  0  0  0  0  0  0  0  0  0  0  # atno 17320 bound_to 7965
  146.3347  140.2677  142.8604 LP  0  0  0  0  0  0  0  0  0  0  0  0  # atno 17321 bound_to 7965
  139.4804  144.5034  151.9030 LP  0  0  0  0  0  0  0  0  0  0  0  0  # atno 17342 bound_to 10162
  140.4120  144.2357  150.5888 LP  0  0  0  0  0  0  0  0  0  0  0  0  # atno 17343 bound_to 10162
  156.3602  130.3845  149.7258 LP  0  0  0  0  0  0  0  0  0  0  0  0  # atno 17370 bound_to 10713
  156.4706  130.7995  151.3013 LP  0  0  0  0  0  0  0  0  0  0  0  0  # atno 17371 bound_to 10713
  139.8808  134.9073  156.2943 LP  0  0  0  0  0  0  0  0  0  0  0  0  # atno 17394 bound_to 11000
  140.9846  133.7246  156.0723 LP  0  0  0  0  0  0  0  0  0  0  0  0  # atno 17395 bound_to 11000

$$$$
