AV-unprocessed.smi:1682|AV-procd|sdf|6745|dock10
  -GOLD-   22720 7503D 1   1.00000     0.00000
 Structure written by MMmdl.
 39 40  0  0  0  0  0  0  0  0  2 V2000
  149.2215  133.7042  158.1018 O   0  0  0  0  0  0  0  0  0  0  0  0
  148.7781  134.5199  157.2942 C   0  0  0  0  0  0  0  0  0  0  0  0
  148.8784  134.3596  155.9650 N   0  0  0  0  0  0  0  0  0  0  0  0
  149.4884  133.2038  155.3236 C   0  0  0  0  0  0  0  0  0  0  0  0
  149.5309  133.3841  153.8000 C   0  0  0  0  0  0  0  0  0  0  0  0
  148.2816  132.8489  153.1269 C   0  0  0  0  0  0  0  0  0  0  0  0
  147.8001  131.5431  153.3659 C   0  0  0  0  0  0  0  0  0  0  0  0
  146.6385  131.1037  152.6968 C   0  0  0  0  0  0  0  0  0  0  0  0
  145.9835  131.9775  151.8045 C   0  0  0  0  0  0  0  0  0  0  0  0
  146.5072  133.2709  151.6037 C   0  0  0  0  0  0  0  0  0  0  0  0
  147.6225  133.6550  152.2631 N   0  3  0  0  0  0  0  0  0  0  0  0
  148.0649  135.7849  157.7996 C   0  0  2  0  0  0  0  0  0  0  0  0
  148.9159  136.5673  158.8182 C   0  0  0  0  0  0  0  0  0  0  0  0
  148.1279  136.4469  160.1124 C   0  0  0  0  0  0  0  0  0  0  0  0
  148.5628  136.8393  161.1936 O   0  0  0  0  0  0  0  0  0  0  0  0
  146.9460  135.8550  159.9053 N   0  0  0  0  0  0  0  0  0  0  0  0
  145.9384  135.5524  160.9210 C   0  0  0  0  0  0  0  0  0  0  0  0
  146.4859  134.6560  162.0466 C   0  0  0  0  0  0  0  0  0  0  0  0
  145.4627  134.1532  162.7359 F   0  0  0  0  0  0  0  0  0  0  0  0
  147.2013  133.6442  161.5563 F   0  0  0  0  0  0  0  0  0  0  0  0
  147.2471  135.3692  162.8768 F   0  0  0  0  0  0  0  0  0  0  0  0
  146.7281  135.4923  158.5134 C   0  0  0  0  0  0  0  0  0  0  0  0
  148.4901  135.0734  155.3654 H   0  0  0  0  0  0  0  0  0  0  0  0
  150.4969  133.0634  155.7163 H   0  0  0  0  0  0  0  0  0  0  0  0
  148.9159  132.3098  155.5764 H   0  0  0  0  0  0  0  0  0  0  0  0
  149.6436  134.4409  153.5527 H   0  0  0  0  0  0  0  0  0  0  0  0
  150.4026  132.8761  153.3851 H   0  0  0  0  0  0  0  0  0  0  0  0
  148.3139  130.8831  154.0500 H   0  0  0  0  0  0  0  0  0  0  0  0
  146.2556  130.1077  152.8648 H   0  0  0  0  0  0  0  0  0  0  0  0
  145.0934  131.6601  151.2813 H   0  0  0  0  0  0  0  0  0  0  0  0
  146.0726  134.0037  150.9396 H   0  0  0  0  0  0  0  0  0  0  0  0
  147.8708  136.4212  156.9344 H   0  0  0  0  0  0  0  0  0  0  0  0
  149.9259  136.1738  158.9442 H   0  0  0  0  0  0  0  0  0  0  0  0
  148.9965  137.6184  158.5395 H   0  0  0  0  0  0  0  0  0  0  0  0
  145.5698  136.4867  161.3463 H   0  0  0  0  0  0  0  0  0  0  0  0
  145.0777  135.0754  160.4493 H   0  0  0  0  0  0  0  0  0  0  0  0
  145.9276  136.1078  158.1007 H   0  0  0  0  0  0  0  0  0  0  0  0
  146.4174  134.4495  158.4282 H   0  0  0  0  0  0  0  0  0  0  0  0
  147.9849  134.5947  152.0998 H   0  0  0  0  0  0  0  0  0  0  0  0
  1  2  2  0  0  0  0
  2  3  1  0  0  0  0
  2 12  1  0  0  0  0
  3  4  1  0  0  0  0
  3 23  1  0  0  0  0
  4  5  1  0  0  0  0
  4 24  1  0  0  0  0
  4 25  1  0  0  0  0
  5  6  1  0  0  0  0
  5 26  1  0  0  0  0
  5 27  1  0  0  0  0
  6 11  1  0  0  0  0
  6  7  2  0  0  0  0
  7  8  1  0  0  0  0
  7 28  1  0  0  0  0
  8  9  2  0  0  0  0
  8 29  1  0  0  0  0
  9 10  1  0  0  0  0
  9 30  1  0  0  0  0
 10 11  2  0  0  0  0
 10 31  1  0  0  0  0
 11 39  1  0  0  0  0
 12 22  1  0  0  0  0
 12 13  1  0  0  0  0
 12 32  1  0  0  0  0
 13 14  1  0  0  0  0
 13 33  1  0  0  0  0
 13 34  1  0  0  0  0
 14 15  2  0  0  0  0
 14 16  1  0  0  0  0
 16 17  1  0  0  0  0
 16 22  1  0  0  0  0
 17 18  1  0  0  0  0
 17 35  1  0  0  0  0
 17 36  1  0  0  0  0
 18 19  1  0  0  0  0
 18 20  1  0  0  0  0
 18 21  1  0  0  0  0
 22 37  1  0  0  0  0
 22 38  1  0  0  0  0
M  CHG  1  11   1
M  END
> <s_m_source_file>
AV-unprocessed.smi

> <i_m_source_file_index>
1682

> <i_lp_mmshare_version>
43012

> <i_f3d_flags>
0

> <s_epik_input>
RkMoRikoRilbQ0gyXU4oW0NIMl0xKUMoPU8pW0NIMl1bQ0BIXTFDKD1PKVtOSF1bQ0gyXVtDSDJdYzJbY0hdW2NIXVtjSF1bY0hdbjI=

> <s_epik_cmdline>
J2VwaWtfcHl0aG9uJywgJy1waCcsICc3LjAnLCAnLXRuJywgJzgnLCAnLW1hJywgJzIwMCcsICctbWV0YWxfYmluZGluZycsICctaW1hZScsICc8aW5maWxlLm1hZT4nLCAnLW9tYWUnLCAnPG91dGZpbGUubWFlPic=

> <r_epik_Ionization_Penalty>
1.88249

> <r_epik_Ionization_Penalty_Charging>
1.88249

> <r_epik_Ionization_Penalty_Neutral>
2.8664e-08

> <r_epik_State_Penalty>
2.00238

> <r_epik_Charging_Adjusted_Penalty>
3.88487

> <i_epik_Tot_Q>
1

> <i_epik_Tot_abs_Q>
1

> <r_epik_Metal_State_Penalty>
2.02677

> <b_epik_Metal_Only>
0

> <s_lp_Force_Field>
OPLS_2005

> <r_lp_Energy>
22.1056

> <b_lp_Chiralities_Consistent>
1

> <s_lp_Variant>
AV-unprocessed.smi:1682-3

> <Gold.Version>
5.8.1

> <Gold.Id.Protein>
6NUR|6NUR_protein|mol2

> <Gold.PLP.Fitness>
49.4064

> <Gold.PLP.PLP>
-38.4153

> <Gold.PLP.part.hbond>
-3.2036

> <Gold.PLP.part.metal>
0.0000

> <Gold.PLP.part.buried>
-4.9436

> <Gold.PLP.part.nonpolar>
-31.7561

> <Gold.PLP.part.repulsive>
0.0339

> <Gold.PLP.ligand.clash>
0.0000

> <Gold.PLP.ligand.torsion>
0.5437

> <Gold.PLP.Chemscore.Hbond>
4.0000

> <Gold.PLP.Chemscore.CHOScore>
0.0000

> <Gold.PLP.Chemscore.Metal>
0.0000

> <Gold.Chemscore.Hbonds>
donor molecule, donor type, donor heavy atom, donor atom, acceptor molecule, acceptor atom, score
      L1  H    11    39       P1  7948  2.00
      P1  H  6896  6908       L1     1  1.00
      P1  H  6931  6943       L1    15  1.00

> <Gold.PLP.Chemscore.Internal.Correction>
0.0787

> <Gold.Rescore>
     Score         DG    S(hbond)    S(metal)    S(lipo)     H(rot)  DE(clash)    DE(int)     intcor
     14.48     -16.46       2.90        0.00      58.92       2.19       0.02       1.96       ----

> <Gold.Chemscore.Fitness>
14.4786

> <Gold.Chemscore.DG>
-16.4573

> <Gold.Chemscore.ZeroCoef>
-5.4800

> <Gold.Chemscore.Hbond>
2.9035

> <Gold.Chemscore.Metal>
0.0000

> <Gold.Chemscore.Lipo>
58.9247

> <Gold.Chemscore.Internal_Hbond>
0.0000

> <Gold.Chemscore.DEClash>
0.0201

> <Gold.Chemscore.DEInternal>
1.9586

> <Gold.Chemscore.Rot>
2.1932

> <Gold.Chemscore.Internal.Correction>
   9.000000E+99

> <Gold.Chemscore.Hbonds>
donor molecule, donor type, donor heavy atom, donor atom, acceptor molecule, acceptor atom, score
      L1  H    11    39       P1  7948  0.26
      P1  H  6896  6908       L1     1  0.99
      P1  H  6931  6943       L1    15  0.99

> <Gold.Chemscore.Hbond.Weighted>
-9.6975

> <Gold.Chemscore.Metal.Weighted>
-0.0000

> <Gold.Chemscore.Lipo.Weighted>
-6.8942

> <Gold.Chemscore.Internal_Hbond.Weighted>
0.0000

> <Gold.Chemscore.DEClash.Weighted>
0.0201

> <Gold.Chemscore.DEInternal.Weighted>
1.9586

> <Gold.Chemscore.Rot.Weighted>
5.6145

> <Gold.Chemscore.Internal.Correction.Weighted>
   9.000000E+99

> <Gold.Protein.RotatedTorsions>
[ 6907 6896 6895 6894 ] final  122.30 input  -60.11 | X-H torsion
[ 7974 7965 7964 7962 ] final  -74.11 input  175.53 | X-H torsion
[ 8008 7997 7996 7995 ] final   30.43 input   59.86 | X-H torsion
[ 10167 10162 10161 10158 ] final   19.95 input  -65.29 | X-H torsion
[ 10718 10713 10712 10709 ] final  169.84 input   66.30 | X-H torsion
[ 10763 10752 10751 10750 ] final   92.73 input  -60.55 | X-H torsion
[ 11005 11000 10999 10996 ] final   -1.07 input  -57.11 | X-H torsion

> <Gold.Protein.ActiveResidues>
 VAL166  LYS551  ARG553  GLY616  TRP617  ASP618  TYR619  PRO620  LYS621  CYS622 
 ASP623  PHE694  ASN695  SER759  ASP760  ASP761  ALA762  ILE779  LEU786  VAL792 
 PHE793  MET794  SER795  GLU796  ALA797  LYS798  CYS799  TRP800  GLU811  SER814 

> <Gold.Protein.RotatedAtoms>
  152.4254  133.7186  159.6520 H   0  0  0  0  0  0  0  0  0  0  0  0  # atno 6907 bound_to 6896
  150.8131  133.8376  159.3179 H   0  0  0  0  0  0  0  0  0  0  0  0  # atno 6908 bound_to 6896
  151.6080  135.1044  160.0126 H   0  0  0  0  0  0  0  0  0  0  0  0  # atno 6909 bound_to 6896
  145.6434  140.9304  143.1023 H   0  0  0  0  0  0  0  0  0  0  0  0  # atno 7974 bound_to 7965
  155.0903  140.3219  155.4575 H   0  0  0  0  0  0  0  0  0  0  0  0  # atno 8008 bound_to 7997
  156.2744  140.2079  156.5977 H   0  0  0  0  0  0  0  0  0  0  0  0  # atno 8009 bound_to 7997
  154.6908  140.0516  157.0349 H   0  0  0  0  0  0  0  0  0  0  0  0  # atno 8010 bound_to 7997
  140.5541  143.9457  150.6597 H   0  0  0  0  0  0  0  0  0  0  0  0  # atno 10167 bound_to 10162
  157.0168  131.0220  151.2787 H   0  0  0  0  0  0  0  0  0  0  0  0  # atno 10718 bound_to 10713
  153.2224  135.4351  155.0504 H   0  0  0  0  0  0  0  0  0  0  0  0  # atno 10763 bound_to 10752
  154.8256  135.3359  154.6908 H   0  0  0  0  0  0  0  0  0  0  0  0  # atno 10764 bound_to 10752
  153.7339  135.7009  153.5039 H   0  0  0  0  0  0  0  0  0  0  0  0  # atno 10765 bound_to 10752
  140.6433  133.9470  155.8338 H   0  0  0  0  0  0  0  0  0  0  0  0  # atno 11005 bound_to 11000
  144.7149  139.8234  143.7402 LP  0  0  0  0  0  0  0  0  0  0  0  0  # atno 17320 bound_to 7965
  146.1262  139.4288  143.0197 LP  0  0  0  0  0  0  0  0  0  0  0  0  # atno 17321 bound_to 7965
  140.2890  143.3337  152.1080 LP  0  0  0  0  0  0  0  0  0  0  0  0  # atno 17342 bound_to 10162
  139.5040  144.6766  151.6112 LP  0  0  0  0  0  0  0  0  0  0  0  0  # atno 17343 bound_to 10162
  157.5280  130.8040  149.7884 LP  0  0  0  0  0  0  0  0  0  0  0  0  # atno 17370 bound_to 10713
  156.0116  130.3831  150.2245 LP  0  0  0  0  0  0  0  0  0  0  0  0  # atno 17371 bound_to 10713
  141.0591  134.0373  157.3683 LP  0  0  0  0  0  0  0  0  0  0  0  0  # atno 17394 bound_to 11000
  139.9072  135.0182  156.7537 LP  0  0  0  0  0  0  0  0  0  0  0  0  # atno 17395 bound_to 11000

$$$$
