AV-unprocessed.smi:1996|AV-procd|sdf|8084|dock1
  -GOLD-   2272010303D 1   1.00000     0.00000
 Structure written by MMmdl.
 33 34  0  0  0  0  0  0  0  0  1 V2000
  156.4354  144.6573  164.1837 O   0  0  0  0  0  0  0  0  0  0  0  0
  155.5911  144.2806  164.9970 C   0  0  0  0  0  0  0  0  0  0  0  0
  154.5409  143.5134  164.6703 N   0  0  0  0  0  0  0  0  0  0  0  0
  154.2577  143.0084  163.3319 C   0  0  0  0  0  0  0  0  0  0  0  0
  152.8745  143.4677  162.8384 C   0  0  0  0  0  0  0  0  0  0  0  0
  152.6340  143.1446  161.3733 C   0  0  0  0  0  0  0  0  0  0  0  0
  151.8123  143.8868  160.6058 C   0  0  0  0  0  0  0  0  0  0  0  0
  151.5240  143.6048  159.1414 C   0  0  0  0  0  0  0  0  0  0  0  0
  151.9964  142.2066  158.7079 C   0  0  0  0  0  0  0  0  0  0  0  0
  153.3818  141.8852  159.2822 C   0  0  0  0  0  0  0  0  0  0  0  0
  153.3758  141.9328  160.8207 C   0  0  0  0  0  0  0  0  0  0  0  0
  155.5920  144.5696  166.3102 N   0  0  0  0  0  0  0  0  0  0  0  0
  156.5379  145.3341  167.0433 C   0  0  0  0  0  0  0  0  0  0  0  0
  157.7160  145.7397  166.5436 N   0  0  0  0  0  0  0  0  0  0  0  0
  158.4507  146.4672  167.4711 N   0  0  0  0  0  0  0  0  0  0  0  0
  157.7986  146.5818  168.6317 C   0  0  0  0  0  0  0  0  0  0  0  0
  156.2228  145.8124  168.7052 S   0  0  0  0  0  0  0  0  0  0  0  0
  153.8944  143.2525  165.4006 H   0  0  0  0  0  0  0  0  0  0  0  0
  155.0389  143.3765  162.6667 H   0  0  0  0  0  0  0  0  0  0  0  0
  154.3261  141.9191  163.3201 H   0  0  0  0  0  0  0  0  0  0  0  0
  152.0955  142.9960  163.4391 H   0  0  0  0  0  0  0  0  0  0  0  0
  152.7614  144.5429  162.9823 H   0  0  0  0  0  0  0  0  0  0  0  0
  151.3174  144.7498  161.0272 H   0  0  0  0  0  0  0  0  0  0  0  0
  150.4541  143.7076  158.9593 H   0  0  0  0  0  0  0  0  0  0  0  0
  152.0221  144.3715  158.5472 H   0  0  0  0  0  0  0  0  0  0  0  0
  151.2835  141.4576  159.0549 H   0  0  0  0  0  0  0  0  0  0  0  0
  152.0105  142.1390  157.6199 H   0  0  0  0  0  0  0  0  0  0  0  0
  153.7154  140.9044  158.9420 H   0  0  0  0  0  0  0  0  0  0  0  0
  154.1041  142.6069  158.8985 H   0  0  0  0  0  0  0  0  0  0  0  0
  154.4027  141.9342  161.1878 H   0  0  0  0  0  0  0  0  0  0  0  0
  152.9011  141.0334  161.2142 H   0  0  0  0  0  0  0  0  0  0  0  0
  154.8290  144.1915  166.8520 H   0  0  0  0  0  0  0  0  0  0  0  0
  158.2490  147.1234  169.4503 H   0  0  0  0  0  0  0  0  0  0  0  0
  1  2  2  0  0  0  0
  2  3  1  0  0  0  0
  2 12  1  0  0  0  0
  3  4  1  0  0  0  0
  3 18  1  0  0  0  0
  4  5  1  0  0  0  0
  4 19  1  0  0  0  0
  4 20  1  0  0  0  0
  5  6  1  0  0  0  0
  5 21  1  0  0  0  0
  5 22  1  0  0  0  0
  6 11  1  0  0  0  0
  6  7  2  0  0  0  0
  7  8  1  0  0  0  0
  7 23  1  0  0  0  0
  8  9  1  0  0  0  0
  8 24  1  0  0  0  0
  8 25  1  0  0  0  0
  9 10  1  0  0  0  0
  9 26  1  0  0  0  0
  9 27  1  0  0  0  0
 10 11  1  0  0  0  0
 10 28  1  0  0  0  0
 10 29  1  0  0  0  0
 11 30  1  0  0  0  0
 11 31  1  0  0  0  0
 12 13  1  0  0  0  0
 12 32  1  0  0  0  0
 13 17  1  0  0  0  0
 13 14  2  0  0  0  0
 14 15  1  0  0  0  0
 15 16  2  0  0  0  0
 16 17  1  0  0  0  0
 16 33  1  0  0  0  0
M  END
> <s_m_source_file>
AV-unprocessed.smi

> <i_m_source_file_index>
1996

> <i_lp_mmshare_version>
43012

> <i_f3d_flags>
0

> <s_epik_input>
czFbY0hdbm5jMVtOSF1DKD1PKVtOSF1bQ0gyXVtDSDJdQzI9W0NIXVtDSDJdW0NIMl1bQ0gyXVtDSDJdMg==

> <s_epik_cmdline>
J2VwaWtfcHl0aG9uJywgJy1waCcsICc3LjAnLCAnLXRuJywgJzgnLCAnLW1hJywgJzIwMCcsICctbWV0YWxfYmluZGluZycsICctaW1hZScsICc8aW5maWxlLm1hZT4nLCAnLW9tYWUnLCAnPG91dGZpbGUubWFlPic=

> <r_lp_tautomer_probability>
1

> <r_epik_Ionization_Penalty>
0.00157076

> <r_epik_Ionization_Penalty_Charging>
0

> <r_epik_Ionization_Penalty_Neutral>
0.00157076

> <r_epik_State_Penalty>
-0

> <r_epik_Charging_Adjusted_Penalty>
0

> <i_epik_Tot_Q>
0

> <i_epik_Tot_abs_Q>
0

> <r_epik_Metal_State_Penalty>
0.323125

> <b_epik_Metal_Only>
0

> <s_lp_Force_Field>
OPLS_2005

> <r_lp_Energy>
6.02977

> <b_lp_Chiralities_Consistent>
1

> <s_lp_Variant>
AV-unprocessed.smi:1996-1

> <Gold.Version>
5.8.1

> <Gold.Id.Protein>
6NUR|6NUR_protein|mol2

> <Gold.PLP.Fitness>
38.7237

> <Gold.PLP.PLP>
-39.5419

> <Gold.PLP.part.hbond>
-2.9430

> <Gold.PLP.part.metal>
0.0000

> <Gold.PLP.part.buried>
-1.2061

> <Gold.PLP.part.nonpolar>
-34.2264

> <Gold.PLP.part.repulsive>
0.5344

> <Gold.PLP.ligand.clash>
0.0000

> <Gold.PLP.ligand.torsion>
0.4161

> <Gold.PLP.Chemscore.Hbond>
0.0000

> <Gold.PLP.Chemscore.CHOScore>
0.0000

> <Gold.PLP.Chemscore.Metal>
0.0000

> <Gold.PLP.Chemscore.Internal.Correction>
0.0140

> <Gold.Rescore>
     Score         DG    S(hbond)    S(metal)    S(lipo)     H(rot)  DE(clash)    DE(int)     intcor
      9.66     -13.64       0.00        0.00     105.15       1.62       2.64       1.35       ----

> <Gold.Chemscore.Fitness>
9.6615

> <Gold.Chemscore.DG>
-13.6439

> <Gold.Chemscore.ZeroCoef>
-5.4800

> <Gold.Chemscore.Hbond>
0.0000

> <Gold.Chemscore.Metal>
0.0000

> <Gold.Chemscore.Lipo>
105.1498

> <Gold.Chemscore.Internal_Hbond>
0.0000

> <Gold.Chemscore.DEClash>
2.6372

> <Gold.Chemscore.DEInternal>
1.3452

> <Gold.Chemscore.Rot>
1.6167

> <Gold.Chemscore.Internal.Correction>
   9.000000E+99

> <Gold.Chemscore.Hbond.Weighted>
-0.0000

> <Gold.Chemscore.Metal.Weighted>
-0.0000

> <Gold.Chemscore.Lipo.Weighted>
-12.3025

> <Gold.Chemscore.Internal_Hbond.Weighted>
0.0000

> <Gold.Chemscore.DEClash.Weighted>
2.6372

> <Gold.Chemscore.DEInternal.Weighted>
1.3452

> <Gold.Chemscore.Rot.Weighted>
4.1387

> <Gold.Chemscore.Internal.Correction.Weighted>
   9.000000E+99

> <Gold.Protein.RotatedTorsions>
[ 6907 6896 6895 6894 ] final   -5.69 input  -60.11 | X-H torsion
[ 7974 7965 7964 7962 ] final  179.52 input  175.53 | X-H torsion
[ 8008 7997 7996 7995 ] final -140.40 input   59.86 | X-H torsion
[ 10167 10162 10161 10158 ] final -118.07 input  -65.29 | X-H torsion
[ 10718 10713 10712 10709 ] final -104.46 input   66.30 | X-H torsion
[ 10763 10752 10751 10750 ] final  -69.43 input  -60.55 | X-H torsion
[ 11005 11000 10999 10996 ] final  -83.79 input  -57.11 | X-H torsion

> <Gold.Protein.ActiveResidues>
 VAL166  LYS551  ARG553  GLY616  TRP617  ASP618  TYR619  PRO620  LYS621  CYS622 
 ASP623  PHE694  ASN695  SER759  ASP760  ASP761  ALA762  ILE779  LEU786  VAL792 
 PHE793  MET794  SER795  GLU796  ALA797  LYS798  CYS799  TRP800  GLU811  SER814 

> <Gold.Protein.RotatedAtoms>
  151.4775  135.1050  159.9768 H   0  0  0  0  0  0  0  0  0  0  0  0  # atno 6907 bound_to 6896
  152.4792  133.8209  159.7063 H   0  0  0  0  0  0  0  0  0  0  0  0  # atno 6908 bound_to 6896
  150.8852  133.7256  159.2947 H   0  0  0  0  0  0  0  0  0  0  0  0  # atno 6909 bound_to 6896
  144.7145  140.0561  143.6434 H   0  0  0  0  0  0  0  0  0  0  0  0  # atno 7974 bound_to 7965
  155.4608  140.0545  157.2991 H   0  0  0  0  0  0  0  0  0  0  0  0  # atno 8008 bound_to 7997
  154.4738  140.2052  155.9883 H   0  0  0  0  0  0  0  0  0  0  0  0  # atno 8009 bound_to 7997
  156.1099  140.3206  155.8063 H   0  0  0  0  0  0  0  0  0  0  0  0  # atno 8010 bound_to 7997
  140.0614  143.4964  152.2029 H   0  0  0  0  0  0  0  0  0  0  0  0  # atno 10167 bound_to 10162
  156.0305  130.5516  150.7399 H   0  0  0  0  0  0  0  0  0  0  0  0  # atno 10718 bound_to 10713
  154.4033  135.6026  153.5910 H   0  0  0  0  0  0  0  0  0  0  0  0  # atno 10763 bound_to 10752
  152.9788  135.5911  154.4158 H   0  0  0  0  0  0  0  0  0  0  0  0  # atno 10764 bound_to 10752
  154.3960  135.2842  155.2104 H   0  0  0  0  0  0  0  0  0  0  0  0  # atno 10765 bound_to 10752
  141.1655  133.7312  156.8773 H   0  0  0  0  0  0  0  0  0  0  0  0  # atno 11005 bound_to 11000
  145.9903  139.3010  143.0989 LP  0  0  0  0  0  0  0  0  0  0  0  0  # atno 17320 bound_to 7965
  145.8910  140.9303  143.0552 LP  0  0  0  0  0  0  0  0  0  0  0  0  # atno 17321 bound_to 7965
  139.5891  144.7543  151.3445 LP  0  0  0  0  0  0  0  0  0  0  0  0  # atno 17342 bound_to 10162
  140.7170  143.7240  150.7674 LP  0  0  0  0  0  0  0  0  0  0  0  0  # atno 17343 bound_to 10162
  157.4971  131.0915  151.0359 LP  0  0  0  0  0  0  0  0  0  0  0  0  # atno 17370 bound_to 10713
  157.0750  130.5879  149.5409 LP  0  0  0  0  0  0  0  0  0  0  0  0  # atno 17371 bound_to 10713
  140.1740  134.9080  157.2868 LP  0  0  0  0  0  0  0  0  0  0  0  0  # atno 17394 bound_to 11000
  140.2470  134.3728  155.7457 LP  0  0  0  0  0  0  0  0  0  0  0  0  # atno 17395 bound_to 11000

$$$$
