AV-unprocessed.smi:3234|AV-procd|sdf|12354|dock2
  -GOLD-   2272018213D 1   1.00000     0.00000
 Structure written by MMmdl.
 38 40  0  0  0  0  0  0  0  0  3 V2000
  145.3270  138.5095  152.8500 O   0  0  0  0  0  0  0  0  0  0  0  0
  146.3776  137.9630  152.5153 C   0  0  0  0  0  0  0  0  0  0  0  0
  147.6125  138.4215  152.7852 N   0  0  0  0  0  0  0  0  0  0  0  0
  147.9840  139.6111  153.4704 C   0  0  0  0  0  0  0  0  0  0  0  0
  147.0957  140.7078  153.4060 C   0  0  0  0  0  0  0  0  0  0  0  0
  147.4150  141.9028  154.0825 C   0  0  0  0  0  0  0  0  0  0  0  0
  148.5591  141.9873  154.7944 N   0  3  0  0  0  0  0  0  0  0  0  0
  149.4320  140.9622  154.8977 C   0  0  0  0  0  0  0  0  0  0  0  0
  149.1669  139.7424  154.2422 C   0  0  0  0  0  0  0  0  0  0  0  0
  146.4214  136.8042  151.8420 N   0  0  0  0  0  0  0  0  0  0  0  0
  145.2469  136.0493  151.4160 C   0  0  2  0  0  0  0  0  0  0  0  0
  144.3118  135.6364  152.5562 C   0  0  0  0  0  0  0  0  0  0  0  0
  143.6669  134.3260  152.0721 C   0  0  0  0  0  0  0  0  0  0  0  0
  144.3728  133.9329  150.8300 N   0  3  2  0  0  0  0  0  0  0  0  0
  144.5588  132.4752  150.6694 C   0  0  0  0  0  0  0  0  0  0  0  0
  145.9049  131.9823  151.1442 C   0  0  0  0  0  0  0  0  0  0  0  0
  145.6230  132.1089  149.6627 C   0  0  0  0  0  0  0  0  0  0  0  0
  145.6253  134.7086  150.7938 C   0  0  0  0  0  0  0  0  0  0  0  0
  148.3776  137.8183  152.5201 H   0  0  0  0  0  0  0  0  0  0  0  0
  146.1785  140.6406  152.8388 H   0  0  0  0  0  0  0  0  0  0  0  0
  146.7932  142.7861  154.0770 H   0  0  0  0  0  0  0  0  0  0  0  0
  150.3083  141.1445  155.5023 H   0  0  0  0  0  0  0  0  0  0  0  0
  149.8690  138.9305  154.3550 H   0  0  0  0  0  0  0  0  0  0  0  0
  147.3251  136.4187  151.6088 H   0  0  0  0  0  0  0  0  0  0  0  0
  144.6847  136.6275  150.6795 H   0  0  0  0  0  0  0  0  0  0  0  0
  144.8813  135.4464  153.4673 H   0  0  0  0  0  0  0  0  0  0  0  0
  143.5731  136.4061  152.7823 H   0  0  0  0  0  0  0  0  0  0  0  0
  143.7581  133.5568  152.8405 H   0  0  0  0  0  0  0  0  0  0  0  0
  142.6057  134.4556  151.8582 H   0  0  0  0  0  0  0  0  0  0  0  0
  143.6708  131.8559  150.7844 H   0  0  0  0  0  0  0  0  0  0  0  0
  146.5907  132.7016  151.5883 H   0  0  0  0  0  0  0  0  0  0  0  0
  145.9545  130.9768  151.5575 H   0  0  0  0  0  0  0  0  0  0  0  0
  145.4876  131.1867  149.1013 H   0  0  0  0  0  0  0  0  0  0  0  0
  146.1213  132.9125  149.1231 H   0  0  0  0  0  0  0  0  0  0  0  0
  146.0046  134.8098  149.7764 H   0  0  0  0  0  0  0  0  0  0  0  0
  146.3864  134.2072  151.3952 H   0  0  0  0  0  0  0  0  0  0  0  0
  143.8075  134.2614  150.0600 H   0  0  0  0  0  0  0  0  0  0  0  0
  148.7709  142.8605  155.2784 H   0  0  0  0  0  0  0  0  0  0  0  0
  1  2  2  0  0  0  0
  2  3  1  0  0  0  0
  2 10  1  0  0  0  0
  3  4  1  0  0  0  0
  3 19  1  0  0  0  0
  4  9  1  0  0  0  0
  4  5  2  0  0  0  0
  5  6  1  0  0  0  0
  5 20  1  0  0  0  0
  6  7  2  0  0  0  0
  6 21  1  0  0  0  0
  7  8  1  0  0  0  0
  7 38  1  0  0  0  0
  8  9  2  0  0  0  0
  8 22  1  0  0  0  0
  9 23  1  0  0  0  0
 10 11  1  0  0  0  0
 10 24  1  0  0  0  0
 11 18  1  0  0  0  0
 11 12  1  0  0  0  0
 11 25  1  0  0  0  0
 12 13  1  0  0  0  0
 12 26  1  0  0  0  0
 12 27  1  0  0  0  0
 13 14  1  0  0  0  0
 13 28  1  0  0  0  0
 13 29  1  0  0  0  0
 14 15  1  0  0  0  0
 14 18  1  0  0  0  0
 14 37  1  0  0  0  0
 15 17  1  0  0  0  0
 15 16  1  0  0  0  0
 15 30  1  0  0  0  0
 16 17  1  0  0  0  0
 16 31  1  0  0  0  0
 16 32  1  0  0  0  0
 17 33  1  0  0  0  0
 17 34  1  0  0  0  0
 18 35  1  0  0  0  0
 18 36  1  0  0  0  0
M  CHG  1   7   1
M  CHG  1  14   1
M  END
> <s_m_source_file>
AV-unprocessed.smi

> <i_m_source_file_index>
3234

> <i_lp_mmshare_version>
43012

> <i_f3d_flags>
0

> <s_epik_input>
W2NIXTFbY0hdbltjSF1bY0hdYzFbTkhdQyg9TylbTkhdW0NAQEhdMltDSDJdW0NIMl1OKFtDSDJdMilbQ0hdM1tDSDJdW0NIMl0z

> <s_epik_cmdline>
J2VwaWtfcHl0aG9uJywgJy1waCcsICc3LjAnLCAnLXRuJywgJzgnLCAnLW1hJywgJzIwMCcsICctbWV0YWxfYmluZGluZycsICctaW1hZScsICc8aW5maWxlLm1hZT4nLCAnLW9tYWUnLCAnPG91dGZpbGUubWFlPic=

> <r_epik_Ionization_Penalty>
1.14489

> <r_epik_Ionization_Penalty_Charging>
1.14487

> <r_epik_Ionization_Penalty_Neutral>
1.95212e-05

> <r_epik_State_Penalty>
1.205

> <r_epik_Charging_Adjusted_Penalty>
2.34987

> <i_epik_Tot_Q>
2

> <i_epik_Tot_abs_Q>
2

> <r_epik_Metal_State_Penalty>
1.28709

> <b_epik_Metal_Only>
0

> <s_lp_Force_Field>
OPLS_2005

> <r_lp_Energy>
48.7284

> <b_lp_Chiralities_Consistent>
1

> <s_lp_Variant>
AV-unprocessed.smi:3234-7

> <Gold.Version>
5.8.1

> <Gold.Id.Protein>
6NUR|6NUR_protein|mol2

> <Gold.PLP.Fitness>
45.3880

> <Gold.PLP.PLP>
-33.7983

> <Gold.PLP.part.hbond>
-4.0000

> <Gold.PLP.part.metal>
0.0000

> <Gold.PLP.part.buried>
-2.8826

> <Gold.PLP.part.nonpolar>
-31.2580

> <Gold.PLP.part.repulsive>
4.0270

> <Gold.PLP.ligand.clash>
0.0000

> <Gold.PLP.ligand.torsion>
0.8367

> <Gold.PLP.Chemscore.Hbond>
4.0000

> <Gold.PLP.Chemscore.CHOScore>
0.0000

> <Gold.PLP.Chemscore.Metal>
0.0000

> <Gold.Chemscore.Hbonds>
donor molecule, donor type, donor heavy atom, donor atom, acceptor molecule, acceptor atom, score
      L1  H     3    19       P1  7948  1.00
      L1  H     7    38       P1  8028  2.00
      L1  H    10    24       P1  7948  1.00

> <Gold.PLP.Chemscore.Internal.Correction>
1.2632

> <Gold.Rescore>
     Score         DG    S(hbond)    S(metal)    S(lipo)     H(rot)  DE(clash)    DE(int)     intcor
     18.01     -22.03       2.94        0.00      84.29       1.22       1.90       2.12       ----

> <Gold.Chemscore.Fitness>
18.0133

> <Gold.Chemscore.DG>
-22.0267

> <Gold.Chemscore.ZeroCoef>
-5.4800

> <Gold.Chemscore.Hbond>
2.9404

> <Gold.Chemscore.Metal>
0.0000

> <Gold.Chemscore.Lipo>
84.2852

> <Gold.Chemscore.Internal_Hbond>
0.0000

> <Gold.Chemscore.DEClash>
1.8972

> <Gold.Chemscore.DEInternal>
2.1163

> <Gold.Chemscore.Rot>
1.2248

> <Gold.Chemscore.Internal.Correction>
   9.000000E+99

> <Gold.Chemscore.Hbonds>
donor molecule, donor type, donor heavy atom, donor atom, acceptor molecule, acceptor atom, score
      L1  H     3    19       P1  7948  0.94
      L1  H     7    38       P1  8028  0.99
      L1  H    10    24       P1  7948  0.97

> <Gold.Chemscore.Hbond.Weighted>
-9.8208

> <Gold.Chemscore.Metal.Weighted>
-0.0000

> <Gold.Chemscore.Lipo.Weighted>
-9.8614

> <Gold.Chemscore.Internal_Hbond.Weighted>
0.0000

> <Gold.Chemscore.DEClash.Weighted>
1.8972

> <Gold.Chemscore.DEInternal.Weighted>
2.1163

> <Gold.Chemscore.Rot.Weighted>
3.1355

> <Gold.Chemscore.Internal.Correction.Weighted>
   9.000000E+99

> <Gold.Protein.RotatedTorsions>
[ 6907 6896 6895 6894 ] final  -79.96 input  -60.11 | X-H torsion
[ 7974 7965 7964 7962 ] final  120.88 input  175.53 | X-H torsion
[ 8008 7997 7996 7995 ] final -138.94 input   59.86 | X-H torsion
[ 10167 10162 10161 10158 ] final -100.86 input  -65.29 | X-H torsion
[ 10718 10713 10712 10709 ] final   94.46 input   66.30 | X-H torsion
[ 10763 10752 10751 10750 ] final  -23.30 input  -60.55 | X-H torsion
[ 11005 11000 10999 10996 ] final  149.14 input  -57.11 | X-H torsion

> <Gold.Protein.ActiveResidues>
 VAL166  LYS551  ARG553  GLY616  TRP617  ASP618  TYR619  PRO620  LYS621  CYS622 
 ASP623  PHE694  ASN695  SER759  ASP760  ASP761  ALA762  ILE779  LEU786  VAL792 
 PHE793  MET794  SER795  GLU796  ALA797  LYS798  CYS799  TRP800  GLU811  SER814 

> <Gold.Protein.RotatedAtoms>
  150.6939  134.4042  159.5132 H   0  0  0  0  0  0  0  0  0  0  0  0  # atno 6907 bound_to 6896
  152.1811  134.8751  160.0535 H   0  0  0  0  0  0  0  0  0  0  0  0  # atno 6908 bound_to 6896
  151.9741  133.3701  159.4119 H   0  0  0  0  0  0  0  0  0  0  0  0  # atno 6909 bound_to 6896
  145.1259  139.3358  143.4690 H   0  0  0  0  0  0  0  0  0  0  0  0  # atno 7974 bound_to 7965
  155.4366  140.0529  157.3014 H   0  0  0  0  0  0  0  0  0  0  0  0  # atno 8008 bound_to 7997
  154.4836  140.2092  155.9663 H   0  0  0  0  0  0  0  0  0  0  0  0  # atno 8009 bound_to 7997
  156.1243  140.3183  155.8258 H   0  0  0  0  0  0  0  0  0  0  0  0  # atno 8010 bound_to 7997
  140.2474  143.3496  152.0746 H   0  0  0  0  0  0  0  0  0  0  0  0  # atno 10167 bound_to 10162
  157.6947  131.0513  150.4189 H   0  0  0  0  0  0  0  0  0  0  0  0  # atno 10718 bound_to 10713
  153.6656  135.6974  153.5163 H   0  0  0  0  0  0  0  0  0  0  0  0  # atno 10763 bound_to 10752
  153.2597  135.4248  155.0881 H   0  0  0  0  0  0  0  0  0  0  0  0  # atno 10764 bound_to 10752
  154.8440  135.3552  154.6201 H   0  0  0  0  0  0  0  0  0  0  0  0  # atno 10765 bound_to 10752
  140.1019  134.8978  157.1809 H   0  0  0  0  0  0  0  0  0  0  0  0  # atno 11005 bound_to 11000
  146.3517  140.1238  142.8599 LP  0  0  0  0  0  0  0  0  0  0  0  0  # atno 17320 bound_to 7965
  145.0688  140.9141  143.4894 LP  0  0  0  0  0  0  0  0  0  0  0  0  # atno 17321 bound_to 7965
  139.5057  144.6800  151.6032 LP  0  0  0  0  0  0  0  0  0  0  0  0  # atno 17342 bound_to 10162
  140.6067  143.9512  150.6423 LP  0  0  0  0  0  0  0  0  0  0  0  0  # atno 17343 bound_to 10162
  156.4566  130.4023  149.6602 LP  0  0  0  0  0  0  0  0  0  0  0  0  # atno 17370 bound_to 10713
  156.3732  130.7541  151.2527 LP  0  0  0  0  0  0  0  0  0  0  0  0  # atno 17371 bound_to 10713
  140.3208  134.2919  155.7247 LP  0  0  0  0  0  0  0  0  0  0  0  0  # atno 17394 bound_to 11000
  141.2108  133.7708  156.9908 LP  0  0  0  0  0  0  0  0  0  0  0  0  # atno 17395 bound_to 11000

$$$$
