AV-unprocessed.smi:2829|AV-procd|sdf|10905|dock6
  -GOLD-   2272015353D 1   1.00000     0.00000
 Structure written by MMmdl.
 50 53  0  0  0  0  0  0  0  0  1 V2000
  149.1625  128.3135  153.2167 C   0  0  0  0  0  0  0  0  0  0  0  0
  149.8106  128.9181  154.4795 C   0  0  0  0  0  0  0  0  0  0  0  0
  149.1070  128.3755  155.7407 C   0  0  0  0  0  0  0  0  0  0  0  0
  151.2785  128.4367  154.5240 C   0  0  0  0  0  0  0  0  0  0  0  0
  149.6956  130.4527  154.4393 C   0  0  0  0  0  0  0  0  0  0  0  0
  150.3277  131.3007  155.3766 C   0  0  0  0  0  0  0  0  0  0  0  0
  150.1433  132.6861  155.2340 C   0  0  0  0  0  0  0  0  0  0  0  0
  149.3448  133.1518  154.1704 C   0  0  0  0  0  0  0  0  0  0  0  0
  149.2052  134.5615  154.0877 N   0  0  0  0  0  0  0  0  0  0  0  0
  149.3298  135.4722  155.0737 C   0  0  0  0  0  0  0  0  0  0  0  0
  149.6217  135.2104  156.2388 O   0  0  0  0  0  0  0  0  0  0  0  0
  149.0973  136.7366  154.6798 N   0  0  0  0  0  0  0  0  0  0  0  0
  149.1516  137.9492  155.5074 C   0  0  1  0  0  0  0  0  0  0  0  0
  150.5721  138.4543  155.7930 C   0  0  1  0  0  0  0  0  0  0  0  0
  151.9245  137.8416  155.8415 C   0  0  0  0  0  0  0  0  0  0  0  0
  152.6886  139.0188  155.1832 C   0  0  0  0  0  0  0  0  0  0  0  0
  151.6700  139.9308  154.6995 O   0  0  0  0  0  0  0  0  0  0  0  0
  150.5543  139.1049  154.4194 C   0  0  2  0  0  0  0  0  0  0  0  0
  149.0471  139.2743  154.6850 C   0  0  0  0  0  0  0  0  0  0  0  0
  148.0538  139.4463  153.5289 C   0  0  0  0  0  0  0  0  0  0  0  0
  147.9609  140.9317  153.8938 C   0  0  0  0  0  0  0  0  0  0  0  0
  148.4970  140.5785  155.2848 C   0  0  0  0  0  0  0  0  0  0  0  0
  148.7686  132.2804  153.3053 N   0  0  0  0  0  0  0  0  0  0  0  0
  148.9391  130.9614  153.4362 N   0  0  0  0  0  0  0  0  0  0  0  0
  149.2481  127.2265  153.2073 H   0  0  0  0  0  0  0  0  0  0  0  0
  149.6384  128.6888  152.3100 H   0  0  0  0  0  0  0  0  0  0  0  0
  148.1001  128.5517  153.1525 H   0  0  0  0  0  0  0  0  0  0  0  0
  148.0443  128.6198  155.7486 H   0  0  0  0  0  0  0  0  0  0  0  0
  149.5463  128.7908  156.6483 H   0  0  0  0  0  0  0  0  0  0  0  0
  149.1867  127.2896  155.8043 H   0  0  0  0  0  0  0  0  0  0  0  0
  151.3364  127.3479  154.5529 H   0  0  0  0  0  0  0  0  0  0  0  0
  151.7976  128.8063  155.4093 H   0  0  0  0  0  0  0  0  0  0  0  0
  151.8364  128.7614  153.6449 H   0  0  0  0  0  0  0  0  0  0  0  0
  150.9366  130.9281  156.1855 H   0  0  0  0  0  0  0  0  0  0  0  0
  150.6066  133.3727  155.9276 H   0  0  0  0  0  0  0  0  0  0  0  0
  148.9636  134.9222  153.1767 H   0  0  0  0  0  0  0  0  0  0  0  0
  148.8469  136.8720  153.7109 H   0  0  0  0  0  0  0  0  0  0  0  0
  148.4974  137.9305  156.3803 H   0  0  0  0  0  0  0  0  0  0  0  0
  150.4947  139.1976  156.5951 H   0  0  0  0  0  0  0  0  0  0  0  0
  152.2614  137.6330  156.8570 H   0  0  0  0  0  0  0  0  0  0  0  0
  151.9889  136.9307  155.2451 H   0  0  0  0  0  0  0  0  0  0  0  0
  153.3343  139.5349  155.8941 H   0  0  0  0  0  0  0  0  0  0  0  0
  153.3068  138.6664  154.3566 H   0  0  0  0  0  0  0  0  0  0  0  0
  150.7637  138.4158  153.5957 H   0  0  0  0  0  0  0  0  0  0  0  0
  148.4640  139.2452  152.5388 H   0  0  0  0  0  0  0  0  0  0  0  0
  147.1171  138.9121  153.6951 H   0  0  0  0  0  0  0  0  0  0  0  0
  148.6538  141.5499  153.3209 H   0  0  0  0  0  0  0  0  0  0  0  0
  146.9504  141.3412  153.8849 H   0  0  0  0  0  0  0  0  0  0  0  0
  147.7019  140.4060  156.0115 H   0  0  0  0  0  0  0  0  0  0  0  0
  149.2531  141.2647  155.6675 H   0  0  0  0  0  0  0  0  0  0  0  0
  1  2  1  0  0  0  0
  1 25  1  0  0  0  0
  1 26  1  0  0  0  0
  1 27  1  0  0  0  0
  2  3  1  0  0  0  0
  2  4  1  0  0  0  0
  2  5  1  0  0  0  0
  3 28  1  0  0  0  0
  3 29  1  0  0  0  0
  3 30  1  0  0  0  0
  4 31  1  0  0  0  0
  4 32  1  0  0  0  0
  4 33  1  0  0  0  0
  5 24  1  0  0  0  0
  5  6  2  0  0  0  0
  6  7  1  0  0  0  0
  6 34  1  0  0  0  0
  7  8  2  0  0  0  0
  7 35  1  0  0  0  0
  8  9  1  0  0  0  0
  8 23  1  0  0  0  0
  9 10  1  0  0  0  0
  9 36  1  0  0  0  0
 10 11  2  0  0  0  0
 10 12  1  0  0  0  0
 12 13  1  0  0  0  0
 12 37  1  0  0  0  0
 13 19  1  0  0  0  0
 13 14  1  0  0  0  0
 13 38  1  0  0  0  0
 14 18  1  0  0  0  0
 14 15  1  0  0  0  0
 14 39  1  0  0  0  0
 15 16  1  0  0  0  0
 15 40  1  0  0  0  0
 15 41  1  0  0  0  0
 16 17  1  0  0  0  0
 16 42  1  0  0  0  0
 16 43  1  0  0  0  0
 17 18  1  0  0  0  0
 18 19  1  0  0  0  0
 18 44  1  0  0  0  0
 19 22  1  0  0  0  0
 19 20  1  0  0  0  0
 20 21  1  0  0  0  0
 20 45  1  0  0  0  0
 20 46  1  0  0  0  0
 21 22  1  0  0  0  0
 21 47  1  0  0  0  0
 21 48  1  0  0  0  0
 22 49  1  0  0  0  0
 22 50  1  0  0  0  0
 23 24  2  0  0  0  0
M  END
> <s_m_source_file>
AV-unprocessed.smi

> <i_m_source_file_index>
2829

> <i_lp_mmshare_version>
43012

> <i_f3d_flags>
0

> <s_epik_input>
W0NIM11DKFtDSDNdKShbQ0gzXSljMVtjSF1bY0hdYyhubjEpW05IXUMoPU8pW05IXVtDQEBIXTJbQ0BIXShbQ0gyXVtDSDJdTzMpW0NAQEhdM0MyNFtDSDJdW0NIMl1bQ0gyXTQ=

> <s_epik_cmdline>
J2VwaWtfcHl0aG9uJywgJy1waCcsICc3LjAnLCAnLXRuJywgJzgnLCAnLW1hJywgJzIwMCcsICctbWV0YWxfYmluZGluZycsICctaW1hZScsICc8aW5maWxlLm1hZT4nLCAnLW9tYWUnLCAnPG91dGZpbGUubWFlPic=

> <r_lp_tautomer_probability>
1

> <r_epik_Ionization_Penalty>
0.011915

> <r_epik_Ionization_Penalty_Charging>
0

> <r_epik_Ionization_Penalty_Neutral>
0.011915

> <r_epik_State_Penalty>
0.00486223

> <r_epik_Charging_Adjusted_Penalty>
0.00486223

> <i_epik_Tot_Q>
0

> <i_epik_Tot_abs_Q>
0

> <r_epik_Metal_State_Penalty>
-0

> <b_epik_Metal_Only>
0

> <s_lp_Force_Field>
OPLS_2005

> <r_lp_Energy>
85.0365

> <b_lp_Chiralities_Consistent>
1

> <s_lp_Variant>
AV-unprocessed.smi:2829-8

> <Gold.Version>
5.8.1

> <Gold.Id.Protein>
6NUR|6NUR_protein|mol2

> <Gold.PLP.Fitness>
41.9674

> <Gold.PLP.PLP>
-33.6908

> <Gold.PLP.part.hbond>
-2.8216

> <Gold.PLP.part.metal>
0.0000

> <Gold.PLP.part.buried>
-1.1126

> <Gold.PLP.part.nonpolar>
-30.2025

> <Gold.PLP.part.repulsive>
0.3420

> <Gold.PLP.ligand.clash>
0.0000

> <Gold.PLP.ligand.torsion>
0.4356

> <Gold.PLP.Chemscore.Hbond>
2.9440

> <Gold.PLP.Chemscore.CHOScore>
0.0000

> <Gold.PLP.Chemscore.Metal>
0.0000

> <Gold.Chemscore.Hbonds>
donor molecule, donor type, donor heavy atom, donor atom, acceptor molecule, acceptor atom, score
      L1  H     9    36       P1  7948  0.90
      L1  H    12    37       P1  7948  0.94
      P1  H  7989  7998       L1    17  0.96

> <Gold.PLP.Chemscore.Internal.Correction>
0.3157

> <Gold.Rescore>
     Score         DG    S(hbond)    S(metal)    S(lipo)     H(rot)  DE(clash)    DE(int)     intcor
     16.52     -18.64       2.07        0.00      78.95       1.16       0.19       1.94       ----

> <Gold.Chemscore.Fitness>
16.5162

> <Gold.Chemscore.DG>
-18.6407

> <Gold.Chemscore.ZeroCoef>
-5.4800

> <Gold.Chemscore.Hbond>
2.0650

> <Gold.Chemscore.Metal>
0.0000

> <Gold.Chemscore.Lipo>
78.9548

> <Gold.Chemscore.Internal_Hbond>
0.0000

> <Gold.Chemscore.DEClash>
0.1863

> <Gold.Chemscore.DEInternal>
1.9383

> <Gold.Chemscore.Rot>
1.1618

> <Gold.Chemscore.Internal.Correction>
   9.000000E+99

> <Gold.Chemscore.Hbonds>
donor molecule, donor type, donor heavy atom, donor atom, acceptor molecule, acceptor atom, score
      L1  H     9    36       P1  7948  0.17
      L1  H    12    37       P1  7948  0.90
      P1  H  7989  7998       L1    17  0.27

> <Gold.Chemscore.Hbond.Weighted>
-6.8972

> <Gold.Chemscore.Metal.Weighted>
-0.0000

> <Gold.Chemscore.Lipo.Weighted>
-9.2377

> <Gold.Chemscore.Internal_Hbond.Weighted>
0.0000

> <Gold.Chemscore.DEClash.Weighted>
0.1863

> <Gold.Chemscore.DEInternal.Weighted>
1.9383

> <Gold.Chemscore.Rot.Weighted>
2.9741

> <Gold.Chemscore.Internal.Correction.Weighted>
   9.000000E+99

> <Gold.Protein.RotatedTorsions>
[ 6907 6896 6895 6894 ] final   15.52 input  -60.11 | X-H torsion
[ 7974 7965 7964 7962 ] final  -97.91 input  175.53 | X-H torsion
[ 8008 7997 7996 7995 ] final  -57.69 input   59.86 | X-H torsion
[ 10167 10162 10161 10158 ] final  -45.28 input  -65.29 | X-H torsion
[ 10718 10713 10712 10709 ] final    3.92 input   66.30 | X-H torsion
[ 10763 10752 10751 10750 ] final  164.32 input  -60.55 | X-H torsion
[ 11005 11000 10999 10996 ] final -114.53 input  -57.11 | X-H torsion

> <Gold.Protein.ActiveResidues>
 VAL166  LYS551  ARG553  GLY616  TRP617  ASP618  TYR619  PRO620  LYS621  CYS622 
 ASP623  PHE694  ASN695  SER759  ASP760  ASP761  ALA762  ILE779  LEU786  VAL792 
 PHE793  MET794  SER795  GLU796  ALA797  LYS798  CYS799  TRP800  GLU811  SER814 

> <Gold.Protein.RotatedAtoms>
  151.8193  135.0656  160.0422 H   0  0  0  0  0  0  0  0  0  0  0  0  # atno 6907 bound_to 6896
  152.2963  133.5606  159.5598 H   0  0  0  0  0  0  0  0  0  0  0  0  # atno 6908 bound_to 6896
  150.7252  134.0273  159.3763 H   0  0  0  0  0  0  0  0  0  0  0  0  # atno 6909 bound_to 6896
  145.3276  140.9435  143.2680 H   0  0  0  0  0  0  0  0  0  0  0  0  # atno 7974 bound_to 7965
  154.4278  140.1101  156.5838 H   0  0  0  0  0  0  0  0  0  0  0  0  # atno 8008 bound_to 7997
  155.6084  140.3494  155.4596 H   0  0  0  0  0  0  0  0  0  0  0  0  # atno 8009 bound_to 7997
  156.0118  140.1221  157.0435 H   0  0  0  0  0  0  0  0  0  0  0  0  # atno 8010 bound_to 7997
  140.6864  143.2887  151.3616 H   0  0  0  0  0  0  0  0  0  0  0  0  # atno 10167 bound_to 10162
  156.8850  130.5667  149.5651 H   0  0  0  0  0  0  0  0  0  0  0  0  # atno 10718 bound_to 10713
  154.3071  135.2758  155.2584 H   0  0  0  0  0  0  0  0  0  0  0  0  # atno 10763 bound_to 10752
  154.4995  135.5812  153.6523 H   0  0  0  0  0  0  0  0  0  0  0  0  # atno 10764 bound_to 10752
  152.9893  135.6154  154.3246 H   0  0  0  0  0  0  0  0  0  0  0  0  # atno 10765 bound_to 10752
  141.0546  133.9633  157.2777 H   0  0  0  0  0  0  0  0  0  0  0  0  # atno 11005 bound_to 11000
  144.8890  139.4801  143.6687 LP  0  0  0  0  0  0  0  0  0  0  0  0  # atno 17320 bound_to 7965
  146.3058  139.7576  142.9057 LP  0  0  0  0  0  0  0  0  0  0  0  0  # atno 17321 bound_to 7965
  139.6227  144.0876  152.2406 LP  0  0  0  0  0  0  0  0  0  0  0  0  # atno 17342 bound_to 10162
  140.0325  144.6070  150.7476 LP  0  0  0  0  0  0  0  0  0  0  0  0  # atno 17343 bound_to 10162
  156.0658  130.5701  150.9285 LP  0  0  0  0  0  0  0  0  0  0  0  0  # atno 17370 bound_to 10713
  157.6118  131.0936  150.8782 LP  0  0  0  0  0  0  0  0  0  0  0  0  # atno 17371 bound_to 10713
  139.9379  135.0194  156.8615 LP  0  0  0  0  0  0  0  0  0  0  0  0  # atno 17394 bound_to 11000
  140.5989  134.0190  155.7529 LP  0  0  0  0  0  0  0  0  0  0  0  0  # atno 17395 bound_to 11000

$$$$
