AV-unprocessed.smi:426|AV-procd|sdf|2541|dock4
  -GOLD-   2262022503D 1   1.00000     0.00000
 Structure written by MMmdl.
 37 38  0  0  0  0  0  0  0  0  1 V2000
  154.6175  134.9549  162.8257 C   0  0  0  0  0  0  0  0  0  0  0  0
  155.2168  136.3639  162.9715 C   0  0  0  0  0  0  0  0  0  0  0  0
  155.3548  136.7595  164.4511 C   0  0  0  0  0  0  0  0  0  0  0  0
  154.3739  137.3979  162.2120 C   0  0  0  0  0  0  0  0  0  0  0  0
  153.2955  137.0607  161.7236 O   0  0  0  0  0  0  0  0  0  0  0  0
  154.9046  138.6318  162.1194 N   0  0  0  0  0  0  0  0  0  0  0  0
  154.3650  139.7972  161.5092 C   0  0  0  0  0  0  0  0  0  0  0  0
  153.4597  139.7908  160.4224 C   0  0  0  0  0  0  0  0  0  0  0  0
  152.9825  141.0183  159.9242 C   0  0  0  0  0  0  0  0  0  0  0  0
  153.4086  142.2254  160.5267 C   0  0  0  0  0  0  0  0  0  0  0  0
  152.9350  143.4665  160.0471 N   0  0  0  0  0  0  0  0  0  0  0  0
  152.4925  144.4568  161.0276 C   0  0  0  0  0  0  0  0  0  0  0  0
  152.2880  145.8248  160.3549 C   0  0  0  0  0  0  0  0  0  0  0  0
  151.3853  145.6922  159.2623 O   0  0  0  0  0  0  0  0  0  0  0  0
  151.8883  144.8088  158.2658 C   0  0  0  0  0  0  0  0  0  0  0  0
  152.0816  143.4041  158.8629 C   0  0  0  0  0  0  0  0  0  0  0  0
  154.2742  142.2269  161.5703 N   0  0  0  0  0  0  0  0  0  0  0  0
  154.7296  141.0485  162.0443 C   0  0  0  0  0  0  0  0  0  0  0  0
  154.5118  134.6750  161.7767 H   0  0  0  0  0  0  0  0  0  0  0  0
  153.6328  134.8863  163.2901 H   0  0  0  0  0  0  0  0  0  0  0  0
  155.2565  134.2093  163.2993 H   0  0  0  0  0  0  0  0  0  0  0  0
  156.2171  136.3475  162.5354 H   0  0  0  0  0  0  0  0  0  0  0  0
  155.7729  137.7616  164.5564 H   0  0  0  0  0  0  0  0  0  0  0  0
  156.0178  136.0723  164.9774 H   0  0  0  0  0  0  0  0  0  0  0  0
  154.3913  136.7449  164.9627 H   0  0  0  0  0  0  0  0  0  0  0  0
  155.8322  138.7389  162.5041 H   0  0  0  0  0  0  0  0  0  0  0  0
  153.1114  138.8780  159.9661 H   0  0  0  0  0  0  0  0  0  0  0  0
  152.3052  141.0170  159.0835 H   0  0  0  0  0  0  0  0  0  0  0  0
  151.5595  144.1219  161.4833 H   0  0  0  0  0  0  0  0  0  0  0  0
  153.2296  144.5544  161.8255 H   0  0  0  0  0  0  0  0  0  0  0  0
  151.8773  146.5372  161.0705 H   0  0  0  0  0  0  0  0  0  0  0  0
  153.2382  146.2342  160.0080 H   0  0  0  0  0  0  0  0  0  0  0  0
  151.1813  144.7699  157.4371 H   0  0  0  0  0  0  0  0  0  0  0  0
  152.8276  145.1924  157.8643 H   0  0  0  0  0  0  0  0  0  0  0  0
  152.4974  142.7506  158.0976 H   0  0  0  0  0  0  0  0  0  0  0  0
  151.1161  142.9841  159.1479 H   0  0  0  0  0  0  0  0  0  0  0  0
  155.4114  141.1099  162.8802 H   0  0  0  0  0  0  0  0  0  0  0  0
  1  2  1  0  0  0  0
  1 19  1  0  0  0  0
  1 20  1  0  0  0  0
  1 21  1  0  0  0  0
  2  3  1  0  0  0  0
  2  4  1  0  0  0  0
  2 22  1  0  0  0  0
  3 23  1  0  0  0  0
  3 24  1  0  0  0  0
  3 25  1  0  0  0  0
  4  5  2  0  0  0  0
  4  6  1  0  0  0  0
  6  7  1  0  0  0  0
  6 26  1  0  0  0  0
  7 18  1  0  0  0  0
  7  8  2  0  0  0  0
  8  9  1  0  0  0  0
  8 27  1  0  0  0  0
  9 10  2  0  0  0  0
  9 28  1  0  0  0  0
 10 11  1  0  0  0  0
 10 17  1  0  0  0  0
 11 16  1  0  0  0  0
 11 12  1  0  0  0  0
 12 13  1  0  0  0  0
 12 29  1  0  0  0  0
 12 30  1  0  0  0  0
 13 14  1  0  0  0  0
 13 31  1  0  0  0  0
 13 32  1  0  0  0  0
 14 15  1  0  0  0  0
 15 16  1  0  0  0  0
 15 33  1  0  0  0  0
 15 34  1  0  0  0  0
 16 35  1  0  0  0  0
 16 36  1  0  0  0  0
 17 18  2  0  0  0  0
 18 37  1  0  0  0  0
M  END
> <s_m_source_file>
AV-unprocessed.smi

> <i_m_source_file_index>
426

> <i_lp_mmshare_version>
43012

> <i_f3d_flags>
0

> <s_epik_input>
W0NIM11bQ0hdKFtDSDNdKUMoPU8pW05IXWMxW2NIXVtjSF1jKG5bY0hdMSlOMltDSDJdW0NIMl1PW0NIMl1bQ0gyXTI=

> <s_epik_cmdline>
J2VwaWtfcHl0aG9uJywgJy1waCcsICc3LjAnLCAnLXRuJywgJzgnLCAnLW1hJywgJzIwMCcsICctbWV0YWxfYmluZGluZycsICctaW1hZScsICc8aW5maWxlLm1hZT4nLCAnLW9tYWUnLCAnPG91dGZpbGUubWFlPic=

> <r_lp_tautomer_probability>
1

> <r_epik_Ionization_Penalty>
0.000693659

> <r_epik_Ionization_Penalty_Charging>
0

> <r_epik_Ionization_Penalty_Neutral>
0.000693659

> <r_epik_State_Penalty>
0.000430321

> <r_epik_Charging_Adjusted_Penalty>
0.000430321

> <i_epik_Tot_Q>
0

> <i_epik_Tot_abs_Q>
0

> <r_epik_Metal_State_Penalty>
-0

> <b_epik_Metal_Only>
0

> <s_lp_Force_Field>
OPLS_2005

> <r_lp_Energy>
23.904

> <b_lp_Chiralities_Consistent>
1

> <s_lp_Variant>
AV-unprocessed.smi:426-1

> <Gold.Version>
5.8.1

> <Gold.Id.Protein>
6NUR|6NUR_protein|mol2

> <Gold.PLP.Fitness>
41.0518

> <Gold.PLP.PLP>
-41.6172

> <Gold.PLP.part.hbond>
-1.5609

> <Gold.PLP.part.metal>
0.0000

> <Gold.PLP.part.buried>
-4.8928

> <Gold.PLP.part.nonpolar>
-34.5346

> <Gold.PLP.part.repulsive>
0.1511

> <Gold.PLP.ligand.clash>
0.0000

> <Gold.PLP.ligand.torsion>
0.4588

> <Gold.PLP.Chemscore.Hbond>
0.0000

> <Gold.PLP.Chemscore.CHOScore>
0.0000

> <Gold.PLP.Chemscore.Metal>
0.0000

> <Gold.PLP.Chemscore.Internal.Correction>
0.3522

> <Gold.Rescore>
     Score         DG    S(hbond)    S(metal)    S(lipo)     H(rot)  DE(clash)    DE(int)     intcor
     13.74     -14.84       0.00        0.00     105.70       1.18       0.35       0.75       ----

> <Gold.Chemscore.Fitness>
13.7395

> <Gold.Chemscore.DG>
-14.8386

> <Gold.Chemscore.ZeroCoef>
-5.4800

> <Gold.Chemscore.Hbond>
0.0000

> <Gold.Chemscore.Metal>
0.0000

> <Gold.Chemscore.Lipo>
105.6979

> <Gold.Chemscore.Internal_Hbond>
0.0000

> <Gold.Chemscore.DEClash>
0.3462

> <Gold.Chemscore.DEInternal>
0.7530

> <Gold.Chemscore.Rot>
1.1750

> <Gold.Chemscore.Internal.Correction>
   9.000000E+99

> <Gold.Chemscore.Hbond.Weighted>
-0.0000

> <Gold.Chemscore.Metal.Weighted>
-0.0000

> <Gold.Chemscore.Lipo.Weighted>
-12.3667

> <Gold.Chemscore.Internal_Hbond.Weighted>
0.0000

> <Gold.Chemscore.DEClash.Weighted>
0.3462

> <Gold.Chemscore.DEInternal.Weighted>
0.7530

> <Gold.Chemscore.Rot.Weighted>
3.0080

> <Gold.Chemscore.Internal.Correction.Weighted>
   9.000000E+99

> <Gold.Protein.RotatedTorsions>
[ 6907 6896 6895 6894 ] final   23.74 input  -60.11 | X-H torsion
[ 7974 7965 7964 7962 ] final -112.01 input  175.53 | X-H torsion
[ 8008 7997 7996 7995 ] final  156.29 input   59.86 | X-H torsion
[ 10167 10162 10161 10158 ] final   12.85 input  -65.29 | X-H torsion
[ 10718 10713 10712 10709 ] final  -50.38 input   66.30 | X-H torsion
[ 10763 10752 10751 10750 ] final  -38.57 input  -60.55 | X-H torsion
[ 11005 11000 10999 10996 ] final  132.29 input  -57.11 | X-H torsion

> <Gold.Protein.ActiveResidues>
 VAL166  LYS551  ARG553  GLY616  TRP617  ASP618  TYR619  PRO620  LYS621  CYS622 
 ASP623  PHE694  ASN695  SER759  ASP760  ASP761  ALA762  ILE779  LEU786  VAL792 
 PHE793  MET794  SER795  GLU796  ALA797  LYS798  CYS799  TRP800  GLU811  SER814 

> <Gold.Protein.RotatedAtoms>
  151.9469  135.0187  160.0539 H   0  0  0  0  0  0  0  0  0  0  0  0  # atno 6907 bound_to 6896
  152.1987  133.4820  159.5055 H   0  0  0  0  0  0  0  0  0  0  0  0  # atno 6908 bound_to 6896
  150.6950  134.1536  159.4192 H   0  0  0  0  0  0  0  0  0  0  0  0  # atno 6909 bound_to 6896
  145.1491  140.8819  143.3657 H   0  0  0  0  0  0  0  0  0  0  0  0  # atno 7974 bound_to 7965
  156.2430  140.1916  156.6933 H   0  0  0  0  0  0  0  0  0  0  0  0  # atno 8008 bound_to 7997
  154.6236  140.0605  156.9671 H   0  0  0  0  0  0  0  0  0  0  0  0  # atno 8009 bound_to 7997
  155.1823  140.3277  155.4375 H   0  0  0  0  0  0  0  0  0  0  0  0  # atno 8010 bound_to 7997
  140.6041  143.8544  150.6995 H   0  0  0  0  0  0  0  0  0  0  0  0  # atno 10167 bound_to 10162
  156.1806  130.4150  149.9512 H   0  0  0  0  0  0  0  0  0  0  0  0  # atno 10718 bound_to 10713
  153.9151  135.6788  153.4749 H   0  0  0  0  0  0  0  0  0  0  0  0  # atno 10763 bound_to 10752
  153.1058  135.4806  154.8945 H   0  0  0  0  0  0  0  0  0  0  0  0  # atno 10764 bound_to 10752
  154.7507  135.3184  154.8519 H   0  0  0  0  0  0  0  0  0  0  0  0  # atno 10765 bound_to 10752
  139.9781  134.9557  156.9561 H   0  0  0  0  0  0  0  0  0  0  0  0  # atno 11005 bound_to 11000
  145.0450  139.3228  143.5957 LP  0  0  0  0  0  0  0  0  0  0  0  0  # atno 17320 bound_to 7965
  146.3496  139.9837  142.8693 LP  0  0  0  0  0  0  0  0  0  0  0  0  # atno 17321 bound_to 7965
  140.2097  143.3893  152.1728 LP  0  0  0  0  0  0  0  0  0  0  0  0  # atno 17342 bound_to 10162
  139.5312  144.7161  151.5049 LP  0  0  0  0  0  0  0  0  0  0  0  0  # atno 17343 bound_to 10162
  156.7284  130.9034  151.3624 LP  0  0  0  0  0  0  0  0  0  0  0  0  # atno 17370 bound_to 10713
  157.6865  130.9191  150.0401 LP  0  0  0  0  0  0  0  0  0  0  0  0  # atno 17371 bound_to 10713
  140.5152  134.0962  155.7279 LP  0  0  0  0  0  0  0  0  0  0  0  0  # atno 17394 bound_to 11000
  141.1456  133.9060  157.2222 LP  0  0  0  0  0  0  0  0  0  0  0  0  # atno 17395 bound_to 11000

$$$$
