AV-unprocessed.smi:3253|AV-procd|sdf|12451|dock5
  -GOLD-   2272018343D 1   1.00000     0.00000
 Structure written by MMmdl.
 36 37  0  0  0  0  0  0  0  0  1 V2000
  145.9004  133.2841  150.8431 C   0  0  0  0  0  0  0  0  0  0  0  0
  145.6625  134.1912  152.0614 C   0  0  2  0  0  0  0  0  0  0  0  0
  144.9917  135.5339  151.6965 C   0  0  0  0  0  0  0  0  0  0  0  0
  143.7940  135.7920  152.4732 N   0  0  0  0  0  0  0  0  0  0  0  0
  143.0683  134.8798  153.2281 C   0  0  0  0  0  0  0  0  0  0  0  0
  142.0173  135.5758  153.7813 C   0  0  0  0  0  0  0  0  0  0  0  0
  142.0731  136.9078  153.3781 N   0  0  0  0  0  0  0  0  0  0  0  0
  143.1490  136.9593  152.6035 C   0  0  0  0  0  0  0  0  0  0  0  0
  146.9354  134.4301  152.7355 N   0  0  0  0  0  0  0  0  0  0  0  0
  147.3915  133.7487  153.7983 C   0  0  0  0  0  0  0  0  0  0  0  0
  146.7659  132.8319  154.3317 O   0  0  0  0  0  0  0  0  0  0  0  0
  148.7657  134.1681  154.3429 C   0  0  1  0  0  0  0  0  0  0  0  0
  148.7084  134.4594  155.8565 C   0  0  0  0  0  0  0  0  0  0  0  0
  149.5484  133.3556  156.4769 C   0  0  0  0  0  0  0  0  0  0  0  0
  149.6630  133.2063  157.6924 O   0  0  0  0  0  0  0  0  0  0  0  0
  150.1144  132.5980  155.5336 N   0  0  0  0  0  0  0  0  0  0  0  0
  150.9797  131.4503  155.7696 C   0  0  0  0  0  0  0  0  0  0  0  0
  149.8257  133.0554  154.1855 C   0  0  0  0  0  0  0  0  0  0  0  0
  144.9625  133.0036  150.3631 H   0  0  0  0  0  0  0  0  0  0  0  0
  146.4015  132.3604  151.1343 H   0  0  0  0  0  0  0  0  0  0  0  0
  146.5218  133.7790  150.0959 H   0  0  0  0  0  0  0  0  0  0  0  0
  145.0068  133.6493  152.7459 H   0  0  0  0  0  0  0  0  0  0  0  0
  145.6816  136.3635  151.8579 H   0  0  0  0  0  0  0  0  0  0  0  0
  144.7276  135.5499  150.6382 H   0  0  0  0  0  0  0  0  0  0  0  0
  143.3530  133.8412  153.3098 H   0  0  0  0  0  0  0  0  0  0  0  0
  141.2309  135.2229  154.4319 H   0  0  0  0  0  0  0  0  0  0  0  0
  143.4780  137.8683  152.1216 H   0  0  0  0  0  0  0  0  0  0  0  0
  147.5151  135.1684  152.3634 H   0  0  0  0  0  0  0  0  0  0  0  0
  149.1002  135.0615  153.8122 H   0  0  0  0  0  0  0  0  0  0  0  0
  149.1531  135.4278  156.0880 H   0  0  0  0  0  0  0  0  0  0  0  0
  147.6980  134.4464  156.2687 H   0  0  0  0  0  0  0  0  0  0  0  0
  151.8827  131.7560  156.2993 H   0  0  0  0  0  0  0  0  0  0  0  0
  151.2789  130.9837  154.8307 H   0  0  0  0  0  0  0  0  0  0  0  0
  150.4652  130.7000  156.3710 H   0  0  0  0  0  0  0  0  0  0  0  0
  149.4858  132.2244  153.5647 H   0  0  0  0  0  0  0  0  0  0  0  0
  150.7374  133.4502  153.7352 H   0  0  0  0  0  0  0  0  0  0  0  0
  1  2  1  0  0  0  0
  1 19  1  0  0  0  0
  1 20  1  0  0  0  0
  1 21  1  0  0  0  0
  2  3  1  0  0  0  0
  2  9  1  0  0  0  0
  2 22  1  0  0  0  0
  3  4  1  0  0  0  0
  3 23  1  0  0  0  0
  3 24  1  0  0  0  0
  4  8  1  0  0  0  0
  4  5  1  0  0  0  0
  5  6  2  0  0  0  0
  5 25  1  0  0  0  0
  6  7  1  0  0  0  0
  6 26  1  0  0  0  0
  7  8  2  0  0  0  0
  8 27  1  0  0  0  0
  9 10  1  0  0  0  0
  9 28  1  0  0  0  0
 10 11  2  0  0  0  0
 10 12  1  0  0  0  0
 12 18  1  0  0  0  0
 12 13  1  0  0  0  0
 12 29  1  0  0  0  0
 13 14  1  0  0  0  0
 13 30  1  0  0  0  0
 13 31  1  0  0  0  0
 14 15  2  0  0  0  0
 14 16  1  0  0  0  0
 16 17  1  0  0  0  0
 16 18  1  0  0  0  0
 17 32  1  0  0  0  0
 17 33  1  0  0  0  0
 17 34  1  0  0  0  0
 18 35  1  0  0  0  0
 18 36  1  0  0  0  0
M  END
> <s_m_source_file>
AV-unprocessed.smi

> <i_m_source_file_index>
3253

> <i_lp_mmshare_version>
43012

> <i_f3d_flags>
0

> <s_epik_input>
W2NIXTFuW2NIXVtjSF1uMVtDSDJdW0NAQEhdKFtDSDNdKVtOSF1DKD1PKVtDQEBIXTJbQ0gyXUMoPU8pTihbQ0gzXSlbQ0gyXTI=

> <s_epik_cmdline>
J2VwaWtfcHl0aG9uJywgJy1waCcsICc3LjAnLCAnLXRuJywgJzgnLCAnLW1hJywgJzIwMCcsICctbWV0YWxfYmluZGluZycsICctaW1hZScsICc8aW5maWxlLm1hZT4nLCAnLW9tYWUnLCAnPG91dGZpbGUubWFlPic=

> <r_lp_tautomer_probability>
1

> <r_epik_Ionization_Penalty>
0.628884

> <r_epik_Ionization_Penalty_Charging>
0.628884

> <r_epik_Ionization_Penalty_Neutral>
2.35084e-08

> <r_epik_State_Penalty>
0.64556

> <r_epik_Charging_Adjusted_Penalty>
1.27444

> <i_epik_Tot_Q>
0

> <i_epik_Tot_abs_Q>
0

> <r_epik_Metal_State_Penalty>
0.308736

> <b_epik_Metal_Only>
0

> <s_lp_Force_Field>
OPLS_2005

> <r_lp_Energy>
12.6609

> <b_lp_Chiralities_Consistent>
1

> <s_lp_Variant>
AV-unprocessed.smi:3253-7

> <Gold.Version>
5.8.1

> <Gold.Id.Protein>
6NUR|6NUR_protein|mol2

> <Gold.PLP.Fitness>
41.3923

> <Gold.PLP.PLP>
-26.4663

> <Gold.PLP.part.hbond>
-2.0000

> <Gold.PLP.part.metal>
0.0000

> <Gold.PLP.part.buried>
-4.7547

> <Gold.PLP.part.nonpolar>
-20.5693

> <Gold.PLP.part.repulsive>
0.1983

> <Gold.PLP.ligand.clash>
0.0000

> <Gold.PLP.ligand.torsion>
1.2889

> <Gold.PLP.Chemscore.Hbond>
2.0000

> <Gold.PLP.Chemscore.CHOScore>
3.8242

> <Gold.PLP.Chemscore.Metal>
0.0000

> <Gold.Chemscore.Hbonds>
donor molecule, donor type, donor heavy atom, donor atom, acceptor molecule, acceptor atom, score
      L1  H     9    28       P1  7948  1.00
      P1  H  6896  6909       L1    15  0.93
      L1  C     5    25       P1 10957  0.74
      L1  C     6    26       P1 11000  0.76
      L1  C     8    27       P1 10171  1.00
      L1  C     8    27       P1 10175  0.86

> <Gold.PLP.Chemscore.Internal.Correction>
0.0312

> <Gold.Rescore>
     Score         DG    S(hbond)    S(metal)    S(lipo)     H(rot)  DE(clash)    DE(int)     intcor
     11.34     -12.41       1.98        0.00      45.84       1.97       0.03       1.04       ----

> <Gold.Chemscore.Fitness>
11.3369

> <Gold.Chemscore.DG>
-12.4081

> <Gold.Chemscore.ZeroCoef>
-5.4800

> <Gold.Chemscore.Hbond>
1.9761

> <Gold.Chemscore.Metal>
0.0000

> <Gold.Chemscore.Lipo>
45.8378

> <Gold.Chemscore.Internal_Hbond>
0.0000

> <Gold.Chemscore.DEClash>
0.0308

> <Gold.Chemscore.DEInternal>
1.0404

> <Gold.Chemscore.Rot>
1.9669

> <Gold.Chemscore.Internal.Correction>
   9.000000E+99

> <Gold.Chemscore.Hbonds>
donor molecule, donor type, donor heavy atom, donor atom, acceptor molecule, acceptor atom, score
      L1  H     9    28       P1  7948  0.99
      P1  H  6896  6909       L1    15  0.87

> <Gold.Chemscore.Hbond.Weighted>
-6.6003

> <Gold.Chemscore.Metal.Weighted>
-0.0000

> <Gold.Chemscore.Lipo.Weighted>
-5.3630

> <Gold.Chemscore.Internal_Hbond.Weighted>
0.0000

> <Gold.Chemscore.DEClash.Weighted>
0.0308

> <Gold.Chemscore.DEInternal.Weighted>
1.0404

> <Gold.Chemscore.Rot.Weighted>
5.0352

> <Gold.Chemscore.Internal.Correction.Weighted>
   9.000000E+99

> <Gold.Protein.RotatedTorsions>
[ 6907 6896 6895 6894 ] final  -20.15 input  -60.11 | X-H torsion
[ 7974 7965 7964 7962 ] final   46.48 input  175.53 | X-H torsion
[ 8008 7997 7996 7995 ] final  122.33 input   59.86 | X-H torsion
[ 10167 10162 10161 10158 ] final   17.68 input  -65.29 | X-H torsion
[ 10718 10713 10712 10709 ] final  160.15 input   66.30 | X-H torsion
[ 10763 10752 10751 10750 ] final   49.20 input  -60.55 | X-H torsion
[ 11005 11000 10999 10996 ] final -129.02 input  -57.11 | X-H torsion

> <Gold.Protein.ActiveResidues>
 VAL166  LYS551  ARG553  GLY616  TRP617  ASP618  TYR619  PRO620  LYS621  CYS622 
 ASP623  PHE694  ASN695  SER759  ASP760  ASP761  ALA762  ILE779  LEU786  VAL792 
 PHE793  MET794  SER795  GLU796  ALA797  LYS798  CYS799  TRP800  GLU811  SER814 

> <Gold.Protein.RotatedAtoms>
  151.2525  135.0627  159.9067 H   0  0  0  0  0  0  0  0  0  0  0  0  # atno 6907 bound_to 6896
  152.5378  134.0317  159.8038 H   0  0  0  0  0  0  0  0  0  0  0  0  # atno 6908 bound_to 6896
  151.0527  133.5561  159.2672 H   0  0  0  0  0  0  0  0  0  0  0  0  # atno 6909 bound_to 6896
  146.0385  139.4851  142.9793 H   0  0  0  0  0  0  0  0  0  0  0  0  # atno 7974 bound_to 7965
  156.2723  140.2788  156.1450 H   0  0  0  0  0  0  0  0  0  0  0  0  # atno 8008 bound_to 7997
  155.0913  140.0388  157.2687 H   0  0  0  0  0  0  0  0  0  0  0  0  # atno 8009 bound_to 7997
  154.6887  140.2624  155.6840 H   0  0  0  0  0  0  0  0  0  0  0  0  # atno 8010 bound_to 7997
  140.5708  143.9165  150.6711 H   0  0  0  0  0  0  0  0  0  0  0  0  # atno 10167 bound_to 10162
  157.1544  131.0572  151.2264 H   0  0  0  0  0  0  0  0  0  0  0  0  # atno 10718 bound_to 10713
  152.9788  135.5919  154.4050 H   0  0  0  0  0  0  0  0  0  0  0  0  # atno 10763 bound_to 10752
  154.3692  135.2767  155.2278 H   0  0  0  0  0  0  0  0  0  0  0  0  # atno 10764 bound_to 10752
  154.4241  135.6052  153.6082 H   0  0  0  0  0  0  0  0  0  0  0  0  # atno 10765 bound_to 10752
  140.9467  134.1120  157.4100 H   0  0  0  0  0  0  0  0  0  0  0  0  # atno 11005 bound_to 11000
  145.6923  141.0160  143.1548 LP  0  0  0  0  0  0  0  0  0  0  0  0  # atno 17320 bound_to 7965
  144.7063  139.8547  143.7429 LP  0  0  0  0  0  0  0  0  0  0  0  0  # atno 17321 bound_to 7965
  140.2639  143.3504  152.1298 LP  0  0  0  0  0  0  0  0  0  0  0  0  # atno 17342 bound_to 10162
  139.5116  144.6904  151.5775 LP  0  0  0  0  0  0  0  0  0  0  0  0  # atno 17343 bound_to 10162
  157.4191  130.7427  149.6899 LP  0  0  0  0  0  0  0  0  0  0  0  0  # atno 17370 bound_to 10713
  155.9765  130.4075  150.3777 LP  0  0  0  0  0  0  0  0  0  0  0  0  # atno 17371 bound_to 10713
  139.8835  135.0053  156.6308 LP  0  0  0  0  0  0  0  0  0  0  0  0  # atno 17394 bound_to 11000
  140.7659  133.8778  155.8454 LP  0  0  0  0  0  0  0  0  0  0  0  0  # atno 17395 bound_to 11000

$$$$
