AV-unprocessed.smi:2453|AV-procd|sdf|9694|dock3
  -GOLD-   2272013333D 1   1.00000     0.00000
 Structure written by MMmdl.
 41 42  0  0  0  0  0  0  0  0  2 V2000
  147.6080  133.0657  152.3110 C   0  0  0  0  0  0  0  0  0  0  0  0
  148.5750  132.3374  153.2282 C   0  0  0  0  0  0  0  0  0  0  0  0
  148.5769  130.9257  153.2559 C   0  0  0  0  0  0  0  0  0  0  0  0
  149.4318  130.2642  154.0643 N   0  3  0  0  0  0  0  0  0  0  0  0
  150.3126  130.8961  154.8674 C   0  0  0  0  0  0  0  0  0  0  0  0
  150.3625  132.3039  154.8857 C   0  0  0  0  0  0  0  0  0  0  0  0
  149.4749  133.0466  154.0650 C   0  0  0  0  0  0  0  0  0  0  0  0
  149.4792  134.4695  154.0080 N   0  0  0  0  0  0  0  0  0  0  0  0
  149.8494  135.3482  154.9553 C   0  0  0  0  0  0  0  0  0  0  0  0
  150.2268  135.0539  156.0892 O   0  0  0  0  0  0  0  0  0  0  0  0
  149.7414  136.6095  154.5138 N   0  0  0  0  0  0  0  0  0  0  0  0
  150.0599  137.8072  155.2894 C   0  0  1  0  0  0  0  0  0  0  0  0
  151.5444  137.7733  155.7117 C   0  0  0  0  0  0  0  0  0  0  0  0
  151.9474  139.0432  156.4745 C   0  0  0  0  0  0  0  0  0  0  0  0
  151.6537  140.2995  155.6439 C   0  0  0  0  0  0  0  0  0  0  0  0
  150.1740  140.3558  155.2362 C   0  0  0  0  0  0  0  0  0  0  0  0
  149.7394  139.0864  154.4716 C   0  0  2  0  0  0  0  0  0  0  0  0
  148.2674  139.1776  154.0098 C   0  0  0  0  0  0  0  0  0  0  0  0
  148.0552  140.2797  153.1511 O   0  0  0  0  0  0  0  0  0  0  0  0
  146.9820  132.3650  151.7577 H   0  0  0  0  0  0  0  0  0  0  0  0
  148.1522  133.6744  151.5884 H   0  0  0  0  0  0  0  0  0  0  0  0
  146.9525  133.7180  152.8890 H   0  0  0  0  0  0  0  0  0  0  0  0
  147.9250  130.3063  152.6570 H   0  0  0  0  0  0  0  0  0  0  0  0
  150.9528  130.2612  155.4623 H   0  0  0  0  0  0  0  0  0  0  0  0
  151.0910  132.7851  155.5198 H   0  0  0  0  0  0  0  0  0  0  0  0
  149.1053  134.8679  153.1593 H   0  0  0  0  0  0  0  0  0  0  0  0
  149.4190  136.7572  153.5686 H   0  0  0  0  0  0  0  0  0  0  0  0
  149.4473  137.8183  156.1931 H   0  0  0  0  0  0  0  0  0  0  0  0
  151.7389  136.9005  156.3361 H   0  0  0  0  0  0  0  0  0  0  0  0
  152.1770  137.6671  154.8292 H   0  0  0  0  0  0  0  0  0  0  0  0
  151.4031  139.0917  157.4184 H   0  0  0  0  0  0  0  0  0  0  0  0
  153.0067  139.0039  156.7293 H   0  0  0  0  0  0  0  0  0  0  0  0
  151.9167  141.1916  156.2135 H   0  0  0  0  0  0  0  0  0  0  0  0
  152.2815  140.3056  154.7519 H   0  0  0  0  0  0  0  0  0  0  0  0
  149.5614  140.4792  156.1303 H   0  0  0  0  0  0  0  0  0  0  0  0
  150.0009  141.2392  154.6210 H   0  0  0  0  0  0  0  0  0  0  0  0
  150.3434  139.0473  153.5633 H   0  0  0  0  0  0  0  0  0  0  0  0
  147.9808  138.2669  153.4831 H   0  0  0  0  0  0  0  0  0  0  0  0
  147.5952  139.2653  154.8634 H   0  0  0  0  0  0  0  0  0  0  0  0
  148.7926  140.3510  152.5643 H   0  0  0  0  0  0  0  0  0  0  0  0
  149.4146  129.2439  154.0645 H   0  0  0  0  0  0  0  0  0  0  0  0
  1  2  1  0  0  0  0
  1 20  1  0  0  0  0
  1 21  1  0  0  0  0
  1 22  1  0  0  0  0
  2  7  1  0  0  0  0
  2  3  2  0  0  0  0
  3  4  1  0  0  0  0
  3 23  1  0  0  0  0
  4  5  2  0  0  0  0
  4 41  1  0  0  0  0
  5  6  1  0  0  0  0
  5 24  1  0  0  0  0
  6  7  2  0  0  0  0
  6 25  1  0  0  0  0
  7  8  1  0  0  0  0
  8  9  1  0  0  0  0
  8 26  1  0  0  0  0
  9 10  2  0  0  0  0
  9 11  1  0  0  0  0
 11 12  1  0  0  0  0
 11 27  1  0  0  0  0
 12 17  1  0  0  0  0
 12 13  1  0  0  0  0
 12 28  1  0  0  0  0
 13 14  1  0  0  0  0
 13 29  1  0  0  0  0
 13 30  1  0  0  0  0
 14 15  1  0  0  0  0
 14 31  1  0  0  0  0
 14 32  1  0  0  0  0
 15 16  1  0  0  0  0
 15 33  1  0  0  0  0
 15 34  1  0  0  0  0
 16 17  1  0  0  0  0
 16 35  1  0  0  0  0
 16 36  1  0  0  0  0
 17 18  1  0  0  0  0
 17 37  1  0  0  0  0
 18 19  1  0  0  0  0
 18 38  1  0  0  0  0
 18 39  1  0  0  0  0
 19 40  1  0  0  0  0
M  CHG  1   4   1
M  END
> <s_m_source_file>
AV-unprocessed.smi

> <i_m_source_file_index>
2453

> <i_lp_mmshare_version>
43012

> <i_f3d_flags>
0

> <s_epik_input>
W0NIM11jMVtjSF1uW2NIXVtjSF1jMVtOSF1DKD1PKVtOSF1bQ0BASF0yW0NIMl1bQ0gyXVtDSDJdW0NIMl1bQ0BIXTJbQ0gyXVtPSF0=

> <s_epik_cmdline>
J2VwaWtfcHl0aG9uJywgJy1waCcsICc3LjAnLCAnLXRuJywgJzgnLCAnLW1hJywgJzIwMCcsICctbWV0YWxfYmluZGluZycsICctaW1hZScsICc8aW5maWxlLm1hZT4nLCAnLW9tYWUnLCAnPG91dGZpbGUubWFlPic=

> <r_epik_Ionization_Penalty>
0.71493

> <r_epik_Ionization_Penalty_Charging>
0.714909

> <r_epik_Ionization_Penalty_Neutral>
2.10174e-05

> <r_epik_State_Penalty>
0.738815

> <r_epik_Charging_Adjusted_Penalty>
1.45372

> <i_epik_Tot_Q>
1

> <i_epik_Tot_abs_Q>
1

> <r_epik_Metal_State_Penalty>
0.896004

> <b_epik_Metal_Only>
0

> <s_lp_Force_Field>
OPLS_2005

> <r_lp_Energy>
25.5942

> <b_lp_Chiralities_Consistent>
1

> <s_lp_Variant>
AV-unprocessed.smi:2453-8

> <Gold.Version>
5.8.1

> <Gold.Id.Protein>
6NUR|6NUR_protein|mol2

> <Gold.PLP.Fitness>
41.1661

> <Gold.PLP.PLP>
-32.6312

> <Gold.PLP.part.hbond>
-2.9627

> <Gold.PLP.part.metal>
0.0000

> <Gold.PLP.part.buried>
-2.2435

> <Gold.PLP.part.nonpolar>
-27.6704

> <Gold.PLP.part.repulsive>
0.0745

> <Gold.PLP.ligand.clash>
0.0000

> <Gold.PLP.ligand.torsion>
0.1663

> <Gold.PLP.Chemscore.Hbond>
2.9500

> <Gold.PLP.Chemscore.CHOScore>
0.0000

> <Gold.PLP.Chemscore.Metal>
0.0000

> <Gold.Chemscore.Hbonds>
donor molecule, donor type, donor heavy atom, donor atom, acceptor molecule, acceptor atom, score
      L1  H     8    26       P1  7948  0.70
      L1  H    11    27       P1  7948  1.00
      L1  H    19    40       P1  7957  1.00

> <Gold.PLP.Chemscore.Internal.Correction>
0.0175

> <Gold.Rescore>
     Score         DG    S(hbond)    S(metal)    S(lipo)     H(rot)  DE(clash)    DE(int)     intcor
     16.79     -17.99       2.56        0.00      72.55       1.77       0.07       1.12       ----

> <Gold.Chemscore.Fitness>
16.7933

> <Gold.Chemscore.DG>
-17.9883

> <Gold.Chemscore.ZeroCoef>
-5.4800

> <Gold.Chemscore.Hbond>
2.5635

> <Gold.Chemscore.Metal>
0.0000

> <Gold.Chemscore.Lipo>
72.5477

> <Gold.Chemscore.Internal_Hbond>
0.0000

> <Gold.Chemscore.DEClash>
0.0708

> <Gold.Chemscore.DEInternal>
1.1242

> <Gold.Chemscore.Rot>
1.7742

> <Gold.Chemscore.Internal.Correction>
   9.000000E+99

> <Gold.Chemscore.Hbonds>
donor molecule, donor type, donor heavy atom, donor atom, acceptor molecule, acceptor atom, score
      L1  H     8    26       P1  7948  0.07
      L1  H    11    27       P1  7948  0.86
      L1  H    19    40       P1  7957  0.97

> <Gold.Chemscore.Hbond.Weighted>
-8.5622

> <Gold.Chemscore.Metal.Weighted>
-0.0000

> <Gold.Chemscore.Lipo.Weighted>
-8.4881

> <Gold.Chemscore.Internal_Hbond.Weighted>
0.0000

> <Gold.Chemscore.DEClash.Weighted>
0.0708

> <Gold.Chemscore.DEInternal.Weighted>
1.1242

> <Gold.Chemscore.Rot.Weighted>
4.5419

> <Gold.Chemscore.Internal.Correction.Weighted>
   9.000000E+99

> <Gold.Protein.RotatedTorsions>
[ 6907 6896 6895 6894 ] final   53.98 input  -60.11 | X-H torsion
[ 7974 7965 7964 7962 ] final -162.06 input  175.53 | X-H torsion
[ 8008 7997 7996 7995 ] final   46.23 input   59.86 | X-H torsion
[ 10167 10162 10161 10158 ] final   81.12 input  -65.29 | X-H torsion
[ 10718 10713 10712 10709 ] final  139.57 input   66.30 | X-H torsion
[ 10763 10752 10751 10750 ] final   80.64 input  -60.55 | X-H torsion
[ 11005 11000 10999 10996 ] final   59.38 input  -57.11 | X-H torsion

> <Gold.Protein.ActiveResidues>
 VAL166  LYS551  ARG553  GLY616  TRP617  ASP618  TYR619  PRO620  LYS621  CYS622 
 ASP623  PHE694  ASN695  SER759  ASP760  ASP761  ALA762  ILE779  LEU786  VAL792 
 PHE793  MET794  SER795  GLU796  ALA797  LYS798  CYS799  TRP800  GLU811  SER814 

> <Gold.Protein.RotatedAtoms>
  152.3393  134.7156  160.0268 H   0  0  0  0  0  0  0  0  0  0  0  0  # atno 6907 bound_to 6896
  151.7547  133.3324  159.3409 H   0  0  0  0  0  0  0  0  0  0  0  0  # atno 6908 bound_to 6896
  150.7470  134.6093  159.6122 H   0  0  0  0  0  0  0  0  0  0  0  0  # atno 6909 bound_to 6896
  144.7370  140.3307  143.6153 H   0  0  0  0  0  0  0  0  0  0  0  0  # atno 7974 bound_to 7965
  155.3491  140.3412  155.4239 H   0  0  0  0  0  0  0  0  0  0  0  0  # atno 8008 bound_to 7997
  156.1773  140.1652  156.8374 H   0  0  0  0  0  0  0  0  0  0  0  0  # atno 8009 bound_to 7997
  154.5296  140.0748  156.8303 H   0  0  0  0  0  0  0  0  0  0  0  0  # atno 8010 bound_to 7997
  139.9426  144.6080  150.8237 H   0  0  0  0  0  0  0  0  0  0  0  0  # atno 10167 bound_to 10162
  157.4129  131.1030  151.0435 H   0  0  0  0  0  0  0  0  0  0  0  0  # atno 10718 bound_to 10713
  153.1050  135.4795  154.8936 H   0  0  0  0  0  0  0  0  0  0  0  0  # atno 10763 bound_to 10752
  154.7421  135.3085  154.8713 H   0  0  0  0  0  0  0  0  0  0  0  0  # atno 10764 bound_to 10752
  153.9318  135.6844  153.4799 H   0  0  0  0  0  0  0  0  0  0  0  0  # atno 10765 bound_to 10752
  140.0308  134.6015  155.9510 H   0  0  0  0  0  0  0  0  0  0  0  0  # atno 11005 bound_to 11000
  145.7474  139.1783  143.2341 LP  0  0  0  0  0  0  0  0  0  0  0  0  # atno 17320 bound_to 7965
  146.1087  140.7455  142.9514 LP  0  0  0  0  0  0  0  0  0  0  0  0  # atno 17321 bound_to 7965
  140.7606  143.3156  151.2741 LP  0  0  0  0  0  0  0  0  0  0  0  0  # atno 17342 bound_to 10162
  139.6692  144.0050  152.2742 LP  0  0  0  0  0  0  0  0  0  0  0  0  # atno 17343 bound_to 10162
  157.1393  130.6136  149.5551 LP  0  0  0  0  0  0  0  0  0  0  0  0  # atno 17370 bound_to 10713
  155.9856  130.4887  150.7039 LP  0  0  0  0  0  0  0  0  0  0  0  0  # atno 17371 bound_to 10713
  141.1829  133.6550  156.5097 LP  0  0  0  0  0  0  0  0  0  0  0  0  # atno 17394 bound_to 11000
  140.4229  134.7171  157.4900 LP  0  0  0  0  0  0  0  0  0  0  0  0  # atno 17395 bound_to 11000

$$$$
