AV-unprocessed.smi:457|AV-procd|sdf|2619|dock4
  -GOLD-   2262023 23D 1   1.00000     0.00000
 Structure written by MMmdl.
 41 41  0  0  0  0  0  0  0  0  1 V2000
  152.3228  144.5559  158.7778 C   0  0  0  0  0  0  0  0  0  0  0  0
  152.2135  143.0735  159.1469 C   0  0  0  0  0  0  0  0  0  0  0  0
  151.7034  142.2157  157.9767 C   0  0  0  0  0  0  0  0  0  0  0  0
  151.5149  140.8259  158.3426 N   0  0  0  0  0  0  0  0  0  0  0  0
  150.3078  140.1386  158.1857 C   0  0  0  0  0  0  0  0  0  0  0  0
  149.2214  140.8300  157.6721 N   0  0  0  0  0  0  0  0  0  0  0  0
  150.1700  138.8300  158.5483 C   0  0  0  0  0  0  0  0  0  0  0  0
  148.9827  138.1171  158.4008 N   0  0  0  0  0  0  0  0  0  0  0  0
  147.7904  138.7457  157.8362 C   0  0  0  0  0  0  0  0  0  0  0  0
  147.2329  137.9664  156.6376 C   0  0  0  0  0  0  0  0  0  0  0  0
  148.8714  136.7289  158.8459 C   0  0  0  0  0  0  0  0  0  0  0  0
  147.6269  136.4883  159.7122 C   0  0  0  0  0  0  0  0  0  0  0  0
  147.7917  137.1653  160.9464 O   0  0  0  0  0  0  0  0  0  0  0  0
  147.1160  136.5219  162.0128 C   0  0  0  0  0  0  0  0  0  0  0  0
  151.3036  138.0949  159.1221 C   0  0  0  0  0  0  0  0  0  0  0  0
  151.2943  136.9124  159.4626 O   0  0  0  0  0  0  0  0  0  0  0  0
  152.4696  138.8405  159.2774 N   0  0  0  0  0  0  0  0  0  0  0  0
  152.6287  140.1762  158.9261 C   0  0  0  0  0  0  0  0  0  0  0  0
  153.7087  140.7310  159.1328 O   0  0  0  0  0  0  0  0  0  0  0  0
  153.2664  138.3716  159.6831 H   0  0  0  0  0  0  0  0  0  0  0  0
  152.6875  145.1408  159.6225 H   0  0  0  0  0  0  0  0  0  0  0  0
  151.3537  144.9609  158.4856 H   0  0  0  0  0  0  0  0  0  0  0  0
  153.0134  144.7044  157.9473 H   0  0  0  0  0  0  0  0  0  0  0  0
  153.1904  142.7145  159.4725 H   0  0  0  0  0  0  0  0  0  0  0  0
  151.5449  142.9636  160.0013 H   0  0  0  0  0  0  0  0  0  0  0  0
  150.7474  142.5797  157.6016 H   0  0  0  0  0  0  0  0  0  0  0  0
  152.3754  142.2512  157.1172 H   0  0  0  0  0  0  0  0  0  0  0  0
  149.2894  141.8042  157.4150 H   0  0  0  0  0  0  0  0  0  0  0  0
  148.3441  140.3721  157.4716 H   0  0  0  0  0  0  0  0  0  0  0  0
  147.0210  138.8455  158.6012 H   0  0  0  0  0  0  0  0  0  0  0  0
  148.0303  139.7611  157.5181 H   0  0  0  0  0  0  0  0  0  0  0  0
  146.3746  138.4827  156.2078 H   0  0  0  0  0  0  0  0  0  0  0  0
  146.9045  136.9666  156.9207 H   0  0  0  0  0  0  0  0  0  0  0  0
  147.9839  137.8630  155.8539 H   0  0  0  0  0  0  0  0  0  0  0  0
  148.8543  136.0633  157.9831 H   0  0  0  0  0  0  0  0  0  0  0  0
  149.7606  136.4556  159.4156 H   0  0  0  0  0  0  0  0  0  0  0  0
  146.7383  136.8610  159.2003 H   0  0  0  0  0  0  0  0  0  0  0  0
  147.4810  135.4231  159.8948 H   0  0  0  0  0  0  0  0  0  0  0  0
  147.2771  137.0776  162.9365 H   0  0  0  0  0  0  0  0  0  0  0  0
  147.4884  135.5072  162.1614 H   0  0  0  0  0  0  0  0  0  0  0  0
  146.0416  136.4775  161.8290 H   0  0  0  0  0  0  0  0  0  0  0  0
  1  2  1  0  0  0  0
  1 21  1  0  0  0  0
  1 22  1  0  0  0  0
  1 23  1  0  0  0  0
  2  3  1  0  0  0  0
  2 24  1  0  0  0  0
  2 25  1  0  0  0  0
  3  4  1  0  0  0  0
  3 26  1  0  0  0  0
  3 27  1  0  0  0  0
  4 18  1  0  0  0  0
  4  5  1  0  0  0  0
  5  6  1  0  0  0  0
  5  7  2  0  0  0  0
  6 28  1  0  0  0  0
  6 29  1  0  0  0  0
  7  8  1  0  0  0  0
  7 15  1  0  0  0  0
  8  9  1  0  0  0  0
  8 11  1  0  0  0  0
  9 10  1  0  0  0  0
  9 30  1  0  0  0  0
  9 31  1  0  0  0  0
 10 32  1  0  0  0  0
 10 33  1  0  0  0  0
 10 34  1  0  0  0  0
 11 12  1  0  0  0  0
 11 35  1  0  0  0  0
 11 36  1  0  0  0  0
 12 13  1  0  0  0  0
 12 37  1  0  0  0  0
 12 38  1  0  0  0  0
 13 14  1  0  0  0  0
 14 39  1  0  0  0  0
 14 40  1  0  0  0  0
 14 41  1  0  0  0  0
 15 16  2  0  0  0  0
 15 17  1  0  0  0  0
 17 20  1  0  0  0  0
 17 18  1  0  0  0  0
 18 19  2  0  0  0  0
M  END
> <s_m_source_file>
AV-unprocessed.smi

> <i_m_source_file_index>
457

> <i_lp_mmshare_version>
43012

> <i_f3d_flags>
0

> <s_epik_input>
W0NIM11bQ0gyXVtDSDJdbjFjKFtOSDJdKWMoYyg9TylbbkhdYzE9TylOKFtDSDJdW0NIM10pW0NIMl1bQ0gyXU9bQ0gzXQ==

> <s_epik_cmdline>
J2VwaWtfcHl0aG9uJywgJy1waCcsICc3LjAnLCAnLXRuJywgJzgnLCAnLW1hJywgJzIwMCcsICctbWV0YWxfYmluZGluZycsICctaW1hZScsICc8aW5maWxlLm1hZT4nLCAnLW9tYWUnLCAnPG91dGZpbGUubWFlPic=

> <r_lp_tautomer_probability>
1

> <r_epik_Ionization_Penalty>
0.000127086

> <r_epik_Ionization_Penalty_Charging>
2.15301e-06

> <r_epik_Ionization_Penalty_Neutral>
0.000124933

> <r_epik_State_Penalty>
-0

> <r_epik_Charging_Adjusted_Penalty>
2.15301e-06

> <i_epik_Tot_Q>
0

> <i_epik_Tot_abs_Q>
0

> <r_epik_Metal_State_Penalty>
-0

> <b_epik_Metal_Only>
0

> <s_epik_Chemistry_Notes>
This compound has an imine and may undergo hydrolysis.

> <s_lp_Force_Field>
OPLS_2005

> <r_lp_Energy>
18.1381

> <b_lp_Chiralities_Consistent>
1

> <s_lp_Variant>
AV-unprocessed.smi:457-1

> <Gold.Version>
5.8.1

> <Gold.Id.Protein>
6NUR|6NUR_protein|mol2

> <Gold.PLP.Fitness>
37.6043

> <Gold.PLP.PLP>
-30.0823

> <Gold.PLP.part.hbond>
-3.7815

> <Gold.PLP.part.metal>
0.0000

> <Gold.PLP.part.buried>
-3.5628

> <Gold.PLP.part.nonpolar>
-22.3020

> <Gold.PLP.part.repulsive>
0.2118

> <Gold.PLP.ligand.clash>
22.7857

> <Gold.PLP.ligand.torsion>
0.3745

> <Gold.PLP.Chemscore.Hbond>
2.7280

> <Gold.PLP.Chemscore.CHOScore>
0.0000

> <Gold.PLP.Chemscore.Metal>
0.0000

> <Gold.Chemscore.Hbonds>
donor molecule, donor type, donor heavy atom, donor atom, acceptor molecule, acceptor atom, score
      P1  H  6896  6909       L1    16  1.00
      P1  H  6931  6943       L1    13  0.91
      P1  H  6934  6947       L1    13  0.85

> <Gold.PLP.Chemscore.Internal.Correction>
22.8728

> <Gold.Rescore>
     Score         DG    S(hbond)    S(metal)    S(lipo)     H(rot)  DE(clash)    DE(int)     intcor
      9.08     -14.21       2.36        0.00      53.85       2.12       0.01       5.12       ----

> <Gold.Chemscore.Fitness>
9.0845

> <Gold.Chemscore.DG>
-14.2122

> <Gold.Chemscore.ZeroCoef>
-5.4800

> <Gold.Chemscore.Hbond>
2.3559

> <Gold.Chemscore.Metal>
0.0000

> <Gold.Chemscore.Lipo>
53.8485

> <Gold.Chemscore.Internal_Hbond>
0.0000

> <Gold.Chemscore.DEClash>
0.0107

> <Gold.Chemscore.DEInternal>
5.1171

> <Gold.Chemscore.Rot>
2.1237

> <Gold.Chemscore.Internal.Correction>
   9.000000E+99

> <Gold.Chemscore.Hbonds>
donor molecule, donor type, donor heavy atom, donor atom, acceptor molecule, acceptor atom, score
      P1  H  6896  6909       L1    16  1.00
      P1  H  6931  6943       L1    13  0.26
      P1  H  6934  6947       L1    13  0.45

> <Gold.Chemscore.Hbond.Weighted>
-7.8687

> <Gold.Chemscore.Metal.Weighted>
-0.0000

> <Gold.Chemscore.Lipo.Weighted>
-6.3003

> <Gold.Chemscore.Internal_Hbond.Weighted>
0.0000

> <Gold.Chemscore.DEClash.Weighted>
0.0107

> <Gold.Chemscore.DEInternal.Weighted>
5.1171

> <Gold.Chemscore.Rot.Weighted>
5.4367

> <Gold.Chemscore.Internal.Correction.Weighted>
   9.000000E+99

> <Gold.Protein.RotatedTorsions>
[ 6907 6896 6895 6894 ] final  113.88 input  -60.11 | X-H torsion
[ 7974 7965 7964 7962 ] final  150.72 input  175.53 | X-H torsion
[ 8008 7997 7996 7995 ] final   53.10 input   59.86 | X-H torsion
[ 10167 10162 10161 10158 ] final   -7.00 input  -65.29 | X-H torsion
[ 10718 10713 10712 10709 ] final  150.33 input   66.30 | X-H torsion
[ 10763 10752 10751 10750 ] final -155.81 input  -60.55 | X-H torsion
[ 11005 11000 10999 10996 ] final    0.51 input  -57.11 | X-H torsion

> <Gold.Protein.ActiveResidues>
 VAL166  LYS551  ARG553  GLY616  TRP617  ASP618  TYR619  PRO620  LYS621  CYS622 
 ASP623  PHE694  ASN695  SER759  ASP760  ASP761  ALA762  ILE779  LEU786  VAL792 
 PHE793  MET794  SER795  GLU796  ALA797  LYS798  CYS799  TRP800  GLU811  SER814 

> <Gold.Protein.RotatedAtoms>
  152.4835  133.8314  159.7104 H   0  0  0  0  0  0  0  0  0  0  0  0  # atno 6907 bound_to 6896
  150.8903  133.7243  159.2913 H   0  0  0  0  0  0  0  0  0  0  0  0  # atno 6908 bound_to 6896
  151.4718  135.1050  159.9805 H   0  0  0  0  0  0  0  0  0  0  0  0  # atno 6909 bound_to 6896
  144.8344  139.6445  143.6044 H   0  0  0  0  0  0  0  0  0  0  0  0  # atno 7974 bound_to 7965
  155.4626  140.3462  155.4315 H   0  0  0  0  0  0  0  0  0  0  0  0  # atno 8008 bound_to 7997
  156.1151  140.1471  156.9313 H   0  0  0  0  0  0  0  0  0  0  0  0  # atno 8009 bound_to 7997
  154.4783  140.0878  156.7295 H   0  0  0  0  0  0  0  0  0  0  0  0  # atno 8010 bound_to 7997
  140.7015  143.6130  150.8685 H   0  0  0  0  0  0  0  0  0  0  0  0  # atno 10167 bound_to 10162
  157.2849  131.0842  151.1505 H   0  0  0  0  0  0  0  0  0  0  0  0  # atno 10718 bound_to 10713
  154.7759  135.3159  154.8092 H   0  0  0  0  0  0  0  0  0  0  0  0  # atno 10763 bound_to 10752
  153.8816  135.6834  153.4771 H   0  0  0  0  0  0  0  0  0  0  0  0  # atno 10764 bound_to 10752
  153.1383  135.4750  154.9393 H   0  0  0  0  0  0  0  0  0  0  0  0  # atno 10765 bound_to 10752
  140.6257  133.9620  155.8248 H   0  0  0  0  0  0  0  0  0  0  0  0  # atno 11005 bound_to 11000
  146.2644  139.6485  142.9340 LP  0  0  0  0  0  0  0  0  0  0  0  0  # atno 17320 bound_to 7965
  145.4827  141.0438  143.2637 LP  0  0  0  0  0  0  0  0  0  0  0  0  # atno 17321 bound_to 7965
  139.9853  143.5907  152.2929 LP  0  0  0  0  0  0  0  0  0  0  0  0  # atno 17342 bound_to 10162
  139.6542  144.7661  151.2088 LP  0  0  0  0  0  0  0  0  0  0  0  0  # atno 17343 bound_to 10162
  157.2924  130.6803  149.6121 LP  0  0  0  0  0  0  0  0  0  0  0  0  # atno 17370 bound_to 10713
  155.9665  130.4417  150.5349 LP  0  0  0  0  0  0  0  0  0  0  0  0  # atno 17371 bound_to 10713
  141.0711  134.0204  157.3525 LP  0  0  0  0  0  0  0  0  0  0  0  0  # atno 17394 bound_to 11000
  139.9135  135.0194  156.7790 LP  0  0  0  0  0  0  0  0  0  0  0  0  # atno 17395 bound_to 11000

$$$$
