AV-unprocessed.smi:239|AV-procd|sdf|1820|dock4
  -GOLD-   2262020413D 1   1.00000     0.00000
 Structure written by MMmdl.
 54 58  0  0  0  0  0  0  0  0  1 V2000
  153.0063  138.6522  155.0993 C   0  0  0  0  0  0  0  0  0  0  0  0
  151.5575  139.0202  155.4349 C   0  0  2  0  0  0  0  0  0  0  0  0
  150.5538  138.0588  154.7752 C   0  0  0  0  0  0  0  0  0  0  0  0
  149.1890  138.5064  155.0293 N   0  0  0  0  0  0  0  0  0  0  0  0
  148.2241  137.5836  154.7827 C   0  0  0  0  0  0  0  0  0  0  0  0
  148.1260  136.4774  155.5685 N   0  0  0  0  0  0  0  0  0  0  0  0
  147.1715  135.5699  155.3435 C   0  0  0  0  0  0  0  0  0  0  0  0
  146.2265  135.5691  154.4019 N   0  0  0  0  0  0  0  0  0  0  0  0
  146.3239  136.6703  153.6038 C   0  0  0  0  0  0  0  0  0  0  0  0
  147.2850  137.7144  153.7201 C   0  0  0  0  0  0  0  0  0  0  0  0
  147.0804  138.6565  152.7185 N   0  0  0  0  0  0  0  0  0  0  0  0
  146.0475  138.2052  152.0609 C   0  0  0  0  0  0  0  0  0  0  0  0
  145.5249  137.0216  152.5297 N   0  0  0  0  0  0  0  0  0  0  0  0
  144.3791  136.3028  151.9934 C   0  0  0  0  0  0  0  0  0  0  0  0
  144.7594  135.1300  151.0559 C   0  0  0  0  0  0  0  0  0  0  0  0
  145.0226  135.6733  149.7732 O   0  0  0  0  0  0  0  0  0  0  0  0
  146.0379  134.4307  151.5597 C   0  0  0  0  0  0  0  0  0  0  0  0
  146.3576  133.1563  150.7578 C   0  0  0  0  0  0  0  0  0  0  0  0
  145.2422  132.2740  150.7801 O   0  0  0  0  0  0  0  0  0  0  0  0
  144.0896  132.8295  150.1585 C   0  0  0  0  0  0  0  0  0  0  0  0
  143.6302  134.0847  150.9215 C   0  0  0  0  0  0  0  0  0  0  0  0
  148.9507  139.8837  154.6034 C   0  0  0  0  0  0  0  0  0  0  0  0
  149.9964  140.8345  155.2169 C   0  0  1  0  0  0  0  0  0  0  0  0
  149.7579  141.1093  156.6950 C   0  0  0  0  0  0  0  0  0  0  0  0
  150.8821  140.9979  157.6978 C   0  0  0  0  0  0  0  0  0  0  0  0
  149.7666  139.9794  157.6971 C   0  0  0  0  0  0  0  0  0  0  0  0
  151.3173  140.3479  154.9699 O   0  0  0  0  0  0  0  0  0  0  0  0
  153.2455  137.6465  155.4455 H   0  0  0  0  0  0  0  0  0  0  0  0
  153.7036  139.3422  155.5750 H   0  0  0  0  0  0  0  0  0  0  0  0
  153.1833  138.6868  154.0239 H   0  0  0  0  0  0  0  0  0  0  0  0
  151.4410  138.9833  156.5185 H   0  0  0  0  0  0  0  0  0  0  0  0
  150.7170  138.0278  153.6970 H   0  0  0  0  0  0  0  0  0  0  0  0
  150.7223  137.0490  155.1469 H   0  0  0  0  0  0  0  0  0  0  0  0
  147.1625  134.7248  156.0161 H   0  0  0  0  0  0  0  0  0  0  0  0
  145.6315  138.7291  151.2125 H   0  0  0  0  0  0  0  0  0  0  0  0
  143.7815  135.9404  152.8311 H   0  0  0  0  0  0  0  0  0  0  0  0
  143.7504  137.0179  151.4611 H   0  0  0  0  0  0  0  0  0  0  0  0
  145.3705  134.9883  149.2229 H   0  0  0  0  0  0  0  0  0  0  0  0
  146.8863  135.1155  151.5290 H   0  0  0  0  0  0  0  0  0  0  0  0
  145.9073  134.1534  152.6066 H   0  0  0  0  0  0  0  0  0  0  0  0
  146.6264  133.3952  149.7277 H   0  0  0  0  0  0  0  0  0  0  0  0
  147.2156  132.6466  151.1968 H   0  0  0  0  0  0  0  0  0  0  0  0
  144.3016  133.0592  149.1131 H   0  0  0  0  0  0  0  0  0  0  0  0
  143.2958  132.0824  150.1612 H   0  0  0  0  0  0  0  0  0  0  0  0
  143.3011  133.7828  151.9166 H   0  0  0  0  0  0  0  0  0  0  0  0
  142.7575  134.5133  150.4273 H   0  0  0  0  0  0  0  0  0  0  0  0
  149.0094  139.9312  153.5151 H   0  0  0  0  0  0  0  0  0  0  0  0
  147.9472  140.2041  154.8865 H   0  0  0  0  0  0  0  0  0  0  0  0
  149.9233  141.7900  154.6962 H   0  0  0  0  0  0  0  0  0  0  0  0
  149.0342  141.8985  156.8893 H   0  0  0  0  0  0  0  0  0  0  0  0
  151.8568  140.6751  157.3370 H   0  0  0  0  0  0  0  0  0  0  0  0
  150.9024  141.7209  158.5107 H   0  0  0  0  0  0  0  0  0  0  0  0
  149.0439  140.0234  158.5093 H   0  0  0  0  0  0  0  0  0  0  0  0
  149.9977  138.9808  157.3320 H   0  0  0  0  0  0  0  0  0  0  0  0
  1  2  1  0  0  0  0
  1 28  1  0  0  0  0
  1 29  1  0  0  0  0
  1 30  1  0  0  0  0
  2 27  1  0  0  0  0
  2  3  1  0  0  0  0
  2 31  1  0  0  0  0
  3  4  1  0  0  0  0
  3 32  1  0  0  0  0
  3 33  1  0  0  0  0
  4  5  1  0  0  0  0
  4 22  1  0  0  0  0
  5 10  1  0  0  0  0
  5  6  2  0  0  0  0
  6  7  1  0  0  0  0
  7  8  2  0  0  0  0
  7 34  1  0  0  0  0
  8  9  1  0  0  0  0
  9 13  1  0  0  0  0
  9 10  2  0  0  0  0
 10 11  1  0  0  0  0
 11 12  2  0  0  0  0
 12 13  1  0  0  0  0
 12 35  1  0  0  0  0
 13 14  1  0  0  0  0
 14 15  1  0  0  0  0
 14 36  1  0  0  0  0
 14 37  1  0  0  0  0
 15 21  1  0  0  0  0
 15 16  1  0  0  0  0
 15 17  1  0  0  0  0
 16 38  1  0  0  0  0
 17 18  1  0  0  0  0
 17 39  1  0  0  0  0
 17 40  1  0  0  0  0
 18 19  1  0  0  0  0
 18 41  1  0  0  0  0
 18 42  1  0  0  0  0
 19 20  1  0  0  0  0
 20 21  1  0  0  0  0
 20 43  1  0  0  0  0
 20 44  1  0  0  0  0
 21 45  1  0  0  0  0
 21 46  1  0  0  0  0
 22 23  1  0  0  0  0
 22 47  1  0  0  0  0
 22 48  1  0  0  0  0
 23 24  1  0  0  0  0
 23 27  1  0  0  0  0
 23 49  1  0  0  0  0
 24 26  1  0  0  0  0
 24 25  1  0  0  0  0
 24 50  1  0  0  0  0
 25 26  1  0  0  0  0
 25 51  1  0  0  0  0
 25 52  1  0  0  0  0
 26 53  1  0  0  0  0
 26 54  1  0  0  0  0
M  END
> <s_m_source_file>
AV-unprocessed.smi

> <i_m_source_file_index>
239

> <i_lp_mmshare_version>
43012

> <i_f3d_flags>
0

> <s_epik_input>
W0NIMl0xW0NIMl1bQ0hdMVtDQEBIXShPMilbQ0gyXU4oW0NIMl1bQ0BIXTJbQ0gzXSljKG5bY0hdbjMpYyhjMzQpbltjSF1uNFtDSDJdQzUoW09IXSlbQ0gyXVtDSDJdT1tDSDJdW0NIMl01

> <s_epik_cmdline>
J2VwaWtfcHl0aG9uJywgJy1waCcsICc3LjAnLCAnLXRuJywgJzgnLCAnLW1hJywgJzIwMCcsICctbWV0YWxfYmluZGluZycsICctaW1hZScsICc8aW5maWxlLm1hZT4nLCAnLW9tYWUnLCAnPG91dGZpbGUubWFlPic=

> <r_lp_tautomer_probability>
1

> <r_epik_Ionization_Penalty>
9.13091e-05

> <r_epik_Ionization_Penalty_Charging>
0

> <r_epik_Ionization_Penalty_Neutral>
9.13091e-05

> <r_epik_State_Penalty>
-0

> <r_epik_Charging_Adjusted_Penalty>
0

> <i_epik_Tot_Q>
0

> <i_epik_Tot_abs_Q>
0

> <r_epik_Metal_State_Penalty>
-0

> <b_epik_Metal_Only>
0

> <s_lp_Force_Field>
OPLS_2005

> <r_lp_Energy>
39.9708

> <b_lp_Chiralities_Consistent>
1

> <s_lp_Variant>
AV-unprocessed.smi:239-1

> <Gold.Version>
5.8.1

> <Gold.Id.Protein>
6NUR|6NUR_protein|mol2

> <Gold.PLP.Fitness>
45.4526

> <Gold.PLP.PLP>
-36.0908

> <Gold.PLP.part.hbond>
-2.8796

> <Gold.PLP.part.metal>
0.0000

> <Gold.PLP.part.buried>
-1.1926

> <Gold.PLP.part.nonpolar>
-32.5931

> <Gold.PLP.part.repulsive>
0.6956

> <Gold.PLP.ligand.clash>
0.0000

> <Gold.PLP.ligand.torsion>
1.7803

> <Gold.PLP.Chemscore.Hbond>
2.0000

> <Gold.PLP.Chemscore.CHOScore>
1.8439

> <Gold.PLP.Chemscore.Metal>
0.0000

> <Gold.Chemscore.Hbonds>
donor molecule, donor type, donor heavy atom, donor atom, acceptor molecule, acceptor atom, score
      L1  H    16    38       P1  7921  0.77
      P1  H  7989  7998       L1    27  1.00
      L1  C    12    35       P1 10171  1.00
      L1  C    12    35       P1 10175  0.06

> <Gold.PLP.Chemscore.Internal.Correction>
1.3905

> <Gold.Rescore>
     Score         DG    S(hbond)    S(metal)    S(lipo)     H(rot)  DE(clash)    DE(int)     intcor
     11.06     -15.47       1.69        0.00      86.09       2.24       0.68       3.73       ----

> <Gold.Chemscore.Fitness>
11.0637

> <Gold.Chemscore.DG>
-15.4707

> <Gold.Chemscore.ZeroCoef>
-5.4800

> <Gold.Chemscore.Hbond>
1.6913

> <Gold.Chemscore.Metal>
0.0000

> <Gold.Chemscore.Lipo>
86.0926

> <Gold.Chemscore.Internal_Hbond>
0.0000

> <Gold.Chemscore.DEClash>
0.6754

> <Gold.Chemscore.DEInternal>
3.7316

> <Gold.Chemscore.Rot>
2.2387

> <Gold.Chemscore.Internal.Correction>
   9.000000E+99

> <Gold.Chemscore.Hbonds>
donor molecule, donor type, donor heavy atom, donor atom, acceptor molecule, acceptor atom, score
      L1  H    16    38       P1  7921  0.76
      P1  H  7989  7998       L1    27  0.42

> <Gold.Chemscore.Hbond.Weighted>
-5.6490

> <Gold.Chemscore.Metal.Weighted>
-0.0000

> <Gold.Chemscore.Lipo.Weighted>
-10.0728

> <Gold.Chemscore.Internal_Hbond.Weighted>
0.0000

> <Gold.Chemscore.DEClash.Weighted>
0.6754

> <Gold.Chemscore.DEInternal.Weighted>
3.7316

> <Gold.Chemscore.Rot.Weighted>
5.7311

> <Gold.Chemscore.Internal.Correction.Weighted>
   9.000000E+99

> <Gold.Protein.RotatedTorsions>
[ 6907 6896 6895 6894 ] final   13.75 input  -60.11 | X-H torsion
[ 7974 7965 7964 7962 ] final  170.02 input  175.53 | X-H torsion
[ 8008 7997 7996 7995 ] final  -67.86 input   59.86 | X-H torsion
[ 10167 10162 10161 10158 ] final  -10.28 input  -65.29 | X-H torsion
[ 10718 10713 10712 10709 ] final  157.28 input   66.30 | X-H torsion
[ 10763 10752 10751 10750 ] final  178.43 input  -60.55 | X-H torsion
[ 11005 11000 10999 10996 ] final  143.79 input  -57.11 | X-H torsion

> <Gold.Protein.ActiveResidues>
 VAL166  LYS551  ARG553  GLY616  TRP617  ASP618  TYR619  PRO620  LYS621  CYS622 
 ASP623  PHE694  ASN695  SER759  ASP760  ASP761  ALA762  ILE779  LEU786  VAL792 
 PHE793  MET794  SER795  GLU796  ALA797  LYS798  CYS799  TRP800  GLU811  SER814 

> <Gold.Protein.RotatedAtoms>
  151.7912  135.0735  160.0387 H   0  0  0  0  0  0  0  0  0  0  0  0  # atno 6907 bound_to 6896
  152.3155  133.5793  159.5717 H   0  0  0  0  0  0  0  0  0  0  0  0  # atno 6908 bound_to 6896
  150.7342  134.0005  159.3678 H   0  0  0  0  0  0  0  0  0  0  0  0  # atno 6909 bound_to 6896
  144.7337  139.9140  143.6416 H   0  0  0  0  0  0  0  0  0  0  0  0  # atno 7974 bound_to 7965
  154.4828  140.0884  156.7417 H   0  0  0  0  0  0  0  0  0  0  0  0  # atno 8008 bound_to 7997
  155.4426  140.3454  155.4273 H   0  0  0  0  0  0  0  0  0  0  0  0  # atno 8009 bound_to 7997
  156.1217  140.1476  156.9183 H   0  0  0  0  0  0  0  0  0  0  0  0  # atno 8010 bound_to 7997
  140.7110  143.5765  150.9037 H   0  0  0  0  0  0  0  0  0  0  0  0  # atno 10167 bound_to 10162
  157.1936  131.0660  151.2065 H   0  0  0  0  0  0  0  0  0  0  0  0  # atno 10718 bound_to 10713
  154.5075  135.2787  155.1370 H   0  0  0  0  0  0  0  0  0  0  0  0  # atno 10763 bound_to 10752
  154.2978  135.6254  153.5416 H   0  0  0  0  0  0  0  0  0  0  0  0  # atno 10764 bound_to 10752
  152.9913  135.5689  154.5533 H   0  0  0  0  0  0  0  0  0  0  0  0  # atno 10765 bound_to 10752
  140.0581  134.9219  157.1136 H   0  0  0  0  0  0  0  0  0  0  0  0  # atno 11005 bound_to 11000
  146.0979  139.3973  143.0365 LP  0  0  0  0  0  0  0  0  0  0  0  0  # atno 17320 bound_to 7965
  145.7619  140.9932  143.1195 LP  0  0  0  0  0  0  0  0  0  0  0  0  # atno 17321 bound_to 7965
  139.9491  143.6293  152.3034 LP  0  0  0  0  0  0  0  0  0  0  0  0  # atno 17342 bound_to 10162
  139.6805  144.7656  151.1617 LP  0  0  0  0  0  0  0  0  0  0  0  0  # atno 17343 bound_to 10162
  157.3836  130.7244  149.6647 LP  0  0  0  0  0  0  0  0  0  0  0  0  # atno 17370 bound_to 10713
  155.9709  130.4165  150.4236 LP  0  0  0  0  0  0  0  0  0  0  0  0  # atno 17371 bound_to 10713
  140.3813  134.2284  155.7171 LP  0  0  0  0  0  0  0  0  0  0  0  0  # atno 17394 bound_to 11000
  141.1961  133.8090  157.0686 LP  0  0  0  0  0  0  0  0  0  0  0  0  # atno 17395 bound_to 11000

$$$$
