AV-unprocessed.smi:1261|AV-procd|sdf|5301|dock3
  -GOLD-   22720 4423D 1   1.00000     0.00000
 Structure written by MMmdl.
 49 50  0  0  0  0  0  0  0  0  3 V2000
  152.1663  144.7392  158.1941 C   0  0  0  0  0  0  0  0  0  0  0  0
  151.2285  143.8574  159.0373 C   0  0  2  0  0  0  0  0  0  0  0  0
  151.5768  143.8727  160.5373 C   0  0  0  0  0  0  0  0  0  0  0  0
  152.8434  143.0511  160.8365 C   0  0  1  0  0  0  0  0  0  0  0  0
  153.1450  143.0171  162.3418 C   0  0  0  0  0  0  0  0  0  0  0  0
  152.7057  141.6297  160.2581 C   0  0  0  0  0  0  0  0  0  0  0  0
  152.4142  141.6609  158.8015 N   0  3  1  0  0  0  0  0  0  0  0  0
  152.4399  140.3056  158.1950 C   0  0  0  0  0  0  0  0  0  0  0  0
  151.2434  139.4425  158.6301 C   0  0  0  0  0  0  0  0  0  0  0  0
  150.5313  138.7918  157.4331 C   0  0  0  0  0  0  0  0  0  0  0  0
  149.3083  138.1115  157.8401 N   0  0  0  0  0  0  0  0  0  0  0  0
  149.2459  137.0792  158.6948 C   0  0  0  0  0  0  0  0  0  0  0  0
  150.2333  136.6009  159.2539 O   0  0  0  0  0  0  0  0  0  0  0  0
  147.8495  136.5123  158.9711 C   0  0  0  0  0  0  0  0  0  0  0  0
  147.7050  136.0691  160.3631 N   0  0  0  0  0  0  0  0  0  0  0  0
  147.7132  137.1646  161.3297 N   0  5  0  0  0  0  0  0  0  0  0  0
  147.5604  136.8836  162.6509 C   0  0  0  0  0  0  0  0  0  0  0  0
  147.5437  137.7530  163.5193 O   0  0  0  0  0  0  0  0  0  0  0  0
  147.4126  135.4915  163.0417 C   0  0  0  0  0  0  0  0  0  0  0  0
  147.4189  134.5000  162.1290 C   0  0  0  0  0  0  0  0  0  0  0  0
  147.5692  134.7551  160.7014 C   0  0  0  0  0  0  0  0  0  0  0  0
  147.5717  133.8538  159.8630 O   0  0  0  0  0  0  0  0  0  0  0  0
  151.1617  142.4100  158.5113 C   0  0  0  0  0  0  0  0  0  0  0  0
  153.1909  144.3677  158.1980 H   0  0  0  0  0  0  0  0  0  0  0  0
  152.1828  145.7632  158.5683 H   0  0  0  0  0  0  0  0  0  0  0  0
  151.8355  144.7770  157.1558 H   0  0  0  0  0  0  0  0  0  0  0  0
  150.2314  144.2881  158.9342 H   0  0  0  0  0  0  0  0  0  0  0  0
  151.6975  144.8990  160.8861 H   0  0  0  0  0  0  0  0  0  0  0  0
  150.7390  143.4581  161.1000 H   0  0  0  0  0  0  0  0  0  0  0  0
  153.6913  143.5345  160.3496 H   0  0  0  0  0  0  0  0  0  0  0  0
  152.3384  142.5386  162.8983 H   0  0  0  0  0  0  0  0  0  0  0  0
  153.2714  144.0243  162.7400 H   0  0  0  0  0  0  0  0  0  0  0  0
  154.0631  142.4656  162.5465 H   0  0  0  0  0  0  0  0  0  0  0  0
  153.6341  141.0840  160.4321 H   0  0  0  0  0  0  0  0  0  0  0  0
  151.9153  141.0823  160.7748 H   0  0  0  0  0  0  0  0  0  0  0  0
  152.4047  140.3994  157.1087 H   0  0  0  0  0  0  0  0  0  0  0  0
  153.3830  139.8099  158.4303 H   0  0  0  0  0  0  0  0  0  0  0  0
  151.5720  138.6616  159.3155 H   0  0  0  0  0  0  0  0  0  0  0  0
  150.5320  140.0585  159.1817 H   0  0  0  0  0  0  0  0  0  0  0  0
  150.2641  139.5524  156.6991 H   0  0  0  0  0  0  0  0  0  0  0  0
  151.1954  138.0903  156.9254 H   0  0  0  0  0  0  0  0  0  0  0  0
  148.4442  138.4231  157.4193 H   0  0  0  0  0  0  0  0  0  0  0  0
  147.1012  137.2701  158.7327 H   0  0  0  0  0  0  0  0  0  0  0  0
  147.6525  135.6871  158.2837 H   0  0  0  0  0  0  0  0  0  0  0  0
  147.2968  135.2469  164.0874 H   0  0  0  0  0  0  0  0  0  0  0  0
  147.3070  133.4799  162.4651 H   0  0  0  0  0  0  0  0  0  0  0  0
  150.3216  141.8887  158.9730 H   0  0  0  0  0  0  0  0  0  0  0  0
  150.9614  142.4284  157.4407 H   0  0  0  0  0  0  0  0  0  0  0  0
  153.1709  142.1771  158.3757 H   0  0  0  0  0  0  0  0  0  0  0  0
  1  2  1  0  0  0  0
  1 24  1  0  0  0  0
  1 25  1  0  0  0  0
  1 26  1  0  0  0  0
  2 23  1  0  0  0  0
  2  3  1  0  0  0  0
  2 27  1  0  0  0  0
  3  4  1  0  0  0  0
  3 28  1  0  0  0  0
  3 29  1  0  0  0  0
  4  5  1  0  0  0  0
  4  6  1  0  0  0  0
  4 30  1  0  0  0  0
  5 31  1  0  0  0  0
  5 32  1  0  0  0  0
  5 33  1  0  0  0  0
  6  7  1  0  0  0  0
  6 34  1  0  0  0  0
  6 35  1  0  0  0  0
  7  8  1  0  0  0  0
  7 23  1  0  0  0  0
  7 49  1  0  0  0  0
  8  9  1  0  0  0  0
  8 36  1  0  0  0  0
  8 37  1  0  0  0  0
  9 10  1  0  0  0  0
  9 38  1  0  0  0  0
  9 39  1  0  0  0  0
 10 11  1  0  0  0  0
 10 40  1  0  0  0  0
 10 41  1  0  0  0  0
 11 12  1  0  0  0  0
 11 42  1  0  0  0  0
 12 13  2  0  0  0  0
 12 14  1  0  0  0  0
 14 43  1  0  0  0  0
 14 44  1  0  0  0  0
 14 15  1  0  0  0  0
 15 16  1  0  0  0  0
 15 21  1  0  0  0  0
 16 17  1  0  0  0  0
 17 18  2  0  0  0  0
 17 19  1  0  0  0  0
 19 45  1  0  0  0  0
 19 20  2  0  0  0  0
 20 46  1  0  0  0  0
 20 21  1  0  0  0  0
 21 22  2  0  0  0  0
 23 47  1  0  0  0  0
 23 48  1  0  0  0  0
M  CHG  1   7   1
M  CHG  1  16  -1
M  END
> <s_m_source_file>
AV-unprocessed.smi

> <i_m_source_file_index>
1261

> <i_lp_mmshare_version>
43012

> <i_f3d_flags>
0

> <s_epik_input>
W0NIM11bQ0BASF0xW0NIMl1bQ0BASF0oW0NIM10pW0NIMl1OKFtDSDJdMSlbQ0gyXVtDSDJdW0NIMl1bTkhdQyg9TylbQ0gyXW4yW25IXWMoPU8pW2NIXVtjSF1jMj1P

> <s_epik_cmdline>
J2VwaWtfcHl0aG9uJywgJy1waCcsICc3LjAnLCAnLXRuJywgJzgnLCAnLW1hJywgJzIwMCcsICctbWV0YWxfYmluZGluZycsICctaW1hZScsICc8aW5maWxlLm1hZT4nLCAnLW9tYWUnLCAnPG91dGZpbGUubWFlPic=

> <r_lp_tautomer_probability>
1

> <r_epik_Ionization_Penalty>
0.0955723

> <r_epik_Ionization_Penalty_Charging>
0.0955723

> <r_epik_Ionization_Penalty_Neutral>
2.68632e-08

> <r_epik_State_Penalty>
0.0334406

> <r_epik_Charging_Adjusted_Penalty>
0.129013

> <i_epik_Tot_Q>
0

> <i_epik_Tot_abs_Q>
2

> <r_epik_Metal_State_Penalty>
0.0334406

> <b_epik_Metal_Only>
0

> <s_lp_Force_Field>
OPLS_2005

> <r_lp_Energy>
33.9758

> <b_lp_Chiralities_Consistent>
1

> <s_lp_Variant>
AV-unprocessed.smi:1261-1

> <Gold.Version>
5.8.1

> <Gold.Id.Protein>
6NUR|6NUR_protein|mol2

> <Gold.PLP.Fitness>
60.4308

> <Gold.PLP.PLP>
-51.5145

> <Gold.PLP.part.hbond>
-4.0000

> <Gold.PLP.part.metal>
0.0000

> <Gold.PLP.part.buried>
-5.6428

> <Gold.PLP.part.nonpolar>
-43.0606

> <Gold.PLP.part.repulsive>
0.2224

> <Gold.PLP.ligand.clash>
0.0000

> <Gold.PLP.ligand.torsion>
0.8068

> <Gold.PLP.Chemscore.Hbond>
3.4680

> <Gold.PLP.Chemscore.CHOScore>
0.0000

> <Gold.PLP.Chemscore.Metal>
0.0000

> <Gold.Chemscore.Hbonds>
donor molecule, donor type, donor heavy atom, donor atom, acceptor molecule, acceptor atom, score
      P1  H  6896  6909       L1    13  1.00
      P1  H  6931  6943       L1    16  0.40
      P1  H  6934  6947       L1    16  1.63

> <Gold.PLP.Chemscore.Internal.Correction>
0.1260

> <Gold.Rescore>
     Score         DG    S(hbond)    S(metal)    S(lipo)     H(rot)  DE(clash)    DE(int)     intcor
     17.39     -18.48       1.85        0.00     112.73       2.49       0.15       0.93       ----

> <Gold.Chemscore.Fitness>
17.3925

> <Gold.Chemscore.DG>
-18.4758

> <Gold.Chemscore.ZeroCoef>
-5.4800

> <Gold.Chemscore.Hbond>
1.8534

> <Gold.Chemscore.Metal>
0.0000

> <Gold.Chemscore.Lipo>
112.7290

> <Gold.Chemscore.Internal_Hbond>
0.0000

> <Gold.Chemscore.DEClash>
0.1538

> <Gold.Chemscore.DEInternal>
0.9296

> <Gold.Chemscore.Rot>
2.4938

> <Gold.Chemscore.Internal.Correction>
   9.000000E+99

> <Gold.Chemscore.Hbonds>
donor molecule, donor type, donor heavy atom, donor atom, acceptor molecule, acceptor atom, score
      P1  H  6896  6909       L1    13  1.00
      P1  H  6934  6947       L1    16  0.63

> <Gold.Chemscore.Hbond.Weighted>
-6.1905

> <Gold.Chemscore.Metal.Weighted>
-0.0000

> <Gold.Chemscore.Lipo.Weighted>
-13.1893

> <Gold.Chemscore.Internal_Hbond.Weighted>
0.0000

> <Gold.Chemscore.DEClash.Weighted>
0.1538

> <Gold.Chemscore.DEInternal.Weighted>
0.9296

> <Gold.Chemscore.Rot.Weighted>
6.3840

> <Gold.Chemscore.Internal.Correction.Weighted>
   9.000000E+99

> <Gold.Protein.RotatedTorsions>
[ 6907 6896 6895 6894 ] final   84.13 input  -60.11 | X-H torsion
[ 7974 7965 7964 7962 ] final   52.77 input  175.53 | X-H torsion
[ 8008 7997 7996 7995 ] final   25.44 input   59.86 | X-H torsion
[ 10167 10162 10161 10158 ] final  -79.81 input  -65.29 | X-H torsion
[ 10718 10713 10712 10709 ] final  -59.82 input   66.30 | X-H torsion
[ 10763 10752 10751 10750 ] final    1.57 input  -60.55 | X-H torsion
[ 11005 11000 10999 10996 ] final   26.58 input  -57.11 | X-H torsion

> <Gold.Protein.ActiveResidues>
 VAL166  LYS551  ARG553  GLY616  TRP617  ASP618  TYR619  PRO620  LYS621  CYS622 
 ASP623  PHE694  ASN695  SER759  ASP760  ASP761  ALA762  ILE779  LEU786  VAL792 
 PHE793  MET794  SER795  GLU796  ALA797  LYS798  CYS799  TRP800  GLU811  SER814 

> <Gold.Protein.RotatedAtoms>
  152.5345  134.2788  159.8999 H   0  0  0  0  0  0  0  0  0  0  0  0  # atno 6907 bound_to 6896
  151.2743  133.4234  159.2630 H   0  0  0  0  0  0  0  0  0  0  0  0  # atno 6908 bound_to 6896
  151.0340  134.9575  159.8183 H   0  0  0  0  0  0  0  0  0  0  0  0  # atno 6909 bound_to 6896
  145.9779  139.4213  143.0150 H   0  0  0  0  0  0  0  0  0  0  0  0  # atno 7974 bound_to 7965
  155.0118  140.3137  155.4827 H   0  0  0  0  0  0  0  0  0  0  0  0  # atno 8008 bound_to 7997
  156.2908  140.2213  156.5174 H   0  0  0  0  0  0  0  0  0  0  0  0  # atno 8009 bound_to 7997
  154.7528  140.0465  157.0896 H   0  0  0  0  0  0  0  0  0  0  0  0  # atno 8010 bound_to 7997
  140.4560  143.2468  151.8420 H   0  0  0  0  0  0  0  0  0  0  0  0  # atno 10167 bound_to 10162
  156.1035  130.4183  150.0767 H   0  0  0  0  0  0  0  0  0  0  0  0  # atno 10718 bound_to 10713
  153.3064  135.6959  153.7155 H   0  0  0  0  0  0  0  0  0  0  0  0  # atno 10763 bound_to 10752
  153.6050  135.3455  155.2959 H   0  0  0  0  0  0  0  0  0  0  0  0  # atno 10764 bound_to 10752
  154.8564  135.4349  154.2190 H   0  0  0  0  0  0  0  0  0  0  0  0  # atno 10765 bound_to 10752
  140.3355  134.2391  155.7696 H   0  0  0  0  0  0  0  0  0  0  0  0  # atno 11005 bound_to 11000
  145.7812  140.9855  143.1098 LP  0  0  0  0  0  0  0  0  0  0  0  0  # atno 17320 bound_to 7965
  144.6853  139.9566  143.7479 LP  0  0  0  0  0  0  0  0  0  0  0  0  # atno 17321 bound_to 7965
  139.4801  144.5065  151.8991 LP  0  0  0  0  0  0  0  0  0  0  0  0  # atno 17342 bound_to 10162
  140.4151  144.2318  150.5888 LP  0  0  0  0  0  0  0  0  0  0  0  0  # atno 17343 bound_to 10162
  156.8749  130.9537  151.3605 LP  0  0  0  0  0  0  0  0  0  0  0  0  # atno 17370 bound_to 10713
  157.6208  130.8654  149.9106 LP  0  0  0  0  0  0  0  0  0  0  0  0  # atno 17371 bound_to 10713
  141.2052  133.7865  157.0244 LP  0  0  0  0  0  0  0  0  0  0  0  0  # atno 17394 bound_to 11000
  140.0825  134.9640  157.1647 LP  0  0  0  0  0  0  0  0  0  0  0  0  # atno 17395 bound_to 11000

$$$$
