AV-unprocessed.smi:1419|AV-procd|sdf|5779|dock2
  -GOLD-   22720 5423D 1   1.00000     0.00000
 Structure written by MMmdl.
 42 43  0  0  0  0  0  0  0  0  2 V2000
  143.0237  139.3484  156.0624 C   0  0  0  0  0  0  0  0  0  0  0  0
  143.6836  138.2388  155.2279 C   0  0  1  0  0  0  0  0  0  0  0  0
  142.7923  137.7436  154.0670 C   0  0  0  0  0  0  0  0  0  0  0  0
  143.1157  136.3802  153.6383 N   0  0  0  0  0  0  0  0  0  0  0  0
  143.9266  136.0020  152.5991 C   0  0  0  0  0  0  0  0  0  0  0  0
  143.9286  134.6308  152.5847 C   0  0  0  0  0  0  0  0  0  0  0  0
  143.1223  134.2309  153.6168 N   0  3  0  0  0  0  0  0  0  0  0  0
  142.6311  135.2964  154.2580 C   0  0  0  0  0  0  0  0  0  0  0  0
  144.9605  138.7244  154.7137 N   0  0  0  0  0  0  0  0  0  0  0  0
  146.1712  138.2436  155.0453 C   0  0  0  0  0  0  0  0  0  0  0  0
  146.3098  137.3151  155.8431 O   0  0  0  0  0  0  0  0  0  0  0  0
  147.2126  138.8548  154.4282 N   0  0  0  0  0  0  0  0  0  0  0  0
  148.6237  138.8271  154.8348 C   0  0  0  0  0  0  0  0  0  0  0  0
  149.0064  140.2306  155.3428 C   0  0  1  0  0  0  0  0  0  0  0  0
  150.4878  140.3205  155.7251 C   0  0  0  0  0  0  0  0  0  0  0  0
  148.7571  141.1940  154.3158 O   0  0  0  0  0  0  0  0  0  0  0  0
  147.4266  141.2108  153.7875 C   0  0  2  0  0  0  0  0  0  0  0  0
  146.4347  141.8371  154.7847 C   0  0  0  0  0  0  0  0  0  0  0  0
  147.0331  139.7938  153.3185 C   0  0  0  0  0  0  0  0  0  0  0  0
  142.1111  138.9983  156.5449 H   0  0  0  0  0  0  0  0  0  0  0  0
  142.7653  140.2086  155.4440 H   0  0  0  0  0  0  0  0  0  0  0  0
  143.6921  139.6950  156.8515 H   0  0  0  0  0  0  0  0  0  0  0  0
  143.8830  137.4010  155.8989 H   0  0  0  0  0  0  0  0  0  0  0  0
  141.7409  137.7615  154.3572 H   0  0  0  0  0  0  0  0  0  0  0  0
  142.8892  138.3926  153.1953 H   0  0  0  0  0  0  0  0  0  0  0  0
  144.4263  136.7176  151.9623 H   0  0  0  0  0  0  0  0  0  0  0  0
  144.4303  133.9286  151.9347 H   0  0  0  0  0  0  0  0  0  0  0  0
  141.9712  135.2845  155.1075 H   0  0  0  0  0  0  0  0  0  0  0  0
  144.9249  139.4875  154.0535 H   0  0  0  0  0  0  0  0  0  0  0  0
  148.8497  138.0808  155.5962 H   0  0  0  0  0  0  0  0  0  0  0  0
  149.2382  138.5588  153.9739 H   0  0  0  0  0  0  0  0  0  0  0  0
  148.4125  140.4743  156.2244 H   0  0  0  0  0  0  0  0  0  0  0  0
  150.7337  139.6110  156.5155 H   0  0  0  0  0  0  0  0  0  0  0  0
  150.7369  141.3188  156.0857 H   0  0  0  0  0  0  0  0  0  0  0  0
  151.1296  140.1054  154.8703 H   0  0  0  0  0  0  0  0  0  0  0  0
  147.4521  141.8588  152.9109 H   0  0  0  0  0  0  0  0  0  0  0  0
  145.4441  141.9264  154.3383 H   0  0  0  0  0  0  0  0  0  0  0  0
  146.7567  142.8375  155.0747 H   0  0  0  0  0  0  0  0  0  0  0  0
  146.3280  141.2466  155.6941 H   0  0  0  0  0  0  0  0  0  0  0  0
  147.6703  139.4877  152.4876 H   0  0  0  0  0  0  0  0  0  0  0  0
  146.0165  139.7985  152.9231 H   0  0  0  0  0  0  0  0  0  0  0  0
  142.9252  133.2686  153.8620 H   0  0  0  0  0  0  0  0  0  0  0  0
  1  2  1  0  0  0  0
  1 20  1  0  0  0  0
  1 21  1  0  0  0  0
  1 22  1  0  0  0  0
  2  3  1  0  0  0  0
  2  9  1  0  0  0  0
  2 23  1  0  0  0  0
  3  4  1  0  0  0  0
  3 24  1  0  0  0  0
  3 25  1  0  0  0  0
  4  8  1  0  0  0  0
  4  5  1  0  0  0  0
  5  6  2  0  0  0  0
  5 26  1  0  0  0  0
  6  7  1  0  0  0  0
  6 27  1  0  0  0  0
  7  8  2  0  0  0  0
  7 42  1  0  0  0  0
  8 28  1  0  0  0  0
  9 10  1  0  0  0  0
  9 29  1  0  0  0  0
 10 11  2  0  0  0  0
 10 12  1  0  0  0  0
 12 19  1  0  0  0  0
 12 13  1  0  0  0  0
 13 14  1  0  0  0  0
 13 30  1  0  0  0  0
 13 31  1  0  0  0  0
 14 15  1  0  0  0  0
 14 16  1  0  0  0  0
 14 32  1  0  0  0  0
 15 33  1  0  0  0  0
 15 34  1  0  0  0  0
 15 35  1  0  0  0  0
 16 17  1  0  0  0  0
 17 18  1  0  0  0  0
 17 19  1  0  0  0  0
 17 36  1  0  0  0  0
 18 37  1  0  0  0  0
 18 38  1  0  0  0  0
 18 39  1  0  0  0  0
 19 40  1  0  0  0  0
 19 41  1  0  0  0  0
M  CHG  1   7   1
M  END
> <s_m_source_file>
AV-unprocessed.smi

> <i_m_source_file_index>
1419

> <i_lp_mmshare_version>
43012

> <i_f3d_flags>
0

> <s_epik_input>
W2NIXTFuW2NIXVtjSF1uMVtDSDJdW0NAQEhdKFtDSDNdKVtOSF1DKD1PKU4yW0NIMl1bQ0BASF0oW0NIM10pT1tDQEBIXShbQ0gzXSlbQ0gyXTI=

> <s_epik_cmdline>
J2VwaWtfcHl0aG9uJywgJy1waCcsICc3LjAnLCAnLXRuJywgJzgnLCAnLW1hJywgJzIwMCcsICctbWV0YWxfYmluZGluZycsICctaW1hZScsICc8aW5maWxlLm1hZT4nLCAnLW9tYWUnLCAnPG91dGZpbGUubWFlPic=

> <r_lp_tautomer_probability>
1

> <r_epik_Ionization_Penalty>
0.253607

> <r_epik_Ionization_Penalty_Charging>
0

> <r_epik_Ionization_Penalty_Neutral>
0.253607

> <r_epik_State_Penalty>
0.245018

> <r_epik_Charging_Adjusted_Penalty>
0.245018

> <i_epik_Tot_Q>
1

> <i_epik_Tot_abs_Q>
1

> <r_epik_Metal_State_Penalty>
0.535379

> <b_epik_Metal_Only>
0

> <s_lp_Force_Field>
OPLS_2005

> <r_lp_Energy>
32.7532

> <b_lp_Chiralities_Consistent>
1

> <s_lp_Variant>
AV-unprocessed.smi:1419-6

> <Gold.Version>
5.8.1

> <Gold.Id.Protein>
6NUR|6NUR_protein|mol2

> <Gold.PLP.Fitness>
39.2266

> <Gold.PLP.PLP>
-25.8385

> <Gold.PLP.part.hbond>
-2.7313

> <Gold.PLP.part.metal>
0.0000

> <Gold.PLP.part.buried>
-2.7745

> <Gold.PLP.part.nonpolar>
-22.1575

> <Gold.PLP.part.repulsive>
1.4517

> <Gold.PLP.ligand.clash>
1.1683

> <Gold.PLP.ligand.torsion>
0.6890

> <Gold.PLP.Chemscore.Hbond>
3.4114

> <Gold.PLP.Chemscore.CHOScore>
1.8853

> <Gold.PLP.Chemscore.Metal>
0.0000

> <Gold.Chemscore.Hbonds>
donor molecule, donor type, donor heavy atom, donor atom, acceptor molecule, acceptor atom, score
      L1  H     7    42       P1 10957  2.00
      L1  H     9    29       P1 10175  0.43
      L1  C     5    26       P1 10171  0.07
      L1  C     8    28       P1 11000  0.94

> <Gold.PLP.Chemscore.Internal.Correction>
0.0445

> <Gold.Rescore>
     Score         DG    S(hbond)    S(metal)    S(lipo)     H(rot)  DE(clash)    DE(int)     intcor
     13.62     -14.14       2.02        0.00      51.87       1.63       0.06       0.46       ----

> <Gold.Chemscore.Fitness>
13.6150

> <Gold.Chemscore.DG>
-14.1357

> <Gold.Chemscore.ZeroCoef>
-5.4800

> <Gold.Chemscore.Hbond>
2.0219

> <Gold.Chemscore.Metal>
0.0000

> <Gold.Chemscore.Lipo>
51.8671

> <Gold.Chemscore.Internal_Hbond>
0.0000

> <Gold.Chemscore.DEClash>
0.0609

> <Gold.Chemscore.DEInternal>
0.4598

> <Gold.Chemscore.Rot>
1.6273

> <Gold.Chemscore.Internal.Correction>
   9.000000E+99

> <Gold.Chemscore.Hbonds>
donor molecule, donor type, donor heavy atom, donor atom, acceptor molecule, acceptor atom, score
      L1  H     7    42       P1 10957  1.00
      L1  H     9    29       P1 10175  0.41

> <Gold.Chemscore.Hbond.Weighted>
-6.7531

> <Gold.Chemscore.Metal.Weighted>
-0.0000

> <Gold.Chemscore.Lipo.Weighted>
-6.0684

> <Gold.Chemscore.Internal_Hbond.Weighted>
0.0000

> <Gold.Chemscore.DEClash.Weighted>
0.0609

> <Gold.Chemscore.DEInternal.Weighted>
0.4598

> <Gold.Chemscore.Rot.Weighted>
4.1658

> <Gold.Chemscore.Internal.Correction.Weighted>
   9.000000E+99

> <Gold.Protein.RotatedTorsions>
[ 6907 6896 6895 6894 ] final -147.05 input  -60.11 | X-H torsion
[ 7974 7965 7964 7962 ] final   31.98 input  175.53 | X-H torsion
[ 8008 7997 7996 7995 ] final   52.62 input   59.86 | X-H torsion
[ 10167 10162 10161 10158 ] final   87.72 input  -65.29 | X-H torsion
[ 10718 10713 10712 10709 ] final   28.34 input   66.30 | X-H torsion
[ 10763 10752 10751 10750 ] final   52.53 input  -60.55 | X-H torsion
[ 11005 11000 10999 10996 ] final  177.37 input  -57.11 | X-H torsion

> <Gold.Protein.ActiveResidues>
 VAL166  LYS551  ARG553  GLY616  TRP617  ASP618  TYR619  PRO620  LYS621  CYS622 
 ASP623  PHE694  ASN695  SER759  ASP760  ASP761  ALA762  ILE779  LEU786  VAL792 
 PHE793  MET794  SER795  GLU796  ALA797  LYS798  CYS799  TRP800  GLU811  SER814 

> <Gold.Protein.RotatedAtoms>
  151.1502  133.4912  159.2595 H   0  0  0  0  0  0  0  0  0  0  0  0  # atno 6907 bound_to 6896
  151.1562  135.0251  159.8700 H   0  0  0  0  0  0  0  0  0  0  0  0  # atno 6908 bound_to 6896
  152.5463  134.1381  159.8520 H   0  0  0  0  0  0  0  0  0  0  0  0  # atno 6909 bound_to 6896
  146.1516  139.6586  142.9095 H   0  0  0  0  0  0  0  0  0  0  0  0  # atno 7974 bound_to 7965
  155.4548  140.3459  155.4305 H   0  0  0  0  0  0  0  0  0  0  0  0  # atno 8008 bound_to 7997
  156.1198  140.1484  156.9250 H   0  0  0  0  0  0  0  0  0  0  0  0  # atno 8009 bound_to 7997
  154.4815  140.0868  156.7367 H   0  0  0  0  0  0  0  0  0  0  0  0  # atno 8010 bound_to 7997
  139.8745  144.6474  150.8912 H   0  0  0  0  0  0  0  0  0  0  0  0  # atno 10167 bound_to 10162
  157.2321  130.7029  149.6318 H   0  0  0  0  0  0  0  0  0  0  0  0  # atno 10718 bound_to 10713
  152.9789  135.5809  154.4593 H   0  0  0  0  0  0  0  0  0  0  0  0  # atno 10763 bound_to 10752
  154.4171  135.2771  155.2001 H   0  0  0  0  0  0  0  0  0  0  0  0  # atno 10764 bound_to 10752
  154.3766  135.6156  153.5822 H   0  0  0  0  0  0  0  0  0  0  0  0  # atno 10765 bound_to 10752
  140.3833  134.6927  157.4464 H   0  0  0  0  0  0  0  0  0  0  0  0  # atno 11005 bound_to 11000
  145.4810  141.0438  143.2646 LP  0  0  0  0  0  0  0  0  0  0  0  0  # atno 17320 bound_to 7965
  144.7911  139.6327  143.7113 LP  0  0  0  0  0  0  0  0  0  0  0  0  # atno 17321 bound_to 7965
  140.7755  143.3636  151.1781 LP  0  0  0  0  0  0  0  0  0  0  0  0  # atno 17342 bound_to 10162
  139.7253  143.9158  152.3000 LP  0  0  0  0  0  0  0  0  0  0  0  0  # atno 17343 bound_to 10162
  155.9675  130.4485  150.5623 LP  0  0  0  0  0  0  0  0  0  0  0  0  # atno 17370 bound_to 10713
  157.3467  131.0726  151.1746 LP  0  0  0  0  0  0  0  0  0  0  0  0  # atno 17371 bound_to 10713
  140.0462  134.6197  155.8919 LP  0  0  0  0  0  0  0  0  0  0  0  0  # atno 17394 bound_to 11000
  141.1916  133.6572  156.5463 LP  0  0  0  0  0  0  0  0  0  0  0  0  # atno 17395 bound_to 11000

$$$$
