AV-unprocessed.smi:2459|AV-procd|sdf|9712|dock6
  -GOLD-   2272013353D 1   1.00000     0.00000
 Structure written by MMmdl.
 47 48  0  0  0  0  0  0  0  0  2 V2000
  154.1614  135.5478  164.0561 C   0  0  0  0  0  0  0  0  0  0  0  0
  155.3950  135.6155  163.3438 O   0  0  0  0  0  0  0  0  0  0  0  0
  155.3721  135.4700  161.9180 C   0  0  0  0  0  0  0  0  0  0  0  0
  156.8488  135.5881  161.4928 C   0  0  0  0  0  0  0  0  0  0  0  0
  154.8533  134.0601  161.5395 C   0  0  0  0  0  0  0  0  0  0  0  0
  154.5598  136.6276  161.2818 C   0  0  0  0  0  0  0  0  0  0  0  0
  153.6716  136.3582  160.4734 O   0  0  0  0  0  0  0  0  0  0  0  0
  154.8805  137.8838  161.6502 N   0  0  0  0  0  0  0  0  0  0  0  0
  154.3282  139.1192  161.2148 C   0  0  0  0  0  0  0  0  0  0  0  0
  154.6241  140.3737  161.7985 C   0  0  0  0  0  0  0  0  0  0  0  0
  154.0305  141.4915  161.3291 N   0  3  0  0  0  0  0  0  0  0  0  0
  153.1385  141.5013  160.3088 C   0  0  0  0  0  0  0  0  0  0  0  0
  152.5657  142.7278  159.9229 N   0  0  0  0  0  0  0  0  0  0  0  0
  152.0225  143.4900  161.0456 C   0  0  0  0  0  0  0  0  0  0  0  0
  151.1330  144.6421  160.5475 C   0  0  0  0  0  0  0  0  0  0  0  0
  151.8894  145.5281  159.5449 C   0  0  0  0  0  0  0  0  0  0  0  0
  152.4576  144.6717  158.4021 C   0  0  0  0  0  0  0  0  0  0  0  0
  153.3190  143.5224  158.9528 C   0  0  0  0  0  0  0  0  0  0  0  0
  152.8016  140.2714  159.6863 C   0  0  0  0  0  0  0  0  0  0  0  0
  151.8267  140.2002  158.5225 C   0  0  0  0  0  0  0  0  0  0  0  0
  153.4006  139.0804  160.1529 C   0  0  0  0  0  0  0  0  0  0  0  0
  154.3622  135.6760  165.1196 H   0  0  0  0  0  0  0  0  0  0  0  0
  153.6722  134.5819  163.9357 H   0  0  0  0  0  0  0  0  0  0  0  0
  153.4644  136.3337  163.7648 H   0  0  0  0  0  0  0  0  0  0  0  0
  156.9602  135.5128  160.4104 H   0  0  0  0  0  0  0  0  0  0  0  0
  157.4496  134.7949  161.9393 H   0  0  0  0  0  0  0  0  0  0  0  0
  157.2883  136.5360  161.8063 H   0  0  0  0  0  0  0  0  0  0  0  0
  154.9550  133.8757  160.4691 H   0  0  0  0  0  0  0  0  0  0  0  0
  153.8044  133.9118  161.7962 H   0  0  0  0  0  0  0  0  0  0  0  0
  155.4228  133.2862  162.0550 H   0  0  0  0  0  0  0  0  0  0  0  0
  155.5897  137.9567  162.3652 H   0  0  0  0  0  0  0  0  0  0  0  0
  155.2945  140.5359  162.6287 H   0  0  0  0  0  0  0  0  0  0  0  0
  151.4482  142.8455  161.7106 H   0  0  0  0  0  0  0  0  0  0  0  0
  152.8504  143.8883  161.6338 H   0  0  0  0  0  0  0  0  0  0  0  0
  150.2396  144.2339  160.0728 H   0  0  0  0  0  0  0  0  0  0  0  0
  150.7894  145.2408  161.3916 H   0  0  0  0  0  0  0  0  0  0  0  0
  151.2278  146.2984  159.1477 H   0  0  0  0  0  0  0  0  0  0  0  0
  152.7028  146.0467  160.0541 H   0  0  0  0  0  0  0  0  0  0  0  0
  151.6377  144.2624  157.8101 H   0  0  0  0  0  0  0  0  0  0  0  0
  153.0480  145.2914  157.7267 H   0  0  0  0  0  0  0  0  0  0  0  0
  154.2119  143.9293  159.4297 H   0  0  0  0  0  0  0  0  0  0  0  0
  153.6525  142.8857  158.1323 H   0  0  0  0  0  0  0  0  0  0  0  0
  152.0141  139.3158  157.9129 H   0  0  0  0  0  0  0  0  0  0  0  0
  151.9177  141.0710  157.8729 H   0  0  0  0  0  0  0  0  0  0  0  0
  150.8015  140.1457  158.8882 H   0  0  0  0  0  0  0  0  0  0  0  0
  153.1510  138.1357  159.6913 H   0  0  0  0  0  0  0  0  0  0  0  0
  154.2606  142.3789  161.7765 H   0  0  0  0  0  0  0  0  0  0  0  0
  1  2  1  0  0  0  0
  1 22  1  0  0  0  0
  1 23  1  0  0  0  0
  1 24  1  0  0  0  0
  2  3  1  0  0  0  0
  3  4  1  0  0  0  0
  3  5  1  0  0  0  0
  3  6  1  0  0  0  0
  4 25  1  0  0  0  0
  4 26  1  0  0  0  0
  4 27  1  0  0  0  0
  5 28  1  0  0  0  0
  5 29  1  0  0  0  0
  5 30  1  0  0  0  0
  6  7  2  0  0  0  0
  6  8  1  0  0  0  0
  8  9  1  0  0  0  0
  8 31  1  0  0  0  0
  9 21  1  0  0  0  0
  9 10  2  0  0  0  0
 10 11  1  0  0  0  0
 10 32  1  0  0  0  0
 11 12  2  0  0  0  0
 11 47  1  0  0  0  0
 12 13  1  0  0  0  0
 12 19  1  0  0  0  0
 13 18  1  0  0  0  0
 13 14  1  0  0  0  0
 14 15  1  0  0  0  0
 14 33  1  0  0  0  0
 14 34  1  0  0  0  0
 15 16  1  0  0  0  0
 15 35  1  0  0  0  0
 15 36  1  0  0  0  0
 16 17  1  0  0  0  0
 16 37  1  0  0  0  0
 16 38  1  0  0  0  0
 17 18  1  0  0  0  0
 17 39  1  0  0  0  0
 17 40  1  0  0  0  0
 18 41  1  0  0  0  0
 18 42  1  0  0  0  0
 19 20  1  0  0  0  0
 19 21  2  0  0  0  0
 20 43  1  0  0  0  0
 20 44  1  0  0  0  0
 20 45  1  0  0  0  0
 21 46  1  0  0  0  0
M  CHG  1  11   1
M  END
> <s_m_source_file>
AV-unprocessed.smi

> <i_m_source_file_index>
2459

> <i_lp_mmshare_version>
43012

> <i_f3d_flags>
0

> <s_epik_input>
W0NIM11PQyhbQ0gzXSkoW0NIM10pQyg9TylbTkhdYzFbY0hdbmMoYyhbQ0gzXSlbY0hdMSlOMltDSDJdW0NIMl1bQ0gyXVtDSDJdW0NIMl0y

> <s_epik_cmdline>
J2VwaWtfcHl0aG9uJywgJy1waCcsICc3LjAnLCAnLXRuJywgJzgnLCAnLW1hJywgJzIwMCcsICctbWV0YWxfYmluZGluZycsICctaW1hZScsICc8aW5maWxlLm1hZT4nLCAnLW9tYWUnLCAnPG91dGZpbGUubWFlPic=

> <r_lp_tautomer_probability>
0.999994

> <r_epik_Ionization_Penalty>
1.22605

> <r_epik_Ionization_Penalty_Charging>
1.22604

> <r_epik_Ionization_Penalty_Neutral>
3.07462e-06

> <r_epik_State_Penalty>
0.10642

> <r_epik_Charging_Adjusted_Penalty>
1.33246

> <i_epik_Tot_Q>
1

> <i_epik_Tot_abs_Q>
1

> <r_epik_Metal_State_Penalty>
0.12082

> <b_epik_Metal_Only>
0

> <s_lp_Force_Field>
OPLS_2005

> <r_lp_Energy>
38.0416

> <b_lp_Chiralities_Consistent>
1

> <s_lp_Variant>
AV-unprocessed.smi:2459-1

> <Gold.Version>
5.8.1

> <Gold.Id.Protein>
6NUR|6NUR_protein|mol2

> <Gold.PLP.Fitness>
45.1344

> <Gold.PLP.PLP>
-43.3166

> <Gold.PLP.part.hbond>
-1.1465

> <Gold.PLP.part.metal>
0.0000

> <Gold.PLP.part.buried>
-6.3261

> <Gold.PLP.part.nonpolar>
-36.0383

> <Gold.PLP.part.repulsive>
0.0201

> <Gold.PLP.ligand.clash>
0.0000

> <Gold.PLP.ligand.torsion>
0.5837

> <Gold.PLP.Chemscore.Hbond>
0.8938

> <Gold.PLP.Chemscore.CHOScore>
0.0000

> <Gold.PLP.Chemscore.Metal>
0.0000

> <Gold.Chemscore.Hbonds>
donor molecule, donor type, donor heavy atom, donor atom, acceptor molecule, acceptor atom, score
      P1  H  6896  6909       L1     7  0.89

> <Gold.PLP.Chemscore.Internal.Correction>
0.3039

> <Gold.Rescore>
     Score         DG    S(hbond)    S(metal)    S(lipo)     H(rot)  DE(clash)    DE(int)     intcor
     17.45     -19.33       0.99        0.00     119.47       1.34       0.07       1.82       ----

> <Gold.Chemscore.Fitness>
17.4468

> <Gold.Chemscore.DG>
-19.3332

> <Gold.Chemscore.ZeroCoef>
-5.4800

> <Gold.Chemscore.Hbond>
0.9909

> <Gold.Chemscore.Metal>
0.0000

> <Gold.Chemscore.Lipo>
119.4724

> <Gold.Chemscore.Internal_Hbond>
0.0000

> <Gold.Chemscore.DEClash>
0.0692

> <Gold.Chemscore.DEInternal>
1.8172

> <Gold.Chemscore.Rot>
1.3416

> <Gold.Chemscore.Internal.Correction>
   9.000000E+99

> <Gold.Chemscore.Hbonds>
donor molecule, donor type, donor heavy atom, donor atom, acceptor molecule, acceptor atom, score
      P1  H  6896  6909       L1     7  0.87

> <Gold.Chemscore.Hbond.Weighted>
-3.3095

> <Gold.Chemscore.Metal.Weighted>
-0.0000

> <Gold.Chemscore.Lipo.Weighted>
-13.9783

> <Gold.Chemscore.Internal_Hbond.Weighted>
0.0000

> <Gold.Chemscore.DEClash.Weighted>
0.0692

> <Gold.Chemscore.DEInternal.Weighted>
1.8172

> <Gold.Chemscore.Rot.Weighted>
3.4346

> <Gold.Chemscore.Internal.Correction.Weighted>
   9.000000E+99

> <Gold.Protein.RotatedTorsions>
[ 6907 6896 6895 6894 ] final  162.38 input  -60.11 | X-H torsion
[ 7974 7965 7964 7962 ] final -133.52 input  175.53 | X-H torsion
[ 8008 7997 7996 7995 ] final  -23.93 input   59.86 | X-H torsion
[ 10167 10162 10161 10158 ] final   60.97 input  -65.29 | X-H torsion
[ 10718 10713 10712 10709 ] final   79.11 input   66.30 | X-H torsion
[ 10763 10752 10751 10750 ] final  141.41 input  -60.55 | X-H torsion
[ 11005 11000 10999 10996 ] final  -33.07 input  -57.11 | X-H torsion

> <Gold.Protein.ActiveResidues>
 VAL166  LYS551  ARG553  GLY616  TRP617  ASP618  TYR619  PRO620  LYS621  CYS622 
 ASP623  PHE694  ASN695  SER759  ASP760  ASP761  ALA762  ILE779  LEU786  VAL792 
 PHE793  MET794  SER795  GLU796  ALA797  LYS798  CYS799  TRP800  GLU811  SER814 

> <Gold.Protein.RotatedAtoms>
  151.9414  133.3639  159.3966 H   0  0  0  0  0  0  0  0  0  0  0  0  # atno 6907 bound_to 6896
  150.6998  134.4436  159.5313 H   0  0  0  0  0  0  0  0  0  0  0  0  # atno 6908 bound_to 6896
  152.2093  134.8516  160.0550 H   0  0  0  0  0  0  0  0  0  0  0  0  # atno 6909 bound_to 6896
  144.9186  140.6985  143.4980 H   0  0  0  0  0  0  0  0  0  0  0  0  # atno 7974 bound_to 7965
  154.4558  140.1967  156.0385 H   0  0  0  0  0  0  0  0  0  0  0  0  # atno 8008 bound_to 7997
  156.0742  140.3280  155.7585 H   0  0  0  0  0  0  0  0  0  0  0  0  # atno 8009 bound_to 7997
  155.5215  140.0570  157.2896 H   0  0  0  0  0  0  0  0  0  0  0  0  # atno 8010 bound_to 7997
  140.1598  144.4382  150.6715 H   0  0  0  0  0  0  0  0  0  0  0  0  # atno 10167 bound_to 10162
  157.6766  130.9899  150.1885 H   0  0  0  0  0  0  0  0  0  0  0  0  # atno 10718 bound_to 10713
  153.9388  135.2982  155.3443 H   0  0  0  0  0  0  0  0  0  0  0  0  # atno 10763 bound_to 10752
  154.7488  135.4990  153.9255 H   0  0  0  0  0  0  0  0  0  0  0  0  # atno 10764 bound_to 10752
  153.1053  135.6745  153.9704 H   0  0  0  0  0  0  0  0  0  0  0  0  # atno 10765 bound_to 10752
  140.9604  133.7167  156.1361 H   0  0  0  0  0  0  0  0  0  0  0  0  # atno 11005 bound_to 11000
  145.3334  139.1753  143.4524 LP  0  0  0  0  0  0  0  0  0  0  0  0  # atno 17320 bound_to 7965
  146.3194  140.3367  142.8644 LP  0  0  0  0  0  0  0  0  0  0  0  0  # atno 17321 bound_to 7965
  140.6650  143.2265  151.5764 LP  0  0  0  0  0  0  0  0  0  0  0  0  # atno 17342 bound_to 10162
  139.5386  144.2709  152.1305 LP  0  0  0  0  0  0  0  0  0  0  0  0  # atno 17343 bound_to 10162
  156.2601  130.3710  149.8139 LP  0  0  0  0  0  0  0  0  0  0  0  0  # atno 17370 bound_to 10713
  156.5887  130.8497  151.3402 LP  0  0  0  0  0  0  0  0  0  0  0  0  # atno 17371 bound_to 10713
  140.7475  134.4082  157.5546 LP  0  0  0  0  0  0  0  0  0  0  0  0  # atno 17394 bound_to 11000
  139.8876  134.8878  156.2518 LP  0  0  0  0  0  0  0  0  0  0  0  0  # atno 17395 bound_to 11000

$$$$
