AV-unprocessed.smi:895|AV-procd|sdf|4074|dock9
  -GOLD-   22720 1563D 1   1.00000     0.00000
 Structure written by MMmdl.
 44 45  0  0  0  0  0  0  0  0  1 V2000
  146.6755  133.7494  151.7480 C   0  0  0  0  0  0  0  0  0  0  0  0
  147.1921  132.9597  152.9662 C   0  0  0  0  0  0  0  0  0  0  0  0
  146.2737  131.7610  153.2571 C   0  0  0  0  0  0  0  0  0  0  0  0
  148.4583  132.4199  152.6414 O   0  0  0  0  0  0  0  0  0  0  0  0
  147.3544  133.8255  154.2362 C   0  0  0  0  0  0  0  0  0  0  0  0
  148.2555  134.9530  154.0294 N   0  0  0  0  0  0  0  0  0  0  0  0
  148.7781  135.6941  155.0134 C   0  0  0  0  0  0  0  0  0  0  0  0
  148.5563  135.5061  156.2097 O   0  0  0  0  0  0  0  0  0  0  0  0
  149.5697  136.6630  154.5352 N   0  0  0  0  0  0  0  0  0  0  0  0
  150.2950  137.6457  155.3388 C   0  0  1  0  0  0  0  0  0  0  0  0
  151.4193  138.3067  154.5126 C   0  0  0  0  0  0  0  0  0  0  0  0
  152.1717  139.3619  155.3378 C   0  0  0  0  0  0  0  0  0  0  0  0
  151.2175  140.4251  155.9025 C   0  0  0  0  0  0  0  0  0  0  0  0
  150.0843  139.7842  156.7255 C   0  0  0  0  0  0  0  0  0  0  0  0
  149.3170  138.6737  155.9701 C   0  0  1  0  0  0  0  0  0  0  0  0
  148.3245  139.2084  155.0347 N   0  0  0  0  0  0  0  0  0  0  0  0
  148.5621  139.9905  153.9217 C   0  0  0  0  0  0  0  0  0  0  0  0
  147.3565  140.2739  153.3474 C   0  0  0  0  0  0  0  0  0  0  0  0
  146.4207  139.6137  154.1894 C   0  0  0  0  0  0  0  0  0  0  0  0
  147.0011  138.9807  155.1947 N   0  0  0  0  0  0  0  0  0  0  0  0
  145.7155  134.2191  151.9641 H   0  0  0  0  0  0  0  0  0  0  0  0
  146.5349  133.0967  150.8857 H   0  0  0  0  0  0  0  0  0  0  0  0
  147.3682  134.5351  151.4450 H   0  0  0  0  0  0  0  0  0  0  0  0
  145.2654  132.0907  153.5098 H   0  0  0  0  0  0  0  0  0  0  0  0
  146.6443  131.1679  154.0940 H   0  0  0  0  0  0  0  0  0  0  0  0
  146.1948  131.0994  152.3934 H   0  0  0  0  0  0  0  0  0  0  0  0
  148.3866  131.9594  151.8192 H   0  0  0  0  0  0  0  0  0  0  0  0
  146.3817  134.2255  154.5277 H   0  0  0  0  0  0  0  0  0  0  0  0
  147.7054  133.2194  155.0735 H   0  0  0  0  0  0  0  0  0  0  0  0
  148.4977  135.1760  153.0752 H   0  0  0  0  0  0  0  0  0  0  0  0
  149.6891  136.7252  153.5346 H   0  0  0  0  0  0  0  0  0  0  0  0
  150.7721  137.1222  156.1699 H   0  0  0  0  0  0  0  0  0  0  0  0
  152.1251  137.5476  154.1739 H   0  0  0  0  0  0  0  0  0  0  0  0
  151.0166  138.7639  153.6091 H   0  0  0  0  0  0  0  0  0  0  0  0
  152.6973  138.8732  156.1589 H   0  0  0  0  0  0  0  0  0  0  0  0
  152.9357  139.8380  154.7226 H   0  0  0  0  0  0  0  0  0  0  0  0
  151.7755  141.1201  156.5304 H   0  0  0  0  0  0  0  0  0  0  0  0
  150.8084  141.0230  155.0889 H   0  0  0  0  0  0  0  0  0  0  0  0
  150.5207  139.3507  157.6262 H   0  0  0  0  0  0  0  0  0  0  0  0
  149.3919  140.5528  157.0708 H   0  0  0  0  0  0  0  0  0  0  0  0
  148.7419  138.1327  156.7235 H   0  0  0  0  0  0  0  0  0  0  0  0
  149.5618  140.2809  153.6338 H   0  0  0  0  0  0  0  0  0  0  0  0
  147.1717  140.8634  152.4619 H   0  0  0  0  0  0  0  0  0  0  0  0
  145.3448  139.5766  154.1017 H   0  0  0  0  0  0  0  0  0  0  0  0
  1  2  1  0  0  0  0
  1 21  1  0  0  0  0
  1 22  1  0  0  0  0
  1 23  1  0  0  0  0
  2  3  1  0  0  0  0
  2  4  1  0  0  0  0
  2  5  1  0  0  0  0
  3 24  1  0  0  0  0
  3 25  1  0  0  0  0
  3 26  1  0  0  0  0
  4 27  1  0  0  0  0
  5  6  1  0  0  0  0
  5 28  1  0  0  0  0
  5 29  1  0  0  0  0
  6  7  1  0  0  0  0
  6 30  1  0  0  0  0
  7  8  2  0  0  0  0
  7  9  1  0  0  0  0
  9 10  1  0  0  0  0
  9 31  1  0  0  0  0
 10 15  1  0  0  0  0
 10 11  1  0  0  0  0
 10 32  1  0  0  0  0
 11 12  1  0  0  0  0
 11 33  1  0  0  0  0
 11 34  1  0  0  0  0
 12 13  1  0  0  0  0
 12 35  1  0  0  0  0
 12 36  1  0  0  0  0
 13 14  1  0  0  0  0
 13 37  1  0  0  0  0
 13 38  1  0  0  0  0
 14 15  1  0  0  0  0
 14 39  1  0  0  0  0
 14 40  1  0  0  0  0
 15 16  1  0  0  0  0
 15 41  1  0  0  0  0
 16 20  1  0  0  0  0
 16 17  1  0  0  0  0
 17 18  2  0  0  0  0
 17 42  1  0  0  0  0
 18 19  1  0  0  0  0
 18 43  1  0  0  0  0
 19 20  2  0  0  0  0
 19 44  1  0  0  0  0
M  END
> <s_m_source_file>
AV-unprocessed.smi

> <i_m_source_file_index>
895

> <i_lp_mmshare_version>
43012

> <i_f3d_flags>
0

> <s_epik_input>
W0NIM11DKFtDSDNdKShbT0hdKVtDSDJdW05IXUMoPU8pW05IXVtDQEBIXTFbQ0gyXVtDSDJdW0NIMl1bQ0gyXVtDQEhdMW4yW2NIXVtjSF1bY0hdbjI=

> <s_epik_cmdline>
J2VwaWtfcHl0aG9uJywgJy1waCcsICc3LjAnLCAnLXRuJywgJzgnLCAnLW1hJywgJzIwMCcsICctbWV0YWxfYmluZGluZycsICctaW1hZScsICc8aW5maWxlLm1hZT4nLCAnLW9tYWUnLCAnPG91dGZpbGUubWFlPic=

> <r_lp_tautomer_probability>
1

> <r_epik_Ionization_Penalty>
0.000440451

> <r_epik_Ionization_Penalty_Charging>
0

> <r_epik_Ionization_Penalty_Neutral>
0.000440451

> <r_epik_State_Penalty>
-0

> <r_epik_Charging_Adjusted_Penalty>
0

> <i_epik_Tot_Q>
0

> <i_epik_Tot_abs_Q>
0

> <r_epik_Metal_State_Penalty>
-0

> <b_epik_Metal_Only>
0

> <s_lp_Force_Field>
OPLS_2005

> <r_lp_Energy>
15.0391

> <b_lp_Chiralities_Consistent>
1

> <s_lp_Variant>
AV-unprocessed.smi:895-2

> <Gold.Version>
5.8.1

> <Gold.Id.Protein>
6NUR|6NUR_protein|mol2

> <Gold.PLP.Fitness>
38.8204

> <Gold.PLP.PLP>
-26.0457

> <Gold.PLP.part.hbond>
-3.0000

> <Gold.PLP.part.metal>
0.0000

> <Gold.PLP.part.buried>
-0.1398

> <Gold.PLP.part.nonpolar>
-22.3815

> <Gold.PLP.part.repulsive>
0.0876

> <Gold.PLP.ligand.clash>
0.0000

> <Gold.PLP.ligand.torsion>
0.2950

> <Gold.PLP.Chemscore.Hbond>
2.8960

> <Gold.PLP.Chemscore.CHOScore>
1.5261

> <Gold.PLP.Chemscore.Metal>
0.0000

> <Gold.Chemscore.Hbonds>
donor molecule, donor type, donor heavy atom, donor atom, acceptor molecule, acceptor atom, score
      L1  H     4    27       P1 10747  1.00
      L1  H     6    30       P1  7948  1.00
      L1  H     9    31       P1  7948  0.91
      L1  C    17    42       P1  7957  0.50
      L1  C    19    44       P1 10175  1.00

> <Gold.PLP.Chemscore.Internal.Correction>
0.0984

> <Gold.Rescore>
     Score         DG    S(hbond)    S(metal)    S(lipo)     H(rot)  DE(clash)    DE(int)     intcor
     16.09     -16.54       2.69        0.00      65.63       2.19       0.02       0.43       ----

> <Gold.Chemscore.Fitness>
16.0922

> <Gold.Chemscore.DG>
-16.5418

> <Gold.Chemscore.ZeroCoef>
-5.4800

> <Gold.Chemscore.Hbond>
2.6930

> <Gold.Chemscore.Metal>
0.0000

> <Gold.Chemscore.Lipo>
65.6294

> <Gold.Chemscore.Internal_Hbond>
0.0000

> <Gold.Chemscore.DEClash>
0.0232

> <Gold.Chemscore.DEInternal>
0.4264

> <Gold.Chemscore.Rot>
2.1919

> <Gold.Chemscore.Internal.Correction>
   9.000000E+99

> <Gold.Chemscore.Hbonds>
donor molecule, donor type, donor heavy atom, donor atom, acceptor molecule, acceptor atom, score
      L1  H     4    27       P1 10747  0.96
      L1  H     6    30       P1  7948  0.83
      L1  H     9    31       P1  7948  0.49

> <Gold.Chemscore.Hbond.Weighted>
-8.9945

> <Gold.Chemscore.Metal.Weighted>
-0.0000

> <Gold.Chemscore.Lipo.Weighted>
-7.6786

> <Gold.Chemscore.Internal_Hbond.Weighted>
0.0000

> <Gold.Chemscore.DEClash.Weighted>
0.0232

> <Gold.Chemscore.DEInternal.Weighted>
0.4264

> <Gold.Chemscore.Rot.Weighted>
5.6113

> <Gold.Chemscore.Internal.Correction.Weighted>
   9.000000E+99

> <Gold.Protein.RotatedTorsions>
[ 6907 6896 6895 6894 ] final   34.41 input  -60.11 | X-H torsion
[ 7974 7965 7964 7962 ] final   26.24 input  175.53 | X-H torsion
[ 8008 7997 7996 7995 ] final   -7.97 input   59.86 | X-H torsion
[ 10167 10162 10161 10158 ] final   94.59 input  -65.29 | X-H torsion
[ 10718 10713 10712 10709 ] final -102.67 input   66.30 | X-H torsion
[ 10763 10752 10751 10750 ] final   27.17 input  -60.55 | X-H torsion
[ 11005 11000 10999 10996 ] final    1.56 input  -57.11 | X-H torsion

> <Gold.Protein.ActiveResidues>
 VAL166  LYS551  ARG553  GLY616  TRP617  ASP618  TYR619  PRO620  LYS621  CYS622 
 ASP623  PHE694  ASN695  SER759  ASP760  ASP761  ALA762  ILE779  LEU786  VAL792 
 PHE793  MET794  SER795  GLU796  ALA797  LYS798  CYS799  TRP800  GLU811  SER814 

> <Gold.Protein.RotatedAtoms>
  152.1020  134.9334  160.0569 H   0  0  0  0  0  0  0  0  0  0  0  0  # atno 6907 bound_to 6896
  152.0545  133.4029  159.4399 H   0  0  0  0  0  0  0  0  0  0  0  0  # atno 6908 bound_to 6896
  150.6840  134.3191  159.4822 H   0  0  0  0  0  0  0  0  0  0  0  0  # atno 6909 bound_to 6896
  146.1848  139.7356  142.8875 H   0  0  0  0  0  0  0  0  0  0  0  0  # atno 7974 bound_to 7965
  154.5787  140.2393  155.8085 H   0  0  0  0  0  0  0  0  0  0  0  0  # atno 8008 bound_to 7997
  156.2162  140.3011  155.9802 H   0  0  0  0  0  0  0  0  0  0  0  0  # atno 8009 bound_to 7997
  155.2581  140.0413  157.2985 H   0  0  0  0  0  0  0  0  0  0  0  0  # atno 8010 bound_to 7997
  139.8069  144.6790  150.9691 H   0  0  0  0  0  0  0  0  0  0  0  0  # atno 10167 bound_to 10162
  156.0237  130.5431  150.7142 H   0  0  0  0  0  0  0  0  0  0  0  0  # atno 10718 bound_to 10713
  153.0573  135.6543  154.0546 H   0  0  0  0  0  0  0  0  0  0  0  0  # atno 10763 bound_to 10752
  154.0222  135.2919  155.3381 H   0  0  0  0  0  0  0  0  0  0  0  0  # atno 10764 bound_to 10752
  154.6895  135.5288  153.8439 H   0  0  0  0  0  0  0  0  0  0  0  0  # atno 10765 bound_to 10752
  140.6141  133.9721  155.8192 H   0  0  0  0  0  0  0  0  0  0  0  0  # atno 11005 bound_to 11000
  145.3971  141.0380  143.3091 LP  0  0  0  0  0  0  0  0  0  0  0  0  # atno 17320 bound_to 7965
  144.8377  139.5522  143.6914 LP  0  0  0  0  0  0  0  0  0  0  0  0  # atno 17321 bound_to 7965
  140.7819  143.4224  151.0820 LP  0  0  0  0  0  0  0  0  0  0  0  0  # atno 17342 bound_to 10162
  139.7893  143.8242  152.3149 LP  0  0  0  0  0  0  0  0  0  0  0  0  # atno 17343 bound_to 10162
  157.4773  131.0899  151.0576 LP  0  0  0  0  0  0  0  0  0  0  0  0  # atno 17370 bound_to 10713
  157.1019  130.5985  149.5462 LP  0  0  0  0  0  0  0  0  0  0  0  0  # atno 17371 bound_to 10713
  141.0788  134.0094  157.3418 LP  0  0  0  0  0  0  0  0  0  0  0  0  # atno 17394 bound_to 11000
  139.9180  135.0198  156.7956 LP  0  0  0  0  0  0  0  0  0  0  0  0  # atno 17395 bound_to 11000

$$$$
