AV-unprocessed.smi:3020|AV-procd|sdf|11497|dock6
  -GOLD-   2272016433D 1   1.00000     0.00000
 Structure written by MMmdl.
 28 29  0  0  0  0  0  0  0  0  1 V2000
  153.8354  139.2864  158.3145 O   0  0  0  0  0  0  0  0  0  0  0  0
  152.8288  139.9448  158.5760 C   0  0  0  0  0  0  0  0  0  0  0  0
  152.8377  140.8758  159.7885 C   0  0  0  0  0  0  0  0  0  0  0  0
  152.4531  142.1808  159.3829 O   0  0  0  0  0  0  0  0  0  0  0  0
  152.5302  143.1239  160.4373 C   0  0  0  0  0  0  0  0  0  0  0  0
  152.3582  144.5147  159.8655 C   0  0  0  0  0  0  0  0  0  0  0  0
  151.0665  144.9161  159.1899 C   0  0  0  0  0  0  0  0  0  0  0  0
  152.3171  144.7271  158.3693 C   0  0  0  0  0  0  0  0  0  0  0  0
  151.6934  139.9271  157.8525 N   0  0  0  0  0  0  0  0  0  0  0  0
  151.4059  139.1675  156.6887 C   0  0  0  0  0  0  0  0  0  0  0  0
  152.0142  137.8916  156.6223 C   0  0  0  0  0  0  0  0  0  0  0  0
  151.8358  137.0517  155.5785 N   0  0  0  0  0  0  0  0  0  0  0  0
  151.0369  137.4888  154.5818 C   0  0  0  0  0  0  0  0  0  0  0  0
  150.4222  138.7559  154.6309 C   0  0  0  0  0  0  0  0  0  0  0  0
  150.6051  139.5905  155.6772 N   0  0  0  0  0  0  0  0  0  0  0  0
  152.1509  140.4980  160.5478 H   0  0  0  0  0  0  0  0  0  0  0  0
  153.8403  140.8883  160.2189 H   0  0  0  0  0  0  0  0  0  0  0  0
  151.7428  142.9415  161.1700 H   0  0  0  0  0  0  0  0  0  0  0  0
  153.4913  143.0495  160.9492 H   0  0  0  0  0  0  0  0  0  0  0  0
  152.8615  145.2907  160.4395 H   0  0  0  0  0  0  0  0  0  0  0  0
  150.2865  144.1629  159.0980 H   0  0  0  0  0  0  0  0  0  0  0  0
  150.7151  145.9342  159.3452 H   0  0  0  0  0  0  0  0  0  0  0  0
  152.7991  145.6195  157.9752 H   0  0  0  0  0  0  0  0  0  0  0  0
  152.3685  143.8484  157.7293 H   0  0  0  0  0  0  0  0  0  0  0  0
  150.9464  140.5209  158.1829 H   0  0  0  0  0  0  0  0  0  0  0  0
  152.6541  137.5370  157.4174 H   0  0  0  0  0  0  0  0  0  0  0  0
  150.8869  136.8259  153.7425 H   0  0  0  0  0  0  0  0  0  0  0  0
  149.7839  139.1006  153.8310 H   0  0  0  0  0  0  0  0  0  0  0  0
  1  2  2  0  0  0  0
  2  3  1  0  0  0  0
  2  9  1  0  0  0  0
  3  4  1  0  0  0  0
  3 16  1  0  0  0  0
  3 17  1  0  0  0  0
  4  5  1  0  0  0  0
  5  6  1  0  0  0  0
  5 18  1  0  0  0  0
  5 19  1  0  0  0  0
  6  8  1  0  0  0  0
  6  7  1  0  0  0  0
  6 20  1  0  0  0  0
  7  8  1  0  0  0  0
  7 21  1  0  0  0  0
  7 22  1  0  0  0  0
  8 23  1  0  0  0  0
  8 24  1  0  0  0  0
  9 10  1  0  0  0  0
  9 25  1  0  0  0  0
 10 15  1  0  0  0  0
 10 11  2  0  0  0  0
 11 12  1  0  0  0  0
 11 26  1  0  0  0  0
 12 13  2  0  0  0  0
 13 14  1  0  0  0  0
 13 27  1  0  0  0  0
 14 15  2  0  0  0  0
 14 28  1  0  0  0  0
M  END
> <s_m_source_file>
AV-unprocessed.smi

> <i_m_source_file_index>
3020

> <i_lp_mmshare_version>
43012

> <i_f3d_flags>
0

> <s_epik_input>
W0NIMl0xW0NIMl1bQ0hdMVtDSDJdT1tDSDJdQyg9TylbTkhdYzJbY0hdbltjSF1bY0hdbjI=

> <s_epik_cmdline>
J2VwaWtfcHl0aG9uJywgJy1waCcsICc3LjAnLCAnLXRuJywgJzgnLCAnLW1hJywgJzIwMCcsICctbWV0YWxfYmluZGluZycsICctaW1hZScsICc8aW5maWxlLm1hZT4nLCAnLW9tYWUnLCAnPG91dGZpbGUubWFlPic=

> <r_lp_tautomer_probability>
1

> <r_epik_Ionization_Penalty>
2.93955e-06

> <r_epik_Ionization_Penalty_Charging>
0

> <r_epik_Ionization_Penalty_Neutral>
2.93955e-06

> <r_epik_State_Penalty>
-0

> <r_epik_Charging_Adjusted_Penalty>
0

> <i_epik_Tot_Q>
0

> <i_epik_Tot_abs_Q>
0

> <r_epik_Metal_State_Penalty>
-0

> <b_epik_Metal_Only>
0

> <s_lp_Force_Field>
OPLS_2005

> <r_lp_Energy>
21.027

> <b_lp_Chiralities_Consistent>
1

> <s_lp_Variant>
AV-unprocessed.smi:3020-1

> <Gold.Version>
5.8.1

> <Gold.Id.Protein>
6NUR|6NUR_protein|mol2

> <Gold.PLP.Fitness>
43.8530

> <Gold.PLP.PLP>
-32.7394

> <Gold.PLP.part.hbond>
-2.0000

> <Gold.PLP.part.metal>
0.0000

> <Gold.PLP.part.buried>
-5.0473

> <Gold.PLP.part.nonpolar>
-25.9782

> <Gold.PLP.part.repulsive>
0.1525

> <Gold.PLP.ligand.clash>
0.0000

> <Gold.PLP.ligand.torsion>
0.6630

> <Gold.PLP.Chemscore.Hbond>
1.9600

> <Gold.PLP.Chemscore.CHOScore>
2.0022

> <Gold.PLP.Chemscore.Metal>
0.0000

> <Gold.Chemscore.Hbonds>
donor molecule, donor type, donor heavy atom, donor atom, acceptor molecule, acceptor atom, score
      P1  H  7997  8009       L1     1  1.00
      P1  H 10752 10764       L1    12  0.94
      L1  C    13    27       P1  7948  0.14
      L1  C    13    27       P1  7949  0.92
      L1  C    14    28       P1  7957  0.25

> <Gold.PLP.Chemscore.Internal.Correction>
0.5531

> <Gold.Rescore>
     Score         DG    S(hbond)    S(metal)    S(lipo)     H(rot)  DE(clash)    DE(int)     intcor
     14.04     -16.11       1.67        0.00      81.53       1.75       0.06       2.01       ----

> <Gold.Chemscore.Fitness>
14.0431

> <Gold.Chemscore.DG>
-16.1063

> <Gold.Chemscore.ZeroCoef>
-5.4800

> <Gold.Chemscore.Hbond>
1.6658

> <Gold.Chemscore.Metal>
0.0000

> <Gold.Chemscore.Lipo>
81.5308

> <Gold.Chemscore.Internal_Hbond>
0.0000

> <Gold.Chemscore.DEClash>
0.0554

> <Gold.Chemscore.DEInternal>
2.0079

> <Gold.Chemscore.Rot>
1.7487

> <Gold.Chemscore.Internal.Correction>
   9.000000E+99

> <Gold.Chemscore.Hbonds>
donor molecule, donor type, donor heavy atom, donor atom, acceptor molecule, acceptor atom, score
      P1  H  7997  8009       L1     1  0.90
      P1  H 10752 10764       L1    12  0.39

> <Gold.Chemscore.Hbond.Weighted>
-5.5639

> <Gold.Chemscore.Metal.Weighted>
-0.0000

> <Gold.Chemscore.Lipo.Weighted>
-9.5391

> <Gold.Chemscore.Internal_Hbond.Weighted>
0.0000

> <Gold.Chemscore.DEClash.Weighted>
0.0554

> <Gold.Chemscore.DEInternal.Weighted>
2.0079

> <Gold.Chemscore.Rot.Weighted>
4.4767

> <Gold.Chemscore.Internal.Correction.Weighted>
   9.000000E+99

> <Gold.Protein.RotatedTorsions>
[ 6907 6896 6895 6894 ] final  153.76 input  -60.11 | X-H torsion
[ 7974 7965 7964 7962 ] final  -94.04 input  175.53 | X-H torsion
[ 8008 7997 7996 7995 ] final  131.17 input   59.86 | X-H torsion
[ 10167 10162 10161 10158 ] final -155.68 input  -65.29 | X-H torsion
[ 10718 10713 10712 10709 ] final -151.32 input   66.30 | X-H torsion
[ 10763 10752 10751 10750 ] final  -53.73 input  -60.55 | X-H torsion
[ 11005 11000 10999 10996 ] final -143.34 input  -57.11 | X-H torsion

> <Gold.Protein.ActiveResidues>
 VAL166  LYS551  ARG553  GLY616  TRP617  ASP618  TYR619  PRO620  LYS621  CYS622 
 ASP623  PHE694  ASN695  SER759  ASP760  ASP761  ALA762  ILE779  LEU786  VAL792 
 PHE793  MET794  SER795  GLU796  ALA797  LYS798  CYS799  TRP800  GLU811  SER814 

> <Gold.Protein.RotatedAtoms>
  152.0680  133.4093  159.4446 H   0  0  0  0  0  0  0  0  0  0  0  0  # atno 6907 bound_to 6896
  150.6864  134.3124  159.4761 H   0  0  0  0  0  0  0  0  0  0  0  0  # atno 6908 bound_to 6896
  152.0952  134.9379  160.0621 H   0  0  0  0  0  0  0  0  0  0  0  0  # atno 6909 bound_to 6896
  145.3786  140.9514  143.2407 H   0  0  0  0  0  0  0  0  0  0  0  0  # atno 7974 bound_to 7965
  156.2966  140.2578  156.2881 H   0  0  0  0  0  0  0  0  0  0  0  0  # atno 8008 bound_to 7997
  154.9536  140.0394  157.2175 H   0  0  0  0  0  0  0  0  0  0  0  0  # atno 8009 bound_to 7997
  154.8012  140.2828  155.5924 H   0  0  0  0  0  0  0  0  0  0  0  0  # atno 8010 bound_to 7997
  139.6911  143.9418  152.2385 H   0  0  0  0  0  0  0  0  0  0  0  0  # atno 10167 bound_to 10162
  156.4578  130.8198  151.2429 H   0  0  0  0  0  0  0  0  0  0  0  0  # atno 10718 bound_to 10713
  154.1636  135.6471  153.4992 H   0  0  0  0  0  0  0  0  0  0  0  0  # atno 10763 bound_to 10752
  153.0104  135.5366  154.6686 H   0  0  0  0  0  0  0  0  0  0  0  0  # atno 10764 bound_to 10752
  154.6006  135.2943  155.0511 H   0  0  0  0  0  0  0  0  0  0  0  0  # atno 10765 bound_to 10752
  140.8135  134.2717  157.4931 H   0  0  0  0  0  0  0  0  0  0  0  0  # atno 11005 bound_to 11000
  144.8524  139.5301  143.6850 LP  0  0  0  0  0  0  0  0  0  0  0  0  # atno 17320 bound_to 7965
  146.2853  139.6986  142.9200 LP  0  0  0  0  0  0  0  0  0  0  0  0  # atno 17321 bound_to 7965
  139.9235  144.6785  150.8437 LP  0  0  0  0  0  0  0  0  0  0  0  0  # atno 17342 bound_to 10162
  140.7683  143.3358  151.2311 LP  0  0  0  0  0  0  0  0  0  0  0  0  # atno 17343 bound_to 10162
  157.7499  131.0117  150.3356 LP  0  0  0  0  0  0  0  0  0  0  0  0  # atno 17370 bound_to 10713
  156.3749  130.3870  149.7147 LP  0  0  0  0  0  0  0  0  0  0  0  0  # atno 17371 bound_to 10713
  139.8712  134.9496  156.4030 LP  0  0  0  0  0  0  0  0  0  0  0  0  # atno 17394 bound_to 11000
  140.9174  133.7669  155.9864 LP  0  0  0  0  0  0  0  0  0  0  0  0  # atno 17395 bound_to 11000

$$$$
