AV-unprocessed.smi:3336|AV-procd|sdf|12855|dock4
  -GOLD-   2272019253D 1   1.00000     0.00000
 Structure written by MMmdl.
 42 43  0  0  0  0  0  0  0  0  2 V2000
  147.2132  133.3221  155.2668 C   0  0  0  0  0  0  0  0  0  0  0  0
  147.3904  134.3125  154.1034 C   0  0  2  0  0  0  0  0  0  0  0  0
  147.0996  133.6608  152.7311 C   0  0  0  0  0  0  0  0  0  0  0  0
  145.7786  133.9781  152.2200 N   0  0  0  0  0  0  0  0  0  0  0  0
  145.4377  134.5305  151.0030 C   0  0  0  0  0  0  0  0  0  0  0  0
  144.0776  134.6485  150.9780 C   0  0  0  0  0  0  0  0  0  0  0  0
  143.6707  134.1425  152.2442 C   0  0  0  0  0  0  0  0  0  0  0  0
  144.6917  133.7441  152.9862 N   0  0  0  0  0  0  0  0  0  0  0  0
  148.7626  134.8717  154.1507 N   0  3  0  0  0  0  0  0  0  0  0  0
  148.9927  136.0273  155.0526 C   0  0  1  0  0  0  0  0  0  0  0  0
  148.6026  135.6801  156.5062 C   0  0  0  0  0  0  0  0  0  0  0  0
  150.4690  136.4656  154.9495 C   0  0  0  0  0  0  0  0  0  0  0  0
  151.3432  135.6581  155.2679 O   0  0  0  0  0  0  0  0  0  0  0  0
  150.7786  137.7048  154.4906 N   0  0  0  0  0  0  0  0  0  0  0  0
  149.7615  138.6976  154.1277 C   0  0  0  0  0  0  0  0  0  0  0  0
  149.8669  139.8818  155.1058 C   0  0  0  0  0  0  0  0  0  0  0  0
  151.1815  140.4309  155.0537 O   0  0  0  0  0  0  0  0  0  0  0  0
  152.1986  139.4827  155.3656 C   0  0  0  0  0  0  0  0  0  0  0  0
  152.1170  138.2969  154.3879 C   0  0  0  0  0  0  0  0  0  0  0  0
  146.1891  132.9529  155.3289 H   0  0  0  0  0  0  0  0  0  0  0  0
  147.4402  133.7953  156.2228 H   0  0  0  0  0  0  0  0  0  0  0  0
  147.8718  132.4596  155.1579 H   0  0  0  0  0  0  0  0  0  0  0  0
  146.6775  135.1200  154.2665 H   0  0  0  0  0  0  0  0  0  0  0  0
  147.8259  133.9792  151.9835 H   0  0  0  0  0  0  0  0  0  0  0  0
  147.1845  132.5758  152.8061 H   0  0  0  0  0  0  0  0  0  0  0  0
  146.1811  134.7885  150.2631 H   0  0  0  0  0  0  0  0  0  0  0  0
  143.4661  135.0393  150.1781 H   0  0  0  0  0  0  0  0  0  0  0  0
  142.6708  134.0549  152.6434 H   0  0  0  0  0  0  0  0  0  0  0  0
  149.3936  134.1381  154.4410 H   0  0  0  0  0  0  0  0  0  0  0  0
  148.3710  136.8715  154.7603 H   0  0  0  0  0  0  0  0  0  0  0  0
  148.8630  136.4898  157.1895 H   0  0  0  0  0  0  0  0  0  0  0  0
  149.1044  134.7765  156.8547 H   0  0  0  0  0  0  0  0  0  0  0  0
  147.5298  135.5207  156.6101 H   0  0  0  0  0  0  0  0  0  0  0  0
  149.9347  139.0379  153.1058 H   0  0  0  0  0  0  0  0  0  0  0  0
  148.7464  138.2990  154.1422 H   0  0  0  0  0  0  0  0  0  0  0  0
  149.1491  140.6576  154.8391 H   0  0  0  0  0  0  0  0  0  0  0  0
  149.6347  139.5669  156.1243 H   0  0  0  0  0  0  0  0  0  0  0  0
  153.1707  139.9697  155.2888 H   0  0  0  0  0  0  0  0  0  0  0  0
  152.0906  139.1446  156.3975 H   0  0  0  0  0  0  0  0  0  0  0  0
  152.9290  137.6058  154.5945 H   0  0  0  0  0  0  0  0  0  0  0  0
  152.2794  138.6438  153.3664 H   0  0  0  0  0  0  0  0  0  0  0  0
  149.0136  135.1468  153.2120 H   0  0  0  0  0  0  0  0  0  0  0  0
  1  2  1  0  0  0  0
  1 20  1  0  0  0  0
  1 21  1  0  0  0  0
  1 22  1  0  0  0  0
  2  3  1  0  0  0  0
  2  9  1  0  0  0  0
  2 23  1  0  0  0  0
  3  4  1  0  0  0  0
  3 24  1  0  0  0  0
  3 25  1  0  0  0  0
  4  8  1  0  0  0  0
  4  5  1  0  0  0  0
  5  6  2  0  0  0  0
  5 26  1  0  0  0  0
  6  7  1  0  0  0  0
  6 27  1  0  0  0  0
  7  8  2  0  0  0  0
  7 28  1  0  0  0  0
  9 10  1  0  0  0  0
  9 29  1  0  0  0  0
  9 42  1  0  0  0  0
 10 11  1  0  0  0  0
 10 12  1  0  0  0  0
 10 30  1  0  0  0  0
 11 31  1  0  0  0  0
 11 32  1  0  0  0  0
 11 33  1  0  0  0  0
 12 13  2  0  0  0  0
 12 14  1  0  0  0  0
 14 19  1  0  0  0  0
 14 15  1  0  0  0  0
 15 16  1  0  0  0  0
 15 34  1  0  0  0  0
 15 35  1  0  0  0  0
 16 17  1  0  0  0  0
 16 36  1  0  0  0  0
 16 37  1  0  0  0  0
 17 18  1  0  0  0  0
 18 19  1  0  0  0  0
 18 38  1  0  0  0  0
 18 39  1  0  0  0  0
 19 40  1  0  0  0  0
 19 41  1  0  0  0  0
M  CHG  1   9   1
M  END
> <s_m_source_file>
AV-unprocessed.smi

> <i_m_source_file_index>
3336

> <i_lp_mmshare_version>
43012

> <i_f3d_flags>
0

> <s_epik_input>
bjFbY0hdW2NIXVtjSF1uMVtDSDJdW0NAQEhdKFtDSDNdKVtOSF1bQ0BIXShbQ0gzXSlDKD1PKU4yW0NIMl1bQ0gyXU9bQ0gyXVtDSDJdMg==

> <s_epik_cmdline>
J2VwaWtfcHl0aG9uJywgJy1waCcsICc3LjAnLCAnLXRuJywgJzgnLCAnLW1hJywgJzIwMCcsICctbWV0YWxfYmluZGluZycsICctaW1hZScsICc8aW5maWxlLm1hZT4nLCAnLW9tYWUnLCAnPG91dGZpbGUubWFlPic=

> <r_lp_tautomer_probability>
1

> <r_epik_Ionization_Penalty>
0.200288

> <r_epik_Ionization_Penalty_Charging>
0.200285

> <r_epik_Ionization_Penalty_Neutral>
3.37705e-06

> <r_epik_State_Penalty>
0.190126

> <r_epik_Charging_Adjusted_Penalty>
0.39041

> <i_epik_Tot_Q>
1

> <i_epik_Tot_abs_Q>
1

> <r_epik_Metal_State_Penalty>
0.190133

> <b_epik_Metal_Only>
0

> <s_lp_Force_Field>
OPLS_2005

> <r_lp_Energy>
29.2722

> <b_lp_Chiralities_Consistent>
1

> <s_lp_Variant>
AV-unprocessed.smi:3336-3

> <Gold.Version>
5.8.1

> <Gold.Id.Protein>
6NUR|6NUR_protein|mol2

> <Gold.PLP.Fitness>
43.9644

> <Gold.PLP.PLP>
-30.8412

> <Gold.PLP.part.hbond>
-3.0000

> <Gold.PLP.part.metal>
0.0000

> <Gold.PLP.part.buried>
-1.7744

> <Gold.PLP.part.nonpolar>
-24.8297

> <Gold.PLP.part.repulsive>
0.2368

> <Gold.PLP.ligand.clash>
0.0000

> <Gold.PLP.ligand.torsion>
0.9299

> <Gold.PLP.Chemscore.Hbond>
4.0000

> <Gold.PLP.Chemscore.CHOScore>
0.9542

> <Gold.PLP.Chemscore.Metal>
0.0000

> <Gold.Chemscore.Hbonds>
donor molecule, donor type, donor heavy atom, donor atom, acceptor molecule, acceptor atom, score
      L1  H     9    42       P1  7948  2.00
      P1  H  7989  7998       L1    17  1.00
      P1  H 10752 10764       L1    13  1.00
      L1  C     5    26       P1  7921  0.78

> <Gold.PLP.Chemscore.Internal.Correction>
0.1204

> <Gold.Rescore>
     Score         DG    S(hbond)    S(metal)    S(lipo)     H(rot)  DE(clash)    DE(int)     intcor
     13.98     -15.16       2.21        0.00      60.22       1.85       0.08       1.10       ----

> <Gold.Chemscore.Fitness>
13.9759

> <Gold.Chemscore.DG>
-15.1599

> <Gold.Chemscore.ZeroCoef>
-5.4800

> <Gold.Chemscore.Hbond>
2.2097

> <Gold.Chemscore.Metal>
0.0000

> <Gold.Chemscore.Lipo>
60.2239

> <Gold.Chemscore.Internal_Hbond>
0.0000

> <Gold.Chemscore.DEClash>
0.0820

> <Gold.Chemscore.DEInternal>
1.1020

> <Gold.Chemscore.Rot>
1.8541

> <Gold.Chemscore.Internal.Correction>
   9.000000E+99

> <Gold.Chemscore.Hbonds>
donor molecule, donor type, donor heavy atom, donor atom, acceptor molecule, acceptor atom, score
      L1  H     9    42       P1  7948  0.29
      P1  H  7989  7998       L1    17  0.24
      P1  H 10752 10764       L1    13  1.00

> <Gold.Chemscore.Hbond.Weighted>
-7.3803

> <Gold.Chemscore.Metal.Weighted>
-0.0000

> <Gold.Chemscore.Lipo.Weighted>
-7.0462

> <Gold.Chemscore.Internal_Hbond.Weighted>
0.0000

> <Gold.Chemscore.DEClash.Weighted>
0.0820

> <Gold.Chemscore.DEInternal.Weighted>
1.1020

> <Gold.Chemscore.Rot.Weighted>
4.7465

> <Gold.Chemscore.Internal.Correction.Weighted>
   9.000000E+99

> <Gold.Protein.RotatedTorsions>
[ 6907 6896 6895 6894 ] final  121.87 input  -60.11 | X-H torsion
[ 7974 7965 7964 7962 ] final    0.90 input  175.53 | X-H torsion
[ 8008 7997 7996 7995 ] final  179.31 input   59.86 | X-H torsion
[ 10167 10162 10161 10158 ] final  108.47 input  -65.29 | X-H torsion
[ 10718 10713 10712 10709 ] final   20.13 input   66.30 | X-H torsion
[ 10763 10752 10751 10750 ] final  -46.43 input  -60.55 | X-H torsion
[ 11005 11000 10999 10996 ] final  100.51 input  -57.11 | X-H torsion

> <Gold.Protein.ActiveResidues>
 VAL166  LYS551  ARG553  GLY616  TRP617  ASP618  TYR619  PRO620  LYS621  CYS622 
 ASP623  PHE694  ASN695  SER759  ASP760  ASP761  ALA762  ILE779  LEU786  VAL792 
 PHE793  MET794  SER795  GLU796  ALA797  LYS798  CYS799  TRP800  GLU811  SER814 

> <Gold.Protein.RotatedAtoms>
  152.4288  133.7241  159.6549 H   0  0  0  0  0  0  0  0  0  0  0  0  # atno 6907 bound_to 6896
  150.8165  133.8317  159.3164 H   0  0  0  0  0  0  0  0  0  0  0  0  # atno 6908 bound_to 6896
  151.6011  135.1049  160.0112 H   0  0  0  0  0  0  0  0  0  0  0  0  # atno 6909 bound_to 6896
  146.2437  140.1069  142.8345 H   0  0  0  0  0  0  0  0  0  0  0  0  # atno 7974 bound_to 7965
  156.0448  140.1312  157.0115 H   0  0  0  0  0  0  0  0  0  0  0  0  # atno 8008 bound_to 7997
  154.4407  140.1023  156.6361 H   0  0  0  0  0  0  0  0  0  0  0  0  # atno 8009 bound_to 7997
  155.5612  140.3465  155.4494 H   0  0  0  0  0  0  0  0  0  0  0  0  # atno 8010 bound_to 7997
  139.6843  144.7115  151.1460 H   0  0  0  0  0  0  0  0  0  0  0  0  # atno 10167 bound_to 10162
  157.1201  130.6546  149.5921 H   0  0  0  0  0  0  0  0  0  0  0  0  # atno 10718 bound_to 10713
  154.0449  135.6639  153.4794 H   0  0  0  0  0  0  0  0  0  0  0  0  # atno 10763 bound_to 10752
  153.0487  135.5098  154.7806 H   0  0  0  0  0  0  0  0  0  0  0  0  # atno 10764 bound_to 10752
  154.6794  135.3042  154.9599 H   0  0  0  0  0  0  0  0  0  0  0  0  # atno 10765 bound_to 10752
  139.8771  134.9143  156.4767 H   0  0  0  0  0  0  0  0  0  0  0  0  # atno 11005 bound_to 11000
  145.0521  140.9025  143.4989 LP  0  0  0  0  0  0  0  0  0  0  0  0  # atno 17320 bound_to 7965
  145.1168  139.2720  143.5609 LP  0  0  0  0  0  0  0  0  0  0  0  0  # atno 17321 bound_to 7965
  140.7662  143.5652  150.9055 LP  0  0  0  0  0  0  0  0  0  0  0  0  # atno 17342 bound_to 10162
  139.9326  143.6475  152.3073 LP  0  0  0  0  0  0  0  0  0  0  0  0  # atno 17343 bound_to 10162
  155.9830  130.4847  150.6912 LP  0  0  0  0  0  0  0  0  0  0  0  0  # atno 17370 bound_to 10713
  157.4484  131.0869  151.0872 LP  0  0  0  0  0  0  0  0  0  0  0  0  # atno 17371 bound_to 10713
  140.8757  133.7955  155.9412 LP  0  0  0  0  0  0  0  0  0  0  0  0  # atno 17394 bound_to 11000
  140.8906  134.2499  157.5096 LP  0  0  0  0  0  0  0  0  0  0  0  0  # atno 17395 bound_to 11000

$$$$
