AV-unprocessed.smi:3214|AV-procd|sdf|12284|dock9
  -GOLD-   2272018123D 1   1.00000     0.00000
 Structure written by MMmdl.
 37 37  0  0  0  0  0  0  0  0  2 V2000
  149.2491  133.6152  154.0924 C   0  0  0  0  0  0  0  0  0  0  0  0
  150.1820  134.4893  154.9366 C   0  0  0  0  0  0  0  0  0  0  0  0
  150.2140  135.8513  154.4219 N   0  0  0  0  0  0  0  0  0  0  0  0
  151.0257  136.8147  154.8805 C   0  0  0  0  0  0  0  0  0  0  0  0
  151.8301  136.6384  155.7957 O   0  0  0  0  0  0  0  0  0  0  0  0
  150.9038  138.1851  154.2068 C   0  0  0  0  0  0  0  0  0  0  0  0
  149.5073  138.8076  154.3715 C   0  0  0  0  0  0  0  0  0  0  0  0
  148.7314  138.7045  153.1172 N   0  3  0  0  0  0  0  0  0  0  0  0
  147.2980  139.0657  153.2209 C   0  0  1  0  0  0  0  0  0  0  0  0
  147.1765  140.5852  153.3994 C   0  0  0  0  0  0  0  0  0  0  0  0
  146.5006  138.6061  151.9785 C   0  0  0  0  0  0  0  0  0  0  0  0
  146.1024  137.2107  152.0238 N   0  0  0  0  0  0  0  0  0  0  0  0
  145.5850  136.4326  151.0090 C   0  0  0  0  0  0  0  0  0  0  0  0
  145.3566  135.1899  151.5266 C   0  0  0  0  0  0  0  0  0  0  0  0
  145.7583  135.3101  152.8863 C   0  0  0  0  0  0  0  0  0  0  0  0
  146.1994  136.5223  153.1818 N   0  0  0  0  0  0  0  0  0  0  0  0
  149.2218  132.5955  154.4768 H   0  0  0  0  0  0  0  0  0  0  0  0
  149.5819  133.5693  153.0549 H   0  0  0  0  0  0  0  0  0  0  0  0
  148.2293  134.0010  154.1022 H   0  0  0  0  0  0  0  0  0  0  0  0
  149.8440  134.4993  155.9740 H   0  0  0  0  0  0  0  0  0  0  0  0
  151.1897  134.0712  154.9287 H   0  0  0  0  0  0  0  0  0  0  0  0
  149.5774  136.0733  153.6702 H   0  0  0  0  0  0  0  0  0  0  0  0
  151.6574  138.8592  154.6175 H   0  0  0  0  0  0  0  0  0  0  0  0
  151.1343  138.0634  153.1475 H   0  0  0  0  0  0  0  0  0  0  0  0
  148.9716  138.3078  155.1770 H   0  0  0  0  0  0  0  0  0  0  0  0
  149.5974  139.8590  154.6495 H   0  0  0  0  0  0  0  0  0  0  0  0
  149.1559  139.3415  152.4584 H   0  0  0  0  0  0  0  0  0  0  0  0
  146.8780  138.6072  154.1177 H   0  0  0  0  0  0  0  0  0  0  0  0
  146.1348  140.8835  153.5223 H   0  0  0  0  0  0  0  0  0  0  0  0
  147.5760  141.1217  152.5380 H   0  0  0  0  0  0  0  0  0  0  0  0
  147.7186  140.9229  154.2835 H   0  0  0  0  0  0  0  0  0  0  0  0
  145.5912  139.2007  151.8790 H   0  0  0  0  0  0  0  0  0  0  0  0
  147.0793  138.7765  151.0694 H   0  0  0  0  0  0  0  0  0  0  0  0
  145.4275  136.8208  150.0135 H   0  0  0  0  0  0  0  0  0  0  0  0
  144.9583  134.3269  151.0138 H   0  0  0  0  0  0  0  0  0  0  0  0
  145.7413  134.5589  153.6621 H   0  0  0  0  0  0  0  0  0  0  0  0
  148.8068  137.7675  152.7479 H   0  0  0  0  0  0  0  0  0  0  0  0
  1  2  1  0  0  0  0
  1 17  1  0  0  0  0
  1 18  1  0  0  0  0
  1 19  1  0  0  0  0
  2  3  1  0  0  0  0
  2 20  1  0  0  0  0
  2 21  1  0  0  0  0
  3  4  1  0  0  0  0
  3 22  1  0  0  0  0
  4  5  2  0  0  0  0
  4  6  1  0  0  0  0
  6  7  1  0  0  0  0
  6 23  1  0  0  0  0
  6 24  1  0  0  0  0
  7  8  1  0  0  0  0
  7 25  1  0  0  0  0
  7 26  1  0  0  0  0
  8  9  1  0  0  0  0
  8 27  1  0  0  0  0
  8 37  1  0  0  0  0
  9 10  1  0  0  0  0
  9 11  1  0  0  0  0
  9 28  1  0  0  0  0
 10 29  1  0  0  0  0
 10 30  1  0  0  0  0
 10 31  1  0  0  0  0
 11 12  1  0  0  0  0
 11 32  1  0  0  0  0
 11 33  1  0  0  0  0
 12 16  1  0  0  0  0
 12 13  1  0  0  0  0
 13 14  2  0  0  0  0
 13 34  1  0  0  0  0
 14 15  1  0  0  0  0
 14 35  1  0  0  0  0
 15 16  2  0  0  0  0
 15 36  1  0  0  0  0
M  CHG  1   8   1
M  END
> <s_m_source_file>
AV-unprocessed.smi

> <i_m_source_file_index>
3214

> <i_lp_mmshare_version>
43012

> <i_f3d_flags>
0

> <s_epik_input>
W0NIM11bQ0gyXVtOSF1DKD1PKVtDSDJdW0NIMl1bTkhdW0NASF0oW0NIM10pW0NIMl1uMVtjSF1bY0hdW2NIXW4x

> <s_epik_cmdline>
J2VwaWtfcHl0aG9uJywgJy1waCcsICc3LjAnLCAnLXRuJywgJzgnLCAnLW1hJywgJzIwMCcsICctbWV0YWxfYmluZGluZycsICctaW1hZScsICc8aW5maWxlLm1hZT4nLCAnLW9tYWUnLCAnPG91dGZpbGUubWFlPic=

> <r_lp_tautomer_probability>
1

> <r_epik_Ionization_Penalty>
0.00598156

> <r_epik_Ionization_Penalty_Charging>
0.00597743

> <r_epik_Ionization_Penalty_Neutral>
4.12922e-06

> <r_epik_State_Penalty>
0.00439883

> <r_epik_Charging_Adjusted_Penalty>
0.0103763

> <i_epik_Tot_Q>
1

> <i_epik_Tot_abs_Q>
1

> <r_epik_Metal_State_Penalty>
-0

> <b_epik_Metal_Only>
0

> <s_lp_Force_Field>
OPLS_2005

> <r_lp_Energy>
6.42892

> <b_lp_Chiralities_Consistent>
1

> <s_lp_Variant>
AV-unprocessed.smi:3214-2

> <Gold.Version>
5.8.1

> <Gold.Id.Protein>
6NUR|6NUR_protein|mol2

> <Gold.PLP.Fitness>
48.0072

> <Gold.PLP.PLP>
-32.2057

> <Gold.PLP.part.hbond>
-4.8091

> <Gold.PLP.part.metal>
0.0000

> <Gold.PLP.part.buried>
-0.5142

> <Gold.PLP.part.nonpolar>
-28.5700

> <Gold.PLP.part.repulsive>
0.7474

> <Gold.PLP.ligand.clash>
0.0000

> <Gold.PLP.ligand.torsion>
0.8163

> <Gold.PLP.Chemscore.Hbond>
5.0000

> <Gold.PLP.Chemscore.CHOScore>
0.7481

> <Gold.PLP.Chemscore.Metal>
0.0000

> <Gold.Chemscore.Hbonds>
donor molecule, donor type, donor heavy atom, donor atom, acceptor molecule, acceptor atom, score
      L1  H     3    22       P1  7948  1.00
      L1  H     8    27       P1  7957  1.00
      L1  H     8    37       P1  7948  2.00
      P1  H 10752 10764       L1     5  1.00
      L1  C    13    34       P1 10171  0.75

> <Gold.PLP.Chemscore.Internal.Correction>
0.1898

> <Gold.Rescore>
     Score         DG    S(hbond)    S(metal)    S(lipo)     H(rot)  DE(clash)    DE(int)     intcor
     17.52     -18.60       3.64        0.00      60.53       2.39       0.22       0.86       ----

> <Gold.Chemscore.Fitness>
17.5215

> <Gold.Chemscore.DG>
-18.6048

> <Gold.Chemscore.ZeroCoef>
-5.4800

> <Gold.Chemscore.Hbond>
3.6447

> <Gold.Chemscore.Metal>
0.0000

> <Gold.Chemscore.Lipo>
60.5311

> <Gold.Chemscore.Internal_Hbond>
0.0000

> <Gold.Chemscore.DEClash>
0.2215

> <Gold.Chemscore.DEInternal>
0.8618

> <Gold.Chemscore.Rot>
2.3948

> <Gold.Chemscore.Internal.Correction>
   9.000000E+99

> <Gold.Chemscore.Hbonds>
donor molecule, donor type, donor heavy atom, donor atom, acceptor molecule, acceptor atom, score
      L1  H     3    22       P1  7948  0.44
      L1  H     8    27       P1  7957  0.93
      L1  H     8    37       P1  7948  1.00
      P1  H 10752 10764       L1     5  0.34

> <Gold.Chemscore.Hbond.Weighted>
-12.1732

> <Gold.Chemscore.Metal.Weighted>
-0.0000

> <Gold.Chemscore.Lipo.Weighted>
-7.0821

> <Gold.Chemscore.Internal_Hbond.Weighted>
0.0000

> <Gold.Chemscore.DEClash.Weighted>
0.2215

> <Gold.Chemscore.DEInternal.Weighted>
0.8618

> <Gold.Chemscore.Rot.Weighted>
6.1306

> <Gold.Chemscore.Internal.Correction.Weighted>
   9.000000E+99

> <Gold.Protein.RotatedTorsions>
[ 6907 6896 6895 6894 ] final  -87.25 input  -60.11 | X-H torsion
[ 7974 7965 7964 7962 ] final   -7.70 input  175.53 | X-H torsion
[ 8008 7997 7996 7995 ] final   83.88 input   59.86 | X-H torsion
[ 10167 10162 10161 10158 ] final  -28.91 input  -65.29 | X-H torsion
[ 10718 10713 10712 10709 ] final  -16.11 input   66.30 | X-H torsion
[ 10763 10752 10751 10750 ] final  -34.02 input  -60.55 | X-H torsion
[ 11005 11000 10999 10996 ] final  -25.49 input  -57.11 | X-H torsion

> <Gold.Protein.ActiveResidues>
 VAL166  LYS551  ARG553  GLY616  TRP617  ASP618  TYR619  PRO620  LYS621  CYS622 
 ASP623  PHE694  ASN695  SER759  ASP760  ASP761  ALA762  ILE779  LEU786  VAL792 
 PHE793  MET794  SER795  GLU796  ALA797  LYS798  CYS799  TRP800  GLU811  SER814 

> <Gold.Protein.RotatedAtoms>
  150.6866  134.2925  159.4672 H   0  0  0  0  0  0  0  0  0  0  0  0  # atno 6907 bound_to 6896
  152.0829  134.9456  160.0582 H   0  0  0  0  0  0  0  0  0  0  0  0  # atno 6908 bound_to 6896
  152.0802  133.4114  159.4535 H   0  0  0  0  0  0  0  0  0  0  0  0  # atno 6909 bound_to 6896
  146.2300  140.2359  142.8342 H   0  0  0  0  0  0  0  0  0  0  0  0  # atno 7974 bound_to 7965
  155.9298  140.3415  155.6239 H   0  0  0  0  0  0  0  0  0  0  0  0  # atno 8008 bound_to 7997
  155.7172  140.0779  157.2365 H   0  0  0  0  0  0  0  0  0  0  0  0  # atno 8009 bound_to 7997
  154.4083  140.1612  156.2349 H   0  0  0  0  0  0  0  0  0  0  0  0  # atno 8010 bound_to 7997
  140.7265  143.3971  151.1328 H   0  0  0  0  0  0  0  0  0  0  0  0  # atno 10167 bound_to 10162
  156.5922  130.4802  149.6275 H   0  0  0  0  0  0  0  0  0  0  0  0  # atno 10718 bound_to 10713
  153.8398  135.6858  153.4804 H   0  0  0  0  0  0  0  0  0  0  0  0  # atno 10763 bound_to 10752
  153.1460  135.4637  154.9565 H   0  0  0  0  0  0  0  0  0  0  0  0  # atno 10764 bound_to 10752
  154.7850  135.3281  154.7853 H   0  0  0  0  0  0  0  0  0  0  0  0  # atno 10765 bound_to 10752
  140.8942  133.7567  156.0460 H   0  0  0  0  0  0  0  0  0  0  0  0  # atno 11005 bound_to 11000
  144.9522  140.8190  143.5565 LP  0  0  0  0  0  0  0  0  0  0  0  0  # atno 17320 bound_to 7965
  145.2321  139.2110  143.5037 LP  0  0  0  0  0  0  0  0  0  0  0  0  # atno 17321 bound_to 7965
  139.7586  143.8670  152.3095 LP  0  0  0  0  0  0  0  0  0  0  0  0  # atno 17342 bound_to 10162
  139.8548  144.7146  150.9170 LP  0  0  0  0  0  0  0  0  0  0  0  0  # atno 17343 bound_to 10162
  156.2540  130.6924  151.1671 LP  0  0  0  0  0  0  0  0  0  0  0  0  # atno 17370 bound_to 10713
  157.7301  131.0619  150.5744 LP  0  0  0  0  0  0  0  0  0  0  0  0  # atno 17371 bound_to 10713
  140.8309  134.3179  157.5349 LP  0  0  0  0  0  0  0  0  0  0  0  0  # atno 17394 bound_to 11000
  139.8733  134.9362  156.3655 LP  0  0  0  0  0  0  0  0  0  0  0  0  # atno 17395 bound_to 11000

$$$$
