AV-unprocessed.smi:1879|AV-procd|sdf|7632|dock5
  -GOLD-   22720 9353D 1   1.00000     0.00000
 Structure written by MMmdl.
 46 48  0  0  0  0  0  0  0  0  1 V2000
  145.1532  137.7986  153.1728 O   0  0  0  0  0  0  0  0  0  0  0  0
  146.2503  137.4188  152.7626 C   0  0  0  0  0  0  0  0  0  0  0  0
  147.4018  138.0991  152.8890 N   0  0  0  0  0  0  0  0  0  0  0  0
  147.6098  139.3597  153.5166 C   0  0  0  0  0  0  0  0  0  0  0  0
  146.6522  140.3987  153.4175 C   0  0  0  0  0  0  0  0  0  0  0  0
  146.9302  141.6510  153.9912 C   0  0  0  0  0  0  0  0  0  0  0  0
  148.1673  141.8277  154.6322 C   0  0  0  0  0  0  0  0  0  0  0  0
  149.0949  140.8542  154.7234 N   0  0  0  0  0  0  0  0  0  0  0  0
  148.8361  139.6353  154.1882 C   0  0  0  0  0  0  0  0  0  0  0  0
  149.8421  138.6512  154.3298 N   0  0  0  0  0  0  0  0  0  0  0  0
  151.2004  139.0291  154.7055 C   0  0  0  0  0  0  0  0  0  0  0  0
  151.8715  137.7252  155.1268 C   0  0  0  0  0  0  0  0  0  0  0  0
  150.7258  136.9709  155.7940 C   0  0  0  0  0  0  0  0  0  0  0  0
  149.4938  137.3946  154.9872 C   0  0  0  0  0  0  0  0  0  0  0  0
  146.4459  136.2459  152.1438 N   0  0  0  0  0  0  0  0  0  0  0  0
  145.4076  135.2603  151.8578 C   0  0  2  0  0  0  0  0  0  0  0  0
  145.9540  133.8291  152.0326 C   0  0  0  0  0  0  0  0  0  0  0  0
  144.8937  132.7726  151.6753 C   0  0  0  0  0  0  0  0  0  0  0  0
  144.3119  132.9803  150.2641 C   0  0  2  0  0  0  0  0  0  0  0  0
  145.2851  132.6669  149.2875 O   0  0  0  0  0  0  0  0  0  0  0  0
  143.8086  134.4225  150.0645 C   0  0  0  0  0  0  0  0  0  0  0  0
  144.8766  135.4688  150.4280 C   0  0  0  0  0  0  0  0  0  0  0  0
  148.2398  137.6177  152.5970 H   0  0  0  0  0  0  0  0  0  0  0  0
  145.7201  140.2625  152.8903 H   0  0  0  0  0  0  0  0  0  0  0  0
  146.2175  142.4600  153.9287 H   0  0  0  0  0  0  0  0  0  0  0  0
  148.4226  142.7775  155.0783 H   0  0  0  0  0  0  0  0  0  0  0  0
  151.7246  139.5058  153.8770 H   0  0  0  0  0  0  0  0  0  0  0  0
  151.1905  139.7200  155.5496 H   0  0  0  0  0  0  0  0  0  0  0  0
  152.2153  137.1802  154.2464 H   0  0  0  0  0  0  0  0  0  0  0  0
  152.7251  137.8800  155.7873 H   0  0  0  0  0  0  0  0  0  0  0  0
  150.8747  135.8908  155.8042 H   0  0  0  0  0  0  0  0  0  0  0  0
  150.6203  137.3051  156.8267 H   0  0  0  0  0  0  0  0  0  0  0  0
  148.6142  137.4926  155.6248 H   0  0  0  0  0  0  0  0  0  0  0  0
  149.2768  136.6477  154.2235 H   0  0  0  0  0  0  0  0  0  0  0  0
  147.3831  136.0160  151.8470 H   0  0  0  0  0  0  0  0  0  0  0  0
  144.5771  135.4079  152.5510 H   0  0  0  0  0  0  0  0  0  0  0  0
  146.8341  133.6895  151.4033 H   0  0  0  0  0  0  0  0  0  0  0  0
  146.2852  133.6754  153.0603 H   0  0  0  0  0  0  0  0  0  0  0  0
  145.3164  131.7714  151.7672 H   0  0  0  0  0  0  0  0  0  0  0  0
  144.0841  132.8272  152.4041 H   0  0  0  0  0  0  0  0  0  0  0  0
  143.4813  132.2893  150.1165 H   0  0  0  0  0  0  0  0  0  0  0  0
  145.3722  133.4040  148.7028 H   0  0  0  0  0  0  0  0  0  0  0  0
  143.4748  134.5689  149.0368 H   0  0  0  0  0  0  0  0  0  0  0  0
  142.9316  134.5818  150.6932 H   0  0  0  0  0  0  0  0  0  0  0  0
  144.4540  136.4696  150.3296 H   0  0  0  0  0  0  0  0  0  0  0  0
  145.7000  135.4116  149.7147 H   0  0  0  0  0  0  0  0  0  0  0  0
  1  2  2  0  0  0  0
  2  3  1  0  0  0  0
  2 15  1  0  0  0  0
  3  4  1  0  0  0  0
  3 23  1  0  0  0  0
  4  9  1  0  0  0  0
  4  5  2  0  0  0  0
  5  6  1  0  0  0  0
  5 24  1  0  0  0  0
  6  7  2  0  0  0  0
  6 25  1  0  0  0  0
  7  8  1  0  0  0  0
  7 26  1  0  0  0  0
  8  9  2  0  0  0  0
  9 10  1  0  0  0  0
 10 14  1  0  0  0  0
 10 11  1  0  0  0  0
 11 12  1  0  0  0  0
 11 27  1  0  0  0  0
 11 28  1  0  0  0  0
 12 13  1  0  0  0  0
 12 29  1  0  0  0  0
 12 30  1  0  0  0  0
 13 14  1  0  0  0  0
 13 31  1  0  0  0  0
 13 32  1  0  0  0  0
 14 33  1  0  0  0  0
 14 34  1  0  0  0  0
 15 16  1  0  0  0  0
 15 35  1  0  0  0  0
 16 22  1  0  0  0  0
 16 17  1  0  0  0  0
 16 36  1  0  0  0  0
 17 18  1  0  0  0  0
 17 37  1  0  0  0  0
 17 38  1  0  0  0  0
 18 19  1  0  0  0  0
 18 39  1  0  0  0  0
 18 40  1  0  0  0  0
 19 20  1  0  0  0  0
 19 21  1  0  0  0  0
 19 41  1  0  0  0  0
 20 42  1  0  0  0  0
 21 22  1  0  0  0  0
 21 43  1  0  0  0  0
 21 44  1  0  0  0  0
 22 45  1  0  0  0  0
 22 46  1  0  0  0  0
M  END
> <s_m_source_file>
AV-unprocessed.smi

> <i_m_source_file_index>
1879

> <i_lp_mmshare_version>
43012

> <i_f3d_flags>
0

> <s_epik_input>
W0NIMl0xW0NIMl1bQ0BIXShbT0hdKVtDSDJdW0NIMl1bQ0BIXTFbTkhdQyg9TylbTkhdYzJbY0hdW2NIXVtjSF1uYzJOM1tDSDJdW0NIMl1bQ0gyXVtDSDJdMw==

> <s_epik_cmdline>
J2VwaWtfcHl0aG9uJywgJy1waCcsICc3LjAnLCAnLXRuJywgJzgnLCAnLW1hJywgJzIwMCcsICctbWV0YWxfYmluZGluZycsICctaW1hZScsICc8aW5maWxlLm1hZT4nLCAnLW9tYWUnLCAnPG91dGZpbGUubWFlPic=

> <r_lp_tautomer_probability>
1

> <r_epik_Ionization_Penalty>
0.104121

> <r_epik_Ionization_Penalty_Charging>
0

> <r_epik_Ionization_Penalty_Neutral>
0.104121

> <r_epik_State_Penalty>
0.0934704

> <r_epik_Charging_Adjusted_Penalty>
0.0934704

> <i_epik_Tot_Q>
0

> <i_epik_Tot_abs_Q>
0

> <r_epik_Metal_State_Penalty>
0.0794466

> <b_epik_Metal_Only>
0

> <s_lp_Force_Field>
OPLS_2005

> <r_lp_Energy>
39.1778

> <b_lp_Chiralities_Consistent>
1

> <s_lp_Variant>
AV-unprocessed.smi:1879-2

> <Gold.Version>
5.8.1

> <Gold.Id.Protein>
6NUR|6NUR_protein|mol2

> <Gold.PLP.Fitness>
43.2042

> <Gold.PLP.PLP>
-32.5327

> <Gold.PLP.part.hbond>
-2.8748

> <Gold.PLP.part.metal>
0.0000

> <Gold.PLP.part.buried>
1.8390

> <Gold.PLP.part.nonpolar>
-32.1955

> <Gold.PLP.part.repulsive>
0.6975

> <Gold.PLP.ligand.clash>
0.0000

> <Gold.PLP.ligand.torsion>
0.7998

> <Gold.PLP.Chemscore.Hbond>
2.9760

> <Gold.PLP.Chemscore.CHOScore>
1.0000

> <Gold.PLP.Chemscore.Metal>
0.0000

> <Gold.Chemscore.Hbonds>
donor molecule, donor type, donor heavy atom, donor atom, acceptor molecule, acceptor atom, score
      L1  H     3    23       P1  7948  0.98
      L1  H    15    35       P1  7948  1.00
      L1  H    20    42       P1  7921  1.00
      L1  C     7    26       P1  8028  1.00

> <Gold.PLP.Chemscore.Internal.Correction>
0.3431

> <Gold.Rescore>
     Score         DG    S(hbond)    S(metal)    S(lipo)     H(rot)  DE(clash)    DE(int)     intcor
     16.92     -20.71       2.78        0.00      87.48       1.67       1.91       1.89       ----

> <Gold.Chemscore.Fitness>
16.9220

> <Gold.Chemscore.DG>
-20.7141

> <Gold.Chemscore.ZeroCoef>
-5.4800

> <Gold.Chemscore.Hbond>
2.7785

> <Gold.Chemscore.Metal>
0.0000

> <Gold.Chemscore.Lipo>
87.4788

> <Gold.Chemscore.Internal_Hbond>
0.0000

> <Gold.Chemscore.DEClash>
1.9070

> <Gold.Chemscore.DEInternal>
1.8851

> <Gold.Chemscore.Rot>
1.6723

> <Gold.Chemscore.Internal.Correction>
   9.000000E+99

> <Gold.Chemscore.Hbonds>
donor molecule, donor type, donor heavy atom, donor atom, acceptor molecule, acceptor atom, score
      L1  H     3    23       P1  7948  0.93
      L1  H    15    35       P1  7948  0.94
      L1  H    20    42       P1  7921  0.30

> <Gold.Chemscore.Hbond.Weighted>
-9.2802

> <Gold.Chemscore.Metal.Weighted>
-0.0000

> <Gold.Chemscore.Lipo.Weighted>
-10.2350

> <Gold.Chemscore.Internal_Hbond.Weighted>
0.0000

> <Gold.Chemscore.DEClash.Weighted>
1.9070

> <Gold.Chemscore.DEInternal.Weighted>
1.8851

> <Gold.Chemscore.Rot.Weighted>
4.2812

> <Gold.Chemscore.Internal.Correction.Weighted>
   9.000000E+99

> <Gold.Protein.RotatedTorsions>
[ 6907 6896 6895 6894 ] final  -80.91 input  -60.11 | X-H torsion
[ 7974 7965 7964 7962 ] final -105.06 input  175.53 | X-H torsion
[ 8008 7997 7996 7995 ] final  -13.03 input   59.86 | X-H torsion
[ 10167 10162 10161 10158 ] final  -93.86 input  -65.29 | X-H torsion
[ 10718 10713 10712 10709 ] final   14.17 input   66.30 | X-H torsion
[ 10763 10752 10751 10750 ] final  135.33 input  -60.55 | X-H torsion
[ 11005 11000 10999 10996 ] final   15.24 input  -57.11 | X-H torsion

> <Gold.Protein.ActiveResidues>
 VAL166  LYS551  ARG553  GLY616  TRP617  ASP618  TYR619  PRO620  LYS621  CYS622 
 ASP623  PHE694  ASN695  SER759  ASP760  ASP761  ALA762  ILE779  LEU786  VAL792 
 PHE793  MET794  SER795  GLU796  ALA797  LYS798  CYS799  TRP800  GLU811  SER814 

> <Gold.Protein.RotatedAtoms>
  150.6921  134.3897  159.5070 H   0  0  0  0  0  0  0  0  0  0  0  0  # atno 6907 bound_to 6896
  152.1687  134.8849  160.0545 H   0  0  0  0  0  0  0  0  0  0  0  0  # atno 6908 bound_to 6896
  151.9884  133.3747  159.4171 H   0  0  0  0  0  0  0  0  0  0  0  0  # atno 6909 bound_to 6896
  145.2352  140.9185  143.3181 H   0  0  0  0  0  0  0  0  0  0  0  0  # atno 7974 bound_to 7965
  154.5327  140.2260  155.8777 H   0  0  0  0  0  0  0  0  0  0  0  0  # atno 8008 bound_to 7997
  156.1780  140.3107  155.9058 H   0  0  0  0  0  0  0  0  0  0  0  0  # atno 8009 bound_to 7997
  155.3419  140.0451  157.3035 H   0  0  0  0  0  0  0  0  0  0  0  0  # atno 8010 bound_to 7997
  140.3204  143.3053  152.0053 H   0  0  0  0  0  0  0  0  0  0  0  0  # atno 10167 bound_to 10162
  157.0352  130.6209  149.5742 H   0  0  0  0  0  0  0  0  0  0  0  0  # atno 10718 bound_to 10713
  153.8382  135.3095  155.3424 H   0  0  0  0  0  0  0  0  0  0  0  0  # atno 10763 bound_to 10752
  154.7944  135.4764  154.0130 H   0  0  0  0  0  0  0  0  0  0  0  0  # atno 10764 bound_to 10752
  153.1592  135.6858  153.8859 H   0  0  0  0  0  0  0  0  0  0  0  0  # atno 10765 bound_to 10752
  140.4605  134.1132  155.7716 H   0  0  0  0  0  0  0  0  0  0  0  0  # atno 11005 bound_to 11000
  144.9639  139.3950  143.6342 LP  0  0  0  0  0  0  0  0  0  0  0  0  # atno 17320 bound_to 7965
  146.3343  139.8706  142.8841 LP  0  0  0  0  0  0  0  0  0  0  0  0  # atno 17321 bound_to 7965
  139.4875  144.6316  151.7059 LP  0  0  0  0  0  0  0  0  0  0  0  0  # atno 17342 bound_to 10162
  140.5489  144.0458  150.6118 LP  0  0  0  0  0  0  0  0  0  0  0  0  # atno 17343 bound_to 10162
  156.0056  130.5142  150.7818 LP  0  0  0  0  0  0  0  0  0  0  0  0  # atno 17370 bound_to 10713
  157.5147  131.0928  151.0155 LP  0  0  0  0  0  0  0  0  0  0  0  0  # atno 17371 bound_to 10713
  141.1623  133.8769  157.1813 LP  0  0  0  0  0  0  0  0  0  0  0  0  # atno 17394 bound_to 11000
  139.9948  135.0051  157.0057 LP  0  0  0  0  0  0  0  0  0  0  0  0  # atno 17395 bound_to 11000

$$$$
