AV-unprocessed.smi:601|AV-procd|sdf|3033|dock3
  -GOLD-   2262023543D 1   1.00000     0.00000
 Structure written by MMmdl.
 49 50  0  0  0  0  0  0  0  0  2 V2000
  148.4148  134.7719  154.4506 C   0  0  0  0  0  0  0  0  0  0  0  0
  148.8759  134.1595  155.7800 C   0  0  0  0  0  0  0  0  0  0  0  0
  149.1293  135.1984  156.8840 C   0  0  0  0  0  0  0  0  0  0  0  0
  147.8738  135.5427  157.7090 C   0  0  0  0  0  0  0  0  0  0  0  0
  148.1573  136.5445  158.7480 N   0  0  0  0  0  0  0  0  0  0  0  0
  147.7210  136.3697  160.0238 C   0  0  0  0  0  0  0  0  0  0  0  0
  148.0266  137.1536  160.9255 O   0  0  0  0  0  0  0  0  0  0  0  0
  146.7796  135.1813  160.3527 C   0  0  2  0  0  0  0  0  0  0  0  0
  145.4727  135.5722  161.0560 C   0  0  0  0  0  0  0  0  0  0  0  0
  145.8264  135.5937  162.5383 C   0  0  0  0  0  0  0  0  0  0  0  0
  147.1771  134.8762  162.6161 C   0  0  0  0  0  0  0  0  0  0  0  0
  147.3789  134.3267  161.3194 O   0  0  0  0  0  0  0  0  0  0  0  0
  148.9476  137.6446  158.3677 C   0  0  0  0  0  0  0  0  0  0  0  0
  148.4038  138.7690  157.8313 C   0  0  0  0  0  0  0  0  0  0  0  0
  147.0365  138.8622  157.6129 N   0  0  0  0  0  0  0  0  0  0  0  0
  149.2383  139.8655  157.4855 N   0  0  0  0  0  0  0  0  0  0  0  0
  148.6316  141.0654  156.8707 C   0  0  0  0  0  0  0  0  0  0  0  0
  149.0989  141.2501  155.4166 C   0  0  0  0  0  0  0  0  0  0  0  0
  148.0499  141.9540  154.5496 C   0  0  0  0  0  0  0  0  0  0  0  0
  150.5832  139.8268  157.7365 C   0  0  0  0  0  0  0  0  0  0  0  0
  151.2762  140.8082  157.4638 O   0  0  0  0  0  0  0  0  0  0  0  0
  151.1226  138.7013  158.2867 N   0  5  0  0  0  0  0  0  0  0  0  0
  150.3928  137.6041  158.6199 C   0  0  0  0  0  0  0  0  0  0  0  0
  150.9059  136.6049  159.1245 O   0  0  0  0  0  0  0  0  0  0  0  0
  148.3179  134.0019  153.6850 H   0  0  0  0  0  0  0  0  0  0  0  0
  149.1300  135.5108  154.0883 H   0  0  0  0  0  0  0  0  0  0  0  0
  147.4458  135.2609  154.5472 H   0  0  0  0  0  0  0  0  0  0  0  0
  148.1469  133.4242  156.1221 H   0  0  0  0  0  0  0  0  0  0  0  0
  149.8000  133.6085  155.6029 H   0  0  0  0  0  0  0  0  0  0  0  0
  149.8924  134.8050  157.5561 H   0  0  0  0  0  0  0  0  0  0  0  0
  149.5547  136.1003  156.4424 H   0  0  0  0  0  0  0  0  0  0  0  0
  147.0711  135.9000  157.0626 H   0  0  0  0  0  0  0  0  0  0  0  0
  147.4906  134.6308  158.1700 H   0  0  0  0  0  0  0  0  0  0  0  0
  146.5554  134.6252  159.4421 H   0  0  0  0  0  0  0  0  0  0  0  0
  145.0533  136.5174  160.7088 H   0  0  0  0  0  0  0  0  0  0  0  0
  144.7223  134.8025  160.8721 H   0  0  0  0  0  0  0  0  0  0  0  0
  145.9138  136.6144  162.9122 H   0  0  0  0  0  0  0  0  0  0  0  0
  145.0636  135.0846  163.1280 H   0  0  0  0  0  0  0  0  0  0  0  0
  147.9781  135.5816  162.8418 H   0  0  0  0  0  0  0  0  0  0  0  0
  147.1921  134.0944  163.3753 H   0  0  0  0  0  0  0  0  0  0  0  0
  146.4082  138.1059  157.8430 H   0  0  0  0  0  0  0  0  0  0  0  0
  146.6083  139.7211  157.2992 H   0  0  0  0  0  0  0  0  0  0  0  0
  147.5420  141.0127  156.8982 H   0  0  0  0  0  0  0  0  0  0  0  0
  148.8552  141.9590  157.4533 H   0  0  0  0  0  0  0  0  0  0  0  0
  150.0251  141.8254  155.3954 H   0  0  0  0  0  0  0  0  0  0  0  0
  149.3312  140.2781  154.9798 H   0  0  0  0  0  0  0  0  0  0  0  0
  148.4017  142.0616  153.5234 H   0  0  0  0  0  0  0  0  0  0  0  0
  147.8290  142.9507  154.9327 H   0  0  0  0  0  0  0  0  0  0  0  0
  147.1176  141.3894  154.5244 H   0  0  0  0  0  0  0  0  0  0  0  0
  1  2  1  0  0  0  0
  1 25  1  0  0  0  0
  1 26  1  0  0  0  0
  1 27  1  0  0  0  0
  2  3  1  0  0  0  0
  2 28  1  0  0  0  0
  2 29  1  0  0  0  0
  3  4  1  0  0  0  0
  3 30  1  0  0  0  0
  3 31  1  0  0  0  0
  4  5  1  0  0  0  0
  4 32  1  0  0  0  0
  4 33  1  0  0  0  0
  5  6  1  0  0  0  0
  5 13  1  0  0  0  0
  6  7  2  0  0  0  0
  6  8  1  0  0  0  0
  8 12  1  0  0  0  0
  8  9  1  0  0  0  0
  8 34  1  0  0  0  0
  9 10  1  0  0  0  0
  9 35  1  0  0  0  0
  9 36  1  0  0  0  0
 10 11  1  0  0  0  0
 10 37  1  0  0  0  0
 10 38  1  0  0  0  0
 11 12  1  0  0  0  0
 11 39  1  0  0  0  0
 11 40  1  0  0  0  0
 13 23  1  0  0  0  0
 13 14  2  0  0  0  0
 14 15  1  0  0  0  0
 14 16  1  0  0  0  0
 15 41  1  0  0  0  0
 15 42  1  0  0  0  0
 16 17  1  0  0  0  0
 16 20  1  0  0  0  0
 17 18  1  0  0  0  0
 17 43  1  0  0  0  0
 17 44  1  0  0  0  0
 18 19  1  0  0  0  0
 18 45  1  0  0  0  0
 18 46  1  0  0  0  0
 19 47  1  0  0  0  0
 19 48  1  0  0  0  0
 19 49  1  0  0  0  0
 20 21  2  0  0  0  0
 20 22  1  0  0  0  0
 22 23  1  0  0  0  0
 23 24  2  0  0  0  0
M  CHG  1  22  -1
M  END
> <s_m_source_file>
AV-unprocessed.smi

> <i_m_source_file_index>
601

> <i_lp_mmshare_version>
43012

> <i_f3d_flags>
0

> <s_epik_input>
TzFbQ0gyXVtDSDJdW0NIMl1bQ0BIXTFDKD1PKU4oW0NIMl1bQ0gyXVtDSDJdW0NIM10pYzJjKFtOSDJdKW4oW0NIMl1bQ0gyXVtDSDNdKWMoPU8pW25IXWMyPU8=

> <s_epik_cmdline>
J2VwaWtfcHl0aG9uJywgJy1waCcsICc3LjAnLCAnLXRuJywgJzgnLCAnLW1hJywgJzIwMCcsICctbWV0YWxfYmluZGluZycsICctaW1hZScsICc8aW5maWxlLm1hZT4nLCAnLW9tYWUnLCAnPG91dGZpbGUubWFlPic=

> <r_lp_tautomer_probability>
1

> <r_epik_Ionization_Penalty>
5.90608

> <r_epik_Ionization_Penalty_Charging>
4.55687e-07

> <r_epik_Ionization_Penalty_Neutral>
5.90608

> <r_epik_State_Penalty>
5.90604

> <r_epik_Charging_Adjusted_Penalty>
5.90604

> <i_epik_Tot_Q>
-1

> <i_epik_Tot_abs_Q>
1

> <r_epik_Metal_State_Penalty>
1.84043

> <b_epik_Metal_Only>
1

> <s_lp_Force_Field>
OPLS_2005

> <r_lp_Energy>
51.8523

> <b_lp_Chiralities_Consistent>
1

> <s_lp_Variant>
AV-unprocessed.smi:601-3

> <Gold.Version>
5.8.1

> <Gold.Id.Protein>
6NUR|6NUR_protein|mol2

> <Gold.PLP.Fitness>
38.6891

> <Gold.PLP.PLP>
-32.6816

> <Gold.PLP.part.hbond>
-3.0000

> <Gold.PLP.part.metal>
0.0000

> <Gold.PLP.part.buried>
-5.3750

> <Gold.PLP.part.nonpolar>
-24.3907

> <Gold.PLP.part.repulsive>
0.0665

> <Gold.PLP.ligand.clash>
0.0000

> <Gold.PLP.ligand.torsion>
2.1200

> <Gold.PLP.Chemscore.Hbond>
2.6320

> <Gold.PLP.Chemscore.CHOScore>
0.0000

> <Gold.PLP.Chemscore.Metal>
0.0000

> <Gold.Chemscore.Hbonds>
donor molecule, donor type, donor heavy atom, donor atom, acceptor molecule, acceptor atom, score
      P1  H  6896  6907       L1    24  1.00
      P1  H  6931  6943       L1     7  0.93
      P1  H  6934  6947       L1     7  0.71

> <Gold.PLP.Chemscore.Internal.Correction>
2.3515

> <Gold.Rescore>
     Score         DG    S(hbond)    S(metal)    S(lipo)     H(rot)  DE(clash)    DE(int)     intcor
     13.15     -16.34       2.68        0.00      58.49       1.92       0.01       3.18       ----

> <Gold.Chemscore.Fitness>
13.1467

> <Gold.Chemscore.DG>
-16.3431

> <Gold.Chemscore.ZeroCoef>
-5.4800

> <Gold.Chemscore.Hbond>
2.6753

> <Gold.Chemscore.Metal>
0.0000

> <Gold.Chemscore.Lipo>
58.4861

> <Gold.Chemscore.Internal_Hbond>
0.0000

> <Gold.Chemscore.DEClash>
0.0135

> <Gold.Chemscore.DEInternal>
3.1828

> <Gold.Chemscore.Rot>
1.9201

> <Gold.Chemscore.Internal.Correction>
   9.000000E+99

> <Gold.Chemscore.Hbonds>
donor molecule, donor type, donor heavy atom, donor atom, acceptor molecule, acceptor atom, score
      P1  H  6896  6907       L1    24  0.99
      P1  H  6931  6943       L1     7  0.91
      P1  H  6934  6947       L1     7  0.65

> <Gold.Chemscore.Hbond.Weighted>
-8.9356

> <Gold.Chemscore.Metal.Weighted>
-0.0000

> <Gold.Chemscore.Lipo.Weighted>
-6.8429

> <Gold.Chemscore.Internal_Hbond.Weighted>
0.0000

> <Gold.Chemscore.DEClash.Weighted>
0.0135

> <Gold.Chemscore.DEInternal.Weighted>
3.1828

> <Gold.Chemscore.Rot.Weighted>
4.9154

> <Gold.Chemscore.Internal.Correction.Weighted>
   9.000000E+99

> <Gold.Protein.RotatedTorsions>
[ 6907 6896 6895 6894 ] final  -22.27 input  -60.11 | X-H torsion
[ 7974 7965 7964 7962 ] final  116.38 input  175.53 | X-H torsion
[ 8008 7997 7996 7995 ] final  -16.64 input   59.86 | X-H torsion
[ 10167 10162 10161 10158 ] final -106.86 input  -65.29 | X-H torsion
[ 10718 10713 10712 10709 ] final   -7.21 input   66.30 | X-H torsion
[ 10763 10752 10751 10750 ] final -165.06 input  -60.55 | X-H torsion
[ 11005 11000 10999 10996 ] final   43.68 input  -57.11 | X-H torsion

> <Gold.Protein.ActiveResidues>
 VAL166  LYS551  ARG553  GLY616  TRP617  ASP618  TYR619  PRO620  LYS621  CYS622 
 ASP623  PHE694  ASN695  SER759  ASP760  ASP761  ALA762  ILE779  LEU786  VAL792 
 PHE793  MET794  SER795  GLU796  ALA797  LYS798  CYS799  TRP800  GLU811  SER814 

> <Gold.Protein.RotatedAtoms>
  151.2211  135.0519  159.8949 H   0  0  0  0  0  0  0  0  0  0  0  0  # atno 6907 bound_to 6896
  152.5415  134.0640  159.8175 H   0  0  0  0  0  0  0  0  0  0  0  0  # atno 6908 bound_to 6896
  151.0806  133.5345  159.2652 H   0  0  0  0  0  0  0  0  0  0  0  0  # atno 6909 bound_to 6896
  145.1803  139.3053  143.4421 H   0  0  0  0  0  0  0  0  0  0  0  0  # atno 7974 bound_to 7965
  154.5038  140.2164  155.9293 H   0  0  0  0  0  0  0  0  0  0  0  0  # atno 8008 bound_to 7997
  156.1467  140.3169  155.8549 H   0  0  0  0  0  0  0  0  0  0  0  0  # atno 8009 bound_to 7997
  155.4017  140.0485  157.3027 H   0  0  0  0  0  0  0  0  0  0  0  0  # atno 8010 bound_to 7997
  140.1832  143.3950  152.1265 H   0  0  0  0  0  0  0  0  0  0  0  0  # atno 10167 bound_to 10162
  156.7206  130.5149  149.5869 H   0  0  0  0  0  0  0  0  0  0  0  0  # atno 10718 bound_to 10713
  154.6969  135.2981  154.9399 H   0  0  0  0  0  0  0  0  0  0  0  0  # atno 10763 bound_to 10752
  154.0344  135.6666  153.4788 H   0  0  0  0  0  0  0  0  0  0  0  0  # atno 10764 bound_to 10752
  153.0652  135.5092  154.8091 H   0  0  0  0  0  0  0  0  0  0  0  0  # atno 10765 bound_to 10752
  140.1622  134.4326  155.8310 H   0  0  0  0  0  0  0  0  0  0  0  0  # atno 11005 bound_to 11000
  146.3454  140.1980  142.8589 LP  0  0  0  0  0  0  0  0  0  0  0  0  # atno 17320 bound_to 7965
  145.0143  140.8740  143.5205 LP  0  0  0  0  0  0  0  0  0  0  0  0  # atno 17321 bound_to 7965
  139.5287  144.7133  151.5134 LP  0  0  0  0  0  0  0  0  0  0  0  0  # atno 17342 bound_to 10162
  140.6505  143.8705  150.6781 LP  0  0  0  0  0  0  0  0  0  0  0  0  # atno 17343 bound_to 10162
  156.1597  130.6366  151.0703 LP  0  0  0  0  0  0  0  0  0  0  0  0  # atno 17370 bound_to 10713
  157.6899  131.0813  150.7136 LP  0  0  0  0  0  0  0  0  0  0  0  0  # atno 17371 bound_to 10713
  141.2210  133.6918  156.7615 LP  0  0  0  0  0  0  0  0  0  0  0  0  # atno 17394 bound_to 11000
  140.2476  134.8565  157.3635 LP  0  0  0  0  0  0  0  0  0  0  0  0  # atno 17395 bound_to 11000

$$$$
