AV-unprocessed.smi:1953|AV-procd|sdf|7893|dock9
  -GOLD-   2272010 53D 1   1.00000     0.00000
 Structure written by MMmdl.
 43 45  0  0  0  0  0  0  0  0  1 V2000
  154.5270  137.7145  154.9196 N   0  0  0  0  0  0  0  0  0  0  0  0
  153.4803  138.1881  155.0602 C   0  0  0  0  0  0  0  0  0  0  0  0
  152.1860  138.7681  155.2025 C   0  0  0  0  0  0  0  0  0  0  0  0
  152.0175  140.0278  155.6545 C   0  0  0  0  0  0  0  0  0  0  0  0
  150.7747  140.6083  155.7840 N   0  0  0  0  0  0  0  0  0  0  0  0
  150.6059  141.8949  156.3984 C   0  0  0  0  0  0  0  0  0  0  0  0
  151.2507  142.1871  157.7396 C   0  0  0  0  0  0  0  0  0  0  0  0
  149.7554  142.0103  157.6449 C   0  0  0  0  0  0  0  0  0  0  0  0
  149.6092  139.8571  155.5195 C   0  0  0  0  0  0  0  0  0  0  0  0
  148.4867  140.3344  155.7051 O   0  0  0  0  0  0  0  0  0  0  0  0
  149.7676  138.5355  155.0352 N   0  0  0  0  0  0  0  0  0  0  0  0
  148.5526  137.7636  154.6944 C   0  0  0  0  0  0  0  0  0  0  0  0
  148.5349  136.3654  155.3293 C   0  0  0  0  0  0  0  0  0  0  0  0
  148.5081  136.2291  156.5534 O   0  0  0  0  0  0  0  0  0  0  0  0
  148.5402  135.3314  154.4745 N   0  0  0  0  0  0  0  0  0  0  0  0
  148.5448  133.9218  154.8536 C   0  0  0  0  0  0  0  0  0  0  0  0
  149.7981  133.5871  155.6906 C   0  0  0  0  0  0  0  0  0  0  0  0
  149.8669  132.0890  156.0279 C   0  0  0  0  0  0  0  0  0  0  0  0
  149.8093  131.2279  154.7569 C   0  0  0  0  0  0  0  0  0  0  0  0
  148.5576  131.5514  153.9264 C   0  0  0  0  0  0  0  0  0  0  0  0
  148.4861  133.0486  153.5856 C   0  0  0  0  0  0  0  0  0  0  0  0
  151.0392  137.9380  154.8407 C   0  0  0  0  0  0  0  0  0  0  0  0
  151.1430  136.7939  154.3951 O   0  0  0  0  0  0  0  0  0  0  0  0
  152.8894  140.6097  155.9167 H   0  0  0  0  0  0  0  0  0  0  0  0
  150.5492  142.7347  155.7080 H   0  0  0  0  0  0  0  0  0  0  0  0
  151.8144  141.3920  158.2243 H   0  0  0  0  0  0  0  0  0  0  0  0
  151.6298  143.1934  157.9045 H   0  0  0  0  0  0  0  0  0  0  0  0
  149.1373  142.8995  157.7486 H   0  0  0  0  0  0  0  0  0  0  0  0
  149.3347  141.0994  158.0662 H   0  0  0  0  0  0  0  0  0  0  0  0
  147.6438  138.2846  154.9985 H   0  0  0  0  0  0  0  0  0  0  0  0
  148.4528  137.6709  153.6113 H   0  0  0  0  0  0  0  0  0  0  0  0
  148.5560  135.5357  153.4858 H   0  0  0  0  0  0  0  0  0  0  0  0
  147.6546  133.7141  155.4508 H   0  0  0  0  0  0  0  0  0  0  0  0
  150.6963  133.8756  155.1425 H   0  0  0  0  0  0  0  0  0  0  0  0
  149.8025  134.1664  156.6145 H   0  0  0  0  0  0  0  0  0  0  0  0
  150.7814  131.8751  156.5817 H   0  0  0  0  0  0  0  0  0  0  0  0
  149.0381  131.8255  156.6862 H   0  0  0  0  0  0  0  0  0  0  0  0
  150.7026  131.4020  154.1558 H   0  0  0  0  0  0  0  0  0  0  0  0
  149.8166  130.1706  155.0231 H   0  0  0  0  0  0  0  0  0  0  0  0
  148.5574  130.9615  153.0094 H   0  0  0  0  0  0  0  0  0  0  0  0
  147.6651  131.2602  154.4818 H   0  0  0  0  0  0  0  0  0  0  0  0
  147.5694  133.2549  153.0317 H   0  0  0  0  0  0  0  0  0  0  0  0
  149.3127  133.3055  152.9213 H   0  0  0  0  0  0  0  0  0  0  0  0
  1  2  3  0  0  0  0
  2  3  1  0  0  0  0
  3 22  1  0  0  0  0
  3  4  2  0  0  0  0
  4  5  1  0  0  0  0
  4 24  1  0  0  0  0
  5  6  1  0  0  0  0
  5  9  1  0  0  0  0
  6  8  1  0  0  0  0
  6  7  1  0  0  0  0
  6 25  1  0  0  0  0
  7  8  1  0  0  0  0
  7 26  1  0  0  0  0
  7 27  1  0  0  0  0
  8 28  1  0  0  0  0
  8 29  1  0  0  0  0
  9 10  2  0  0  0  0
  9 11  1  0  0  0  0
 11 12  1  0  0  0  0
 11 22  1  0  0  0  0
 12 13  1  0  0  0  0
 12 30  1  0  0  0  0
 12 31  1  0  0  0  0
 13 14  2  0  0  0  0
 13 15  1  0  0  0  0
 15 16  1  0  0  0  0
 15 32  1  0  0  0  0
 16 21  1  0  0  0  0
 16 17  1  0  0  0  0
 16 33  1  0  0  0  0
 17 18  1  0  0  0  0
 17 34  1  0  0  0  0
 17 35  1  0  0  0  0
 18 19  1  0  0  0  0
 18 36  1  0  0  0  0
 18 37  1  0  0  0  0
 19 20  1  0  0  0  0
 19 38  1  0  0  0  0
 19 39  1  0  0  0  0
 20 21  1  0  0  0  0
 20 40  1  0  0  0  0
 20 41  1  0  0  0  0
 21 42  1  0  0  0  0
 21 43  1  0  0  0  0
 22 23  2  0  0  0  0
M  END
> <s_m_source_file>
AV-unprocessed.smi

> <i_m_source_file_index>
1953

> <i_lp_mmshare_version>
43012

> <i_f3d_flags>
0

> <s_epik_input>
TiNDYzFbY0hdbihbQ0hdMltDSDJdW0NIMl0yKWMoPU8pbihjMT1PKVtDSDJdQyg9TylbTkhdW0NIXTNbQ0gyXVtDSDJdW0NIMl1bQ0gyXVtDSDJdMw==

> <s_epik_cmdline>
J2VwaWtfcHl0aG9uJywgJy1waCcsICc3LjAnLCAnLXRuJywgJzgnLCAnLW1hJywgJzIwMCcsICctbWV0YWxfYmluZGluZycsICctaW1hZScsICc8aW5maWxlLm1hZT4nLCAnLW9tYWUnLCAnPG91dGZpbGUubWFlPic=

> <r_lp_tautomer_probability>
1

> <r_epik_Ionization_Penalty>
1.91355e-08

> <r_epik_Ionization_Penalty_Charging>
8.86257e-11

> <r_epik_Ionization_Penalty_Neutral>
1.90469e-08

> <r_epik_State_Penalty>
-0

> <r_epik_Charging_Adjusted_Penalty>
8.86257e-11

> <i_epik_Tot_Q>
0

> <i_epik_Tot_abs_Q>
0

> <r_epik_Metal_State_Penalty>
-0

> <b_epik_Metal_Only>
0

> <s_lp_Force_Field>
OPLS_2005

> <r_lp_Energy>
34.5376

> <b_lp_Chiralities_Consistent>
1

> <s_lp_Variant>
AV-unprocessed.smi:1953-1

> <Gold.Version>
5.8.1

> <Gold.Id.Protein>
6NUR|6NUR_protein|mol2

> <Gold.PLP.Fitness>
44.3985

> <Gold.PLP.PLP>
-38.5919

> <Gold.PLP.part.hbond>
-4.0000

> <Gold.PLP.part.metal>
0.0000

> <Gold.PLP.part.buried>
-0.9441

> <Gold.PLP.part.nonpolar>
-34.7009

> <Gold.PLP.part.repulsive>
1.1042

> <Gold.PLP.ligand.clash>
0.0000

> <Gold.PLP.ligand.torsion>
0.1958

> <Gold.PLP.Chemscore.Hbond>
2.0000

> <Gold.PLP.Chemscore.CHOScore>
0.0000

> <Gold.PLP.Chemscore.Metal>
0.0000

> <Gold.Chemscore.Hbonds>
donor molecule, donor type, donor heavy atom, donor atom, acceptor molecule, acceptor atom, score
      L1  H    15    32       P1  7948  1.00
      P1  H 10752 10764       L1    23  0.63

> <Gold.PLP.Chemscore.Internal.Correction>
0.1983

> <Gold.Rescore>
     Score         DG    S(hbond)    S(metal)    S(lipo)     H(rot)  DE(clash)    DE(int)     intcor
     12.65     -15.77       1.93        0.00      70.57       1.73       1.31       1.80       ----

> <Gold.Chemscore.Fitness>
12.6516

> <Gold.Chemscore.DG>
-15.7686

> <Gold.Chemscore.ZeroCoef>
-5.4800

> <Gold.Chemscore.Hbond>
1.9343

> <Gold.Chemscore.Metal>
0.0000

> <Gold.Chemscore.Lipo>
70.5677

> <Gold.Chemscore.Internal_Hbond>
0.0000

> <Gold.Chemscore.DEClash>
1.3135

> <Gold.Chemscore.DEInternal>
1.8035

> <Gold.Chemscore.Rot>
1.7298

> <Gold.Chemscore.Internal.Correction>
   9.000000E+99

> <Gold.Chemscore.Hbonds>
donor molecule, donor type, donor heavy atom, donor atom, acceptor molecule, acceptor atom, score
      L1  H    15    32       P1  7948  0.98
      P1  H 10752 10764       L1    23  0.62

> <Gold.Chemscore.Hbond.Weighted>
-6.4605

> <Gold.Chemscore.Metal.Weighted>
-0.0000

> <Gold.Chemscore.Lipo.Weighted>
-8.2564

> <Gold.Chemscore.Internal_Hbond.Weighted>
0.0000

> <Gold.Chemscore.DEClash.Weighted>
1.3135

> <Gold.Chemscore.DEInternal.Weighted>
1.8035

> <Gold.Chemscore.Rot.Weighted>
4.4284

> <Gold.Chemscore.Internal.Correction.Weighted>
   9.000000E+99

> <Gold.Protein.RotatedTorsions>
[ 6907 6896 6895 6894 ] final -117.63 input  -60.11 | X-H torsion
[ 7974 7965 7964 7962 ] final   21.58 input  175.53 | X-H torsion
[ 8008 7997 7996 7995 ] final  -87.81 input   59.86 | X-H torsion
[ 10167 10162 10161 10158 ] final  -11.32 input  -65.29 | X-H torsion
[ 10718 10713 10712 10709 ] final -105.75 input   66.30 | X-H torsion
[ 10763 10752 10751 10750 ] final  -91.16 input  -60.55 | X-H torsion
[ 11005 11000 10999 10996 ] final  133.02 input  -57.11 | X-H torsion

> <Gold.Protein.ActiveResidues>
 VAL166  LYS551  ARG553  GLY616  TRP617  ASP618  TYR619  PRO620  LYS621  CYS622 
 ASP623  PHE694  ASN695  SER759  ASP760  ASP761  ALA762  ILE779  LEU786  VAL792 
 PHE793  MET794  SER795  GLU796  ALA797  LYS798  CYS799  TRP800  GLU811  SER814 

> <Gold.Protein.RotatedAtoms>
  150.8152  133.8350  159.3163 H   0  0  0  0  0  0  0  0  0  0  0  0  # atno 6907 bound_to 6896
  151.6124  135.1037  160.0093 H   0  0  0  0  0  0  0  0  0  0  0  0  # atno 6908 bound_to 6896
  152.4244  133.7129  159.6546 H   0  0  0  0  0  0  0  0  0  0  0  0  # atno 6909 bound_to 6896
  146.2065  139.8006  142.8722 H   0  0  0  0  0  0  0  0  0  0  0  0  # atno 7974 bound_to 7965
  154.6675  140.0561  157.0130 H   0  0  0  0  0  0  0  0  0  0  0  0  # atno 8008 bound_to 7997
  155.1137  140.3241  155.4496 H   0  0  0  0  0  0  0  0  0  0  0  0  # atno 8009 bound_to 7997
  156.2644  140.2010  156.6261 H   0  0  0  0  0  0  0  0  0  0  0  0  # atno 8010 bound_to 7997
  140.7135  143.5652  150.9152 H   0  0  0  0  0  0  0  0  0  0  0  0  # atno 10167 bound_to 10162
  156.0359  130.5579  150.7583 H   0  0  0  0  0  0  0  0  0  0  0  0  # atno 10718 bound_to 10713
  154.6732  135.5278  153.8165 H   0  0  0  0  0  0  0  0  0  0  0  0  # atno 10763 bound_to 10752
  153.0515  135.6534  154.0692 H   0  0  0  0  0  0  0  0  0  0  0  0  # atno 10764 bound_to 10752
  154.0588  135.2963  155.3308 H   0  0  0  0  0  0  0  0  0  0  0  0  # atno 10765 bound_to 10752
  139.9826  134.9543  156.9666 H   0  0  0  0  0  0  0  0  0  0  0  0  # atno 11005 bound_to 11000
  145.3300  141.0264  143.3452 LP  0  0  0  0  0  0  0  0  0  0  0  0  # atno 17320 bound_to 7965
  144.8806  139.4910  143.6725 LP  0  0  0  0  0  0  0  0  0  0  0  0  # atno 17321 bound_to 7965
  139.9378  143.6417  152.3061 LP  0  0  0  0  0  0  0  0  0  0  0  0  # atno 17342 bound_to 10162
  139.6891  144.7648  151.1470 LP  0  0  0  0  0  0  0  0  0  0  0  0  # atno 17343 bound_to 10162
  157.5109  131.0925  151.0199 LP  0  0  0  0  0  0  0  0  0  0  0  0  # atno 17370 bound_to 10713
  157.0554  130.5804  149.5377 LP  0  0  0  0  0  0  0  0  0  0  0  0  # atno 17371 bound_to 10713
  140.5066  134.1044  155.7261 LP  0  0  0  0  0  0  0  0  0  0  0  0  # atno 17394 bound_to 11000
  141.1496  133.8993  157.2131 LP  0  0  0  0  0  0  0  0  0  0  0  0  # atno 17395 bound_to 11000

$$$$
