AV-unprocessed.smi:906|AV-procd|sdf|4100|dock3
  -GOLD-   22720 1593D 1   1.00000     0.00000
 Structure written by MMmdl.
 47 48  0  0  0  0  0  0  0  0  1 V2000
  147.6105  130.1985  153.0376 C   0  0  0  0  0  0  0  0  0  0  0  0
  148.4507  131.3234  153.6044 C   0  0  0  0  0  0  0  0  0  0  0  0
  149.4315  131.0709  154.5867 C   0  0  0  0  0  0  0  0  0  0  0  0
  150.1814  132.1559  155.0797 C   0  0  0  0  0  0  0  0  0  0  0  0
  149.9223  133.4471  154.5754 C   0  0  0  0  0  0  0  0  0  0  0  0
  150.6884  134.6553  155.0866 C   0  0  0  0  0  0  0  0  0  0  0  0
  149.7720  135.8176  155.5049 C   0  0  0  0  0  0  0  0  0  0  0  0
  150.5541  136.9677  155.9486 N   0  0  0  0  0  0  0  0  0  0  0  0
  151.2762  137.0434  157.0789 C   0  0  0  0  0  0  0  0  0  0  0  0
  151.3011  136.1321  157.9072 O   0  0  0  0  0  0  0  0  0  0  0  0
  151.9987  138.1838  157.2095 N   0  0  0  0  0  0  0  0  0  0  0  0
  151.8977  139.3934  156.3801 C   0  0  0  0  0  0  0  0  0  0  0  0
  151.2600  140.5167  157.2198 C   0  0  0  0  0  0  0  0  0  0  0  0
  152.0757  140.7794  158.4137 N   0  0  0  0  0  0  0  0  0  0  0  0
  151.6290  141.9157  159.2379 C   0  0  2  0  0  0  0  0  0  0  0  0
  150.5661  142.8036  158.5536 C   0  0  0  0  0  0  0  0  0  0  0  0
  152.8211  142.7394  159.7814 C   0  0  0  0  0  0  0  0  0  0  0  0
  153.8988  141.9640  159.9071 F   0  0  0  0  0  0  0  0  0  0  0  0
  153.1205  143.7737  158.9956 F   0  0  0  0  0  0  0  0  0  0  0  0
  152.5101  143.2116  160.9886 F   0  0  0  0  0  0  0  0  0  0  0  0
  152.2415  139.5600  159.2153 C   0  0  0  0  0  0  0  0  0  0  0  0
  152.8677  138.4413  158.3608 C   0  0  0  0  0  0  0  0  0  0  0  0
  148.9195  133.5912  153.5936 C   0  0  0  0  0  0  0  0  0  0  0  0
  148.1961  132.5566  153.1142 N   0  0  0  0  0  0  0  0  0  0  0  0
  147.9281  129.2315  153.4294 H   0  0  0  0  0  0  0  0  0  0  0  0
  147.6963  130.1689  151.9511 H   0  0  0  0  0  0  0  0  0  0  0  0
  146.5612  130.3427  153.2962 H   0  0  0  0  0  0  0  0  0  0  0  0
  149.6054  130.0714  154.9573 H   0  0  0  0  0  0  0  0  0  0  0  0
  150.9357  131.9977  155.8364 H   0  0  0  0  0  0  0  0  0  0  0  0
  151.3067  134.3533  155.9329 H   0  0  0  0  0  0  0  0  0  0  0  0
  151.3781  134.9897  154.3110 H   0  0  0  0  0  0  0  0  0  0  0  0
  149.1413  136.1189  154.6682 H   0  0  0  0  0  0  0  0  0  0  0  0
  149.1005  135.4746  156.2936 H   0  0  0  0  0  0  0  0  0  0  0  0
  150.5918  137.7562  155.3193 H   0  0  0  0  0  0  0  0  0  0  0  0
  152.8956  139.6897  156.0528 H   0  0  0  0  0  0  0  0  0  0  0  0
  151.3231  139.2558  155.4643 H   0  0  0  0  0  0  0  0  0  0  0  0
  151.1829  141.4111  156.6049 H   0  0  0  0  0  0  0  0  0  0  0  0
  150.2472  140.2292  157.5039 H   0  0  0  0  0  0  0  0  0  0  0  0
  151.1582  141.4777  160.1192 H   0  0  0  0  0  0  0  0  0  0  0  0
  150.1850  143.5492  159.2513 H   0  0  0  0  0  0  0  0  0  0  0  0
  149.7090  142.2270  158.2069 H   0  0  0  0  0  0  0  0  0  0  0  0
  150.9747  143.3451  157.7005 H   0  0  0  0  0  0  0  0  0  0  0  0
  152.8888  139.7643  160.0688 H   0  0  0  0  0  0  0  0  0  0  0  0
  151.2815  139.2278  159.6112 H   0  0  0  0  0  0  0  0  0  0  0  0
  153.0260  137.5541  158.9753 H   0  0  0  0  0  0  0  0  0  0  0  0
  153.8576  138.7392  158.0114 H   0  0  0  0  0  0  0  0  0  0  0  0
  148.6867  134.5640  153.1857 H   0  0  0  0  0  0  0  0  0  0  0  0
  1  2  1  0  0  0  0
  1 25  1  0  0  0  0
  1 26  1  0  0  0  0
  1 27  1  0  0  0  0
  2 24  1  0  0  0  0
  2  3  2  0  0  0  0
  3  4  1  0  0  0  0
  3 28  1  0  0  0  0
  4  5  2  0  0  0  0
  4 29  1  0  0  0  0
  5  6  1  0  0  0  0
  5 23  1  0  0  0  0
  6  7  1  0  0  0  0
  6 30  1  0  0  0  0
  6 31  1  0  0  0  0
  7  8  1  0  0  0  0
  7 32  1  0  0  0  0
  7 33  1  0  0  0  0
  8  9  1  0  0  0  0
  8 34  1  0  0  0  0
  9 10  2  0  0  0  0
  9 11  1  0  0  0  0
 11 22  1  0  0  0  0
 11 12  1  0  0  0  0
 12 13  1  0  0  0  0
 12 35  1  0  0  0  0
 12 36  1  0  0  0  0
 13 14  1  0  0  0  0
 13 37  1  0  0  0  0
 13 38  1  0  0  0  0
 14 15  1  0  0  0  0
 14 21  1  0  0  0  0
 15 16  1  0  0  0  0
 15 17  1  0  0  0  0
 15 39  1  0  0  0  0
 16 40  1  0  0  0  0
 16 41  1  0  0  0  0
 16 42  1  0  0  0  0
 17 18  1  0  0  0  0
 17 19  1  0  0  0  0
 17 20  1  0  0  0  0
 21 22  1  0  0  0  0
 21 43  1  0  0  0  0
 21 44  1  0  0  0  0
 22 45  1  0  0  0  0
 22 46  1  0  0  0  0
 23 24  2  0  0  0  0
 23 47  1  0  0  0  0
M  END
> <s_m_source_file>
AV-unprocessed.smi

> <i_m_source_file_index>
906

> <i_lp_mmshare_version>
43012

> <i_f3d_flags>
0

> <s_epik_input>
W0NIM11jMVtjSF1bY0hdYyhbY0hdbjEpW0NIMl1bQ0gyXVtOSF1DKD1PKU4yW0NIMl1bQ0gyXU4oW0NASF0oW0NIM10pQyhGKShGKUYpW0NIMl1bQ0gyXTI=

> <s_epik_cmdline>
J2VwaWtfcHl0aG9uJywgJy1waCcsICc3LjAnLCAnLXRuJywgJzgnLCAnLW1hJywgJzIwMCcsICctbWV0YWxfYmluZGluZycsICctaW1hZScsICc8aW5maWxlLm1hZT4nLCAnLW9tYWUnLCAnPG91dGZpbGUubWFlPic=

> <r_epik_Ionization_Penalty>
0.0782886

> <r_epik_Ionization_Penalty_Charging>
0

> <r_epik_Ionization_Penalty_Neutral>
0.0782886

> <r_epik_State_Penalty>
0.0661423

> <r_epik_Charging_Adjusted_Penalty>
0.0661423

> <i_epik_Tot_Q>
0

> <i_epik_Tot_abs_Q>
0

> <r_epik_Metal_State_Penalty>
0.060629

> <b_epik_Metal_Only>
0

> <s_lp_Force_Field>
OPLS_2005

> <r_lp_Energy>
48.1538

> <b_lp_Chiralities_Consistent>
1

> <s_lp_Variant>
AV-unprocessed.smi:906-1

> <Gold.Version>
5.8.1

> <Gold.Id.Protein>
6NUR|6NUR_protein|mol2

> <Gold.PLP.Fitness>
43.3385

> <Gold.PLP.PLP>
-43.6620

> <Gold.PLP.part.hbond>
-1.0000

> <Gold.PLP.part.metal>
0.0000

> <Gold.PLP.part.buried>
-6.3304

> <Gold.PLP.part.nonpolar>
-36.5838

> <Gold.PLP.part.repulsive>
0.1757

> <Gold.PLP.ligand.clash>
0.4768

> <Gold.PLP.ligand.torsion>
2.3023

> <Gold.PLP.Chemscore.Hbond>
0.3786

> <Gold.PLP.Chemscore.CHOScore>
1.0000

> <Gold.PLP.Chemscore.Metal>
0.0000

> <Gold.Chemscore.Hbonds>
donor molecule, donor type, donor heavy atom, donor atom, acceptor molecule, acceptor atom, score
      P1  H  6896  6908       L1    10  0.26
      L1  C    23    47       P1  7948  0.97

> <Gold.PLP.Chemscore.Internal.Correction>
0.6222

> <Gold.Rescore>
     Score         DG    S(hbond)    S(metal)    S(lipo)     H(rot)  DE(clash)    DE(int)     intcor
     11.85     -14.45       0.81        0.00      88.18       1.58       0.01       2.59       ----

> <Gold.Chemscore.Fitness>
11.8515

> <Gold.Chemscore.DG>
-14.4472

> <Gold.Chemscore.ZeroCoef>
-5.4800

> <Gold.Chemscore.Hbond>
0.8099

> <Gold.Chemscore.Metal>
0.0000

> <Gold.Chemscore.Lipo>
88.1832

> <Gold.Chemscore.Internal_Hbond>
0.0000

> <Gold.Chemscore.DEClash>
0.0088

> <Gold.Chemscore.DEInternal>
2.5869

> <Gold.Chemscore.Rot>
1.5841

> <Gold.Chemscore.Internal.Correction>
   9.000000E+99

> <Gold.Chemscore.Hbonds>
donor molecule, donor type, donor heavy atom, donor atom, acceptor molecule, acceptor atom, score
      P1  H  6896  6908       L1    10  0.25

> <Gold.Chemscore.Hbond.Weighted>
-2.7051

> <Gold.Chemscore.Metal.Weighted>
-0.0000

> <Gold.Chemscore.Lipo.Weighted>
-10.3174

> <Gold.Chemscore.Internal_Hbond.Weighted>
0.0000

> <Gold.Chemscore.DEClash.Weighted>
0.0088

> <Gold.Chemscore.DEInternal.Weighted>
2.5869

> <Gold.Chemscore.Rot.Weighted>
4.0554

> <Gold.Chemscore.Internal.Correction.Weighted>
   9.000000E+99

> <Gold.Protein.RotatedTorsions>
[ 6907 6896 6895 6894 ] final -155.18 input  -60.11 | X-H torsion
[ 7974 7965 7964 7962 ] final -112.26 input  175.53 | X-H torsion
[ 8008 7997 7996 7995 ] final  -30.26 input   59.86 | X-H torsion
[ 10167 10162 10161 10158 ] final   64.25 input  -65.29 | X-H torsion
[ 10718 10713 10712 10709 ] final  -59.36 input   66.30 | X-H torsion
[ 10763 10752 10751 10750 ] final  129.02 input  -60.55 | X-H torsion
[ 11005 11000 10999 10996 ] final -162.71 input  -57.11 | X-H torsion

> <Gold.Protein.ActiveResidues>
 VAL166  LYS551  ARG553  GLY616  TRP617  ASP618  TYR619  PRO620  LYS621  CYS622 
 ASP623  PHE694  ASN695  SER759  ASP760  ASP761  ALA762  ILE779  LEU786  VAL792 
 PHE793  MET794  SER795  GLU796  ALA797  LYS798  CYS799  TRP800  GLU811  SER814 

> <Gold.Protein.RotatedAtoms>
  151.2686  133.4266  159.2619 H   0  0  0  0  0  0  0  0  0  0  0  0  # atno 6907 bound_to 6896
  151.0466  134.9644  159.8200 H   0  0  0  0  0  0  0  0  0  0  0  0  # atno 6908 bound_to 6896
  152.5375  134.2642  159.8999 H   0  0  0  0  0  0  0  0  0  0  0  0  # atno 6909 bound_to 6896
  145.1461  140.8804  143.3673 H   0  0  0  0  0  0  0  0  0  0  0  0  # atno 7974 bound_to 7965
  154.4257  140.1796  156.1378 H   0  0  0  0  0  0  0  0  0  0  0  0  # atno 8008 bound_to 7997
  156.0016  140.3359  155.6826 H   0  0  0  0  0  0  0  0  0  0  0  0  # atno 8009 bound_to 7997
  155.6235  140.0662  157.2661 H   0  0  0  0  0  0  0  0  0  0  0  0  # atno 8010 bound_to 7997
  140.1243  144.4703  150.6902 H   0  0  0  0  0  0  0  0  0  0  0  0  # atno 10167 bound_to 10162
  156.1067  130.4179  150.0704 H   0  0  0  0  0  0  0  0  0  0  0  0  # atno 10718 bound_to 10713
  153.7350  135.3233  155.3293 H   0  0  0  0  0  0  0  0  0  0  0  0  # atno 10763 bound_to 10752
  154.8314  135.4531  154.1084 H   0  0  0  0  0  0  0  0  0  0  0  0  # atno 10764 bound_to 10752
  153.2242  135.6952  153.8046 H   0  0  0  0  0  0  0  0  0  0  0  0  # atno 10765 bound_to 10752
  140.6062  134.4896  157.5210 H   0  0  0  0  0  0  0  0  0  0  0  0  # atno 11005 bound_to 11000
  145.0480  139.3205  143.5943 LP  0  0  0  0  0  0  0  0  0  0  0  0  # atno 17320 bound_to 7965
  146.3500  139.9878  142.8689 LP  0  0  0  0  0  0  0  0  0  0  0  0  # atno 17321 bound_to 7965
  140.6854  143.2347  151.5274 LP  0  0  0  0  0  0  0  0  0  0  0  0  # atno 17342 bound_to 10162
  139.5552  144.2293  152.1600 LP  0  0  0  0  0  0  0  0  0  0  0  0  # atno 17343 bound_to 10162
  156.8678  130.9514  151.3612 LP  0  0  0  0  0  0  0  0  0  0  0  0  # atno 17370 bound_to 10713
  157.6245  130.8680  149.9165 LP  0  0  0  0  0  0  0  0  0  0  0  0  # atno 17371 bound_to 10713
  139.9211  134.8146  156.1208 LP  0  0  0  0  0  0  0  0  0  0  0  0  # atno 17394 bound_to 11000
  141.0839  133.6742  156.2394 LP  0  0  0  0  0  0  0  0  0  0  0  0  # atno 17395 bound_to 11000

$$$$
