AV-unprocessed.smi:1517|AV-procd|sdf|6121|dock3
  -GOLD-   22720 6253D 1   1.00000     0.00000
 Structure written by MMmdl.
 42 44  0  0  0  0  0  0  0  0  2 V2000
  148.6549  141.0588  152.9844 O   0  0  0  0  0  0  0  0  0  0  0  0
  148.7202  140.4579  154.2601 C   0  0  0  0  0  0  0  0  0  0  0  0
  149.1947  141.4833  155.2979 C   0  0  0  0  0  0  0  0  0  0  0  0
  150.3999  141.0383  155.9788 N   0  0  0  0  0  0  0  0  0  0  0  0
  150.8542  141.7518  157.0926 C   0  0  0  0  0  0  0  0  0  0  0  0
  150.3963  142.9636  157.5071 N   0  3  0  0  0  0  0  0  0  0  0  0
  151.1030  143.3313  158.6560 C   0  0  0  0  0  0  0  0  0  0  0  0
  151.0101  144.4665  159.4555 C   0  0  0  0  0  0  0  0  0  0  0  0
  151.8801  144.5339  160.5637 C   0  0  0  0  0  0  0  0  0  0  0  0
  152.7956  143.4987  160.8446 C   0  0  0  0  0  0  0  0  0  0  0  0
  152.8831  142.3511  160.0294 C   0  0  0  0  0  0  0  0  0  0  0  0
  152.0225  142.2912  158.9340 C   0  0  0  0  0  0  0  0  0  0  0  0
  151.8343  141.3304  157.9331 N   0  0  0  0  0  0  0  0  0  0  0  0
  152.6454  140.1040  157.9385 C   0  0  0  0  0  0  0  0  0  0  0  0
  152.3242  139.1818  159.1305 C   0  0  1  0  0  0  0  0  0  0  0  0
  150.9398  138.8871  159.1461 O   0  0  0  0  0  0  0  0  0  0  0  0
  153.1923  137.9309  159.1051 C   0  0  0  0  0  0  0  0  0  0  0  0
  153.2246  137.1001  157.9622 C   0  0  0  0  0  0  0  0  0  0  0  0
  154.0353  135.9489  157.9416 C   0  0  0  0  0  0  0  0  0  0  0  0
  154.8239  135.6225  159.0609 C   0  0  0  0  0  0  0  0  0  0  0  0
  155.6039  134.5159  159.0413 F   0  0  0  0  0  0  0  0  0  0  0  0
  154.8041  136.4503  160.1994 C   0  0  0  0  0  0  0  0  0  0  0  0
  153.9936  137.6023  160.2223 C   0  0  0  0  0  0  0  0  0  0  0  0
  153.9939  138.3941  161.3220 F   0  0  0  0  0  0  0  0  0  0  0  0
  148.7944  140.3913  152.3298 H   0  0  0  0  0  0  0  0  0  0  0  0
  147.7569  140.0230  154.5294 H   0  0  0  0  0  0  0  0  0  0  0  0
  149.4370  139.6386  154.2003 H   0  0  0  0  0  0  0  0  0  0  0  0
  149.4299  142.4190  154.7892 H   0  0  0  0  0  0  0  0  0  0  0  0
  148.4039  141.7016  156.0171 H   0  0  0  0  0  0  0  0  0  0  0  0
  150.7502  140.1077  155.8000 H   0  0  0  0  0  0  0  0  0  0  0  0
  150.3091  145.2610  159.2448 H   0  0  0  0  0  0  0  0  0  0  0  0
  151.8438  145.3972  161.2125 H   0  0  0  0  0  0  0  0  0  0  0  0
  153.4446  143.5863  161.7039 H   0  0  0  0  0  0  0  0  0  0  0  0
  153.5867  141.5629  160.2546 H   0  0  0  0  0  0  0  0  0  0  0  0
  152.4702  139.5835  156.9959 H   0  0  0  0  0  0  0  0  0  0  0  0
  153.6980  140.3898  157.9387 H   0  0  0  0  0  0  0  0  0  0  0  0
  152.5263  139.7183  160.0580 H   0  0  0  0  0  0  0  0  0  0  0  0
  150.6925  138.6543  160.0283 H   0  0  0  0  0  0  0  0  0  0  0  0
  152.6304  137.3425  157.0933 H   0  0  0  0  0  0  0  0  0  0  0  0
  154.0533  135.3172  157.0657 H   0  0  0  0  0  0  0  0  0  0  0  0
  155.4133  136.2026  161.0563 H   0  0  0  0  0  0  0  0  0  0  0  0
  149.6643  143.4887  157.0468 H   0  0  0  0  0  0  0  0  0  0  0  0
  1  2  1  0  0  0  0
  1 25  1  0  0  0  0
  2  3  1  0  0  0  0
  2 26  1  0  0  0  0
  2 27  1  0  0  0  0
  3  4  1  0  0  0  0
  3 28  1  0  0  0  0
  3 29  1  0  0  0  0
  4  5  1  0  0  0  0
  4 30  1  0  0  0  0
  5 13  1  0  0  0  0
  5  6  2  0  0  0  0
  6  7  1  0  0  0  0
  6 42  1  0  0  0  0
  7 12  2  0  0  0  0
  7  8  1  0  0  0  0
  8  9  2  0  0  0  0
  8 31  1  0  0  0  0
  9 10  1  0  0  0  0
  9 32  1  0  0  0  0
 10 11  2  0  0  0  0
 10 33  1  0  0  0  0
 11 12  1  0  0  0  0
 11 34  1  0  0  0  0
 12 13  1  0  0  0  0
 13 14  1  0  0  0  0
 14 15  1  0  0  0  0
 14 35  1  0  0  0  0
 14 36  1  0  0  0  0
 15 16  1  0  0  0  0
 15 17  1  0  0  0  0
 15 37  1  0  0  0  0
 16 38  1  0  0  0  0
 17 23  1  0  0  0  0
 17 18  2  0  0  0  0
 18 19  1  0  0  0  0
 18 39  1  0  0  0  0
 19 20  2  0  0  0  0
 19 40  1  0  0  0  0
 20 21  1  0  0  0  0
 20 22  1  0  0  0  0
 22 23  2  0  0  0  0
 22 41  1  0  0  0  0
 23 24  1  0  0  0  0
M  CHG  1   6   1
M  END
> <s_m_source_file>
AV-unprocessed.smi

> <i_m_source_file_index>
1517

> <i_lp_mmshare_version>
43012

> <i_f3d_flags>
0

> <s_epik_input>
W09IXVtDSDJdW0NIMl1bTkhdYyhuMSluKGMoYzEyKVtjSF1bY0hdW2NIXVtjSF0yKVtDSDJdW0NASF0oW09IXSljM1tjSF1bY0hdYyhGKVtjSF1jM0Y=

> <s_epik_cmdline>
J2VwaWtfcHl0aG9uJywgJy1waCcsICc3LjAnLCAnLXRuJywgJzgnLCAnLW1hJywgJzIwMCcsICctbWV0YWxfYmluZGluZycsICctaW1hZScsICc8aW5maWxlLm1hZT4nLCAnLW9tYWUnLCAnPG91dGZpbGUubWFlPic=

> <r_epik_Ionization_Penalty>
0.0688096

> <r_epik_Ionization_Penalty_Charging>
0.0688055

> <r_epik_Ionization_Penalty_Neutral>
4.12262e-06

> <r_epik_State_Penalty>
0.0602293

> <r_epik_Charging_Adjusted_Penalty>
0.129035

> <i_epik_Tot_Q>
1

> <i_epik_Tot_abs_Q>
1

> <r_epik_Metal_State_Penalty>
2.77411

> <b_epik_Metal_Only>
0

> <s_lp_Force_Field>
OPLS_2005

> <r_lp_Energy>
23.6459

> <b_lp_Chiralities_Consistent>
1

> <s_lp_Variant>
AV-unprocessed.smi:1517-2

> <Gold.Version>
5.8.1

> <Gold.Id.Protein>
6NUR|6NUR_protein|mol2

> <Gold.PLP.Fitness>
51.0441

> <Gold.PLP.PLP>
-40.6543

> <Gold.PLP.part.hbond>
-2.9998

> <Gold.PLP.part.metal>
0.0000

> <Gold.PLP.part.buried>
-4.9303

> <Gold.PLP.part.nonpolar>
-31.9606

> <Gold.PLP.part.repulsive>
0.1112

> <Gold.PLP.ligand.clash>
0.0000

> <Gold.PLP.ligand.torsion>
0.5690

> <Gold.PLP.Chemscore.Hbond>
3.8000

> <Gold.PLP.Chemscore.CHOScore>
0.0000

> <Gold.PLP.Chemscore.Metal>
0.0000

> <Gold.Chemscore.Hbonds>
donor molecule, donor type, donor heavy atom, donor atom, acceptor molecule, acceptor atom, score
      L1  H     1    25       P1  7957  0.72
      L1  H     6    42       P1  8028  2.00
      P1  H  8011  8017       L1     1  1.00

> <Gold.PLP.Chemscore.Internal.Correction>
0.1277

> <Gold.Rescore>
     Score         DG    S(hbond)    S(metal)    S(lipo)     H(rot)  DE(clash)    DE(int)     intcor
     16.73     -17.77       2.23        0.00     113.37       3.29       0.45       0.60       ----

> <Gold.Chemscore.Fitness>
16.7258

> <Gold.Chemscore.DG>
-17.7742

> <Gold.Chemscore.ZeroCoef>
-5.4800

> <Gold.Chemscore.Hbond>
2.2291

> <Gold.Chemscore.Metal>
0.0000

> <Gold.Chemscore.Lipo>
113.3748

> <Gold.Chemscore.Internal_Hbond>
0.0000

> <Gold.Chemscore.DEClash>
0.4453

> <Gold.Chemscore.DEInternal>
0.6032

> <Gold.Chemscore.Rot>
3.2874

> <Gold.Chemscore.Internal.Correction>
   9.000000E+99

> <Gold.Chemscore.Hbonds>
donor molecule, donor type, donor heavy atom, donor atom, acceptor molecule, acceptor atom, score
      L1  H     1    25       P1  7957  0.68
      L1  H     6    42       P1  8028  0.91
      P1  H  8011  8017       L1     1  0.25

> <Gold.Chemscore.Hbond.Weighted>
-7.4452

> <Gold.Chemscore.Metal.Weighted>
-0.0000

> <Gold.Chemscore.Lipo.Weighted>
-13.2648

> <Gold.Chemscore.Internal_Hbond.Weighted>
0.0000

> <Gold.Chemscore.DEClash.Weighted>
0.4453

> <Gold.Chemscore.DEInternal.Weighted>
0.6032

> <Gold.Chemscore.Rot.Weighted>
8.4158

> <Gold.Chemscore.Internal.Correction.Weighted>
   9.000000E+99

> <Gold.Protein.RotatedTorsions>
[ 6907 6896 6895 6894 ] final  151.93 input  -60.11 | X-H torsion
[ 7974 7965 7964 7962 ] final -131.50 input  175.53 | X-H torsion
[ 8008 7997 7996 7995 ] final  -29.38 input   59.86 | X-H torsion
[ 10167 10162 10161 10158 ] final  163.01 input  -65.29 | X-H torsion
[ 10718 10713 10712 10709 ] final -136.38 input   66.30 | X-H torsion
[ 10763 10752 10751 10750 ] final  140.25 input  -60.55 | X-H torsion
[ 11005 11000 10999 10996 ] final -127.81 input  -57.11 | X-H torsion

> <Gold.Protein.ActiveResidues>
 VAL166  LYS551  ARG553  GLY616  TRP617  ASP618  TYR619  PRO620  LYS621  CYS622 
 ASP623  PHE694  ASN695  SER759  ASP760  ASP761  ALA762  ILE779  LEU786  VAL792 
 PHE793  MET794  SER795  GLU796  ALA797  LYS798  CYS799  TRP800  GLU811  SER814 

> <Gold.Protein.RotatedAtoms>
  152.0938  133.4214  159.4555 H   0  0  0  0  0  0  0  0  0  0  0  0  # atno 6907 bound_to 6896
  150.6863  134.2841  159.4648 H   0  0  0  0  0  0  0  0  0  0  0  0  # atno 6908 bound_to 6896
  152.0695  134.9542  160.0625 H   0  0  0  0  0  0  0  0  0  0  0  0  # atno 6909 bound_to 6896
  144.9373  140.7199  143.4868 H   0  0  0  0  0  0  0  0  0  0  0  0  # atno 7974 bound_to 7965
  154.4292  140.1820  156.1239 H   0  0  0  0  0  0  0  0  0  0  0  0  # atno 8008 bound_to 7997
  156.0121  140.3349  155.6926 H   0  0  0  0  0  0  0  0  0  0  0  0  # atno 8009 bound_to 7997
  155.6096  140.0648  157.2701 H   0  0  0  0  0  0  0  0  0  0  0  0  # atno 8010 bound_to 7997
  139.4868  144.4380  151.8988 H   0  0  0  0  0  0  0  0  0  0  0  0  # atno 10167 bound_to 10162
  156.2764  130.7295  151.1279 H   0  0  0  0  0  0  0  0  0  0  0  0  # atno 10718 bound_to 10713
  153.9196  135.3002  155.3448 H   0  0  0  0  0  0  0  0  0  0  0  0  # atno 10763 bound_to 10752
  154.7582  135.4947  153.9418 H   0  0  0  0  0  0  0  0  0  0  0  0  # atno 10764 bound_to 10752
  153.1149  135.6768  153.9538 H   0  0  0  0  0  0  0  0  0  0  0  0  # atno 10765 bound_to 10752
  140.9569  134.0990  157.4007 H   0  0  0  0  0  0  0  0  0  0  0  0  # atno 11005 bound_to 11000
  145.3046  139.1839  143.4671 LP  0  0  0  0  0  0  0  0  0  0  0  0  # atno 17320 bound_to 7965
  146.3272  140.3042  142.8622 LP  0  0  0  0  0  0  0  0  0  0  0  0  # atno 17321 bound_to 7965
  140.3830  144.2712  150.5906 LP  0  0  0  0  0  0  0  0  0  0  0  0  # atno 17342 bound_to 10162
  140.5216  143.2264  151.8380 LP  0  0  0  0  0  0  0  0  0  0  0  0  # atno 17343 bound_to 10162
  157.7300  131.0619  150.5744 LP  0  0  0  0  0  0  0  0  0  0  0  0  # atno 17370 bound_to 10713
  156.5846  130.4313  149.5962 LP  0  0  0  0  0  0  0  0  0  0  0  0  # atno 17371 bound_to 10713
  139.8865  135.0082  156.6502 LP  0  0  0  0  0  0  0  0  0  0  0  0  # atno 17394 bound_to 11000
  140.7524  133.8886  155.8356 LP  0  0  0  0  0  0  0  0  0  0  0  0  # atno 17395 bound_to 11000

$$$$
