AV-unprocessed.smi:2606|AV-procd|sdf|10197|dock7
  -GOLD-   2272014203D 1   1.00000     0.00000
 Structure written by MMmdl.
 42 43  0  0  0  0  0  0  0  0  1 V2000
  151.8447  138.4946  159.1094 O   0  0  0  0  0  0  0  0  0  0  0  0
  151.6053  138.7390  157.9255 C   0  0  0  0  0  0  0  0  0  0  0  0
  152.0081  140.1000  157.3483 C   0  0  0  0  0  0  0  0  0  0  0  0
  152.5185  141.0007  158.3935 N   0  0  0  0  0  0  0  0  0  0  0  0
  151.8545  142.2332  158.5519 C   0  0  0  0  0  0  0  0  0  0  0  0
  152.2262  143.1554  159.4603 C   0  0  0  0  0  0  0  0  0  0  0  0
  151.4569  144.4547  159.6413 C   0  0  0  0  0  0  0  0  0  0  0  0
  151.8874  145.1223  160.7121 F   0  0  0  0  0  0  0  0  0  0  0  0
  151.6239  145.2322  158.5725 F   0  0  0  0  0  0  0  0  0  0  0  0
  150.1515  144.2250  159.7877 F   0  0  0  0  0  0  0  0  0  0  0  0
  153.3441  142.8052  160.3142 C   0  0  0  0  0  0  0  0  0  0  0  0
  153.9866  141.6286  160.1802 C   0  0  0  0  0  0  0  0  0  0  0  0
  153.5873  140.6474  159.1687 C   0  0  0  0  0  0  0  0  0  0  0  0
  154.1784  139.5767  159.0256 O   0  0  0  0  0  0  0  0  0  0  0  0
  150.9996  137.8964  157.0639 N   0  0  0  0  0  0  0  0  0  0  0  0
  150.5367  136.6573  157.3141 C   0  0  0  0  0  0  0  0  0  0  0  0
  150.2896  136.1933  158.4295 O   0  0  0  0  0  0  0  0  0  0  0  0
  150.3719  135.9684  156.1751 N   0  0  0  0  0  0  0  0  0  0  0  0
  150.0922  134.5382  156.0861 C   0  0  0  0  0  0  0  0  0  0  0  0
  151.3005  133.7149  156.5791 C   0  0  0  0  0  0  0  0  0  0  0  0
  151.0563  132.2057  156.4180 C   0  0  0  0  0  0  0  0  0  0  0  0
  150.7029  131.8489  154.9659 C   0  0  0  0  0  0  0  0  0  0  0  0
  149.4951  132.6621  154.4743 C   0  0  0  0  0  0  0  0  0  0  0  0
  149.7385  134.1721  154.6321 C   0  0  0  0  0  0  0  0  0  0  0  0
  152.7671  139.9467  156.5795 H   0  0  0  0  0  0  0  0  0  0  0  0
  151.1607  140.5409  156.8196 H   0  0  0  0  0  0  0  0  0  0  0  0
  151.0216  142.3825  157.8796 H   0  0  0  0  0  0  0  0  0  0  0  0
  153.6756  143.4998  161.0720 H   0  0  0  0  0  0  0  0  0  0  0  0
  154.8175  141.4025  160.8324 H   0  0  0  0  0  0  0  0  0  0  0  0
  150.8696  138.2413  156.1239 H   0  0  0  0  0  0  0  0  0  0  0  0
  150.4418  136.4704  155.3020 H   0  0  0  0  0  0  0  0  0  0  0  0
  149.2283  134.3062  156.7122 H   0  0  0  0  0  0  0  0  0  0  0  0
  152.1937  133.9978  156.0201 H   0  0  0  0  0  0  0  0  0  0  0  0
  151.5086  133.9391  157.6260 H   0  0  0  0  0  0  0  0  0  0  0  0
  151.9402  131.6507  156.7332 H   0  0  0  0  0  0  0  0  0  0  0  0
  150.2450  131.8957  157.0778 H   0  0  0  0  0  0  0  0  0  0  0  0
  151.5615  132.0438  154.3218 H   0  0  0  0  0  0  0  0  0  0  0  0
  150.4912  130.7825  154.8855 H   0  0  0  0  0  0  0  0  0  0  0  0
  149.2887  132.4262  153.4300 H   0  0  0  0  0  0  0  0  0  0  0  0
  148.6068  132.3742  155.0380 H   0  0  0  0  0  0  0  0  0  0  0  0
  148.8516  134.7212  154.3129 H   0  0  0  0  0  0  0  0  0  0  0  0
  150.5470  134.4778  153.9661 H   0  0  0  0  0  0  0  0  0  0  0  0
  1  2  2  0  0  0  0
  2  3  1  0  0  0  0
  2 15  1  0  0  0  0
  3  4  1  0  0  0  0
  3 25  1  0  0  0  0
  3 26  1  0  0  0  0
  4 13  1  0  0  0  0
  4  5  1  0  0  0  0
  5  6  2  0  0  0  0
  5 27  1  0  0  0  0
  6  7  1  0  0  0  0
  6 11  1  0  0  0  0
  7  8  1  0  0  0  0
  7  9  1  0  0  0  0
  7 10  1  0  0  0  0
 11 12  2  0  0  0  0
 11 28  1  0  0  0  0
 12 13  1  0  0  0  0
 12 29  1  0  0  0  0
 13 14  2  0  0  0  0
 15 16  1  0  0  0  0
 15 30  1  0  0  0  0
 16 17  2  0  0  0  0
 16 18  1  0  0  0  0
 18 19  1  0  0  0  0
 18 31  1  0  0  0  0
 19 24  1  0  0  0  0
 19 20  1  0  0  0  0
 19 32  1  0  0  0  0
 20 21  1  0  0  0  0
 20 33  1  0  0  0  0
 20 34  1  0  0  0  0
 21 22  1  0  0  0  0
 21 35  1  0  0  0  0
 21 36  1  0  0  0  0
 22 23  1  0  0  0  0
 22 37  1  0  0  0  0
 22 38  1  0  0  0  0
 23 24  1  0  0  0  0
 23 39  1  0  0  0  0
 23 40  1  0  0  0  0
 24 41  1  0  0  0  0
 24 42  1  0  0  0  0
M  END
> <s_m_source_file>
AV-unprocessed.smi

> <i_m_source_file_index>
2606

> <i_lp_mmshare_version>
43012

> <i_f3d_flags>
0

> <s_epik_input>
Tz1jMVtjSF1bY0hdYyhDKEYpKEYpRilbY0hdbjFbQ0gyXUMoPU8pW05IXUMoPU8pW05IXVtDSF0yW0NIMl1bQ0gyXVtDSDJdW0NIMl1bQ0gyXTI=

> <s_epik_cmdline>
J2VwaWtfcHl0aG9uJywgJy1waCcsICc3LjAnLCAnLXRuJywgJzgnLCAnLW1hJywgJzIwMCcsICctbWV0YWxfYmluZGluZycsICctaW1hZScsICc8aW5maWxlLm1hZT4nLCAnLW9tYWUnLCAnPG91dGZpbGUubWFlPic=

> <r_lp_tautomer_probability>
1

> <r_epik_Ionization_Penalty>
3.27177e-05

> <r_epik_Ionization_Penalty_Charging>
1.42456e-08

> <r_epik_Ionization_Penalty_Neutral>
3.27035e-05

> <r_epik_State_Penalty>
-0

> <r_epik_Charging_Adjusted_Penalty>
1.42456e-08

> <i_epik_Tot_Q>
0

> <i_epik_Tot_abs_Q>
0

> <r_epik_Metal_State_Penalty>
-0

> <b_epik_Metal_Only>
0

> <s_lp_Force_Field>
OPLS_2005

> <r_lp_Energy>
22.0809

> <b_lp_Chiralities_Consistent>
1

> <s_lp_Variant>
AV-unprocessed.smi:2606-1

> <Gold.Version>
5.8.1

> <Gold.Id.Protein>
6NUR|6NUR_protein|mol2

> <Gold.PLP.Fitness>
49.6962

> <Gold.PLP.PLP>
-44.7044

> <Gold.PLP.part.hbond>
-2.0000

> <Gold.PLP.part.metal>
0.0000

> <Gold.PLP.part.buried>
-4.9484

> <Gold.PLP.part.nonpolar>
-36.8694

> <Gold.PLP.part.repulsive>
0.0800

> <Gold.PLP.ligand.clash>
0.0000

> <Gold.PLP.ligand.torsion>
0.3737

> <Gold.PLP.Chemscore.Hbond>
1.8913

> <Gold.PLP.Chemscore.CHOScore>
0.0000

> <Gold.PLP.Chemscore.Metal>
0.0000

> <Gold.Chemscore.Hbonds>
donor molecule, donor type, donor heavy atom, donor atom, acceptor molecule, acceptor atom, score
      P1  H  6896  6909       L1    17  0.94
      P1  H  7997  8009       L1    14  0.85

> <Gold.PLP.Chemscore.Internal.Correction>
0.0654

> <Gold.Rescore>
     Score         DG    S(hbond)    S(metal)    S(lipo)     H(rot)  DE(clash)    DE(int)     intcor
     11.45     -17.67       1.82        0.00      88.35       1.65       0.75       5.47       ----

> <Gold.Chemscore.Fitness>
11.4464

> <Gold.Chemscore.DG>
-17.6695

> <Gold.Chemscore.ZeroCoef>
-5.4800

> <Gold.Chemscore.Hbond>
1.8187

> <Gold.Chemscore.Metal>
0.0000

> <Gold.Chemscore.Lipo>
88.3473

> <Gold.Chemscore.Internal_Hbond>
0.0000

> <Gold.Chemscore.DEClash>
0.7520

> <Gold.Chemscore.DEInternal>
5.4711

> <Gold.Chemscore.Rot>
1.6491

> <Gold.Chemscore.Internal.Correction>
   9.000000E+99

> <Gold.Chemscore.Hbonds>
donor molecule, donor type, donor heavy atom, donor atom, acceptor molecule, acceptor atom, score
      P1  H  6896  6909       L1    17  0.91
      P1  H  7997  8009       L1    14  0.14

> <Gold.Chemscore.Hbond.Weighted>
-6.0745

> <Gold.Chemscore.Metal.Weighted>
-0.0000

> <Gold.Chemscore.Lipo.Weighted>
-10.3366

> <Gold.Chemscore.Internal_Hbond.Weighted>
0.0000

> <Gold.Chemscore.DEClash.Weighted>
0.7520

> <Gold.Chemscore.DEInternal.Weighted>
5.4711

> <Gold.Chemscore.Rot.Weighted>
4.2216

> <Gold.Chemscore.Internal.Correction.Weighted>
   9.000000E+99

> <Gold.Protein.RotatedTorsions>
[ 6907 6896 6895 6894 ] final   65.99 input  -60.11 | X-H torsion
[ 7974 7965 7964 7962 ] final  113.72 input  175.53 | X-H torsion
[ 8008 7997 7996 7995 ] final  120.09 input   59.86 | X-H torsion
[ 10167 10162 10161 10158 ] final -176.38 input  -65.29 | X-H torsion
[ 10718 10713 10712 10709 ] final -101.05 input   66.30 | X-H torsion
[ 10763 10752 10751 10750 ] final  143.46 input  -60.55 | X-H torsion
[ 11005 11000 10999 10996 ] final  177.25 input  -57.11 | X-H torsion

> <Gold.Protein.ActiveResidues>
 VAL166  LYS551  ARG553  GLY616  TRP617  ASP618  TYR619  PRO620  LYS621  CYS622 
 ASP623  PHE694  ASN695  SER759  ASP760  ASP761  ALA762  ILE779  LEU786  VAL792 
 PHE793  MET794  SER795  GLU796  ALA797  LYS798  CYS799  TRP800  GLU811  SER814 

> <Gold.Protein.RotatedAtoms>
  152.4448  134.5517  159.9868 H   0  0  0  0  0  0  0  0  0  0  0  0  # atno 6907 bound_to 6896
  151.5605  133.3398  159.2978 H   0  0  0  0  0  0  0  0  0  0  0  0  # atno 6908 bound_to 6896
  150.8362  134.7669  159.6958 H   0  0  0  0  0  0  0  0  0  0  0  0  # atno 6909 bound_to 6896
  145.2134  139.2895  143.4256 H   0  0  0  0  0  0  0  0  0  0  0  0  # atno 7974 bound_to 7965
  156.2626  140.2838  156.1094 H   0  0  0  0  0  0  0  0  0  0  0  0  # atno 8008 bound_to 7997
  155.1273  140.0393  157.2783 H   0  0  0  0  0  0  0  0  0  0  0  0  # atno 8009 bound_to 7997
  154.6625  140.2570  155.7099 H   0  0  0  0  0  0  0  0  0  0  0  0  # atno 8010 bound_to 7997
  139.5532  144.2055  152.1114 H   0  0  0  0  0  0  0  0  0  0  0  0  # atno 10167 bound_to 10162
  156.0182  130.5356  150.6906 H   0  0  0  0  0  0  0  0  0  0  0  0  # atno 10718 bound_to 10713
  153.9727  135.2949  155.3426 H   0  0  0  0  0  0  0  0  0  0  0  0  # atno 10763 bound_to 10752
  154.7313  135.5066  153.8972 H   0  0  0  0  0  0  0  0  0  0  0  0  # atno 10764 bound_to 10752
  153.0892  135.6702  154.0000 H   0  0  0  0  0  0  0  0  0  0  0  0  # atno 10765 bound_to 10752
  140.3820  134.6938  157.4457 H   0  0  0  0  0  0  0  0  0  0  0  0  # atno 11005 bound_to 11000
  146.3392  140.2418  142.8596 LP  0  0  0  0  0  0  0  0  0  0  0  0  # atno 17320 bound_to 7965
  144.9834  140.8480  143.5383 LP  0  0  0  0  0  0  0  0  0  0  0  0  # atno 17321 bound_to 7965
  140.1554  144.5075  150.6663 LP  0  0  0  0  0  0  0  0  0  0  0  0  # atno 17342 bound_to 10162
  140.6800  143.2322  151.5409 LP  0  0  0  0  0  0  0  0  0  0  0  0  # atno 17343 bound_to 10162
  157.4589  131.0881  151.0767 LP  0  0  0  0  0  0  0  0  0  0  0  0  # atno 17370 bound_to 10713
  157.1261  130.6082  149.5517 LP  0  0  0  0  0  0  0  0  0  0  0  0  # atno 17371 bound_to 10713
  140.0471  134.6184  155.8907 LP  0  0  0  0  0  0  0  0  0  0  0  0  # atno 17394 bound_to 11000
  141.1920  133.6574  156.5482 LP  0  0  0  0  0  0  0  0  0  0  0  0  # atno 17395 bound_to 11000

$$$$
