AV-unprocessed.smi:36|AV-procd|sdf|293|dock7
  -GOLD-   2262016 83D 1   1.00000     0.00000
 Structure written by MMmdl.
 64 67  0  0  0  0  0  0  0  0  1 V2000
  154.9735  135.2120  151.5447 C   0  0  0  0  0  0  0  0  0  0  0  0
  156.5060  135.1362  151.4437 C   0  0  0  0  0  0  0  0  0  0  0  0
  156.9438  133.6785  151.2238 C   0  0  0  0  0  0  0  0  0  0  0  0
  156.9963  136.0068  150.2746 C   0  0  0  0  0  0  0  0  0  0  0  0
  157.2811  135.7822  153.0661 Si  0  0  0  0  0  0  0  0  0  0  0  0
  159.1628  135.5120  153.0767 C   0  0  0  0  0  0  0  0  0  0  0  0
  156.9050  137.6278  153.3169 C   0  0  0  0  0  0  0  0  0  0  0  0
  156.5939  134.9252  154.3556 O   0  0  0  0  0  0  0  0  0  0  0  0
  157.1223  134.9149  155.6671 C   0  0  0  0  0  0  0  0  0  0  0  0
  156.2759  133.9810  156.5564 C   0  0  2  0  0  0  0  0  0  0  0  0
  155.0772  134.6827  156.8960 O   0  0  0  0  0  0  0  0  0  0  0  0
  155.0838  135.0483  158.2455 C   0  0  2  0  0  0  0  0  0  0  0  0
  154.7283  136.4934  158.3633 N   0  0  0  0  0  0  0  0  0  0  0  0
  154.2296  137.3060  157.4112 C   0  0  0  0  0  0  0  0  0  0  0  0
  154.0165  138.5636  157.7922 N   0  0  0  0  0  0  0  0  0  0  0  0
  154.4212  138.5519  159.1233 C   0  0  0  0  0  0  0  0  0  0  0  0
  154.4447  139.6369  160.1286 C   0  0  0  0  0  0  0  0  0  0  0  0
  154.0269  140.8103  159.7614 N   0  0  0  0  0  0  0  0  0  0  0  0
  154.0200  141.8632  160.6678 C   0  0  0  0  0  0  0  0  0  0  0  0
  154.6808  141.9970  161.7016 O   0  0  0  0  0  0  0  0  0  0  0  0
  153.1212  142.9868  160.2640 C   0  0  0  0  0  0  0  0  0  0  0  0
  152.6552  143.9052  161.2291 C   0  0  0  0  0  0  0  0  0  0  0  0
  151.8070  144.9627  160.8466 C   0  0  0  0  0  0  0  0  0  0  0  0
  151.4228  145.1063  159.4995 C   0  0  0  0  0  0  0  0  0  0  0  0
  151.8847  144.1905  158.5343 C   0  0  0  0  0  0  0  0  0  0  0  0
  152.7315  143.1313  158.9155 C   0  0  0  0  0  0  0  0  0  0  0  0
  154.9430  139.1479  161.3436 N   0  0  0  0  0  0  0  0  0  0  0  0
  155.3627  137.8318  161.5922 C   0  0  0  0  0  0  0  0  0  0  0  0
  155.3463  136.8641  160.7148 N   0  0  0  0  0  0  0  0  0  0  0  0
  154.8586  137.2975  159.4902 C   0  0  0  0  0  0  0  0  0  0  0  0
  156.4958  134.8082  158.7688 C   0  0  0  0  0  0  0  0  0  0  0  0
  156.8997  133.6279  157.9170 C   0  0  2  0  0  0  0  0  0  0  0  0
  158.3008  133.4436  157.8958 O   0  0  0  0  0  0  0  0  0  0  0  0
  154.4985  134.8470  150.6333 H   0  0  0  0  0  0  0  0  0  0  0  0
  154.6356  136.2363  151.7029 H   0  0  0  0  0  0  0  0  0  0  0  0
  154.5988  134.6103  152.3733 H   0  0  0  0  0  0  0  0  0  0  0  0
  156.6082  133.0356  152.0377 H   0  0  0  0  0  0  0  0  0  0  0  0
  158.0296  133.5957  151.1652 H   0  0  0  0  0  0  0  0  0  0  0  0
  156.5320  133.2760  150.2976 H   0  0  0  0  0  0  0  0  0  0  0  0
  156.5917  135.6584  149.3237 H   0  0  0  0  0  0  0  0  0  0  0  0
  158.0839  135.9890  150.1967 H   0  0  0  0  0  0  0  0  0  0  0  0
  156.6928  137.0468  150.3977 H   0  0  0  0  0  0  0  0  0  0  0  0
  159.6481  136.0513  152.2636 H   0  0  0  0  0  0  0  0  0  0  0  0
  159.4187  134.4587  152.9656 H   0  0  0  0  0  0  0  0  0  0  0  0
  159.6109  135.8587  154.0076 H   0  0  0  0  0  0  0  0  0  0  0  0
  157.3104  138.2334  152.5068 H   0  0  0  0  0  0  0  0  0  0  0  0
  157.3359  138.0006  154.2459 H   0  0  0  0  0  0  0  0  0  0  0  0
  155.8326  137.8160  153.3596 H   0  0  0  0  0  0  0  0  0  0  0  0
  158.1574  134.5761  155.6202 H   0  0  0  0  0  0  0  0  0  0  0  0
  157.1404  135.9315  156.0598 H   0  0  0  0  0  0  0  0  0  0  0  0
  156.0343  133.0689  156.0114 H   0  0  0  0  0  0  0  0  0  0  0  0
  154.3112  134.5058  158.7919 H   0  0  0  0  0  0  0  0  0  0  0  0
  154.0177  136.9688  156.4073 H   0  0  0  0  0  0  0  0  0  0  0  0
  152.9455  143.8014  162.2646 H   0  0  0  0  0  0  0  0  0  0  0  0
  151.4512  145.6638  161.5870 H   0  0  0  0  0  0  0  0  0  0  0  0
  150.7729  145.9176  159.2071 H   0  0  0  0  0  0  0  0  0  0  0  0
  151.5899  144.3008  157.5011 H   0  0  0  0  0  0  0  0  0  0  0  0
  153.0811  142.4327  158.1689 H   0  0  0  0  0  0  0  0  0  0  0  0
  155.7178  137.6646  162.6099 H   0  0  0  0  0  0  0  0  0  0  0  0
  157.1228  135.6781  158.5640 H   0  0  0  0  0  0  0  0  0  0  0  0
  156.4939  134.6069  159.8405 H   0  0  0  0  0  0  0  0  0  0  0  0
  156.4310  132.7237  158.3085 H   0  0  0  0  0  0  0  0  0  0  0  0
  158.7089  134.2678  157.6787 H   0  0  0  0  0  0  0  0  0  0  0  0
  155.0063  139.8035  162.1092 H   0  0  0  0  0  0  0  0  0  0  0  0
  1  2  1  0  0  0  0
  1 34  1  0  0  0  0
  1 35  1  0  0  0  0
  1 36  1  0  0  0  0
  2  3  1  0  0  0  0
  2  4  1  0  0  0  0
  2  5  1  0  0  0  0
  3 37  1  0  0  0  0
  3 38  1  0  0  0  0
  3 39  1  0  0  0  0
  4 40  1  0  0  0  0
  4 41  1  0  0  0  0
  4 42  1  0  0  0  0
  5  6  1  0  0  0  0
  5  7  1  0  0  0  0
  5  8  1  0  0  0  0
  6 43  1  0  0  0  0
  6 44  1  0  0  0  0
  6 45  1  0  0  0  0
  7 46  1  0  0  0  0
  7 47  1  0  0  0  0
  7 48  1  0  0  0  0
  8  9  1  0  0  0  0
  9 10  1  0  0  0  0
  9 49  1  0  0  0  0
  9 50  1  0  0  0  0
 10 32  1  0  0  0  0
 10 11  1  0  0  0  0
 10 51  1  0  0  0  0
 11 12  1  0  0  0  0
 12 13  1  0  0  0  0
 12 31  1  0  0  0  0
 12 52  1  0  0  0  0
 13 30  1  0  0  0  0
 13 14  1  0  0  0  0
 14 15  2  0  0  0  0
 14 53  1  0  0  0  0
 15 16  1  0  0  0  0
 16 30  2  0  0  0  0
 16 17  1  0  0  0  0
 17 18  2  0  0  0  0
 17 27  1  0  0  0  0
 18 19  1  0  0  0  0
 19 20  2  0  0  0  0
 19 21  1  0  0  0  0
 21 26  1  0  0  0  0
 21 22  2  0  0  0  0
 22 23  1  0  0  0  0
 22 54  1  0  0  0  0
 23 24  2  0  0  0  0
 23 55  1  0  0  0  0
 24 25  1  0  0  0  0
 24 56  1  0  0  0  0
 25 26  2  0  0  0  0
 25 57  1  0  0  0  0
 26 58  1  0  0  0  0
 27 28  1  0  0  0  0
 27 64  1  0  0  0  0
 28 29  2  0  0  0  0
 28 59  1  0  0  0  0
 29 30  1  0  0  0  0
 31 32  1  0  0  0  0
 31 60  1  0  0  0  0
 31 61  1  0  0  0  0
 32 33  1  0  0  0  0
 32 62  1  0  0  0  0
 33 63  1  0  0  0  0
M  END
> <s_m_source_file>
AV-unprocessed.smi

> <i_m_source_file_index>
36

> <i_lp_mmshare_version>
43012

> <i_f3d_flags>
0

> <s_epik_input>
W0NIM11DKFtDSDNdKShbQ0gzXSlbU2ldKFtDSDNdKShbQ0gzXSlPW0NIMl1bQ0BASF0xT1tDQEhdKFtDSDJdW0NASF0xW09IXSluKFtjSF1uMiljKGMyMyluW2NIXW5jM1tOSF1DKD1PKWM0W2NIXVtjSF1bY0hdW2NIXVtjSF00

> <s_epik_cmdline>
J2VwaWtfcHl0aG9uJywgJy1waCcsICc3LjAnLCAnLXRuJywgJzgnLCAnLW1hJywgJzIwMCcsICctbWV0YWxfYmluZGluZycsICctaW1hZScsICc8aW5maWxlLm1hZT4nLCAnLW9tYWUnLCAnPG91dGZpbGUubWFlPic=

> <r_epik_Ionization_Penalty>
0.0850405

> <r_epik_Ionization_Penalty_Charging>
0.0850403

> <r_epik_Ionization_Penalty_Neutral>
1.47497e-07

> <r_epik_State_Penalty>
2.6133

> <r_epik_Charging_Adjusted_Penalty>
2.69834

> <i_epik_Tot_Q>
0

> <i_epik_Tot_abs_Q>
0

> <r_epik_Metal_State_Penalty>
2.92945

> <b_epik_Metal_Only>
0

> <s_epik_Chemistry_Notes>
This compound contains an acetal/aminal-like group ( X-CH(R)-Y where X, Y are N, S, or O) that may be acid/base labile, releasing an aldehyde.

> <s_lp_Force_Field>
OPLS_2005

> <r_lp_Energy>
48.5801

> <b_lp_Chiralities_Consistent>
1

> <s_lp_Variant>
AV-unprocessed.smi:36-15

> <Gold.Version>
5.8.1

> <Gold.Id.Protein>
6NUR|6NUR_protein|mol2

> <Gold.PLP.Fitness>
59.8761

> <Gold.PLP.PLP>
-55.2892

> <Gold.PLP.part.hbond>
-2.6075

> <Gold.PLP.part.metal>
0.0000

> <Gold.PLP.part.buried>
-7.4624

> <Gold.PLP.part.nonpolar>
-46.2159

> <Gold.PLP.part.repulsive>
0.0308

> <Gold.PLP.ligand.clash>
0.0000

> <Gold.PLP.ligand.torsion>
0.8827

> <Gold.PLP.Chemscore.Hbond>
2.0000

> <Gold.PLP.Chemscore.CHOScore>
0.0000

> <Gold.PLP.Chemscore.Metal>
0.0000

> <Gold.Chemscore.Hbonds>
donor molecule, donor type, donor heavy atom, donor atom, acceptor molecule, acceptor atom, score
      P1  H  7997  8008       L1    15  1.00
      P1  H 10752 10764       L1    11  1.00

> <Gold.PLP.Chemscore.Internal.Correction>
0.3524

> <Gold.Rescore>
     Score         DG    S(hbond)    S(metal)    S(lipo)     H(rot)  DE(clash)    DE(int)     intcor
     19.21     -21.29       1.91        0.00     139.76       2.70       0.19       1.89       ----

> <Gold.Chemscore.Fitness>
19.2105

> <Gold.Chemscore.DG>
-21.2870

> <Gold.Chemscore.ZeroCoef>
-5.4800

> <Gold.Chemscore.Hbond>
1.9094

> <Gold.Chemscore.Metal>
0.0000

> <Gold.Chemscore.Lipo>
139.7607

> <Gold.Chemscore.Internal_Hbond>
0.0000

> <Gold.Chemscore.DEClash>
0.1878

> <Gold.Chemscore.DEInternal>
1.8887

> <Gold.Chemscore.Rot>
2.7041

> <Gold.Chemscore.Internal.Correction>
   9.000000E+99

> <Gold.Chemscore.Hbonds>
donor molecule, donor type, donor heavy atom, donor atom, acceptor molecule, acceptor atom, score
      P1  H  7997  8008       L1    15  0.53
      P1  H 10752 10764       L1    11  0.68

> <Gold.Chemscore.Hbond.Weighted>
-6.3775

> <Gold.Chemscore.Metal.Weighted>
-0.0000

> <Gold.Chemscore.Lipo.Weighted>
-16.3520

> <Gold.Chemscore.Internal_Hbond.Weighted>
0.0000

> <Gold.Chemscore.DEClash.Weighted>
0.1878

> <Gold.Chemscore.DEInternal.Weighted>
1.8887

> <Gold.Chemscore.Rot.Weighted>
6.9225

> <Gold.Chemscore.Internal.Correction.Weighted>
   9.000000E+99

> <Gold.Protein.RotatedTorsions>
[ 6907 6896 6895 6894 ] final  -52.07 input  -60.11 | X-H torsion
[ 7974 7965 7964 7962 ] final -121.05 input  175.53 | X-H torsion
[ 8008 7997 7996 7995 ] final  -92.88 input   59.86 | X-H torsion
[ 10167 10162 10161 10158 ] final  -69.25 input  -65.29 | X-H torsion
[ 10718 10713 10712 10709 ] final   61.74 input   66.30 | X-H torsion
[ 10763 10752 10751 10750 ] final   39.10 input  -60.55 | X-H torsion
[ 11005 11000 10999 10996 ] final  -87.28 input  -57.11 | X-H torsion

> <Gold.Protein.ActiveResidues>
 VAL166  LYS551  ARG553  GLY616  TRP617  ASP618  TYR619  PRO620  LYS621  CYS622 
 ASP623  PHE694  ASN695  SER759  ASP760  ASP761  ALA762  ILE779  LEU786  VAL792 
 PHE793  MET794  SER795  GLU796  ALA797  LYS798  CYS799  TRP800  GLU811  SER814 

> <Gold.Protein.RotatedAtoms>
  150.8552  134.7889  159.7039 H   0  0  0  0  0  0  0  0  0  0  0  0  # atno 6907 bound_to 6896
  152.4606  134.5190  159.9786 H   0  0  0  0  0  0  0  0  0  0  0  0  # atno 6908 bound_to 6896
  151.5304  133.3412  159.2953 H   0  0  0  0  0  0  0  0  0  0  0  0  # atno 6909 bound_to 6896
  145.0446  140.8171  143.4245 H   0  0  0  0  0  0  0  0  0  0  0  0  # atno 7974 bound_to 7965
  154.7287  140.0504  157.0707 H   0  0  0  0  0  0  0  0  0  0  0  0  # atno 8008 bound_to 7997
  155.0330  140.3160  155.4732 H   0  0  0  0  0  0  0  0  0  0  0  0  # atno 8009 bound_to 7997
  156.2836  140.2146  156.5452 H   0  0  0  0  0  0  0  0  0  0  0  0  # atno 8010 bound_to 7997
  140.5445  143.2313  151.7028 H   0  0  0  0  0  0  0  0  0  0  0  0  # atno 10167 bound_to 10162
  157.5850  130.9011  149.9499 H   0  0  0  0  0  0  0  0  0  0  0  0  # atno 10718 bound_to 10713
  152.9978  135.6230  154.2410 H   0  0  0  0  0  0  0  0  0  0  0  0  # atno 10763 bound_to 10752
  154.2151  135.2798  155.2946 H   0  0  0  0  0  0  0  0  0  0  0  0  # atno 10764 bound_to 10752
  154.5575  135.5715  153.7036 H   0  0  0  0  0  0  0  0  0  0  0  0  # atno 10765 bound_to 10752
  141.1619  133.7502  156.9284 H   0  0  0  0  0  0  0  0  0  0  0  0  # atno 11005 bound_to 11000
  145.1604  139.2462  143.5394 LP  0  0  0  0  0  0  0  0  0  0  0  0  # atno 17320 bound_to 7965
  146.3512  140.1329  142.8596 LP  0  0  0  0  0  0  0  0  0  0  0  0  # atno 17321 bound_to 7965
  139.5002  144.3916  152.0273 LP  0  0  0  0  0  0  0  0  0  0  0  0  # atno 17342 bound_to 10162
  140.3028  144.3627  150.6055 LP  0  0  0  0  0  0  0  0  0  0  0  0  # atno 17343 bound_to 10162
  156.0898  130.3664  150.0416 LP  0  0  0  0  0  0  0  0  0  0  0  0  # atno 17370 bound_to 10713
  156.8549  130.9472  151.3622 LP  0  0  0  0  0  0  0  0  0  0  0  0  # atno 17371 bound_to 10713
  140.1403  134.9298  157.2458 LP  0  0  0  0  0  0  0  0  0  0  0  0  # atno 17394 bound_to 11000
  140.2845  134.3312  155.7333 LP  0  0  0  0  0  0  0  0  0  0  0  0  # atno 17395 bound_to 11000

$$$$
