AV-unprocessed.smi:2095|AV-procd|sdf|8557|dock4
  -GOLD-   2272011283D 1   1.00000     0.00000
 Structure written by MMmdl.
 42 43  0  0  0  0  0  0  0  0  2 V2000
  153.1020  143.1126  162.5504 C   0  0  0  0  0  0  0  0  0  0  0  0
  152.2041  143.2018  161.3084 C   0  0  1  0  0  0  0  0  0  0  0  0
  152.1942  144.6248  160.7230 C   0  0  0  0  0  0  0  0  0  0  0  0
  151.3114  144.6817  159.4691 C   0  0  0  0  0  0  0  0  0  0  0  0
  151.7489  143.6294  158.4374 C   0  0  0  0  0  0  0  0  0  0  0  0
  151.7423  142.2687  159.0367 N   0  3  1  0  0  0  0  0  0  0  0  0
  151.9145  141.1776  158.0338 C   0  0  2  0  0  0  0  0  0  0  0  0
  150.8521  141.2845  156.9227 C   0  0  0  0  0  0  0  0  0  0  0  0
  151.9734  139.7643  158.6692 C   0  0  0  0  0  0  0  0  0  0  0  0
  150.7199  139.0382  158.5033 N   0  0  0  0  0  0  0  0  0  0  0  0
  150.5061  137.7749  158.9014 C   0  0  0  0  0  0  0  0  0  0  0  0
  151.3377  137.1078  159.5163 O   0  0  0  0  0  0  0  0  0  0  0  0
  149.1596  137.1608  158.5209 C   0  0  0  0  0  0  0  0  0  0  0  0
  148.5688  136.4892  159.6627 N   0  0  0  0  0  0  0  0  0  0  0  0
  148.3535  135.1943  159.9027 C   0  0  0  0  0  0  0  0  0  0  0  0
  147.7531  135.0070  161.0680 N   0  0  0  0  0  0  0  0  0  0  0  0
  147.6029  136.2944  161.5560 N   0  0  0  0  0  0  0  0  0  0  0  0
  148.0846  137.1785  160.7263 N   0  0  0  0  0  0  0  0  0  0  0  0
  152.6304  142.1869  160.2290 C   0  0  0  0  0  0  0  0  0  0  0  0
  154.1382  143.3520  162.3092 H   0  0  0  0  0  0  0  0  0  0  0  0
  153.0833  142.1098  162.9783 H   0  0  0  0  0  0  0  0  0  0  0  0
  152.7718  143.8062  163.3242 H   0  0  0  0  0  0  0  0  0  0  0  0
  151.1876  142.9565  161.6203 H   0  0  0  0  0  0  0  0  0  0  0  0
  151.8308  145.3369  161.4649 H   0  0  0  0  0  0  0  0  0  0  0  0
  153.2102  144.9307  160.4696 H   0  0  0  0  0  0  0  0  0  0  0  0
  150.2701  144.5121  159.7465 H   0  0  0  0  0  0  0  0  0  0  0  0
  151.3552  145.6777  159.0274 H   0  0  0  0  0  0  0  0  0  0  0  0
  151.0709  143.6659  157.5840 H   0  0  0  0  0  0  0  0  0  0  0  0
  152.7449  143.8672  158.0619 H   0  0  0  0  0  0  0  0  0  0  0  0
  152.8699  141.3628  157.5407 H   0  0  0  0  0  0  0  0  0  0  0  0
  151.0849  140.6228  156.0877 H   0  0  0  0  0  0  0  0  0  0  0  0
  150.8021  142.2976  156.5229 H   0  0  0  0  0  0  0  0  0  0  0  0
  149.8583  141.0167  157.2809 H   0  0  0  0  0  0  0  0  0  0  0  0
  152.7897  139.1755  158.2494 H   0  0  0  0  0  0  0  0  0  0  0  0
  152.1607  139.8333  159.7409 H   0  0  0  0  0  0  0  0  0  0  0  0
  149.9787  139.5111  158.0059 H   0  0  0  0  0  0  0  0  0  0  0  0
  148.4763  137.9384  158.1766 H   0  0  0  0  0  0  0  0  0  0  0  0
  149.2817  136.4494  157.7025 H   0  0  0  0  0  0  0  0  0  0  0  0
  148.6254  134.3979  159.2256 H   0  0  0  0  0  0  0  0  0  0  0  0
  153.6638  142.3773  159.9364 H   0  0  0  0  0  0  0  0  0  0  0  0
  152.5984  141.1826  160.6505 H   0  0  0  0  0  0  0  0  0  0  0  0
  150.8034  142.1469  159.3887 H   0  0  0  0  0  0  0  0  0  0  0  0
  1  2  1  0  0  0  0
  1 20  1  0  0  0  0
  1 21  1  0  0  0  0
  1 22  1  0  0  0  0
  2 19  1  0  0  0  0
  2  3  1  0  0  0  0
  2 23  1  0  0  0  0
  3  4  1  0  0  0  0
  3 24  1  0  0  0  0
  3 25  1  0  0  0  0
  4  5  1  0  0  0  0
  4 26  1  0  0  0  0
  4 27  1  0  0  0  0
  5  6  1  0  0  0  0
  5 28  1  0  0  0  0
  5 29  1  0  0  0  0
  6  7  1  0  0  0  0
  6 19  1  0  0  0  0
  6 42  1  0  0  0  0
  7  8  1  0  0  0  0
  7  9  1  0  0  0  0
  7 30  1  0  0  0  0
  8 31  1  0  0  0  0
  8 32  1  0  0  0  0
  8 33  1  0  0  0  0
  9 10  1  0  0  0  0
  9 34  1  0  0  0  0
  9 35  1  0  0  0  0
 10 11  1  0  0  0  0
 10 36  1  0  0  0  0
 11 12  2  0  0  0  0
 11 13  1  0  0  0  0
 13 14  1  0  0  0  0
 13 37  1  0  0  0  0
 13 38  1  0  0  0  0
 14 18  1  0  0  0  0
 14 15  1  0  0  0  0
 15 16  2  0  0  0  0
 15 39  1  0  0  0  0
 16 17  1  0  0  0  0
 17 18  2  0  0  0  0
 19 40  1  0  0  0  0
 19 41  1  0  0  0  0
M  CHG  1   6   1
M  END
> <s_m_source_file>
AV-unprocessed.smi

> <i_m_source_file_index>
2095

> <i_lp_mmshare_version>
43012

> <i_f3d_flags>
0

> <s_epik_input>
W0NIM11bQ0BASF0xW0NIMl1bQ0gyXVtDSDJdTihbQ0gyXTEpW0NASF0oW0NIM10pW0NIMl1bTkhdQyg9TylbQ0gyXW4yW2NIXW5ubjI=

> <s_epik_cmdline>
J2VwaWtfcHl0aG9uJywgJy1waCcsICc3LjAnLCAnLXRuJywgJzgnLCAnLW1hJywgJzIwMCcsICctbWV0YWxfYmluZGluZycsICctaW1hZScsICc8aW5maWxlLm1hZT4nLCAnLW9tYWUnLCAnPG91dGZpbGUubWFlPic=

> <r_lp_tautomer_probability>
1

> <r_epik_Ionization_Penalty>
0.00268321

> <r_epik_Ionization_Penalty_Charging>
0.00267875

> <r_epik_Ionization_Penalty_Neutral>
4.46125e-06

> <r_epik_State_Penalty>
0.00186642

> <r_epik_Charging_Adjusted_Penalty>
0.00454517

> <i_epik_Tot_Q>
1

> <i_epik_Tot_abs_Q>
1

> <r_epik_Metal_State_Penalty>
-0

> <b_epik_Metal_Only>
0

> <s_lp_Force_Field>
OPLS_2005

> <r_lp_Energy>
21.2581

> <b_lp_Chiralities_Consistent>
1

> <s_lp_Variant>
AV-unprocessed.smi:2095-4

> <Gold.Version>
5.8.1

> <Gold.Id.Protein>
6NUR|6NUR_protein|mol2

> <Gold.PLP.Fitness>
46.4148

> <Gold.PLP.PLP>
-40.3021

> <Gold.PLP.part.hbond>
-3.0000

> <Gold.PLP.part.metal>
0.0000

> <Gold.PLP.part.buried>
-6.8236

> <Gold.PLP.part.nonpolar>
-29.7020

> <Gold.PLP.part.repulsive>
0.2296

> <Gold.PLP.ligand.clash>
0.0067

> <Gold.PLP.ligand.torsion>
0.8529

> <Gold.PLP.Chemscore.Hbond>
2.5680

> <Gold.PLP.Chemscore.CHOScore>
0.0000

> <Gold.PLP.Chemscore.Metal>
0.0000

> <Gold.Chemscore.Hbonds>
donor molecule, donor type, donor heavy atom, donor atom, acceptor molecule, acceptor atom, score
      P1  H  6896  6909       L1    12  1.00
      P1  H  6931  6943       L1    18  0.85
      P1  H  6934  6947       L1    18  0.68

> <Gold.PLP.Chemscore.Internal.Correction>
0.1212

> <Gold.Rescore>
     Score         DG    S(hbond)    S(metal)    S(lipo)     H(rot)  DE(clash)    DE(int)     intcor
     16.66     -17.63       2.60        0.00      87.47       2.64       0.01       0.96       ----

> <Gold.Chemscore.Fitness>
16.6624

> <Gold.Chemscore.DG>
-17.6285

> <Gold.Chemscore.ZeroCoef>
-5.4800

> <Gold.Chemscore.Hbond>
2.5998

> <Gold.Chemscore.Metal>
0.0000

> <Gold.Chemscore.Lipo>
87.4683

> <Gold.Chemscore.Internal_Hbond>
0.0000

> <Gold.Chemscore.DEClash>
0.0106

> <Gold.Chemscore.DEInternal>
0.9555

> <Gold.Chemscore.Rot>
2.6439

> <Gold.Chemscore.Internal.Correction>
   9.000000E+99

> <Gold.Chemscore.Hbonds>
donor molecule, donor type, donor heavy atom, donor atom, acceptor molecule, acceptor atom, score
      P1  H  6896  6909       L1    12  0.92
      P1  H  6931  6943       L1    18  0.25
      P1  H  6934  6947       L1    18  0.55

> <Gold.Chemscore.Hbond.Weighted>
-8.6832

> <Gold.Chemscore.Metal.Weighted>
-0.0000

> <Gold.Chemscore.Lipo.Weighted>
-10.2338

> <Gold.Chemscore.Internal_Hbond.Weighted>
0.0000

> <Gold.Chemscore.DEClash.Weighted>
0.0106

> <Gold.Chemscore.DEInternal.Weighted>
0.9555

> <Gold.Chemscore.Rot.Weighted>
6.7685

> <Gold.Chemscore.Internal.Correction.Weighted>
   9.000000E+99

> <Gold.Protein.RotatedTorsions>
[ 6907 6896 6895 6894 ] final   97.76 input  -60.11 | X-H torsion
[ 7974 7965 7964 7962 ] final -123.26 input  175.53 | X-H torsion
[ 8008 7997 7996 7995 ] final   98.73 input   59.86 | X-H torsion
[ 10167 10162 10161 10158 ] final -107.76 input  -65.29 | X-H torsion
[ 10718 10713 10712 10709 ] final -168.16 input   66.30 | X-H torsion
[ 10763 10752 10751 10750 ] final  142.61 input  -60.55 | X-H torsion
[ 11005 11000 10999 10996 ] final   68.12 input  -57.11 | X-H torsion

> <Gold.Protein.ActiveResidues>
 VAL166  LYS551  ARG553  GLY616  TRP617  ASP618  TYR619  PRO620  LYS621  CYS622 
 ASP623  PHE694  ASN695  SER759  ASP760  ASP761  ALA762  ILE779  LEU786  VAL792 
 PHE793  MET794  SER795  GLU796  ALA797  LYS798  CYS799  TRP800  GLU811  SER814 

> <Gold.Protein.RotatedAtoms>
  152.5419  134.0685  159.8183 H   0  0  0  0  0  0  0  0  0  0  0  0  # atno 6907 bound_to 6896
  151.0802  133.5388  159.2628 H   0  0  0  0  0  0  0  0  0  0  0  0  # atno 6908 bound_to 6896
  151.2218  135.0530  159.9007 H   0  0  0  0  0  0  0  0  0  0  0  0  # atno 6909 bound_to 6896
  145.0206  140.7985  143.4383 H   0  0  0  0  0  0  0  0  0  0  0  0  # atno 7974 bound_to 7965
  156.1033  140.3239  155.7972 H   0  0  0  0  0  0  0  0  0  0  0  0  # atno 8008 bound_to 7997
  155.4798  140.0553  157.2986 H   0  0  0  0  0  0  0  0  0  0  0  0  # atno 8009 bound_to 7997
  154.4711  140.2012  156.0007 H   0  0  0  0  0  0  0  0  0  0  0  0  # atno 8010 bound_to 7997
  140.1735  143.4024  152.1337 H   0  0  0  0  0  0  0  0  0  0  0  0  # atno 10167 bound_to 10162
  156.6929  130.9166  151.3071 H   0  0  0  0  0  0  0  0  0  0  0  0  # atno 10718 bound_to 10713
  153.9587  135.2962  155.3435 H   0  0  0  0  0  0  0  0  0  0  0  0  # atno 10763 bound_to 10752
  154.7386  135.5035  153.9088 H   0  0  0  0  0  0  0  0  0  0  0  0  # atno 10764 bound_to 10752
  153.0957  135.6720  153.9877 H   0  0  0  0  0  0  0  0  0  0  0  0  # atno 10765 bound_to 10752
  139.9730  134.6868  156.0409 H   0  0  0  0  0  0  0  0  0  0  0  0  # atno 11005 bound_to 11000
  145.1900  139.2306  143.5247 LP  0  0  0  0  0  0  0  0  0  0  0  0  # atno 17320 bound_to 7965
  146.3485  140.1694  142.8590 LP  0  0  0  0  0  0  0  0  0  0  0  0  # atno 17321 bound_to 7965
  139.5327  144.7177  151.4998 LP  0  0  0  0  0  0  0  0  0  0  0  0  # atno 17342 bound_to 10162
  140.6567  143.8585  150.6842 LP  0  0  0  0  0  0  0  0  0  0  0  0  # atno 17343 bound_to 10162
  157.7002  130.9325  150.0762 LP  0  0  0  0  0  0  0  0  0  0  0  0  # atno 17370 bound_to 10713
  156.1784  130.3649  149.9069 LP  0  0  0  0  0  0  0  0  0  0  0  0  # atno 17371 bound_to 10713
  141.1409  133.6565  156.3727 LP  0  0  0  0  0  0  0  0  0  0  0  0  # atno 17394 bound_to 11000
  140.5253  134.6265  157.5332 LP  0  0  0  0  0  0  0  0  0  0  0  0  # atno 17395 bound_to 11000

$$$$
