AV-unprocessed.smi:1646|AV-procd|sdf|6624|dock3
  -GOLD-   22720 7323D 1   1.00000     0.00000
 Structure written by MMmdl.
 29 30  0  0  0  0  0  0  0  0  1 V2000
  152.5365  140.3414  157.6427 O   0  0  0  0  0  0  0  0  0  0  0  0
  151.7280  141.2241  157.3552 C   0  0  0  0  0  0  0  0  0  0  0  0
  150.6079  140.9384  156.3550 C   0  0  0  0  0  0  0  0  0  0  0  0
  150.7470  139.6098  155.7878 N   0  0  0  0  0  0  0  0  0  0  0  0
  150.5949  138.3917  156.4226 C   0  0  0  0  0  0  0  0  0  0  0  0
  150.8174  137.4525  155.4629 C   0  0  0  0  0  0  0  0  0  0  0  0
  150.7568  135.5636  155.6822 Br  0  0  0  0  0  0  0  0  0  0  0  0
  151.0982  138.1601  154.2666 C   0  0  0  0  0  0  0  0  0  0  0  0
  151.0543  139.4687  154.4721 N   0  0  0  0  0  0  0  0  0  0  0  0
  151.7601  142.4585  157.8804 N   0  0  0  0  0  0  0  0  0  0  0  0
  152.7271  142.9278  158.8691 C   0  0  0  0  0  0  0  0  0  0  0  0
  152.5425  142.1865  160.2076 C   0  0  0  0  0  0  0  0  0  0  0  0
  152.4942  143.2668  161.2900 C   0  0  0  0  0  0  0  0  0  0  0  0
  151.9265  144.4908  160.5791 C   0  0  0  0  0  0  0  0  0  0  0  0
  152.5403  144.4264  159.1807 C   0  0  0  0  0  0  0  0  0  0  0  0
  149.6312  141.0313  156.8334 H   0  0  0  0  0  0  0  0  0  0  0  0
  150.6395  141.6706  155.5472 H   0  0  0  0  0  0  0  0  0  0  0  0
  150.3457  138.3051  157.4701 H   0  0  0  0  0  0  0  0  0  0  0  0
  151.3255  137.7792  153.2818 H   0  0  0  0  0  0  0  0  0  0  0  0
  151.0535  143.1170  157.5857 H   0  0  0  0  0  0  0  0  0  0  0  0
  153.7386  142.7566  158.4957 H   0  0  0  0  0  0  0  0  0  0  0  0
  151.6016  141.6337  160.2166 H   0  0  0  0  0  0  0  0  0  0  0  0
  153.3390  141.4646  160.3907 H   0  0  0  0  0  0  0  0  0  0  0  0
  151.8996  142.9687  162.1540 H   0  0  0  0  0  0  0  0  0  0  0  0
  153.5048  143.4825  161.6392 H   0  0  0  0  0  0  0  0  0  0  0  0
  150.8412  144.4056  160.5094 H   0  0  0  0  0  0  0  0  0  0  0  0
  152.1564  145.4224  161.0966 H   0  0  0  0  0  0  0  0  0  0  0  0
  153.5174  144.9112  159.1963 H   0  0  0  0  0  0  0  0  0  0  0  0
  151.9347  144.9554  158.4433 H   0  0  0  0  0  0  0  0  0  0  0  0
  1  2  2  0  0  0  0
  2  3  1  0  0  0  0
  2 10  1  0  0  0  0
  3  4  1  0  0  0  0
  3 16  1  0  0  0  0
  3 17  1  0  0  0  0
  4  9  1  0  0  0  0
  4  5  1  0  0  0  0
  5  6  2  0  0  0  0
  5 18  1  0  0  0  0
  6  7  1  0  0  0  0
  6  8  1  0  0  0  0
  8  9  2  0  0  0  0
  8 19  1  0  0  0  0
 10 11  1  0  0  0  0
 10 20  1  0  0  0  0
 11 15  1  0  0  0  0
 11 12  1  0  0  0  0
 11 21  1  0  0  0  0
 12 13  1  0  0  0  0
 12 22  1  0  0  0  0
 12 23  1  0  0  0  0
 13 14  1  0  0  0  0
 13 24  1  0  0  0  0
 13 25  1  0  0  0  0
 14 15  1  0  0  0  0
 14 26  1  0  0  0  0
 14 27  1  0  0  0  0
 15 28  1  0  0  0  0
 15 29  1  0  0  0  0
M  END
> <s_m_source_file>
AV-unprocessed.smi

> <i_m_source_file_index>
1646

> <i_lp_mmshare_version>
43012

> <i_f3d_flags>
0

> <s_epik_input>
W0NIMl0xW0NIMl1bQ0gyXVtDSDJdW0NIXTFbTkhdQyg9TylbQ0gyXW4yW2NIXWMoQnIpW2NIXW4y

> <s_epik_cmdline>
J2VwaWtfcHl0aG9uJywgJy1waCcsICc3LjAnLCAnLXRuJywgJzgnLCAnLW1hJywgJzIwMCcsICctbWV0YWxfYmluZGluZycsICctaW1hZScsICc8aW5maWxlLm1hZT4nLCAnLW9tYWUnLCAnPG91dGZpbGUubWFlPic=

> <r_lp_tautomer_probability>
1

> <r_epik_Ionization_Penalty>
2.35926e-07

> <r_epik_Ionization_Penalty_Charging>
0

> <r_epik_Ionization_Penalty_Neutral>
2.35926e-07

> <r_epik_State_Penalty>
-0

> <r_epik_Charging_Adjusted_Penalty>
0

> <i_epik_Tot_Q>
0

> <i_epik_Tot_abs_Q>
0

> <r_epik_Metal_State_Penalty>
-0

> <b_epik_Metal_Only>
0

> <s_lp_Force_Field>
OPLS_2005

> <r_lp_Energy>
20.2229

> <b_lp_Chiralities_Consistent>
1

> <s_lp_Variant>
AV-unprocessed.smi:1646-1

> <Gold.Version>
5.8.1

> <Gold.Id.Protein>
6NUR|6NUR_protein|mol2

> <Gold.PLP.Fitness>
41.9449

> <Gold.PLP.PLP>
-33.3926

> <Gold.PLP.part.hbond>
-2.0000

> <Gold.PLP.part.metal>
0.0000

> <Gold.PLP.part.buried>
-3.1440

> <Gold.PLP.part.nonpolar>
-27.6804

> <Gold.PLP.part.repulsive>
0.1717

> <Gold.PLP.ligand.clash>
0.0000

> <Gold.PLP.ligand.torsion>
0.1064

> <Gold.PLP.Chemscore.Hbond>
1.9204

> <Gold.PLP.Chemscore.CHOScore>
1.0000

> <Gold.PLP.Chemscore.Metal>
0.0000

> <Gold.Chemscore.Hbonds>
donor molecule, donor type, donor heavy atom, donor atom, acceptor molecule, acceptor atom, score
      P1  H  7989  7998       L1     9  1.00
      P1  H  7997  8010       L1     1  0.80
      L1  C     8    19       P1  7949  0.99

> <Gold.PLP.Chemscore.Internal.Correction>
0.0038

> <Gold.Rescore>
     Score         DG    S(hbond)    S(metal)    S(lipo)     H(rot)  DE(clash)    DE(int)     intcor
     18.29     -18.65       1.91        0.00      89.12       1.41       0.00       0.35       ----

> <Gold.Chemscore.Fitness>
18.2943

> <Gold.Chemscore.DG>
-18.6496

> <Gold.Chemscore.ZeroCoef>
-5.4800

> <Gold.Chemscore.Hbond>
1.9054

> <Gold.Chemscore.Metal>
0.0000

> <Gold.Chemscore.Lipo>
89.1230

> <Gold.Chemscore.Internal_Hbond>
0.0000

> <Gold.Chemscore.DEClash>
0.0033

> <Gold.Chemscore.DEInternal>
0.3520

> <Gold.Chemscore.Rot>
1.4148

> <Gold.Chemscore.Internal.Correction>
   9.000000E+99

> <Gold.Chemscore.Hbonds>
donor molecule, donor type, donor heavy atom, donor atom, acceptor molecule, acceptor atom, score
      P1  H  7989  7998       L1     9  0.99
      P1  H  7997  8010       L1     1  0.75

> <Gold.Chemscore.Hbond.Weighted>
-6.3642

> <Gold.Chemscore.Metal.Weighted>
-0.0000

> <Gold.Chemscore.Lipo.Weighted>
-10.4274

> <Gold.Chemscore.Internal_Hbond.Weighted>
0.0000

> <Gold.Chemscore.DEClash.Weighted>
0.0033

> <Gold.Chemscore.DEInternal.Weighted>
0.3520

> <Gold.Chemscore.Rot.Weighted>
3.6220

> <Gold.Chemscore.Internal.Correction.Weighted>
   9.000000E+99

> <Gold.Protein.RotatedTorsions>
[ 6907 6896 6895 6894 ] final    5.85 input  -60.11 | X-H torsion
[ 7974 7965 7964 7962 ] final -179.96 input  175.53 | X-H torsion
[ 8008 7997 7996 7995 ] final   53.70 input   59.86 | X-H torsion
[ 10167 10162 10161 10158 ] final  -16.76 input  -65.29 | X-H torsion
[ 10718 10713 10712 10709 ] final   23.06 input   66.30 | X-H torsion
[ 10763 10752 10751 10750 ] final  145.89 input  -60.55 | X-H torsion
[ 11005 11000 10999 10996 ] final  110.14 input  -57.11 | X-H torsion

> <Gold.Protein.ActiveResidues>
 VAL166  LYS551  ARG553  GLY616  TRP617  ASP618  TYR619  PRO620  LYS621  CYS622 
 ASP623  PHE694  ASN695  SER759  ASP760  ASP761  ALA762  ILE779  LEU786  VAL792 
 PHE793  MET794  SER795  GLU796  ALA797  LYS798  CYS799  TRP800  GLU811  SER814 

> <Gold.Protein.RotatedAtoms>
  151.6642  135.0985  160.0185 H   0  0  0  0  0  0  0  0  0  0  0  0  # atno 6907 bound_to 6896
  152.3929  133.6700  159.6260 H   0  0  0  0  0  0  0  0  0  0  0  0  # atno 6908 bound_to 6896
  150.7841  133.8841  159.3335 H   0  0  0  0  0  0  0  0  0  0  0  0  # atno 6909 bound_to 6896
  144.7140  140.0639  143.6431 H   0  0  0  0  0  0  0  0  0  0  0  0  # atno 7974 bound_to 7965
  155.4726  140.3465  155.4328 H   0  0  0  0  0  0  0  0  0  0  0  0  # atno 8008 bound_to 7997
  156.1091  140.1456  156.9392 H   0  0  0  0  0  0  0  0  0  0  0  0  # atno 8009 bound_to 7997
  154.4744  140.0890  156.7204 H   0  0  0  0  0  0  0  0  0  0  0  0  # atno 8010 bound_to 7997
  140.7238  143.5084  150.9781 H   0  0  0  0  0  0  0  0  0  0  0  0  # atno 10167 bound_to 10162
  157.1609  130.6716  149.6043 H   0  0  0  0  0  0  0  0  0  0  0  0  # atno 10718 bound_to 10713
  154.0128  135.2913  155.3390 H   0  0  0  0  0  0  0  0  0  0  0  0  # atno 10763 bound_to 10752
  154.7093  135.5156  153.8645 H   0  0  0  0  0  0  0  0  0  0  0  0  # atno 10764 bound_to 10752
  153.0715  135.6649  154.0357 H   0  0  0  0  0  0  0  0  0  0  0  0  # atno 10765 bound_to 10752
  139.8876  134.9476  156.6233 H   0  0  0  0  0  0  0  0  0  0  0  0  # atno 11005 bound_to 11000
  145.9840  139.2963  143.1024 LP  0  0  0  0  0  0  0  0  0  0  0  0  # atno 17320 bound_to 7965
  145.8978  140.9262  143.0519 LP  0  0  0  0  0  0  0  0  0  0  0  0  # atno 17321 bound_to 7965
  139.8797  143.7088  152.3158 LP  0  0  0  0  0  0  0  0  0  0  0  0  # atno 17342 bound_to 10162
  139.7366  144.7570  151.0718 LP  0  0  0  0  0  0  0  0  0  0  0  0  # atno 17343 bound_to 10162
  155.9754  130.4712  150.6456 LP  0  0  0  0  0  0  0  0  0  0  0  0  # atno 17370 bound_to 10713
  157.4134  131.0827  151.1200 LP  0  0  0  0  0  0  0  0  0  0  0  0  # atno 17371 bound_to 10713
  140.7722  133.8729  155.8501 LP  0  0  0  0  0  0  0  0  0  0  0  0  # atno 17394 bound_to 11000
  140.9832  134.1377  157.4475 LP  0  0  0  0  0  0  0  0  0  0  0  0  # atno 17395 bound_to 11000

$$$$
