AV-unprocessed.smi:99|AV-procd|sdf|866|dock8
  -GOLD-   2262017323D 1   1.00000     0.00000
 Structure written by MMmdl.
 53 56  0  0  0  0  0  0  0  0  1 V2000
  144.4977  136.3307  154.6588 O   0  0  0  0  0  0  0  0  0  0  0  0
  145.4091  135.6467  154.1888 C   0  0  0  0  0  0  0  0  0  0  0  0
  146.6699  135.6577  154.6620 O   0  0  0  0  0  0  0  0  0  0  0  0
  147.0333  136.5692  155.6846 C   0  0  0  0  0  0  0  0  0  0  0  0
  148.5635  136.5583  155.8498 C   0  0  1  0  0  0  0  0  0  0  0  0
  149.1484  137.5645  155.0221 O   0  0  0  0  0  0  0  0  0  0  0  0
  149.4474  138.7253  155.7507 C   0  0  1  0  0  0  0  0  0  0  0  0
  148.7293  139.9127  155.1391 N   0  0  0  0  0  0  0  0  0  0  0  0
  147.9180  139.8010  154.0159 C   0  0  0  0  0  0  0  0  0  0  0  0
  147.2744  140.8558  153.4623 C   0  0  0  0  0  0  0  0  0  0  0  0
  147.4114  142.1912  154.0339 C   0  0  0  0  0  0  0  0  0  0  0  0
  146.8683  143.2060  153.6029 O   0  0  0  0  0  0  0  0  0  0  0  0
  148.2394  142.2589  155.1579 N   0  0  0  0  0  0  0  0  0  0  0  0
  148.9073  141.1792  155.7374 C   0  0  0  0  0  0  0  0  0  0  0  0
  149.6136  141.3497  156.7306 O   0  0  0  0  0  0  0  0  0  0  0  0
  149.0599  138.4648  157.2241 C   0  0  1  0  0  0  0  0  0  0  0  0
  147.7960  139.0091  157.5737 O   0  0  0  0  0  0  0  0  0  0  0  0
  149.0526  136.9430  157.2453 C   0  0  1  0  0  0  0  0  0  0  0  0
  148.3006  136.3741  158.3120 O   0  0  0  0  0  0  0  0  0  0  0  0
  148.4697  136.7921  159.5839 C   0  0  0  0  0  0  0  0  0  0  0  0
  149.1131  137.7966  159.8938 O   0  0  0  0  0  0  0  0  0  0  0  0
  147.7875  135.9110  160.5748 C   0  0  0  0  0  0  0  0  0  0  0  0
  147.5968  136.3724  161.8982 C   0  0  0  0  0  0  0  0  0  0  0  0
  146.9526  135.5629  162.8540 C   0  0  0  0  0  0  0  0  0  0  0  0
  146.4899  134.2828  162.4976 C   0  0  0  0  0  0  0  0  0  0  0  0
  146.6733  133.8124  161.1843 C   0  0  0  0  0  0  0  0  0  0  0  0
  147.3186  134.6196  160.2275 C   0  0  0  0  0  0  0  0  0  0  0  0
  145.2310  134.7178  153.0360 C   0  0  0  0  0  0  0  0  0  0  0  0
  146.3422  133.9839  152.5591 C   0  0  0  0  0  0  0  0  0  0  0  0
  146.2038  133.0981  151.4728 C   0  0  0  0  0  0  0  0  0  0  0  0
  144.9522  132.9345  150.8512 C   0  0  0  0  0  0  0  0  0  0  0  0
  143.8387  133.6573  151.3175 C   0  0  0  0  0  0  0  0  0  0  0  0
  143.9752  134.5441  152.4033 C   0  0  0  0  0  0  0  0  0  0  0  0
  148.3641  143.1646  155.5864 H   0  0  0  0  0  0  0  0  0  0  0  0
  146.6680  137.5679  155.4463 H   0  0  0  0  0  0  0  0  0  0  0  0
  146.5533  136.2594  156.6137 H   0  0  0  0  0  0  0  0  0  0  0  0
  148.9497  135.5761  155.5753 H   0  0  0  0  0  0  0  0  0  0  0  0
  150.5128  138.9257  155.6188 H   0  0  0  0  0  0  0  0  0  0  0  0
  147.7773  138.8433  153.5402 H   0  0  0  0  0  0  0  0  0  0  0  0
  146.6552  140.7108  152.5889 H   0  0  0  0  0  0  0  0  0  0  0  0
  149.8180  138.8808  157.8883 H   0  0  0  0  0  0  0  0  0  0  0  0
  147.6064  139.7275  156.9899 H   0  0  0  0  0  0  0  0  0  0  0  0
  150.0873  136.6023  157.3150 H   0  0  0  0  0  0  0  0  0  0  0  0
  147.9426  137.3523  162.1950 H   0  0  0  0  0  0  0  0  0  0  0  0
  146.8127  135.9255  163.8617 H   0  0  0  0  0  0  0  0  0  0  0  0
  145.9947  133.6630  163.2304 H   0  0  0  0  0  0  0  0  0  0  0  0
  146.3178  132.8303  160.9086 H   0  0  0  0  0  0  0  0  0  0  0  0
  147.4418  134.2272  159.2285 H   0  0  0  0  0  0  0  0  0  0  0  0
  147.3134  134.0935  153.0203 H   0  0  0  0  0  0  0  0  0  0  0  0
  147.0601  132.5444  151.1164 H   0  0  0  0  0  0  0  0  0  0  0  0
  144.8465  132.2557  150.0180 H   0  0  0  0  0  0  0  0  0  0  0  0
  142.8771  133.5321  150.8416 H   0  0  0  0  0  0  0  0  0  0  0  0
  143.0995  135.0814  152.7376 H   0  0  0  0  0  0  0  0  0  0  0  0
  1  2  2  0  0  0  0
  2  3  1  0  0  0  0
  2 28  1  0  0  0  0
  3  4  1  0  0  0  0
  4  5  1  0  0  0  0
  4 35  1  0  0  0  0
  4 36  1  0  0  0  0
  5 18  1  0  0  0  0
  5  6  1  0  0  0  0
  5 37  1  0  0  0  0
  6  7  1  0  0  0  0
  7  8  1  0  0  0  0
  7 16  1  0  0  0  0
  7 38  1  0  0  0  0
  8 14  1  0  0  0  0
  8  9  1  0  0  0  0
  9 10  2  0  0  0  0
  9 39  1  0  0  0  0
 10 11  1  0  0  0  0
 10 40  1  0  0  0  0
 11 12  2  0  0  0  0
 11 13  1  0  0  0  0
 13 34  1  0  0  0  0
 13 14  1  0  0  0  0
 14 15  2  0  0  0  0
 16 17  1  0  0  0  0
 16 18  1  0  0  0  0
 16 41  1  0  0  0  0
 17 42  1  0  0  0  0
 18 19  1  0  0  0  0
 18 43  1  0  0  0  0
 19 20  1  0  0  0  0
 20 21  2  0  0  0  0
 20 22  1  0  0  0  0
 22 27  1  0  0  0  0
 22 23  2  0  0  0  0
 23 24  1  0  0  0  0
 23 44  1  0  0  0  0
 24 25  2  0  0  0  0
 24 45  1  0  0  0  0
 25 26  1  0  0  0  0
 25 46  1  0  0  0  0
 26 27  2  0  0  0  0
 26 47  1  0  0  0  0
 27 48  1  0  0  0  0
 28 33  1  0  0  0  0
 28 29  2  0  0  0  0
 29 30  1  0  0  0  0
 29 49  1  0  0  0  0
 30 31  2  0  0  0  0
 30 50  1  0  0  0  0
 31 32  1  0  0  0  0
 31 51  1  0  0  0  0
 32 33  2  0  0  0  0
 32 52  1  0  0  0  0
 33 53  1  0  0  0  0
M  END
> <s_m_source_file>
AV-unprocessed.smi

> <i_m_source_file_index>
99

> <i_lp_mmshare_version>
43012

> <i_f3d_flags>
0

> <s_epik_input>
W2NIXTFbY0hdW2NIXVtjSF1bY0hdYzFDKD1PKU9bQ0gyXVtDQEBIXTJPW0NAQEhdKG4zW2NIXVtjSF1jKD1PKVtuSF1jMz1PKVtDQEBIXShbT0hdKVtDQEhdMk9DKD1PKWM0W2NIXVtjSF1bY0hdW2NIXVtjSF00

> <s_epik_cmdline>
J2VwaWtfcHl0aG9uJywgJy1waCcsICc3LjAnLCAnLXRuJywgJzgnLCAnLW1hJywgJzIwMCcsICctbWV0YWxfYmluZGluZycsICctaW1hZScsICc8aW5maWxlLm1hZT4nLCAnLW9tYWUnLCAnPG91dGZpbGUubWFlPic=

> <r_lp_tautomer_probability>
1

> <r_epik_Ionization_Penalty>
0.00454555

> <r_epik_Ionization_Penalty_Charging>
0.0045191

> <r_epik_Ionization_Penalty_Neutral>
2.64449e-05

> <r_epik_State_Penalty>
-0

> <r_epik_Charging_Adjusted_Penalty>
0.0045191

> <i_epik_Tot_Q>
0

> <i_epik_Tot_abs_Q>
0

> <r_epik_Metal_State_Penalty>
1.27877

> <b_epik_Metal_Only>
0

> <s_epik_Chemistry_Notes>
This compound has an ester and may undergo hydrolysis at high or low pH. This compound contains an acetal/aminal-like group ( X-CH(R)-Y where X, Y are N, S, or O) that may be acid/base labile, releasing an aldehyde.

> <s_lp_Force_Field>
OPLS_2005

> <r_lp_Energy>
46.8901

> <b_lp_Chiralities_Consistent>
1

> <s_lp_Variant>
AV-unprocessed.smi:99-2

> <Gold.Version>
5.8.1

> <Gold.Id.Protein>
6NUR|6NUR_protein|mol2

> <Gold.PLP.Fitness>
47.1193

> <Gold.PLP.PLP>
-44.7903

> <Gold.PLP.part.hbond>
-3.4525

> <Gold.PLP.part.metal>
0.0000

> <Gold.PLP.part.buried>
-6.0768

> <Gold.PLP.part.nonpolar>
-36.3302

> <Gold.PLP.part.repulsive>
0.6562

> <Gold.PLP.ligand.clash>
0.0000

> <Gold.PLP.ligand.torsion>
0.6829

> <Gold.PLP.Chemscore.Hbond>
1.1474

> <Gold.PLP.Chemscore.CHOScore>
0.0000

> <Gold.PLP.Chemscore.Metal>
0.0000

> <Gold.Chemscore.Hbonds>
donor molecule, donor type, donor heavy atom, donor atom, acceptor molecule, acceptor atom, score
      L1  H    13    34       P1  8028  1.00
      P1  H  6931  6943       L1    21  0.16
      P1  H  8022  8030       L1    12  0.10

> <Gold.PLP.Chemscore.Internal.Correction>
0.2526

> <Gold.Rescore>
     Score         DG    S(hbond)    S(metal)    S(lipo)     H(rot)  DE(clash)    DE(int)     intcor
     10.98     -12.91       1.54        0.00      89.43       3.19       0.00       1.93       ----

> <Gold.Chemscore.Fitness>
10.9803

> <Gold.Chemscore.DG>
-12.9148

> <Gold.Chemscore.ZeroCoef>
-5.4800

> <Gold.Chemscore.Hbond>
1.5384

> <Gold.Chemscore.Metal>
0.0000

> <Gold.Chemscore.Lipo>
89.4330

> <Gold.Chemscore.Internal_Hbond>
0.0000

> <Gold.Chemscore.DEClash>
0.0029

> <Gold.Chemscore.DEInternal>
1.9316

> <Gold.Chemscore.Rot>
3.1903

> <Gold.Chemscore.Internal.Correction>
   9.000000E+99

> <Gold.Chemscore.Hbonds>
donor molecule, donor type, donor heavy atom, donor atom, acceptor molecule, acceptor atom, score
      L1  H    13    34       P1  8028  0.94
      P1  H  6931  6943       L1    21  0.14
      P1  H  8022  8030       L1    12  0.04

> <Gold.Chemscore.Hbond.Weighted>
-5.1383

> <Gold.Chemscore.Metal.Weighted>
-0.0000

> <Gold.Chemscore.Lipo.Weighted>
-10.4637

> <Gold.Chemscore.Internal_Hbond.Weighted>
0.0000

> <Gold.Chemscore.DEClash.Weighted>
0.0029

> <Gold.Chemscore.DEInternal.Weighted>
1.9316

> <Gold.Chemscore.Rot.Weighted>
8.1671

> <Gold.Chemscore.Internal.Correction.Weighted>
   9.000000E+99

> <Gold.Protein.RotatedTorsions>
[ 6907 6896 6895 6894 ] final   57.51 input  -60.11 | X-H torsion
[ 7974 7965 7964 7962 ] final    5.63 input  175.53 | X-H torsion
[ 8008 7997 7996 7995 ] final  -47.48 input   59.86 | X-H torsion
[ 10167 10162 10161 10158 ] final -151.58 input  -65.29 | X-H torsion
[ 10718 10713 10712 10709 ] final  -21.34 input   66.30 | X-H torsion
[ 10763 10752 10751 10750 ] final   35.69 input  -60.55 | X-H torsion
[ 11005 11000 10999 10996 ] final  -34.85 input  -57.11 | X-H torsion

> <Gold.Protein.ActiveResidues>
 VAL166  LYS551  ARG553  GLY616  TRP617  ASP618  TYR619  PRO620  LYS621  CYS622 
 ASP623  PHE694  ASN695  SER759  ASP760  ASP761  ALA762  ILE779  LEU786  VAL792 
 PHE793  MET794  SER795  GLU796  ALA797  LYS798  CYS799  TRP800  GLU811  SER814 

> <Gold.Protein.RotatedAtoms>
  152.3738  134.6694  160.0166 H   0  0  0  0  0  0  0  0  0  0  0  0  # atno 6907 bound_to 6896
  151.6979  133.3305  159.3267 H   0  0  0  0  0  0  0  0  0  0  0  0  # atno 6908 bound_to 6896
  150.7694  134.6576  159.6367 H   0  0  0  0  0  0  0  0  0  0  0  0  # atno 6909 bound_to 6896
  146.2439  140.0354  142.8386 H   0  0  0  0  0  0  0  0  0  0  0  0  # atno 7974 bound_to 7965
  154.4017  140.1345  156.4181 H   0  0  0  0  0  0  0  0  0  0  0  0  # atno 8008 bound_to 7997
  155.7669  140.3485  155.5206 H   0  0  0  0  0  0  0  0  0  0  0  0  # atno 8009 bound_to 7997
  155.8805  140.0986  157.1479 H   0  0  0  0  0  0  0  0  0  0  0  0  # atno 8010 bound_to 7997
  139.7255  143.8889  152.2518 H   0  0  0  0  0  0  0  0  0  0  0  0  # atno 10167 bound_to 10162
  156.5194  130.4629  149.6605 H   0  0  0  0  0  0  0  0  0  0  0  0  # atno 10718 bound_to 10713
  153.0108  135.6326  154.1866 H   0  0  0  0  0  0  0  0  0  0  0  0  # atno 10763 bound_to 10752
  154.1608  135.2823  155.3111 H   0  0  0  0  0  0  0  0  0  0  0  0  # atno 10764 bound_to 10752
  154.5983  135.5595  153.7408 H   0  0  0  0  0  0  0  0  0  0  0  0  # atno 10765 bound_to 10752
  140.9749  133.7088  156.1586 H   0  0  0  0  0  0  0  0  0  0  0  0  # atno 11005 bound_to 11000
  145.1117  140.9409  143.4652 LP  0  0  0  0  0  0  0  0  0  0  0  0  # atno 17320 bound_to 7965
  145.0569  139.3136  143.5900 LP  0  0  0  0  0  0  0  0  0  0  0  0  # atno 17321 bound_to 7965
  139.8798  144.7024  150.8891 LP  0  0  0  0  0  0  0  0  0  0  0  0  # atno 17342 bound_to 10162
  140.7762  143.3670  151.1719 LP  0  0  0  0  0  0  0  0  0  0  0  0  # atno 17343 bound_to 10162
  156.3164  130.7256  151.2160 LP  0  0  0  0  0  0  0  0  0  0  0  0  # atno 17370 bound_to 10713
  157.7439  131.0467  150.4909 LP  0  0  0  0  0  0  0  0  0  0  0  0  # atno 17371 bound_to 10713
  140.7273  134.4293  157.5569 LP  0  0  0  0  0  0  0  0  0  0  0  0  # atno 17394 bound_to 11000
  139.8927  134.8749  156.2260 LP  0  0  0  0  0  0  0  0  0  0  0  0  # atno 17395 bound_to 11000

$$$$
