AV-unprocessed.smi:3125|AV-procd|sdf|11909|dock4
  -GOLD-   2272017293D 1   1.00000     0.00000
 Structure written by MMmdl.
 28 29  0  0  0  0  0  0  0  0  2 V2000
  152.6910  144.6977  158.0620 C   0  0  0  0  0  0  0  0  0  0  0  0
  152.4741  143.5044  158.8575 N   0  0  0  0  0  0  0  0  0  0  0  0
  153.1365  143.1893  160.0369 C   0  0  0  0  0  0  0  0  0  0  0  0
  152.6396  141.9807  160.4591 C   0  0  0  0  0  0  0  0  0  0  0  0
  151.6777  141.5399  159.5578 N   0  0  0  0  0  0  0  0  0  0  0  0
  151.6164  142.4891  158.6271 C   0  0  0  0  0  0  0  0  0  0  0  0
  150.6998  142.4222  157.4369 C   0  0  1  0  0  0  0  0  0  0  0  0
  151.0629  141.2556  156.4977 C   0  0  0  0  0  0  0  0  0  0  0  0
  150.0932  141.1983  155.3073 C   0  0  0  0  0  0  0  0  0  0  0  0
  148.6347  141.1368  155.7903 C   0  0  0  0  0  0  0  0  0  0  0  0
  148.3303  142.2807  156.6771 N   0  3  0  0  0  0  0  0  0  0  0  0
  149.2177  142.3463  157.8593 C   0  0  0  0  0  0  0  0  0  0  0  0
  153.4776  145.3088  158.5059 H   0  0  0  0  0  0  0  0  0  0  0  0
  151.7731  145.2843  158.0184 H   0  0  0  0  0  0  0  0  0  0  0  0
  152.9919  144.4193  157.0517 H   0  0  0  0  0  0  0  0  0  0  0  0
  153.8895  143.8335  160.4672 H   0  0  0  0  0  0  0  0  0  0  0  0
  152.8978  141.4003  161.3325 H   0  0  0  0  0  0  0  0  0  0  0  0
  150.8153  143.3411  156.8624 H   0  0  0  0  0  0  0  0  0  0  0  0
  152.0868  141.3651  156.1387 H   0  0  0  0  0  0  0  0  0  0  0  0
  151.0228  140.3111  157.0423 H   0  0  0  0  0  0  0  0  0  0  0  0
  150.2344  142.0765  154.6757 H   0  0  0  0  0  0  0  0  0  0  0  0
  150.3172  140.3311  154.6853 H   0  0  0  0  0  0  0  0  0  0  0  0
  147.9532  141.1533  154.9395 H   0  0  0  0  0  0  0  0  0  0  0  0
  148.4512  140.2056  156.3283 H   0  0  0  0  0  0  0  0  0  0  0  0
  148.4356  143.1345  156.1478 H   0  0  0  0  0  0  0  0  0  0  0  0
  149.0386  141.4689  158.4827 H   0  0  0  0  0  0  0  0  0  0  0  0
  148.9480  143.2196  158.4538 H   0  0  0  0  0  0  0  0  0  0  0  0
  147.3726  142.2075  156.9899 H   0  0  0  0  0  0  0  0  0  0  0  0
  1  2  1  0  0  0  0
  1 13  1  0  0  0  0
  1 14  1  0  0  0  0
  1 15  1  0  0  0  0
  2  6  1  0  0  0  0
  2  3  1  0  0  0  0
  3  4  2  0  0  0  0
  3 16  1  0  0  0  0
  4  5  1  0  0  0  0
  4 17  1  0  0  0  0
  5  6  2  0  0  0  0
  6  7  1  0  0  0  0
  7 12  1  0  0  0  0
  7  8  1  0  0  0  0
  7 18  1  0  0  0  0
  8  9  1  0  0  0  0
  8 19  1  0  0  0  0
  8 20  1  0  0  0  0
  9 10  1  0  0  0  0
  9 21  1  0  0  0  0
  9 22  1  0  0  0  0
 10 11  1  0  0  0  0
 10 23  1  0  0  0  0
 10 24  1  0  0  0  0
 11 12  1  0  0  0  0
 11 25  1  0  0  0  0
 11 28  1  0  0  0  0
 12 26  1  0  0  0  0
 12 27  1  0  0  0  0
M  CHG  1  11   1
M  END
> <s_m_source_file>
AV-unprocessed.smi

> <i_m_source_file_index>
3125

> <i_lp_mmshare_version>
43012

> <i_f3d_flags>
0

> <s_epik_input>
W0NIM11uMVtjSF1bY0hdbmMxW0NAQEhdMltDSDJdW0NIMl1bQ0gyXVtOSF1bQ0gyXTI=

> <s_epik_cmdline>
J2VwaWtfcHl0aG9uJywgJy1waCcsICc3LjAnLCAnLXRuJywgJzgnLCAnLW1hJywgJzIwMCcsICctbWV0YWxfYmluZGluZycsICctaW1hZScsICc8aW5maWxlLm1hZT4nLCAnLW9tYWUnLCAnPG91dGZpbGUubWFlPic=

> <r_lp_tautomer_probability>
1

> <r_epik_Ionization_Penalty>
0.177191

> <r_epik_Ionization_Penalty_Charging>
0.177191

> <r_epik_Ionization_Penalty_Neutral>
7.05152e-14

> <r_epik_State_Penalty>
0.46716

> <r_epik_Charging_Adjusted_Penalty>
0.644351

> <i_epik_Tot_Q>
1

> <i_epik_Tot_abs_Q>
1

> <r_epik_Metal_State_Penalty>
0.000708398

> <b_epik_Metal_Only>
0

> <s_lp_Force_Field>
OPLS_2005

> <r_lp_Energy>
12.4076

> <b_lp_Chiralities_Consistent>
1

> <s_lp_Variant>
AV-unprocessed.smi:3125-4

> <Gold.Version>
5.8.1

> <Gold.Id.Protein>
6NUR|6NUR_protein|mol2

> <Gold.PLP.Fitness>
36.2559

> <Gold.PLP.PLP>
-30.2864

> <Gold.PLP.part.hbond>
-1.0000

> <Gold.PLP.part.metal>
0.0000

> <Gold.PLP.part.buried>
-2.2214

> <Gold.PLP.part.nonpolar>
-26.1373

> <Gold.PLP.part.repulsive>
0.0013

> <Gold.PLP.ligand.clash>
0.0000

> <Gold.PLP.ligand.torsion>
0.0283

> <Gold.PLP.Chemscore.Hbond>
2.0000

> <Gold.PLP.Chemscore.CHOScore>
0.0000

> <Gold.PLP.Chemscore.Metal>
0.0000

> <Gold.Chemscore.Hbonds>
donor molecule, donor type, donor heavy atom, donor atom, acceptor molecule, acceptor atom, score
      L1  H    11    25       P1  8028  2.00

> <Gold.PLP.Chemscore.Internal.Correction>
0.0262

> <Gold.Rescore>
     Score         DG    S(hbond)    S(metal)    S(lipo)     H(rot)  DE(clash)    DE(int)     intcor
     14.09     -14.16       0.97        0.00      68.45       1.00       0.06       0.01       ----

> <Gold.Chemscore.Fitness>
14.0908

> <Gold.Chemscore.DG>
-14.1631

> <Gold.Chemscore.ZeroCoef>
-5.4800

> <Gold.Chemscore.Hbond>
0.9684

> <Gold.Chemscore.Metal>
0.0000

> <Gold.Chemscore.Lipo>
68.4489

> <Gold.Chemscore.Internal_Hbond>
0.0000

> <Gold.Chemscore.DEClash>
0.0593

> <Gold.Chemscore.DEInternal>
0.0131

> <Gold.Chemscore.Rot>
1.0000

> <Gold.Chemscore.Internal.Correction>
   9.000000E+99

> <Gold.Chemscore.Hbonds>
donor molecule, donor type, donor heavy atom, donor atom, acceptor molecule, acceptor atom, score
      L1  H    11    25       P1  8028  0.88

> <Gold.Chemscore.Hbond.Weighted>
-3.2346

> <Gold.Chemscore.Metal.Weighted>
-0.0000

> <Gold.Chemscore.Lipo.Weighted>
-8.0085

> <Gold.Chemscore.Internal_Hbond.Weighted>
0.0000

> <Gold.Chemscore.DEClash.Weighted>
0.0593

> <Gold.Chemscore.DEInternal.Weighted>
0.0131

> <Gold.Chemscore.Rot.Weighted>
2.5600

> <Gold.Chemscore.Internal.Correction.Weighted>
   9.000000E+99

> <Gold.Protein.RotatedTorsions>
[ 6907 6896 6895 6894 ] final   41.18 input  -60.11 | X-H torsion
[ 7974 7965 7964 7962 ] final  -79.40 input  175.53 | X-H torsion
[ 8008 7997 7996 7995 ] final   68.98 input   59.86 | X-H torsion
[ 10167 10162 10161 10158 ] final -129.20 input  -65.29 | X-H torsion
[ 10718 10713 10712 10709 ] final   88.18 input   66.30 | X-H torsion
[ 10763 10752 10751 10750 ] final  -57.13 input  -60.55 | X-H torsion
[ 11005 11000 10999 10996 ] final   -7.39 input  -57.11 | X-H torsion

> <Gold.Protein.ActiveResidues>
 VAL166  LYS551  ARG553  GLY616  TRP617  ASP618  TYR619  PRO620  LYS621  CYS622 
 ASP623  PHE694  ASN695  SER759  ASP760  ASP761  ALA762  ILE779  LEU786  VAL792 
 PHE793  MET794  SER795  GLU796  ALA797  LYS798  CYS799  TRP800  GLU811  SER814 

> <Gold.Protein.RotatedAtoms>
  152.1920  134.8664  160.0516 H   0  0  0  0  0  0  0  0  0  0  0  0  # atno 6907 bound_to 6896
  151.9549  133.3672  159.4022 H   0  0  0  0  0  0  0  0  0  0  0  0  # atno 6908 bound_to 6896
  150.6937  134.4225  159.5255 H   0  0  0  0  0  0  0  0  0  0  0  0  # atno 6909 bound_to 6896
  145.5738  140.9461  143.1381 H   0  0  0  0  0  0  0  0  0  0  0  0  # atno 7974 bound_to 7965
  155.7166  140.3494  155.4997 H   0  0  0  0  0  0  0  0  0  0  0  0  # atno 8008 bound_to 7997
  155.9307  140.1084  157.1156 H   0  0  0  0  0  0  0  0  0  0  0  0  # atno 8009 bound_to 7997
  154.4085  140.1231  156.4786 H   0  0  0  0  0  0  0  0  0  0  0  0  # atno 8010 bound_to 7997
  139.9423  143.6149  152.2500 H   0  0  0  0  0  0  0  0  0  0  0  0  # atno 10167 bound_to 10162
  157.6947  131.0284  150.3235 H   0  0  0  0  0  0  0  0  0  0  0  0  # atno 10718 bound_to 10713
  154.2175  135.6383  153.5134 H   0  0  0  0  0  0  0  0  0  0  0  0  # atno 10763 bound_to 10752
  152.9976  135.5489  154.6149 H   0  0  0  0  0  0  0  0  0  0  0  0  # atno 10764 bound_to 10752
  154.5601  135.2908  155.0901 H   0  0  0  0  0  0  0  0  0  0  0  0  # atno 10765 bound_to 10752
  140.7123  133.8898  155.8759 H   0  0  0  0  0  0  0  0  0  0  0  0  # atno 11005 bound_to 11000
  144.7425  139.7408  143.7305 LP  0  0  0  0  0  0  0  0  0  0  0  0  # atno 17320 bound_to 7965
  146.1765  139.4938  142.9894 LP  0  0  0  0  0  0  0  0  0  0  0  0  # atno 17321 bound_to 7965
  139.6695  144.7661  151.1811 LP  0  0  0  0  0  0  0  0  0  0  0  0  # atno 17342 bound_to 10162
  140.7607  143.5887  150.8818 LP  0  0  0  0  0  0  0  0  0  0  0  0  # atno 17343 bound_to 10162
  156.3719  130.3865  149.7169 LP  0  0  0  0  0  0  0  0  0  0  0  0  # atno 17370 bound_to 10713
  156.4580  130.7938  151.2959 LP  0  0  0  0  0  0  0  0  0  0  0  0  # atno 17371 bound_to 10713
  141.0074  134.1067  157.4256 LP  0  0  0  0  0  0  0  0  0  0  0  0  # atno 17394 bound_to 11000
  139.8868  135.0085  156.6525 LP  0  0  0  0  0  0  0  0  0  0  0  0  # atno 17395 bound_to 11000

$$$$
