AV-unprocessed.smi:2243|AV-procd|sdf|9068|dock10
  -GOLD-   2272012273D 1   1.00000     0.00000
 Structure written by MMmdl.
 34 35  0  0  0  0  0  0  0  0  1 V2000
  151.2914  144.0976  157.9596 C   0  0  0  0  0  0  0  0  0  0  0  0
  151.4532  142.6294  157.5297 C   0  0  2  0  0  0  0  0  0  0  0  0
  150.1432  142.1399  157.0972 N   0  0  0  0  0  0  0  0  0  0  0  0
  149.8820  141.4173  155.9964 C   0  0  0  0  0  0  0  0  0  0  0  0
  150.7747  141.0821  155.2114 O   0  0  0  0  0  0  0  0  0  0  0  0
  148.5242  141.1387  155.9278 N   0  0  0  0  0  0  0  0  0  0  0  0
  148.0461  140.4632  154.9276 C   0  0  0  0  0  0  0  0  0  0  0  0
  148.6292  139.8992  153.7960 N   0  0  0  0  0  0  0  0  0  0  0  0
  147.6454  139.2929  153.0662 C   0  0  0  0  0  0  0  0  0  0  0  0
  146.4929  139.4646  153.7064 C   0  0  0  0  0  0  0  0  0  0  0  0
  146.7064  140.1772  154.8480 O   0  0  0  0  0  0  0  0  0  0  0  0
  152.0290  141.7209  158.6486 C   0  0  0  0  0  0  0  0  0  0  0  0
  153.2178  142.3693  159.3869 C   0  0  0  0  0  0  0  0  0  0  0  0
  153.8134  141.4157  160.4355 C   0  0  0  0  0  0  0  0  0  0  0  0
  154.2117  140.1982  159.8183 O   0  0  0  0  0  0  0  0  0  0  0  0
  153.1201  139.4983  159.2345 C   0  0  0  0  0  0  0  0  0  0  0  0
  152.4888  140.3455  158.1185 C   0  0  0  0  0  0  0  0  0  0  0  0
  152.2526  144.5677  158.1645 H   0  0  0  0  0  0  0  0  0  0  0  0
  150.6764  144.1840  158.8560 H   0  0  0  0  0  0  0  0  0  0  0  0
  150.8153  144.6844  157.1732 H   0  0  0  0  0  0  0  0  0  0  0  0
  152.1512  142.6131  156.6912 H   0  0  0  0  0  0  0  0  0  0  0  0
  149.3614  142.3719  157.6926 H   0  0  0  0  0  0  0  0  0  0  0  0
  149.6012  139.9123  153.5215 H   0  0  0  0  0  0  0  0  0  0  0  0
  147.8818  138.7892  152.1406 H   0  0  0  0  0  0  0  0  0  0  0  0
  145.4807  139.1561  153.4902 H   0  0  0  0  0  0  0  0  0  0  0  0
  151.2381  141.5454  159.3798 H   0  0  0  0  0  0  0  0  0  0  0  0
  153.9915  142.6469  158.6701 H   0  0  0  0  0  0  0  0  0  0  0  0
  152.9095  143.2874  159.8860 H   0  0  0  0  0  0  0  0  0  0  0  0
  154.6855  141.8730  160.9030 H   0  0  0  0  0  0  0  0  0  0  0  0
  153.0950  141.2151  161.2319 H   0  0  0  0  0  0  0  0  0  0  0  0
  153.4853  138.5556  158.8268 H   0  0  0  0  0  0  0  0  0  0  0  0
  152.3820  139.2491  159.9986 H   0  0  0  0  0  0  0  0  0  0  0  0
  151.6517  139.7944  157.6897 H   0  0  0  0  0  0  0  0  0  0  0  0
  153.2135  140.4840  157.3150 H   0  0  0  0  0  0  0  0  0  0  0  0
  1  2  1  0  0  0  0
  1 18  1  0  0  0  0
  1 19  1  0  0  0  0
  1 20  1  0  0  0  0
  2  3  1  0  0  0  0
  2 12  1  0  0  0  0
  2 21  1  0  0  0  0
  3 22  1  0  0  0  0
  3  4  1  0  0  0  0
  4  6  1  0  0  0  0
  4  5  2  0  0  0  0
  6  7  2  0  0  0  0
  7 11  1  0  0  0  0
  7  8  1  0  0  0  0
  8 23  1  0  0  0  0
  8  9  1  0  0  0  0
  9 24  1  0  0  0  0
  9 10  2  0  0  0  0
 10 25  1  0  0  0  0
 10 11  1  0  0  0  0
 12 17  1  0  0  0  0
 12 13  1  0  0  0  0
 12 26  1  0  0  0  0
 13 14  1  0  0  0  0
 13 27  1  0  0  0  0
 13 28  1  0  0  0  0
 14 15  1  0  0  0  0
 14 29  1  0  0  0  0
 14 30  1  0  0  0  0
 15 16  1  0  0  0  0
 16 17  1  0  0  0  0
 16 31  1  0  0  0  0
 16 32  1  0  0  0  0
 17 33  1  0  0  0  0
 17 34  1  0  0  0  0
M  END
> <s_m_source_file>
AV-unprocessed.smi

> <i_m_source_file_index>
2243

> <i_lp_mmshare_version>
43012

> <i_f3d_flags>
0

> <s_epik_input>
W0NIMl0xW0NIMl1PW0NIMl1bQ0gyXVtDSF0xW0NASF0oW0NIM10pW05IXUMoPU8pW05IXWMybltjSF1bY0hdbzI=

> <s_epik_cmdline>
J2VwaWtfcHl0aG9uJywgJy1waCcsICc3LjAnLCAnLXRuJywgJzgnLCAnLW1hJywgJzIwMCcsICctbWV0YWxfYmluZGluZycsICctaW1hZScsICc8aW5maWxlLm1hZT4nLCAnLW9tYWUnLCAnPG91dGZpbGUubWFlPic=

> <r_lp_tautomer_probability>
0.107061

> <r_epik_Ionization_Penalty>
1.44639

> <r_epik_Ionization_Penalty_Charging>
1.44602

> <r_epik_Ionization_Penalty_Neutral>
0.000368208

> <r_epik_State_Penalty>
2.61815

> <r_epik_Charging_Adjusted_Penalty>
4.06418

> <i_epik_Tot_Q>
0

> <i_epik_Tot_abs_Q>
0

> <r_epik_Metal_State_Penalty>
3.54171

> <b_epik_Metal_Only>
0

> <s_lp_Force_Field>
OPLS_2005

> <r_lp_Energy>
34.9147

> <b_lp_Chiralities_Consistent>
1

> <s_lp_Variant>
AV-unprocessed.smi:2243-7

> <Gold.Version>
5.8.1

> <Gold.Id.Protein>
6NUR|6NUR_protein|mol2

> <Gold.PLP.Fitness>
35.4828

> <Gold.PLP.PLP>
-26.7474

> <Gold.PLP.part.hbond>
-2.5195

> <Gold.PLP.part.metal>
0.0000

> <Gold.PLP.part.buried>
-2.0895

> <Gold.PLP.part.nonpolar>
-22.9697

> <Gold.PLP.part.repulsive>
0.3271

> <Gold.PLP.ligand.clash>
0.0000

> <Gold.PLP.ligand.torsion>
0.4150

> <Gold.PLP.Chemscore.Hbond>
0.7520

> <Gold.PLP.Chemscore.CHOScore>
2.4317

> <Gold.PLP.Chemscore.Metal>
0.0000

> <Gold.Chemscore.Hbonds>
donor molecule, donor type, donor heavy atom, donor atom, acceptor molecule, acceptor atom, score
      L1  H     8    23       P1  7957  0.02
      P1  H  7989  7998       L1     5  0.67
      L1  C     9    24       P1  7948  0.42
      L1  C     9    24       P1  7957  0.54
      L1  C    10    25       P1 10175  0.97

> <Gold.PLP.Chemscore.Internal.Correction>
0.0144

> <Gold.Rescore>
     Score         DG    S(hbond)    S(metal)    S(lipo)     H(rot)  DE(clash)    DE(int)     intcor
     12.29     -12.93       1.04        0.00      62.97       1.32       0.45       0.19       ----

> <Gold.Chemscore.Fitness>
12.2919

> <Gold.Chemscore.DG>
-12.9309

> <Gold.Chemscore.ZeroCoef>
-5.4800

> <Gold.Chemscore.Hbond>
1.0366

> <Gold.Chemscore.Metal>
0.0000

> <Gold.Chemscore.Lipo>
62.9737

> <Gold.Chemscore.Internal_Hbond>
0.0000

> <Gold.Chemscore.DEClash>
0.4473

> <Gold.Chemscore.DEInternal>
0.1916

> <Gold.Chemscore.Rot>
1.3201

> <Gold.Chemscore.Internal.Correction>
   9.000000E+99

> <Gold.Chemscore.Hbonds>
donor molecule, donor type, donor heavy atom, donor atom, acceptor molecule, acceptor atom, score
      L1  H     8    23       P1  7957  0.02
      P1  H  7989  7998       L1     5  0.66

> <Gold.Chemscore.Hbond.Weighted>
-3.4623

> <Gold.Chemscore.Metal.Weighted>
-0.0000

> <Gold.Chemscore.Lipo.Weighted>
-7.3679

> <Gold.Chemscore.Internal_Hbond.Weighted>
0.0000

> <Gold.Chemscore.DEClash.Weighted>
0.4473

> <Gold.Chemscore.DEInternal.Weighted>
0.1916

> <Gold.Chemscore.Rot.Weighted>
3.3794

> <Gold.Chemscore.Internal.Correction.Weighted>
   9.000000E+99

> <Gold.Protein.RotatedTorsions>
[ 6907 6896 6895 6894 ] final -122.15 input  -60.11 | X-H torsion
[ 7974 7965 7964 7962 ] final  -81.52 input  175.53 | X-H torsion
[ 8008 7997 7996 7995 ] final  -76.61 input   59.86 | X-H torsion
[ 10167 10162 10161 10158 ] final  -97.25 input  -65.29 | X-H torsion
[ 10718 10713 10712 10709 ] final  175.08 input   66.30 | X-H torsion
[ 10763 10752 10751 10750 ] final -109.35 input  -60.55 | X-H torsion
[ 11005 11000 10999 10996 ] final -105.83 input  -57.11 | X-H torsion

> <Gold.Protein.ActiveResidues>
 VAL166  LYS551  ARG553  GLY616  TRP617  ASP618  TYR619  PRO620  LYS621  CYS622 
 ASP623  PHE694  ASN695  SER759  ASP760  ASP761  ALA762  ILE779  LEU786  VAL792 
 PHE793  MET794  SER795  GLU796  ALA797  LYS798  CYS799  TRP800  GLU811  SER814 

> <Gold.Protein.RotatedAtoms>
  150.8549  133.7731  159.3012 H   0  0  0  0  0  0  0  0  0  0  0  0  # atno 6907 bound_to 6896
  151.5391  135.1067  159.9931 H   0  0  0  0  0  0  0  0  0  0  0  0  # atno 6908 bound_to 6896
  152.4582  133.7722  159.6861 H   0  0  0  0  0  0  0  0  0  0  0  0  # atno 6909 bound_to 6896
  145.5455  140.9504  143.1527 H   0  0  0  0  0  0  0  0  0  0  0  0  # atno 7974 bound_to 7965
  154.5521  140.0724  156.8684 H   0  0  0  0  0  0  0  0  0  0  0  0  # atno 8008 bound_to 7997
  155.2973  140.3382  155.4231 H   0  0  0  0  0  0  0  0  0  0  0  0  # atno 8009 bound_to 7997
  156.1970  140.1707  156.7963 H   0  0  0  0  0  0  0  0  0  0  0  0  # atno 8010 bound_to 7997
  140.2854  143.3255  152.0399 H   0  0  0  0  0  0  0  0  0  0  0  0  # atno 10167 bound_to 10162
  156.9402  130.9999  151.2970 H   0  0  0  0  0  0  0  0  0  0  0  0  # atno 10718 bound_to 10713
  154.8188  135.4604  154.0719 H   0  0  0  0  0  0  0  0  0  0  0  0  # atno 10763 bound_to 10752
  153.2090  135.6879  153.8144 H   0  0  0  0  0  0  0  0  0  0  0  0  # atno 10764 bound_to 10752
  153.7602  135.3285  155.3313 H   0  0  0  0  0  0  0  0  0  0  0  0  # atno 10765 bound_to 10752
  141.1034  133.8842  157.1782 H   0  0  0  0  0  0  0  0  0  0  0  0  # atno 11005 bound_to 11000
  144.7555  139.7085  143.7255 LP  0  0  0  0  0  0  0  0  0  0  0  0  # atno 17320 bound_to 7965
  146.1952  139.5214  142.9779 LP  0  0  0  0  0  0  0  0  0  0  0  0  # atno 17321 bound_to 7965
  139.4951  144.6562  151.6566 LP  0  0  0  0  0  0  0  0  0  0  0  0  # atno 17342 bound_to 10162
  140.5777  144.0000  150.6251 LP  0  0  0  0  0  0  0  0  0  0  0  0  # atno 17343 bound_to 10162
  157.5790  130.8363  149.8496 LP  0  0  0  0  0  0  0  0  0  0  0  0  # atno 17370 bound_to 10713
  156.0408  130.3739  150.1441 LP  0  0  0  0  0  0  0  0  0  0  0  0  # atno 17371 bound_to 10713
  139.9894  135.0070  156.9940 LP  0  0  0  0  0  0  0  0  0  0  0  0  # atno 17394 bound_to 11000
  140.4964  134.1141  155.7242 LP  0  0  0  0  0  0  0  0  0  0  0  0  # atno 17395 bound_to 11000

$$$$
