AV-unprocessed.smi:2822|AV-procd|sdf|10869|dock10
  -GOLD-   2272015313D 1   1.00000     0.00000
 Structure written by MMmdl.
 40 42  0  0  0  0  0  0  0  0  2 V2000
  146.3580  142.5866  155.8624 Cl  0  0  0  0  0  0  0  0  0  0  0  0
  147.1587  141.3446  154.9642 C   0  0  0  0  0  0  0  0  0  0  0  0
  146.6094  140.8991  153.7443 C   0  0  0  0  0  0  0  0  0  0  0  0
  147.1731  139.9385  152.9820 N   0  0  0  0  0  0  0  0  0  0  0  0
  148.3207  139.3809  153.4205 C   0  0  0  0  0  0  0  0  0  0  0  0
  148.9533  139.7515  154.6242 C   0  0  0  0  0  0  0  0  0  0  0  0
  148.3625  140.7604  155.4209 C   0  0  0  0  0  0  0  0  0  0  0  0
  148.9251  141.1925  156.6313 N   0  0  0  0  0  0  0  0  0  0  0  0
  150.0414  140.4834  157.2365 C   0  0  0  0  0  0  0  0  0  0  0  0
  151.3851  141.1605  156.9009 C   0  0  1  0  0  0  0  0  0  0  0  0
  151.4536  142.6304  157.3558 C   0  0  0  0  0  0  0  0  0  0  0  0
  151.5605  142.7363  158.8299 N   0  3  2  0  0  0  0  0  0  0  0  0
  151.5904  144.1488  159.2879 C   0  0  0  0  0  0  0  0  0  0  0  0
  151.6149  144.2365  160.8218 C   0  0  0  0  0  0  0  0  0  0  0  0
  152.8001  143.4491  161.3933 C   0  0  0  0  0  0  0  0  0  0  0  0
  152.7593  142.0010  160.8881 C   0  0  0  0  0  0  0  0  0  0  0  0
  152.7084  141.9430  159.3476 C   0  0  1  0  0  0  0  0  0  0  0  0
  152.6098  140.4876  158.8525 C   0  0  0  0  0  0  0  0  0  0  0  0
  152.5036  140.4500  157.4333 O   0  0  0  0  0  0  0  0  0  0  0  0
  145.6918  141.3273  153.3689 H   0  0  0  0  0  0  0  0  0  0  0  0
  148.7497  138.6139  152.7928 H   0  0  0  0  0  0  0  0  0  0  0  0
  149.8688  139.2576  154.9127 H   0  0  0  0  0  0  0  0  0  0  0  0
  148.6870  142.1099  156.9824 H   0  0  0  0  0  0  0  0  0  0  0  0
  149.8981  140.4833  158.3177 H   0  0  0  0  0  0  0  0  0  0  0  0
  150.0375  139.4405  156.9209 H   0  0  0  0  0  0  0  0  0  0  0  0
  151.4949  141.1479  155.8157 H   0  0  0  0  0  0  0  0  0  0  0  0
  152.3215  143.1110  156.9009 H   0  0  0  0  0  0  0  0  0  0  0  0
  150.5743  143.1729  157.0062 H   0  0  0  0  0  0  0  0  0  0  0  0
  152.4659  144.6497  158.8713 H   0  0  0  0  0  0  0  0  0  0  0  0
  150.7139  144.6742  158.9070 H   0  0  0  0  0  0  0  0  0  0  0  0
  151.6754  145.2794  161.1343 H   0  0  0  0  0  0  0  0  0  0  0  0
  150.6817  143.8446  161.2283 H   0  0  0  0  0  0  0  0  0  0  0  0
  153.7370  143.9196  161.0922 H   0  0  0  0  0  0  0  0  0  0  0  0
  152.7757  143.4693  162.4834 H   0  0  0  0  0  0  0  0  0  0  0  0
  153.6323  141.4596  161.2549 H   0  0  0  0  0  0  0  0  0  0  0  0
  151.8865  141.4978  161.3069 H   0  0  0  0  0  0  0  0  0  0  0  0
  153.6268  142.3800  158.9507 H   0  0  0  0  0  0  0  0  0  0  0  0
  153.5046  139.9357  159.1415 H   0  0  0  0  0  0  0  0  0  0  0  0
  151.7697  139.9686  159.3147 H   0  0  0  0  0  0  0  0  0  0  0  0
  150.7234  142.3223  159.2147 H   0  0  0  0  0  0  0  0  0  0  0  0
  1  2  1  0  0  0  0
  2  7  1  0  0  0  0
  2  3  2  0  0  0  0
  3  4  1  0  0  0  0
  3 20  1  0  0  0  0
  4  5  2  0  0  0  0
  5  6  1  0  0  0  0
  5 21  1  0  0  0  0
  6  7  2  0  0  0  0
  6 22  1  0  0  0  0
  7  8  1  0  0  0  0
  8  9  1  0  0  0  0
  8 23  1  0  0  0  0
  9 10  1  0  0  0  0
  9 24  1  0  0  0  0
  9 25  1  0  0  0  0
 10 19  1  0  0  0  0
 10 11  1  0  0  0  0
 10 26  1  0  0  0  0
 11 12  1  0  0  0  0
 11 27  1  0  0  0  0
 11 28  1  0  0  0  0
 12 17  1  0  0  0  0
 12 13  1  0  0  0  0
 12 40  1  0  0  0  0
 13 14  1  0  0  0  0
 13 29  1  0  0  0  0
 13 30  1  0  0  0  0
 14 15  1  0  0  0  0
 14 31  1  0  0  0  0
 14 32  1  0  0  0  0
 15 16  1  0  0  0  0
 15 33  1  0  0  0  0
 15 34  1  0  0  0  0
 16 17  1  0  0  0  0
 16 35  1  0  0  0  0
 16 36  1  0  0  0  0
 17 18  1  0  0  0  0
 17 37  1  0  0  0  0
 18 19  1  0  0  0  0
 18 38  1  0  0  0  0
 18 39  1  0  0  0  0
M  CHG  1  12   1
M  END
> <s_m_source_file>
AV-unprocessed.smi

> <i_m_source_file_index>
2822

> <i_lp_mmshare_version>
43012

> <i_f3d_flags>
0

> <s_epik_input>
Q2xjMVtjSF1uW2NIXVtjSF1jMVtOSF1bQ0gyXVtDQEhdKFtDSDJdMilPW0NIMl1bQ0BASF0oTjIzKVtDSDJdW0NIMl1bQ0gyXVtDSDJdMw==

> <s_epik_cmdline>
J2VwaWtfcHl0aG9uJywgJy1waCcsICc3LjAnLCAnLXRuJywgJzgnLCAnLW1hJywgJzIwMCcsICctbWV0YWxfYmluZGluZycsICctaW1hZScsICc8aW5maWxlLm1hZT4nLCAnLW9tYWUnLCAnPG91dGZpbGUubWFlPic=

> <r_lp_tautomer_probability>
0.999999

> <r_epik_Ionization_Penalty>
0.88937

> <r_epik_Ionization_Penalty_Charging>
0.0803403

> <r_epik_Ionization_Penalty_Neutral>
0.80903

> <r_epik_State_Penalty>
0.931884

> <r_epik_Charging_Adjusted_Penalty>
1.01222

> <i_epik_Tot_Q>
1

> <i_epik_Tot_abs_Q>
1

> <r_epik_Metal_State_Penalty>
0.0782275

> <b_epik_Metal_Only>
0

> <s_lp_Force_Field>
OPLS_2005

> <r_lp_Energy>
31.9591

> <b_lp_Chiralities_Consistent>
1

> <s_lp_Variant>
AV-unprocessed.smi:2822-10

> <Gold.Version>
5.8.1

> <Gold.Id.Protein>
6NUR|6NUR_protein|mol2

> <Gold.PLP.Fitness>
40.2410

> <Gold.PLP.PLP>
-31.0455

> <Gold.PLP.part.hbond>
-1.0000

> <Gold.PLP.part.metal>
0.0000

> <Gold.PLP.part.buried>
-0.8813

> <Gold.PLP.part.nonpolar>
-28.8371

> <Gold.PLP.part.repulsive>
0.7704

> <Gold.PLP.ligand.clash>
0.0000

> <Gold.PLP.ligand.torsion>
0.1800

> <Gold.PLP.Chemscore.Hbond>
0.8299

> <Gold.PLP.Chemscore.CHOScore>
2.3534

> <Gold.PLP.Chemscore.Metal>
0.0000

> <Gold.Chemscore.Hbonds>
donor molecule, donor type, donor heavy atom, donor atom, acceptor molecule, acceptor atom, score
      P1  H  7997  8009       L1    19  0.82
      L1  C     3    20       P1 10175  0.96
      L1  C     5    21       P1  7948  0.99
      L1  C     5    21       P1  7957  0.36

> <Gold.PLP.Chemscore.Internal.Correction>
0.0055

> <Gold.Rescore>
     Score         DG    S(hbond)    S(metal)    S(lipo)     H(rot)  DE(clash)    DE(int)     intcor
     17.69     -17.96       0.74        0.00     111.19       1.17       0.12       0.16       ----

> <Gold.Chemscore.Fitness>
17.6871

> <Gold.Chemscore.DG>
-17.9645

> <Gold.Chemscore.ZeroCoef>
-5.4800

> <Gold.Chemscore.Hbond>
0.7392

> <Gold.Chemscore.Metal>
0.0000

> <Gold.Chemscore.Lipo>
111.1882

> <Gold.Chemscore.Internal_Hbond>
0.0000

> <Gold.Chemscore.DEClash>
0.1203

> <Gold.Chemscore.DEInternal>
0.1571

> <Gold.Chemscore.Rot>
1.1693

> <Gold.Chemscore.Internal.Correction>
   9.000000E+99

> <Gold.Chemscore.Hbonds>
donor molecule, donor type, donor heavy atom, donor atom, acceptor molecule, acceptor atom, score
      P1  H  7997  8009       L1    19  0.54

> <Gold.Chemscore.Hbond.Weighted>
-2.4689

> <Gold.Chemscore.Metal.Weighted>
-0.0000

> <Gold.Chemscore.Lipo.Weighted>
-13.0090

> <Gold.Chemscore.Internal_Hbond.Weighted>
0.0000

> <Gold.Chemscore.DEClash.Weighted>
0.1203

> <Gold.Chemscore.DEInternal.Weighted>
0.1571

> <Gold.Chemscore.Rot.Weighted>
2.9934

> <Gold.Chemscore.Internal.Correction.Weighted>
   9.000000E+99

> <Gold.Protein.RotatedTorsions>
[ 6907 6896 6895 6894 ] final  148.13 input  -60.11 | X-H torsion
[ 7974 7965 7964 7962 ] final -125.80 input  175.53 | X-H torsion
[ 8008 7997 7996 7995 ] final -178.11 input   59.86 | X-H torsion
[ 10167 10162 10161 10158 ] final   39.27 input  -65.29 | X-H torsion
[ 10718 10713 10712 10709 ] final -164.31 input   66.30 | X-H torsion
[ 10763 10752 10751 10750 ] final   48.67 input  -60.55 | X-H torsion
[ 11005 11000 10999 10996 ] final   82.64 input  -57.11 | X-H torsion

> <Gold.Protein.ActiveResidues>
 VAL166  LYS551  ARG553  GLY616  TRP617  ASP618  TYR619  PRO620  LYS621  CYS622 
 ASP623  PHE694  ASN695  SER759  ASP760  ASP761  ALA762  ILE779  LEU786  VAL792 
 PHE793  MET794  SER795  GLU796  ALA797  LYS798  CYS799  TRP800  GLU811  SER814 

> <Gold.Protein.RotatedAtoms>
  152.1456  133.4490  159.4787 H   0  0  0  0  0  0  0  0  0  0  0  0  # atno 6907 bound_to 6896
  150.6890  134.2252  159.4422 H   0  0  0  0  0  0  0  0  0  0  0  0  # atno 6908 bound_to 6896
  152.0146  134.9857  160.0619 H   0  0  0  0  0  0  0  0  0  0  0  0  # atno 6909 bound_to 6896
  144.9938  140.7757  143.4538 H   0  0  0  0  0  0  0  0  0  0  0  0  # atno 7974 bound_to 7965
  156.0150  140.1248  157.0416 H   0  0  0  0  0  0  0  0  0  0  0  0  # atno 8008 bound_to 7997
  154.4290  140.1080  156.5952 H   0  0  0  0  0  0  0  0  0  0  0  0  # atno 8009 bound_to 7997
  155.6026  140.3470  155.4600 H   0  0  0  0  0  0  0  0  0  0  0  0  # atno 8010 bound_to 7997
  140.3856  144.1922  150.6130 H   0  0  0  0  0  0  0  0  0  0  0  0  # atno 10167 bound_to 10162
  156.6372  130.8954  151.2989 H   0  0  0  0  0  0  0  0  0  0  0  0  # atno 10718 bound_to 10713
  152.9790  135.5937  154.3963 H   0  0  0  0  0  0  0  0  0  0  0  0  # atno 10763 bound_to 10752
  154.3613  135.2767  155.2320 H   0  0  0  0  0  0  0  0  0  0  0  0  # atno 10764 bound_to 10752
  154.4316  135.6035  153.6127 H   0  0  0  0  0  0  0  0  0  0  0  0  # atno 10765 bound_to 10752
  139.9057  134.8086  156.2202 H   0  0  0  0  0  0  0  0  0  0  0  0  # atno 11005 bound_to 11000
  145.2249  139.2142  143.5074 LP  0  0  0  0  0  0  0  0  0  0  0  0  # atno 17320 bound_to 7965
  146.3437  140.2114  142.8590 LP  0  0  0  0  0  0  0  0  0  0  0  0  # atno 17321 bound_to 7965
  140.4893  143.2353  151.8842 LP  0  0  0  0  0  0  0  0  0  0  0  0  # atno 17342 bound_to 10162
  139.4792  144.5183  151.8836 LP  0  0  0  0  0  0  0  0  0  0  0  0  # atno 17343 bound_to 10162
  157.7182  130.9524  150.1335 LP  0  0  0  0  0  0  0  0  0  0  0  0  # atno 17370 bound_to 10713
  156.2188  130.3672  149.8581 LP  0  0  0  0  0  0  0  0  0  0  0  0  # atno 17371 bound_to 10713
  141.0410  133.6937  156.1599 LP  0  0  0  0  0  0  0  0  0  0  0  0  # atno 17394 bound_to 11000
  140.6955  134.4620  157.5588 LP  0  0  0  0  0  0  0  0  0  0  0  0  # atno 17395 bound_to 11000

$$$$
