AV-unprocessed.smi:261|AV-procd|sdf|1993|dock7
  -GOLD-   2262021183D 1   1.00000     0.00000
 Structure written by MMmdl.
 51 54  0  0  0  0  0  0  0  0  1 V2000
  146.5573  133.9863  152.5475 C   0  0  0  0  0  0  0  0  0  0  0  0
  147.9670  133.8584  152.4603 O   0  0  0  0  0  0  0  0  0  0  0  0
  148.6160  133.8583  153.7235 C   0  0  1  0  0  0  0  0  0  0  0  0
  150.1060  133.5161  153.6427 C   0  0  0  0  0  0  0  0  0  0  0  0
  150.7093  134.1565  154.9056 C   0  0  2  0  0  0  0  0  0  0  0  0
  150.7351  133.1613  156.0853 C   0  0  0  0  0  0  0  0  0  0  0  0
  149.5767  132.6841  156.5535 N   0  0  0  0  0  0  0  0  0  0  0  0
  151.8106  132.8323  156.5805 O   0  0  0  0  0  0  0  0  0  0  0  0
  149.8503  135.3221  155.1323 N   0  0  0  0  0  0  0  0  0  0  0  0
  150.2342  136.4607  155.7755 C   0  0  0  0  0  0  0  0  0  0  0  0
  150.8302  136.3300  156.9910 N   0  0  0  0  0  0  0  0  0  0  0  0
  151.2333  137.4024  157.6766 C   0  0  0  0  0  0  0  0  0  0  0  0
  151.1442  138.6882  157.3383 N   0  0  0  0  0  0  0  0  0  0  0  0
  150.5532  138.8353  156.1191 C   0  0  0  0  0  0  0  0  0  0  0  0
  150.0731  137.7902  155.2758 C   0  0  0  0  0  0  0  0  0  0  0  0
  149.5429  138.3469  154.1156 N   0  0  0  0  0  0  0  0  0  0  0  0
  149.6949  139.6334  154.2661 C   0  0  0  0  0  0  0  0  0  0  0  0
  150.2927  140.0137  155.4438 N   0  0  0  0  0  0  0  0  0  0  0  0
  150.5854  141.3681  155.8784 C   0  0  0  0  0  0  0  0  0  0  0  0
  150.4817  141.5282  157.4081 C   0  0  2  0  0  0  0  0  0  0  0  0
  149.3576  142.3321  157.7135 O   0  0  0  0  0  0  0  0  0  0  0  0
  151.7399  142.1748  158.0175 C   0  0  1  0  0  0  0  0  0  0  0  0
  151.9206  143.6545  157.6661 C   0  0  0  0  0  0  0  0  0  0  0  0
  152.7202  144.1617  158.8434 C   0  0  0  0  0  0  0  0  0  0  0  0
  152.0812  143.3930  159.9937 C   0  0  0  0  0  0  0  0  0  0  0  0
  151.6744  142.1436  159.4433 O   0  0  0  0  0  0  0  0  0  0  0  0
  148.6392  135.2659  154.3192 C   0  0  0  0  0  0  0  0  0  0  0  0
  148.1134  133.1843  154.4200 H   0  0  0  0  0  0  0  0  0  0  0  0
  151.7315  134.4603  154.6805 H   0  0  0  0  0  0  0  0  0  0  0  0
  146.1316  134.0064  151.5443 H   0  0  0  0  0  0  0  0  0  0  0  0
  146.2757  134.9127  153.0496 H   0  0  0  0  0  0  0  0  0  0  0  0
  146.1098  133.1479  153.0820 H   0  0  0  0  0  0  0  0  0  0  0  0
  150.2881  132.4434  153.5644 H   0  0  0  0  0  0  0  0  0  0  0  0
  150.5418  133.9829  152.7580 H   0  0  0  0  0  0  0  0  0  0  0  0
  149.5771  132.0317  157.3242 H   0  0  0  0  0  0  0  0  0  0  0  0
  148.7068  132.9777  156.1334 H   0  0  0  0  0  0  0  0  0  0  0  0
  151.6929  137.2007  158.6329 H   0  0  0  0  0  0  0  0  0  0  0  0
  149.3703  140.3432  153.5192 H   0  0  0  0  0  0  0  0  0  0  0  0
  151.5902  141.6200  155.5372 H   0  0  0  0  0  0  0  0  0  0  0  0
  149.9042  142.0544  155.3730 H   0  0  0  0  0  0  0  0  0  0  0  0
  150.3279  140.5485  157.8628 H   0  0  0  0  0  0  0  0  0  0  0  0
  149.2118  142.9287  156.9955 H   0  0  0  0  0  0  0  0  0  0  0  0
  152.6333  141.6236  157.7186 H   0  0  0  0  0  0  0  0  0  0  0  0
  152.4240  143.8063  156.7107 H   0  0  0  0  0  0  0  0  0  0  0  0
  150.9561  144.1632  157.6278 H   0  0  0  0  0  0  0  0  0  0  0  0
  153.7689  143.8803  158.7360 H   0  0  0  0  0  0  0  0  0  0  0  0
  152.6643  145.2433  158.9691 H   0  0  0  0  0  0  0  0  0  0  0  0
  152.7612  143.2575  160.8349 H   0  0  0  0  0  0  0  0  0  0  0  0
  151.1946  143.9164  160.3543 H   0  0  0  0  0  0  0  0  0  0  0  0
  148.7062  136.0156  153.5288 H   0  0  0  0  0  0  0  0  0  0  0  0
  147.7410  135.4639  154.9060 H   0  0  0  0  0  0  0  0  0  0  0  0
  1  2  1  0  0  0  0
  1 30  1  0  0  0  0
  1 31  1  0  0  0  0
  1 32  1  0  0  0  0
  2  3  1  0  0  0  0
  3 28  1  0  0  0  0
  3 27  1  0  0  0  0
  3  4  1  0  0  0  0
  4  5  1  0  0  0  0
  4 33  1  0  0  0  0
  4 34  1  0  0  0  0
  5 29  1  0  0  0  0
  5  6  1  0  0  0  0
  5  9  1  0  0  0  0
  6  7  1  0  0  0  0
  6  8  2  0  0  0  0
  7 35  1  0  0  0  0
  7 36  1  0  0  0  0
  9 10  1  0  0  0  0
  9 27  1  0  0  0  0
 10 15  1  0  0  0  0
 10 11  2  0  0  0  0
 11 12  1  0  0  0  0
 12 13  2  0  0  0  0
 12 37  1  0  0  0  0
 13 14  1  0  0  0  0
 14 18  1  0  0  0  0
 14 15  2  0  0  0  0
 15 16  1  0  0  0  0
 16 17  2  0  0  0  0
 17 18  1  0  0  0  0
 17 38  1  0  0  0  0
 18 19  1  0  0  0  0
 19 20  1  0  0  0  0
 19 39  1  0  0  0  0
 19 40  1  0  0  0  0
 20 21  1  0  0  0  0
 20 22  1  0  0  0  0
 20 41  1  0  0  0  0
 21 42  1  0  0  0  0
 22 26  1  0  0  0  0
 22 23  1  0  0  0  0
 22 43  1  0  0  0  0
 23 24  1  0  0  0  0
 23 44  1  0  0  0  0
 23 45  1  0  0  0  0
 24 25  1  0  0  0  0
 24 46  1  0  0  0  0
 24 47  1  0  0  0  0
 25 26  1  0  0  0  0
 25 48  1  0  0  0  0
 25 49  1  0  0  0  0
 27 50  1  0  0  0  0
 27 51  1  0  0  0  0
M  END
> <s_m_source_file>
AV-unprocessed.smi

> <i_m_source_file_index>
261

> <i_lp_mmshare_version>
43012

> <i_f3d_flags>
0

> <s_epik_input>
W0NIM11PW0NASF0xW0NIMl1bQ0BASF0oQyg9TylbTkgyXSlOKFtDSDJdMSljKG5bY0hdbjIpYyhjMjMpbltjSF1uM1tDSDJdW0NASF0oW09IXSlbQ0BASF00W0NIMl1bQ0gyXVtDSDJdTzQ=

> <s_epik_cmdline>
J2VwaWtfcHl0aG9uJywgJy1waCcsICc3LjAnLCAnLXRuJywgJzgnLCAnLW1hJywgJzIwMCcsICctbWV0YWxfYmluZGluZycsICctaW1hZScsICc8aW5maWxlLm1hZT4nLCAnLW9tYWUnLCAnPG91dGZpbGUubWFlPic=

> <r_lp_tautomer_probability>
1

> <r_epik_Ionization_Penalty>
0.000713824

> <r_epik_Ionization_Penalty_Charging>
0

> <r_epik_Ionization_Penalty_Neutral>
0.000713824

> <r_epik_State_Penalty>
0.000402132

> <r_epik_Charging_Adjusted_Penalty>
0.000402132

> <i_epik_Tot_Q>
0

> <i_epik_Tot_abs_Q>
0

> <r_epik_Metal_State_Penalty>
-0

> <b_epik_Metal_Only>
0

> <s_lp_Force_Field>
OPLS_2005

> <r_lp_Energy>
43.0256

> <b_lp_Chiralities_Consistent>
1

> <s_lp_Variant>
AV-unprocessed.smi:261-11

> <Gold.Version>
5.8.1

> <Gold.Id.Protein>
6NUR|6NUR_protein|mol2

> <Gold.PLP.Fitness>
43.4170

> <Gold.PLP.PLP>
-38.5817

> <Gold.PLP.part.hbond>
-2.0000

> <Gold.PLP.part.metal>
0.0000

> <Gold.PLP.part.buried>
-6.0515

> <Gold.PLP.part.nonpolar>
-31.9508

> <Gold.PLP.part.repulsive>
1.2684

> <Gold.PLP.ligand.clash>
0.0000

> <Gold.PLP.ligand.torsion>
1.9596

> <Gold.PLP.Chemscore.Hbond>
1.8800

> <Gold.PLP.Chemscore.CHOScore>
1.0000

> <Gold.PLP.Chemscore.Metal>
0.0000

> <Gold.Chemscore.Hbonds>
donor molecule, donor type, donor heavy atom, donor atom, acceptor molecule, acceptor atom, score
      L1  H    21    42       P1  8028  0.44
      L1  C    17    38       P1  7957  0.90

> <Gold.PLP.Chemscore.Internal.Correction>
0.1146

> <Gold.Rescore>
     Score         DG    S(hbond)    S(metal)    S(lipo)     H(rot)  DE(clash)    DE(int)     intcor
     10.28     -13.31       1.94        0.00      81.10       3.18       0.10       2.94       ----

> <Gold.Chemscore.Fitness>
10.2780

> <Gold.Chemscore.DG>
-13.3131

> <Gold.Chemscore.ZeroCoef>
-5.4800

> <Gold.Chemscore.Hbond>
1.9440

> <Gold.Chemscore.Metal>
0.0000

> <Gold.Chemscore.Lipo>
81.1018

> <Gold.Chemscore.Internal_Hbond>
0.0000

> <Gold.Chemscore.DEClash>
0.0981

> <Gold.Chemscore.DEInternal>
2.9370

> <Gold.Chemscore.Rot>
3.1831

> <Gold.Chemscore.Internal.Correction>
   9.000000E+99

> <Gold.Chemscore.Hbonds>
donor molecule, donor type, donor heavy atom, donor atom, acceptor molecule, acceptor atom, score
      L1  H    21    42       P1  8028  0.42

> <Gold.Chemscore.Hbond.Weighted>
-6.4928

> <Gold.Chemscore.Metal.Weighted>
-0.0000

> <Gold.Chemscore.Lipo.Weighted>
-9.4889

> <Gold.Chemscore.Internal_Hbond.Weighted>
0.0000

> <Gold.Chemscore.DEClash.Weighted>
0.0981

> <Gold.Chemscore.DEInternal.Weighted>
2.9370

> <Gold.Chemscore.Rot.Weighted>
8.1486

> <Gold.Chemscore.Internal.Correction.Weighted>
   9.000000E+99

> <Gold.Protein.RotatedTorsions>
[ 6907 6896 6895 6894 ] final  -32.37 input  -60.11 | X-H torsion
[ 7974 7965 7964 7962 ] final  -83.70 input  175.53 | X-H torsion
[ 8008 7997 7996 7995 ] final   62.71 input   59.86 | X-H torsion
[ 10167 10162 10161 10158 ] final  -74.63 input  -65.29 | X-H torsion
[ 10718 10713 10712 10709 ] final -118.95 input   66.30 | X-H torsion
[ 10763 10752 10751 10750 ] final  109.87 input  -60.55 | X-H torsion
[ 11005 11000 10999 10996 ] final -172.47 input  -57.11 | X-H torsion

> <Gold.Protein.ActiveResidues>
 VAL166  LYS551  ARG553  GLY616  TRP617  ASP618  TYR619  PRO620  LYS621  CYS622 
 ASP623  PHE694  ASN695  SER759  ASP760  ASP761  ALA762  ILE779  LEU786  VAL792 
 PHE793  MET794  SER795  GLU796  ALA797  LYS798  CYS799  TRP800  GLU811  SER814 

> <Gold.Protein.RotatedAtoms>
  151.0796  134.9850  159.8349 H   0  0  0  0  0  0  0  0  0  0  0  0  # atno 6907 bound_to 6896
  152.5418  134.2198  159.8793 H   0  0  0  0  0  0  0  0  0  0  0  0  # atno 6908 bound_to 6896
  151.2227  133.4450  159.2634 H   0  0  0  0  0  0  0  0  0  0  0  0  # atno 6909 bound_to 6896
  145.5165  140.9535  143.1678 H   0  0  0  0  0  0  0  0  0  0  0  0  # atno 7974 bound_to 7965
  155.6186  140.3495  155.4645 H   0  0  0  0  0  0  0  0  0  0  0  0  # atno 8008 bound_to 7997
  156.0097  140.1230  157.0490 H   0  0  0  0  0  0  0  0  0  0  0  0  # atno 8009 bound_to 7997
  154.4276  140.1084  156.5798 H   0  0  0  0  0  0  0  0  0  0  0  0  # atno 8010 bound_to 7997
  140.5011  143.2361  151.7751 H   0  0  0  0  0  0  0  0  0  0  0  0  # atno 10167 bound_to 10162
  156.1145  130.6275  150.9356 H   0  0  0  0  0  0  0  0  0  0  0  0  # atno 10718 bound_to 10713
  153.4408  135.3766  155.2227 H   0  0  0  0  0  0  0  0  0  0  0  0  # atno 10763 bound_to 10752
  154.8754  135.3862  154.4155 H   0  0  0  0  0  0  0  0  0  0  0  0  # atno 10764 bound_to 10752
  153.4700  135.7087  153.6062 H   0  0  0  0  0  0  0  0  0  0  0  0  # atno 10765 bound_to 10752
  140.4966  134.5934  157.4973 H   0  0  0  0  0  0  0  0  0  0  0  0  # atno 11005 bound_to 11000
  144.7699  139.6759  143.7199 LP  0  0  0  0  0  0  0  0  0  0  0  0  # atno 17320 bound_to 7965
  146.2133  139.5505  142.9666 LP  0  0  0  0  0  0  0  0  0  0  0  0  # atno 17321 bound_to 7965
  139.4872  144.4521  151.9642 LP  0  0  0  0  0  0  0  0  0  0  0  0  # atno 17342 bound_to 10162
  140.3610  144.2973  150.5933 LP  0  0  0  0  0  0  0  0  0  0  0  0  # atno 17343 bound_to 10162
  157.6327  131.0919  150.8409 LP  0  0  0  0  0  0  0  0  0  0  0  0  # atno 17370 bound_to 10713
  156.8514  130.5082  149.5311 LP  0  0  0  0  0  0  0  0  0  0  0  0  # atno 17371 bound_to 10713
  139.9738  134.7249  155.9990 LP  0  0  0  0  0  0  0  0  0  0  0  0  # atno 17394 bound_to 11000
  141.1457  133.6556  156.3860 LP  0  0  0  0  0  0  0  0  0  0  0  0  # atno 17395 bound_to 11000

$$$$
