AV-unprocessed.smi:2246|AV-procd|sdf|9085|dock3
  -GOLD-   2272012283D 1   1.00000     0.00000
 Structure written by MMmdl.
 28 29  0  0  0  0  0  0  0  0  2 V2000
  149.6144  141.2691  158.6734 O   0  0  0  0  0  0  0  0  0  0  0  0
  150.2372  142.0913  158.0023 C   0  0  0  0  0  0  0  0  0  0  0  0
  150.1329  142.1620  156.4798 C   0  0  2  0  0  0  0  0  0  0  0  0
  150.6422  140.9160  155.8562 N   0  0  0  0  0  0  0  0  0  0  0  0
  151.4634  140.0565  156.6179 C   0  0  0  0  0  0  0  0  0  0  0  0
  151.9309  138.8894  156.1363 C   0  0  0  0  0  0  0  0  0  0  0  0
  152.9314  137.8649  157.1030 Cl  0  0  0  0  0  0  0  0  0  0  0  0
  151.5576  138.5110  154.7769 C   0  0  0  0  0  0  0  0  0  0  0  0
  151.9836  137.4611  154.2976 O   0  0  0  0  0  0  0  0  0  0  0  0
  150.7347  139.3547  154.0895 N   0  5  0  0  0  0  0  0  0  0  0  0
  150.2577  140.5319  154.5996 C   0  0  0  0  0  0  0  0  0  0  0  0
  149.4971  141.2548  153.9560 O   0  0  0  0  0  0  0  0  0  0  0  0
  150.9856  143.4046  156.1406 C   0  0  0  0  0  0  0  0  0  0  0  0
  151.6449  143.8631  157.4483 C   0  0  0  0  0  0  0  0  0  0  0  0
  151.0603  143.0297  158.4836 N   0  0  0  0  0  0  0  0  0  0  0  0
  151.3963  143.2488  159.8894 C   0  0  0  0  0  0  0  0  0  0  0  0
  152.7216  142.5742  160.2900 C   0  0  0  0  0  0  0  0  0  0  0  0
  153.6985  143.0491  159.5183 F   0  0  0  0  0  0  0  0  0  0  0  0
  153.0296  142.8257  161.5620 F   0  0  0  0  0  0  0  0  0  0  0  0
  152.6436  141.2554  160.1111 F   0  0  0  0  0  0  0  0  0  0  0  0
  149.0951  142.3757  156.2206 H   0  0  0  0  0  0  0  0  0  0  0  0
  151.6827  140.3925  157.6199 H   0  0  0  0  0  0  0  0  0  0  0  0
  151.7215  143.2284  155.3553 H   0  0  0  0  0  0  0  0  0  0  0  0
  150.3332  144.1959  155.7689 H   0  0  0  0  0  0  0  0  0  0  0  0
  152.7242  143.7093  157.4176 H   0  0  0  0  0  0  0  0  0  0  0  0
  151.4560  144.9195  157.6426 H   0  0  0  0  0  0  0  0  0  0  0  0
  151.4622  144.3218  160.0749 H   0  0  0  0  0  0  0  0  0  0  0  0
  150.5847  142.8821  160.5200 H   0  0  0  0  0  0  0  0  0  0  0  0
  1  2  2  0  0  0  0
  2 15  1  0  0  0  0
  2  3  1  0  0  0  0
  3  4  1  0  0  0  0
  3 13  1  0  0  0  0
  3 21  1  0  0  0  0
  4 11  1  0  0  0  0
  4  5  1  0  0  0  0
  5  6  2  0  0  0  0
  5 22  1  0  0  0  0
  6  7  1  0  0  0  0
  6  8  1  0  0  0  0
  8  9  2  0  0  0  0
  8 10  1  0  0  0  0
 10 11  1  0  0  0  0
 11 12  2  0  0  0  0
 13 14  1  0  0  0  0
 13 23  1  0  0  0  0
 13 24  1  0  0  0  0
 14 15  1  0  0  0  0
 14 25  1  0  0  0  0
 14 26  1  0  0  0  0
 15 16  1  0  0  0  0
 16 17  1  0  0  0  0
 16 27  1  0  0  0  0
 16 28  1  0  0  0  0
 17 18  1  0  0  0  0
 17 19  1  0  0  0  0
 17 20  1  0  0  0  0
M  CHG  1  10  -1
M  END
> <s_m_source_file>
AV-unprocessed.smi

> <i_m_source_file_index>
2246

> <i_lp_mmshare_version>
43012

> <i_f3d_flags>
0

> <s_epik_input>
RkMoRikoRilbQ0gyXU4xW0NIMl1bQ0gyXVtDQEBIXShDMT1PKW4yW2NIXWMoQ2wpYyg9TylbbkhdYzI9Tw==

> <s_epik_cmdline>
J2VwaWtfcHl0aG9uJywgJy1waCcsICc3LjAnLCAnLXRuJywgJzgnLCAnLW1hJywgJzIwMCcsICctbWV0YWxfYmluZGluZycsICctaW1hZScsICc8aW5maWxlLm1hZT4nLCAnLW9tYWUnLCAnPG91dGZpbGUubWFlPic=

> <r_epik_Ionization_Penalty>
1.33611

> <r_epik_Ionization_Penalty_Charging>
6.88308e-09

> <r_epik_Ionization_Penalty_Neutral>
1.33611

> <r_epik_State_Penalty>
1.41295

> <r_epik_Charging_Adjusted_Penalty>
1.41295

> <i_epik_Tot_Q>
-1

> <i_epik_Tot_abs_Q>
1

> <r_epik_Metal_State_Penalty>
0.00581136

> <b_epik_Metal_Only>
0

> <s_lp_Force_Field>
OPLS_2005

> <r_lp_Energy>
31.0989

> <b_lp_Chiralities_Consistent>
1

> <s_lp_Variant>
AV-unprocessed.smi:2246-4

> <Gold.Version>
5.8.1

> <Gold.Id.Protein>
6NUR|6NUR_protein|mol2

> <Gold.PLP.Fitness>
38.2504

> <Gold.PLP.PLP>
-34.9510

> <Gold.PLP.part.hbond>
-4.8155

> <Gold.PLP.part.metal>
0.0000

> <Gold.PLP.part.buried>
5.5975

> <Gold.PLP.part.nonpolar>
-35.5215

> <Gold.PLP.part.repulsive>
1.0168

> <Gold.PLP.ligand.clash>
0.0138

> <Gold.PLP.ligand.torsion>
0.9607

> <Gold.PLP.Chemscore.Hbond>
1.6971

> <Gold.PLP.Chemscore.CHOScore>
0.0000

> <Gold.PLP.Chemscore.Metal>
0.0000

> <Gold.Chemscore.Hbonds>
donor molecule, donor type, donor heavy atom, donor atom, acceptor molecule, acceptor atom, score
      P1  H  8011  8017       L1    12  0.80
      P1  H 10752 10765       L1     9  0.93

> <Gold.PLP.Chemscore.Internal.Correction>
0.1435

> <Gold.Rescore>
     Score         DG    S(hbond)    S(metal)    S(lipo)     H(rot)  DE(clash)    DE(int)     intcor
      9.02     -14.71       1.61        0.00      64.54       1.45       3.67       2.01       ----

> <Gold.Chemscore.Fitness>
9.0224

> <Gold.Chemscore.DG>
-14.7057

> <Gold.Chemscore.ZeroCoef>
-5.4800

> <Gold.Chemscore.Hbond>
1.6108

> <Gold.Chemscore.Metal>
0.0000

> <Gold.Chemscore.Lipo>
64.5434

> <Gold.Chemscore.Internal_Hbond>
0.0000

> <Gold.Chemscore.DEClash>
3.6709

> <Gold.Chemscore.DEInternal>
2.0124

> <Gold.Chemscore.Rot>
1.4476

> <Gold.Chemscore.Internal.Correction>
   9.000000E+99

> <Gold.Chemscore.Hbonds>
donor molecule, donor type, donor heavy atom, donor atom, acceptor molecule, acceptor atom, score
      P1  H  8011  8017       L1    12  0.75
      P1  H 10752 10765       L1     9  0.84

> <Gold.Chemscore.Hbond.Weighted>
-5.3801

> <Gold.Chemscore.Metal.Weighted>
-0.0000

> <Gold.Chemscore.Lipo.Weighted>
-7.5516

> <Gold.Chemscore.Internal_Hbond.Weighted>
0.0000

> <Gold.Chemscore.DEClash.Weighted>
3.6709

> <Gold.Chemscore.DEInternal.Weighted>
2.0124

> <Gold.Chemscore.Rot.Weighted>
3.7059

> <Gold.Chemscore.Internal.Correction.Weighted>
   9.000000E+99

> <Gold.Protein.RotatedTorsions>
[ 6907 6896 6895 6894 ] final    0.45 input  -60.11 | X-H torsion
[ 7974 7965 7964 7962 ] final  -99.40 input  175.53 | X-H torsion
[ 8008 7997 7996 7995 ] final  175.26 input   59.86 | X-H torsion
[ 10167 10162 10161 10158 ] final  -92.82 input  -65.29 | X-H torsion
[ 10718 10713 10712 10709 ] final  130.73 input   66.30 | X-H torsion
[ 10763 10752 10751 10750 ] final  157.88 input  -60.55 | X-H torsion
[ 11005 11000 10999 10996 ] final  -75.49 input  -57.11 | X-H torsion

> <Gold.Protein.ActiveResidues>
 VAL166  LYS551  ARG553  GLY616  TRP617  ASP618  TYR619  PRO620  LYS621  CYS622 
 ASP623  PHE694  ASN695  SER759  ASP760  ASP761  ALA762  ILE779  LEU786  VAL792 
 PHE793  MET794  SER795  GLU796  ALA797  LYS798  CYS799  TRP800  GLU811  SER814 

> <Gold.Protein.RotatedAtoms>
  151.5767  135.1060  160.0007 H   0  0  0  0  0  0  0  0  0  0  0  0  # atno 6907 bound_to 6896
  152.4374  133.7382  159.6636 H   0  0  0  0  0  0  0  0  0  0  0  0  # atno 6908 bound_to 6896
  150.8274  133.8079  159.3136 H   0  0  0  0  0  0  0  0  0  0  0  0  # atno 6909 bound_to 6896
  145.3080  140.9393  143.2785 H   0  0  0  0  0  0  0  0  0  0  0  0  # atno 7974 bound_to 7965
  156.0889  140.1413  156.9617 H   0  0  0  0  0  0  0  0  0  0  0  0  # atno 8008 bound_to 7997
  154.4630  140.0936  156.6991 H   0  0  0  0  0  0  0  0  0  0  0  0  # atno 8009 bound_to 7997
  155.4952  140.3449  155.4364 H   0  0  0  0  0  0  0  0  0  0  0  0  # atno 8010 bound_to 7997
  140.3309  143.2995  151.9943 H   0  0  0  0  0  0  0  0  0  0  0  0  # atno 10167 bound_to 10162
  157.5035  131.1095  150.9394 H   0  0  0  0  0  0  0  0  0  0  0  0  # atno 10718 bound_to 10713
  154.2072  135.2787  155.2970 H   0  0  0  0  0  0  0  0  0  0  0  0  # atno 10763 bound_to 10752
  154.5807  135.5590  153.7186 H   0  0  0  0  0  0  0  0  0  0  0  0  # atno 10764 bound_to 10752
  153.0073  135.6344  154.2211 H   0  0  0  0  0  0  0  0  0  0  0  0  # atno 10765 bound_to 10752
  141.1646  133.6948  156.7524 H   0  0  0  0  0  0  0  0  0  0  0  0  # atno 11005 bound_to 11000
  144.9039  139.4614  143.6619 LP  0  0  0  0  0  0  0  0  0  0  0  0  # atno 17320 bound_to 7965
  146.3128  139.7808  142.9006 LP  0  0  0  0  0  0  0  0  0  0  0  0  # atno 17321 bound_to 7965
  139.4857  144.6236  151.7208 LP  0  0  0  0  0  0  0  0  0  0  0  0  # atno 17342 bound_to 10162
  140.5398  144.0597  150.6084 LP  0  0  0  0  0  0  0  0  0  0  0  0  # atno 17343 bound_to 10162
  157.0058  130.5617  149.5316 LP  0  0  0  0  0  0  0  0  0  0  0  0  # atno 17370 bound_to 10713
  156.0243  130.5338  150.8364 LP  0  0  0  0  0  0  0  0  0  0  0  0  # atno 17371 bound_to 10713
  140.2594  134.8479  157.3744 LP  0  0  0  0  0  0  0  0  0  0  0  0  # atno 17394 bound_to 11000
  140.1626  134.4710  155.7884 LP  0  0  0  0  0  0  0  0  0  0  0  0  # atno 17395 bound_to 11000

$$$$
