AV-unprocessed.smi:140|AV-procd|sdf|1185|dock1
  -GOLD-   2262018333D 1   1.00000     0.00000
 Structure written by MMmdl.
 52 55  0  0  0  0  0  0  0  0  1 V2000
  150.0256  142.3827  157.5701 C   0  0  0  0  0  0  0  0  0  0  0  0
  150.4197  141.0383  158.0919 C   0  0  0  0  0  0  0  0  0  0  0  0
  149.7141  139.8719  158.1134 C   0  0  0  0  0  0  0  0  0  0  0  0
  150.5168  138.8671  158.7223 C   0  0  0  0  0  0  0  0  0  0  0  0
  150.1854  137.4375  158.9481 C   0  0  0  0  0  0  0  0  0  0  0  0
  151.0232  136.5917  159.2654 O   0  0  0  0  0  0  0  0  0  0  0  0
  148.7067  137.0551  158.7490 C   0  0  0  0  0  0  0  0  0  0  0  0
  148.3493  135.7987  159.3960 N   0  0  0  0  0  0  0  0  0  0  0  0
  147.7217  135.8591  160.6655 C   0  0  0  0  0  0  0  0  0  0  0  0
  147.4759  136.9290  161.2251 O   0  0  0  0  0  0  0  0  0  0  0  0
  147.3861  134.5595  161.2372 C   0  0  0  0  0  0  0  0  0  0  0  0
  146.7945  134.4969  162.4421 F   0  0  0  0  0  0  0  0  0  0  0  0
  147.6576  133.4137  160.5755 C   0  0  0  0  0  0  0  0  0  0  0  0
  148.2609  133.3861  159.3288 N   0  0  0  0  0  0  0  0  0  0  0  0
  148.5394  132.0899  158.6002 C   0  0  2  0  0  0  0  0  0  0  0  0
  147.9847  130.8944  159.3946 C   0  0  0  0  0  0  0  0  0  0  0  0
  149.1584  129.9369  159.4120 C   0  0  0  0  0  0  0  0  0  0  0  0
  150.3419  130.8930  159.3864 C   0  0  0  0  0  0  0  0  0  0  0  0
  149.9206  131.9011  158.4762 O   0  0  0  0  0  0  0  0  0  0  0  0
  148.6219  134.5968  158.6997 C   0  0  0  0  0  0  0  0  0  0  0  0
  149.1424  134.5955  157.5813 O   0  0  0  0  0  0  0  0  0  0  0  0
  151.7083  139.4559  159.0809 C   0  0  0  0  0  0  0  0  0  0  0  0
  152.9167  138.8961  159.7790 C   0  0  0  0  0  0  0  0  0  0  0  0
  151.6591  140.7888  158.6687 N   0  0  0  0  0  0  0  0  0  0  0  0
  152.7253  141.7764  158.8210 C   0  0  0  0  0  0  0  0  0  0  0  0
  152.4292  142.8662  159.8095 C   0  0  0  0  0  0  0  0  0  0  0  0
  152.4516  142.7486  161.1761 C   0  0  0  0  0  0  0  0  0  0  0  0
  152.1342  143.9616  161.8549 C   0  0  0  0  0  0  0  0  0  0  0  0
  151.8714  144.9965  160.9982 C   0  0  0  0  0  0  0  0  0  0  0  0
  152.0123  144.4998  159.3350 S   0  0  0  0  0  0  0  0  0  0  0  0
  148.9729  142.3959  157.2872 H   0  0  0  0  0  0  0  0  0  0  0  0
  150.6108  142.6454  156.6888 H   0  0  0  0  0  0  0  0  0  0  0  0
  150.1760  143.1553  158.3246 H   0  0  0  0  0  0  0  0  0  0  0  0
  148.7141  139.7541  157.7225 H   0  0  0  0  0  0  0  0  0  0  0  0
  148.0452  137.8318  159.1362 H   0  0  0  0  0  0  0  0  0  0  0  0
  148.4653  136.9727  157.6884 H   0  0  0  0  0  0  0  0  0  0  0  0
  147.3821  132.4884  161.0572 H   0  0  0  0  0  0  0  0  0  0  0  0
  148.1061  132.2045  157.6049 H   0  0  0  0  0  0  0  0  0  0  0  0
  147.7311  131.2021  160.4106 H   0  0  0  0  0  0  0  0  0  0  0  0
  147.0960  130.4831  158.9159 H   0  0  0  0  0  0  0  0  0  0  0  0
  149.1603  129.2776  160.2804 H   0  0  0  0  0  0  0  0  0  0  0  0
  149.1549  129.3208  158.5118 H   0  0  0  0  0  0  0  0  0  0  0  0
  150.5120  131.3246  160.3734 H   0  0  0  0  0  0  0  0  0  0  0  0
  151.2640  130.4148  159.0557 H   0  0  0  0  0  0  0  0  0  0  0  0
  152.6277  138.2082  160.5728 H   0  0  0  0  0  0  0  0  0  0  0  0
  153.5189  139.6685  160.2552 H   0  0  0  0  0  0  0  0  0  0  0  0
  153.5516  138.3552  159.0773 H   0  0  0  0  0  0  0  0  0  0  0  0
  153.6432  141.2596  159.1017 H   0  0  0  0  0  0  0  0  0  0  0  0
  152.9416  142.2195  157.8494 H   0  0  0  0  0  0  0  0  0  0  0  0
  152.6850  141.8388  161.7093 H   0  0  0  0  0  0  0  0  0  0  0  0
  152.1102  144.0315  162.9325 H   0  0  0  0  0  0  0  0  0  0  0  0
  151.6061  146.0150  161.2402 H   0  0  0  0  0  0  0  0  0  0  0  0
  1  2  1  0  0  0  0
  1 31  1  0  0  0  0
  1 32  1  0  0  0  0
  1 33  1  0  0  0  0
  2 24  1  0  0  0  0
  2  3  2  0  0  0  0
  3  4  1  0  0  0  0
  3 34  1  0  0  0  0
  4  5  1  0  0  0  0
  4 22  2  0  0  0  0
  5  6  2  0  0  0  0
  5  7  1  0  0  0  0
  7  8  1  0  0  0  0
  7 35  1  0  0  0  0
  7 36  1  0  0  0  0
  8 20  1  0  0  0  0
  8  9  1  0  0  0  0
  9 10  2  0  0  0  0
  9 11  1  0  0  0  0
 11 12  1  0  0  0  0
 11 13  2  0  0  0  0
 13 14  1  0  0  0  0
 13 37  1  0  0  0  0
 14 15  1  0  0  0  0
 14 20  1  0  0  0  0
 15 19  1  0  0  0  0
 15 16  1  0  0  0  0
 15 38  1  0  0  0  0
 16 17  1  0  0  0  0
 16 39  1  0  0  0  0
 16 40  1  0  0  0  0
 17 18  1  0  0  0  0
 17 41  1  0  0  0  0
 17 42  1  0  0  0  0
 18 19  1  0  0  0  0
 18 43  1  0  0  0  0
 18 44  1  0  0  0  0
 20 21  2  0  0  0  0
 22 23  1  0  0  0  0
 22 24  1  0  0  0  0
 23 45  1  0  0  0  0
 23 46  1  0  0  0  0
 23 47  1  0  0  0  0
 24 25  1  0  0  0  0
 25 26  1  0  0  0  0
 25 48  1  0  0  0  0
 25 49  1  0  0  0  0
 26 30  1  0  0  0  0
 26 27  2  0  0  0  0
 27 28  1  0  0  0  0
 27 50  1  0  0  0  0
 28 29  2  0  0  0  0
 28 51  1  0  0  0  0
 29 30  1  0  0  0  0
 29 52  1  0  0  0  0
M  END
> <s_m_source_file>
AV-unprocessed.smi

> <i_m_source_file_index>
140

> <i_lp_mmshare_version>
43012

> <i_f3d_flags>
0

> <s_epik_input>
czFbY0hdW2NIXVtjSF1jMVtDSDJdbjJjKFtDSDNdKWMoW2NIXWMyW0NIM10pQyg9TylbQ0gyXW4zYyg9TyljKEYpW2NIXW4oYzM9TylbQ0BASF00W0NIMl1bQ0gyXVtDSDJdTzQ=

> <s_epik_cmdline>
J2VwaWtfcHl0aG9uJywgJy1waCcsICc3LjAnLCAnLXRuJywgJzgnLCAnLW1hJywgJzIwMCcsICctbWV0YWxfYmluZGluZycsICctaW1hZScsICc8aW5maWxlLm1hZT4nLCAnLW9tYWUnLCAnPG91dGZpbGUubWFlPic=

> <r_lp_tautomer_probability>
1

> <r_epik_Ionization_Penalty>
5.024e-09

> <r_epik_Ionization_Penalty_Charging>
5.01743e-09

> <r_epik_Ionization_Penalty_Neutral>
6.5712e-12

> <r_epik_State_Penalty>
-0

> <r_epik_Charging_Adjusted_Penalty>
5.01743e-09

> <i_epik_Tot_Q>
0

> <i_epik_Tot_abs_Q>
0

> <r_epik_Metal_State_Penalty>
-0

> <b_epik_Metal_Only>
0

> <s_epik_Chemistry_Notes>
This compound contains an acetal/aminal-like group ( X-CH(R)-Y where X, Y are N, S, or O) that may be acid/base labile, releasing an aldehyde.

> <s_lp_Force_Field>
OPLS_2005

> <r_lp_Energy>
39.7817

> <b_lp_Chiralities_Consistent>
1

> <s_lp_Variant>
AV-unprocessed.smi:140-1

> <Gold.Version>
5.8.1

> <Gold.Id.Protein>
6NUR|6NUR_protein|mol2

> <Gold.PLP.Fitness>
62.4176

> <Gold.PLP.PLP>
-52.6268

> <Gold.PLP.part.hbond>
-4.0000

> <Gold.PLP.part.metal>
0.0000

> <Gold.PLP.part.buried>
-5.3608

> <Gold.PLP.part.nonpolar>
-42.4086

> <Gold.PLP.part.repulsive>
0.0000

> <Gold.PLP.ligand.clash>
0.0000

> <Gold.PLP.ligand.torsion>
0.9802

> <Gold.PLP.Chemscore.Hbond>
3.8381

> <Gold.PLP.Chemscore.CHOScore>
0.0000

> <Gold.PLP.Chemscore.Metal>
0.0000

> <Gold.Chemscore.Hbonds>
donor molecule, donor type, donor heavy atom, donor atom, acceptor molecule, acceptor atom, score
      P1  H  6896  6908       L1    19  0.83
      P1  H  6896  6909       L1     6  1.00
      P1  H  6931  6943       L1    10  0.70
      P1  H  6934  6947       L1    10  0.73

> <Gold.PLP.Chemscore.Internal.Correction>
0.2369

> <Gold.Rescore>
     Score         DG    S(hbond)    S(metal)    S(lipo)     H(rot)  DE(clash)    DE(int)     intcor
     20.68     -23.27       2.55        0.00     120.25       1.87       0.08       2.51       ----

> <Gold.Chemscore.Fitness>
20.6801

> <Gold.Chemscore.DG>
-23.2701

> <Gold.Chemscore.ZeroCoef>
-5.4800

> <Gold.Chemscore.Hbond>
2.5484

> <Gold.Chemscore.Metal>
0.0000

> <Gold.Chemscore.Lipo>
120.2477

> <Gold.Chemscore.Internal_Hbond>
0.0000

> <Gold.Chemscore.DEClash>
0.0751

> <Gold.Chemscore.DEInternal>
2.5149

> <Gold.Chemscore.Rot>
1.8713

> <Gold.Chemscore.Internal.Correction>
   9.000000E+99

> <Gold.Chemscore.Hbonds>
donor molecule, donor type, donor heavy atom, donor atom, acceptor molecule, acceptor atom, score
      P1  H  6896  6908       L1    19  0.16
      P1  H  6896  6909       L1     6  0.98
      P1  H  6931  6943       L1    10  0.64
      P1  H  6934  6947       L1    10  0.70

> <Gold.Chemscore.Hbond.Weighted>
-8.5116

> <Gold.Chemscore.Metal.Weighted>
-0.0000

> <Gold.Chemscore.Lipo.Weighted>
-14.0690

> <Gold.Chemscore.Internal_Hbond.Weighted>
0.0000

> <Gold.Chemscore.DEClash.Weighted>
0.0751

> <Gold.Chemscore.DEInternal.Weighted>
2.5149

> <Gold.Chemscore.Rot.Weighted>
4.7905

> <Gold.Chemscore.Internal.Correction.Weighted>
   9.000000E+99

> <Gold.Protein.RotatedTorsions>
[ 6907 6896 6895 6894 ] final  103.18 input  -60.11 | X-H torsion
[ 7974 7965 7964 7962 ] final -145.58 input  175.53 | X-H torsion
[ 8008 7997 7996 7995 ] final  174.61 input   59.86 | X-H torsion
[ 10167 10162 10161 10158 ] final  -12.65 input  -65.29 | X-H torsion
[ 10718 10713 10712 10709 ] final  -28.53 input   66.30 | X-H torsion
[ 10763 10752 10751 10750 ] final   92.43 input  -60.55 | X-H torsion
[ 11005 11000 10999 10996 ] final  134.46 input  -57.11 | X-H torsion

> <Gold.Protein.ActiveResidues>
 VAL166  LYS551  ARG553  GLY616  TRP617  ASP618  TYR619  PRO620  LYS621  CYS622 
 ASP623  PHE694  ASN695  SER759  ASP760  ASP761  ALA762  ILE779  LEU786  VAL792 
 PHE793  MET794  SER795  GLU796  ALA797  LYS798  CYS799  TRP800  GLU811  SER814 

> <Gold.Protein.RotatedAtoms>
  152.5303  133.9865  159.7830 H   0  0  0  0  0  0  0  0  0  0  0  0  # atno 6907 bound_to 6896
  151.0109  133.5958  159.2690 H   0  0  0  0  0  0  0  0  0  0  0  0  # atno 6908 bound_to 6896
  151.3033  135.0781  159.9300 H   0  0  0  0  0  0  0  0  0  0  0  0  # atno 6909 bound_to 6896
  144.8217  140.5565  143.5574 H   0  0  0  0  0  0  0  0  0  0  0  0  # atno 7974 bound_to 7965
  156.0956  140.1430  156.9535 H   0  0  0  0  0  0  0  0  0  0  0  0  # atno 8008 bound_to 7997
  154.4669  140.0923  156.7090 H   0  0  0  0  0  0  0  0  0  0  0  0  # atno 8009 bound_to 7997
  155.4846  140.3446  155.4347 H   0  0  0  0  0  0  0  0  0  0  0  0  # atno 8010 bound_to 7997
  140.7166  143.5510  150.9301 H   0  0  0  0  0  0  0  0  0  0  0  0  # atno 10167 bound_to 10162
  156.4241  130.4432  149.7163 H   0  0  0  0  0  0  0  0  0  0  0  0  # atno 10718 bound_to 10713
  153.2191  135.4362  155.0468 H   0  0  0  0  0  0  0  0  0  0  0  0  # atno 10763 bound_to 10752
  154.8240  135.3352  154.6955 H   0  0  0  0  0  0  0  0  0  0  0  0  # atno 10764 bound_to 10752
  153.7388  135.7006  153.5028 H   0  0  0  0  0  0  0  0  0  0  0  0  # atno 10765 bound_to 10752
  139.9916  134.9513  156.9869 H   0  0  0  0  0  0  0  0  0  0  0  0  # atno 11005 bound_to 11000
  145.5090  139.1480  143.3615 LP  0  0  0  0  0  0  0  0  0  0  0  0  # atno 17320 bound_to 7965
  146.2523  140.5230  142.8888 LP  0  0  0  0  0  0  0  0  0  0  0  0  # atno 17321 bound_to 7965
  139.9234  143.6579  152.3092 LP  0  0  0  0  0  0  0  0  0  0  0  0  # atno 17342 bound_to 10162
  139.7004  144.7636  151.1283 LP  0  0  0  0  0  0  0  0  0  0  0  0  # atno 17343 bound_to 10162
  156.4092  130.7713  151.2726 LP  0  0  0  0  0  0  0  0  0  0  0  0  # atno 17370 bound_to 10713
  157.7508  131.0216  150.3759 LP  0  0  0  0  0  0  0  0  0  0  0  0  # atno 17371 bound_to 10713
  140.4897  134.1205  155.7230 LP  0  0  0  0  0  0  0  0  0  0  0  0  # atno 17394 bound_to 11000
  141.1570  133.8863  157.1949 LP  0  0  0  0  0  0  0  0  0  0  0  0  # atno 17395 bound_to 11000

$$$$
