AV-unprocessed.smi:2676|AV-procd|sdf|10364|dock5
  -GOLD-   2272014393D 1   1.00000     0.00000
 Structure written by MMmdl.
 40 41  0  0  0  0  0  0  0  0  1 V2000
  147.2175  141.5155  154.1293 C   0  0  0  0  0  0  0  0  0  0  0  0
  148.2451  141.1417  154.9059 C   0  0  0  0  0  0  0  0  0  0  0  0
  149.3465  142.0727  155.3807 C   0  0  0  0  0  0  0  0  0  0  0  0
  150.3809  141.3430  156.1480 N   0  0  0  0  0  0  0  0  0  0  0  0
  150.7360  141.8175  157.3796 C   0  0  0  0  0  0  0  0  0  0  0  0
  150.2234  142.8360  157.8534 O   0  0  0  0  0  0  0  0  0  0  0  0
  151.6960  141.1176  158.0556 N   0  0  0  0  0  0  0  0  0  0  0  0
  152.1177  141.6025  159.3891 C   0  0  0  0  0  0  0  0  0  0  0  0
  152.9815  142.8464  159.2798 C   0  0  0  0  0  0  0  0  0  0  0  0
  152.5898  143.9938  158.7065 C   0  0  0  0  0  0  0  0  0  0  0  0
  152.3206  140.0161  157.5419 C   0  0  0  0  0  0  0  0  0  0  0  0
  153.2125  139.4290  158.1620 O   0  0  0  0  0  0  0  0  0  0  0  0
  151.9206  139.6034  156.3013 N   0  0  0  0  0  0  0  0  0  0  0  0
  152.5947  138.4269  155.6967 C   0  0  0  0  0  0  0  0  0  0  0  0
  152.0133  137.0800  156.1578 C   0  0  0  0  0  0  0  0  0  0  0  0
  152.7011  136.2740  156.7868 O   0  0  0  0  0  0  0  0  0  0  0  0
  150.7317  136.8585  155.8334 N   0  0  0  0  0  0  0  0  0  0  0  0
  149.9831  135.6890  156.1630 C   0  0  0  0  0  0  0  0  0  0  0  0
  150.5943  134.3452  155.8302 C   0  0  0  0  0  0  0  0  0  0  0  0
  149.4372  134.8610  155.0197 C   0  0  0  0  0  0  0  0  0  0  0  0
  150.9646  140.2511  155.5696 C   0  0  0  0  0  0  0  0  0  0  0  0
  150.6522  139.8737  154.4362 O   0  0  0  0  0  0  0  0  0  0  0  0
  147.1122  142.5357  153.7907 H   0  0  0  0  0  0  0  0  0  0  0  0
  146.4663  140.8028  153.8226 H   0  0  0  0  0  0  0  0  0  0  0  0
  148.3177  140.1114  155.2231 H   0  0  0  0  0  0  0  0  0  0  0  0
  149.7689  142.5726  154.5076 H   0  0  0  0  0  0  0  0  0  0  0  0
  148.9136  142.8893  155.9614 H   0  0  0  0  0  0  0  0  0  0  0  0
  151.2617  141.8373  160.0237 H   0  0  0  0  0  0  0  0  0  0  0  0
  152.6508  140.8320  159.9492 H   0  0  0  0  0  0  0  0  0  0  0  0
  153.9769  142.7776  159.6945 H   0  0  0  0  0  0  0  0  0  0  0  0
  151.6030  144.0998  158.2803 H   0  0  0  0  0  0  0  0  0  0  0  0
  153.2538  144.8443  158.6575 H   0  0  0  0  0  0  0  0  0  0  0  0
  152.5531  138.4616  154.6067 H   0  0  0  0  0  0  0  0  0  0  0  0
  153.6653  138.4328  155.9091 H   0  0  0  0  0  0  0  0  0  0  0  0
  150.2457  137.5761  155.3150 H   0  0  0  0  0  0  0  0  0  0  0  0
  149.3663  135.7259  157.0600 H   0  0  0  0  0  0  0  0  0  0  0  0
  151.5745  134.3344  155.3570 H   0  0  0  0  0  0  0  0  0  0  0  0
  150.4003  133.5235  156.5166 H   0  0  0  0  0  0  0  0  0  0  0  0
  148.4706  134.3824  155.1640 H   0  0  0  0  0  0  0  0  0  0  0  0
  149.6447  135.1935  154.0042 H   0  0  0  0  0  0  0  0  0  0  0  0
  1  2  2  0  0  0  0
  1 23  1  0  0  0  0
  1 24  1  0  0  0  0
  2  3  1  0  0  0  0
  2 25  1  0  0  0  0
  3  4  1  0  0  0  0
  3 26  1  0  0  0  0
  3 27  1  0  0  0  0
  4 21  1  0  0  0  0
  4  5  1  0  0  0  0
  5  6  2  0  0  0  0
  5  7  1  0  0  0  0
  7  8  1  0  0  0  0
  7 11  1  0  0  0  0
  8  9  1  0  0  0  0
  8 28  1  0  0  0  0
  8 29  1  0  0  0  0
  9 10  2  0  0  0  0
  9 30  1  0  0  0  0
 10 31  1  0  0  0  0
 10 32  1  0  0  0  0
 11 12  2  0  0  0  0
 11 13  1  0  0  0  0
 13 14  1  0  0  0  0
 13 21  1  0  0  0  0
 14 15  1  0  0  0  0
 14 33  1  0  0  0  0
 14 34  1  0  0  0  0
 15 16  2  0  0  0  0
 15 17  1  0  0  0  0
 17 18  1  0  0  0  0
 17 35  1  0  0  0  0
 18 20  1  0  0  0  0
 18 19  1  0  0  0  0
 18 36  1  0  0  0  0
 19 20  1  0  0  0  0
 19 37  1  0  0  0  0
 19 38  1  0  0  0  0
 20 39  1  0  0  0  0
 20 40  1  0  0  0  0
 21 22  2  0  0  0  0
M  END
> <s_m_source_file>
AV-unprocessed.smi

> <i_m_source_file_index>
2676

> <i_lp_mmshare_version>
43012

> <i_f3d_flags>
0

> <s_epik_input>
W0NIMl09W0NIXVtDSDJdbjFjKD1PKW4oW0NIMl1bQ0hdPVtDSDJdKWMoPU8pbihjMT1PKVtDSDJdQyg9TylbTkhdW0NIXTJbQ0gyXVtDSDJdMg==

> <s_epik_cmdline>
J2VwaWtfcHl0aG9uJywgJy1waCcsICc3LjAnLCAnLXRuJywgJzgnLCAnLW1hJywgJzIwMCcsICctbWV0YWxfYmluZGluZycsICctaW1hZScsICc8aW5maWxlLm1hZT4nLCAnLW9tYWUnLCAnPG91dGZpbGUubWFlPic=

> <r_lp_tautomer_probability>
1

> <r_epik_Ionization_Penalty>
2.07961e-08

> <r_epik_Ionization_Penalty_Charging>
1.25795e-10

> <r_epik_Ionization_Penalty_Neutral>
2.06703e-08

> <r_epik_State_Penalty>
-0

> <r_epik_Charging_Adjusted_Penalty>
1.25795e-10

> <i_epik_Tot_Q>
0

> <i_epik_Tot_abs_Q>
0

> <r_epik_Metal_State_Penalty>
-0

> <b_epik_Metal_Only>
0

> <s_lp_Force_Field>
OPLS_2005

> <r_lp_Energy>
27.3169

> <b_lp_Chiralities_Consistent>
1

> <s_lp_Variant>
AV-unprocessed.smi:2676-1

> <Gold.Version>
5.8.1

> <Gold.Id.Protein>
6NUR|6NUR_protein|mol2

> <Gold.PLP.Fitness>
48.0765

> <Gold.PLP.PLP>
-40.2045

> <Gold.PLP.part.hbond>
-3.0000

> <Gold.PLP.part.metal>
0.0000

> <Gold.PLP.part.buried>
-0.0094

> <Gold.PLP.part.nonpolar>
-38.4999

> <Gold.PLP.part.repulsive>
0.8686

> <Gold.PLP.ligand.clash>
0.0000

> <Gold.PLP.ligand.torsion>
0.6134

> <Gold.PLP.Chemscore.Hbond>
3.0000

> <Gold.PLP.Chemscore.CHOScore>
0.0000

> <Gold.PLP.Chemscore.Metal>
0.0000

> <Gold.Chemscore.Hbonds>
donor molecule, donor type, donor heavy atom, donor atom, acceptor molecule, acceptor atom, score
      P1  H  7989  7998       L1    22  1.00
      P1  H  7997  8008       L1    12  1.00
      P1  H 10752 10763       L1    16  0.99

> <Gold.PLP.Chemscore.Internal.Correction>
0.0987

> <Gold.Rescore>
     Score         DG    S(hbond)    S(metal)    S(lipo)     H(rot)  DE(clash)    DE(int)     intcor
      9.89     -13.90       1.86        0.00      71.26       2.39       1.53       2.49       ----

> <Gold.Chemscore.Fitness>
9.8905

> <Gold.Chemscore.DG>
-13.9040

> <Gold.Chemscore.ZeroCoef>
-5.4800

> <Gold.Chemscore.Hbond>
1.8577

> <Gold.Chemscore.Metal>
0.0000

> <Gold.Chemscore.Lipo>
71.2602

> <Gold.Chemscore.Internal_Hbond>
0.0000

> <Gold.Chemscore.DEClash>
1.5268

> <Gold.Chemscore.DEInternal>
2.4867

> <Gold.Chemscore.Rot>
2.3899

> <Gold.Chemscore.Internal.Correction>
   9.000000E+99

> <Gold.Chemscore.Hbonds>
donor molecule, donor type, donor heavy atom, donor atom, acceptor molecule, acceptor atom, score
      P1  H  7989  7998       L1    22  0.30
      P1  H  7997  8008       L1    12  0.33
      P1  H 10752 10763       L1    16  0.37

> <Gold.Chemscore.Hbond.Weighted>
-6.2047

> <Gold.Chemscore.Metal.Weighted>
-0.0000

> <Gold.Chemscore.Lipo.Weighted>
-8.3374

> <Gold.Chemscore.Internal_Hbond.Weighted>
0.0000

> <Gold.Chemscore.DEClash.Weighted>
1.5268

> <Gold.Chemscore.DEInternal.Weighted>
2.4867

> <Gold.Chemscore.Rot.Weighted>
6.1181

> <Gold.Chemscore.Internal.Correction.Weighted>
   9.000000E+99

> <Gold.Protein.RotatedTorsions>
[ 6907 6896 6895 6894 ] final  -39.61 input  -60.11 | X-H torsion
[ 7974 7965 7964 7962 ] final  -70.26 input  175.53 | X-H torsion
[ 8008 7997 7996 7995 ] final -103.23 input   59.86 | X-H torsion
[ 10167 10162 10161 10158 ] final    2.50 input  -65.29 | X-H torsion
[ 10718 10713 10712 10709 ] final -117.22 input   66.30 | X-H torsion
[ 10763 10752 10751 10750 ] final  128.38 input  -60.55 | X-H torsion
[ 11005 11000 10999 10996 ] final  -48.85 input  -57.11 | X-H torsion

> <Gold.Protein.ActiveResidues>
 VAL166  LYS551  ARG553  GLY616  TRP617  ASP618  TYR619  PRO620  LYS621  CYS622 
 ASP623  PHE694  ASN695  SER759  ASP760  ASP761  ALA762  ILE779  LEU786  VAL792 
 PHE793  MET794  SER795  GLU796  ALA797  LYS798  CYS799  TRP800  GLU811  SER814 

> <Gold.Protein.RotatedAtoms>
  150.9882  134.9223  159.7884 H   0  0  0  0  0  0  0  0  0  0  0  0  # atno 6907 bound_to 6896
  152.5243  134.3317  159.9195 H   0  0  0  0  0  0  0  0  0  0  0  0  # atno 6908 bound_to 6896
  151.3323  133.3954  159.2698 H   0  0  0  0  0  0  0  0  0  0  0  0  # atno 6909 bound_to 6896
  145.6932  140.9145  143.0770 H   0  0  0  0  0  0  0  0  0  0  0  0  # atno 7974 bound_to 7965
  154.8679  140.0424  157.1706 H   0  0  0  0  0  0  0  0  0  0  0  0  # atno 8008 bound_to 7997
  154.8770  140.2967  155.5427 H   0  0  0  0  0  0  0  0  0  0  0  0  # atno 8009 bound_to 7997
  156.2999  140.2418  156.3767 H   0  0  0  0  0  0  0  0  0  0  0  0  # atno 8010 bound_to 7997
  140.6632  143.7249  150.7777 H   0  0  0  0  0  0  0  0  0  0  0  0  # atno 10167 bound_to 10162
  156.1018  130.6178  150.9136 H   0  0  0  0  0  0  0  0  0  0  0  0  # atno 10718 bound_to 10713
  153.7246  135.3248  155.3273 H   0  0  0  0  0  0  0  0  0  0  0  0  # atno 10763 bound_to 10752
  154.8345  135.4507  154.1183 H   0  0  0  0  0  0  0  0  0  0  0  0  # atno 10764 bound_to 10752
  153.2313  135.6960  153.7967 H   0  0  0  0  0  0  0  0  0  0  0  0  # atno 10765 bound_to 10752
  141.0725  133.6675  156.3501 H   0  0  0  0  0  0  0  0  0  0  0  0  # atno 11005 bound_to 11000
  144.6990  139.8850  143.7449 LP  0  0  0  0  0  0  0  0  0  0  0  0  # atno 17320 bound_to 7965
  146.0863  139.3851  143.0433 LP  0  0  0  0  0  0  0  0  0  0  0  0  # atno 17321 bound_to 7965
  140.0921  143.4867  152.2473 LP  0  0  0  0  0  0  0  0  0  0  0  0  # atno 17342 bound_to 10162
  139.5872  144.7536  151.3490 LP  0  0  0  0  0  0  0  0  0  0  0  0  # atno 17343 bound_to 10162
  157.6189  131.0931  150.8658 LP  0  0  0  0  0  0  0  0  0  0  0  0  # atno 17370 bound_to 10713
  156.8785  130.5171  149.5292 LP  0  0  0  0  0  0  0  0  0  0  0  0  # atno 17371 bound_to 10713
  140.5643  134.5903  157.5441 LP  0  0  0  0  0  0  0  0  0  0  0  0  # atno 17394 bound_to 11000
  139.9538  134.7571  156.0388 LP  0  0  0  0  0  0  0  0  0  0  0  0  # atno 17395 bound_to 11000

$$$$
