AV-unprocessed.smi:2911|AV-procd|sdf|11178|dock5
  -GOLD-   2272016 73D 1   1.00000     0.00000
 Structure written by MMmdl.
 41 42  0  0  0  0  0  0  0  0  1 V2000
  152.9822  138.4039  154.9557 C   0  0  0  0  0  0  0  0  0  0  0  0
  151.5762  138.8811  154.8259 C   0  0  0  0  0  0  0  0  0  0  0  0
  150.5677  138.0278  154.6944 N   0  0  0  0  0  0  0  0  0  0  0  0
  149.4471  138.8651  154.5954 O   0  0  0  0  0  0  0  0  0  0  0  0
  149.9209  140.1302  154.6960 C   0  0  0  0  0  0  0  0  0  0  0  0
  148.9645  141.2692  154.5782 C   0  0  0  0  0  0  0  0  0  0  0  0
  148.4108  141.7130  155.9416 C   0  0  0  0  0  0  0  0  0  0  0  0
  149.4698  142.1960  156.8206 N   0  0  0  0  0  0  0  0  0  0  0  0
  150.2771  141.4215  157.5658 C   0  0  0  0  0  0  0  0  0  0  0  0
  150.1942  140.1923  157.5453 O   0  0  0  0  0  0  0  0  0  0  0  0
  151.2163  142.0952  158.2824 N   0  0  0  0  0  0  0  0  0  0  0  0
  152.5060  141.5275  158.7334 C   0  0  0  0  0  0  0  0  0  0  0  0
  152.6989  141.7399  160.2416 C   0  0  0  0  0  0  0  0  0  0  0  0
  152.6278  143.2327  160.5967 C   0  0  2  0  0  0  0  0  0  0  0  0
  152.7911  143.4639  162.1053 C   0  0  0  0  0  0  0  0  0  0  0  0
  151.3125  143.8313  160.0700 C   0  0  0  0  0  0  0  0  0  0  0  0
  151.0627  143.5374  158.5740 C   0  0  1  0  0  0  0  0  0  0  0  0
  151.8971  144.4054  157.6145 C   0  0  0  0  0  0  0  0  0  0  0  0
  151.2438  140.2011  154.8218 N   0  0  0  0  0  0  0  0  0  0  0  0
  153.0119  137.3959  155.3710 H   0  0  0  0  0  0  0  0  0  0  0  0
  153.5484  139.0625  155.6147 H   0  0  0  0  0  0  0  0  0  0  0  0
  153.4657  138.3914  153.9788 H   0  0  0  0  0  0  0  0  0  0  0  0
  149.4742  142.1007  154.0903 H   0  0  0  0  0  0  0  0  0  0  0  0
  148.1509  140.9693  153.9165 H   0  0  0  0  0  0  0  0  0  0  0  0
  147.6480  142.4830  155.8134 H   0  0  0  0  0  0  0  0  0  0  0  0
  147.9226  140.8719  156.4347 H   0  0  0  0  0  0  0  0  0  0  0  0
  149.6060  143.1955  156.8631 H   0  0  0  0  0  0  0  0  0  0  0  0
  152.6262  140.4662  158.5183 H   0  0  0  0  0  0  0  0  0  0  0  0
  153.3146  142.0133  158.1872 H   0  0  0  0  0  0  0  0  0  0  0  0
  151.9346  141.1865  160.7893 H   0  0  0  0  0  0  0  0  0  0  0  0
  153.6608  141.3296  160.5502 H   0  0  0  0  0  0  0  0  0  0  0  0
  153.4550  143.7382  160.0969 H   0  0  0  0  0  0  0  0  0  0  0  0
  151.9928  142.9809  162.6696 H   0  0  0  0  0  0  0  0  0  0  0  0
  152.7710  144.5278  162.3436 H   0  0  0  0  0  0  0  0  0  0  0  0
  153.7403  143.0640  162.4626 H   0  0  0  0  0  0  0  0  0  0  0  0
  150.4838  143.4166  160.6462 H   0  0  0  0  0  0  0  0  0  0  0  0
  151.2911  144.9074  160.2466 H   0  0  0  0  0  0  0  0  0  0  0  0
  150.0267  143.8372  158.4090 H   0  0  0  0  0  0  0  0  0  0  0  0
  151.6994  145.4648  157.7796 H   0  0  0  0  0  0  0  0  0  0  0  0
  151.6521  144.1859  156.5749 H   0  0  0  0  0  0  0  0  0  0  0  0
  152.9678  144.2508  157.7443 H   0  0  0  0  0  0  0  0  0  0  0  0
  1  2  1  0  0  0  0
  1 20  1  0  0  0  0
  1 21  1  0  0  0  0
  1 22  1  0  0  0  0
  2 19  1  0  0  0  0
  2  3  2  0  0  0  0
  3  4  1  0  0  0  0
  4  5  1  0  0  0  0
  5  6  1  0  0  0  0
  5 19  2  0  0  0  0
  6  7  1  0  0  0  0
  6 23  1  0  0  0  0
  6 24  1  0  0  0  0
  7  8  1  0  0  0  0
  7 25  1  0  0  0  0
  7 26  1  0  0  0  0
  8  9  1  0  0  0  0
  8 27  1  0  0  0  0
  9 10  2  0  0  0  0
  9 11  1  0  0  0  0
 11 17  1  0  0  0  0
 11 12  1  0  0  0  0
 12 13  1  0  0  0  0
 12 28  1  0  0  0  0
 12 29  1  0  0  0  0
 13 14  1  0  0  0  0
 13 30  1  0  0  0  0
 13 31  1  0  0  0  0
 14 15  1  0  0  0  0
 14 16  1  0  0  0  0
 14 32  1  0  0  0  0
 15 33  1  0  0  0  0
 15 34  1  0  0  0  0
 15 35  1  0  0  0  0
 16 17  1  0  0  0  0
 16 36  1  0  0  0  0
 16 37  1  0  0  0  0
 17 18  1  0  0  0  0
 17 38  1  0  0  0  0
 18 39  1  0  0  0  0
 18 40  1  0  0  0  0
 18 41  1  0  0  0  0
M  END
> <s_m_source_file>
AV-unprocessed.smi

> <i_m_source_file_index>
2911

> <i_lp_mmshare_version>
43012

> <i_f3d_flags>
0

> <s_epik_input>
W0NIM11jMW5vYyhuMSlbQ0gyXVtDSDJdW05IXUMoPU8pTjJbQ0gyXVtDSDJdW0NAQEhdKFtDSDNdKVtDSDJdW0NASF0yW0NIM10=

> <s_epik_cmdline>
J2VwaWtfcHl0aG9uJywgJy1waCcsICc3LjAnLCAnLXRuJywgJzgnLCAnLW1hJywgJzIwMCcsICctbWV0YWxfYmluZGluZycsICctaW1hZScsICc8aW5maWxlLm1hZT4nLCAnLW9tYWUnLCAnPG91dGZpbGUubWFlPic=

> <r_lp_tautomer_probability>
1

> <r_epik_Ionization_Penalty>
6.61671e-05

> <r_epik_Ionization_Penalty_Charging>
0

> <r_epik_Ionization_Penalty_Neutral>
6.61671e-05

> <r_epik_State_Penalty>
-0

> <r_epik_Charging_Adjusted_Penalty>
0

> <i_epik_Tot_Q>
0

> <i_epik_Tot_abs_Q>
0

> <r_epik_Metal_State_Penalty>
-0

> <b_epik_Metal_Only>
0

> <s_lp_Force_Field>
OPLS_2005

> <r_lp_Energy>
30.9139

> <b_lp_Chiralities_Consistent>
1

> <s_lp_Variant>
AV-unprocessed.smi:2911-2

> <Gold.Version>
5.8.1

> <Gold.Id.Protein>
6NUR|6NUR_protein|mol2

> <Gold.PLP.Fitness>
44.6899

> <Gold.PLP.PLP>
-42.3660

> <Gold.PLP.part.hbond>
-1.9091

> <Gold.PLP.part.metal>
0.0000

> <Gold.PLP.part.buried>
-4.4177

> <Gold.PLP.part.nonpolar>
-35.9636

> <Gold.PLP.part.repulsive>
0.4075

> <Gold.PLP.ligand.clash>
0.9997

> <Gold.PLP.ligand.torsion>
0.7238

> <Gold.PLP.Chemscore.Hbond>
1.5824

> <Gold.PLP.Chemscore.CHOScore>
0.0000

> <Gold.PLP.Chemscore.Metal>
0.0000

> <Gold.Chemscore.Hbonds>
donor molecule, donor type, donor heavy atom, donor atom, acceptor molecule, acceptor atom, score
      L1  H     8    27       P1  8028  0.58
      P1  H  7989  7998       L1    19  1.00

> <Gold.PLP.Chemscore.Internal.Correction>
0.0239

> <Gold.Rescore>
     Score         DG    S(hbond)    S(metal)    S(lipo)     H(rot)  DE(clash)    DE(int)     intcor
     16.51     -18.30       1.73        0.00      95.42       1.61       0.04       1.75       ----

> <Gold.Chemscore.Fitness>
16.5079

> <Gold.Chemscore.DG>
-18.2960

> <Gold.Chemscore.ZeroCoef>
-5.4800

> <Gold.Chemscore.Hbond>
1.7276

> <Gold.Chemscore.Metal>
0.0000

> <Gold.Chemscore.Lipo>
95.4213

> <Gold.Chemscore.Internal_Hbond>
0.0000

> <Gold.Chemscore.DEClash>
0.0370

> <Gold.Chemscore.DEInternal>
1.7510

> <Gold.Chemscore.Rot>
1.6088

> <Gold.Chemscore.Internal.Correction>
   9.000000E+99

> <Gold.Chemscore.Hbonds>
donor molecule, donor type, donor heavy atom, donor atom, acceptor molecule, acceptor atom, score
      L1  H     8    27       P1  8028  0.56
      P1  H  7989  7998       L1    19  0.25

> <Gold.Chemscore.Hbond.Weighted>
-5.7703

> <Gold.Chemscore.Metal.Weighted>
-0.0000

> <Gold.Chemscore.Lipo.Weighted>
-11.1643

> <Gold.Chemscore.Internal_Hbond.Weighted>
0.0000

> <Gold.Chemscore.DEClash.Weighted>
0.0370

> <Gold.Chemscore.DEInternal.Weighted>
1.7510

> <Gold.Chemscore.Rot.Weighted>
4.1186

> <Gold.Chemscore.Internal.Correction.Weighted>
   9.000000E+99

> <Gold.Protein.RotatedTorsions>
[ 6907 6896 6895 6894 ] final  146.37 input  -60.11 | X-H torsion
[ 7974 7965 7964 7962 ] final  -60.06 input  175.53 | X-H torsion
[ 8008 7997 7996 7995 ] final  -52.20 input   59.86 | X-H torsion
[ 10167 10162 10161 10158 ] final  -28.60 input  -65.29 | X-H torsion
[ 10718 10713 10712 10709 ] final -160.16 input   66.30 | X-H torsion
[ 10763 10752 10751 10750 ] final  -55.62 input  -60.55 | X-H torsion
[ 11005 11000 10999 10996 ] final -156.39 input  -57.11 | X-H torsion

> <Gold.Protein.ActiveResidues>
 VAL166  LYS551  ARG553  GLY616  TRP617  ASP618  TYR619  PRO620  LYS621  CYS622 
 ASP623  PHE694  ASN695  SER759  ASP760  ASP761  ALA762  ILE779  LEU786  VAL792 
 PHE793  MET794  SER795  GLU796  ALA797  LYS798  CYS799  TRP800  GLU811  SER814 

> <Gold.Protein.RotatedAtoms>
  152.1688  133.4629  159.4897 H   0  0  0  0  0  0  0  0  0  0  0  0  # atno 6907 bound_to 6896
  150.6917  134.1980  159.4320 H   0  0  0  0  0  0  0  0  0  0  0  0  # atno 6908 bound_to 6896
  151.9886  134.9991  160.0611 H   0  0  0  0  0  0  0  0  0  0  0  0  # atno 6909 bound_to 6896
  145.8200  140.8546  143.0137 H   0  0  0  0  0  0  0  0  0  0  0  0  # atno 7974 bound_to 7965
  154.4101  140.1229  156.4953 H   0  0  0  0  0  0  0  0  0  0  0  0  # atno 8008 bound_to 7997
  155.6949  140.3495  155.4889 H   0  0  0  0  0  0  0  0  0  0  0  0  # atno 8009 bound_to 7997
  155.9436  140.1091  157.1025 H   0  0  0  0  0  0  0  0  0  0  0  0  # atno 8010 bound_to 7997
  140.7268  143.3997  151.1286 H   0  0  0  0  0  0  0  0  0  0  0  0  # atno 10167 bound_to 10162
  156.5782  130.8718  151.2857 H   0  0  0  0  0  0  0  0  0  0  0  0  # atno 10718 bound_to 10713
  154.1938  135.6423  153.5067 H   0  0  0  0  0  0  0  0  0  0  0  0  # atno 10763 bound_to 10752
  153.0028  135.5435  154.6388 H   0  0  0  0  0  0  0  0  0  0  0  0  # atno 10764 bound_to 10752
  154.5783  135.2923  155.0731 H   0  0  0  0  0  0  0  0  0  0  0  0  # atno 10765 bound_to 10752
  140.6761  134.4195  157.5229 H   0  0  0  0  0  0  0  0  0  0  0  0  # atno 11005 bound_to 11000
  144.6748  140.0520  143.7478 LP  0  0  0  0  0  0  0  0  0  0  0  0  # atno 17320 bound_to 7965
  145.9685  139.2852  143.1113 LP  0  0  0  0  0  0  0  0  0  0  0  0  # atno 17321 bound_to 7965
  139.7615  143.8629  152.3101 LP  0  0  0  0  0  0  0  0  0  0  0  0  # atno 17342 bound_to 10162
  139.8516  144.7161  150.9207 LP  0  0  0  0  0  0  0  0  0  0  0  0  # atno 17343 bound_to 10162
  157.7333  130.9728  150.1969 LP  0  0  0  0  0  0  0  0  0  0  0  0  # atno 17370 bound_to 10713
  156.2655  130.3715  149.8086 LP  0  0  0  0  0  0  0  0  0  0  0  0  # atno 17371 bound_to 10713
  139.8966  134.8655  156.2079 LP  0  0  0  0  0  0  0  0  0  0  0  0  # atno 17394 bound_to 11000
  141.0354  133.6966  156.1504 LP  0  0  0  0  0  0  0  0  0  0  0  0  # atno 17395 bound_to 11000

$$$$
