AV-unprocessed.smi:158|AV-procd|sdf|1325|dock2
  -GOLD-   2262019 23D 1   1.00000     0.00000
 Structure written by MMmdl.
 31 33  0  0  0  0  0  0  0  0  1 V2000
  150.6939  142.4001  163.3352 N   0  0  0  0  0  0  0  0  0  0  0  0
  151.1814  141.8893  162.1961 C   0  0  0  0  0  0  0  0  0  0  0  0
  152.2914  141.1177  162.2597 N   0  0  0  0  0  0  0  0  0  0  0  0
  152.8113  140.5890  161.1451 C   0  0  0  0  0  0  0  0  0  0  0  0
  154.2257  139.6232  161.3411 Cl  0  0  0  0  0  0  0  0  0  0  0  0
  152.3571  140.7252  159.8951 N   0  0  0  0  0  0  0  0  0  0  0  0
  151.2373  141.5025  159.8266 C   0  0  0  0  0  0  0  0  0  0  0  0
  150.5903  142.1199  160.9301 C   0  0  0  0  0  0  0  0  0  0  0  0
  149.4842  142.8355  160.4919 N   0  0  0  0  0  0  0  0  0  0  0  0
  149.4830  142.6494  159.1989 C   0  0  0  0  0  0  0  0  0  0  0  0
  150.5036  141.8614  158.7133 N   0  0  0  0  0  0  0  0  0  0  0  0
  150.7603  141.4765  157.2904 C   0  0  2  0  0  0  0  0  0  0  0  0
  149.7835  142.0494  156.4731 O   0  0  0  0  0  0  0  0  0  0  0  0
  149.1640  141.0504  155.6655 C   0  0  1  0  0  0  0  0  0  0  0  0
  148.7896  141.6155  154.2846 C   0  0  0  0  0  0  0  0  0  0  0  0
  148.2293  142.9047  154.4163 O   0  0  0  0  0  0  0  0  0  0  0  0
  150.1256  139.8516  155.6899 C   0  0  1  0  0  0  0  0  0  0  0  0
  151.1334  139.9378  154.6996 O   0  0  0  0  0  0  0  0  0  0  0  0
  150.7267  139.9557  157.0773 C   0  0  2  0  0  0  0  0  0  0  0  0
  149.9217  139.3638  157.9631 F   0  0  0  0  0  0  0  0  0  0  0  0
  151.7290  141.9152  157.0484 H   0  0  0  0  0  0  0  0  0  0  0  0
  148.2493  140.7614  156.1858 H   0  0  0  0  0  0  0  0  0  0  0  0
  149.5958  138.9091  155.5464 H   0  0  0  0  0  0  0  0  0  0  0  0
  151.7186  139.5138  157.1785 H   0  0  0  0  0  0  0  0  0  0  0  0
  149.8668  142.9795  163.3125 H   0  0  0  0  0  0  0  0  0  0  0  0
  151.1552  142.2084  164.2125 H   0  0  0  0  0  0  0  0  0  0  0  0
  148.7318  143.0874  158.5578 H   0  0  0  0  0  0  0  0  0  0  0  0
  149.6816  141.6920  153.6627 H   0  0  0  0  0  0  0  0  0  0  0  0
  148.0924  140.9623  153.7594 H   0  0  0  0  0  0  0  0  0  0  0  0
  148.3400  143.1902  155.3106 H   0  0  0  0  0  0  0  0  0  0  0  0
  150.7206  140.1376  153.8728 H   0  0  0  0  0  0  0  0  0  0  0  0
  1  2  1  0  0  0  0
  1 25  1  0  0  0  0
  1 26  1  0  0  0  0
  2  8  1  0  0  0  0
  2  3  2  0  0  0  0
  3  4  1  0  0  0  0
  4  5  1  0  0  0  0
  4  6  2  0  0  0  0
  6  7  1  0  0  0  0
  7 11  1  0  0  0  0
  7  8  2  0  0  0  0
  8  9  1  0  0  0  0
  9 10  2  0  0  0  0
 10 11  1  0  0  0  0
 10 27  1  0  0  0  0
 11 12  1  0  0  0  0
 12 21  1  0  0  0  0
 12 19  1  0  0  0  0
 12 13  1  0  0  0  0
 13 14  1  0  0  0  0
 14 22  1  0  0  0  0
 14 15  1  0  0  0  0
 14 17  1  0  0  0  0
 15 16  1  0  0  0  0
 15 28  1  0  0  0  0
 15 29  1  0  0  0  0
 16 30  1  0  0  0  0
 17 23  1  0  0  0  0
 17 18  1  0  0  0  0
 17 19  1  0  0  0  0
 18 31  1  0  0  0  0
 19 24  1  0  0  0  0
 19 20  1  0  0  0  0
M  END
> <s_m_source_file>
AV-unprocessed.smi

> <i_m_source_file_index>
158

> <i_lp_mmshare_version>
43012

> <i_f3d_flags>
0

> <s_epik_input>
Q2xjKG4xKW5jKFtOSDJdKWMoYzEyKW5bY0hdbjJbQ0BASF0zT1tDQEhdKFtDSDJdW09IXSlbQ0BASF0oW09IXSlbQ0BASF0zRg==

> <s_epik_cmdline>
J2VwaWtfcHl0aG9uJywgJy1waCcsICc3LjAnLCAnLXRuJywgJzgnLCAnLW1hJywgJzIwMCcsICctbWV0YWxfYmluZGluZycsICctaW1hZScsICc8aW5maWxlLm1hZT4nLCAnLW9tYWUnLCAnPG91dGZpbGUubWFlPic=

> <r_lp_tautomer_probability>
1

> <r_epik_Ionization_Penalty>
6.51543e-05

> <r_epik_Ionization_Penalty_Charging>
0

> <r_epik_Ionization_Penalty_Neutral>
6.51543e-05

> <r_epik_State_Penalty>
-0

> <r_epik_Charging_Adjusted_Penalty>
0

> <i_epik_Tot_Q>
0

> <i_epik_Tot_abs_Q>
0

> <r_epik_Metal_State_Penalty>
-0

> <b_epik_Metal_Only>
0

> <s_epik_Chemistry_Notes>
This compound contains an acetal/aminal-like group ( X-CH(R)-Y where X, Y are N, S, or O) that may be acid/base labile, releasing an aldehyde.

> <s_lp_Force_Field>
OPLS_2005

> <r_lp_Energy>
35.164

> <b_lp_Chiralities_Consistent>
1

> <s_lp_Variant>
AV-unprocessed.smi:158-3

> <Gold.Version>
5.8.1

> <Gold.Id.Protein>
6NUR|6NUR_protein|mol2

> <Gold.PLP.Fitness>
43.4071

> <Gold.PLP.PLP>
-37.9393

> <Gold.PLP.part.hbond>
-5.7633

> <Gold.PLP.part.metal>
0.0000

> <Gold.PLP.part.buried>
-5.7513

> <Gold.PLP.part.nonpolar>
-27.4163

> <Gold.PLP.part.repulsive>
1.8401

> <Gold.PLP.ligand.clash>
0.0000

> <Gold.PLP.ligand.torsion>
0.1369

> <Gold.PLP.Chemscore.Hbond>
0.9120

> <Gold.PLP.Chemscore.CHOScore>
1.0017

> <Gold.PLP.Chemscore.Metal>
0.0000

> <Gold.Chemscore.Hbonds>
donor molecule, donor type, donor heavy atom, donor atom, acceptor molecule, acceptor atom, score
      L1  H    16    30       P1  8028  0.40
      P1  H  8022  8030       L1    16  0.71

> <Gold.PLP.Chemscore.Internal.Correction>
0.0004

> <Gold.Rescore>
     Score         DG    S(hbond)    S(metal)    S(lipo)     H(rot)  DE(clash)    DE(int)     intcor
      5.26      -5.61       0.99        0.00      41.30       3.12       0.34       0.02       ----

> <Gold.Chemscore.Fitness>
5.2596

> <Gold.Chemscore.DG>
-5.6123

> <Gold.Chemscore.ZeroCoef>
-5.4800

> <Gold.Chemscore.Hbond>
0.9865

> <Gold.Chemscore.Metal>
0.0000

> <Gold.Chemscore.Lipo>
41.3007

> <Gold.Chemscore.Internal_Hbond>
0.0000

> <Gold.Chemscore.DEClash>
0.3368

> <Gold.Chemscore.DEInternal>
0.0159

> <Gold.Chemscore.Rot>
3.1230

> <Gold.Chemscore.Internal.Correction>
   9.000000E+99

> <Gold.Chemscore.Hbonds>
donor molecule, donor type, donor heavy atom, donor atom, acceptor molecule, acceptor atom, score
      L1  H    16    30       P1  8028  0.39
      P1  H  8022  8030       L1    16  0.08

> <Gold.Chemscore.Hbond.Weighted>
-3.2951

> <Gold.Chemscore.Metal.Weighted>
-0.0000

> <Gold.Chemscore.Lipo.Weighted>
-4.8322

> <Gold.Chemscore.Internal_Hbond.Weighted>
0.0000

> <Gold.Chemscore.DEClash.Weighted>
0.3368

> <Gold.Chemscore.DEInternal.Weighted>
0.0159

> <Gold.Chemscore.Rot.Weighted>
7.9950

> <Gold.Chemscore.Internal.Correction.Weighted>
   9.000000E+99

> <Gold.Protein.RotatedTorsions>
[ 6907 6896 6895 6894 ] final  -93.28 input  -60.11 | X-H torsion
[ 7974 7965 7964 7962 ] final   94.92 input  175.53 | X-H torsion
[ 8008 7997 7996 7995 ] final   65.81 input   59.86 | X-H torsion
[ 10167 10162 10161 10158 ] final -103.65 input  -65.29 | X-H torsion
[ 10718 10713 10712 10709 ] final   64.14 input   66.30 | X-H torsion
[ 10763 10752 10751 10750 ] final   13.04 input  -60.55 | X-H torsion
[ 11005 11000 10999 10996 ] final  -57.11 input  -57.11 | X-H torsion

> <Gold.Protein.ActiveResidues>
 VAL166  LYS551  ARG553  GLY616  TRP617  ASP618  TYR619  PRO620  LYS621  CYS622 
 ASP623  PHE694  ASN695  SER759  ASP760  ASP761  ALA762  ILE779  LEU786  VAL792 
 PHE793  MET794  SER795  GLU796  ALA797  LYS798  CYS799  TRP800  GLU811  SER814 

> <Gold.Protein.RotatedAtoms>
  150.6920  134.1992  159.4315 H   0  0  0  0  0  0  0  0  0  0  0  0  # atno 6907 bound_to 6896
  151.9959  134.9952  160.0572 H   0  0  0  0  0  0  0  0  0  0  0  0  # atno 6908 bound_to 6896
  152.1624  133.4555  159.4904 H   0  0  0  0  0  0  0  0  0  0  0  0  # atno 6909 bound_to 6896
  145.4591  139.2288  143.2997 H   0  0  0  0  0  0  0  0  0  0  0  0  # atno 7974 bound_to 7965
  155.6676  140.3497  155.4806 H   0  0  0  0  0  0  0  0  0  0  0  0  # atno 8008 bound_to 7997
  155.9716  140.1157  157.0830 H   0  0  0  0  0  0  0  0  0  0  0  0  # atno 8009 bound_to 7997
  154.4168  140.1156  156.5300 H   0  0  0  0  0  0  0  0  0  0  0  0  # atno 8010 bound_to 7997
  140.2177  143.3699  152.0997 H   0  0  0  0  0  0  0  0  0  0  0  0  # atno 10167 bound_to 10162
  157.6019  130.9144  149.9807 H   0  0  0  0  0  0  0  0  0  0  0  0  # atno 10718 bound_to 10713
  153.1762  135.6820  153.8540 H   0  0  0  0  0  0  0  0  0  0  0  0  # atno 10763 bound_to 10752
  153.7888  135.3172  155.3377 H   0  0  0  0  0  0  0  0  0  0  0  0  # atno 10764 bound_to 10752
  154.8030  135.4766  154.0416 H   0  0  0  0  0  0  0  0  0  0  0  0  # atno 10765 bound_to 10752
  141.1150  133.6610  156.4721 H   0  0  0  0  0  0  0  0  0  0  0  0  # atno 11005 bound_to 11000
  146.2461  140.5358  142.8913 LP  0  0  0  0  0  0  0  0  0  0  0  0  # atno 17320 bound_to 7965
  144.8014  140.6219  143.6476 LP  0  0  0  0  0  0  0  0  0  0  0  0  # atno 17321 bound_to 7965
  139.5156  144.6965  151.5616 LP  0  0  0  0  0  0  0  0  0  0  0  0  # atno 17342 bound_to 10162
  140.6278  143.9135  150.6579 LP  0  0  0  0  0  0  0  0  0  0  0  0  # atno 17343 bound_to 10162
  156.1095  130.3651  150.0074 LP  0  0  0  0  0  0  0  0  0  0  0  0  # atno 17370 bound_to 10713
  156.8175  130.9347  151.3642 LP  0  0  0  0  0  0  0  0  0  0  0  0  # atno 17371 bound_to 10713
  140.4670  134.6789  157.5112 LP  0  0  0  0  0  0  0  0  0  0  0  0  # atno 17394 bound_to 11000
  140.0067  134.6753  155.9444 LP  0  0  0  0  0  0  0  0  0  0  0  0  # atno 17395 bound_to 11000

$$$$
