AV-unprocessed.smi:45|AV-procd|sdf|409|dock3
  -GOLD-   2262016263D 1   1.00000     0.00000
 Structure written by MMmdl.
 61 64  0  0  0  0  0  0  0  0  2 V2000
  146.8939  137.2351  163.1431 C   0  0  0  0  0  0  0  0  0  0  0  0
  147.3857  137.1767  161.8122 O   0  0  0  0  0  0  0  0  0  0  0  0
  147.5935  135.9354  161.2475 C   0  0  0  0  0  0  0  0  0  0  0  0
  147.4039  134.7125  161.9391 C   0  0  0  0  0  0  0  0  0  0  0  0
  147.6545  133.4831  161.3007 C   0  0  0  0  0  0  0  0  0  0  0  0
  148.0949  133.4485  159.9636 C   0  0  0  0  0  0  0  0  0  0  0  0
  148.3683  132.1004  159.3089 C   0  0  0  0  0  0  0  0  0  0  0  0
  149.7048  131.9016  158.7563 N   0  0  0  0  0  0  0  0  0  0  0  0
  149.9195  131.6698  157.3851 C   0  0  0  0  0  0  0  0  0  0  0  0
  148.9353  132.0069  156.5205 N   0  0  0  0  0  0  0  0  0  0  0  0
  149.0952  131.8203  155.2035 C   0  0  0  0  0  0  0  0  0  0  0  0
  148.0653  132.1655  154.3325 N   0  0  0  0  0  0  0  0  0  0  0  0
  147.2836  131.1503  153.6375 C   0  0  0  0  0  0  0  0  0  0  0  0
  146.8878  131.7727  152.2996 C   0  0  0  0  0  0  0  0  0  0  0  0
  146.8222  133.2604  152.6220 C   0  0  0  0  0  0  0  0  0  0  0  0
  147.9445  133.4549  153.6524 C   0  0  1  0  0  0  0  0  0  0  0  0
  147.6644  134.6201  154.6232 C   0  0  0  0  0  0  0  0  0  0  0  0
  147.5343  135.8276  153.9041 O   0  0  0  0  0  0  0  0  0  0  0  0
  150.2270  131.3155  154.6891 N   0  3  0  0  0  0  0  0  0  0  0  0
  151.2427  130.9586  155.5101 C   0  0  0  0  0  0  0  0  0  0  0  0
  151.1378  131.1243  156.9076 C   0  0  0  0  0  0  0  0  0  0  0  0
  152.2596  130.6844  157.8103 C   0  0  0  0  0  0  0  0  0  0  0  0
  153.4377  130.8619  157.5003 O   0  0  0  0  0  0  0  0  0  0  0  0
  151.8763  130.0761  158.9441 N   0  0  0  0  0  0  0  0  0  0  0  0
  152.7840  129.6081  159.9851 C   0  0  0  0  0  0  0  0  0  0  0  0
  152.4192  130.1386  161.3613 C   0  0  0  0  0  0  0  0  0  0  0  0
  153.3592  130.8339  162.0088 N   0  0  0  0  0  0  0  0  0  0  0  0
  153.0325  131.3151  163.2277 C   0  0  0  0  0  0  0  0  0  0  0  0
  151.7605  131.0964  163.7941 C   0  0  0  0  0  0  0  0  0  0  0  0
  150.8519  130.3492  163.0181 C   0  0  0  0  0  0  0  0  0  0  0  0
  151.1841  129.8703  161.7993 N   0  0  0  0  0  0  0  0  0  0  0  0
  148.2610  134.6624  159.2627 C   0  0  0  0  0  0  0  0  0  0  0  0
  148.0207  135.8936  159.9020 C   0  0  0  0  0  0  0  0  0  0  0  0
  148.2616  137.3580  159.0189 Cl  0  0  0  0  0  0  0  0  0  0  0  0
  148.8823  133.6351  153.1245 H   0  0  0  0  0  0  0  0  0  0  0  0
  146.7934  138.2781  163.4432 H   0  0  0  0  0  0  0  0  0  0  0  0
  147.5796  136.7552  163.8428 H   0  0  0  0  0  0  0  0  0  0  0  0
  145.9093  136.7727  163.2252 H   0  0  0  0  0  0  0  0  0  0  0  0
  147.0741  134.6891  162.9665 H   0  0  0  0  0  0  0  0  0  0  0  0
  147.5136  132.5621  161.8474 H   0  0  0  0  0  0  0  0  0  0  0  0
  148.1666  131.3055  160.0281 H   0  0  0  0  0  0  0  0  0  0  0  0
  147.6495  131.9684  158.4999 H   0  0  0  0  0  0  0  0  0  0  0  0
  150.4445  131.6602  159.4011 H   0  0  0  0  0  0  0  0  0  0  0  0
  147.8440  130.2261  153.4901 H   0  0  0  0  0  0  0  0  0  0  0  0
  146.3995  130.9209  154.2330 H   0  0  0  0  0  0  0  0  0  0  0  0
  147.6686  131.5907  151.5597 H   0  0  0  0  0  0  0  0  0  0  0  0
  145.9505  131.3772  151.9073 H   0  0  0  0  0  0  0  0  0  0  0  0
  146.9438  133.8917  151.7411 H   0  0  0  0  0  0  0  0  0  0  0  0
  145.8516  133.4892  153.0651 H   0  0  0  0  0  0  0  0  0  0  0  0
  146.7532  134.4418  155.1950 H   0  0  0  0  0  0  0  0  0  0  0  0
  148.4707  134.7414  155.3447 H   0  0  0  0  0  0  0  0  0  0  0  0
  148.1006  135.7903  153.1480 H   0  0  0  0  0  0  0  0  0  0  0  0
  152.1077  130.5405  155.0152 H   0  0  0  0  0  0  0  0  0  0  0  0
  150.8891  129.9563  159.1169 H   0  0  0  0  0  0  0  0  0  0  0  0
  152.7481  128.5186  160.0092 H   0  0  0  0  0  0  0  0  0  0  0  0
  153.8116  129.8753  159.7303 H   0  0  0  0  0  0  0  0  0  0  0  0
  153.7900  131.8764  163.7543 H   0  0  0  0  0  0  0  0  0  0  0  0
  151.4969  131.4802  164.7685 H   0  0  0  0  0  0  0  0  0  0  0  0
  149.8556  130.1355  163.3757 H   0  0  0  0  0  0  0  0  0  0  0  0
  148.5833  134.6607  158.2317 H   0  0  0  0  0  0  0  0  0  0  0  0
  150.3256  131.1815  153.6825 H   0  0  0  0  0  0  0  0  0  0  0  0
  1  2  1  0  0  0  0
  1 36  1  0  0  0  0
  1 37  1  0  0  0  0
  1 38  1  0  0  0  0
  2  3  1  0  0  0  0
  3 33  1  0  0  0  0
  3  4  2  0  0  0  0
  4  5  1  0  0  0  0
  4 39  1  0  0  0  0
  5  6  2  0  0  0  0
  5 40  1  0  0  0  0
  6  7  1  0  0  0  0
  6 32  1  0  0  0  0
  7  8  1  0  0  0  0
  7 41  1  0  0  0  0
  7 42  1  0  0  0  0
  8  9  1  0  0  0  0
  8 43  1  0  0  0  0
  9 21  1  0  0  0  0
  9 10  2  0  0  0  0
 10 11  1  0  0  0  0
 11 12  1  0  0  0  0
 11 19  2  0  0  0  0
 12 16  1  0  0  0  0
 12 13  1  0  0  0  0
 13 14  1  0  0  0  0
 13 44  1  0  0  0  0
 13 45  1  0  0  0  0
 14 15  1  0  0  0  0
 14 46  1  0  0  0  0
 14 47  1  0  0  0  0
 15 16  1  0  0  0  0
 15 48  1  0  0  0  0
 15 49  1  0  0  0  0
 16 35  1  0  0  0  0
 16 17  1  0  0  0  0
 17 18  1  0  0  0  0
 17 50  1  0  0  0  0
 17 51  1  0  0  0  0
 18 52  1  0  0  0  0
 19 20  1  0  0  0  0
 19 61  1  0  0  0  0
 20 21  2  0  0  0  0
 20 53  1  0  0  0  0
 21 22  1  0  0  0  0
 22 23  2  0  0  0  0
 22 24  1  0  0  0  0
 24 25  1  0  0  0  0
 24 54  1  0  0  0  0
 25 26  1  0  0  0  0
 25 55  1  0  0  0  0
 25 56  1  0  0  0  0
 26 31  1  0  0  0  0
 26 27  2  0  0  0  0
 27 28  1  0  0  0  0
 28 29  2  0  0  0  0
 28 57  1  0  0  0  0
 29 30  1  0  0  0  0
 29 58  1  0  0  0  0
 30 31  2  0  0  0  0
 30 59  1  0  0  0  0
 32 33  2  0  0  0  0
 32 60  1  0  0  0  0
 33 34  1  0  0  0  0
M  CHG  1  19   1
M  END
> <s_m_source_file>
AV-unprocessed.smi

> <i_m_source_file_index>
45

> <i_lp_mmshare_version>
43012

> <i_f3d_flags>
0

> <s_epik_input>
W0NIM11PYzFbY0hdW2NIXWMoW2NIXWMxQ2wpW0NIMl1bTkhdYzJuYyhOM1tDSDJdW0NIMl1bQ0gyXVtDQEhdM1tDSDJdW09IXSluW2NIXWMyQyg9TylbTkhdW0NIMl1jNG5bY0hdW2NIXVtjSF1uNA==

> <s_epik_cmdline>
J2VwaWtfcHl0aG9uJywgJy1waCcsICc3LjAnLCAnLXRuJywgJzgnLCAnLW1hJywgJzIwMCcsICctbWV0YWxfYmluZGluZycsICctaW1hZScsICc8aW5maWxlLm1hZT4nLCAnLW9tYWUnLCAnPG91dGZpbGUubWFlPic=

> <r_lp_tautomer_probability>
0.575011

> <r_epik_Ionization_Penalty>
1.61454

> <r_epik_Ionization_Penalty_Charging>
1.61448

> <r_epik_Ionization_Penalty_Neutral>
6.30284e-05

> <r_epik_State_Penalty>
1.91123

> <r_epik_Charging_Adjusted_Penalty>
3.52572

> <i_epik_Tot_Q>
1

> <i_epik_Tot_abs_Q>
1

> <r_epik_Metal_State_Penalty>
1.95488

> <b_epik_Metal_Only>
0

> <s_epik_Chemistry_Notes>
This compound contains an electron-poor aromatic ring that is susceptible to covalent hydrolysis at low pH, typically resulting in measured values for nitrogen ring protonation that are around two units higher than predicted values.

> <s_lp_Force_Field>
OPLS_2005

> <r_lp_Energy>
32.8606

> <b_lp_Chiralities_Consistent>
1

> <s_lp_Variant>
AV-unprocessed.smi:45-3

> <Gold.Version>
5.8.1

> <Gold.Id.Protein>
6NUR|6NUR_protein|mol2

> <Gold.PLP.Fitness>
46.5796

> <Gold.PLP.PLP>
-42.1658

> <Gold.PLP.part.hbond>
-2.6350

> <Gold.PLP.part.metal>
0.0000

> <Gold.PLP.part.buried>
-3.7386

> <Gold.PLP.part.nonpolar>
-35.7179

> <Gold.PLP.part.repulsive>
0.1361

> <Gold.PLP.ligand.clash>
0.0000

> <Gold.PLP.ligand.torsion>
2.1426

> <Gold.PLP.Chemscore.Hbond>
2.7120

> <Gold.PLP.Chemscore.CHOScore>
0.0000

> <Gold.PLP.Chemscore.Metal>
0.0000

> <Gold.Chemscore.Hbonds>
donor molecule, donor type, donor heavy atom, donor atom, acceptor molecule, acceptor atom, score
      L1  H    18    52       P1  7948  1.00
      P1  H  6931  6943       L1     2  0.91
      P1  H  6934  6947       L1     2  0.75

> <Gold.PLP.Chemscore.Internal.Correction>
0.5630

> <Gold.Rescore>
     Score         DG    S(hbond)    S(metal)    S(lipo)     H(rot)  DE(clash)    DE(int)     intcor
     12.69     -16.53       1.95        0.00     103.03       2.94       0.15       3.69       ----

> <Gold.Chemscore.Fitness>
12.6872

> <Gold.Chemscore.DG>
-16.5328

> <Gold.Chemscore.ZeroCoef>
-5.4800

> <Gold.Chemscore.Hbond>
1.9530

> <Gold.Chemscore.Metal>
0.0000

> <Gold.Chemscore.Lipo>
103.0336

> <Gold.Chemscore.Internal_Hbond>
0.0000

> <Gold.Chemscore.DEClash>
0.1510

> <Gold.Chemscore.DEInternal>
3.6947

> <Gold.Chemscore.Rot>
2.9395

> <Gold.Chemscore.Internal.Correction>
   9.000000E+99

> <Gold.Chemscore.Hbonds>
donor molecule, donor type, donor heavy atom, donor atom, acceptor molecule, acceptor atom, score
      L1  H    18    52       P1  7948  0.98
      P1  H  6931  6943       L1     2  0.26
      P1  H  6934  6947       L1     2  0.50

> <Gold.Chemscore.Hbond.Weighted>
-6.5231

> <Gold.Chemscore.Metal.Weighted>
-0.0000

> <Gold.Chemscore.Lipo.Weighted>
-12.0549

> <Gold.Chemscore.Internal_Hbond.Weighted>
0.0000

> <Gold.Chemscore.DEClash.Weighted>
0.1510

> <Gold.Chemscore.DEInternal.Weighted>
3.6947

> <Gold.Chemscore.Rot.Weighted>
7.5251

> <Gold.Chemscore.Internal.Correction.Weighted>
   9.000000E+99

> <Gold.Protein.RotatedTorsions>
[ 6907 6896 6895 6894 ] final  104.55 input  -60.11 | X-H torsion
[ 7974 7965 7964 7962 ] final -141.85 input  175.53 | X-H torsion
[ 8008 7997 7996 7995 ] final  111.21 input   59.86 | X-H torsion
[ 10167 10162 10161 10158 ] final -165.81 input  -65.29 | X-H torsion
[ 10718 10713 10712 10709 ] final  -22.73 input   66.30 | X-H torsion
[ 10763 10752 10751 10750 ] final -157.28 input  -60.55 | X-H torsion
[ 11005 11000 10999 10996 ] final  -22.58 input  -57.11 | X-H torsion

> <Gold.Protein.ActiveResidues>
 VAL166  LYS551  ARG553  GLY616  TRP617  ASP618  TYR619  PRO620  LYS621  CYS622 
 ASP623  PHE694  ASN695  SER759  ASP760  ASP761  ALA762  ILE779  LEU786  VAL792 
 PHE793  MET794  SER795  GLU796  ALA797  LYS798  CYS799  TRP800  GLU811  SER814 

> <Gold.Protein.RotatedAtoms>
  152.5260  133.9660  159.7739 H   0  0  0  0  0  0  0  0  0  0  0  0  # atno 6907 bound_to 6896
  150.9941  133.6112  159.2711 H   0  0  0  0  0  0  0  0  0  0  0  0  # atno 6908 bound_to 6896
  151.3245  135.0833  159.9370 H   0  0  0  0  0  0  0  0  0  0  0  0  # atno 6909 bound_to 6896
  144.8488  140.6030  143.5404 H   0  0  0  0  0  0  0  0  0  0  0  0  # atno 7974 bound_to 7965
  156.2108  140.3023  155.9728 H   0  0  0  0  0  0  0  0  0  0  0  0  # atno 8008 bound_to 7997
  155.2728  140.0434  157.3025 H   0  0  0  0  0  0  0  0  0  0  0  0  # atno 8009 bound_to 7997
  154.5697  140.2344  155.8219 H   0  0  0  0  0  0  0  0  0  0  0  0  # atno 8010 bound_to 7997
  139.6157  144.0725  152.1885 H   0  0  0  0  0  0  0  0  0  0  0  0  # atno 10167 bound_to 10162
  156.5006  130.4587  149.6703 H   0  0  0  0  0  0  0  0  0  0  0  0  # atno 10718 bound_to 10713
  154.7648  135.3128  154.8308 H   0  0  0  0  0  0  0  0  0  0  0  0  # atno 10763 bound_to 10752
  153.9059  135.6811  153.4757 H   0  0  0  0  0  0  0  0  0  0  0  0  # atno 10764 bound_to 10752
  153.1252  135.4804  154.9194 H   0  0  0  0  0  0  0  0  0  0  0  0  # atno 10765 bound_to 10752
  140.8671  133.7747  156.0142 H   0  0  0  0  0  0  0  0  0  0  0  0  # atno 11005 bound_to 11000
  145.4542  139.1520  143.3901 LP  0  0  0  0  0  0  0  0  0  0  0  0  # atno 17320 bound_to 7965
  146.2767  140.4670  142.8792 LP  0  0  0  0  0  0  0  0  0  0  0  0  # atno 17321 bound_to 7965
  140.0355  144.6048  150.7453 LP  0  0  0  0  0  0  0  0  0  0  0  0  # atno 17342 bound_to 10162
  140.7349  143.2734  151.3816 LP  0  0  0  0  0  0  0  0  0  0  0  0  # atno 17343 bound_to 10162
  156.3336  130.7345  151.2278 LP  0  0  0  0  0  0  0  0  0  0  0  0  # atno 17370 bound_to 10713
  157.7463  131.0423  150.4687 LP  0  0  0  0  0  0  0  0  0  0  0  0  # atno 17371 bound_to 10713
  140.8616  134.2833  157.5231 LP  0  0  0  0  0  0  0  0  0  0  0  0  # atno 17394 bound_to 11000
  139.8710  134.9521  156.4105 LP  0  0  0  0  0  0  0  0  0  0  0  0  # atno 17395 bound_to 11000

$$$$
