AV-unprocessed.smi:767|AV-procd|sdf|3666|dock6
  -GOLD-   22720 1 73D 1   1.00000     0.00000
 Structure written by MMmdl.
 48 50  0  0  0  0  0  0  0  0  2 V2000
  151.2764  144.2589  158.5138 C   0  0  0  0  0  0  0  0  0  0  0  0
  151.2964  142.9421  157.7669 C   0  0  0  0  0  0  0  0  0  0  0  0
  152.0718  141.8432  158.1951 C   0  0  0  0  0  0  0  0  0  0  0  0
  152.0447  140.6478  157.4468 C   0  0  0  0  0  0  0  0  0  0  0  0
  151.2429  140.5752  156.2867 C   0  0  0  0  0  0  0  0  0  0  0  0
  151.2027  139.3082  155.4555 C   0  0  0  0  0  0  0  0  0  0  0  0
  150.0691  139.3373  154.4177 C   0  0  0  0  0  0  0  0  0  0  0  0
  149.5788  137.9975  154.1189 N   0  0  0  0  0  0  0  0  0  0  0  0
  149.1626  137.1143  155.0365 C   0  0  0  0  0  0  0  0  0  0  0  0
  149.1307  137.3409  156.2463 O   0  0  0  0  0  0  0  0  0  0  0  0
  148.7943  135.9528  154.4807 N   0  0  0  0  0  0  0  0  0  0  0  0
  148.3120  134.7909  155.2343 C   0  0  1  0  0  0  0  0  0  0  0  0
  147.5356  133.8003  154.3624 C   0  0  1  0  0  0  0  0  0  0  0  0
  146.8681  133.8440  153.0356 C   0  0  0  0  0  0  0  0  0  0  0  0
  147.3503  132.4567  152.5306 C   0  0  0  0  0  0  0  0  0  0  0  0
  148.3491  132.0096  153.4834 O   0  0  0  0  0  0  0  0  0  0  0  0
  148.8837  133.2105  154.0039 C   0  0  2  0  0  0  0  0  0  0  0  0
  149.3556  133.6180  155.4176 C   0  0  0  0  0  0  0  0  0  0  0  0
  150.8342  134.0067  155.5293 C   0  0  0  0  0  0  0  0  0  0  0  0
  149.0974  132.6206  156.5614 C   0  0  0  0  0  0  0  0  0  0  0  0
  150.4875  141.7053  155.9074 C   0  0  0  0  0  0  0  0  0  0  0  0
  150.5412  142.8322  156.6507 N   0  3  0  0  0  0  0  0  0  0  0  0
  151.9029  144.2148  159.4052 H   0  0  0  0  0  0  0  0  0  0  0  0
  150.2604  144.5048  158.8241 H   0  0  0  0  0  0  0  0  0  0  0  0
  151.6471  145.0629  157.8771 H   0  0  0  0  0  0  0  0  0  0  0  0
  152.6821  141.9122  159.0839 H   0  0  0  0  0  0  0  0  0  0  0  0
  152.6357  139.7993  157.7598 H   0  0  0  0  0  0  0  0  0  0  0  0
  152.1670  139.1803  154.9616 H   0  0  0  0  0  0  0  0  0  0  0  0
  151.0821  138.4509  156.1193 H   0  0  0  0  0  0  0  0  0  0  0  0
  149.2331  139.9271  154.7949 H   0  0  0  0  0  0  0  0  0  0  0  0
  150.4032  139.8245  153.4997 H   0  0  0  0  0  0  0  0  0  0  0  0
  149.5689  137.7185  153.1484 H   0  0  0  0  0  0  0  0  0  0  0  0
  148.8560  135.8570  153.4778 H   0  0  0  0  0  0  0  0  0  0  0  0
  147.7830  135.0475  156.1537 H   0  0  0  0  0  0  0  0  0  0  0  0
  146.9524  133.1515  155.0205 H   0  0  0  0  0  0  0  0  0  0  0  0
  145.7823  133.9101  153.1079 H   0  0  0  0  0  0  0  0  0  0  0  0
  147.2382  134.6587  152.4116 H   0  0  0  0  0  0  0  0  0  0  0  0
  146.5363  131.7326  152.4890 H   0  0  0  0  0  0  0  0  0  0  0  0
  147.7843  132.5353  151.5330 H   0  0  0  0  0  0  0  0  0  0  0  0
  149.4166  133.7591  153.2203 H   0  0  0  0  0  0  0  0  0  0  0  0
  151.4796  133.1282  155.5585 H   0  0  0  0  0  0  0  0  0  0  0  0
  151.0258  134.5875  156.4321 H   0  0  0  0  0  0  0  0  0  0  0  0
  151.1644  134.6086  154.6826 H   0  0  0  0  0  0  0  0  0  0  0  0
  149.6713  131.7041  156.4220 H   0  0  0  0  0  0  0  0  0  0  0  0
  148.0536  132.3257  156.6549 H   0  0  0  0  0  0  0  0  0  0  0  0
  149.3864  133.0421  157.5247 H   0  0  0  0  0  0  0  0  0  0  0  0
  149.8501  141.7442  155.0360 H   0  0  0  0  0  0  0  0  0  0  0  0
  149.9881  143.6370  156.3552 H   0  0  0  0  0  0  0  0  0  0  0  0
  1  2  1  0  0  0  0
  1 23  1  0  0  0  0
  1 24  1  0  0  0  0
  1 25  1  0  0  0  0
  2 22  1  0  0  0  0
  2  3  2  0  0  0  0
  3  4  1  0  0  0  0
  3 26  1  0  0  0  0
  4  5  2  0  0  0  0
  4 27  1  0  0  0  0
  5  6  1  0  0  0  0
  5 21  1  0  0  0  0
  6  7  1  0  0  0  0
  6 28  1  0  0  0  0
  6 29  1  0  0  0  0
  7  8  1  0  0  0  0
  7 30  1  0  0  0  0
  7 31  1  0  0  0  0
  8  9  1  0  0  0  0
  8 32  1  0  0  0  0
  9 10  2  0  0  0  0
  9 11  1  0  0  0  0
 11 12  1  0  0  0  0
 11 33  1  0  0  0  0
 12 18  1  0  0  0  0
 12 13  1  0  0  0  0
 12 34  1  0  0  0  0
 13 17  1  0  0  0  0
 13 14  1  0  0  0  0
 13 35  1  0  0  0  0
 14 15  1  0  0  0  0
 14 36  1  0  0  0  0
 14 37  1  0  0  0  0
 15 16  1  0  0  0  0
 15 38  1  0  0  0  0
 15 39  1  0  0  0  0
 16 17  1  0  0  0  0
 17 18  1  0  0  0  0
 17 40  1  0  0  0  0
 18 19  1  0  0  0  0
 18 20  1  0  0  0  0
 19 41  1  0  0  0  0
 19 42  1  0  0  0  0
 19 43  1  0  0  0  0
 20 44  1  0  0  0  0
 20 45  1  0  0  0  0
 20 46  1  0  0  0  0
 21 22  2  0  0  0  0
 21 47  1  0  0  0  0
 22 48  1  0  0  0  0
M  CHG  1  22   1
M  END
> <s_m_source_file>
AV-unprocessed.smi

> <i_m_source_file_index>
767

> <i_lp_mmshare_version>
43012

> <i_f3d_flags>
0

> <s_epik_input>
W0NIM11jMVtjSF1bY0hdYyhbY0hdbjEpW0NIMl1bQ0gyXVtOSF1DKD1PKVtOSF1bQ0BIXTJDKFtDSDNdKShbQ0gzXSlbQ0BIXShbQ0BASF0yMylPW0NIMl1bQ0gyXTM=

> <s_epik_cmdline>
J2VwaWtfcHl0aG9uJywgJy1waCcsICc3LjAnLCAnLXRuJywgJzgnLCAnLW1hJywgJzIwMCcsICctbWV0YWxfYmluZGluZycsICctaW1hZScsICc8aW5maWxlLm1hZT4nLCAnLW9tYWUnLCAnPG91dGZpbGUubWFlPic=

> <r_epik_Ionization_Penalty>
1.41853

> <r_epik_Ionization_Penalty_Charging>
1.41848

> <r_epik_Ionization_Penalty_Neutral>
5.17407e-05

> <r_epik_State_Penalty>
1.50205

> <r_epik_Charging_Adjusted_Penalty>
2.92053

> <i_epik_Tot_Q>
1

> <i_epik_Tot_abs_Q>
1

> <r_epik_Metal_State_Penalty>
1.5544

> <b_epik_Metal_Only>
0

> <s_lp_Force_Field>
OPLS_2005

> <r_lp_Energy>
64.9812

> <b_lp_Chiralities_Consistent>
1

> <s_lp_Variant>
AV-unprocessed.smi:767-10

> <Gold.Version>
5.8.1

> <Gold.Id.Protein>
6NUR|6NUR_protein|mol2

> <Gold.PLP.Fitness>
46.6358

> <Gold.PLP.PLP>
-35.8304

> <Gold.PLP.part.hbond>
-3.0000

> <Gold.PLP.part.metal>
0.0000

> <Gold.PLP.part.buried>
-5.8481

> <Gold.PLP.part.nonpolar>
-27.9987

> <Gold.PLP.part.repulsive>
0.2119

> <Gold.PLP.ligand.clash>
0.0000

> <Gold.PLP.ligand.torsion>
0.5745

> <Gold.PLP.Chemscore.Hbond>
3.8960

> <Gold.PLP.Chemscore.CHOScore>
0.0000

> <Gold.PLP.Chemscore.Metal>
0.0000

> <Gold.Chemscore.Hbonds>
donor molecule, donor type, donor heavy atom, donor atom, acceptor molecule, acceptor atom, score
      L1  H     8    32       P1  7948  0.90
      L1  H    11    33       P1  7948  1.00
      L1  H    22    48       P1  8028  2.00

> <Gold.PLP.Chemscore.Internal.Correction>
0.2662

> <Gold.Rescore>
     Score         DG    S(hbond)    S(metal)    S(lipo)     H(rot)  DE(clash)    DE(int)     intcor
     21.02     -22.69       2.85        0.00      98.97       1.52       0.02       1.65       ----

> <Gold.Chemscore.Fitness>
21.0215

> <Gold.Chemscore.DG>
-22.6875

> <Gold.Chemscore.ZeroCoef>
-5.4800

> <Gold.Chemscore.Hbond>
2.8524

> <Gold.Chemscore.Metal>
0.0000

> <Gold.Chemscore.Lipo>
98.9743

> <Gold.Chemscore.Internal_Hbond>
0.0000

> <Gold.Chemscore.DEClash>
0.0196

> <Gold.Chemscore.DEInternal>
1.6464

> <Gold.Chemscore.Rot>
1.5233

> <Gold.Chemscore.Internal.Correction>
   9.000000E+99

> <Gold.Chemscore.Hbonds>
donor molecule, donor type, donor heavy atom, donor atom, acceptor molecule, acceptor atom, score
      L1  H     8    32       P1  7948  0.68
      L1  H    11    33       P1  7948  0.96
      L1  H    22    48       P1  8028  1.00

> <Gold.Chemscore.Hbond.Weighted>
-9.5270

> <Gold.Chemscore.Metal.Weighted>
-0.0000

> <Gold.Chemscore.Lipo.Weighted>
-11.5800

> <Gold.Chemscore.Internal_Hbond.Weighted>
0.0000

> <Gold.Chemscore.DEClash.Weighted>
0.0196

> <Gold.Chemscore.DEInternal.Weighted>
1.6464

> <Gold.Chemscore.Rot.Weighted>
3.8995

> <Gold.Chemscore.Internal.Correction.Weighted>
   9.000000E+99

> <Gold.Protein.RotatedTorsions>
[ 6907 6896 6895 6894 ] final -143.79 input  -60.11 | X-H torsion
[ 7974 7965 7964 7962 ] final  -17.78 input  175.53 | X-H torsion
[ 8008 7997 7996 7995 ] final -124.01 input   59.86 | X-H torsion
[ 10167 10162 10161 10158 ] final -124.12 input  -65.29 | X-H torsion
[ 10718 10713 10712 10709 ] final  168.45 input   66.30 | X-H torsion
[ 10763 10752 10751 10750 ] final   24.88 input  -60.55 | X-H torsion
[ 11005 11000 10999 10996 ] final -169.55 input  -57.11 | X-H torsion

> <Gold.Protein.ActiveResidues>
 VAL166  LYS551  ARG553  GLY616  TRP617  ASP618  TYR619  PRO620  LYS621  CYS622 
 ASP623  PHE694  ASN695  SER759  ASP760  ASP761  ALA762  ILE779  LEU786  VAL792 
 PHE793  MET794  SER795  GLU796  ALA797  LYS798  CYS799  TRP800  GLU811  SER814 

> <Gold.Protein.RotatedAtoms>
  151.1053  133.5213  159.2607 H   0  0  0  0  0  0  0  0  0  0  0  0  # atno 6907 bound_to 6896
  151.2028  135.0449  159.8889 H   0  0  0  0  0  0  0  0  0  0  0  0  # atno 6908 bound_to 6896
  152.5446  134.0879  159.8317 H   0  0  0  0  0  0  0  0  0  0  0  0  # atno 6909 bound_to 6896
  146.1924  140.3827  142.8453 H   0  0  0  0  0  0  0  0  0  0  0  0  # atno 7974 bound_to 7965
  155.1898  140.0413  157.2898 H   0  0  0  0  0  0  0  0  0  0  0  0  # atno 8008 bound_to 7997
  154.6146  140.2485  155.7597 H   0  0  0  0  0  0  0  0  0  0  0  0  # atno 8009 bound_to 7997
  156.2399  140.2907  156.0425 H   0  0  0  0  0  0  0  0  0  0  0  0  # atno 8010 bound_to 7997
  139.9962  143.5589  152.2322 H   0  0  0  0  0  0  0  0  0  0  0  0  # atno 10167 bound_to 10162
  157.0369  131.0275  151.2726 H   0  0  0  0  0  0  0  0  0  0  0  0  # atno 10718 bound_to 10713
  153.0732  135.6595  154.0203 H   0  0  0  0  0  0  0  0  0  0  0  0  # atno 10763 bound_to 10752
  153.9843  135.2952  155.3419 H   0  0  0  0  0  0  0  0  0  0  0  0  # atno 10764 bound_to 10752
  154.7112  135.5204  153.8740 H   0  0  0  0  0  0  0  0  0  0  0  0  # atno 10765 bound_to 10752
  140.5295  134.5630  157.5071 H   0  0  0  0  0  0  0  0  0  0  0  0  # atno 11005 bound_to 11000
  144.8513  140.7006  143.6166 LP  0  0  0  0  0  0  0  0  0  0  0  0  # atno 17320 bound_to 7965
  145.3750  139.1650  143.4311 LP  0  0  0  0  0  0  0  0  0  0  0  0  # atno 17321 bound_to 7965
  139.6304  144.7643  151.2548 LP  0  0  0  0  0  0  0  0  0  0  0  0  # atno 17342 bound_to 10162
  140.7436  143.6489  150.8267 LP  0  0  0  0  0  0  0  0  0  0  0  0  # atno 17343 bound_to 10162
  157.5134  130.7953  149.7730 LP  0  0  0  0  0  0  0  0  0  0  0  0  # atno 17370 bound_to 10713
  156.0051  130.3860  150.2462 LP  0  0  0  0  0  0  0  0  0  0  0  0  # atno 17371 bound_to 10713
  139.9562  134.7531  156.0337 LP  0  0  0  0  0  0  0  0  0  0  0  0  # atno 17394 bound_to 11000
  141.1289  133.6591  156.3411 LP  0  0  0  0  0  0  0  0  0  0  0  0  # atno 17395 bound_to 11000

$$$$
