AV-unprocessed.smi:277|AV-procd|sdf|2086|dock8
  -GOLD-   2262021363D 1   1.00000     0.00000
 Structure written by MMmdl.
 54 58  0  0  0  0  0  0  0  0  1 V2000
  152.9463  139.7015  157.2952 O   0  0  0  0  0  0  0  0  0  0  0  0
  151.9627  140.4060  157.0739 C   0  0  0  0  0  0  0  0  0  0  0  0
  151.0520  140.1995  155.8780 C   0  0  0  0  0  0  0  0  0  0  0  0
  150.0658  141.2557  156.0756 N   0  0  0  0  0  0  0  0  0  0  0  0
  148.9074  141.3200  155.3683 C   0  0  0  0  0  0  0  0  0  0  0  0
  148.9164  140.8843  154.0807 N   0  0  0  0  0  0  0  0  0  0  0  0
  147.8045  140.9194  153.3420 C   0  0  0  0  0  0  0  0  0  0  0  0
  146.5892  141.3452  153.6865 N   0  0  0  0  0  0  0  0  0  0  0  0
  146.5684  141.7903  154.9750 C   0  0  0  0  0  0  0  0  0  0  0  0
  147.6715  141.8209  155.8771 C   0  0  0  0  0  0  0  0  0  0  0  0
  147.2605  142.3611  157.0914 N   0  0  0  0  0  0  0  0  0  0  0  0
  145.9950  142.6263  156.9188 C   0  0  0  0  0  0  0  0  0  0  0  0
  145.4903  142.2947  155.6824 N   0  0  0  0  0  0  0  0  0  0  0  0
  144.1223  142.4781  155.2168 C   0  0  0  0  0  0  0  0  0  0  0  0
  143.6140  143.9534  155.1749 C   0  0  0  0  0  0  0  0  0  0  0  0
  144.5343  144.7407  154.1986 C   0  0  0  0  0  0  0  0  0  0  0  0
  144.4301  144.2809  152.8657 O   0  0  0  0  0  0  0  0  0  0  0  0
  142.1266  144.0379  154.7407 C   0  0  0  0  0  0  0  0  0  0  0  0
  141.5472  145.4570  154.8828 C   0  0  0  0  0  0  0  0  0  0  0  0
  141.6787  145.8993  156.2281 O   0  0  0  0  0  0  0  0  0  0  0  0
  143.0318  145.9811  156.6581 C   0  0  0  0  0  0  0  0  0  0  0  0
  143.6948  144.5920  156.5862 C   0  0  0  0  0  0  0  0  0  0  0  0
  150.3017  142.0079  157.3006 C   0  0  0  0  0  0  0  0  0  0  0  0
  151.5282  141.4274  157.8217 N   0  0  0  0  0  0  0  0  0  0  0  0
  152.0943  141.8977  159.0834 C   0  0  0  0  0  0  0  0  0  0  0  0
  152.6250  143.3199  159.0799 C   0  0  0  0  0  0  0  0  0  0  0  0
  151.8087  144.4650  159.6359 C   0  0  0  0  0  0  0  0  0  0  0  0
  152.0254  144.3473  158.1480 C   0  0  0  0  0  0  0  0  0  0  0  0
  151.5967  140.3329  154.9426 H   0  0  0  0  0  0  0  0  0  0  0  0
  150.6031  139.2056  155.9085 H   0  0  0  0  0  0  0  0  0  0  0  0
  147.9021  140.5515  152.3312 H   0  0  0  0  0  0  0  0  0  0  0  0
  145.3884  143.0657  157.6972 H   0  0  0  0  0  0  0  0  0  0  0  0
  144.0473  142.0324  154.2239 H   0  0  0  0  0  0  0  0  0  0  0  0
  143.4808  141.8740  155.8593 H   0  0  0  0  0  0  0  0  0  0  0  0
  144.3098  145.8055  154.1902 H   0  0  0  0  0  0  0  0  0  0  0  0
  145.5764  144.6532  154.5080 H   0  0  0  0  0  0  0  0  0  0  0  0
  143.6603  143.7374  152.7937 H   0  0  0  0  0  0  0  0  0  0  0  0
  141.9992  143.6815  153.7185 H   0  0  0  0  0  0  0  0  0  0  0  0
  141.5173  143.3837  155.3632 H   0  0  0  0  0  0  0  0  0  0  0  0
  142.0273  146.1602  154.2020 H   0  0  0  0  0  0  0  0  0  0  0  0
  140.4883  145.4496  154.6244 H   0  0  0  0  0  0  0  0  0  0  0  0
  143.5719  146.7219  156.0687 H   0  0  0  0  0  0  0  0  0  0  0  0
  143.0442  146.3408  157.6871 H   0  0  0  0  0  0  0  0  0  0  0  0
  143.1846  143.9625  157.3135 H   0  0  0  0  0  0  0  0  0  0  0  0
  144.7325  144.6568  156.9157 H   0  0  0  0  0  0  0  0  0  0  0  0
  150.4384  143.0694  157.0901 H   0  0  0  0  0  0  0  0  0  0  0  0
  149.4866  141.8769  158.0137 H   0  0  0  0  0  0  0  0  0  0  0  0
  151.3287  141.8310  159.8575 H   0  0  0  0  0  0  0  0  0  0  0  0
  152.8897  141.2155  159.3861 H   0  0  0  0  0  0  0  0  0  0  0  0
  153.7040  143.3855  159.2082 H   0  0  0  0  0  0  0  0  0  0  0  0
  150.8160  144.2390  160.0201 H   0  0  0  0  0  0  0  0  0  0  0  0
  152.3442  145.2510  160.1644 H   0  0  0  0  0  0  0  0  0  0  0  0
  152.7038  145.0579  157.6805 H   0  0  0  0  0  0  0  0  0  0  0  0
  151.1744  144.0457  157.5402 H   0  0  0  0  0  0  0  0  0  0  0  0
  1  2  2  0  0  0  0
  2 24  1  0  0  0  0
  2  3  1  0  0  0  0
  3  4  1  0  0  0  0
  3 29  1  0  0  0  0
  3 30  1  0  0  0  0
  4  5  1  0  0  0  0
  4 23  1  0  0  0  0
  5 10  1  0  0  0  0
  5  6  2  0  0  0  0
  6  7  1  0  0  0  0
  7  8  2  0  0  0  0
  7 31  1  0  0  0  0
  8  9  1  0  0  0  0
  9 13  1  0  0  0  0
  9 10  2  0  0  0  0
 10 11  1  0  0  0  0
 11 12  2  0  0  0  0
 12 13  1  0  0  0  0
 12 32  1  0  0  0  0
 13 14  1  0  0  0  0
 14 15  1  0  0  0  0
 14 33  1  0  0  0  0
 14 34  1  0  0  0  0
 15 22  1  0  0  0  0
 15 16  1  0  0  0  0
 15 18  1  0  0  0  0
 16 17  1  0  0  0  0
 16 35  1  0  0  0  0
 16 36  1  0  0  0  0
 17 37  1  0  0  0  0
 18 19  1  0  0  0  0
 18 38  1  0  0  0  0
 18 39  1  0  0  0  0
 19 20  1  0  0  0  0
 19 40  1  0  0  0  0
 19 41  1  0  0  0  0
 20 21  1  0  0  0  0
 21 22  1  0  0  0  0
 21 42  1  0  0  0  0
 21 43  1  0  0  0  0
 22 44  1  0  0  0  0
 22 45  1  0  0  0  0
 23 24  1  0  0  0  0
 23 46  1  0  0  0  0
 23 47  1  0  0  0  0
 24 25  1  0  0  0  0
 25 26  1  0  0  0  0
 25 48  1  0  0  0  0
 25 49  1  0  0  0  0
 26 28  1  0  0  0  0
 26 27  1  0  0  0  0
 26 50  1  0  0  0  0
 27 28  1  0  0  0  0
 27 51  1  0  0  0  0
 27 52  1  0  0  0  0
 28 53  1  0  0  0  0
 28 54  1  0  0  0  0
M  END
> <s_m_source_file>
AV-unprocessed.smi

> <i_m_source_file_index>
277

> <i_lp_mmshare_version>
43012

> <i_f3d_flags>
0

> <s_epik_input>
W0NIMl0xW0NIMl1bQ0hdMVtDSDJdTjJbQ0gyXU4oW0NIMl1DMj1PKWMobltjSF1uMyljKGMzNCluW2NIXW40W0NIMl1DNShbQ0gyXVtPSF0pW0NIMl1bQ0gyXU9bQ0gyXVtDSDJdNQ==

> <s_epik_cmdline>
J2VwaWtfcHl0aG9uJywgJy1waCcsICc3LjAnLCAnLXRuJywgJzgnLCAnLW1hJywgJzIwMCcsICctbWV0YWxfYmluZGluZycsICctaW1hZScsICc8aW5maWxlLm1hZT4nLCAnLW9tYWUnLCAnPG91dGZpbGUubWFlPic=

> <r_lp_tautomer_probability>
1

> <r_epik_Ionization_Penalty>
0.00033977

> <r_epik_Ionization_Penalty_Charging>
0

> <r_epik_Ionization_Penalty_Neutral>
0.00033977

> <r_epik_State_Penalty>
-0

> <r_epik_Charging_Adjusted_Penalty>
0

> <i_epik_Tot_Q>
0

> <i_epik_Tot_abs_Q>
0

> <r_epik_Metal_State_Penalty>
-0

> <b_epik_Metal_Only>
0

> <s_epik_Chemistry_Notes>
This compound contains an acetal/aminal-like group ( X-CH(R)-Y where X, Y are N, S, or O) that may be acid/base labile, releasing an aldehyde.

> <s_lp_Force_Field>
OPLS_2005

> <r_lp_Energy>
42.4244

> <b_lp_Chiralities_Consistent>
1

> <s_lp_Variant>
AV-unprocessed.smi:277-1

> <Gold.Version>
5.8.1

> <Gold.Id.Protein>
6NUR|6NUR_protein|mol2

> <Gold.PLP.Fitness>
55.3677

> <Gold.PLP.PLP>
-47.3510

> <Gold.PLP.part.hbond>
-2.5161

> <Gold.PLP.part.metal>
0.0000

> <Gold.PLP.part.buried>
-5.6278

> <Gold.PLP.part.nonpolar>
-41.7242

> <Gold.PLP.part.repulsive>
1.4098

> <Gold.PLP.ligand.clash>
0.0000

> <Gold.PLP.ligand.torsion>
0.8195

> <Gold.PLP.Chemscore.Hbond>
2.0000

> <Gold.PLP.Chemscore.CHOScore>
1.0000

> <Gold.PLP.Chemscore.Metal>
0.0000

> <Gold.Chemscore.Hbonds>
donor molecule, donor type, donor heavy atom, donor atom, acceptor molecule, acceptor atom, score
      L1  H    17    37       P1 10174  1.00
      P1  H  7997  8008       L1     1  1.00
      L1  C     7    31       P1  7957  1.00

> <Gold.PLP.Chemscore.Internal.Correction>
0.6557

> <Gold.Rescore>
     Score         DG    S(hbond)    S(metal)    S(lipo)     H(rot)  DE(clash)    DE(int)     intcor
     11.58     -14.76       1.69        0.00      92.44       2.80       0.46       2.72       ----

> <Gold.Chemscore.Fitness>
11.5822

> <Gold.Chemscore.DG>
-14.7649

> <Gold.Chemscore.ZeroCoef>
-5.4800

> <Gold.Chemscore.Hbond>
1.6892

> <Gold.Chemscore.Metal>
0.0000

> <Gold.Chemscore.Lipo>
92.4436

> <Gold.Chemscore.Internal_Hbond>
0.0000

> <Gold.Chemscore.DEClash>
0.4607

> <Gold.Chemscore.DEInternal>
2.7220

> <Gold.Chemscore.Rot>
2.8019

> <Gold.Chemscore.Internal.Correction>
   9.000000E+99

> <Gold.Chemscore.Hbonds>
donor molecule, donor type, donor heavy atom, donor atom, acceptor molecule, acceptor atom, score
      L1  H    17    37       P1 10174  0.81
      P1  H  7997  8008       L1     1  0.99

> <Gold.Chemscore.Hbond.Weighted>
-5.6419

> <Gold.Chemscore.Metal.Weighted>
-0.0000

> <Gold.Chemscore.Lipo.Weighted>
-10.8159

> <Gold.Chemscore.Internal_Hbond.Weighted>
0.0000

> <Gold.Chemscore.DEClash.Weighted>
0.4607

> <Gold.Chemscore.DEInternal.Weighted>
2.7220

> <Gold.Chemscore.Rot.Weighted>
7.1729

> <Gold.Chemscore.Internal.Correction.Weighted>
   9.000000E+99

> <Gold.Protein.RotatedTorsions>
[ 6907 6896 6895 6894 ] final  -15.64 input  -60.11 | X-H torsion
[ 7974 7965 7964 7962 ] final  104.44 input  175.53 | X-H torsion
[ 8008 7997 7996 7995 ] final  -75.94 input   59.86 | X-H torsion
[ 10167 10162 10161 10158 ] final -114.00 input  -65.29 | X-H torsion
[ 10718 10713 10712 10709 ] final   68.86 input   66.30 | X-H torsion
[ 10763 10752 10751 10750 ] final -112.90 input  -60.55 | X-H torsion
[ 11005 11000 10999 10996 ] final  -60.58 input  -57.11 | X-H torsion

> <Gold.Protein.ActiveResidues>
 VAL166  LYS551  ARG553  GLY616  TRP617  ASP618  TYR619  PRO620  LYS621  CYS622 
 ASP623  PHE694  ASN695  SER759  ASP760  ASP761  ALA762  ILE779  LEU786  VAL792 
 PHE793  MET794  SER795  GLU796  ALA797  LYS798  CYS799  TRP800  GLU811  SER814 

> <Gold.Protein.RotatedAtoms>
  151.3208  135.0818  159.9304 H   0  0  0  0  0  0  0  0  0  0  0  0  # atno 6907 bound_to 6896
  152.5257  133.9641  159.7741 H   0  0  0  0  0  0  0  0  0  0  0  0  # atno 6908 bound_to 6896
  150.9961  133.6049  159.2731 H   0  0  0  0  0  0  0  0  0  0  0  0  # atno 6909 bound_to 6896
  145.3327  139.2482  143.3652 H   0  0  0  0  0  0  0  0  0  0  0  0  # atno 7974 bound_to 7965
  154.5461  140.0735  156.8590 H   0  0  0  0  0  0  0  0  0  0  0  0  # atno 8008 bound_to 7997
  155.3085  140.3388  155.4226 H   0  0  0  0  0  0  0  0  0  0  0  0  # atno 8009 bound_to 7997
  156.1919  140.1689  156.8061 H   0  0  0  0  0  0  0  0  0  0  0  0  # atno 8010 bound_to 7997
  140.1058  143.4572  152.1784 H   0  0  0  0  0  0  0  0  0  0  0  0  # atno 10167 bound_to 10162
  157.6313  130.9396  150.0435 H   0  0  0  0  0  0  0  0  0  0  0  0  # atno 10718 bound_to 10713
  154.8371  135.4474  154.1265 H   0  0  0  0  0  0  0  0  0  0  0  0  # atno 10763 bound_to 10752
  153.2487  135.6924  153.7709 H   0  0  0  0  0  0  0  0  0  0  0  0  # atno 10764 bound_to 10752
  153.7029  135.3369  155.3205 H   0  0  0  0  0  0  0  0  0  0  0  0  # atno 10765 bound_to 10752
  141.1292  133.6623  156.5245 H   0  0  0  0  0  0  0  0  0  0  0  0  # atno 11005 bound_to 11000
  146.3039  140.3909  142.8694 LP  0  0  0  0  0  0  0  0  0  0  0  0  # atno 17320 bound_to 7965
  144.8851  140.7451  143.5962 LP  0  0  0  0  0  0  0  0  0  0  0  0  # atno 17321 bound_to 7965
  139.5646  144.7427  151.4058 LP  0  0  0  0  0  0  0  0  0  0  0  0  # atno 17342 bound_to 10162
  140.6953  143.7764  150.7317 LP  0  0  0  0  0  0  0  0  0  0  0  0  # atno 17343 bound_to 10162
  156.1519  130.3642  149.9425 LP  0  0  0  0  0  0  0  0  0  0  0  0  # atno 17370 bound_to 10713
  156.7443  130.9091  151.3634 LP  0  0  0  0  0  0  0  0  0  0  0  0  # atno 17371 bound_to 10713
  140.4265  134.7140  157.4919 LP  0  0  0  0  0  0  0  0  0  0  0  0  # atno 17394 bound_to 11000
  140.0323  134.6388  155.9090 LP  0  0  0  0  0  0  0  0  0  0  0  0  # atno 17395 bound_to 11000

$$$$
