AV-unprocessed.smi:2742|AV-procd|sdf|10562|dock2
  -GOLD-   2272015 13D 1   1.00000     0.00000
 Structure written by MMmdl.
 37 38  0  0  0  0  0  0  0  0  1 V2000
  144.5699  143.4847  156.3509 C   0  0  0  0  0  0  0  0  0  0  0  0
  145.1554  143.4367  154.6357 S   0  0  0  0  0  0  0  0  0  0  0  0
  146.1441  141.9125  154.6556 C   0  0  2  0  0  0  0  0  0  0  0  0
  147.2956  142.0362  155.6685 C   0  0  0  0  0  0  0  0  0  0  0  0
  148.1604  140.7668  155.6942 C   0  0  0  0  0  0  0  0  0  0  0  0
  148.7086  140.4382  154.2955 C   0  0  0  0  0  0  0  0  0  0  0  0
  147.5857  140.3254  153.2424 C   0  0  1  0  0  0  0  0  0  0  0  0
  146.7818  139.1209  153.4491 N   0  0  0  0  0  0  0  0  0  0  0  0
  146.4539  138.2327  152.4994 C   0  0  0  0  0  0  0  0  0  0  0  0
  146.7874  138.3493  151.3206 O   0  0  0  0  0  0  0  0  0  0  0  0
  145.7199  137.2284  153.0093 N   0  0  0  0  0  0  0  0  0  0  0  0
  145.1784  136.0849  152.3578 C   0  0  0  0  0  0  0  0  0  0  0  0
  145.3761  135.7705  150.9908 C   0  0  0  0  0  0  0  0  0  0  0  0
  144.7920  134.5954  150.4765 C   0  0  0  0  0  0  0  0  0  0  0  0
  144.0553  133.7430  151.2197 N   0  0  0  0  0  0  0  0  0  0  0  0
  143.8776  134.0393  152.5242 C   0  0  0  0  0  0  0  0  0  0  0  0
  144.4168  135.1881  153.1373 C   0  0  0  0  0  0  0  0  0  0  0  0
  144.2026  135.4230  154.4546 F   0  0  0  0  0  0  0  0  0  0  0  0
  146.6882  141.5794  153.2504 C   0  0  0  0  0  0  0  0  0  0  0  0
  143.9687  144.3792  156.5139 H   0  0  0  0  0  0  0  0  0  0  0  0
  145.4132  143.5065  157.0413 H   0  0  0  0  0  0  0  0  0  0  0  0
  143.9547  142.6144  156.5769 H   0  0  0  0  0  0  0  0  0  0  0  0
  145.4879  141.1070  154.9875 H   0  0  0  0  0  0  0  0  0  0  0  0
  147.9190  142.8950  155.4153 H   0  0  0  0  0  0  0  0  0  0  0  0
  146.8967  142.2274  156.6653 H   0  0  0  0  0  0  0  0  0  0  0  0
  148.9863  140.8952  156.3945 H   0  0  0  0  0  0  0  0  0  0  0  0
  147.5701  139.9287  156.0666 H   0  0  0  0  0  0  0  0  0  0  0  0
  149.4009  141.2250  153.9935 H   0  0  0  0  0  0  0  0  0  0  0  0
  149.2952  139.5193  154.3297 H   0  0  0  0  0  0  0  0  0  0  0  0
  148.0458  140.2592  152.2548 H   0  0  0  0  0  0  0  0  0  0  0  0
  146.4611  138.9478  154.3905 H   0  0  0  0  0  0  0  0  0  0  0  0
  145.4844  137.3090  153.9878 H   0  0  0  0  0  0  0  0  0  0  0  0
  145.9637  136.3886  150.3311 H   0  0  0  0  0  0  0  0  0  0  0  0
  144.9255  134.3308  149.4381 H   0  0  0  0  0  0  0  0  0  0  0  0
  143.2893  133.3387  153.0980 H   0  0  0  0  0  0  0  0  0  0  0  0
  145.8691  141.4476  152.5435 H   0  0  0  0  0  0  0  0  0  0  0  0
  147.2672  142.4284  152.8837 H   0  0  0  0  0  0  0  0  0  0  0  0
  1  2  1  0  0  0  0
  1 20  1  0  0  0  0
  1 21  1  0  0  0  0
  1 22  1  0  0  0  0
  2  3  1  0  0  0  0
  3 19  1  0  0  0  0
  3  4  1  0  0  0  0
  3 23  1  0  0  0  0
  4  5  1  0  0  0  0
  4 24  1  0  0  0  0
  4 25  1  0  0  0  0
  5  6  1  0  0  0  0
  5 26  1  0  0  0  0
  5 27  1  0  0  0  0
  6  7  1  0  0  0  0
  6 28  1  0  0  0  0
  6 29  1  0  0  0  0
  7  8  1  0  0  0  0
  7 19  1  0  0  0  0
  7 30  1  0  0  0  0
  8  9  1  0  0  0  0
  8 31  1  0  0  0  0
  9 10  2  0  0  0  0
  9 11  1  0  0  0  0
 11 12  1  0  0  0  0
 11 32  1  0  0  0  0
 12 17  1  0  0  0  0
 12 13  2  0  0  0  0
 13 14  1  0  0  0  0
 13 33  1  0  0  0  0
 14 15  2  0  0  0  0
 14 34  1  0  0  0  0
 15 16  1  0  0  0  0
 16 17  2  0  0  0  0
 16 35  1  0  0  0  0
 17 18  1  0  0  0  0
 19 36  1  0  0  0  0
 19 37  1  0  0  0  0
M  END
> <s_m_source_file>
AV-unprocessed.smi

> <i_m_source_file_index>
2742

> <i_lp_mmshare_version>
43012

> <i_f3d_flags>
0

> <s_epik_input>
W0NIM11TW0NAQEhdMVtDSDJdW0NIMl1bQ0gyXVtDQEhdKFtDSDJdMSlbTkhdQyg9TylbTkhdYzJbY0hdW2NIXW5bY0hdYzJG

> <s_epik_cmdline>
J2VwaWtfcHl0aG9uJywgJy1waCcsICc3LjAnLCAnLXRuJywgJzgnLCAnLW1hJywgJzIwMCcsICctbWV0YWxfYmluZGluZycsICctaW1hZScsICc8aW5maWxlLm1hZT4nLCAnLW9tYWUnLCAnPG91dGZpbGUubWFlPic=

> <r_epik_Ionization_Penalty>
0.00344009

> <r_epik_Ionization_Penalty_Charging>
0

> <r_epik_Ionization_Penalty_Neutral>
0.00344009

> <r_epik_State_Penalty>
0.0024078

> <r_epik_Charging_Adjusted_Penalty>
0.0024078

> <i_epik_Tot_Q>
0

> <i_epik_Tot_abs_Q>
0

> <r_epik_Metal_State_Penalty>
-0

> <b_epik_Metal_Only>
0

> <s_lp_Force_Field>
OPLS_2005

> <r_lp_Energy>
13.9457

> <b_lp_Chiralities_Consistent>
1

> <s_lp_Variant>
AV-unprocessed.smi:2742-1

> <Gold.Version>
5.8.1

> <Gold.Id.Protein>
6NUR|6NUR_protein|mol2

> <Gold.PLP.Fitness>
35.8939

> <Gold.PLP.PLP>
-27.1944

> <Gold.PLP.part.hbond>
-1.0000

> <Gold.PLP.part.metal>
0.0000

> <Gold.PLP.part.buried>
-2.5754

> <Gold.PLP.part.nonpolar>
-25.9687

> <Gold.PLP.part.repulsive>
1.0870

> <Gold.PLP.ligand.clash>
0.0000

> <Gold.PLP.ligand.torsion>
0.1566

> <Gold.PLP.Chemscore.Hbond>
1.0000

> <Gold.PLP.Chemscore.CHOScore>
2.0000

> <Gold.PLP.Chemscore.Metal>
0.0000

> <Gold.Chemscore.Hbonds>
donor molecule, donor type, donor heavy atom, donor atom, acceptor molecule, acceptor atom, score
      P1  H  7954  7966       L1    10  0.98
      L1  C    14    34       P1  7921  1.00
      L1  C    16    35       P1 10957  1.00

> <Gold.PLP.Chemscore.Internal.Correction>
0.0126

> <Gold.Rescore>
     Score         DG    S(hbond)    S(metal)    S(lipo)     H(rot)  DE(clash)    DE(int)     intcor
     10.80     -13.57       0.96        0.00      67.63       1.19       1.49       1.27       ----

> <Gold.Chemscore.Fitness>
10.8012

> <Gold.Chemscore.DG>
-13.5697

> <Gold.Chemscore.ZeroCoef>
-5.4800

> <Gold.Chemscore.Hbond>
0.9631

> <Gold.Chemscore.Metal>
0.0000

> <Gold.Chemscore.Lipo>
67.6306

> <Gold.Chemscore.Internal_Hbond>
0.0000

> <Gold.Chemscore.DEClash>
1.4941

> <Gold.Chemscore.DEInternal>
1.2744

> <Gold.Chemscore.Rot>
1.1875

> <Gold.Chemscore.Internal.Correction>
   9.000000E+99

> <Gold.Chemscore.Hbonds>
donor molecule, donor type, donor heavy atom, donor atom, acceptor molecule, acceptor atom, score
      P1  H  7954  7966       L1    10  0.92

> <Gold.Chemscore.Hbond.Weighted>
-3.2169

> <Gold.Chemscore.Metal.Weighted>
-0.0000

> <Gold.Chemscore.Lipo.Weighted>
-7.9128

> <Gold.Chemscore.Internal_Hbond.Weighted>
0.0000

> <Gold.Chemscore.DEClash.Weighted>
1.4941

> <Gold.Chemscore.DEInternal.Weighted>
1.2744

> <Gold.Chemscore.Rot.Weighted>
3.0400

> <Gold.Chemscore.Internal.Correction.Weighted>
   9.000000E+99

> <Gold.Protein.RotatedTorsions>
[ 6907 6896 6895 6894 ] final   64.01 input  -60.11 | X-H torsion
[ 7974 7965 7964 7962 ] final   28.81 input  175.53 | X-H torsion
[ 8008 7997 7996 7995 ] final -149.64 input   59.86 | X-H torsion
[ 10167 10162 10161 10158 ] final  -25.07 input  -65.29 | X-H torsion
[ 10718 10713 10712 10709 ] final -110.23 input   66.30 | X-H torsion
[ 10763 10752 10751 10750 ] final  -54.00 input  -60.55 | X-H torsion
[ 11005 11000 10999 10996 ] final    0.89 input  -57.11 | X-H torsion

> <Gold.Protein.ActiveResidues>
 VAL166  LYS551  ARG553  GLY616  TRP617  ASP618  TYR619  PRO620  LYS621  CYS622 
 ASP623  PHE694  ASN695  SER759  ASP760  ASP761  ALA762  ILE779  LEU786  VAL792 
 PHE793  MET794  SER795  GLU796  ALA797  LYS798  CYS799  TRP800  GLU811  SER814 

> <Gold.Protein.RotatedAtoms>
  152.4298  134.5800  159.9944 H   0  0  0  0  0  0  0  0  0  0  0  0  # atno 6907 bound_to 6896
  151.5926  133.3359  159.3039 H   0  0  0  0  0  0  0  0  0  0  0  0  # atno 6908 bound_to 6896
  150.8190  134.7423  159.6820 H   0  0  0  0  0  0  0  0  0  0  0  0  # atno 6909 bound_to 6896
  146.1707  139.7006  142.8969 H   0  0  0  0  0  0  0  0  0  0  0  0  # atno 7974 bound_to 7965
  155.6109  140.0671  157.2706 H   0  0  0  0  0  0  0  0  0  0  0  0  # atno 8008 bound_to 7997
  154.4254  140.1801  156.1319 H   0  0  0  0  0  0  0  0  0  0  0  0  # atno 8009 bound_to 7997
  156.0086  140.3329  155.6921 H   0  0  0  0  0  0  0  0  0  0  0  0  # atno 8010 bound_to 7997
  140.7287  143.4297  151.0821 H   0  0  0  0  0  0  0  0  0  0  0  0  # atno 10167 bound_to 10162
  156.0580  130.5805  150.8209 H   0  0  0  0  0  0  0  0  0  0  0  0  # atno 10718 bound_to 10713
  154.1679  135.6464  153.5002 H   0  0  0  0  0  0  0  0  0  0  0  0  # atno 10763 bound_to 10752
  153.0092  135.5376  154.6643 H   0  0  0  0  0  0  0  0  0  0  0  0  # atno 10764 bound_to 10752
  154.5975  135.2940  155.0543 H   0  0  0  0  0  0  0  0  0  0  0  0  # atno 10765 bound_to 10752
  140.6216  133.9656  155.8227 H   0  0  0  0  0  0  0  0  0  0  0  0  # atno 11005 bound_to 11000
  145.4346  141.0418  143.2891 LP  0  0  0  0  0  0  0  0  0  0  0  0  # atno 17320 bound_to 7965
  144.8159  139.5877  143.7008 LP  0  0  0  0  0  0  0  0  0  0  0  0  # atno 17321 bound_to 7965
  139.7953  143.8161  152.3157 LP  0  0  0  0  0  0  0  0  0  0  0  0  # atno 17342 bound_to 10162
  139.8158  144.7316  150.9637 LP  0  0  0  0  0  0  0  0  0  0  0  0  # atno 17343 bound_to 10162
  157.5565  131.0945  150.9620 LP  0  0  0  0  0  0  0  0  0  0  0  0  # atno 17370 bound_to 10713
  156.9868  130.5548  149.5300 LP  0  0  0  0  0  0  0  0  0  0  0  0  # atno 17371 bound_to 10713
  141.0738  134.0165  157.3487 LP  0  0  0  0  0  0  0  0  0  0  0  0  # atno 17394 bound_to 11000
  139.9151  135.0196  156.7849 LP  0  0  0  0  0  0  0  0  0  0  0  0  # atno 17395 bound_to 11000

$$$$
