AV-unprocessed.smi:1749|AV-procd|sdf|7048|dock5
  -GOLD-   22720 8263D 1   1.00000     0.00000
 Structure written by MMmdl.
 31 32  0  0  0  0  0  0  0  0  2 V2000
  152.0533  145.0518  159.3893 C   0  0  0  0  0  0  0  0  0  0  0  0
  152.1657  143.6648  160.0377 C   0  0  2  0  0  0  0  0  0  0  0  0
  152.2799  143.7670  161.5708 C   0  0  0  0  0  0  0  0  0  0  0  0
  152.3983  142.3802  162.2225 C   0  0  0  0  0  0  0  0  0  0  0  0
  153.5824  141.5887  161.6415 C   0  0  0  0  0  0  0  0  0  0  0  0
  153.5031  141.4750  160.1048 C   0  0  1  0  0  0  0  0  0  0  0  0
  152.3936  140.6164  159.6957 N   0  0  0  0  0  0  0  0  0  0  0  0
  152.4687  139.4884  158.9631 C   0  0  0  0  0  0  0  0  0  0  0  0
  153.5681  139.1107  158.5599 O   0  0  0  0  0  0  0  0  0  0  0  0
  151.3111  138.8224  158.7100 N   0  5  0  0  0  0  0  0  0  0  0  0
  151.2588  137.7471  157.9015 C   0  0  0  0  0  0  0  0  0  0  0  0
  152.3603  137.1871  157.3752 N   0  0  0  0  0  0  0  0  0  0  0  0
  152.0849  136.0810  156.5830 N   0  0  0  0  0  0  0  0  0  0  0  0
  150.7753  135.8409  156.5221 C   0  0  0  0  0  0  0  0  0  0  0  0
  149.7597  136.9434  157.4272 S   0  0  0  0  0  0  0  0  0  0  0  0
  153.3541  142.8671  159.4591 C   0  0  0  0  0  0  0  0  0  0  0  0
  152.9414  145.6540  159.5835 H   0  0  0  0  0  0  0  0  0  0  0  0
  151.1906  145.5962  159.7740 H   0  0  0  0  0  0  0  0  0  0  0  0
  151.9356  144.9705  158.3084 H   0  0  0  0  0  0  0  0  0  0  0  0
  151.2468  143.1244  159.8055 H   0  0  0  0  0  0  0  0  0  0  0  0
  153.1510  144.3678  161.8366 H   0  0  0  0  0  0  0  0  0  0  0  0
  151.4113  144.2871  161.9760 H   0  0  0  0  0  0  0  0  0  0  0  0
  152.5179  142.4863  163.3009 H   0  0  0  0  0  0  0  0  0  0  0  0
  151.4726  141.8233  162.0704 H   0  0  0  0  0  0  0  0  0  0  0  0
  154.5126  142.0884  161.9143 H   0  0  0  0  0  0  0  0  0  0  0  0
  153.6286  140.5983  162.0960 H   0  0  0  0  0  0  0  0  0  0  0  0
  154.4311  141.0340  159.7366 H   0  0  0  0  0  0  0  0  0  0  0  0
  151.4763  140.8929  160.0135 H   0  0  0  0  0  0  0  0  0  0  0  0
  150.4048  135.0111  155.9385 H   0  0  0  0  0  0  0  0  0  0  0  0
  153.2448  142.7629  158.3785 H   0  0  0  0  0  0  0  0  0  0  0  0
  154.2752  143.4303  159.6162 H   0  0  0  0  0  0  0  0  0  0  0  0
  1  2  1  0  0  0  0
  1 17  1  0  0  0  0
  1 18  1  0  0  0  0
  1 19  1  0  0  0  0
  2 16  1  0  0  0  0
  2  3  1  0  0  0  0
  2 20  1  0  0  0  0
  3  4  1  0  0  0  0
  3 21  1  0  0  0  0
  3 22  1  0  0  0  0
  4  5  1  0  0  0  0
  4 23  1  0  0  0  0
  4 24  1  0  0  0  0
  5  6  1  0  0  0  0
  5 25  1  0  0  0  0
  5 26  1  0  0  0  0
  6  7  1  0  0  0  0
  6 16  1  0  0  0  0
  6 27  1  0  0  0  0
  7  8  1  0  0  0  0
  7 28  1  0  0  0  0
  8  9  2  0  0  0  0
  8 10  1  0  0  0  0
 10 11  1  0  0  0  0
 11 15  1  0  0  0  0
 11 12  2  0  0  0  0
 12 13  1  0  0  0  0
 13 14  2  0  0  0  0
 14 15  1  0  0  0  0
 14 29  1  0  0  0  0
 16 30  1  0  0  0  0
 16 31  1  0  0  0  0
M  CHG  1  10  -1
M  END
> <s_m_source_file>
AV-unprocessed.smi

> <i_m_source_file_index>
1749

> <i_lp_mmshare_version>
43012

> <i_f3d_flags>
0

> <s_epik_input>
W0NIM11bQ0BASF0xW0NIMl1bQ0gyXVtDSDJdW0NASF0oW0NIMl0xKVtOSF1DKD1PKVtOSF1jMm5uW2NIXXMy

> <s_epik_cmdline>
J2VwaWtfcHl0aG9uJywgJy1waCcsICc3LjAnLCAnLXRuJywgJzgnLCAnLW1hJywgJzIwMCcsICctbWV0YWxfYmluZGluZycsICctaW1hZScsICc8aW5maWxlLm1hZT4nLCAnLW9tYWUnLCAnPG91dGZpbGUubWFlPic=

> <r_lp_tautomer_probability>
1

> <r_epik_Ionization_Penalty>
4.55442

> <r_epik_Ionization_Penalty_Charging>
4.5081

> <r_epik_Ionization_Penalty_Neutral>
0.0463156

> <r_epik_State_Penalty>
4.50781

> <r_epik_Charging_Adjusted_Penalty>
9.01591

> <i_epik_Tot_Q>
-1

> <i_epik_Tot_abs_Q>
1

> <r_epik_Metal_State_Penalty>
0.823335

> <b_epik_Metal_Only>
1

> <s_lp_Force_Field>
OPLS_2005

> <r_lp_Energy>
7.79414

> <b_lp_Chiralities_Consistent>
1

> <s_lp_Variant>
AV-unprocessed.smi:1749-5

> <Gold.Version>
5.8.1

> <Gold.Id.Protein>
6NUR|6NUR_protein|mol2

> <Gold.PLP.Fitness>
40.7526

> <Gold.PLP.PLP>
-34.7907

> <Gold.PLP.part.hbond>
-2.0000

> <Gold.PLP.part.metal>
0.0000

> <Gold.PLP.part.buried>
-3.8425

> <Gold.PLP.part.nonpolar>
-27.6772

> <Gold.PLP.part.repulsive>
0.1314

> <Gold.PLP.ligand.clash>
0.0000

> <Gold.PLP.ligand.torsion>
0.0231

> <Gold.PLP.Chemscore.Hbond>
2.0000

> <Gold.PLP.Chemscore.CHOScore>
0.0000

> <Gold.PLP.Chemscore.Metal>
0.0000

> <Gold.Chemscore.Hbonds>
donor molecule, donor type, donor heavy atom, donor atom, acceptor molecule, acceptor atom, score
      P1  H  7997  8009       L1     9  0.98
      P1  H 10752 10763       L1    13  1.00

> <Gold.PLP.Chemscore.Internal.Correction>
0.0082

> <Gold.Rescore>
     Score         DG    S(hbond)    S(metal)    S(lipo)     H(rot)  DE(clash)    DE(int)     intcor
     18.23     -19.99       1.98        0.00      89.22       1.00       0.01       1.75       ----

> <Gold.Chemscore.Fitness>
18.2274

> <Gold.Chemscore.DG>
-19.9864

> <Gold.Chemscore.ZeroCoef>
-5.4800

> <Gold.Chemscore.Hbond>
1.9842

> <Gold.Chemscore.Metal>
0.0000

> <Gold.Chemscore.Lipo>
89.2247

> <Gold.Chemscore.Internal_Hbond>
0.0000

> <Gold.Chemscore.DEClash>
0.0075

> <Gold.Chemscore.DEInternal>
1.7515

> <Gold.Chemscore.Rot>
1.0000

> <Gold.Chemscore.Internal.Correction>
   9.000000E+99

> <Gold.Chemscore.Hbonds>
donor molecule, donor type, donor heavy atom, donor atom, acceptor molecule, acceptor atom, score
      P1  H  7997  8009       L1     9  0.91
      P1  H 10752 10763       L1    13  0.97

> <Gold.Chemscore.Hbond.Weighted>
-6.6271

> <Gold.Chemscore.Metal.Weighted>
-0.0000

> <Gold.Chemscore.Lipo.Weighted>
-10.4393

> <Gold.Chemscore.Internal_Hbond.Weighted>
0.0000

> <Gold.Chemscore.DEClash.Weighted>
0.0075

> <Gold.Chemscore.DEInternal.Weighted>
1.7515

> <Gold.Chemscore.Rot.Weighted>
2.5600

> <Gold.Chemscore.Internal.Correction.Weighted>
   9.000000E+99

> <Gold.Protein.RotatedTorsions>
[ 6907 6896 6895 6894 ] final   52.14 input  -60.11 | X-H torsion
[ 7974 7965 7964 7962 ] final   94.40 input  175.53 | X-H torsion
[ 8008 7997 7996 7995 ] final  139.14 input   59.86 | X-H torsion
[ 10167 10162 10161 10158 ] final   55.92 input  -65.29 | X-H torsion
[ 10718 10713 10712 10709 ] final   38.64 input   66.30 | X-H torsion
[ 10763 10752 10751 10750 ] final  101.94 input  -60.55 | X-H torsion
[ 11005 11000 10999 10996 ] final   14.93 input  -57.11 | X-H torsion

> <Gold.Protein.ActiveResidues>
 VAL166  LYS551  ARG553  GLY616  TRP617  ASP618  TYR619  PRO620  LYS621  CYS622 
 ASP623  PHE694  ASN695  SER759  ASP760  ASP761  ALA762  ILE779  LEU786  VAL792 
 PHE793  MET794  SER795  GLU796  ALA797  LYS798  CYS799  TRP800  GLU811  SER814 

> <Gold.Protein.RotatedAtoms>
  152.3202  134.7390  160.0315 H   0  0  0  0  0  0  0  0  0  0  0  0  # atno 6907 bound_to 6896
  151.7841  133.3347  159.3488 H   0  0  0  0  0  0  0  0  0  0  0  0  # atno 6908 bound_to 6896
  150.7365  134.5834  159.5995 H   0  0  0  0  0  0  0  0  0  0  0  0  # atno 6909 bound_to 6896
  145.4661  139.2284  143.2961 H   0  0  0  0  0  0  0  0  0  0  0  0  # atno 7974 bound_to 7965
  156.2992  140.2375  156.4188 H   0  0  0  0  0  0  0  0  0  0  0  0  # atno 8008 bound_to 7997
  154.8374  140.0430  157.1538 H   0  0  0  0  0  0  0  0  0  0  0  0  # atno 8009 bound_to 7997
  154.9140  140.2994  155.5254 H   0  0  0  0  0  0  0  0  0  0  0  0  # atno 8010 bound_to 7997
  140.2142  144.3856  150.6476 H   0  0  0  0  0  0  0  0  0  0  0  0  # atno 10167 bound_to 10162
  157.3612  130.7650  149.7049 H   0  0  0  0  0  0  0  0  0  0  0  0  # atno 10718 bound_to 10713
  153.3332  135.4027  155.1512 H   0  0  0  0  0  0  0  0  0  0  0  0  # atno 10763 bound_to 10752
  154.8627  135.3615  154.5443 H   0  0  0  0  0  0  0  0  0  0  0  0  # atno 10764 bound_to 10752
  153.5883  135.7074  153.5493 H   0  0  0  0  0  0  0  0  0  0  0  0  # atno 10765 bound_to 10752
  140.4640  134.1098  155.7721 H   0  0  0  0  0  0  0  0  0  0  0  0  # atno 11005 bound_to 11000
  146.2423  140.5435  142.8928 LP  0  0  0  0  0  0  0  0  0  0  0  0  # atno 17320 bound_to 7965
  144.7973  140.6147  143.6501 LP  0  0  0  0  0  0  0  0  0  0  0  0  # atno 17321 bound_to 7965
  140.6301  143.2186  151.6513 LP  0  0  0  0  0  0  0  0  0  0  0  0  # atno 17342 bound_to 10162
  139.5168  144.3335  152.0805 LP  0  0  0  0  0  0  0  0  0  0  0  0  # atno 17343 bound_to 10162
  155.9738  130.4113  150.3976 LP  0  0  0  0  0  0  0  0  0  0  0  0  # atno 17370 bound_to 10713
  157.2053  131.0447  151.2628 LP  0  0  0  0  0  0  0  0  0  0  0  0  # atno 17371 bound_to 10713
  141.1608  133.8796  157.1853 LP  0  0  0  0  0  0  0  0  0  0  0  0  # atno 17394 bound_to 11000
  139.9927  135.0058  157.0012 LP  0  0  0  0  0  0  0  0  0  0  0  0  # atno 17395 bound_to 11000

$$$$
