AV-unprocessed.smi:2433|AV-procd|sdf|9590|dock6
  -GOLD-   2272013223D 1   1.00000     0.00000
 Structure written by MMmdl.
 38 40  0  0  0  0  0  0  0  0  1 V2000
  151.7334  140.0606  155.1174 O   0  0  0  0  0  0  0  0  0  0  0  0
  150.9664  140.4977  155.9758 C   0  0  0  0  0  0  0  0  0  0  0  0
  151.3185  141.6147  156.8528 C   0  0  0  0  0  0  0  0  0  0  0  0
  150.4467  142.0705  157.7830 C   0  0  0  0  0  0  0  0  0  0  0  0
  150.8159  143.2329  158.7013 C   0  0  0  0  0  0  0  0  0  0  0  0
  151.5963  144.3877  158.0494 C   0  0  0  0  0  0  0  0  0  0  0  0
  152.8863  143.8435  158.6732 C   0  0  0  0  0  0  0  0  0  0  0  0
  152.0343  142.9686  159.5998 C   0  0  0  0  0  0  0  0  0  0  0  0
  149.1942  141.4617  157.9390 N   0  0  0  0  0  0  0  0  0  0  0  0
  148.8583  140.4707  157.1766 C   0  0  0  0  0  0  0  0  0  0  0  0
  149.7209  139.9780  156.1794 N   0  0  0  0  0  0  0  0  0  0  0  0
  149.2087  138.8659  155.3617 C   0  0  0  0  0  0  0  0  0  0  0  0
  148.5234  139.3505  154.0653 C   0  0  1  0  0  0  0  0  0  0  0  0
  147.8992  138.2461  153.4399 O   0  0  0  0  0  0  0  0  0  0  0  0
  147.5255  140.4593  154.3657 C   0  0  0  0  0  0  0  0  0  0  0  0
  146.4211  140.2005  155.2061 C   0  0  0  0  0  0  0  0  0  0  0  0
  145.4833  141.2151  155.4801 C   0  0  0  0  0  0  0  0  0  0  0  0
  145.6422  142.4939  154.9123 C   0  0  0  0  0  0  0  0  0  0  0  0
  144.7401  143.4688  155.1748 F   0  0  0  0  0  0  0  0  0  0  0  0
  146.7386  142.7572  154.0694 C   0  0  0  0  0  0  0  0  0  0  0  0
  147.6765  141.7430  153.7950 C   0  0  0  0  0  0  0  0  0  0  0  0
  152.2869  142.0815  156.7447 H   0  0  0  0  0  0  0  0  0  0  0  0
  149.9548  143.5901  159.2682 H   0  0  0  0  0  0  0  0  0  0  0  0
  151.5912  144.4028  156.9590 H   0  0  0  0  0  0  0  0  0  0  0  0
  151.3175  145.3600  158.4577 H   0  0  0  0  0  0  0  0  0  0  0  0
  153.4828  143.2597  157.9709 H   0  0  0  0  0  0  0  0  0  0  0  0
  153.4893  144.5918  159.1883 H   0  0  0  0  0  0  0  0  0  0  0  0
  151.9215  143.4001  160.5953 H   0  0  0  0  0  0  0  0  0  0  0  0
  152.3524  141.9266  159.6509 H   0  0  0  0  0  0  0  0  0  0  0  0
  147.8973  139.9602  157.2607 H   0  0  0  0  0  0  0  0  0  0  0  0
  149.9810  138.1285  155.1324 H   0  0  0  0  0  0  0  0  0  0  0  0
  148.4829  138.3166  155.9648 H   0  0  0  0  0  0  0  0  0  0  0  0
  149.2660  139.7431  153.3693 H   0  0  0  0  0  0  0  0  0  0  0  0
  148.5528  137.7731  152.9476 H   0  0  0  0  0  0  0  0  0  0  0  0
  146.2869  139.2210  155.6413 H   0  0  0  0  0  0  0  0  0  0  0  0
  144.6407  141.0113  156.1241 H   0  0  0  0  0  0  0  0  0  0  0  0
  146.8594  143.7366  153.6308 H   0  0  0  0  0  0  0  0  0  0  0  0
  148.5103  141.9544  153.1417 H   0  0  0  0  0  0  0  0  0  0  0  0
  1  2  2  0  0  0  0
  2 11  1  0  0  0  0
  2  3  1  0  0  0  0
  3  4  2  0  0  0  0
  3 22  1  0  0  0  0
  4  5  1  0  0  0  0
  4  9  1  0  0  0  0
  5  8  1  0  0  0  0
  5  6  1  0  0  0  0
  5 23  1  0  0  0  0
  6  7  1  0  0  0  0
  6 24  1  0  0  0  0
  6 25  1  0  0  0  0
  7  8  1  0  0  0  0
  7 26  1  0  0  0  0
  7 27  1  0  0  0  0
  8 28  1  0  0  0  0
  8 29  1  0  0  0  0
  9 10  2  0  0  0  0
 10 11  1  0  0  0  0
 10 30  1  0  0  0  0
 11 12  1  0  0  0  0
 12 13  1  0  0  0  0
 12 31  1  0  0  0  0
 12 32  1  0  0  0  0
 13 14  1  0  0  0  0
 13 15  1  0  0  0  0
 13 33  1  0  0  0  0
 14 34  1  0  0  0  0
 15 21  1  0  0  0  0
 15 16  2  0  0  0  0
 16 17  1  0  0  0  0
 16 35  1  0  0  0  0
 17 18  2  0  0  0  0
 17 36  1  0  0  0  0
 18 19  1  0  0  0  0
 18 20  1  0  0  0  0
 20 21  2  0  0  0  0
 20 37  1  0  0  0  0
 21 38  1  0  0  0  0
M  END
> <s_m_source_file>
AV-unprocessed.smi

> <i_m_source_file_index>
2433

> <i_lp_mmshare_version>
43012

> <i_f3d_flags>
0

> <s_epik_input>
W0NIMl0xW0NIMl1bQ0gyXVtDSF0xYyhbY0hdYzI9TyluW2NIXW4yW0NIMl1bQ0BIXShbT0hdKWMzW2NIXVtjSF1jKEYpW2NIXVtjSF0z

> <s_epik_cmdline>
J2VwaWtfcHl0aG9uJywgJy1waCcsICc3LjAnLCAnLXRuJywgJzgnLCAnLW1hJywgJzIwMCcsICctbWV0YWxfYmluZGluZycsICctaW1hZScsICc8aW5maWxlLm1hZT4nLCAnLW9tYWUnLCAnPG91dGZpbGUubWFlPic=

> <r_lp_tautomer_probability>
1

> <r_epik_Ionization_Penalty>
2.57762e-05

> <r_epik_Ionization_Penalty_Charging>
5.39435e-08

> <r_epik_Ionization_Penalty_Neutral>
2.57223e-05

> <r_epik_State_Penalty>
-0

> <r_epik_Charging_Adjusted_Penalty>
5.39435e-08

> <i_epik_Tot_Q>
0

> <i_epik_Tot_abs_Q>
0

> <r_epik_Metal_State_Penalty>
-0

> <b_epik_Metal_Only>
0

> <s_lp_Force_Field>
OPLS_2005

> <r_lp_Energy>
28.3662

> <b_lp_Chiralities_Consistent>
1

> <s_lp_Variant>
AV-unprocessed.smi:2433-2

> <Gold.Version>
5.8.1

> <Gold.Id.Protein>
6NUR|6NUR_protein|mol2

> <Gold.PLP.Fitness>
45.0641

> <Gold.PLP.PLP>
-40.1856

> <Gold.PLP.part.hbond>
-2.0000

> <Gold.PLP.part.metal>
0.0000

> <Gold.PLP.part.buried>
-6.8753

> <Gold.PLP.part.nonpolar>
-32.0298

> <Gold.PLP.part.repulsive>
0.1038

> <Gold.PLP.ligand.clash>
0.0000

> <Gold.PLP.ligand.torsion>
0.7127

> <Gold.PLP.Chemscore.Hbond>
1.9760

> <Gold.PLP.Chemscore.CHOScore>
0.0000

> <Gold.PLP.Chemscore.Metal>
0.0000

> <Gold.Chemscore.Hbonds>
donor molecule, donor type, donor heavy atom, donor atom, acceptor molecule, acceptor atom, score
      L1  H    14    34       P1  7948  0.96
      P1  H  7989  7998       L1     1  0.96

> <Gold.PLP.Chemscore.Internal.Correction>
0.3758

> <Gold.Rescore>
     Score         DG    S(hbond)    S(metal)    S(lipo)     H(rot)  DE(clash)    DE(int)     intcor
     16.59     -17.69       1.82        0.00      99.26       2.14       0.32       0.77       ----

> <Gold.Chemscore.Fitness>
16.5937

> <Gold.Chemscore.DG>
-17.6873

> <Gold.Chemscore.ZeroCoef>
-5.4800

> <Gold.Chemscore.Hbond>
1.8156

> <Gold.Chemscore.Metal>
0.0000

> <Gold.Chemscore.Lipo>
99.2634

> <Gold.Chemscore.Internal_Hbond>
0.0000

> <Gold.Chemscore.DEClash>
0.3241

> <Gold.Chemscore.DEInternal>
0.7695

> <Gold.Chemscore.Rot>
2.1370

> <Gold.Chemscore.Internal.Correction>
   9.000000E+99

> <Gold.Chemscore.Hbonds>
donor molecule, donor type, donor heavy atom, donor atom, acceptor molecule, acceptor atom, score
      L1  H    14    34       P1  7948  0.92
      P1  H  7989  7998       L1     1  0.85

> <Gold.Chemscore.Hbond.Weighted>
-6.0642

> <Gold.Chemscore.Metal.Weighted>
-0.0000

> <Gold.Chemscore.Lipo.Weighted>
-11.6138

> <Gold.Chemscore.Internal_Hbond.Weighted>
0.0000

> <Gold.Chemscore.DEClash.Weighted>
0.3241

> <Gold.Chemscore.DEInternal.Weighted>
0.7695

> <Gold.Chemscore.Rot.Weighted>
5.4707

> <Gold.Chemscore.Internal.Correction.Weighted>
   9.000000E+99

> <Gold.Protein.RotatedTorsions>
[ 6907 6896 6895 6894 ] final   60.06 input  -60.11 | X-H torsion
[ 7974 7965 7964 7962 ] final  -42.47 input  175.53 | X-H torsion
[ 8008 7997 7996 7995 ] final -139.31 input   59.86 | X-H torsion
[ 10167 10162 10161 10158 ] final  111.98 input  -65.29 | X-H torsion
[ 10718 10713 10712 10709 ] final -150.55 input   66.30 | X-H torsion
[ 10763 10752 10751 10750 ] final   50.69 input  -60.55 | X-H torsion
[ 11005 11000 10999 10996 ] final -124.46 input  -57.11 | X-H torsion

> <Gold.Protein.ActiveResidues>
 VAL166  LYS551  ARG553  GLY616  TRP617  ASP618  TYR619  PRO620  LYS621  CYS622 
 ASP623  PHE694  ASN695  SER759  ASP760  ASP761  ALA762  ILE779  LEU786  VAL792 
 PHE793  MET794  SER795  GLU796  ALA797  LYS798  CYS799  TRP800  GLU811  SER814 

> <Gold.Protein.RotatedAtoms>
  152.3970  134.6349  160.0084 H   0  0  0  0  0  0  0  0  0  0  0  0  # atno 6907 bound_to 6896
  151.6565  133.3313  159.3172 H   0  0  0  0  0  0  0  0  0  0  0  0  # atno 6908 bound_to 6896
  150.7876  134.6917  159.6545 H   0  0  0  0  0  0  0  0  0  0  0  0  # atno 6909 bound_to 6896
  146.0113  140.6961  142.9223 H   0  0  0  0  0  0  0  0  0  0  0  0  # atno 7974 bound_to 7965
  155.4428  140.0533  157.3009 H   0  0  0  0  0  0  0  0  0  0  0  0  # atno 8008 bound_to 7997
  154.4811  140.2081  155.9719 H   0  0  0  0  0  0  0  0  0  0  0  0  # atno 8009 bound_to 7997
  156.1206  140.3189  155.8208 H   0  0  0  0  0  0  0  0  0  0  0  0  # atno 8010 bound_to 7997
  139.6570  144.7129  151.1938 H   0  0  0  0  0  0  0  0  0  0  0  0  # atno 10167 bound_to 10162
  156.4476  130.8152  151.2382 H   0  0  0  0  0  0  0  0  0  0  0  0  # atno 10718 bound_to 10713
  152.9784  135.5870  154.4294 H   0  0  0  0  0  0  0  0  0  0  0  0  # atno 10763 bound_to 10752
  154.3908  135.2768  155.2157 H   0  0  0  0  0  0  0  0  0  0  0  0  # atno 10764 bound_to 10752
  154.4030  135.6099  153.5962 H   0  0  0  0  0  0  0  0  0  0  0  0  # atno 10765 bound_to 10752
  140.9839  134.0634  157.3733 H   0  0  0  0  0  0  0  0  0  0  0  0  # atno 11005 bound_to 11000
  144.6954  140.3403  143.7200 LP  0  0  0  0  0  0  0  0  0  0  0  0  # atno 17320 bound_to 7965
  145.7338  139.1744  143.2415 LP  0  0  0  0  0  0  0  0  0  0  0  0  # atno 17321 bound_to 7965
  140.7563  143.6056  150.8656 LP  0  0  0  0  0  0  0  0  0  0  0  0  # atno 17342 bound_to 10162
  139.9710  143.6057  152.2973 LP  0  0  0  0  0  0  0  0  0  0  0  0  # atno 17343 bound_to 10162
  157.7504  131.0148  150.3480 LP  0  0  0  0  0  0  0  0  0  0  0  0  # atno 17370 bound_to 10713
  156.3851  130.3887  149.7072 LP  0  0  0  0  0  0  0  0  0  0  0  0  # atno 17371 bound_to 10713
  139.8962  135.0144  156.7039 LP  0  0  0  0  0  0  0  0  0  0  0  0  # atno 17394 bound_to 11000
  140.7144  133.9195  155.8105 LP  0  0  0  0  0  0  0  0  0  0  0  0  # atno 17395 bound_to 11000

$$$$
