AV-unprocessed.smi:205|AV-procd|sdf|1600|dock7
  -GOLD-   2262019513D 1   1.00000     0.00000
 Structure written by MMmdl.
 54 56  0  0  0  0  0  0  0  0  1 V2000
  153.0159  139.5861  154.7283 O   0  0  0  0  0  0  0  0  0  0  0  0
  152.1377  138.6663  155.3415 C   0  0  0  0  0  0  0  0  0  0  0  0
  150.7288  138.8122  154.7542 C   0  0  0  0  0  0  0  0  0  0  0  0
  150.3597  140.1811  154.7673 O   0  0  0  0  0  0  0  0  0  0  0  0
  149.3456  140.4652  155.7164 C   0  0  0  0  0  0  0  0  0  0  0  0
  147.9855  140.5352  154.9989 C   0  0  0  0  0  0  0  0  0  0  0  0
  147.2512  139.2690  154.9932 N   0  0  0  0  0  0  0  0  0  0  0  0
  146.3343  139.0079  156.1023 C   0  0  0  0  0  0  0  0  0  0  0  0
  147.0094  139.0902  157.4838 C   0  0  0  0  0  0  0  0  0  0  0  0
  146.0378  139.0933  158.5081 O   0  0  0  0  0  0  0  0  0  0  0  0
  146.8902  138.7106  153.8109 C   0  0  0  0  0  0  0  0  0  0  0  0
  147.1977  139.3981  152.6817 N   0  0  0  0  0  0  0  0  0  0  0  0
  146.8579  138.9140  151.4842 C   0  0  0  0  0  0  0  0  0  0  0  0
  146.2170  137.7805  151.1943 N   0  0  0  0  0  0  0  0  0  0  0  0
  145.9133  137.0788  152.3240 C   0  0  0  0  0  0  0  0  0  0  0  0
  146.2216  137.4603  153.6611 C   0  0  0  0  0  0  0  0  0  0  0  0
  145.7872  136.4756  154.5414 N   0  0  0  0  0  0  0  0  0  0  0  0
  145.2416  135.5746  153.7719 C   0  0  0  0  0  0  0  0  0  0  0  0
  145.2412  135.8731  152.4285 N   0  0  0  0  0  0  0  0  0  0  0  0
  144.7364  135.0477  151.3704 C   0  0  0  0  0  0  0  0  0  0  0  0
  144.2057  133.6389  151.6516 C   0  0  0  0  0  0  0  0  0  0  0  0
  144.8086  133.1292  150.3244 C   0  0  0  0  0  0  0  0  0  0  0  0
  145.5914  131.8113  150.4303 C   0  0  0  0  0  0  0  0  0  0  0  0
  146.5201  131.8503  151.4947 O   0  0  0  0  0  0  0  0  0  0  0  0
  143.8504  132.9937  149.1204 C   0  0  0  0  0  0  0  0  0  0  0  0
  142.7847  132.0954  149.3543 O   0  0  0  0  0  0  0  0  0  0  0  0
  145.6877  134.3993  150.3591 C   0  0  0  0  0  0  0  0  0  0  0  0
  153.2281  139.2688  153.8639 H   0  0  0  0  0  0  0  0  0  0  0  0
  152.5112  137.6477  155.2313 H   0  0  0  0  0  0  0  0  0  0  0  0
  152.1184  138.8902  156.4084 H   0  0  0  0  0  0  0  0  0  0  0  0
  150.7316  138.4652  153.7199 H   0  0  0  0  0  0  0  0  0  0  0  0
  150.0118  138.1966  155.3009 H   0  0  0  0  0  0  0  0  0  0  0  0
  149.3172  139.6705  156.4632 H   0  0  0  0  0  0  0  0  0  0  0  0
  149.5682  141.3902  156.2487 H   0  0  0  0  0  0  0  0  0  0  0  0
  147.3684  141.2905  155.4868 H   0  0  0  0  0  0  0  0  0  0  0  0
  148.1217  140.8783  153.9735 H   0  0  0  0  0  0  0  0  0  0  0  0
  145.5227  139.7354  156.0654 H   0  0  0  0  0  0  0  0  0  0  0  0
  145.8570  138.0369  155.9652 H   0  0  0  0  0  0  0  0  0  0  0  0
  147.7306  138.2880  157.6419 H   0  0  0  0  0  0  0  0  0  0  0  0
  147.5588  140.0287  157.5610 H   0  0  0  0  0  0  0  0  0  0  0  0
  146.3190  139.6866  159.1879 H   0  0  0  0  0  0  0  0  0  0  0  0
  147.1338  139.5253  150.6376 H   0  0  0  0  0  0  0  0  0  0  0  0
  144.8133  134.6654  154.1686 H   0  0  0  0  0  0  0  0  0  0  0  0
  143.9812  135.6474  150.8608 H   0  0  0  0  0  0  0  0  0  0  0  0
  144.6741  133.1882  152.5283 H   0  0  0  0  0  0  0  0  0  0  0  0
  143.1189  133.5737  151.7154 H   0  0  0  0  0  0  0  0  0  0  0  0
  144.9215  130.9629  150.5742 H   0  0  0  0  0  0  0  0  0  0  0  0
  146.1477  131.6126  149.5135 H   0  0  0  0  0  0  0  0  0  0  0  0
  147.2574  131.3037  151.2681 H   0  0  0  0  0  0  0  0  0  0  0  0
  143.4162  133.9601  148.8622 H   0  0  0  0  0  0  0  0  0  0  0  0
  144.3823  132.6445  148.2351 H   0  0  0  0  0  0  0  0  0  0  0  0
  141.9830  132.5916  149.4189 H   0  0  0  0  0  0  0  0  0  0  0  0
  145.7638  134.9315  149.4104 H   0  0  0  0  0  0  0  0  0  0  0  0
  146.6779  134.2185  150.7809 H   0  0  0  0  0  0  0  0  0  0  0  0
  1  2  1  0  0  0  0
  1 28  1  0  0  0  0
  2  3  1  0  0  0  0
  2 29  1  0  0  0  0
  2 30  1  0  0  0  0
  3  4  1  0  0  0  0
  3 31  1  0  0  0  0
  3 32  1  0  0  0  0
  4  5  1  0  0  0  0
  5  6  1  0  0  0  0
  5 33  1  0  0  0  0
  5 34  1  0  0  0  0
  6  7  1  0  0  0  0
  6 35  1  0  0  0  0
  6 36  1  0  0  0  0
  7  8  1  0  0  0  0
  7 11  1  0  0  0  0
  8  9  1  0  0  0  0
  8 37  1  0  0  0  0
  8 38  1  0  0  0  0
  9 10  1  0  0  0  0
  9 39  1  0  0  0  0
  9 40  1  0  0  0  0
 10 41  1  0  0  0  0
 11 16  1  0  0  0  0
 11 12  2  0  0  0  0
 12 13  1  0  0  0  0
 13 14  2  0  0  0  0
 13 42  1  0  0  0  0
 14 15  1  0  0  0  0
 15 19  1  0  0  0  0
 15 16  2  0  0  0  0
 16 17  1  0  0  0  0
 17 18  2  0  0  0  0
 18 19  1  0  0  0  0
 18 43  1  0  0  0  0
 19 20  1  0  0  0  0
 20 27  1  0  0  0  0
 20 21  1  0  0  0  0
 20 44  1  0  0  0  0
 21 22  1  0  0  0  0
 21 45  1  0  0  0  0
 21 46  1  0  0  0  0
 22 23  1  0  0  0  0
 22 25  1  0  0  0  0
 22 27  1  0  0  0  0
 23 24  1  0  0  0  0
 23 47  1  0  0  0  0
 23 48  1  0  0  0  0
 24 49  1  0  0  0  0
 25 26  1  0  0  0  0
 25 50  1  0  0  0  0
 25 51  1  0  0  0  0
 26 52  1  0  0  0  0
 27 53  1  0  0  0  0
 27 54  1  0  0  0  0
M  END
> <s_m_source_file>
AV-unprocessed.smi

> <i_m_source_file_index>
205

> <i_lp_mmshare_version>
43012

> <i_f3d_flags>
0

> <s_epik_input>
W09IXVtDSDJdW0NIMl1PW0NIMl1bQ0gyXU4oW0NIMl1bQ0gyXVtPSF0pYyhuW2NIXW4xKWMoYzEyKW5bY0hdbjJbQ0hdKFtDSDJdMylbQ0gyXUMzKFtDSDJdW09IXSlbQ0gyXVtPSF0=

> <s_epik_cmdline>
J2VwaWtfcHl0aG9uJywgJy1waCcsICc3LjAnLCAnLXRuJywgJzgnLCAnLW1hJywgJzIwMCcsICctbWV0YWxfYmluZGluZycsICctaW1hZScsICc8aW5maWxlLm1hZT4nLCAnLW9tYWUnLCAnPG91dGZpbGUubWFlPic=

> <r_lp_tautomer_probability>
1

> <r_epik_Ionization_Penalty>
0.00545557

> <r_epik_Ionization_Penalty_Charging>
0

> <r_epik_Ionization_Penalty_Neutral>
0.00545557

> <r_epik_State_Penalty>
0.00384469

> <r_epik_Charging_Adjusted_Penalty>
0.00384469

> <i_epik_Tot_Q>
0

> <i_epik_Tot_abs_Q>
0

> <r_epik_Metal_State_Penalty>
-0

> <b_epik_Metal_Only>
0

> <s_lp_Force_Field>
OPLS_2005

> <r_lp_Energy>
40.5801

> <b_lp_Chiralities_Consistent>
1

> <s_lp_Variant>
AV-unprocessed.smi:205-1

> <Gold.Version>
5.8.1

> <Gold.Id.Protein>
6NUR|6NUR_protein|mol2

> <Gold.PLP.Fitness>
51.5176

> <Gold.PLP.PLP>
-37.9276

> <Gold.PLP.part.hbond>
-7.7945

> <Gold.PLP.part.metal>
0.0000

> <Gold.PLP.part.buried>
-3.9845

> <Gold.PLP.part.nonpolar>
-30.1351

> <Gold.PLP.part.repulsive>
3.9478

> <Gold.PLP.ligand.clash>
0.0000

> <Gold.PLP.ligand.torsion>
1.7991

> <Gold.PLP.Chemscore.Hbond>
4.7875

> <Gold.PLP.Chemscore.CHOScore>
0.4467

> <Gold.PLP.Chemscore.Metal>
0.0000

> <Gold.Chemscore.Hbonds>
donor molecule, donor type, donor heavy atom, donor atom, acceptor molecule, acceptor atom, score
      L1  H    24    49       P1 10747  0.99
      L1  H    26    52       P1 10186  0.93
      P1  H  7989  7998       L1     4  1.00
      P1  H  7997  8008       L1     1  1.00
      P1  H 10785 10796       L1    26  0.86
      L1  C    13    42       P1  7957  0.46

> <Gold.PLP.Chemscore.Internal.Correction>
1.4855

> <Gold.Rescore>
     Score         DG    S(hbond)    S(metal)    S(lipo)     H(rot)  DE(clash)    DE(int)     intcor
      4.82     -11.39       4.35        0.00      74.14       6.76       4.03       2.54       ----

> <Gold.Chemscore.Fitness>
4.8180

> <Gold.Chemscore.DG>
-11.3872

> <Gold.Chemscore.ZeroCoef>
-5.4800

> <Gold.Chemscore.Hbond>
4.3528

> <Gold.Chemscore.Metal>
0.0000

> <Gold.Chemscore.Lipo>
74.1398

> <Gold.Chemscore.Internal_Hbond>
0.0000

> <Gold.Chemscore.DEClash>
4.0255

> <Gold.Chemscore.DEInternal>
2.5438

> <Gold.Chemscore.Rot>
6.7600

> <Gold.Chemscore.Internal.Correction>
   9.000000E+99

> <Gold.Chemscore.Hbonds>
donor molecule, donor type, donor heavy atom, donor atom, acceptor molecule, acceptor atom, score
      L1  H    24    49       P1 10747  0.91
      L1  H    26    52       P1 10186  0.84
      P1  H  7989  7998       L1     4  0.25
      P1  H  7997  8008       L1     1  0.82
      P1  H 10785 10796       L1    26  0.74

> <Gold.Chemscore.Hbond.Weighted>
-14.5383

> <Gold.Chemscore.Metal.Weighted>
-0.0000

> <Gold.Chemscore.Lipo.Weighted>
-8.6744

> <Gold.Chemscore.Internal_Hbond.Weighted>
0.0000

> <Gold.Chemscore.DEClash.Weighted>
4.0255

> <Gold.Chemscore.DEInternal.Weighted>
2.5438

> <Gold.Chemscore.Rot.Weighted>
17.3055

> <Gold.Chemscore.Internal.Correction.Weighted>
   9.000000E+99

> <Gold.Protein.RotatedTorsions>
[ 6907 6896 6895 6894 ] final   51.40 input  -60.11 | X-H torsion
[ 7974 7965 7964 7962 ] final  -50.74 input  175.53 | X-H torsion
[ 8008 7997 7996 7995 ] final   -3.25 input   59.86 | X-H torsion
[ 10167 10162 10161 10158 ] final   25.97 input  -65.29 | X-H torsion
[ 10718 10713 10712 10709 ] final -148.84 input   66.30 | X-H torsion
[ 10763 10752 10751 10750 ] final -161.07 input  -60.55 | X-H torsion
[ 11005 11000 10999 10996 ] final   85.52 input  -57.11 | X-H torsion

> <Gold.Protein.ActiveResidues>
 VAL166  LYS551  ARG553  GLY616  TRP617  ASP618  TYR619  PRO620  LYS621  CYS622 
 ASP623  PHE694  ASN695  SER759  ASP760  ASP761  ALA762  ILE779  LEU786  VAL792 
 PHE793  MET794  SER795  GLU796  ALA797  LYS798  CYS799  TRP800  GLU811  SER814 

> <Gold.Protein.RotatedAtoms>
  152.3122  134.7483  160.0333 H   0  0  0  0  0  0  0  0  0  0  0  0  # atno 6907 bound_to 6896
  151.7960  133.3359  159.3521 H   0  0  0  0  0  0  0  0  0  0  0  0  # atno 6908 bound_to 6896
  150.7326  134.5729  159.5944 H   0  0  0  0  0  0  0  0  0  0  0  0  # atno 6909 bound_to 6896
  145.9265  140.7787  142.9621 H   0  0  0  0  0  0  0  0  0  0  0  0  # atno 7974 bound_to 7965
  154.6269  140.2514  155.7481 H   0  0  0  0  0  0  0  0  0  0  0  0  # atno 8008 bound_to 7997
  156.2458  140.2915  156.0522 H   0  0  0  0  0  0  0  0  0  0  0  0  # atno 8009 bound_to 7997
  155.1807  140.0389  157.2872 H   0  0  0  0  0  0  0  0  0  0  0  0  # atno 8010 bound_to 7997
  140.5061  144.0235  150.6353 H   0  0  0  0  0  0  0  0  0  0  0  0  # atno 10167 bound_to 10162
  156.4255  130.8050  151.2274 H   0  0  0  0  0  0  0  0  0  0  0  0  # atno 10718 bound_to 10713
  154.7336  135.3052  154.8850 H   0  0  0  0  0  0  0  0  0  0  0  0  # atno 10763 bound_to 10752
  153.9685  135.6744  153.4750 H   0  0  0  0  0  0  0  0  0  0  0  0  # atno 10764 bound_to 10752
  153.0941  135.4944  154.8668 H   0  0  0  0  0  0  0  0  0  0  0  0  # atno 10765 bound_to 10752
  139.8969  134.8292  156.2593 H   0  0  0  0  0  0  0  0  0  0  0  0  # atno 11005 bound_to 11000
  144.6759  140.2059  143.7382 LP  0  0  0  0  0  0  0  0  0  0  0  0  # atno 17320 bound_to 7965
  145.8481  139.2162  143.1788 LP  0  0  0  0  0  0  0  0  0  0  0  0  # atno 17321 bound_to 7965
  140.3545  143.2943  152.0451 LP  0  0  0  0  0  0  0  0  0  0  0  0  # atno 17342 bound_to 10162
  139.4884  144.6349  151.6996 LP  0  0  0  0  0  0  0  0  0  0  0  0  # atno 17343 bound_to 10162
  157.7508  131.0215  150.3751 LP  0  0  0  0  0  0  0  0  0  0  0  0  # atno 17370 bound_to 10713
  156.4078  130.3928  149.6913 LP  0  0  0  0  0  0  0  0  0  0  0  0  # atno 17371 bound_to 10713
  141.0173  133.7061  156.1209 LP  0  0  0  0  0  0  0  0  0  0  0  0  # atno 17394 bound_to 11000
  140.7284  134.4282  157.5568 LP  0  0  0  0  0  0  0  0  0  0  0  0  # atno 17395 bound_to 11000

$$$$
