AV-unprocessed.smi:1787|AV-procd|sdf|7208|dock2
  -GOLD-   22720 8453D 1   1.00000     0.00000
 Structure written by MMmdl.
 45 47  0  0  0  0  0  0  0  0  2 V2000
  143.3396  137.0416  155.2950 O   0  0  0  0  0  0  0  0  0  0  0  0
  143.3983  137.9682  154.4884 C   0  0  0  0  0  0  0  0  0  0  0  0
  144.5275  138.6334  154.2083 N   0  0  0  0  0  0  0  0  0  0  0  0
  145.8410  138.3728  154.7977 C   0  0  0  0  0  0  0  0  0  0  0  0
  146.9625  138.1166  153.7389 C   0  0  1  0  0  0  0  0  0  0  0  0
  146.6979  136.7980  153.0513 N   0  3  0  0  0  0  0  0  0  0  0  0
  146.5132  135.6497  153.9829 C   0  0  0  0  0  0  0  0  0  0  0  0
  146.4496  134.3231  153.2122 C   0  0  0  0  0  0  0  0  0  0  0  0
  145.3749  134.3746  152.2864 O   0  0  0  0  0  0  0  0  0  0  0  0
  145.5704  135.3954  151.3193 C   0  0  0  0  0  0  0  0  0  0  0  0
  145.6407  136.7738  152.0013 C   0  0  0  0  0  0  0  0  0  0  0  0
  147.0266  139.3022  152.7458 C   0  0  0  0  0  0  0  0  0  0  0  0
  147.6148  140.5222  153.4699 C   0  0  0  0  0  0  0  0  0  0  0  0
  148.7313  139.9232  154.7633 S   0  0  0  0  0  0  0  0  0  0  0  0
  148.3512  138.1859  154.4298 C   0  0  0  0  0  0  0  0  0  0  0  0
  142.3656  138.4577  153.7811 N   0  0  0  0  0  0  0  0  0  0  0  0
  141.0091  138.0324  153.7605 C   0  0  0  0  0  0  0  0  0  0  0  0
  140.5382  136.8067  154.2923 C   0  0  0  0  0  0  0  0  0  0  0  0
  139.1662  136.5049  154.1920 C   0  0  0  0  0  0  0  0  0  0  0  0
  138.3165  137.4329  153.5594 C   0  0  0  0  0  0  0  0  0  0  0  0
  138.7530  138.5989  153.0389 N   0  0  0  0  0  0  0  0  0  0  0  0
  140.0685  138.8821  153.1402 C   0  0  0  0  0  0  0  0  0  0  0  0
  144.4705  139.3968  153.5503 H   0  0  0  0  0  0  0  0  0  0  0  0
  146.0887  139.2453  155.4015 H   0  0  0  0  0  0  0  0  0  0  0  0
  145.7708  137.5585  155.5197 H   0  0  0  0  0  0  0  0  0  0  0  0
  147.3283  135.5934  154.7022 H   0  0  0  0  0  0  0  0  0  0  0  0
  145.5914  135.7728  154.5526 H   0  0  0  0  0  0  0  0  0  0  0  0
  147.3904  134.1220  152.6970 H   0  0  0  0  0  0  0  0  0  0  0  0
  146.2804  133.4962  153.9021 H   0  0  0  0  0  0  0  0  0  0  0  0
  146.4802  135.1993  150.7492 H   0  0  0  0  0  0  0  0  0  0  0  0
  144.7427  135.3708  150.6104 H   0  0  0  0  0  0  0  0  0  0  0  0
  144.6734  137.0285  152.4356 H   0  0  0  0  0  0  0  0  0  0  0  0
  145.8523  137.4930  151.2122 H   0  0  0  0  0  0  0  0  0  0  0  0
  147.6801  139.0494  151.9103 H   0  0  0  0  0  0  0  0  0  0  0  0
  146.0530  139.5453  152.3188 H   0  0  0  0  0  0  0  0  0  0  0  0
  148.1396  141.1852  152.7818 H   0  0  0  0  0  0  0  0  0  0  0  0
  146.8229  141.1018  153.9450 H   0  0  0  0  0  0  0  0  0  0  0  0
  148.4270  137.5776  155.3299 H   0  0  0  0  0  0  0  0  0  0  0  0
  149.1572  137.8824  153.7653 H   0  0  0  0  0  0  0  0  0  0  0  0
  142.5668  139.2640  153.2080 H   0  0  0  0  0  0  0  0  0  0  0  0
  141.1914  136.0888  154.7622 H   0  0  0  0  0  0  0  0  0  0  0  0
  138.7742  135.5802  154.5885 H   0  0  0  0  0  0  0  0  0  0  0  0
  137.2598  137.2315  153.4652 H   0  0  0  0  0  0  0  0  0  0  0  0
  140.3807  139.8231  152.7112 H   0  0  0  0  0  0  0  0  0  0  0  0
  147.5525  136.6042  152.5488 H   0  0  0  0  0  0  0  0  0  0  0  0
  1  2  2  0  0  0  0
  2  3  1  0  0  0  0
  2 16  1  0  0  0  0
  3  4  1  0  0  0  0
  3 23  1  0  0  0  0
  4  5  1  0  0  0  0
  4 24  1  0  0  0  0
  4 25  1  0  0  0  0
  5 15  1  0  0  0  0
  5  6  1  0  0  0  0
  5 12  1  0  0  0  0
  6 11  1  0  0  0  0
  6  7  1  0  0  0  0
  6 45  1  0  0  0  0
  7  8  1  0  0  0  0
  7 26  1  0  0  0  0
  7 27  1  0  0  0  0
  8  9  1  0  0  0  0
  8 28  1  0  0  0  0
  8 29  1  0  0  0  0
  9 10  1  0  0  0  0
 10 11  1  0  0  0  0
 10 30  1  0  0  0  0
 10 31  1  0  0  0  0
 11 32  1  0  0  0  0
 11 33  1  0  0  0  0
 12 13  1  0  0  0  0
 12 34  1  0  0  0  0
 12 35  1  0  0  0  0
 13 14  1  0  0  0  0
 13 36  1  0  0  0  0
 13 37  1  0  0  0  0
 14 15  1  0  0  0  0
 15 38  1  0  0  0  0
 15 39  1  0  0  0  0
 16 17  1  0  0  0  0
 16 40  1  0  0  0  0
 17 22  1  0  0  0  0
 17 18  2  0  0  0  0
 18 19  1  0  0  0  0
 18 41  1  0  0  0  0
 19 20  2  0  0  0  0
 19 42  1  0  0  0  0
 20 21  1  0  0  0  0
 20 43  1  0  0  0  0
 21 22  2  0  0  0  0
 22 44  1  0  0  0  0
M  CHG  1   6   1
M  END
> <s_m_source_file>
AV-unprocessed.smi

> <i_m_source_file_index>
1787

> <i_lp_mmshare_version>
43012

> <i_f3d_flags>
0

> <s_epik_input>
W2NIXTFuW2NIXVtjSF1bY0hdYzFbTkhdQyg9TylbTkhdW0NIMl1bQ0BdMihbQ0gyXVtDSDJdU1tDSDJdMilOM1tDSDJdW0NIMl1PW0NIMl1bQ0gyXTM=

> <s_epik_cmdline>
J2VwaWtfcHl0aG9uJywgJy1waCcsICc3LjAnLCAnLXRuJywgJzgnLCAnLW1hJywgJzIwMCcsICctbWV0YWxfYmluZGluZycsICctaW1hZScsICc8aW5maWxlLm1hZT4nLCAnLW9tYWUnLCAnPG91dGZpbGUubWFlPic=

> <r_epik_Ionization_Penalty>
2.03633

> <r_epik_Ionization_Penalty_Charging>
2.03219

> <r_epik_Ionization_Penalty_Neutral>
0.00414252

> <r_epik_State_Penalty>
2.16328

> <r_epik_Charging_Adjusted_Penalty>
4.19546

> <i_epik_Tot_Q>
1

> <i_epik_Tot_abs_Q>
1

> <r_epik_Metal_State_Penalty>
2.16381

> <b_epik_Metal_Only>
0

> <s_lp_Force_Field>
OPLS_2005

> <r_lp_Energy>
45.3922

> <b_lp_Chiralities_Consistent>
1

> <s_lp_Variant>
AV-unprocessed.smi:1787-3

> <Gold.Version>
5.8.1

> <Gold.Id.Protein>
6NUR|6NUR_protein|mol2

> <Gold.PLP.Fitness>
44.0293

> <Gold.PLP.PLP>
-29.7514

> <Gold.PLP.part.hbond>
-3.0000

> <Gold.PLP.part.metal>
0.0000

> <Gold.PLP.part.buried>
-0.0952

> <Gold.PLP.part.nonpolar>
-26.6690

> <Gold.PLP.part.repulsive>
0.2470

> <Gold.PLP.ligand.clash>
0.0000

> <Gold.PLP.ligand.torsion>
0.3877

> <Gold.PLP.Chemscore.Hbond>
4.0000

> <Gold.PLP.Chemscore.CHOScore>
0.9664

> <Gold.PLP.Chemscore.Metal>
0.0000

> <Gold.Chemscore.Hbonds>
donor molecule, donor type, donor heavy atom, donor atom, acceptor molecule, acceptor atom, score
      L1  H     3    23       P1 10175  1.00
      L1  H     6    45       P1  7948  2.00
      L1  H    16    40       P1 10175  1.00
      L1  C    22    44       P1 10160  0.86

> <Gold.PLP.Chemscore.Internal.Correction>
0.1540

> <Gold.Rescore>
     Score         DG    S(hbond)    S(metal)    S(lipo)     H(rot)  DE(clash)    DE(int)     intcor
     19.03     -20.68       2.95        0.00      78.27       1.49       0.06       1.59       ----

> <Gold.Chemscore.Fitness>
19.0272

> <Gold.Chemscore.DG>
-20.6804

> <Gold.Chemscore.ZeroCoef>
-5.4800

> <Gold.Chemscore.Hbond>
2.9483

> <Gold.Chemscore.Metal>
0.0000

> <Gold.Chemscore.Lipo>
78.2667

> <Gold.Chemscore.Internal_Hbond>
0.0000

> <Gold.Chemscore.DEClash>
0.0589

> <Gold.Chemscore.DEInternal>
1.5943

> <Gold.Chemscore.Rot>
1.4860

> <Gold.Chemscore.Internal.Correction>
   9.000000E+99

> <Gold.Chemscore.Hbonds>
donor molecule, donor type, donor heavy atom, donor atom, acceptor molecule, acceptor atom, score
      L1  H     3    23       P1 10175  0.98
      L1  H     6    45       P1  7948  0.99
      L1  H    16    40       P1 10175  0.98

> <Gold.Chemscore.Hbond.Weighted>
-9.8474

> <Gold.Chemscore.Metal.Weighted>
-0.0000

> <Gold.Chemscore.Lipo.Weighted>
-9.1572

> <Gold.Chemscore.Internal_Hbond.Weighted>
0.0000

> <Gold.Chemscore.DEClash.Weighted>
0.0589

> <Gold.Chemscore.DEInternal.Weighted>
1.5943

> <Gold.Chemscore.Rot.Weighted>
3.8042

> <Gold.Chemscore.Internal.Correction.Weighted>
   9.000000E+99

> <Gold.Protein.RotatedTorsions>
[ 6907 6896 6895 6894 ] final  166.23 input  -60.11 | X-H torsion
[ 7974 7965 7964 7962 ] final  -24.61 input  175.53 | X-H torsion
[ 8008 7997 7996 7995 ] final   28.70 input   59.86 | X-H torsion
[ 10167 10162 10161 10158 ] final -149.47 input  -65.29 | X-H torsion
[ 10718 10713 10712 10709 ] final  -11.62 input   66.30 | X-H torsion
[ 10763 10752 10751 10750 ] final  118.50 input  -60.55 | X-H torsion
[ 11005 11000 10999 10996 ] final   10.85 input  -57.11 | X-H torsion

> <Gold.Protein.ActiveResidues>
 VAL166  LYS551  ARG553  GLY616  TRP617  ASP618  TYR619  PRO620  LYS621  CYS622 
 ASP623  PHE694  ASN695  SER759  ASP760  ASP761  ALA762  ILE779  LEU786  VAL792 
 PHE793  MET794  SER795  GLU796  ALA797  LYS798  CYS799  TRP800  GLU811  SER814 

> <Gold.Protein.RotatedAtoms>
  151.8821  133.3497  159.3769 H   0  0  0  0  0  0  0  0  0  0  0  0  # atno 6907 bound_to 6896
  150.7125  134.5008  159.5570 H   0  0  0  0  0  0  0  0  0  0  0  0  # atno 6908 bound_to 6896
  152.2562  134.8082  160.0489 H   0  0  0  0  0  0  0  0  0  0  0  0  # atno 6909 bound_to 6896
  146.1544  140.4774  142.8598 H   0  0  0  0  0  0  0  0  0  0  0  0  # atno 7974 bound_to 7965
  155.0628  140.3192  155.4655 H   0  0  0  0  0  0  0  0  0  0  0  0  # atno 8008 bound_to 7997
  156.2809  140.2126  156.5700 H   0  0  0  0  0  0  0  0  0  0  0  0  # atno 8009 bound_to 7997
  154.7118  140.0497  157.0544 H   0  0  0  0  0  0  0  0  0  0  0  0  # atno 8010 bound_to 7997
  139.7440  143.8619  152.2570 H   0  0  0  0  0  0  0  0  0  0  0  0  # atno 10167 bound_to 10162
  156.6564  130.4969  149.6045 H   0  0  0  0  0  0  0  0  0  0  0  0  # atno 10718 bound_to 10713
  153.5686  135.3506  155.2828 H   0  0  0  0  0  0  0  0  0  0  0  0  # atno 10763 bound_to 10752
  154.8685  135.4154  154.2750 H   0  0  0  0  0  0  0  0  0  0  0  0  # atno 10764 bound_to 10752
  153.3511  135.7055  153.6857 H   0  0  0  0  0  0  0  0  0  0  0  0  # atno 10765 bound_to 10752
  140.5098  134.0663  155.7815 H   0  0  0  0  0  0  0  0  0  0  0  0  # atno 11005 bound_to 11000
  144.7944  140.6095  143.6520 LP  0  0  0  0  0  0  0  0  0  0  0  0  # atno 17320 bound_to 7965
  145.4745  139.1500  143.3796 LP  0  0  0  0  0  0  0  0  0  0  0  0  # atno 17321 bound_to 7965
  139.8578  144.7132  150.9136 LP  0  0  0  0  0  0  0  0  0  0  0  0  # atno 17342 bound_to 10162
  140.7789  143.3843  151.1421 LP  0  0  0  0  0  0  0  0  0  0  0  0  # atno 17343 bound_to 10162
  156.2045  130.6640  151.1203 LP  0  0  0  0  0  0  0  0  0  0  0  0  # atno 17370 bound_to 10713
  157.7124  131.0727  150.6452 LP  0  0  0  0  0  0  0  0  0  0  0  0  # atno 17371 bound_to 10713
  141.1391  133.9169  157.2366 LP  0  0  0  0  0  0  0  0  0  0  0  0  # atno 17394 bound_to 11000
  139.9665  135.0140  156.9401 LP  0  0  0  0  0  0  0  0  0  0  0  0  # atno 17395 bound_to 11000

$$$$
