AV-unprocessed.smi:907|AV-procd|sdf|4108|dock5
  -GOLD-   22720 2 03D 1   1.00000     0.00000
 Structure written by MMmdl.
 53 56  0  0  0  0  0  0  0  0  2 V2000
  151.6016  140.7636  155.5538 O   0  0  0  0  0  0  0  0  0  0  0  0
  150.4935  140.2306  155.4875 C   0  0  0  0  0  0  0  0  0  0  0  0
  149.4756  140.6003  156.2812 N   0  0  0  0  0  0  0  0  0  0  0  0
  149.5416  141.6646  157.2730 C   0  0  0  0  0  0  0  0  0  0  0  0
  150.8252  141.5450  158.1064 C   0  0  0  0  0  0  0  0  0  0  0  0
  151.2125  142.8583  158.7595 C   0  0  0  0  0  0  0  0  0  0  0  0
  151.6970  143.9335  157.9845 C   0  0  0  0  0  0  0  0  0  0  0  0
  152.0356  145.1331  158.6398 C   0  0  0  0  0  0  0  0  0  0  0  0
  151.8771  145.2112  160.0369 C   0  0  0  0  0  0  0  0  0  0  0  0
  151.3850  144.0810  160.7197 C   0  0  0  0  0  0  0  0  0  0  0  0
  151.0577  142.9260  160.1010 N   0  0  0  0  0  0  0  0  0  0  0  0
  150.2092  139.2133  154.6356 N   0  0  0  0  0  0  0  0  0  0  0  0
  151.1489  138.2017  154.1373 C   0  0  0  0  0  0  0  0  0  0  0  0
  150.8517  136.8666  154.8407 C   0  0  0  0  0  0  0  0  0  0  0  0
  149.4359  136.4319  154.6468 N   0  3  0  0  0  0  0  0  0  0  0  0
  149.1607  135.1304  155.3303 C   0  0  2  0  0  0  0  0  0  0  0  0
  150.3435  134.1367  155.1754 C   0  0  0  0  0  0  0  0  0  0  0  0
  149.6858  132.8743  154.5951 C   0  0  1  0  0  0  0  0  0  0  0  0
  148.7998  132.2173  155.6660 C   0  0  0  0  0  0  0  0  0  0  0  0
  147.6119  133.1904  155.7562 C   0  0  0  0  0  0  0  0  0  0  0  0
  147.9876  134.2931  154.7456 C   0  0  2  0  0  0  0  0  0  0  0  0
  148.6586  133.4776  153.6466 C   0  0  0  0  0  0  0  0  0  0  0  0
  148.4678  137.5205  154.9748 C   0  0  0  0  0  0  0  0  0  0  0  0
  148.8354  138.8490  154.2866 C   0  0  0  0  0  0  0  0  0  0  0  0
  148.5963  140.1129  156.1901 H   0  0  0  0  0  0  0  0  0  0  0  0
  149.5102  142.6303  156.7663 H   0  0  0  0  0  0  0  0  0  0  0  0
  148.6675  141.6119  157.9243 H   0  0  0  0  0  0  0  0  0  0  0  0
  150.6971  140.7898  158.8836 H   0  0  0  0  0  0  0  0  0  0  0  0
  151.6477  141.2011  157.4776 H   0  0  0  0  0  0  0  0  0  0  0  0
  151.8052  143.8444  156.9136 H   0  0  0  0  0  0  0  0  0  0  0  0
  152.4088  145.9786  158.0809 H   0  0  0  0  0  0  0  0  0  0  0  0
  152.1258  146.1152  160.5724 H   0  0  0  0  0  0  0  0  0  0  0  0
  151.2499  144.1057  161.7908 H   0  0  0  0  0  0  0  0  0  0  0  0
  151.0196  138.0921  153.0594 H   0  0  0  0  0  0  0  0  0  0  0  0
  152.1976  138.4641  154.2763 H   0  0  0  0  0  0  0  0  0  0  0  0
  151.5430  136.1131  154.4655 H   0  0  0  0  0  0  0  0  0  0  0  0
  151.0526  136.9669  155.9086 H   0  0  0  0  0  0  0  0  0  0  0  0
  148.9680  135.3394  156.3841 H   0  0  0  0  0  0  0  0  0  0  0  0
  151.0908  134.4982  154.4678 H   0  0  0  0  0  0  0  0  0  0  0  0
  150.8510  133.9447  156.1215 H   0  0  0  0  0  0  0  0  0  0  0  0
  150.3938  132.1870  154.1310 H   0  0  0  0  0  0  0  0  0  0  0  0
  148.4647  131.2307  155.3435 H   0  0  0  0  0  0  0  0  0  0  0  0
  149.3185  132.1012  156.6183 H   0  0  0  0  0  0  0  0  0  0  0  0
  146.6891  132.6914  155.4570 H   0  0  0  0  0  0  0  0  0  0  0  0
  147.4656  133.5784  156.7650 H   0  0  0  0  0  0  0  0  0  0  0  0
  147.1061  134.8476  154.4327 H   0  0  0  0  0  0  0  0  0  0  0  0
  149.1003  134.0913  152.8595 H   0  0  0  0  0  0  0  0  0  0  0  0
  147.9991  132.7345  153.1944 H   0  0  0  0  0  0  0  0  0  0  0  0
  147.4651  137.2580  154.6450 H   0  0  0  0  0  0  0  0  0  0  0  0
  148.4290  137.6582  156.0568 H   0  0  0  0  0  0  0  0  0  0  0  0
  148.1122  139.6201  154.5566 H   0  0  0  0  0  0  0  0  0  0  0  0
  148.7572  138.7422  153.2038 H   0  0  0  0  0  0  0  0  0  0  0  0
  149.3254  136.2605  153.6575 H   0  0  0  0  0  0  0  0  0  0  0  0
  1  2  2  0  0  0  0
  2  3  1  0  0  0  0
  2 12  1  0  0  0  0
  3  4  1  0  0  0  0
  3 25  1  0  0  0  0
  4  5  1  0  0  0  0
  4 26  1  0  0  0  0
  4 27  1  0  0  0  0
  5  6  1  0  0  0  0
  5 28  1  0  0  0  0
  5 29  1  0  0  0  0
  6 11  1  0  0  0  0
  6  7  2  0  0  0  0
  7  8  1  0  0  0  0
  7 30  1  0  0  0  0
  8  9  2  0  0  0  0
  8 31  1  0  0  0  0
  9 10  1  0  0  0  0
  9 32  1  0  0  0  0
 10 11  2  0  0  0  0
 10 33  1  0  0  0  0
 12 24  1  0  0  0  0
 12 13  1  0  0  0  0
 13 14  1  0  0  0  0
 13 34  1  0  0  0  0
 13 35  1  0  0  0  0
 14 15  1  0  0  0  0
 14 36  1  0  0  0  0
 14 37  1  0  0  0  0
 15 16  1  0  0  0  0
 15 23  1  0  0  0  0
 15 53  1  0  0  0  0
 16 21  1  0  0  0  0
 16 17  1  0  0  0  0
 16 38  1  0  0  0  0
 17 18  1  0  0  0  0
 17 39  1  0  0  0  0
 17 40  1  0  0  0  0
 18 22  1  0  0  0  0
 18 19  1  0  0  0  0
 18 41  1  0  0  0  0
 19 20  1  0  0  0  0
 19 42  1  0  0  0  0
 19 43  1  0  0  0  0
 20 21  1  0  0  0  0
 20 44  1  0  0  0  0
 20 45  1  0  0  0  0
 21 22  1  0  0  0  0
 21 46  1  0  0  0  0
 22 47  1  0  0  0  0
 22 48  1  0  0  0  0
 23 24  1  0  0  0  0
 23 49  1  0  0  0  0
 23 50  1  0  0  0  0
 24 51  1  0  0  0  0
 24 52  1  0  0  0  0
M  CHG  1  15   1
M  END
> <s_m_source_file>
AV-unprocessed.smi

> <i_m_source_file_index>
907

> <i_lp_mmshare_version>
43012

> <i_f3d_flags>
0

> <s_epik_input>
W0NIMl0xW0NIMl1bQ0BASF0oW0NIMl0yKVtDQEBIXShbQ0gyXVtDQEhdMTIpTihbQ0gyXVtDSDJdMylbQ0gyXVtDSDJdTjNDKD1PKVtOSF1bQ0gyXVtDSDJdYzRbY0hdW2NIXVtjSF1bY0hdbjQ=

> <s_epik_cmdline>
J2VwaWtfcHl0aG9uJywgJy1waCcsICc3LjAnLCAnLXRuJywgJzgnLCAnLW1hJywgJzIwMCcsICctbWV0YWxfYmluZGluZycsICctaW1hZScsICc8aW5maWxlLm1hZT4nLCAnLW9tYWUnLCAnPG91dGZpbGUubWFlPic=

> <r_epik_Ionization_Penalty>
0.0419258

> <r_epik_Ionization_Penalty_Charging>
0.00262064

> <r_epik_Ionization_Penalty_Neutral>
0.0393052

> <r_epik_State_Penalty>
0.0329887

> <r_epik_Charging_Adjusted_Penalty>
0.0356093

> <i_epik_Tot_Q>
1

> <i_epik_Tot_abs_Q>
1

> <r_epik_Metal_State_Penalty>
0.0309172

> <b_epik_Metal_Only>
0

> <s_lp_Force_Field>
OPLS_2005

> <r_lp_Energy>
96.3886

> <b_lp_Chiralities_Consistent>
1

> <s_lp_Variant>
AV-unprocessed.smi:907-3

> <Gold.Version>
5.8.1

> <Gold.Id.Protein>
6NUR|6NUR_protein|mol2

> <Gold.PLP.Fitness>
51.5270

> <Gold.PLP.PLP>
-46.8357

> <Gold.PLP.part.hbond>
-3.0000

> <Gold.PLP.part.metal>
0.0000

> <Gold.PLP.part.buried>
-5.0036

> <Gold.PLP.part.nonpolar>
-38.7546

> <Gold.PLP.part.repulsive>
0.0988

> <Gold.PLP.ligand.clash>
0.7070

> <Gold.PLP.ligand.torsion>
0.8903

> <Gold.PLP.Chemscore.Hbond>
2.3608

> <Gold.PLP.Chemscore.CHOScore>
0.0000

> <Gold.PLP.Chemscore.Metal>
0.0000

> <Gold.Chemscore.Hbonds>
donor molecule, donor type, donor heavy atom, donor atom, acceptor molecule, acceptor atom, score
      L1  H    15    53       P1  7948  2.00
      P1  H  7989  7998       L1     1  0.33

> <Gold.PLP.Chemscore.Internal.Correction>
0.0966

> <Gold.Rescore>
     Score         DG    S(hbond)    S(metal)    S(lipo)     H(rot)  DE(clash)    DE(int)     intcor
     19.09     -21.19       1.74        0.00     114.68       1.37       0.05       2.05       ----

> <Gold.Chemscore.Fitness>
19.0852

> <Gold.Chemscore.DG>
-21.1870

> <Gold.Chemscore.ZeroCoef>
-5.4800

> <Gold.Chemscore.Hbond>
1.7378

> <Gold.Chemscore.Metal>
0.0000

> <Gold.Chemscore.Lipo>
114.6843

> <Gold.Chemscore.Internal_Hbond>
0.0000

> <Gold.Chemscore.DEClash>
0.0535

> <Gold.Chemscore.DEInternal>
2.0484

> <Gold.Chemscore.Rot>
1.3731

> <Gold.Chemscore.Internal.Correction>
   9.000000E+99

> <Gold.Chemscore.Hbonds>
donor molecule, donor type, donor heavy atom, donor atom, acceptor molecule, acceptor atom, score
      L1  H    15    53       P1  7948  0.85
      P1  H  7989  7998       L1     1  0.01

> <Gold.Chemscore.Hbond.Weighted>
-5.8041

> <Gold.Chemscore.Metal.Weighted>
-0.0000

> <Gold.Chemscore.Lipo.Weighted>
-13.4181

> <Gold.Chemscore.Internal_Hbond.Weighted>
0.0000

> <Gold.Chemscore.DEClash.Weighted>
0.0535

> <Gold.Chemscore.DEInternal.Weighted>
2.0484

> <Gold.Chemscore.Rot.Weighted>
3.5152

> <Gold.Chemscore.Internal.Correction.Weighted>
   9.000000E+99

> <Gold.Protein.RotatedTorsions>
[ 6907 6896 6895 6894 ] final   68.04 input  -60.11 | X-H torsion
[ 7974 7965 7964 7962 ] final -174.19 input  175.53 | X-H torsion
[ 8008 7997 7996 7995 ] final   -0.39 input   59.86 | X-H torsion
[ 10167 10162 10161 10158 ] final  134.71 input  -65.29 | X-H torsion
[ 10718 10713 10712 10709 ] final  149.95 input   66.30 | X-H torsion
[ 10763 10752 10751 10750 ] final -179.78 input  -60.55 | X-H torsion
[ 11005 11000 10999 10996 ] final  -29.10 input  -57.11 | X-H torsion

> <Gold.Protein.ActiveResidues>
 VAL166  LYS551  ARG553  GLY616  TRP617  ASP618  TYR619  PRO620  LYS621  CYS622 
 ASP623  PHE694  ASN695  SER759  ASP760  ASP761  ALA762  ILE779  LEU786  VAL792 
 PHE793  MET794  SER795  GLU796  ALA797  LYS798  CYS799  TRP800  GLU811  SER814 

> <Gold.Protein.RotatedAtoms>
  152.4593  134.5220  159.9785 H   0  0  0  0  0  0  0  0  0  0  0  0  # atno 6907 bound_to 6896
  151.5273  133.3449  159.2920 H   0  0  0  0  0  0  0  0  0  0  0  0  # atno 6908 bound_to 6896
  150.8550  134.7916  159.7101 H   0  0  0  0  0  0  0  0  0  0  0  0  # atno 6909 bound_to 6896
  144.7133  140.1508  143.6384 H   0  0  0  0  0  0  0  0  0  0  0  0  # atno 7974 bound_to 7965
  154.6586  140.2585  155.7133 H   0  0  0  0  0  0  0  0  0  0  0  0  # atno 8008 bound_to 7997
  156.2608  140.2853  156.0971 H   0  0  0  0  0  0  0  0  0  0  0  0  # atno 8009 bound_to 7997
  155.1342  140.0379  157.2772 H   0  0  0  0  0  0  0  0  0  0  0  0  # atno 8010 bound_to 7997
  139.5245  144.6554  151.5179 H   0  0  0  0  0  0  0  0  0  0  0  0  # atno 10167 bound_to 10162
  157.2897  131.0851  151.1471 H   0  0  0  0  0  0  0  0  0  0  0  0  # atno 10718 bound_to 10713
  154.5307  135.2799  155.1183 H   0  0  0  0  0  0  0  0  0  0  0  0  # atno 10763 bound_to 10752
  154.2704  135.6304  153.5312 H   0  0  0  0  0  0  0  0  0  0  0  0  # atno 10764 bound_to 10752
  152.9956  135.5627  154.5819 H   0  0  0  0  0  0  0  0  0  0  0  0  # atno 10765 bound_to 10752
  140.9267  133.7364  156.0877 H   0  0  0  0  0  0  0  0  0  0  0  0  # atno 11005 bound_to 11000
  145.9118  139.2491  143.1433 LP  0  0  0  0  0  0  0  0  0  0  0  0  # atno 17320 bound_to 7965
  145.9709  140.8761  143.0163 LP  0  0  0  0  0  0  0  0  0  0  0  0  # atno 17321 bound_to 7965
  140.6377  143.8952  150.6662 LP  0  0  0  0  0  0  0  0  0  0  0  0  # atno 17342 bound_to 10162
  140.2276  143.3760  152.1592 LP  0  0  0  0  0  0  0  0  0  0  0  0  # atno 17343 bound_to 10162
  157.2872  130.6779  149.6096 LP  0  0  0  0  0  0  0  0  0  0  0  0  # atno 17370 bound_to 10713
  155.9666  130.4432  150.5410 LP  0  0  0  0  0  0  0  0  0  0  0  0  # atno 17371 bound_to 10713
  140.7917  134.3610  157.5463 LP  0  0  0  0  0  0  0  0  0  0  0  0  # atno 17394 bound_to 11000
  139.8787  134.9144  156.3106 LP  0  0  0  0  0  0  0  0  0  0  0  0  # atno 17395 bound_to 11000

$$$$
