AV-unprocessed.smi:1999|AV-procd|sdf|8092|dock3
  -GOLD-   2272010313D 1   1.00000     0.00000
 Structure written by MMmdl.
 38 39  0  0  0  0  0  0  0  0  1 V2000
  151.3565  140.8085  157.0826 C   0  0  0  0  0  0  0  0  0  0  0  0
  150.8140  139.8155  156.1126 C   0  0  0  0  0  0  0  0  0  0  0  0
  150.5148  140.1271  154.8456 N   0  0  0  0  0  0  0  0  0  0  0  0
  150.0326  139.0367  154.1353 N   0  0  0  0  0  0  0  0  0  0  0  0
  149.9838  137.9305  154.8901 C   0  0  0  0  0  0  0  0  0  0  0  0
  149.5377  136.6693  154.4146 N   0  0  0  0  0  0  0  0  0  0  0  0
  149.3162  135.5444  155.1173 C   0  0  0  0  0  0  0  0  0  0  0  0
  149.5009  135.4126  156.3276 O   0  0  0  0  0  0  0  0  0  0  0  0
  148.8553  134.5634  154.3275 N   0  0  0  0  0  0  0  0  0  0  0  0
  148.4667  133.2280  154.7731 C   0  0  2  0  0  0  0  0  0  0  0  0
  149.5922  132.6107  155.6214 C   0  0  0  0  0  0  0  0  0  0  0  0
  148.1379  132.3737  153.5315 C   0  0  0  0  0  0  0  0  0  0  0  0
  146.8823  132.6949  152.8523 N   0  0  0  0  0  0  0  0  0  0  0  0
  147.0728  133.5817  151.7056 C   0  0  0  0  0  0  0  0  0  0  0  0
  145.7482  133.8783  150.9807 C   0  0  0  0  0  0  0  0  0  0  0  0
  145.1332  132.6572  150.5840 O   0  0  0  0  0  0  0  0  0  0  0  0
  144.8855  131.7871  151.6831 C   0  0  0  0  0  0  0  0  0  0  0  0
  146.2098  131.4804  152.4027 C   0  0  0  0  0  0  0  0  0  0  0  0
  150.5226  138.1361  156.5482 S   0  0  0  0  0  0  0  0  0  0  0  0
  151.2752  141.8203  156.6839 H   0  0  0  0  0  0  0  0  0  0  0  0
  152.4064  140.5953  157.2844 H   0  0  0  0  0  0  0  0  0  0  0  0
  150.8014  140.7575  158.0193 H   0  0  0  0  0  0  0  0  0  0  0  0
  149.3415  136.6250  153.4257 H   0  0  0  0  0  0  0  0  0  0  0  0
  148.7407  134.7613  153.3442 H   0  0  0  0  0  0  0  0  0  0  0  0
  147.5732  133.3259  155.3902 H   0  0  0  0  0  0  0  0  0  0  0  0
  149.3117  131.6235  155.9897 H   0  0  0  0  0  0  0  0  0  0  0  0
  149.8169  133.2284  156.4915 H   0  0  0  0  0  0  0  0  0  0  0  0
  150.5109  132.5007  155.0441 H   0  0  0  0  0  0  0  0  0  0  0  0
  148.9588  132.4471  152.8163 H   0  0  0  0  0  0  0  0  0  0  0  0
  148.1129  131.3288  153.8446 H   0  0  0  0  0  0  0  0  0  0  0  0
  147.5093  134.5277  152.0234 H   0  0  0  0  0  0  0  0  0  0  0  0
  147.7758  133.1321  151.0026 H   0  0  0  0  0  0  0  0  0  0  0  0
  145.0728  134.4400  151.6276 H   0  0  0  0  0  0  0  0  0  0  0  0
  145.9290  134.4903  150.0969 H   0  0  0  0  0  0  0  0  0  0  0  0
  144.1707  132.2469  152.3674 H   0  0  0  0  0  0  0  0  0  0  0  0
  144.4315  130.8669  151.3151 H   0  0  0  0  0  0  0  0  0  0  0  0
  146.8633  130.9231  151.7296 H   0  0  0  0  0  0  0  0  0  0  0  0
  146.0123  130.8292  153.2550 H   0  0  0  0  0  0  0  0  0  0  0  0
  1  2  1  0  0  0  0
  1 20  1  0  0  0  0
  1 21  1  0  0  0  0
  1 22  1  0  0  0  0
  2 19  1  0  0  0  0
  2  3  2  0  0  0  0
  3  4  1  0  0  0  0
  4  5  2  0  0  0  0
  5  6  1  0  0  0  0
  5 19  1  0  0  0  0
  6  7  1  0  0  0  0
  6 23  1  0  0  0  0
  7  8  2  0  0  0  0
  7  9  1  0  0  0  0
  9 10  1  0  0  0  0
  9 24  1  0  0  0  0
 10 11  1  0  0  0  0
 10 12  1  0  0  0  0
 10 25  1  0  0  0  0
 11 26  1  0  0  0  0
 11 27  1  0  0  0  0
 11 28  1  0  0  0  0
 12 13  1  0  0  0  0
 12 29  1  0  0  0  0
 12 30  1  0  0  0  0
 13 18  1  0  0  0  0
 13 14  1  0  0  0  0
 14 15  1  0  0  0  0
 14 31  1  0  0  0  0
 14 32  1  0  0  0  0
 15 16  1  0  0  0  0
 15 33  1  0  0  0  0
 15 34  1  0  0  0  0
 16 17  1  0  0  0  0
 17 18  1  0  0  0  0
 17 35  1  0  0  0  0
 17 36  1  0  0  0  0
 18 37  1  0  0  0  0
 18 38  1  0  0  0  0
M  END
> <s_m_source_file>
AV-unprocessed.smi

> <i_m_source_file_index>
1999

> <i_lp_mmshare_version>
43012

> <i_f3d_flags>
0

> <s_epik_input>
W0NIM11jMW5uYyhzMSlbTkhdQyg9TylbTkhdW0NASF0oW0NIM10pW0NIMl1OMltDSDJdW0NIMl1PW0NIMl1bQ0gyXTI=

> <s_epik_cmdline>
J2VwaWtfcHl0aG9uJywgJy1waCcsICc3LjAnLCAnLXRuJywgJzgnLCAnLW1hJywgJzIwMCcsICctbWV0YWxfYmluZGluZycsICctaW1hZScsICc8aW5maWxlLm1hZT4nLCAnLW9tYWUnLCAnPG91dGZpbGUubWFlPic=

> <r_lp_tautomer_probability>
1

> <r_epik_Ionization_Penalty>
0.221412

> <r_epik_Ionization_Penalty_Charging>
0

> <r_epik_Ionization_Penalty_Neutral>
0.221412

> <r_epik_State_Penalty>
0.209349

> <r_epik_Charging_Adjusted_Penalty>
0.209349

> <i_epik_Tot_Q>
0

> <i_epik_Tot_abs_Q>
0

> <r_epik_Metal_State_Penalty>
0.56886

> <b_epik_Metal_Only>
0

> <s_lp_Force_Field>
OPLS_2005

> <r_lp_Energy>
22.1143

> <b_lp_Chiralities_Consistent>
1

> <s_lp_Variant>
AV-unprocessed.smi:1999-1

> <Gold.Version>
5.8.1

> <Gold.Id.Protein>
6NUR|6NUR_protein|mol2

> <Gold.PLP.Fitness>
34.2848

> <Gold.PLP.PLP>
-27.2541

> <Gold.PLP.part.hbond>
-3.4668

> <Gold.PLP.part.metal>
0.0000

> <Gold.PLP.part.buried>
-4.5845

> <Gold.PLP.part.nonpolar>
-20.3792

> <Gold.PLP.part.repulsive>
0.5884

> <Gold.PLP.ligand.clash>
0.0000

> <Gold.PLP.ligand.torsion>
0.6888

> <Gold.PLP.Chemscore.Hbond>
2.7920

> <Gold.PLP.Chemscore.CHOScore>
0.0000

> <Gold.PLP.Chemscore.Metal>
0.0000

> <Gold.Chemscore.Hbonds>
donor molecule, donor type, donor heavy atom, donor atom, acceptor molecule, acceptor atom, score
      L1  H     6    23       P1  7948  1.00
      L1  H     9    24       P1  7948  0.84
      P1  H  7989  7998       L1     3  0.95

> <Gold.PLP.Chemscore.Internal.Correction>
0.0323

> <Gold.Rescore>
     Score         DG    S(hbond)    S(metal)    S(lipo)     H(rot)  DE(clash)    DE(int)     intcor
      9.86     -12.96       1.50        0.00      55.76       1.58       0.00       3.09       ----

> <Gold.Chemscore.Fitness>
9.8585

> <Gold.Chemscore.DG>
-12.9556

> <Gold.Chemscore.ZeroCoef>
-5.4800

> <Gold.Chemscore.Hbond>
1.4988

> <Gold.Chemscore.Metal>
0.0000

> <Gold.Chemscore.Lipo>
55.7586

> <Gold.Chemscore.Internal_Hbond>
0.0000

> <Gold.Chemscore.DEClash>
0.0021

> <Gold.Chemscore.DEInternal>
3.0949

> <Gold.Chemscore.Rot>
1.5837

> <Gold.Chemscore.Internal.Correction>
   9.000000E+99

> <Gold.Chemscore.Hbonds>
donor molecule, donor type, donor heavy atom, donor atom, acceptor molecule, acceptor atom, score
      L1  H     6    23       P1  7948  0.90
      L1  H     9    24       P1  7948  0.31
      P1  H  7989  7998       L1     3  0.21

> <Gold.Chemscore.Hbond.Weighted>
-5.0060

> <Gold.Chemscore.Metal.Weighted>
-0.0000

> <Gold.Chemscore.Lipo.Weighted>
-6.5238

> <Gold.Chemscore.Internal_Hbond.Weighted>
0.0000

> <Gold.Chemscore.DEClash.Weighted>
0.0021

> <Gold.Chemscore.DEInternal.Weighted>
3.0949

> <Gold.Chemscore.Rot.Weighted>
4.0542

> <Gold.Chemscore.Internal.Correction.Weighted>
   9.000000E+99

> <Gold.Protein.RotatedTorsions>
[ 6907 6896 6895 6894 ] final -114.14 input  -60.11 | X-H torsion
[ 7974 7965 7964 7962 ] final  -51.62 input  175.53 | X-H torsion
[ 8008 7997 7996 7995 ] final  108.48 input   59.86 | X-H torsion
[ 10167 10162 10161 10158 ] final   57.88 input  -65.29 | X-H torsion
[ 10718 10713 10712 10709 ] final   27.44 input   66.30 | X-H torsion
[ 10763 10752 10751 10750 ] final  -71.88 input  -60.55 | X-H torsion
[ 11005 11000 10999 10996 ] final -108.01 input  -57.11 | X-H torsion

> <Gold.Protein.ActiveResidues>
 VAL166  LYS551  ARG553  GLY616  TRP617  ASP618  TYR619  PRO620  LYS621  CYS622 
 ASP623  PHE694  ASN695  SER759  ASP760  ASP761  ALA762  ILE779  LEU786  VAL792 
 PHE793  MET794  SER795  GLU796  ALA797  LYS798  CYS799  TRP800  GLU811  SER814 

> <Gold.Protein.RotatedAtoms>
  150.7880  133.8844  159.3294 H   0  0  0  0  0  0  0  0  0  0  0  0  # atno 6907 bound_to 6896
  151.6690  135.0977  160.0203 H   0  0  0  0  0  0  0  0  0  0  0  0  # atno 6908 bound_to 6896
  152.3948  133.6692  159.6302 H   0  0  0  0  0  0  0  0  0  0  0  0  # atno 6909 bound_to 6896
  145.9169  140.7867  142.9667 H   0  0  0  0  0  0  0  0  0  0  0  0  # atno 7974 bound_to 7965
  156.1906  140.3075  155.9325 H   0  0  0  0  0  0  0  0  0  0  0  0  # atno 8008 bound_to 7997
  155.3182  140.0454  157.3055 H   0  0  0  0  0  0  0  0  0  0  0  0  # atno 8009 bound_to 7997
  154.5447  140.2273  155.8591 H   0  0  0  0  0  0  0  0  0  0  0  0  # atno 8010 bound_to 7997
  140.1932  144.4064  150.6562 H   0  0  0  0  0  0  0  0  0  0  0  0  # atno 10167 bound_to 10162
  157.2202  130.6975  149.6267 H   0  0  0  0  0  0  0  0  0  0  0  0  # atno 10718 bound_to 10713
  154.4380  135.5948  153.6111 H   0  0  0  0  0  0  0  0  0  0  0  0  # atno 10763 bound_to 10752
  152.9803  135.5991  154.3758 H   0  0  0  0  0  0  0  0  0  0  0  0  # atno 10764 bound_to 10752
  154.3604  135.2841  155.2301 H   0  0  0  0  0  0  0  0  0  0  0  0  # atno 10765 bound_to 10752
  141.0924  133.9031  157.2043 H   0  0  0  0  0  0  0  0  0  0  0  0  # atno 11005 bound_to 11000
  144.6749  140.1914  143.7396 LP  0  0  0  0  0  0  0  0  0  0  0  0  # atno 17320 bound_to 7965
  145.8600  139.2218  143.1722 LP  0  0  0  0  0  0  0  0  0  0  0  0  # atno 17321 bound_to 7965
  140.6441  143.2210  151.6224 LP  0  0  0  0  0  0  0  0  0  0  0  0  # atno 17342 bound_to 10162
  139.5247  144.3095  152.1005 LP  0  0  0  0  0  0  0  0  0  0  0  0  # atno 17343 bound_to 10162
  155.9683  130.4522  150.5766 LP  0  0  0  0  0  0  0  0  0  0  0  0  # atno 17370 bound_to 10713
  157.3584  131.0745  151.1657 LP  0  0  0  0  0  0  0  0  0  0  0  0  # atno 17371 bound_to 10713
  139.9753  135.0116  156.9615 LP  0  0  0  0  0  0  0  0  0  0  0  0  # atno 17394 bound_to 11000
  140.5220  134.0898  155.7294 LP  0  0  0  0  0  0  0  0  0  0  0  0  # atno 17395 bound_to 11000

$$$$
