AV-unprocessed.smi:440|AV-procd|sdf|2581|dock4
  -GOLD-   2262022563D 1   1.00000     0.00000
 Structure written by MMmdl.
 41 42  0  0  0  0  0  0  0  0  1 V2000
  152.8201  138.3880  156.6239 C   0  0  0  0  0  0  0  0  0  0  0  0
  151.9008  139.5585  156.4206 C   0  0  0  0  0  0  0  0  0  0  0  0
  152.0345  140.6274  157.1864 N   0  0  0  0  0  0  0  0  0  0  0  0
  151.0798  141.4810  156.7623 N   0  0  0  0  0  0  0  0  0  0  0  0
  150.9486  142.7761  157.4132 C   0  0  0  0  0  0  0  0  0  0  0  0
  152.1343  143.1154  158.3427 C   0  0  0  0  0  0  0  0  0  0  0  0
  152.2070  142.1222  159.5116 C   0  0  0  0  0  0  0  0  0  0  0  0
  152.1000  144.5650  158.8577 C   0  0  0  0  0  0  0  0  0  0  0  0
  150.3478  140.9505  155.7153 C   0  0  0  0  0  0  0  0  0  0  0  0
  149.2348  141.6962  155.0508 C   0  0  0  0  0  0  0  0  0  0  0  0
  150.8503  139.7008  155.4672 C   0  0  0  0  0  0  0  0  0  0  0  0
  150.4109  138.6985  154.4298 C   0  0  0  0  0  0  0  0  0  0  0  0
  148.8851  138.6033  154.4185 C   0  0  0  0  0  0  0  0  0  0  0  0
  148.2910  138.1346  155.3894 O   0  0  0  0  0  0  0  0  0  0  0  0
  148.2693  139.0559  153.3162 N   0  0  0  0  0  0  0  0  0  0  0  0
  146.8590  139.0898  153.1060 C   0  0  0  0  0  0  0  0  0  0  0  0
  146.1107  137.7747  153.1367 C   0  0  0  0  0  0  0  0  0  0  0  0
  146.3302  138.4791  151.8262 C   0  0  0  0  0  0  0  0  0  0  0  0
  152.2545  137.4630  156.7377 H   0  0  0  0  0  0  0  0  0  0  0  0
  153.4373  138.5080  157.5151 H   0  0  0  0  0  0  0  0  0  0  0  0
  153.4893  138.2664  155.7722 H   0  0  0  0  0  0  0  0  0  0  0  0
  150.8460  143.5447  156.6452 H   0  0  0  0  0  0  0  0  0  0  0  0
  150.0141  142.7845  157.9748 H   0  0  0  0  0  0  0  0  0  0  0  0
  153.0532  143.0000  157.7675 H   0  0  0  0  0  0  0  0  0  0  0  0
  151.3163  142.1818  160.1379 H   0  0  0  0  0  0  0  0  0  0  0  0
  153.0726  142.3205  160.1442 H   0  0  0  0  0  0  0  0  0  0  0  0
  152.2927  141.0966  159.1513 H   0  0  0  0  0  0  0  0  0  0  0  0
  151.1782  144.7682  159.4035 H   0  0  0  0  0  0  0  0  0  0  0  0
  152.1705  145.2842  158.0416 H   0  0  0  0  0  0  0  0  0  0  0  0
  152.9349  144.7615  159.5309 H   0  0  0  0  0  0  0  0  0  0  0  0
  148.8904  141.1763  154.1569 H   0  0  0  0  0  0  0  0  0  0  0  0
  149.5569  142.6921  154.7469 H   0  0  0  0  0  0  0  0  0  0  0  0
  148.3834  141.8028  155.7223 H   0  0  0  0  0  0  0  0  0  0  0  0
  150.7590  138.9743  153.4338 H   0  0  0  0  0  0  0  0  0  0  0  0
  150.8287  137.7110  154.6286 H   0  0  0  0  0  0  0  0  0  0  0  0
  148.8462  139.4242  152.5740 H   0  0  0  0  0  0  0  0  0  0  0  0
  146.3178  139.9583  153.4792 H   0  0  0  0  0  0  0  0  0  0  0  0
  146.6828  136.8673  153.3216 H   0  0  0  0  0  0  0  0  0  0  0  0
  145.1031  137.7811  153.5474 H   0  0  0  0  0  0  0  0  0  0  0  0
  145.4695  138.9562  151.3617 H   0  0  0  0  0  0  0  0  0  0  0  0
  147.0488  138.0409  151.1356 H   0  0  0  0  0  0  0  0  0  0  0  0
  1  2  1  0  0  0  0
  1 19  1  0  0  0  0
  1 20  1  0  0  0  0
  1 21  1  0  0  0  0
  2 11  1  0  0  0  0
  2  3  2  0  0  0  0
  3  4  1  0  0  0  0
  4  5  1  0  0  0  0
  4  9  1  0  0  0  0
  5  6  1  0  0  0  0
  5 22  1  0  0  0  0
  5 23  1  0  0  0  0
  6  7  1  0  0  0  0
  6  8  1  0  0  0  0
  6 24  1  0  0  0  0
  7 25  1  0  0  0  0
  7 26  1  0  0  0  0
  7 27  1  0  0  0  0
  8 28  1  0  0  0  0
  8 29  1  0  0  0  0
  8 30  1  0  0  0  0
  9 10  1  0  0  0  0
  9 11  2  0  0  0  0
 10 31  1  0  0  0  0
 10 32  1  0  0  0  0
 10 33  1  0  0  0  0
 11 12  1  0  0  0  0
 12 13  1  0  0  0  0
 12 34  1  0  0  0  0
 12 35  1  0  0  0  0
 13 14  2  0  0  0  0
 13 15  1  0  0  0  0
 15 16  1  0  0  0  0
 15 36  1  0  0  0  0
 16 18  1  0  0  0  0
 16 17  1  0  0  0  0
 16 37  1  0  0  0  0
 17 18  1  0  0  0  0
 17 38  1  0  0  0  0
 17 39  1  0  0  0  0
 18 40  1  0  0  0  0
 18 41  1  0  0  0  0
M  END
> <s_m_source_file>
AV-unprocessed.smi

> <i_m_source_file_index>
440

> <i_lp_mmshare_version>
43012

> <i_f3d_flags>
0

> <s_epik_input>
W0NIM11jMW5uKFtDSDJdW0NIXShbQ0gzXSlbQ0gzXSljKFtDSDNdKWMxW0NIMl1DKD1PKVtOSF1bQ0hdMltDSDJdW0NIMl0y

> <s_epik_cmdline>
J2VwaWtfcHl0aG9uJywgJy1waCcsICc3LjAnLCAnLXRuJywgJzgnLCAnLW1hJywgJzIwMCcsICctbWV0YWxfYmluZGluZycsICctaW1hZScsICc8aW5maWxlLm1hZT4nLCAnLW9tYWUnLCAnPG91dGZpbGUubWFlPic=

> <r_lp_tautomer_probability>
1

> <r_epik_Ionization_Penalty>
0.00313774

> <r_epik_Ionization_Penalty_Charging>
0

> <r_epik_Ionization_Penalty_Neutral>
0.00313774

> <r_epik_State_Penalty>
0.00220979

> <r_epik_Charging_Adjusted_Penalty>
0.00220979

> <i_epik_Tot_Q>
0

> <i_epik_Tot_abs_Q>
0

> <r_epik_Metal_State_Penalty>
-0

> <b_epik_Metal_Only>
0

> <s_lp_Force_Field>
OPLS_2005

> <r_lp_Energy>
13.2521

> <b_lp_Chiralities_Consistent>
1

> <s_lp_Variant>
AV-unprocessed.smi:440-1

> <Gold.Version>
5.8.1

> <Gold.Id.Protein>
6NUR|6NUR_protein|mol2

> <Gold.PLP.Fitness>
42.6753

> <Gold.PLP.PLP>
-40.4598

> <Gold.PLP.part.hbond>
-1.6657

> <Gold.PLP.part.metal>
0.0000

> <Gold.PLP.part.buried>
-1.3344

> <Gold.PLP.part.nonpolar>
-38.5244

> <Gold.PLP.part.repulsive>
0.1507

> <Gold.PLP.ligand.clash>
0.0000

> <Gold.PLP.ligand.torsion>
0.4245

> <Gold.PLP.Chemscore.Hbond>
1.0000

> <Gold.PLP.Chemscore.CHOScore>
0.0000

> <Gold.PLP.Chemscore.Metal>
0.0000

> <Gold.Chemscore.Hbonds>
donor molecule, donor type, donor heavy atom, donor atom, acceptor molecule, acceptor atom, score
      L1  H    15    36       P1  7957  1.00

> <Gold.PLP.Chemscore.Internal.Correction>
0.0644

> <Gold.Rescore>
     Score         DG    S(hbond)    S(metal)    S(lipo)     H(rot)  DE(clash)    DE(int)     intcor
     15.68     -17.46       1.00        0.00     107.45       1.53       0.26       1.52       ----

> <Gold.Chemscore.Fitness>
15.6832

> <Gold.Chemscore.DG>
-17.4598

> <Gold.Chemscore.ZeroCoef>
-5.4800

> <Gold.Chemscore.Hbond>
0.9988

> <Gold.Chemscore.Metal>
0.0000

> <Gold.Chemscore.Lipo>
107.4468

> <Gold.Chemscore.Internal_Hbond>
0.0000

> <Gold.Chemscore.DEClash>
0.2550

> <Gold.Chemscore.DEInternal>
1.5215

> <Gold.Chemscore.Rot>
1.5342

> <Gold.Chemscore.Internal.Correction>
   9.000000E+99

> <Gold.Chemscore.Hbonds>
donor molecule, donor type, donor heavy atom, donor atom, acceptor molecule, acceptor atom, score
      L1  H    15    36       P1  7957  1.00

> <Gold.Chemscore.Hbond.Weighted>
-3.3361

> <Gold.Chemscore.Metal.Weighted>
-0.0000

> <Gold.Chemscore.Lipo.Weighted>
-12.5713

> <Gold.Chemscore.Internal_Hbond.Weighted>
0.0000

> <Gold.Chemscore.DEClash.Weighted>
0.2550

> <Gold.Chemscore.DEInternal.Weighted>
1.5215

> <Gold.Chemscore.Rot.Weighted>
3.9276

> <Gold.Chemscore.Internal.Correction.Weighted>
   9.000000E+99

> <Gold.Protein.RotatedTorsions>
[ 6907 6896 6895 6894 ] final  -39.88 input  -60.11 | X-H torsion
[ 7974 7965 7964 7962 ] final  -14.32 input  175.53 | X-H torsion
[ 8008 7997 7996 7995 ] final   75.36 input   59.86 | X-H torsion
[ 10167 10162 10161 10158 ] final   95.47 input  -65.29 | X-H torsion
[ 10718 10713 10712 10709 ] final -108.10 input   66.30 | X-H torsion
[ 10763 10752 10751 10750 ] final  -37.53 input  -60.55 | X-H torsion
[ 11005 11000 10999 10996 ] final   72.24 input  -57.11 | X-H torsion

> <Gold.Protein.ActiveResidues>
 VAL166  LYS551  ARG553  GLY616  TRP617  ASP618  TYR619  PRO620  LYS621  CYS622 
 ASP623  PHE694  ASN695  SER759  ASP760  ASP761  ALA762  ILE779  LEU786  VAL792 
 PHE793  MET794  SER795  GLU796  ALA797  LYS798  CYS799  TRP800  GLU811  SER814 

> <Gold.Protein.RotatedAtoms>
  150.9850  134.9197  159.7866 H   0  0  0  0  0  0  0  0  0  0  0  0  # atno 6907 bound_to 6896
  152.5234  134.3358  159.9209 H   0  0  0  0  0  0  0  0  0  0  0  0  # atno 6908 bound_to 6896
  151.3365  133.3938  159.2702 H   0  0  0  0  0  0  0  0  0  0  0  0  # atno 6909 bound_to 6896
  146.2079  140.3331  142.8401 H   0  0  0  0  0  0  0  0  0  0  0  0  # atno 7974 bound_to 7965
  155.8118  140.3473  155.5462 H   0  0  0  0  0  0  0  0  0  0  0  0  # atno 8008 bound_to 7997
  155.8433  140.0945  157.1741 H   0  0  0  0  0  0  0  0  0  0  0  0  # atno 8009 bound_to 7997
  154.4005  140.1390  156.3742 H   0  0  0  0  0  0  0  0  0  0  0  0  # atno 8010 bound_to 7997
  139.7986  144.6823  150.9796 H   0  0  0  0  0  0  0  0  0  0  0  0  # atno 10167 bound_to 10162
  156.0469  130.5696  150.7915 H   0  0  0  0  0  0  0  0  0  0  0  0  # atno 10718 bound_to 10713
  153.8978  135.6805  153.4757 H   0  0  0  0  0  0  0  0  0  0  0  0  # atno 10763 bound_to 10752
  153.1146  135.4767  154.9091 H   0  0  0  0  0  0  0  0  0  0  0  0  # atno 10764 bound_to 10752
  154.7590  135.3205  154.8368 H   0  0  0  0  0  0  0  0  0  0  0  0  # atno 10765 bound_to 10752
  139.9501  134.7242  156.0883 H   0  0  0  0  0  0  0  0  0  0  0  0  # atno 11005 bound_to 11000
  144.8838  140.7436  143.5969 LP  0  0  0  0  0  0  0  0  0  0  0  0  # atno 17320 bound_to 7965
  145.3251  139.1776  143.4567 LP  0  0  0  0  0  0  0  0  0  0  0  0  # atno 17321 bound_to 7965
  140.7820  143.4305  151.0701 LP  0  0  0  0  0  0  0  0  0  0  0  0  # atno 17342 bound_to 10162
  139.7978  143.8126  152.3159 LP  0  0  0  0  0  0  0  0  0  0  0  0  # atno 17343 bound_to 10162
  157.5354  131.0938  150.9899 LP  0  0  0  0  0  0  0  0  0  0  0  0  # atno 17370 bound_to 10713
  157.0195  130.5668  149.5330 LP  0  0  0  0  0  0  0  0  0  0  0  0  # atno 17371 bound_to 10713
  141.1162  133.6627  156.3100 LP  0  0  0  0  0  0  0  0  0  0  0  0  # atno 17394 bound_to 11000
  140.5739  134.5813  157.5464 LP  0  0  0  0  0  0  0  0  0  0  0  0  # atno 17395 bound_to 11000

$$$$
