AV-unprocessed.smi:2143|AV-procd|sdf|8727|dock7
  -GOLD-   2272011493D 1   1.00000     0.00000
 Structure written by MMmdl.
 44 45  0  0  0  0  0  0  0  0  1 V2000
  152.0246  145.0160  159.6810 C   0  0  0  0  0  0  0  0  0  0  0  0
  152.4234  143.6149  159.1810 C   0  0  1  0  0  0  0  0  0  0  0  0
  152.7133  142.7025  160.3895 C   0  0  0  0  0  0  0  0  0  0  0  0
  153.1483  141.2991  159.9545 C   0  0  0  0  0  0  0  0  0  0  0  0
  152.0835  140.6581  159.0602 C   0  0  0  0  0  0  0  0  0  0  0  0
  151.7811  141.5363  157.8302 C   0  0  1  0  0  0  0  0  0  0  0  0
  150.7335  140.9016  157.0318 N   0  0  0  0  0  0  0  0  0  0  0  0
  150.8742  140.4609  155.7724 C   0  0  0  0  0  0  0  0  0  0  0  0
  151.9228  140.5620  155.1338 O   0  0  0  0  0  0  0  0  0  0  0  0
  149.6294  139.8258  155.1382 C   0  0  0  0  0  0  0  0  0  0  0  0
  148.4776  140.7362  155.1023 N   0  0  0  0  0  0  0  0  0  0  0  0
  148.0005  141.1912  153.8867 C   0  0  0  0  0  0  0  0  0  0  0  0
  146.9359  142.0139  153.7652 C   0  0  0  0  0  0  0  0  0  0  0  0
  146.2130  142.4823  154.9414 C   0  0  0  0  0  0  0  0  0  0  0  0
  145.2267  143.2167  154.8738 O   0  0  0  0  0  0  0  0  0  0  0  0
  146.7308  142.0138  156.1729 N   0  0  0  0  0  0  0  0  0  0  0  0
  146.0694  142.4072  157.3997 C   0  0  0  0  0  0  0  0  0  0  0  0
  147.8353  141.1413  156.2922 C   0  0  0  0  0  0  0  0  0  0  0  0
  148.2299  140.7357  157.3884 O   0  0  0  0  0  0  0  0  0  0  0  0
  151.3641  142.9760  158.2376 C   0  0  2  0  0  0  0  0  0  0  0  0
  151.0982  143.8501  156.9923 C   0  0  0  0  0  0  0  0  0  0  0  0
  151.0544  144.9983  160.1781 H   0  0  0  0  0  0  0  0  0  0  0  0
  151.9755  145.7402  158.8686 H   0  0  0  0  0  0  0  0  0  0  0  0
  152.7544  145.3981  160.3954 H   0  0  0  0  0  0  0  0  0  0  0  0
  153.3531  143.7214  158.6199 H   0  0  0  0  0  0  0  0  0  0  0  0
  153.4935  143.1428  161.0113 H   0  0  0  0  0  0  0  0  0  0  0  0
  151.8246  142.6290  161.0182 H   0  0  0  0  0  0  0  0  0  0  0  0
  154.0970  141.3543  159.4189 H   0  0  0  0  0  0  0  0  0  0  0  0
  153.3218  140.6750  160.8316 H   0  0  0  0  0  0  0  0  0  0  0  0
  152.4230  139.6706  158.7454 H   0  0  0  0  0  0  0  0  0  0  0  0
  151.1709  140.5008  159.6372 H   0  0  0  0  0  0  0  0  0  0  0  0
  152.6889  141.6107  157.2279 H   0  0  0  0  0  0  0  0  0  0  0  0
  149.8345  140.7826  157.4759 H   0  0  0  0  0  0  0  0  0  0  0  0
  149.8621  139.4799  154.1292 H   0  0  0  0  0  0  0  0  0  0  0  0
  149.3788  138.9291  155.7065 H   0  0  0  0  0  0  0  0  0  0  0  0
  148.4993  140.8685  152.9843 H   0  0  0  0  0  0  0  0  0  0  0  0
  146.6122  142.3270  152.7834 H   0  0  0  0  0  0  0  0  0  0  0  0
  146.8330  142.6504  158.1407 H   0  0  0  0  0  0  0  0  0  0  0  0
  145.4605  141.5592  157.7169 H   0  0  0  0  0  0  0  0  0  0  0  0
  145.4553  143.2933  157.2393 H   0  0  0  0  0  0  0  0  0  0  0  0
  150.4268  142.9050  158.7924 H   0  0  0  0  0  0  0  0  0  0  0  0
  152.0116  144.0054  156.4178 H   0  0  0  0  0  0  0  0  0  0  0  0
  150.7012  144.8279  157.2611 H   0  0  0  0  0  0  0  0  0  0  0  0
  150.3633  143.3984  156.3263 H   0  0  0  0  0  0  0  0  0  0  0  0
  1  2  1  0  0  0  0
  1 22  1  0  0  0  0
  1 23  1  0  0  0  0
  1 24  1  0  0  0  0
  2 20  1  0  0  0  0
  2  3  1  0  0  0  0
  2 25  1  0  0  0  0
  3  4  1  0  0  0  0
  3 26  1  0  0  0  0
  3 27  1  0  0  0  0
  4  5  1  0  0  0  0
  4 28  1  0  0  0  0
  4 29  1  0  0  0  0
  5  6  1  0  0  0  0
  5 30  1  0  0  0  0
  5 31  1  0  0  0  0
  6  7  1  0  0  0  0
  6 20  1  0  0  0  0
  6 32  1  0  0  0  0
  7  8  1  0  0  0  0
  7 33  1  0  0  0  0
  8  9  2  0  0  0  0
  8 10  1  0  0  0  0
 10 11  1  0  0  0  0
 10 34  1  0  0  0  0
 10 35  1  0  0  0  0
 11 18  1  0  0  0  0
 11 12  1  0  0  0  0
 12 13  2  0  0  0  0
 12 36  1  0  0  0  0
 13 14  1  0  0  0  0
 13 37  1  0  0  0  0
 14 15  2  0  0  0  0
 14 16  1  0  0  0  0
 16 17  1  0  0  0  0
 16 18  1  0  0  0  0
 17 38  1  0  0  0  0
 17 39  1  0  0  0  0
 17 40  1  0  0  0  0
 18 19  2  0  0  0  0
 20 21  1  0  0  0  0
 20 41  1  0  0  0  0
 21 42  1  0  0  0  0
 21 43  1  0  0  0  0
 21 44  1  0  0  0  0
M  END
> <s_m_source_file>
AV-unprocessed.smi

> <i_m_source_file_index>
2143

> <i_lp_mmshare_version>
43012

> <i_f3d_flags>
0

> <s_epik_input>
W0NIM11bQ0BASF0xW0NIMl1bQ0gyXVtDSDJdW0NASF0oW0NASF0xW0NIM10pW05IXUMoPU8pW0NIMl1uMltjSF1bY0hdYyg9TyluKFtDSDNdKWMyPU8=

> <s_epik_cmdline>
J2VwaWtfcHl0aG9uJywgJy1waCcsICc3LjAnLCAnLXRuJywgJzgnLCAnLW1hJywgJzIwMCcsICctbWV0YWxfYmluZGluZycsICctaW1hZScsICc8aW5maWxlLm1hZT4nLCAnLW9tYWUnLCAnPG91dGZpbGUubWFlPic=

> <r_lp_tautomer_probability>
1

> <r_epik_Ionization_Penalty>
3.18445e-08

> <r_epik_Ionization_Penalty_Charging>
1.27977e-08

> <r_epik_Ionization_Penalty_Neutral>
1.90469e-08

> <r_epik_State_Penalty>
-0

> <r_epik_Charging_Adjusted_Penalty>
1.27977e-08

> <i_epik_Tot_Q>
0

> <i_epik_Tot_abs_Q>
0

> <r_epik_Metal_State_Penalty>
-0

> <b_epik_Metal_Only>
0

> <s_lp_Force_Field>
OPLS_2005

> <r_lp_Energy>
20.3985

> <b_lp_Chiralities_Consistent>
1

> <s_lp_Variant>
AV-unprocessed.smi:2143-6

> <Gold.Version>
5.8.1

> <Gold.Id.Protein>
6NUR|6NUR_protein|mol2

> <Gold.PLP.Fitness>
46.7611

> <Gold.PLP.PLP>
-41.4743

> <Gold.PLP.part.hbond>
-1.0000

> <Gold.PLP.part.metal>
0.0000

> <Gold.PLP.part.buried>
-3.3608

> <Gold.PLP.part.nonpolar>
-37.6434

> <Gold.PLP.part.repulsive>
0.3137

> <Gold.PLP.ligand.clash>
0.0000

> <Gold.PLP.ligand.torsion>
0.0607

> <Gold.PLP.Chemscore.Hbond>
0.8000

> <Gold.PLP.Chemscore.CHOScore>
1.0000

> <Gold.PLP.Chemscore.Metal>
0.0000

> <Gold.Chemscore.Hbonds>
donor molecule, donor type, donor heavy atom, donor atom, acceptor molecule, acceptor atom, score
      P1  H  7989  7998       L1     9  0.66
      L1  C    12    36       P1  7957  1.00

> <Gold.PLP.Chemscore.Internal.Correction>
0.0082

> <Gold.Rescore>
     Score         DG    S(hbond)    S(metal)    S(lipo)     H(rot)  DE(clash)    DE(int)     intcor
     14.09     -17.09       0.95        0.00     105.32       1.51       1.42       1.58       ----

> <Gold.Chemscore.Fitness>
14.0896

> <Gold.Chemscore.DG>
-17.0894

> <Gold.Chemscore.ZeroCoef>
-5.4800

> <Gold.Chemscore.Hbond>
0.9461

> <Gold.Chemscore.Metal>
0.0000

> <Gold.Chemscore.Lipo>
105.3228

> <Gold.Chemscore.Internal_Hbond>
0.0000

> <Gold.Chemscore.DEClash>
1.4179

> <Gold.Chemscore.DEInternal>
1.5819

> <Gold.Chemscore.Rot>
1.5131

> <Gold.Chemscore.Internal.Correction>
   9.000000E+99

> <Gold.Chemscore.Hbonds>
donor molecule, donor type, donor heavy atom, donor atom, acceptor molecule, acceptor atom, score
      P1  H  7989  7998       L1     9  0.56

> <Gold.Chemscore.Hbond.Weighted>
-3.1600

> <Gold.Chemscore.Metal.Weighted>
-0.0000

> <Gold.Chemscore.Lipo.Weighted>
-12.3228

> <Gold.Chemscore.Internal_Hbond.Weighted>
0.0000

> <Gold.Chemscore.DEClash.Weighted>
1.4179

> <Gold.Chemscore.DEInternal.Weighted>
1.5819

> <Gold.Chemscore.Rot.Weighted>
3.8734

> <Gold.Chemscore.Internal.Correction.Weighted>
   9.000000E+99

> <Gold.Protein.RotatedTorsions>
[ 6907 6896 6895 6894 ] final   38.10 input  -60.11 | X-H torsion
[ 7974 7965 7964 7962 ] final -126.09 input  175.53 | X-H torsion
[ 8008 7997 7996 7995 ] final   77.72 input   59.86 | X-H torsion
[ 10167 10162 10161 10158 ] final   43.40 input  -65.29 | X-H torsion
[ 10718 10713 10712 10709 ] final   66.48 input   66.30 | X-H torsion
[ 10763 10752 10751 10750 ] final   64.37 input  -60.55 | X-H torsion
[ 11005 11000 10999 10996 ] final -132.26 input  -57.11 | X-H torsion

> <Gold.Protein.ActiveResidues>
 VAL166  LYS551  ARG553  GLY616  TRP617  ASP618  TYR619  PRO620  LYS621  CYS622 
 ASP623  PHE694  ASN695  SER759  ASP760  ASP761  ALA762  ILE779  LEU786  VAL792 
 PHE793  MET794  SER795  GLU796  ALA797  LYS798  CYS799  TRP800  GLU811  SER814 

> <Gold.Protein.RotatedAtoms>
  152.1520  134.8981  160.0547 H   0  0  0  0  0  0  0  0  0  0  0  0  # atno 6907 bound_to 6896
  152.0009  133.3820  159.4189 H   0  0  0  0  0  0  0  0  0  0  0  0  # atno 6908 bound_to 6896
  150.6877  134.3757  159.5055 H   0  0  0  0  0  0  0  0  0  0  0  0  # atno 6909 bound_to 6896
  144.9908  140.7730  143.4555 H   0  0  0  0  0  0  0  0  0  0  0  0  # atno 7974 bound_to 7965
  155.8456  140.3460  155.5660 H   0  0  0  0  0  0  0  0  0  0  0  0  # atno 8008 bound_to 7997
  155.8094  140.0896  157.1932 H   0  0  0  0  0  0  0  0  0  0  0  0  # atno 8009 bound_to 7997
  154.4006  140.1450  156.3356 H   0  0  0  0  0  0  0  0  0  0  0  0  # atno 8010 bound_to 7997
  140.3448  144.2425  150.6151 H   0  0  0  0  0  0  0  0  0  0  0  0  # atno 10167 bound_to 10162
  157.6172  130.9270  150.0115 H   0  0  0  0  0  0  0  0  0  0  0  0  # atno 10718 bound_to 10713
  153.0053  135.5395  154.6500 H   0  0  0  0  0  0  0  0  0  0  0  0  # atno 10763 bound_to 10752
  154.5734  135.2843  155.0806 H   0  0  0  0  0  0  0  0  0  0  0  0  # atno 10764 bound_to 10752
  154.1963  135.6491  153.5127 H   0  0  0  0  0  0  0  0  0  0  0  0  # atno 10765 bound_to 10752
  140.9186  134.1474  157.4333 H   0  0  0  0  0  0  0  0  0  0  0  0  # atno 11005 bound_to 11000
  145.2288  139.2124  143.5054 LP  0  0  0  0  0  0  0  0  0  0  0  0  # atno 17320 bound_to 7965
  146.3431  140.2161  142.8590 LP  0  0  0  0  0  0  0  0  0  0  0  0  # atno 17321 bound_to 7965
  140.5275  143.2251  151.8291 LP  0  0  0  0  0  0  0  0  0  0  0  0  # atno 17342 bound_to 10162
  139.4835  144.4761  151.9365 LP  0  0  0  0  0  0  0  0  0  0  0  0  # atno 17343 bound_to 10162
  156.1299  130.3643  149.9748 LP  0  0  0  0  0  0  0  0  0  0  0  0  # atno 17370 bound_to 10713
  156.7811  130.9222  151.3646 LP  0  0  0  0  0  0  0  0  0  0  0  0  # atno 17371 bound_to 10713
  139.8771  134.9963  156.5786 LP  0  0  0  0  0  0  0  0  0  0  0  0  # atno 17394 bound_to 11000
  140.8018  133.8499  155.8733 LP  0  0  0  0  0  0  0  0  0  0  0  0  # atno 17395 bound_to 11000

$$$$
