AV-unprocessed.smi:54|AV-procd|sdf|552|dock6
  -GOLD-   2262016453D 1   1.00000     0.00000
 Structure written by MMmdl.
 43 45  0  0  0  0  0  0  0  0  2 V2000
  145.6130  135.6033  160.5275 C   0  0  0  0  0  0  0  0  0  0  0  0
  147.0574  135.0762  160.5364 C   0  0  0  0  0  0  0  0  0  0  0  0
  147.3968  134.3967  161.8737 C   0  0  0  0  0  0  0  0  0  0  0  0
  148.0506  136.2071  160.2344 C   0  0  0  0  0  0  0  0  0  0  0  0
  148.1780  137.1272  161.0459 O   0  0  0  0  0  0  0  0  0  0  0  0
  148.7195  136.0925  159.0652 N   0  0  0  0  0  0  0  0  0  0  0  0
  149.6827  136.9444  158.5127 C   0  0  0  0  0  0  0  0  0  0  0  0
  149.4327  137.5962  157.3988 N   0  0  0  0  0  0  0  0  0  0  0  0
  150.4900  138.3936  157.0084 C   0  0  0  0  0  0  0  0  0  0  0  0
  151.6952  138.5564  157.6338 C   0  0  0  0  0  0  0  0  0  0  0  0
  152.5126  139.4404  156.9388 N   0  0  0  0  0  0  0  0  0  0  0  0
  151.7429  139.7761  155.9039 C   0  0  0  0  0  0  0  0  0  0  0  0
  150.5254  139.1963  155.8766 N   0  0  0  0  0  0  0  0  0  0  0  0
  149.4437  139.3662  154.8601 C   0  0  1  0  0  0  0  0  0  0  0  0
  148.2483  138.8777  155.3737 O   0  0  0  0  0  0  0  0  0  0  0  0
  147.1560  139.5189  154.7194 C   0  0  1  0  0  0  0  0  0  0  0  0
  146.0954  139.8410  155.7832 C   0  0  0  0  0  0  0  0  0  0  0  0
  144.9978  140.5089  155.1976 O   0  0  0  0  0  0  0  0  0  0  0  0
  147.7411  140.7678  154.0241 C   0  0  2  0  0  0  0  0  0  0  0  0
  147.7117  140.5789  152.6222 O   0  0  0  0  0  0  0  0  0  0  0  0
  149.1839  140.8314  154.5072 C   0  0  1  0  0  0  0  0  0  0  0  0
  149.3053  141.6994  155.6200 O   0  0  0  0  0  0  0  0  0  0  0  0
  151.9051  137.7929  158.8870 C   0  0  0  0  0  0  0  0  0  0  0  0
  152.9728  137.9067  159.4860 O   0  0  0  0  0  0  0  0  0  0  0  0
  150.8577  137.0055  159.2784 N   0  5  0  0  0  0  0  0  0  0  0  0
  149.7531  138.7674  154.0018 H   0  0  0  0  0  0  0  0  0  0  0  0
  146.7442  138.8178  153.9910 H   0  0  0  0  0  0  0  0  0  0  0  0
  147.1890  141.6805  154.2531 H   0  0  0  0  0  0  0  0  0  0  0  0
  149.8826  141.1592  153.7356 H   0  0  0  0  0  0  0  0  0  0  0  0
  145.3741  136.0885  159.5801 H   0  0  0  0  0  0  0  0  0  0  0  0
  145.4441  136.3278  161.3253 H   0  0  0  0  0  0  0  0  0  0  0  0
  144.9011  134.7891  160.6652 H   0  0  0  0  0  0  0  0  0  0  0  0
  147.1432  134.3241  159.7502 H   0  0  0  0  0  0  0  0  0  0  0  0
  148.4282  134.0417  161.8872 H   0  0  0  0  0  0  0  0  0  0  0  0
  146.7523  133.5346  162.0467 H   0  0  0  0  0  0  0  0  0  0  0  0
  147.2685  135.0787  162.7153 H   0  0  0  0  0  0  0  0  0  0  0  0
  148.4697  135.2895  158.5073 H   0  0  0  0  0  0  0  0  0  0  0  0
  152.0772  140.4643  155.1416 H   0  0  0  0  0  0  0  0  0  0  0  0
  145.7298  138.9201  156.2383 H   0  0  0  0  0  0  0  0  0  0  0  0
  146.5162  140.4516  156.5829 H   0  0  0  0  0  0  0  0  0  0  0  0
  144.8947  140.1978  154.3111 H   0  0  0  0  0  0  0  0  0  0  0  0
  148.5766  140.3280  152.3362 H   0  0  0  0  0  0  0  0  0  0  0  0
  149.0091  142.5587  155.3624 H   0  0  0  0  0  0  0  0  0  0  0  0
  1  2  1  0  0  0  0
  1 30  1  0  0  0  0
  1 31  1  0  0  0  0
  1 32  1  0  0  0  0
  2  3  1  0  0  0  0
  2  4  1  0  0  0  0
  2 33  1  0  0  0  0
  3 34  1  0  0  0  0
  3 35  1  0  0  0  0
  3 36  1  0  0  0  0
  4  5  2  0  0  0  0
  4  6  1  0  0  0  0
  6 37  1  0  0  0  0
  6  7  1  0  0  0  0
  7 25  1  0  0  0  0
  7  8  2  0  0  0  0
  8  9  1  0  0  0  0
  9 13  1  0  0  0  0
  9 10  2  0  0  0  0
 10 11  1  0  0  0  0
 10 23  1  0  0  0  0
 11 12  2  0  0  0  0
 12 13  1  0  0  0  0
 12 38  1  0  0  0  0
 13 14  1  0  0  0  0
 14 26  1  0  0  0  0
 14 21  1  0  0  0  0
 14 15  1  0  0  0  0
 15 16  1  0  0  0  0
 16 27  1  0  0  0  0
 16 17  1  0  0  0  0
 16 19  1  0  0  0  0
 17 18  1  0  0  0  0
 17 39  1  0  0  0  0
 17 40  1  0  0  0  0
 18 41  1  0  0  0  0
 19 28  1  0  0  0  0
 19 20  1  0  0  0  0
 19 21  1  0  0  0  0
 20 42  1  0  0  0  0
 21 29  1  0  0  0  0
 21 22  1  0  0  0  0
 22 43  1  0  0  0  0
 23 24  2  0  0  0  0
 23 25  1  0  0  0  0
M  CHG  1  25  -1
M  END
> <s_m_source_file>
AV-unprocessed.smi

> <i_m_source_file_index>
54

> <i_lp_mmshare_version>
43012

> <i_f3d_flags>
0

> <s_epik_input>
W0NIM11bQ0hdKFtDSDNdKUMoPU8pW05IXWMobjEpW25IXWMoPU8pYyhjMTIpbltjSF1uMltDQEBIXTNPW0NASF0oW0NIMl1bT0hdKVtDQEBIXShbT0hdKVtDQEhdM1tPSF0=

> <s_epik_cmdline>
J2VwaWtfcHl0aG9uJywgJy1waCcsICc3LjAnLCAnLXRuJywgJzgnLCAnLW1hJywgJzIwMCcsICctbWV0YWxfYmluZGluZycsICctaW1hZScsICc8aW5maWxlLm1hZT4nLCAnLW9tYWUnLCAnPG91dGZpbGUubWFlPic=

> <r_lp_tautomer_probability>
0.85571

> <r_epik_Ionization_Penalty>
1.75936

> <r_epik_Ionization_Penalty_Charging>
4.55893e-11

> <r_epik_Ionization_Penalty_Neutral>
1.75936

> <r_epik_State_Penalty>
1.72072

> <r_epik_Charging_Adjusted_Penalty>
1.72072

> <i_epik_Tot_Q>
-1

> <i_epik_Tot_abs_Q>
1

> <r_epik_Metal_State_Penalty>
0.400338

> <b_epik_Metal_Only>
1

> <s_epik_Chemistry_Notes>
This compound contains an acetal/aminal-like group ( X-CH(R)-Y where X, Y are N, S, or O) that may be acid/base labile, releasing an aldehyde.

> <s_lp_Force_Field>
OPLS_2005

> <r_lp_Energy>
59.2625

> <b_lp_Chiralities_Consistent>
1

> <s_lp_Variant>
AV-unprocessed.smi:54-24

> <Gold.Version>
5.8.1

> <Gold.Id.Protein>
6NUR|6NUR_protein|mol2

> <Gold.PLP.Fitness>
48.0469

> <Gold.PLP.PLP>
-29.7438

> <Gold.PLP.part.hbond>
-6.5704

> <Gold.PLP.part.metal>
0.0000

> <Gold.PLP.part.buried>
-4.3157

> <Gold.PLP.part.nonpolar>
-19.7611

> <Gold.PLP.part.repulsive>
0.1853

> <Gold.PLP.ligand.clash>
0.0000

> <Gold.PLP.ligand.torsion>
1.0098

> <Gold.PLP.Chemscore.Hbond>
6.7585

> <Gold.PLP.Chemscore.CHOScore>
0.0000

> <Gold.PLP.Chemscore.Metal>
0.0000

> <Gold.Chemscore.Hbonds>
donor molecule, donor type, donor heavy atom, donor atom, acceptor molecule, acceptor atom, score
      L1  H    18    41       P1 10175  0.46
      L1  H    20    42       P1  7957  0.98
      L1  H    22    43       P1  8028  0.63
      P1  H  6896  6909       L1    25  2.00
      P1  H  6931  6943       L1     5  1.00
      P1  H  6934  6947       L1     5  0.48
      P1  H  7997  8010       L1    11  1.00

> <Gold.PLP.Chemscore.Internal.Correction>
0.0470

> <Gold.Rescore>
     Score         DG    S(hbond)    S(metal)    S(lipo)     H(rot)  DE(clash)    DE(int)     intcor
     13.59     -16.74       5.13        0.00      37.82       4.02       0.57       2.57       ----

> <Gold.Chemscore.Fitness>
13.5944

> <Gold.Chemscore.DG>
-16.7386

> <Gold.Chemscore.ZeroCoef>
-5.4800

> <Gold.Chemscore.Hbond>
5.1268

> <Gold.Chemscore.Metal>
0.0000

> <Gold.Chemscore.Lipo>
37.8158

> <Gold.Chemscore.Internal_Hbond>
0.0000

> <Gold.Chemscore.DEClash>
0.5711

> <Gold.Chemscore.DEInternal>
2.5731

> <Gold.Chemscore.Rot>
4.0192

> <Gold.Chemscore.Internal.Correction>
   9.000000E+99

> <Gold.Chemscore.Hbonds>
donor molecule, donor type, donor heavy atom, donor atom, acceptor molecule, acceptor atom, score
      L1  H    18    41       P1 10175  0.45
      L1  H    20    42       P1  7957  0.91
      L1  H    22    43       P1  8028  0.60
      P1  H  6896  6909       L1    25  0.47
      P1  H  6931  6943       L1     5  0.95
      P1  H  6934  6947       L1     5  0.48
      P1  H  7997  8010       L1    11  0.48

> <Gold.Chemscore.Hbond.Weighted>
-17.1234

> <Gold.Chemscore.Metal.Weighted>
-0.0000

> <Gold.Chemscore.Lipo.Weighted>
-4.4244

> <Gold.Chemscore.Internal_Hbond.Weighted>
0.0000

> <Gold.Chemscore.DEClash.Weighted>
0.5711

> <Gold.Chemscore.DEInternal.Weighted>
2.5731

> <Gold.Chemscore.Rot.Weighted>
10.2893

> <Gold.Chemscore.Internal.Correction.Weighted>
   9.000000E+99

> <Gold.Protein.RotatedTorsions>
[ 6907 6896 6895 6894 ] final   97.01 input  -60.11 | X-H torsion
[ 7974 7965 7964 7962 ] final  176.86 input  175.53 | X-H torsion
[ 8008 7997 7996 7995 ] final   71.67 input   59.86 | X-H torsion
[ 10167 10162 10161 10158 ] final -157.65 input  -65.29 | X-H torsion
[ 10718 10713 10712 10709 ] final    2.31 input   66.30 | X-H torsion
[ 10763 10752 10751 10750 ] final  114.30 input  -60.55 | X-H torsion
[ 11005 11000 10999 10996 ] final  -59.51 input  -57.11 | X-H torsion

> <Gold.Protein.ActiveResidues>
 VAL166  LYS551  ARG553  GLY616  TRP617  ASP618  TYR619  PRO620  LYS621  CYS622 
 ASP623  PHE694  ASN695  SER759  ASP760  ASP761  ALA762  ILE779  LEU786  VAL792 
 PHE793  MET794  SER795  GLU796  ALA797  LYS798  CYS799  TRP800  GLU811  SER814 

> <Gold.Protein.RotatedAtoms>
  152.5428  134.0799  159.8230 H   0  0  0  0  0  0  0  0  0  0  0  0  # atno 6907 bound_to 6896
  151.0902  133.5314  159.2622 H   0  0  0  0  0  0  0  0  0  0  0  0  # atno 6908 bound_to 6896
  151.2108  135.0489  159.8965 H   0  0  0  0  0  0  0  0  0  0  0  0  # atno 6909 bound_to 6896
  144.7177  140.0160  143.6440 H   0  0  0  0  0  0  0  0  0  0  0  0  # atno 7974 bound_to 7965
  155.7573  140.3487  155.5180 H   0  0  0  0  0  0  0  0  0  0  0  0  # atno 8008 bound_to 7997
  155.8947  140.1024  157.1414 H   0  0  0  0  0  0  0  0  0  0  0  0  # atno 8009 bound_to 7997
  154.4037  140.1297  156.4348 H   0  0  0  0  0  0  0  0  0  0  0  0  # atno 8010 bound_to 7997
  139.6754  143.9672  152.2307 H   0  0  0  0  0  0  0  0  0  0  0  0  # atno 10167 bound_to 10162
  156.8611  130.5587  149.5663 H   0  0  0  0  0  0  0  0  0  0  0  0  # atno 10718 bound_to 10713
  153.5052  135.3629  155.2559 H   0  0  0  0  0  0  0  0  0  0  0  0  # atno 10763 bound_to 10752
  154.8745  135.4009  154.3432 H   0  0  0  0  0  0  0  0  0  0  0  0  # atno 10764 bound_to 10752
  153.4075  135.7077  153.6448 H   0  0  0  0  0  0  0  0  0  0  0  0  # atno 10765 bound_to 10752
  141.1251  133.6617  156.5083 H   0  0  0  0  0  0  0  0  0  0  0  0  # atno 11005 bound_to 11000
  146.0219  139.3258  143.0807 LP  0  0  0  0  0  0  0  0  0  0  0  0  # atno 17320 bound_to 7965
  145.8558  140.9503  143.0726 LP  0  0  0  0  0  0  0  0  0  0  0  0  # atno 17321 bound_to 7965
  139.9448  144.6658  150.8230 LP  0  0  0  0  0  0  0  0  0  0  0  0  # atno 17342 bound_to 10162
  140.7633  143.3221  151.2599 LP  0  0  0  0  0  0  0  0  0  0  0  0  # atno 17343 bound_to 10162
  156.0776  130.5795  150.9503 LP  0  0  0  0  0  0  0  0  0  0  0  0  # atno 17370 bound_to 10713
  157.6250  131.0926  150.8551 LP  0  0  0  0  0  0  0  0  0  0  0  0  # atno 17371 bound_to 10713
  140.4389  134.7033  157.4981 LP  0  0  0  0  0  0  0  0  0  0  0  0  # atno 17394 bound_to 11000
  140.0242  134.6501  155.9196 LP  0  0  0  0  0  0  0  0  0  0  0  0  # atno 17395 bound_to 11000

$$$$
