AV-unprocessed.smi:1542|AV-procd|sdf|6204|dock8
  -GOLD-   22720 6373D 1   1.00000     0.00000
 Structure written by MMmdl.
 46 48  0  0  0  0  0  0  0  0  2 V2000
  147.6457  140.0791  152.8960 O   0  0  0  0  0  0  0  0  0  0  0  0
  147.2384  141.2520  153.5680 C   0  0  0  0  0  0  0  0  0  0  0  0
  147.9966  141.3999  154.8949 C   0  0  0  0  0  0  0  0  0  0  0  0
  149.5090  141.6117  154.7033 C   0  0  0  0  0  0  0  0  0  0  0  0
  150.2523  141.7564  155.9960 C   0  0  0  0  0  0  0  0  0  0  0  0
  150.0864  142.7443  156.9225 N   0  3  0  0  0  0  0  0  0  0  0  0
  150.9932  142.5732  157.9685 C   0  0  0  0  0  0  0  0  0  0  0  0
  151.1988  143.3159  159.1269 C   0  0  0  0  0  0  0  0  0  0  0  0
  152.2250  142.8745  159.9878 C   0  0  0  0  0  0  0  0  0  0  0  0
  153.0014  141.7381  159.6821 C   0  0  0  0  0  0  0  0  0  0  0  0
  152.7823  140.9924  158.5051 C   0  0  0  0  0  0  0  0  0  0  0  0
  151.7619  141.4325  157.6619 C   0  0  0  0  0  0  0  0  0  0  0  0
  151.2706  140.9621  156.4380 N   0  0  0  0  0  0  0  0  0  0  0  0
  151.8768  139.7651  155.8295 C   0  0  0  0  0  0  0  0  0  0  0  0
  150.8655  138.7355  155.2365 C   0  0  0  0  0  0  0  0  0  0  0  0
  150.7782  139.0285  153.8535 O   0  0  0  0  0  0  0  0  0  0  0  0
  151.4183  137.2966  155.3837 C   0  0  0  0  0  0  0  0  0  0  0  0
  150.4621  136.2161  154.8466 C   0  0  0  0  0  0  0  0  0  0  0  0
  149.0702  136.3314  155.4820 C   0  0  0  0  0  0  0  0  0  0  0  0
  148.4865  137.7339  155.2669 C   0  0  0  0  0  0  0  0  0  0  0  0
  149.4276  138.8184  155.8204 C   0  0  0  0  0  0  0  0  0  0  0  0
  148.4071  140.2803  152.3731 H   0  0  0  0  0  0  0  0  0  0  0  0
  147.4403  142.1078  152.9232 H   0  0  0  0  0  0  0  0  0  0  0  0
  146.1614  141.2209  153.7360 H   0  0  0  0  0  0  0  0  0  0  0  0
  147.5672  142.2228  155.4681 H   0  0  0  0  0  0  0  0  0  0  0  0
  147.8387  140.4973  155.4866 H   0  0  0  0  0  0  0  0  0  0  0  0
  149.9239  140.7706  154.1479 H   0  0  0  0  0  0  0  0  0  0  0  0
  149.6909  142.5038  154.1035 H   0  0  0  0  0  0  0  0  0  0  0  0
  150.6084  144.1896  159.3605 H   0  0  0  0  0  0  0  0  0  0  0  0
  152.4227  143.4208  160.8989 H   0  0  0  0  0  0  0  0  0  0  0  0
  153.7825  141.4324  160.3632 H   0  0  0  0  0  0  0  0  0  0  0  0
  153.3881  140.1276  158.2779 H   0  0  0  0  0  0  0  0  0  0  0  0
  152.5950  140.1000  155.0799 H   0  0  0  0  0  0  0  0  0  0  0  0
  152.4978  139.2970  156.5934 H   0  0  0  0  0  0  0  0  0  0  0  0
  149.9367  138.7348  153.5390 H   0  0  0  0  0  0  0  0  0  0  0  0
  152.3822  137.2089  154.8800 H   0  0  0  0  0  0  0  0  0  0  0  0
  151.6104  137.0950  156.4381 H   0  0  0  0  0  0  0  0  0  0  0  0
  150.3775  136.3013  153.7627 H   0  0  0  0  0  0  0  0  0  0  0  0
  150.8768  135.2270  155.0428 H   0  0  0  0  0  0  0  0  0  0  0  0
  148.4034  135.5808  155.0565 H   0  0  0  0  0  0  0  0  0  0  0  0
  149.1353  136.1198  156.5501 H   0  0  0  0  0  0  0  0  0  0  0  0
  148.3080  137.8998  154.2041 H   0  0  0  0  0  0  0  0  0  0  0  0
  147.5138  137.8073  155.7541 H   0  0  0  0  0  0  0  0  0  0  0  0
  149.4617  138.6998  156.9038 H   0  0  0  0  0  0  0  0  0  0  0  0
  148.9950  139.8015  155.6319 H   0  0  0  0  0  0  0  0  0  0  0  0
  149.4014  143.4845  156.8392 H   0  0  0  0  0  0  0  0  0  0  0  0
  1  2  1  0  0  0  0
  1 22  1  0  0  0  0
  2  3  1  0  0  0  0
  2 23  1  0  0  0  0
  2 24  1  0  0  0  0
  3  4  1  0  0  0  0
  3 25  1  0  0  0  0
  3 26  1  0  0  0  0
  4  5  1  0  0  0  0
  4 27  1  0  0  0  0
  4 28  1  0  0  0  0
  5 13  1  0  0  0  0
  5  6  2  0  0  0  0
  6  7  1  0  0  0  0
  6 46  1  0  0  0  0
  7 12  2  0  0  0  0
  7  8  1  0  0  0  0
  8  9  2  0  0  0  0
  8 29  1  0  0  0  0
  9 10  1  0  0  0  0
  9 30  1  0  0  0  0
 10 11  2  0  0  0  0
 10 31  1  0  0  0  0
 11 12  1  0  0  0  0
 11 32  1  0  0  0  0
 12 13  1  0  0  0  0
 13 14  1  0  0  0  0
 14 15  1  0  0  0  0
 14 33  1  0  0  0  0
 14 34  1  0  0  0  0
 15 21  1  0  0  0  0
 15 16  1  0  0  0  0
 15 17  1  0  0  0  0
 16 35  1  0  0  0  0
 17 18  1  0  0  0  0
 17 36  1  0  0  0  0
 17 37  1  0  0  0  0
 18 19  1  0  0  0  0
 18 38  1  0  0  0  0
 18 39  1  0  0  0  0
 19 20  1  0  0  0  0
 19 40  1  0  0  0  0
 19 41  1  0  0  0  0
 20 21  1  0  0  0  0
 20 42  1  0  0  0  0
 20 43  1  0  0  0  0
 21 44  1  0  0  0  0
 21 45  1  0  0  0  0
M  CHG  1   6   1
M  END
> <s_m_source_file>
AV-unprocessed.smi

> <i_m_source_file_index>
1542

> <i_lp_mmshare_version>
43012

> <i_f3d_flags>
0

> <s_epik_input>
W09IXVtDSDJdW0NIMl1bQ0gyXWMobjEpbihjKGMxMilbY0hdW2NIXVtjSF1bY0hdMilbQ0gyXUMzKFtPSF0pW0NIMl1bQ0gyXVtDSDJdW0NIMl1bQ0gyXTM=

> <s_epik_cmdline>
J2VwaWtfcHl0aG9uJywgJy1waCcsICc3LjAnLCAnLXRuJywgJzgnLCAnLW1hJywgJzIwMCcsICctbWV0YWxfYmluZGluZycsICctaW1hZScsICc8aW5maWxlLm1hZT4nLCAnLW9tYWUnLCAnPG91dGZpbGUubWFlPic=

> <r_epik_Ionization_Penalty>
0.555973

> <r_epik_Ionization_Penalty_Charging>
0.555973

> <r_epik_Ionization_Penalty_Neutral>
2.09159e-07

> <r_epik_State_Penalty>
0.566728

> <r_epik_Charging_Adjusted_Penalty>
1.1227

> <i_epik_Tot_Q>
1

> <i_epik_Tot_abs_Q>
1

> <r_epik_Metal_State_Penalty>
4.37256

> <b_epik_Metal_Only>
0

> <s_lp_Force_Field>
OPLS_2005

> <r_lp_Energy>
23.0728

> <b_lp_Chiralities_Consistent>
1

> <s_lp_Variant>
AV-unprocessed.smi:1542-2

> <Gold.Version>
5.8.1

> <Gold.Id.Protein>
6NUR|6NUR_protein|mol2

> <Gold.PLP.Fitness>
48.3493

> <Gold.PLP.PLP>
-39.1238

> <Gold.PLP.part.hbond>
-3.8471

> <Gold.PLP.part.metal>
0.0000

> <Gold.PLP.part.buried>
-1.8333

> <Gold.PLP.part.nonpolar>
-31.8388

> <Gold.PLP.part.repulsive>
0.0202

> <Gold.PLP.ligand.clash>
0.0000

> <Gold.PLP.ligand.torsion>
0.9415

> <Gold.PLP.Chemscore.Hbond>
3.6000

> <Gold.PLP.Chemscore.CHOScore>
0.0000

> <Gold.PLP.Chemscore.Metal>
0.0000

> <Gold.Chemscore.Hbonds>
donor molecule, donor type, donor heavy atom, donor atom, acceptor molecule, acceptor atom, score
      L1  H     1    22       P1  7957  1.00
      L1  H     6    46       P1  8028  1.60
      P1  H  7989  7998       L1    16  0.96

> <Gold.PLP.Chemscore.Internal.Correction>
0.3084

> <Gold.Rescore>
     Score         DG    S(hbond)    S(metal)    S(lipo)     H(rot)  DE(clash)    DE(int)     intcor
     15.59     -17.65       2.01        0.00     108.39       2.82       0.48       1.58       ----

> <Gold.Chemscore.Fitness>
15.5927

> <Gold.Chemscore.DG>
-17.6487

> <Gold.Chemscore.ZeroCoef>
-5.4800

> <Gold.Chemscore.Hbond>
2.0060

> <Gold.Chemscore.Metal>
0.0000

> <Gold.Chemscore.Lipo>
108.3895

> <Gold.Chemscore.Internal_Hbond>
0.0000

> <Gold.Chemscore.DEClash>
0.4757

> <Gold.Chemscore.DEInternal>
1.5803

> <Gold.Chemscore.Rot>
2.8175

> <Gold.Chemscore.Internal.Correction>
   9.000000E+99

> <Gold.Chemscore.Hbonds>
donor molecule, donor type, donor heavy atom, donor atom, acceptor molecule, acceptor atom, score
      L1  H     1    22       P1  7957  0.99
      L1  H     6    46       P1  8028  0.77
      P1  H  7989  7998       L1    16  0.65

> <Gold.Chemscore.Hbond.Weighted>
-6.6999

> <Gold.Chemscore.Metal.Weighted>
-0.0000

> <Gold.Chemscore.Lipo.Weighted>
-12.6816

> <Gold.Chemscore.Internal_Hbond.Weighted>
0.0000

> <Gold.Chemscore.DEClash.Weighted>
0.4757

> <Gold.Chemscore.DEInternal.Weighted>
1.5803

> <Gold.Chemscore.Rot.Weighted>
7.2128

> <Gold.Chemscore.Internal.Correction.Weighted>
   9.000000E+99

> <Gold.Protein.RotatedTorsions>
[ 6907 6896 6895 6894 ] final   12.32 input  -60.11 | X-H torsion
[ 7974 7965 7964 7962 ] final  118.15 input  175.53 | X-H torsion
[ 8008 7997 7996 7995 ] final   15.07 input   59.86 | X-H torsion
[ 10167 10162 10161 10158 ] final -145.63 input  -65.29 | X-H torsion
[ 10718 10713 10712 10709 ] final    3.06 input   66.30 | X-H torsion
[ 10763 10752 10751 10750 ] final  -54.12 input  -60.55 | X-H torsion
[ 11005 11000 10999 10996 ] final  -25.97 input  -57.11 | X-H torsion

> <Gold.Protein.ActiveResidues>
 VAL166  LYS551  ARG553  GLY616  TRP617  ASP618  TYR619  PRO620  LYS621  CYS622 
 ASP623  PHE694  ASN695  SER759  ASP760  ASP761  ALA762  ILE779  LEU786  VAL792 
 PHE793  MET794  SER795  GLU796  ALA797  LYS798  CYS799  TRP800  GLU811  SER814 

> <Gold.Protein.RotatedAtoms>
  151.7684  135.0792  160.0355 H   0  0  0  0  0  0  0  0  0  0  0  0  # atno 6907 bound_to 6896
  152.3305  133.5949  159.5815 H   0  0  0  0  0  0  0  0  0  0  0  0  # atno 6908 bound_to 6896
  150.7420  133.9791  159.3612 H   0  0  0  0  0  0  0  0  0  0  0  0  # atno 6909 bound_to 6896
  145.1587  139.3167  143.4528 H   0  0  0  0  0  0  0  0  0  0  0  0  # atno 7974 bound_to 7965
  154.8574  140.2939  155.5560 H   0  0  0  0  0  0  0  0  0  0  0  0  # atno 8008 bound_to 7997
  156.3018  140.2484  156.3475 H   0  0  0  0  0  0  0  0  0  0  0  0  # atno 8009 bound_to 7997
  154.8955  140.0393  157.1852 H   0  0  0  0  0  0  0  0  0  0  0  0  # atno 8010 bound_to 7997
  139.7788  143.8131  152.2636 H   0  0  0  0  0  0  0  0  0  0  0  0  # atno 10167 bound_to 10162
  156.8723  130.5624  149.5657 H   0  0  0  0  0  0  0  0  0  0  0  0  # atno 10718 bound_to 10713
  154.1698  135.6461  153.5006 H   0  0  0  0  0  0  0  0  0  0  0  0  # atno 10763 bound_to 10752
  153.0087  135.5380  154.6624 H   0  0  0  0  0  0  0  0  0  0  0  0  # atno 10764 bound_to 10752
  154.5960  135.2939  155.0557 H   0  0  0  0  0  0  0  0  0  0  0  0  # atno 10765 bound_to 10752
  140.8986  133.7539  156.0514 H   0  0  0  0  0  0  0  0  0  0  0  0  # atno 11005 bound_to 11000
  146.3485  140.1689  142.8590 LP  0  0  0  0  0  0  0  0  0  0  0  0  # atno 17320 bound_to 7965
  145.0354  140.8903  143.5084 LP  0  0  0  0  0  0  0  0  0  0  0  0  # atno 17321 bound_to 7965
  139.8187  144.7305  150.9601 LP  0  0  0  0  0  0  0  0  0  0  0  0  # atno 17342 bound_to 10162
  140.7817  143.4180  151.0887 LP  0  0  0  0  0  0  0  0  0  0  0  0  # atno 17343 bound_to 10162
  156.0720  130.5751  150.9401 LP  0  0  0  0  0  0  0  0  0  0  0  0  # atno 17370 bound_to 10713
  157.6189  131.0931  150.8660 LP  0  0  0  0  0  0  0  0  0  0  0  0  # atno 17371 bound_to 10713
  140.8258  134.3236  157.5366 LP  0  0  0  0  0  0  0  0  0  0  0  0  # atno 17394 bound_to 11000
  139.8739  134.9335  156.3582 LP  0  0  0  0  0  0  0  0  0  0  0  0  # atno 17395 bound_to 11000

$$$$
