AV-unprocessed.smi:569|AV-procd|sdf|2960|dock1
  -GOLD-   2262023463D 1   1.00000     0.00000
 Structure written by MMmdl.
 37 38  0  0  0  0  0  0  0  0  1 V2000
  153.2063  143.2676  162.6109 C   0  0  0  0  0  0  0  0  0  0  0  0
  152.9685  142.9121  161.1834 C   0  0  0  0  0  0  0  0  0  0  0  0
  151.8842  143.2880  160.5008 N   0  0  0  0  0  0  0  0  0  0  0  0
  151.8926  142.8309  159.1790 C   0  0  0  0  0  0  0  0  0  0  0  0
  150.7571  143.1762  158.2579 C   0  0  0  0  0  0  0  0  0  0  0  0
  150.0623  141.8986  157.7847 C   0  0  0  0  0  0  0  0  0  0  0  0
  150.4226  140.8022  158.2124 O   0  0  0  0  0  0  0  0  0  0  0  0
  149.0554  142.0606  156.9127 N   0  0  0  0  0  0  0  0  0  0  0  0
  148.1761  141.0064  156.4138 C   0  0  2  0  0  0  0  0  0  0  0  0
  148.2827  140.9169  154.8797 C   0  0  0  0  0  0  0  0  0  0  0  0
  147.6800  142.1510  154.1826 C   0  0  0  0  0  0  0  0  0  0  0  0
  146.2199  142.3943  154.6118 C   0  0  2  0  0  0  0  0  0  0  0  0
  145.6361  143.6393  153.9291 C   0  0  0  0  0  0  0  0  0  0  0  0
  146.1135  142.4939  156.1459 C   0  0  0  0  0  0  0  0  0  0  0  0
  146.7131  141.2565  156.8378 C   0  0  0  0  0  0  0  0  0  0  0  0
  153.0057  142.0854  158.8739 C   0  0  0  0  0  0  0  0  0  0  0  0
  154.0898  141.9487  160.2301 S   0  0  0  0  0  0  0  0  0  0  0  0
  152.6229  144.1460  162.8883 H   0  0  0  0  0  0  0  0  0  0  0  0
  154.2621  143.4863  162.7721 H   0  0  0  0  0  0  0  0  0  0  0  0
  152.9175  142.4367  163.2544 H   0  0  0  0  0  0  0  0  0  0  0  0
  150.0312  143.8146  158.7627 H   0  0  0  0  0  0  0  0  0  0  0  0
  151.1132  143.7378  157.3928 H   0  0  0  0  0  0  0  0  0  0  0  0
  148.8422  143.0011  156.6145 H   0  0  0  0  0  0  0  0  0  0  0  0
  148.5090  140.0558  156.8343 H   0  0  0  0  0  0  0  0  0  0  0  0
  149.3241  140.7909  154.5809 H   0  0  0  0  0  0  0  0  0  0  0  0
  147.7595  140.0234  154.5367 H   0  0  0  0  0  0  0  0  0  0  0  0
  148.2824  143.0317  154.4095 H   0  0  0  0  0  0  0  0  0  0  0  0
  147.7320  142.0176  153.1016 H   0  0  0  0  0  0  0  0  0  0  0  0
  145.6289  141.5355  154.2902 H   0  0  0  0  0  0  0  0  0  0  0  0
  146.1839  144.5392  154.2107 H   0  0  0  0  0  0  0  0  0  0  0  0
  144.5916  143.7850  154.2060 H   0  0  0  0  0  0  0  0  0  0  0  0
  145.6792  143.5487  152.8434 H   0  0  0  0  0  0  0  0  0  0  0  0
  146.6230  143.3931  156.4956 H   0  0  0  0  0  0  0  0  0  0  0  0
  145.0690  142.6023  156.4399 H   0  0  0  0  0  0  0  0  0  0  0  0
  146.1135  140.3816  156.5840 H   0  0  0  0  0  0  0  0  0  0  0  0
  146.6410  141.3648  157.9207 H   0  0  0  0  0  0  0  0  0  0  0  0
  153.2580  141.6202  157.9328 H   0  0  0  0  0  0  0  0  0  0  0  0
  1  2  1  0  0  0  0
  1 18  1  0  0  0  0
  1 19  1  0  0  0  0
  1 20  1  0  0  0  0
  2 17  1  0  0  0  0
  2  3  2  0  0  0  0
  3  4  1  0  0  0  0
  4  5  1  0  0  0  0
  4 16  2  0  0  0  0
  5  6  1  0  0  0  0
  5 21  1  0  0  0  0
  5 22  1  0  0  0  0
  6  7  2  0  0  0  0
  6  8  1  0  0  0  0
  8  9  1  0  0  0  0
  8 23  1  0  0  0  0
  9 15  1  0  0  0  0
  9 10  1  0  0  0  0
  9 24  1  0  0  0  0
 10 11  1  0  0  0  0
 10 25  1  0  0  0  0
 10 26  1  0  0  0  0
 11 12  1  0  0  0  0
 11 27  1  0  0  0  0
 11 28  1  0  0  0  0
 12 13  1  0  0  0  0
 12 14  1  0  0  0  0
 12 29  1  0  0  0  0
 13 30  1  0  0  0  0
 13 31  1  0  0  0  0
 13 32  1  0  0  0  0
 14 15  1  0  0  0  0
 14 33  1  0  0  0  0
 14 34  1  0  0  0  0
 15 35  1  0  0  0  0
 15 36  1  0  0  0  0
 16 17  1  0  0  0  0
 16 37  1  0  0  0  0
M  END
> <s_m_source_file>
AV-unprocessed.smi

> <i_m_source_file_index>
569

> <i_lp_mmshare_version>
43012

> <i_f3d_flags>
0

> <s_epik_input>
W0NIM11jMW5jKFtjSF1zMSlbQ0gyXUMoPU8pW05IXVtDQEBIXTJbQ0gyXVtDSDJdW0NAQEhdKFtDSDNdKVtDSDJdW0NIMl0y

> <s_epik_cmdline>
J2VwaWtfcHl0aG9uJywgJy1waCcsICc3LjAnLCAnLXRuJywgJzgnLCAnLW1hJywgJzIwMCcsICctbWV0YWxfYmluZGluZycsICctaW1hZScsICc8aW5maWxlLm1hZT4nLCAnLW9tYWUnLCAnPG91dGZpbGUubWFlPic=

> <r_lp_tautomer_probability>
1

> <r_epik_Ionization_Penalty>
6.63234e-05

> <r_epik_Ionization_Penalty_Charging>
0

> <r_epik_Ionization_Penalty_Neutral>
6.63234e-05

> <r_epik_State_Penalty>
-0

> <r_epik_Charging_Adjusted_Penalty>
0

> <i_epik_Tot_Q>
0

> <i_epik_Tot_abs_Q>
0

> <r_epik_Metal_State_Penalty>
-0

> <b_epik_Metal_Only>
0

> <s_lp_Force_Field>
OPLS_2005

> <r_lp_Energy>
5.61603

> <b_lp_Chiralities_Consistent>
1

> <s_lp_Variant>
AV-unprocessed.smi:569-2

> <Gold.Version>
5.8.1

> <Gold.Id.Protein>
6NUR|6NUR_protein|mol2

> <Gold.PLP.Fitness>
40.1212

> <Gold.PLP.PLP>
-37.1750

> <Gold.PLP.part.hbond>
-1.2782

> <Gold.PLP.part.metal>
0.0000

> <Gold.PLP.part.buried>
-4.7311

> <Gold.PLP.part.nonpolar>
-30.7768

> <Gold.PLP.part.repulsive>
0.0881

> <Gold.PLP.ligand.clash>
0.0000

> <Gold.PLP.ligand.torsion>
0.0159

> <Gold.PLP.Chemscore.Hbond>
0.9913

> <Gold.PLP.Chemscore.CHOScore>
0.0000

> <Gold.PLP.Chemscore.Metal>
0.0000

> <Gold.Chemscore.Hbonds>
donor molecule, donor type, donor heavy atom, donor atom, acceptor molecule, acceptor atom, score
      L1  H     8    23       P1  8028  1.00

> <Gold.PLP.Chemscore.Internal.Correction>
0.0042

> <Gold.Rescore>
     Score         DG    S(hbond)    S(metal)    S(lipo)     H(rot)  DE(clash)    DE(int)     intcor
     13.97     -15.88       0.52        0.00     101.67       1.26       0.42       1.49       ----

> <Gold.Chemscore.Fitness>
13.9733

> <Gold.Chemscore.DG>
-15.8816

> <Gold.Chemscore.ZeroCoef>
-5.4800

> <Gold.Chemscore.Hbond>
0.5200

> <Gold.Chemscore.Metal>
0.0000

> <Gold.Chemscore.Lipo>
101.6704

> <Gold.Chemscore.Internal_Hbond>
0.0000

> <Gold.Chemscore.DEClash>
0.4232

> <Gold.Chemscore.DEInternal>
1.4851

> <Gold.Chemscore.Rot>
1.2620

> <Gold.Chemscore.Internal.Correction>
   9.000000E+99

> <Gold.Chemscore.Hbonds>
donor molecule, donor type, donor heavy atom, donor atom, acceptor molecule, acceptor atom, score
      L1  H     8    23       P1  8028  0.93

> <Gold.Chemscore.Hbond.Weighted>
-1.7368

> <Gold.Chemscore.Metal.Weighted>
-0.0000

> <Gold.Chemscore.Lipo.Weighted>
-11.8954

> <Gold.Chemscore.Internal_Hbond.Weighted>
0.0000

> <Gold.Chemscore.DEClash.Weighted>
0.4232

> <Gold.Chemscore.DEInternal.Weighted>
1.4851

> <Gold.Chemscore.Rot.Weighted>
3.2306

> <Gold.Chemscore.Internal.Correction.Weighted>
   9.000000E+99

> <Gold.Protein.RotatedTorsions>
[ 6907 6896 6895 6894 ] final    4.99 input  -60.11 | X-H torsion
[ 7974 7965 7964 7962 ] final  160.99 input  175.53 | X-H torsion
[ 8008 7997 7996 7995 ] final  -96.80 input   59.86 | X-H torsion
[ 10167 10162 10161 10158 ] final  161.55 input  -65.29 | X-H torsion
[ 10718 10713 10712 10709 ] final  -33.62 input   66.30 | X-H torsion
[ 10763 10752 10751 10750 ] final -165.05 input  -60.55 | X-H torsion
[ 11005 11000 10999 10996 ] final  112.08 input  -57.11 | X-H torsion

> <Gold.Protein.ActiveResidues>
 VAL166  LYS551  ARG553  GLY616  TRP617  ASP618  TYR619  PRO620  LYS621  CYS622 
 ASP623  PHE694  ASN695  SER759  ASP760  ASP761  ALA762  ILE779  LEU786  VAL792 
 PHE793  MET794  SER795  GLU796  ALA797  LYS798  CYS799  TRP800  GLU811  SER814 

> <Gold.Protein.RotatedAtoms>
  151.6502  135.1002  160.0158 H   0  0  0  0  0  0  0  0  0  0  0  0  # atno 6907 bound_to 6896
  152.4005  133.6807  159.6321 H   0  0  0  0  0  0  0  0  0  0  0  0  # atno 6908 bound_to 6896
  150.7906  133.8716  159.3301 H   0  0  0  0  0  0  0  0  0  0  0  0  # atno 6909 bound_to 6896
  144.7708  139.7835  143.6297 H   0  0  0  0  0  0  0  0  0  0  0  0  # atno 7974 bound_to 7965
  154.7792  140.0468  157.1113 H   0  0  0  0  0  0  0  0  0  0  0  0  # atno 8008 bound_to 7997
  154.9725  140.3091  155.4962 H   0  0  0  0  0  0  0  0  0  0  0  0  # atno 8009 bound_to 7997
  156.2934  140.2250  156.4819 H   0  0  0  0  0  0  0  0  0  0  0  0  # atno 8010 bound_to 7997
  139.4850  144.4525  151.8811 H   0  0  0  0  0  0  0  0  0  0  0  0  # atno 10167 bound_to 10162
  156.3605  130.4323  149.7628 H   0  0  0  0  0  0  0  0  0  0  0  0  # atno 10718 bound_to 10713
  154.6969  135.2981  154.9398 H   0  0  0  0  0  0  0  0  0  0  0  0  # atno 10763 bound_to 10752
  154.0343  135.6666  153.4788 H   0  0  0  0  0  0  0  0  0  0  0  0  # atno 10764 bound_to 10752
  153.0652  135.5092  154.8091 H   0  0  0  0  0  0  0  0  0  0  0  0  # atno 10765 bound_to 10752
  139.8919  134.9522  156.6531 H   0  0  0  0  0  0  0  0  0  0  0  0  # atno 11005 bound_to 11000
  146.1853  139.5066  142.9840 LP  0  0  0  0  0  0  0  0  0  0  0  0  # atno 17320 bound_to 7965
  145.6329  141.0300  143.1853 LP  0  0  0  0  0  0  0  0  0  0  0  0  # atno 17321 bound_to 7965
  140.3983  144.2526  150.5894 LP  0  0  0  0  0  0  0  0  0  0  0  0  # atno 17342 bound_to 10162
  140.5081  143.2298  151.8577 LP  0  0  0  0  0  0  0  0  0  0  0  0  # atno 17343 bound_to 10162
  156.4794  130.8034  151.3049 LP  0  0  0  0  0  0  0  0  0  0  0  0  # atno 17370 bound_to 10713
  157.7473  131.0010  150.2949 LP  0  0  0  0  0  0  0  0  0  0  0  0  # atno 17371 bound_to 10713
  140.7505  133.8901  155.8343 LP  0  0  0  0  0  0  0  0  0  0  0  0  # atno 17394 bound_to 11000
  141.0004  134.1157  157.4322 LP  0  0  0  0  0  0  0  0  0  0  0  0  # atno 17395 bound_to 11000

$$$$
