AV-unprocessed.smi:479|AV-procd|sdf|2674|dock4
  -GOLD-   2262023 93D 1   1.00000     0.00000
 Structure written by MMmdl.
 46 48  0  0  0  0  0  0  0  0  2 V2000
  146.9125  137.5010  163.1777 C   0  0  0  0  0  0  0  0  0  0  0  0
  147.6301  137.3715  161.9595 O   0  0  0  0  0  0  0  0  0  0  0  0
  147.5602  136.1747  161.2763 C   0  0  0  0  0  0  0  0  0  0  0  0
  146.7620  135.0788  161.6930 C   0  0  0  0  0  0  0  0  0  0  0  0
  146.7349  133.8744  160.9525 C   0  0  0  0  0  0  0  0  0  0  0  0
  145.9020  132.7100  161.3703 C   0  0  0  0  0  0  0  0  0  0  0  0
  146.1084  131.3835  160.6406 C   0  0  0  0  0  0  0  0  0  0  0  0
  145.0631  132.7639  162.2690 O   0  0  0  0  0  0  0  0  0  0  0  0
  147.5216  133.7765  159.7859 C   0  0  0  0  0  0  0  0  0  0  0  0
  148.3147  134.8576  159.3640 C   0  0  0  0  0  0  0  0  0  0  0  0
  148.3367  136.0665  160.1010 C   0  0  0  0  0  0  0  0  0  0  0  0
  149.0791  137.1713  159.7367 O   0  0  0  0  0  0  0  0  0  0  0  0
  149.9123  137.0825  158.5875 C   0  0  0  0  0  0  0  0  0  0  0  0
  149.9943  138.4514  157.8865 C   0  0  2  0  0  0  0  0  0  0  0  0
  150.3338  138.2710  156.5282 O   0  0  0  0  0  0  0  0  0  0  0  0
  150.9460  139.4730  158.5427 C   0  0  0  0  0  0  0  0  0  0  0  0
  150.7935  140.8262  157.9853 N   0  0  0  0  0  0  0  0  0  0  0  0
  150.0272  141.2450  156.9415 C   0  0  0  0  0  0  0  0  0  0  0  0
  150.2003  142.5892  156.8149 N   0  3  0  0  0  0  0  0  0  0  0  0
  151.0977  143.0373  157.7857 C   0  0  0  0  0  0  0  0  0  0  0  0
  151.5804  144.3144  158.0552 C   0  0  0  0  0  0  0  0  0  0  0  0
  152.4922  144.4344  159.1244 C   0  0  0  0  0  0  0  0  0  0  0  0
  152.8945  143.3110  159.8745 C   0  0  0  0  0  0  0  0  0  0  0  0
  152.4029  142.0211  159.5877 C   0  0  0  0  0  0  0  0  0  0  0  0
  151.4932  141.9089  158.5359 C   0  0  0  0  0  0  0  0  0  0  0  0
  147.0659  138.5029  163.5786 H   0  0  0  0  0  0  0  0  0  0  0  0
  147.2634  136.7897  163.9262 H   0  0  0  0  0  0  0  0  0  0  0  0
  145.8407  137.3685  163.0241 H   0  0  0  0  0  0  0  0  0  0  0  0
  146.1661  135.1596  162.5879 H   0  0  0  0  0  0  0  0  0  0  0  0
  145.8952  131.4947  159.5773 H   0  0  0  0  0  0  0  0  0  0  0  0
  145.4427  130.6197  161.0432 H   0  0  0  0  0  0  0  0  0  0  0  0
  147.1349  131.0371  160.7603 H   0  0  0  0  0  0  0  0  0  0  0  0
  147.5263  132.8688  159.1995 H   0  0  0  0  0  0  0  0  0  0  0  0
  148.8996  134.7302  158.4660 H   0  0  0  0  0  0  0  0  0  0  0  0
  150.9085  136.7289  158.8581 H   0  0  0  0  0  0  0  0  0  0  0  0
  149.4874  136.3628  157.8861 H   0  0  0  0  0  0  0  0  0  0  0  0
  148.9899  138.8766  157.8875 H   0  0  0  0  0  0  0  0  0  0  0  0
  151.0842  137.6987  156.4777 H   0  0  0  0  0  0  0  0  0  0  0  0
  150.7991  139.4979  159.6212 H   0  0  0  0  0  0  0  0  0  0  0  0
  151.9828  139.1730  158.3850 H   0  0  0  0  0  0  0  0  0  0  0  0
  149.3874  140.6238  156.3313 H   0  0  0  0  0  0  0  0  0  0  0  0
  151.2748  145.1767  157.4805 H   0  0  0  0  0  0  0  0  0  0  0  0
  152.8917  145.4069  159.3734 H   0  0  0  0  0  0  0  0  0  0  0  0
  153.5941  143.4396  160.6876 H   0  0  0  0  0  0  0  0  0  0  0  0
  152.7208  141.1731  160.1750 H   0  0  0  0  0  0  0  0  0  0  0  0
  149.7385  143.1571  156.1159 H   0  0  0  0  0  0  0  0  0  0  0  0
  1  2  1  0  0  0  0
  1 26  1  0  0  0  0
  1 27  1  0  0  0  0
  1 28  1  0  0  0  0
  2  3  1  0  0  0  0
  3 11  1  0  0  0  0
  3  4  2  0  0  0  0
  4  5  1  0  0  0  0
  4 29  1  0  0  0  0
  5  6  1  0  0  0  0
  5  9  2  0  0  0  0
  6  7  1  0  0  0  0
  6  8  2  0  0  0  0
  7 30  1  0  0  0  0
  7 31  1  0  0  0  0
  7 32  1  0  0  0  0
  9 10  1  0  0  0  0
  9 33  1  0  0  0  0
 10 11  2  0  0  0  0
 10 34  1  0  0  0  0
 11 12  1  0  0  0  0
 12 13  1  0  0  0  0
 13 14  1  0  0  0  0
 13 35  1  0  0  0  0
 13 36  1  0  0  0  0
 14 15  1  0  0  0  0
 14 16  1  0  0  0  0
 14 37  1  0  0  0  0
 15 38  1  0  0  0  0
 16 17  1  0  0  0  0
 16 39  1  0  0  0  0
 16 40  1  0  0  0  0
 17 25  1  0  0  0  0
 17 18  1  0  0  0  0
 18 19  2  0  0  0  0
 18 41  1  0  0  0  0
 19 20  1  0  0  0  0
 19 46  1  0  0  0  0
 20 25  2  0  0  0  0
 20 21  1  0  0  0  0
 21 22  2  0  0  0  0
 21 42  1  0  0  0  0
 22 23  1  0  0  0  0
 22 43  1  0  0  0  0
 23 24  2  0  0  0  0
 23 44  1  0  0  0  0
 24 25  1  0  0  0  0
 24 45  1  0  0  0  0
M  CHG  1  19   1
M  END
> <s_m_source_file>
AV-unprocessed.smi

> <i_m_source_file_index>
479

> <i_lp_mmshare_version>
43012

> <i_f3d_flags>
0

> <s_epik_input>
W0NIM11PYzFbY0hdYyhDKD1PKVtDSDNdKVtjSF1bY0hdYzFPW0NIMl1bQ0BIXShbT0hdKVtDSDJdbihbY0hdbjIpYyhjMjMpW2NIXVtjSF1bY0hdW2NIXTM=

> <s_epik_cmdline>
J2VwaWtfcHl0aG9uJywgJy1waCcsICc3LjAnLCAnLXRuJywgJzgnLCAnLW1hJywgJzIwMCcsICctbWV0YWxfYmluZGluZycsICctaW1hZScsICc8aW5maWxlLm1hZT4nLCAnLW9tYWUnLCAnPG91dGZpbGUubWFlPic=

> <r_lp_tautomer_probability>
0.99995

> <r_epik_Ionization_Penalty>
1.37698

> <r_epik_Ionization_Penalty_Charging>
1.37698

> <r_epik_Ionization_Penalty_Neutral>
2.3993e-06

> <r_epik_State_Penalty>
1.45717

> <r_epik_Charging_Adjusted_Penalty>
2.83415

> <i_epik_Tot_Q>
1

> <i_epik_Tot_abs_Q>
1

> <r_epik_Metal_State_Penalty>
5.49703

> <b_epik_Metal_Only>
0

> <s_lp_Force_Field>
OPLS_2005

> <r_lp_Energy>
30.5916

> <b_lp_Chiralities_Consistent>
1

> <s_lp_Variant>
AV-unprocessed.smi:479-3

> <Gold.Version>
5.8.1

> <Gold.Id.Protein>
6NUR|6NUR_protein|mol2

> <Gold.PLP.Fitness>
57.2159

> <Gold.PLP.PLP>
-47.9823

> <Gold.PLP.part.hbond>
-3.6242

> <Gold.PLP.part.metal>
0.0000

> <Gold.PLP.part.buried>
-4.5049

> <Gold.PLP.part.nonpolar>
-40.1716

> <Gold.PLP.part.repulsive>
0.1262

> <Gold.PLP.ligand.clash>
0.0000

> <Gold.PLP.ligand.torsion>
0.5384

> <Gold.PLP.Chemscore.Hbond>
3.3707

> <Gold.PLP.Chemscore.CHOScore>
0.0000

> <Gold.PLP.Chemscore.Metal>
0.0000

> <Gold.Chemscore.Hbonds>
donor molecule, donor type, donor heavy atom, donor atom, acceptor molecule, acceptor atom, score
      L1  H    19    46       P1  8028  1.98
      P1  H  6931  6943       L1     2  0.88
      P1  H  6934  6947       L1     2  0.61

> <Gold.PLP.Chemscore.Internal.Correction>
0.1982

> <Gold.Rescore>
     Score         DG    S(hbond)    S(metal)    S(lipo)     H(rot)  DE(clash)    DE(int)     intcor
     19.26     -20.02       2.04        0.00     126.01       2.75       0.13       0.63       ----

> <Gold.Chemscore.Fitness>
19.2639

> <Gold.Chemscore.DG>
-20.0171

> <Gold.Chemscore.ZeroCoef>
-5.4800

> <Gold.Chemscore.Hbond>
2.0450

> <Gold.Chemscore.Metal>
0.0000

> <Gold.Chemscore.Lipo>
126.0137

> <Gold.Chemscore.Internal_Hbond>
0.0000

> <Gold.Chemscore.DEClash>
0.1264

> <Gold.Chemscore.DEInternal>
0.6268

> <Gold.Chemscore.Rot>
2.7487

> <Gold.Chemscore.Internal.Correction>
   9.000000E+99

> <Gold.Chemscore.Hbonds>
donor molecule, donor type, donor heavy atom, donor atom, acceptor molecule, acceptor atom, score
      L1  H    19    46       P1  8028  0.93
      P1  H  6931  6943       L1     2  0.72
      P1  H  6934  6947       L1     2  0.25

> <Gold.Chemscore.Hbond.Weighted>
-6.8303

> <Gold.Chemscore.Metal.Weighted>
-0.0000

> <Gold.Chemscore.Lipo.Weighted>
-14.7436

> <Gold.Chemscore.Internal_Hbond.Weighted>
0.0000

> <Gold.Chemscore.DEClash.Weighted>
0.1264

> <Gold.Chemscore.DEInternal.Weighted>
0.6268

> <Gold.Chemscore.Rot.Weighted>
7.0368

> <Gold.Chemscore.Internal.Correction.Weighted>
   9.000000E+99

> <Gold.Protein.RotatedTorsions>
[ 6907 6896 6895 6894 ] final  -30.71 input  -60.11 | X-H torsion
[ 7974 7965 7964 7962 ] final  149.80 input  175.53 | X-H torsion
[ 8008 7997 7996 7995 ] final   54.13 input   59.86 | X-H torsion
[ 10167 10162 10161 10158 ] final  -23.19 input  -65.29 | X-H torsion
[ 10718 10713 10712 10709 ] final   98.77 input   66.30 | X-H torsion
[ 10763 10752 10751 10750 ] final  -14.52 input  -60.55 | X-H torsion
[ 11005 11000 10999 10996 ] final -150.72 input  -57.11 | X-H torsion

> <Gold.Protein.ActiveResidues>
 VAL166  LYS551  ARG553  GLY616  TRP617  ASP618  TYR619  PRO620  LYS621  CYS622 
 ASP623  PHE694  ASN695  SER759  ASP760  ASP761  ALA762  ILE779  LEU786  VAL792 
 PHE793  MET794  SER795  GLU796  ALA797  LYS798  CYS799  TRP800  GLU811  SER814 

> <Gold.Protein.RotatedAtoms>
  151.1019  134.9977  159.8452 H   0  0  0  0  0  0  0  0  0  0  0  0  # atno 6907 bound_to 6896
  152.5437  134.1940  159.8695 H   0  0  0  0  0  0  0  0  0  0  0  0  # atno 6908 bound_to 6896
  151.1983  133.4581  159.2629 H   0  0  0  0  0  0  0  0  0  0  0  0  # atno 6909 bound_to 6896
  144.8411  139.6327  143.6016 H   0  0  0  0  0  0  0  0  0  0  0  0  # atno 7974 bound_to 7965
  155.4796  140.3468  155.4338 H   0  0  0  0  0  0  0  0  0  0  0  0  # atno 8008 bound_to 7997
  156.1048  140.1445  156.9448 H   0  0  0  0  0  0  0  0  0  0  0  0  # atno 8009 bound_to 7997
  154.4717  140.0898  156.7139 H   0  0  0  0  0  0  0  0  0  0  0  0  # atno 8010 bound_to 7997
  140.7287  143.4466  151.0578 H   0  0  0  0  0  0  0  0  0  0  0  0  # atno 10167 bound_to 10162
  157.6889  131.0650  150.4847 H   0  0  0  0  0  0  0  0  0  0  0  0  # atno 10718 bound_to 10713
  153.5295  135.7015  153.5691 H   0  0  0  0  0  0  0  0  0  0  0  0  # atno 10763 bound_to 10752
  153.3704  135.3946  155.1784 H   0  0  0  0  0  0  0  0  0  0  0  0  # atno 10764 bound_to 10752
  154.8686  135.3810  154.4790 H   0  0  0  0  0  0  0  0  0  0  0  0  # atno 10765 bound_to 10752
  140.7371  134.3555  157.5155 H   0  0  0  0  0  0  0  0  0  0  0  0  # atno 11005 bound_to 11000
  146.2703  139.6619  142.9301 LP  0  0  0  0  0  0  0  0  0  0  0  0  # atno 17320 bound_to 7965
  145.4693  141.0435  143.2708 LP  0  0  0  0  0  0  0  0  0  0  0  0  # atno 17321 bound_to 7965
  139.8138  143.7914  152.3173 LP  0  0  0  0  0  0  0  0  0  0  0  0  # atno 17342 bound_to 10162
  139.7973  144.7387  150.9873 LP  0  0  0  0  0  0  0  0  0  0  0  0  # atno 17343 bound_to 10162
  156.5177  130.4154  149.6267 LP  0  0  0  0  0  0  0  0  0  0  0  0  # atno 17370 bound_to 10713
  156.3183  130.7266  151.2173 LP  0  0  0  0  0  0  0  0  0  0  0  0  # atno 17371 bound_to 10713
  139.8814  134.9057  156.2905 LP  0  0  0  0  0  0  0  0  0  0  0  0  # atno 17394 bound_to 11000
  140.9869  133.7232  156.0755 LP  0  0  0  0  0  0  0  0  0  0  0  0  # atno 17395 bound_to 11000

$$$$
