AV-unprocessed.smi:2296|AV-procd|sdf|9221|dock5
  -GOLD-   2272012443D 1   1.00000     0.00000
 Structure written by MMmdl.
 24 24  0  0  0  0  0  0  0  0  2 V2000
  149.1253  138.3806  153.4326 N   0  3  0  0  0  0  0  0  0  0  0  0
  149.9151  138.3190  154.6779 C   0  0  1  0  0  0  0  0  0  0  0  0
  150.5013  136.9095  154.8670 C   0  0  0  0  0  0  0  0  0  0  0  0
  151.6315  136.7356  154.0383 O   0  0  0  0  0  0  0  0  0  0  0  0
  151.0221  139.3913  154.6718 C   0  0  0  0  0  0  0  0  0  0  0  0
  151.0292  140.2495  155.9250 C   0  0  0  0  0  0  0  0  0  0  0  0
  150.8096  141.6406  155.8493 C   0  0  0  0  0  0  0  0  0  0  0  0
  150.8221  142.3888  157.0441 C   0  0  0  0  0  0  0  0  0  0  0  0
  151.0308  141.8400  158.2598 N   0  0  0  0  0  0  0  0  0  0  0  0
  151.2427  140.5080  158.3250 C   0  0  0  0  0  0  0  0  0  0  0  0
  151.2510  139.6703  157.1914 C   0  0  0  0  0  0  0  0  0  0  0  0
  149.4727  139.1266  152.8474 H   0  0  0  0  0  0  0  0  0  0  0  0
  148.1549  138.5495  153.6564 H   0  0  0  0  0  0  0  0  0  0  0  0
  149.2400  138.5271  155.5096 H   0  0  0  0  0  0  0  0  0  0  0  0
  150.7779  136.7316  155.9071 H   0  0  0  0  0  0  0  0  0  0  0  0
  149.7654  136.1519  154.5953 H   0  0  0  0  0  0  0  0  0  0  0  0
  151.3362  136.5492  153.1594 H   0  0  0  0  0  0  0  0  0  0  0  0
  151.9989  138.9130  154.5872 H   0  0  0  0  0  0  0  0  0  0  0  0
  150.9221  140.0306  153.7934 H   0  0  0  0  0  0  0  0  0  0  0  0
  150.6373  142.1290  154.9012 H   0  0  0  0  0  0  0  0  0  0  0  0
  150.6573  143.4557  157.0220 H   0  0  0  0  0  0  0  0  0  0  0  0
  151.4089  140.0969  159.3098 H   0  0  0  0  0  0  0  0  0  0  0  0
  151.4243  138.6091  157.2963 H   0  0  0  0  0  0  0  0  0  0  0  0
  149.2110  137.5013  152.9428 H   0  0  0  0  0  0  0  0  0  0  0  0
  1  2  1  0  0  0  0
  1 12  1  0  0  0  0
  1 13  1  0  0  0  0
  1 24  1  0  0  0  0
  2  3  1  0  0  0  0
  2  5  1  0  0  0  0
  2 14  1  0  0  0  0
  3  4  1  0  0  0  0
  3 15  1  0  0  0  0
  3 16  1  0  0  0  0
  4 17  1  0  0  0  0
  5  6  1  0  0  0  0
  5 18  1  0  0  0  0
  5 19  1  0  0  0  0
  6 11  1  0  0  0  0
  6  7  2  0  0  0  0
  7  8  1  0  0  0  0
  7 20  1  0  0  0  0
  8  9  2  0  0  0  0
  8 21  1  0  0  0  0
  9 10  1  0  0  0  0
 10 11  2  0  0  0  0
 10 22  1  0  0  0  0
 11 23  1  0  0  0  0
M  CHG  1   1   1
M  END
> <s_m_source_file>
AV-unprocessed.smi

> <i_m_source_file_index>
2296

> <i_lp_mmshare_version>
43012

> <i_f3d_flags>
0

> <s_epik_input>
W09IXVtDSDJdW0NAQEhdKFtOSDJdKVtDSDJdYzFbY0hdW2NIXW5bY0hdW2NIXTE=

> <s_epik_cmdline>
J2VwaWtfcHl0aG9uJywgJy1waCcsICc3LjAnLCAnLXRuJywgJzgnLCAnLW1hJywgJzIwMCcsICctbWV0YWxfYmluZGluZycsICctaW1hZScsICc8aW5maWxlLm1hZT4nLCAnLW9tYWUnLCAnPG91dGZpbGUubWFlPic=

> <r_epik_Ionization_Penalty>
0.0199414

> <r_epik_Ionization_Penalty_Charging>
0.0188044

> <r_epik_Ionization_Penalty_Neutral>
0.00113699

> <r_epik_State_Penalty>
0.00788343

> <r_epik_Charging_Adjusted_Penalty>
0.0266878

> <i_epik_Tot_Q>
1

> <i_epik_Tot_abs_Q>
1

> <r_epik_Metal_State_Penalty>
-0

> <b_epik_Metal_Only>
0

> <s_lp_Force_Field>
OPLS_2005

> <r_lp_Energy>
8.03463

> <b_lp_Chiralities_Consistent>
1

> <s_lp_Variant>
AV-unprocessed.smi:2296-2

> <Gold.Version>
5.8.1

> <Gold.Id.Protein>
6NUR|6NUR_protein|mol2

> <Gold.PLP.Fitness>
39.4177

> <Gold.PLP.PLP>
-23.0852

> <Gold.PLP.part.hbond>
-4.0000

> <Gold.PLP.part.metal>
0.0000

> <Gold.PLP.part.buried>
-1.6192

> <Gold.PLP.part.nonpolar>
-17.5538

> <Gold.PLP.part.repulsive>
0.0948

> <Gold.PLP.ligand.clash>
0.0000

> <Gold.PLP.ligand.torsion>
0.8325

> <Gold.PLP.Chemscore.Hbond>
5.0000

> <Gold.PLP.Chemscore.CHOScore>
0.9961

> <Gold.PLP.Chemscore.Metal>
0.0000

> <Gold.Chemscore.Hbonds>
donor molecule, donor type, donor heavy atom, donor atom, acceptor molecule, acceptor atom, score
      L1  H     1    12       P1  7957  1.00
      L1  H     1    24       P1  7948  2.00
      L1  H     4    17       P1  7949  1.00
      P1  H 10752 10763       L1     4  0.95
      L1  C     8    21       P1  8028  0.90

> <Gold.PLP.Chemscore.Internal.Correction>
0.0091

> <Gold.Rescore>
     Score         DG    S(hbond)    S(metal)    S(lipo)     H(rot)  DE(clash)    DE(int)     intcor
     15.89     -17.41       3.45        0.00      50.25       2.14       0.65       0.87       ----

> <Gold.Chemscore.Fitness>
15.8868

> <Gold.Chemscore.DG>
-17.4094

> <Gold.Chemscore.ZeroCoef>
-5.4800

> <Gold.Chemscore.Hbond>
3.4519

> <Gold.Chemscore.Metal>
0.0000

> <Gold.Chemscore.Lipo>
50.2542

> <Gold.Chemscore.Internal_Hbond>
0.0000

> <Gold.Chemscore.DEClash>
0.6513

> <Gold.Chemscore.DEInternal>
0.8714

> <Gold.Chemscore.Rot>
2.1405

> <Gold.Chemscore.Internal.Correction>
   9.000000E+99

> <Gold.Chemscore.Hbonds>
donor molecule, donor type, donor heavy atom, donor atom, acceptor molecule, acceptor atom, score
      L1  H     1    12       P1  7957  0.95
      L1  H     1    24       P1  7948  0.98
      L1  H     4    17       P1  7949  0.74
      P1  H 10752 10763       L1     4  0.22

> <Gold.Chemscore.Hbond.Weighted>
-11.5294

> <Gold.Chemscore.Metal.Weighted>
-0.0000

> <Gold.Chemscore.Lipo.Weighted>
-5.8797

> <Gold.Chemscore.Internal_Hbond.Weighted>
0.0000

> <Gold.Chemscore.DEClash.Weighted>
0.6513

> <Gold.Chemscore.DEInternal.Weighted>
0.8714

> <Gold.Chemscore.Rot.Weighted>
5.4797

> <Gold.Chemscore.Internal.Correction.Weighted>
   9.000000E+99

> <Gold.Protein.RotatedTorsions>
[ 6907 6896 6895 6894 ] final  116.75 input  -60.11 | X-H torsion
[ 7974 7965 7964 7962 ] final  -83.38 input  175.53 | X-H torsion
[ 8008 7997 7996 7995 ] final  -61.55 input   59.86 | X-H torsion
[ 10167 10162 10161 10158 ] final  -70.11 input  -65.29 | X-H torsion
[ 10718 10713 10712 10709 ] final  -16.83 input   66.30 | X-H torsion
[ 10763 10752 10751 10750 ] final   29.04 input  -60.55 | X-H torsion
[ 11005 11000 10999 10996 ] final  127.54 input  -57.11 | X-H torsion

> <Gold.Protein.ActiveResidues>
 VAL166  LYS551  ARG553  GLY616  TRP617  ASP618  TYR619  PRO620  LYS621  CYS622 
 ASP623  PHE694  ASN695  SER759  ASP760  ASP761  ALA762  ILE779  LEU786  VAL792 
 PHE793  MET794  SER795  GLU796  ALA797  LYS798  CYS799  TRP800  GLU811  SER814 

> <Gold.Protein.RotatedAtoms>
  152.4657  133.7918  159.6905 H   0  0  0  0  0  0  0  0  0  0  0  0  # atno 6907 bound_to 6896
  150.8621  133.7619  159.2995 H   0  0  0  0  0  0  0  0  0  0  0  0  # atno 6908 bound_to 6896
  151.5181  135.1069  159.9923 H   0  0  0  0  0  0  0  0  0  0  0  0  # atno 6909 bound_to 6896
  145.5207  140.9531  143.1656 H   0  0  0  0  0  0  0  0  0  0  0  0  # atno 7974 bound_to 7965
  154.4454  140.1015  156.6449 H   0  0  0  0  0  0  0  0  0  0  0  0  # atno 8008 bound_to 7997
  155.5461  140.3484  155.4439 H   0  0  0  0  0  0  0  0  0  0  0  0  # atno 8009 bound_to 7997
  156.0562  140.1315  156.9983 H   0  0  0  0  0  0  0  0  0  0  0  0  # atno 8010 bound_to 7997
  140.5378  143.2317  151.7145 H   0  0  0  0  0  0  0  0  0  0  0  0  # atno 10167 bound_to 10162
  156.5821  130.4777  149.6316 H   0  0  0  0  0  0  0  0  0  0  0  0  # atno 10718 bound_to 10713
  153.0455  135.6499  154.0829 H   0  0  0  0  0  0  0  0  0  0  0  0  # atno 10763 bound_to 10752
  154.0528  135.2894  155.3339 H   0  0  0  0  0  0  0  0  0  0  0  0  # atno 10764 bound_to 10752
  154.6709  135.5356  153.8202 H   0  0  0  0  0  0  0  0  0  0  0  0  # atno 10765 bound_to 10752
  139.9513  134.9621  156.8869 H   0  0  0  0  0  0  0  0  0  0  0  0  # atno 11005 bound_to 11000
  144.7677  139.6806  143.7208 LP  0  0  0  0  0  0  0  0  0  0  0  0  # atno 17320 bound_to 7965
  146.2107  139.5462  142.9683 LP  0  0  0  0  0  0  0  0  0  0  0  0  # atno 17321 bound_to 7965
  139.4977  144.4016  152.0176 LP  0  0  0  0  0  0  0  0  0  0  0  0  # atno 17342 bound_to 10162
  140.3122  144.3524  150.6031 LP  0  0  0  0  0  0  0  0  0  0  0  0  # atno 17343 bound_to 10162
  156.2623  130.6969  151.1741 LP  0  0  0  0  0  0  0  0  0  0  0  0  # atno 17370 bound_to 10713
  157.7324  131.0600  150.5630 LP  0  0  0  0  0  0  0  0  0  0  0  0  # atno 17371 bound_to 10713
  140.5713  134.0440  155.7431 LP  0  0  0  0  0  0  0  0  0  0  0  0  # atno 17394 bound_to 11000
  141.1176  133.9515  157.2792 LP  0  0  0  0  0  0  0  0  0  0  0  0  # atno 17395 bound_to 11000

$$$$
