AV-unprocessed.smi:1403|AV-procd|sdf|5698|dock1
  -GOLD-   22720 5323D 1   1.00000     0.00000
 Structure written by MMmdl.
 36 37  0  0  0  0  0  0  0  0  1 V2000
  152.1816  141.3905  157.4486 C   0  0  0  0  0  0  0  0  0  0  0  0
  151.2179  142.5405  157.1215 C   0  0  1  0  0  0  0  0  0  0  0  0
  149.8941  141.9806  156.8543 N   0  0  0  0  0  0  0  0  0  0  0  0
  149.5362  141.2854  155.7632 C   0  0  0  0  0  0  0  0  0  0  0  0
  150.3015  141.0537  154.8264 O   0  0  0  0  0  0  0  0  0  0  0  0
  148.0781  140.8066  155.7207 C   0  0  0  0  0  0  0  0  0  0  0  0
  147.6881  140.2646  154.4112 N   0  0  0  0  0  0  0  0  0  0  0  0
  146.7509  140.9256  153.6297 C   0  0  0  0  0  0  0  0  0  0  0  0
  146.3546  140.4882  152.4110 C   0  0  0  0  0  0  0  0  0  0  0  0
  146.9139  139.2640  151.8475 C   0  0  0  0  0  0  0  0  0  0  0  0
  146.6182  138.7865  150.7545 O   0  0  0  0  0  0  0  0  0  0  0  0
  147.8551  138.6292  152.6627 N   0  0  0  0  0  0  0  0  0  0  0  0
  148.2690  139.0752  153.9188 C   0  0  0  0  0  0  0  0  0  0  0  0
  149.1101  138.4403  154.5541 O   0  0  0  0  0  0  0  0  0  0  0  0
  151.1470  143.5734  158.2655 C   0  0  2  0  0  0  0  0  0  0  0  0
  152.3593  144.4994  158.3793 C   0  0  0  0  0  0  0  0  0  0  0  0
  152.2624  144.9510  159.8182 C   0  0  0  0  0  0  0  0  0  0  0  0
  151.7823  143.6820  160.5176 C   0  0  0  0  0  0  0  0  0  0  0  0
  151.0906  142.9195  159.5307 O   0  0  0  0  0  0  0  0  0  0  0  0
  148.2718  137.7787  152.3127 H   0  0  0  0  0  0  0  0  0  0  0  0
  153.1947  141.7592  157.6112 H   0  0  0  0  0  0  0  0  0  0  0  0
  152.2245  140.6691  156.6317 H   0  0  0  0  0  0  0  0  0  0  0  0
  151.8739  140.8571  158.3486 H   0  0  0  0  0  0  0  0  0  0  0  0
  151.5962  143.0403  156.2281 H   0  0  0  0  0  0  0  0  0  0  0  0
  149.1928  142.1280  157.5653 H   0  0  0  0  0  0  0  0  0  0  0  0
  147.9099  140.0607  156.5003 H   0  0  0  0  0  0  0  0  0  0  0  0
  147.4385  141.6494  155.9870 H   0  0  0  0  0  0  0  0  0  0  0  0
  146.3131  141.8398  154.0048 H   0  0  0  0  0  0  0  0  0  0  0  0
  145.6208  141.0476  151.8489 H   0  0  0  0  0  0  0  0  0  0  0  0
  150.2461  144.1817  158.1663 H   0  0  0  0  0  0  0  0  0  0  0  0
  153.2853  143.9434  158.2248 H   0  0  0  0  0  0  0  0  0  0  0  0
  152.3332  145.3274  157.6703 H   0  0  0  0  0  0  0  0  0  0  0  0
  153.2051  145.3271  160.2161 H   0  0  0  0  0  0  0  0  0  0  0  0
  151.5130  145.7384  159.9113 H   0  0  0  0  0  0  0  0  0  0  0  0
  152.6298  143.0963  160.8750 H   0  0  0  0  0  0  0  0  0  0  0  0
  151.1394  143.9020  161.3702 H   0  0  0  0  0  0  0  0  0  0  0  0
  1  2  1  0  0  0  0
  1 21  1  0  0  0  0
  1 22  1  0  0  0  0
  1 23  1  0  0  0  0
  2  3  1  0  0  0  0
  2 15  1  0  0  0  0
  2 24  1  0  0  0  0
  3  4  1  0  0  0  0
  3 25  1  0  0  0  0
  4  5  2  0  0  0  0
  4  6  1  0  0  0  0
  6  7  1  0  0  0  0
  6 26  1  0  0  0  0
  6 27  1  0  0  0  0
  7 13  1  0  0  0  0
  7  8  1  0  0  0  0
  8  9  2  0  0  0  0
  8 28  1  0  0  0  0
  9 10  1  0  0  0  0
  9 29  1  0  0  0  0
 10 11  2  0  0  0  0
 10 12  1  0  0  0  0
 12 20  1  0  0  0  0
 12 13  1  0  0  0  0
 13 14  2  0  0  0  0
 15 19  1  0  0  0  0
 15 16  1  0  0  0  0
 15 30  1  0  0  0  0
 16 17  1  0  0  0  0
 16 31  1  0  0  0  0
 16 32  1  0  0  0  0
 17 18  1  0  0  0  0
 17 33  1  0  0  0  0
 17 34  1  0  0  0  0
 18 19  1  0  0  0  0
 18 35  1  0  0  0  0
 18 36  1  0  0  0  0
M  END
> <s_m_source_file>
AV-unprocessed.smi

> <i_m_source_file_index>
1403

> <i_lp_mmshare_version>
43012

> <i_f3d_flags>
0

> <s_epik_input>
TzFbQ0gyXVtDSDJdW0NIMl1bQ0BIXTFbQ0BIXShbQ0gzXSlbTkhdQyg9TylbQ0gyXW4yW2NIXVtjSF1jKD1PKVtuSF1jMj1P

> <s_epik_cmdline>
J2VwaWtfcHl0aG9uJywgJy1waCcsICc3LjAnLCAnLXRuJywgJzgnLCAnLW1hJywgJzIwMCcsICctbWV0YWxfYmluZGluZycsICctaW1hZScsICc8aW5maWxlLm1hZT4nLCAnLW9tYWUnLCAnPG91dGZpbGUubWFlPic=

> <r_lp_tautomer_probability>
0.999537

> <r_epik_Ionization_Penalty>
0.00331407

> <r_epik_Ionization_Penalty_Charging>
0.00331405

> <r_epik_Ionization_Penalty_Neutral>
2.30132e-08

> <r_epik_State_Penalty>
0.00234266

> <r_epik_Charging_Adjusted_Penalty>
0.00565671

> <i_epik_Tot_Q>
0

> <i_epik_Tot_abs_Q>
0

> <r_epik_Metal_State_Penalty>
0.365604

> <b_epik_Metal_Only>
0

> <s_lp_Force_Field>
OPLS_2005

> <r_lp_Energy>
17.659

> <b_lp_Chiralities_Consistent>
1

> <s_lp_Variant>
AV-unprocessed.smi:1403-2

> <Gold.Version>
5.8.1

> <Gold.Id.Protein>
6NUR|6NUR_protein|mol2

> <Gold.PLP.Fitness>
42.8309

> <Gold.PLP.PLP>
-35.5356

> <Gold.PLP.part.hbond>
-5.0000

> <Gold.PLP.part.metal>
0.0000

> <Gold.PLP.part.buried>
-0.7994

> <Gold.PLP.part.nonpolar>
-31.4288

> <Gold.PLP.part.repulsive>
0.8782

> <Gold.PLP.ligand.clash>
0.0000

> <Gold.PLP.ligand.torsion>
0.5588

> <Gold.PLP.Chemscore.Hbond>
2.8000

> <Gold.PLP.Chemscore.CHOScore>
0.0000

> <Gold.PLP.Chemscore.Metal>
0.0000

> <Gold.Chemscore.Hbonds>
donor molecule, donor type, donor heavy atom, donor atom, acceptor molecule, acceptor atom, score
      L1  H    12    20       P1  7948  1.00
      P1  H  7954  7966       L1    11  0.82
      P1  H  7989  7998       L1     5  0.66

> <Gold.PLP.Chemscore.Internal.Correction>
0.0129

> <Gold.Rescore>
     Score         DG    S(hbond)    S(metal)    S(lipo)     H(rot)  DE(clash)    DE(int)     intcor
     13.71     -19.45       2.74        0.00      85.86       2.04       2.33       3.42       ----

> <Gold.Chemscore.Fitness>
13.7054

> <Gold.Chemscore.DG>
-19.4472

> <Gold.Chemscore.ZeroCoef>
-5.4800

> <Gold.Chemscore.Hbond>
2.7375

> <Gold.Chemscore.Metal>
0.0000

> <Gold.Chemscore.Lipo>
85.8552

> <Gold.Chemscore.Internal_Hbond>
0.0000

> <Gold.Chemscore.DEClash>
2.3253

> <Gold.Chemscore.DEInternal>
3.4164

> <Gold.Chemscore.Rot>
2.0395

> <Gold.Chemscore.Internal.Correction>
   9.000000E+99

> <Gold.Chemscore.Hbonds>
donor molecule, donor type, donor heavy atom, donor atom, acceptor molecule, acceptor atom, score
      L1  H    12    20       P1  7948  1.00
      P1  H  7954  7966       L1    11  0.65
      P1  H  7989  7998       L1     5  0.66

> <Gold.Chemscore.Hbond.Weighted>
-9.1432

> <Gold.Chemscore.Metal.Weighted>
-0.0000

> <Gold.Chemscore.Lipo.Weighted>
-10.0451

> <Gold.Chemscore.Internal_Hbond.Weighted>
0.0000

> <Gold.Chemscore.DEClash.Weighted>
2.3253

> <Gold.Chemscore.DEInternal.Weighted>
3.4164

> <Gold.Chemscore.Rot.Weighted>
5.2211

> <Gold.Chemscore.Internal.Correction.Weighted>
   9.000000E+99

> <Gold.Protein.RotatedTorsions>
[ 6907 6896 6895 6894 ] final  -93.41 input  -60.11 | X-H torsion
[ 7974 7965 7964 7962 ] final   21.23 input  175.53 | X-H torsion
[ 8008 7997 7996 7995 ] final  159.84 input   59.86 | X-H torsion
[ 10167 10162 10161 10158 ] final  114.75 input  -65.29 | X-H torsion
[ 10718 10713 10712 10709 ] final -116.06 input   66.30 | X-H torsion
[ 10763 10752 10751 10750 ] final  -17.00 input  -60.55 | X-H torsion
[ 11005 11000 10999 10996 ] final  169.02 input  -57.11 | X-H torsion

> <Gold.Protein.ActiveResidues>
 VAL166  LYS551  ARG553  GLY616  TRP617  ASP618  TYR619  PRO620  LYS621  CYS622 
 ASP623  PHE694  ASN695  SER759  ASP760  ASP761  ALA762  ILE779  LEU786  VAL792 
 PHE793  MET794  SER795  GLU796  ALA797  LYS798  CYS799  TRP800  GLU811  SER814 

> <Gold.Protein.RotatedAtoms>
  150.6922  134.1971  159.4307 H   0  0  0  0  0  0  0  0  0  0  0  0  # atno 6907 bound_to 6896
  151.9939  134.9962  160.0572 H   0  0  0  0  0  0  0  0  0  0  0  0  # atno 6908 bound_to 6896
  152.1642  133.4566  159.4913 H   0  0  0  0  0  0  0  0  0  0  0  0  # atno 6909 bound_to 6896
  146.2080  139.8057  142.8711 H   0  0  0  0  0  0  0  0  0  0  0  0  # atno 7974 bound_to 7965
  156.2212  140.1820  156.7472 H   0  0  0  0  0  0  0  0  0  0  0  0  # atno 8008 bound_to 7997
  154.5868  140.0657  156.9212 H   0  0  0  0  0  0  0  0  0  0  0  0  # atno 8009 bound_to 7997
  155.2405  140.3321  155.4295 H   0  0  0  0  0  0  0  0  0  0  0  0  # atno 8010 bound_to 7997
  139.6366  144.7120  151.2322 H   0  0  0  0  0  0  0  0  0  0  0  0  # atno 10167 bound_to 10162
  156.0937  130.6114  150.8986 H   0  0  0  0  0  0  0  0  0  0  0  0  # atno 10718 bound_to 10713
  153.5672  135.7008  153.5520 H   0  0  0  0  0  0  0  0  0  0  0  0  # atno 10763 bound_to 10752
  153.3376  135.4030  155.1546 H   0  0  0  0  0  0  0  0  0  0  0  0  # atno 10764 bound_to 10752
  154.8639  135.3734  154.5193 H   0  0  0  0  0  0  0  0  0  0  0  0  # atno 10765 bound_to 10752
  140.2933  134.7655  157.3856 H   0  0  0  0  0  0  0  0  0  0  0  0  # atno 11005 bound_to 11000
  145.3249  141.0253  143.3479 LP  0  0  0  0  0  0  0  0  0  0  0  0  # atno 17320 bound_to 7965
  144.8840  139.4865  143.6709 LP  0  0  0  0  0  0  0  0  0  0  0  0  # atno 17321 bound_to 7965
  140.7469  143.6385  150.8357 LP  0  0  0  0  0  0  0  0  0  0  0  0  # atno 17342 bound_to 10162
  140.0017  143.5737  152.2873 LP  0  0  0  0  0  0  0  0  0  0  0  0  # atno 17343 bound_to 10162
  157.6093  131.0937  150.8823 LP  0  0  0  0  0  0  0  0  0  0  0  0  # atno 17370 bound_to 10713
  156.8966  130.5231  149.5284 LP  0  0  0  0  0  0  0  0  0  0  0  0  # atno 17371 bound_to 10713
  140.1175  134.5263  155.8212 LP  0  0  0  0  0  0  0  0  0  0  0  0  # atno 17394 bound_to 11000
  141.2142  133.6745  156.6804 LP  0  0  0  0  0  0  0  0  0  0  0  0  # atno 17395 bound_to 11000

$$$$
