AV-unprocessed.smi:1263|AV-procd|sdf|5312|dock1
  -GOLD-   22720 4433D 1   1.00000     0.00000
 Structure written by MMmdl.
 43 45  0  0  0  0  0  0  0  0  1 V2000
  145.9871  133.1575  151.6872 C   0  0  0  0  0  0  0  0  0  0  0  0
  147.0736  133.5713  152.5085 O   0  0  0  0  0  0  0  0  0  0  0  0
  147.8051  132.6040  153.1713 C   0  0  0  0  0  0  0  0  0  0  0  0
  147.4224  131.3082  153.0466 N   0  0  0  0  0  0  0  0  0  0  0  0
  148.1387  130.3617  153.6869 C   0  0  0  0  0  0  0  0  0  0  0  0
  149.2682  130.6514  154.4738 C   0  0  0  0  0  0  0  0  0  0  0  0
  149.6668  131.9943  154.6058 C   0  0  0  0  0  0  0  0  0  0  0  0
  148.9161  133.0014  153.9518 C   0  0  0  0  0  0  0  0  0  0  0  0
  149.2440  134.3845  154.0008 N   0  0  0  0  0  0  0  0  0  0  0  0
  149.9625  135.0445  154.9251 C   0  0  0  0  0  0  0  0  0  0  0  0
  150.4370  134.5456  155.9455 O   0  0  0  0  0  0  0  0  0  0  0  0
  150.0833  136.3404  154.6038 N   0  0  0  0  0  0  0  0  0  0  0  0
  150.7878  137.3547  155.3838 C   0  0  0  0  0  0  0  0  0  0  0  0
  150.0230  137.6448  156.6850 C   0  0  0  0  0  0  0  0  0  0  0  0
  150.6521  138.8260  157.4444 C   0  0  0  0  0  0  0  0  0  0  0  0
  150.6666  140.0201  156.5989 N   0  0  0  0  0  0  0  0  0  0  0  0
  151.2216  141.1274  157.3599 C   0  0  0  0  0  0  0  0  0  0  0  0
  150.2500  142.1132  157.9674 C   0  0  0  0  0  0  0  0  0  0  0  0
  151.0856  142.5151  156.7760 C   0  0  0  0  0  0  0  0  0  0  0  0
  151.5044  139.7864  155.4223 C   0  0  0  0  0  0  0  0  0  0  0  0
  150.9143  138.6507  154.5679 C   0  0  0  0  0  0  0  0  0  0  0  0
  145.5187  134.0340  151.2396 H   0  0  0  0  0  0  0  0  0  0  0  0
  145.2247  132.6353  152.2671 H   0  0  0  0  0  0  0  0  0  0  0  0
  146.3243  132.5119  150.8749 H   0  0  0  0  0  0  0  0  0  0  0  0
  147.8054  129.3420  153.5619 H   0  0  0  0  0  0  0  0  0  0  0  0
  149.8199  129.8608  154.9605 H   0  0  0  0  0  0  0  0  0  0  0  0
  150.5450  132.2214  155.1898 H   0  0  0  0  0  0  0  0  0  0  0  0
  148.8367  134.9487  153.2691 H   0  0  0  0  0  0  0  0  0  0  0  0
  149.6514  136.6542  153.7469 H   0  0  0  0  0  0  0  0  0  0  0  0
  151.7924  137.0160  155.6433 H   0  0  0  0  0  0  0  0  0  0  0  0
  148.9793  137.8734  156.4631 H   0  0  0  0  0  0  0  0  0  0  0  0
  150.0175  136.7586  157.3206 H   0  0  0  0  0  0  0  0  0  0  0  0
  150.0737  139.0256  158.3472 H   0  0  0  0  0  0  0  0  0  0  0  0
  151.6656  138.5757  157.7625 H   0  0  0  0  0  0  0  0  0  0  0  0
  152.1286  140.9563  157.9377 H   0  0  0  0  0  0  0  0  0  0  0  0
  149.1868  141.9492  157.8017 H   0  0  0  0  0  0  0  0  0  0  0  0
  150.5099  142.5428  158.9327 H   0  0  0  0  0  0  0  0  0  0  0  0
  151.9026  143.2131  156.9470 H   0  0  0  0  0  0  0  0  0  0  0  0
  150.5776  142.6184  155.8189 H   0  0  0  0  0  0  0  0  0  0  0  0
  151.5581  140.6980  154.8261 H   0  0  0  0  0  0  0  0  0  0  0  0
  152.5238  139.5424  155.7262 H   0  0  0  0  0  0  0  0  0  0  0  0
  151.5442  138.4819  153.6939 H   0  0  0  0  0  0  0  0  0  0  0  0
  149.9361  138.9536  154.1907 H   0  0  0  0  0  0  0  0  0  0  0  0
  1  2  1  0  0  0  0
  1 22  1  0  0  0  0
  1 23  1  0  0  0  0
  1 24  1  0  0  0  0
  2  3  1  0  0  0  0
  3  8  1  0  0  0  0
  3  4  2  0  0  0  0
  4  5  1  0  0  0  0
  5  6  2  0  0  0  0
  5 25  1  0  0  0  0
  6  7  1  0  0  0  0
  6 26  1  0  0  0  0
  7  8  2  0  0  0  0
  7 27  1  0  0  0  0
  8  9  1  0  0  0  0
  9 10  1  0  0  0  0
  9 28  1  0  0  0  0
 10 11  2  0  0  0  0
 10 12  1  0  0  0  0
 12 13  1  0  0  0  0
 12 29  1  0  0  0  0
 13 21  1  0  0  0  0
 13 14  1  0  0  0  0
 13 30  1  0  0  0  0
 14 15  1  0  0  0  0
 14 31  1  0  0  0  0
 14 32  1  0  0  0  0
 15 16  1  0  0  0  0
 15 33  1  0  0  0  0
 15 34  1  0  0  0  0
 16 17  1  0  0  0  0
 16 20  1  0  0  0  0
 17 19  1  0  0  0  0
 17 18  1  0  0  0  0
 17 35  1  0  0  0  0
 18 19  1  0  0  0  0
 18 36  1  0  0  0  0
 18 37  1  0  0  0  0
 19 38  1  0  0  0  0
 19 39  1  0  0  0  0
 20 21  1  0  0  0  0
 20 40  1  0  0  0  0
 20 41  1  0  0  0  0
 21 42  1  0  0  0  0
 21 43  1  0  0  0  0
M  END
> <s_m_source_file>
AV-unprocessed.smi

> <i_m_source_file_index>
1263

> <i_lp_mmshare_version>
43012

> <i_f3d_flags>
0

> <s_epik_input>
W0NIM11PYzFuW2NIXVtjSF1bY0hdYzFbTkhdQyg9TylbTkhdW0NIXTJbQ0gyXVtDSDJdTihbQ0gyXVtDSDJdMilbQ0hdM1tDSDJdW0NIMl0z

> <s_epik_cmdline>
J2VwaWtfcHl0aG9uJywgJy1waCcsICc3LjAnLCAnLXRuJywgJzgnLCAnLW1hJywgJzIwMCcsICctbWV0YWxfYmluZGluZycsICctaW1hZScsICc8aW5maWxlLm1hZT4nLCAnLW9tYWUnLCAnPG91dGZpbGUubWFlPic=

> <r_lp_tautomer_probability>
1

> <r_epik_Ionization_Penalty>
1.02543

> <r_epik_Ionization_Penalty_Charging>
0

> <r_epik_Ionization_Penalty_Neutral>
1.02543

> <r_epik_State_Penalty>
1.07599

> <r_epik_Charging_Adjusted_Penalty>
1.07599

> <i_epik_Tot_Q>
0

> <i_epik_Tot_abs_Q>
0

> <r_epik_Metal_State_Penalty>
1.07599

> <b_epik_Metal_Only>
0

> <s_lp_Force_Field>
OPLS_2005

> <r_lp_Energy>
24.353

> <b_lp_Chiralities_Consistent>
1

> <s_lp_Variant>
AV-unprocessed.smi:1263-3

> <Gold.Version>
5.8.1

> <Gold.Id.Protein>
6NUR|6NUR_protein|mol2

> <Gold.PLP.Fitness>
38.8010

> <Gold.PLP.PLP>
-33.2943

> <Gold.PLP.part.hbond>
-2.1156

> <Gold.PLP.part.metal>
0.0000

> <Gold.PLP.part.buried>
-4.6398

> <Gold.PLP.part.nonpolar>
-27.9836

> <Gold.PLP.part.repulsive>
1.0700

> <Gold.PLP.ligand.clash>
0.0000

> <Gold.PLP.ligand.torsion>
0.8304

> <Gold.PLP.Chemscore.Hbond>
1.9920

> <Gold.PLP.Chemscore.CHOScore>
0.0000

> <Gold.PLP.Chemscore.Metal>
0.0000

> <Gold.Chemscore.Hbonds>
donor molecule, donor type, donor heavy atom, donor atom, acceptor molecule, acceptor atom, score
      L1  H     9    28       P1  7948  1.00
      L1  H    12    29       P1  7948  0.98

> <Gold.PLP.Chemscore.Internal.Correction>
1.1915

> <Gold.Rescore>
     Score         DG    S(hbond)    S(metal)    S(lipo)     H(rot)  DE(clash)    DE(int)     intcor
     13.20     -14.98       1.40        0.00      72.10       1.41       0.01       1.76       ----

> <Gold.Chemscore.Fitness>
13.2009

> <Gold.Chemscore.DG>
-14.9790

> <Gold.Chemscore.ZeroCoef>
-5.4800

> <Gold.Chemscore.Hbond>
1.3955

> <Gold.Chemscore.Metal>
0.0000

> <Gold.Chemscore.Lipo>
72.1015

> <Gold.Chemscore.Internal_Hbond>
0.0000

> <Gold.Chemscore.DEClash>
0.0150

> <Gold.Chemscore.DEInternal>
1.7631

> <Gold.Chemscore.Rot>
1.4053

> <Gold.Chemscore.Internal.Correction>
   9.000000E+99

> <Gold.Chemscore.Hbonds>
donor molecule, donor type, donor heavy atom, donor atom, acceptor molecule, acceptor atom, score
      L1  H     9    28       P1  7948  0.33
      L1  H    12    29       P1  7948  0.58

> <Gold.Chemscore.Hbond.Weighted>
-4.6609

> <Gold.Chemscore.Metal.Weighted>
-0.0000

> <Gold.Chemscore.Lipo.Weighted>
-8.4359

> <Gold.Chemscore.Internal_Hbond.Weighted>
0.0000

> <Gold.Chemscore.DEClash.Weighted>
0.0150

> <Gold.Chemscore.DEInternal.Weighted>
1.7631

> <Gold.Chemscore.Rot.Weighted>
3.5977

> <Gold.Chemscore.Internal.Correction.Weighted>
   9.000000E+99

> <Gold.Protein.RotatedTorsions>
[ 6907 6896 6895 6894 ] final -126.42 input  -60.11 | X-H torsion
[ 7974 7965 7964 7962 ] final  -20.86 input  175.53 | X-H torsion
[ 8008 7997 7996 7995 ] final  -10.97 input   59.86 | X-H torsion
[ 10167 10162 10161 10158 ] final   83.42 input  -65.29 | X-H torsion
[ 10718 10713 10712 10709 ] final  102.86 input   66.30 | X-H torsion
[ 10763 10752 10751 10750 ] final -163.37 input  -60.55 | X-H torsion
[ 11005 11000 10999 10996 ] final  134.77 input  -57.11 | X-H torsion

> <Gold.Protein.ActiveResidues>
 VAL166  LYS551  ARG553  GLY616  TRP617  ASP618  TYR619  PRO620  LYS621  CYS622 
 ASP623  PHE694  ASN695  SER759  ASP760  ASP761  ALA762  ILE779  LEU786  VAL792 
 PHE793  MET794  SER795  GLU796  ALA797  LYS798  CYS799  TRP800  GLU811  SER814 

> <Gold.Protein.RotatedAtoms>
  150.8967  133.7172  159.2889 H   0  0  0  0  0  0  0  0  0  0  0  0  # atno 6907 bound_to 6896
  151.4704  135.1044  159.9759 H   0  0  0  0  0  0  0  0  0  0  0  0  # atno 6908 bound_to 6896
  152.4853  133.8308  159.7158 H   0  0  0  0  0  0  0  0  0  0  0  0  # atno 6909 bound_to 6896
  146.1765  140.4261  142.8511 H   0  0  0  0  0  0  0  0  0  0  0  0  # atno 7974 bound_to 7965
  154.5507  140.2315  155.8490 H   0  0  0  0  0  0  0  0  0  0  0  0  # atno 8008 bound_to 7997
  156.1944  140.3069  155.9358 H   0  0  0  0  0  0  0  0  0  0  0  0  # atno 8009 bound_to 7997
  155.3077  140.0434  157.3024 H   0  0  0  0  0  0  0  0  0  0  0  0  # atno 8010 bound_to 7997
  139.9186  144.6227  150.8464 H   0  0  0  0  0  0  0  0  0  0  0  0  # atno 10167 bound_to 10162
  157.6790  131.0764  150.5468 H   0  0  0  0  0  0  0  0  0  0  0  0  # atno 10718 bound_to 10713
  154.7128  135.3010  154.9170 H   0  0  0  0  0  0  0  0  0  0  0  0  # atno 10763 bound_to 10752
  154.0066  135.6700  153.4766 H   0  0  0  0  0  0  0  0  0  0  0  0  # atno 10764 bound_to 10752
  153.0769  135.5030  154.8337 H   0  0  0  0  0  0  0  0  0  0  0  0  # atno 10765 bound_to 10752
  139.9936  134.9506  156.9913 H   0  0  0  0  0  0  0  0  0  0  0  0  # atno 11005 bound_to 11000
  144.8244  140.6604  143.6331 LP  0  0  0  0  0  0  0  0  0  0  0  0  # atno 17320 bound_to 7965
  145.4197  139.1566  143.4081 LP  0  0  0  0  0  0  0  0  0  0  0  0  # atno 17321 bound_to 7965
  140.7668  143.3313  151.2403 LP  0  0  0  0  0  0  0  0  0  0  0  0  # atno 17342 bound_to 10162
  139.6881  143.9739  152.2845 LP  0  0  0  0  0  0  0  0  0  0  0  0  # atno 17343 bound_to 10162
  156.5774  130.4295  149.5992 LP  0  0  0  0  0  0  0  0  0  0  0  0  # atno 17370 bound_to 10713
  156.2690  130.7006  151.1797 LP  0  0  0  0  0  0  0  0  0  0  0  0  # atno 17371 bound_to 10713
  140.4861  134.1240  155.7225 LP  0  0  0  0  0  0  0  0  0  0  0  0  # atno 17394 bound_to 11000
  141.1586  133.8836  157.1910 LP  0  0  0  0  0  0  0  0  0  0  0  0  # atno 17395 bound_to 11000

$$$$
