AV-unprocessed.smi:1701|AV-procd|sdf|6829|dock1
  -GOLD-   22720 8 03D 1   1.00000     0.00000
 Structure written by MMmdl.
 54 56  0  0  0  0  0  0  0  0  2 V2000
  151.6788  144.0564  157.3982 C   0  0  0  0  0  0  0  0  0  0  0  0
  151.2873  142.8422  156.5445 C   0  0  0  0  0  0  0  0  0  0  0  0
  151.3448  141.5795  157.2811 N   0  0  0  0  0  0  0  0  0  0  0  0
  151.6678  141.6016  158.7099 C   0  0  0  0  0  0  0  0  0  0  0  0
  152.9936  140.8973  159.0376 C   0  0  0  0  0  0  0  0  0  0  0  0
  150.9439  140.3674  156.6662 C   0  0  0  0  0  0  0  0  0  0  0  0
  150.8596  139.1527  157.3926 C   0  0  0  0  0  0  0  0  0  0  0  0
  150.4523  137.9772  156.7334 C   0  0  0  0  0  0  0  0  0  0  0  0
  150.1397  138.0355  155.3566 C   0  0  0  0  0  0  0  0  0  0  0  0
  149.6902  136.9241  154.5950 N   0  0  0  0  0  0  0  0  0  0  0  0
  149.4661  135.6632  155.0138 C   0  0  0  0  0  0  0  0  0  0  0  0
  149.7307  135.2439  156.1381 O   0  0  0  0  0  0  0  0  0  0  0  0
  148.9543  134.8503  154.0726 N   0  0  0  0  0  0  0  0  0  0  0  0
  148.5986  133.4362  154.1983 C   0  0  2  0  0  0  0  0  0  0  0  0
  149.6723  132.5755  154.8873 C   0  0  0  0  0  0  0  0  0  0  0  0
  149.7017  131.2476  154.1052 C   0  0  0  0  0  0  0  0  0  0  0  0
  148.6159  131.3218  153.1015 N   0  3  1  0  0  0  0  0  0  0  0  0
  147.3773  130.6378  153.5647 C   0  0  0  0  0  0  0  0  0  0  0  0
  146.1852  130.9127  152.6392 C   0  0  0  0  0  0  0  0  0  0  0  0
  145.9311  132.4187  152.5385 C   0  0  0  0  0  0  0  0  0  0  0  0
  147.1911  133.1153  152.0132 C   0  0  0  0  0  0  0  0  0  0  0  0
  148.4599  132.7702  152.8250 C   0  0  1  0  0  0  0  0  0  0  0  0
  150.2375  139.2871  154.7198 C   0  0  0  0  0  0  0  0  0  0  0  0
  150.6317  140.4143  155.3474 N   0  0  0  0  0  0  0  0  0  0  0  0
  151.5678  144.9779  156.8266 H   0  0  0  0  0  0  0  0  0  0  0  0
  152.7175  143.9979  157.7209 H   0  0  0  0  0  0  0  0  0  0  0  0
  151.0541  144.1418  158.2874 H   0  0  0  0  0  0  0  0  0  0  0  0
  150.2989  142.9835  156.1080 H   0  0  0  0  0  0  0  0  0  0  0  0
  151.9639  142.7772  155.6920 H   0  0  0  0  0  0  0  0  0  0  0  0
  151.6866  142.6286  159.0752 H   0  0  0  0  0  0  0  0  0  0  0  0
  150.8643  141.1127  159.2614 H   0  0  0  0  0  0  0  0  0  0  0  0
  153.1892  140.9297  160.1094 H   0  0  0  0  0  0  0  0  0  0  0  0
  153.8354  141.3749  158.5362 H   0  0  0  0  0  0  0  0  0  0  0  0
  152.9785  139.8499  158.7392 H   0  0  0  0  0  0  0  0  0  0  0  0
  151.1031  139.0921  158.4419 H   0  0  0  0  0  0  0  0  0  0  0  0
  150.3733  137.0616  157.2990 H   0  0  0  0  0  0  0  0  0  0  0  0
  149.5472  137.1012  153.6117 H   0  0  0  0  0  0  0  0  0  0  0  0
  148.8442  135.2508  153.1519 H   0  0  0  0  0  0  0  0  0  0  0  0
  147.6556  133.3412  154.7390 H   0  0  0  0  0  0  0  0  0  0  0  0
  150.6540  133.0501  154.8483 H   0  0  0  0  0  0  0  0  0  0  0  0
  149.4279  132.4174  155.9384 H   0  0  0  0  0  0  0  0  0  0  0  0
  150.6510  131.1574  153.5758 H   0  0  0  0  0  0  0  0  0  0  0  0
  149.6126  130.3768  154.7565 H   0  0  0  0  0  0  0  0  0  0  0  0
  147.5640  129.5647  153.6180 H   0  0  0  0  0  0  0  0  0  0  0  0
  147.1301  130.9611  154.5774 H   0  0  0  0  0  0  0  0  0  0  0  0
  146.3776  130.4982  151.6487 H   0  0  0  0  0  0  0  0  0  0  0  0
  145.2956  130.4103  153.0201 H   0  0  0  0  0  0  0  0  0  0  0  0
  145.0900  132.6148  151.8730 H   0  0  0  0  0  0  0  0  0  0  0  0
  145.6558  132.8194  153.5146 H   0  0  0  0  0  0  0  0  0  0  0  0
  147.3466  132.8101  150.9774 H   0  0  0  0  0  0  0  0  0  0  0  0
  147.0409  134.1950  151.9872 H   0  0  0  0  0  0  0  0  0  0  0  0
  149.3227  133.0644  152.2233 H   0  0  0  0  0  0  0  0  0  0  0  0
  149.9955  139.3898  153.6718 H   0  0  0  0  0  0  0  0  0  0  0  0
  148.9120  130.8603  152.2529 H   0  0  0  0  0  0  0  0  0  0  0  0
  1  2  1  0  0  0  0
  1 25  1  0  0  0  0
  1 26  1  0  0  0  0
  1 27  1  0  0  0  0
  2  3  1  0  0  0  0
  2 28  1  0  0  0  0
  2 29  1  0  0  0  0
  3  4  1  0  0  0  0
  3  6  1  0  0  0  0
  4  5  1  0  0  0  0
  4 30  1  0  0  0  0
  4 31  1  0  0  0  0
  5 32  1  0  0  0  0
  5 33  1  0  0  0  0
  5 34  1  0  0  0  0
  6 24  1  0  0  0  0
  6  7  2  0  0  0  0
  7  8  1  0  0  0  0
  7 35  1  0  0  0  0
  8  9  2  0  0  0  0
  8 36  1  0  0  0  0
  9 10  1  0  0  0  0
  9 23  1  0  0  0  0
 10 11  1  0  0  0  0
 10 37  1  0  0  0  0
 11 12  2  0  0  0  0
 11 13  1  0  0  0  0
 13 14  1  0  0  0  0
 13 38  1  0  0  0  0
 14 22  1  0  0  0  0
 14 15  1  0  0  0  0
 14 39  1  0  0  0  0
 15 16  1  0  0  0  0
 15 40  1  0  0  0  0
 15 41  1  0  0  0  0
 16 17  1  0  0  0  0
 16 42  1  0  0  0  0
 16 43  1  0  0  0  0
 17 22  1  0  0  0  0
 17 18  1  0  0  0  0
 17 54  1  0  0  0  0
 18 19  1  0  0  0  0
 18 44  1  0  0  0  0
 18 45  1  0  0  0  0
 19 20  1  0  0  0  0
 19 46  1  0  0  0  0
 19 47  1  0  0  0  0
 20 21  1  0  0  0  0
 20 48  1  0  0  0  0
 20 49  1  0  0  0  0
 21 22  1  0  0  0  0
 21 50  1  0  0  0  0
 21 51  1  0  0  0  0
 22 52  1  0  0  0  0
 23 24  2  0  0  0  0
 23 53  1  0  0  0  0
M  CHG  1  17   1
M  END
> <s_m_source_file>
AV-unprocessed.smi

> <i_m_source_file_index>
1701

> <i_lp_mmshare_version>
43012

> <i_f3d_flags>
0

> <s_epik_input>
W0NIM11bQ0gyXU4oW0NIMl1bQ0gzXSljMVtjSF1bY0hdYyhbY0hdbjEpW05IXUMoPU8pW05IXVtDQEhdKFtDSDJdW0NIMl0yKVtDQEBIXShOMjMpW0NIMl1bQ0gyXVtDSDJdW0NIMl0z

> <s_epik_cmdline>
J2VwaWtfcHl0aG9uJywgJy1waCcsICc3LjAnLCAnLXRuJywgJzgnLCAnLW1hJywgJzIwMCcsICctbWV0YWxfYmluZGluZycsICctaW1hZScsICc8aW5maWxlLm1hZT4nLCAnLW9tYWUnLCAnPG91dGZpbGUubWFlPic=

> <r_lp_tautomer_probability>
1

> <r_epik_Ionization_Penalty>
0.56662

> <r_epik_Ionization_Penalty_Charging>
0.000974069

> <r_epik_Ionization_Penalty_Neutral>
0.565646

> <r_epik_State_Penalty>
2.0247

> <r_epik_Charging_Adjusted_Penalty>
2.02568

> <i_epik_Tot_Q>
1

> <i_epik_Tot_abs_Q>
1

> <r_epik_Metal_State_Penalty>
1.51504

> <b_epik_Metal_Only>
0

> <s_lp_Force_Field>
OPLS_2005

> <r_lp_Energy>
57.8718

> <b_lp_Chiralities_Consistent>
1

> <s_lp_Variant>
AV-unprocessed.smi:1701-9

> <Gold.Version>
5.8.1

> <Gold.Id.Protein>
6NUR|6NUR_protein|mol2

> <Gold.PLP.Fitness>
49.7870

> <Gold.PLP.PLP>
-38.6194

> <Gold.PLP.part.hbond>
-3.8682

> <Gold.PLP.part.metal>
0.0000

> <Gold.PLP.part.buried>
-4.1041

> <Gold.PLP.part.nonpolar>
-30.2125

> <Gold.PLP.part.repulsive>
0.1188

> <Gold.PLP.ligand.clash>
0.0000

> <Gold.PLP.ligand.torsion>
0.2904

> <Gold.PLP.Chemscore.Hbond>
3.0865

> <Gold.PLP.Chemscore.CHOScore>
0.7884

> <Gold.PLP.Chemscore.Metal>
0.0000

> <Gold.Chemscore.Hbonds>
donor molecule, donor type, donor heavy atom, donor atom, acceptor molecule, acceptor atom, score
      L1  H    10    37       P1  7948  0.88
      L1  H    13    38       P1  7948  1.00
      L1  H    17    54       P1 10747  0.99
      P1  H  7989  7998       L1    24  0.21
      L1  C    23    53       P1  7957  0.78

> <Gold.PLP.Chemscore.Internal.Correction>
0.1236

> <Gold.Rescore>
     Score         DG    S(hbond)    S(metal)    S(lipo)     H(rot)  DE(clash)    DE(int)     intcor
     19.77     -22.56       2.68        0.00      97.59       1.28       0.03       2.76       ----

> <Gold.Chemscore.Fitness>
19.7661

> <Gold.Chemscore.DG>
-22.5621

> <Gold.Chemscore.ZeroCoef>
-5.4800

> <Gold.Chemscore.Hbond>
2.6798

> <Gold.Chemscore.Metal>
0.0000

> <Gold.Chemscore.Lipo>
97.5917

> <Gold.Chemscore.Internal_Hbond>
0.0000

> <Gold.Chemscore.DEClash>
0.0349

> <Gold.Chemscore.DEInternal>
2.7611

> <Gold.Chemscore.Rot>
1.2838

> <Gold.Chemscore.Internal.Correction>
   9.000000E+99

> <Gold.Chemscore.Hbonds>
donor molecule, donor type, donor heavy atom, donor atom, acceptor molecule, acceptor atom, score
      L1  H    10    37       P1  7948  0.73
      L1  H    13    38       P1  7948  0.54
      L1  H    17    54       P1 10747  0.47

> <Gold.Chemscore.Hbond.Weighted>
-8.9504

> <Gold.Chemscore.Metal.Weighted>
-0.0000

> <Gold.Chemscore.Lipo.Weighted>
-11.4182

> <Gold.Chemscore.Internal_Hbond.Weighted>
0.0000

> <Gold.Chemscore.DEClash.Weighted>
0.0349

> <Gold.Chemscore.DEInternal.Weighted>
2.7611

> <Gold.Chemscore.Rot.Weighted>
3.2865

> <Gold.Chemscore.Internal.Correction.Weighted>
   9.000000E+99

> <Gold.Protein.RotatedTorsions>
[ 6907 6896 6895 6894 ] final  127.67 input  -60.11 | X-H torsion
[ 7974 7965 7964 7962 ] final -103.13 input  175.53 | X-H torsion
[ 8008 7997 7996 7995 ] final   16.34 input   59.86 | X-H torsion
[ 10167 10162 10161 10158 ] final -161.01 input  -65.29 | X-H torsion
[ 10718 10713 10712 10709 ] final   43.73 input   66.30 | X-H torsion
[ 10763 10752 10751 10750 ] final  -88.50 input  -60.55 | X-H torsion
[ 11005 11000 10999 10996 ] final  -71.08 input  -57.11 | X-H torsion

> <Gold.Protein.ActiveResidues>
 VAL166  LYS551  ARG553  GLY616  TRP617  ASP618  TYR619  PRO620  LYS621  CYS622 
 ASP623  PHE694  ASN695  SER759  ASP760  ASP761  ALA762  ILE779  LEU786  VAL792 
 PHE793  MET794  SER795  GLU796  ALA797  LYS798  CYS799  TRP800  GLU811  SER814 

> <Gold.Protein.RotatedAtoms>
  152.3791  133.6521  159.6146 H   0  0  0  0  0  0  0  0  0  0  0  0  # atno 6907 bound_to 6896
  150.7727  133.9144  159.3388 H   0  0  0  0  0  0  0  0  0  0  0  0  # atno 6908 bound_to 6896
  151.6953  135.0941  160.0292 H   0  0  0  0  0  0  0  0  0  0  0  0  # atno 6909 bound_to 6896
  145.2599  140.9266  143.3047 H   0  0  0  0  0  0  0  0  0  0  0  0  # atno 7974 bound_to 7965
  154.8755  140.2965  155.5456 H   0  0  0  0  0  0  0  0  0  0  0  0  # atno 8008 bound_to 7997
  156.3022  140.2452  156.3684 H   0  0  0  0  0  0  0  0  0  0  0  0  # atno 8009 bound_to 7997
  154.8772  140.0399  157.1749 H   0  0  0  0  0  0  0  0  0  0  0  0  # atno 8010 bound_to 7997
  139.6497  144.0107  152.2152 H   0  0  0  0  0  0  0  0  0  0  0  0  # atno 10167 bound_to 10162
  157.4191  130.7958  149.7498 H   0  0  0  0  0  0  0  0  0  0  0  0  # atno 10718 bound_to 10713
  154.6452  135.5375  153.7836 H   0  0  0  0  0  0  0  0  0  0  0  0  # atno 10763 bound_to 10752
  153.0355  135.6469  154.1099 H   0  0  0  0  0  0  0  0  0  0  0  0  # atno 10764 bound_to 10752
  154.1021  135.2932  155.3229 H   0  0  0  0  0  0  0  0  0  0  0  0  # atno 10765 bound_to 10752
  141.1586  133.6807  156.6850 H   0  0  0  0  0  0  0  0  0  0  0  0  # atno 11005 bound_to 11000
  144.9428  139.4170  143.6441 LP  0  0  0  0  0  0  0  0  0  0  0  0  # atno 17320 bound_to 7965
  146.3278  139.8396  142.8893 LP  0  0  0  0  0  0  0  0  0  0  0  0  # atno 17321 bound_to 7965
  139.9818  144.6423  150.7894 LP  0  0  0  0  0  0  0  0  0  0  0  0  # atno 17342 bound_to 10162
  140.7531  143.3003  151.3097 LP  0  0  0  0  0  0  0  0  0  0  0  0  # atno 17343 bound_to 10162
  155.9874  130.3967  150.3164 LP  0  0  0  0  0  0  0  0  0  0  0  0  # atno 17370 bound_to 10713
  157.1310  131.0272  151.2969 LP  0  0  0  0  0  0  0  0  0  0  0  0  # atno 17371 bound_to 10713
  140.3073  134.8115  157.4147 LP  0  0  0  0  0  0  0  0  0  0  0  0  # atno 17394 bound_to 11000
  140.1209  134.5221  155.8185 LP  0  0  0  0  0  0  0  0  0  0  0  0  # atno 17395 bound_to 11000

$$$$
