AV-unprocessed.smi:3043|AV-procd|sdf|11603|dock3
  -GOLD-   2272016583D 1   1.00000     0.00000
 Structure written by MMmdl.
 44 45  0  0  0  0  0  0  0  0  2 V2000
  153.2109  143.5331  162.8530 C   0  0  0  0  0  0  0  0  0  0  0  0
  153.4257  142.4234  161.8211 C   0  0  0  0  0  0  0  0  0  0  0  0
  153.7793  141.3168  162.2280 O   0  0  0  0  0  0  0  0  0  0  0  0
  153.2186  142.6885  160.5087 N   0  0  0  0  0  0  0  0  0  0  0  0
  153.3346  141.6634  159.4647 C   0  0  0  0  0  0  0  0  0  0  0  0
  151.9326  141.3609  158.9060 C   0  0  0  0  0  0  0  0  0  0  0  0
  151.2514  142.6395  158.3694 C   0  0  0  0  0  0  0  0  0  0  0  0
  149.8176  142.3466  157.8913 C   0  0  0  0  0  0  0  0  0  0  0  0
  149.7917  141.9627  156.4633 N   0  3  0  0  0  0  0  0  0  0  0  0
  148.8154  140.9099  156.1042 C   0  0  2  0  0  0  0  0  0  0  0  0
  148.5981  139.9369  157.2799 C   0  0  0  0  0  0  0  0  0  0  0  0
  149.2920  140.1967  154.8221 C   0  0  0  0  0  0  0  0  0  0  0  0
  150.3098  139.1921  155.0750 N   0  0  0  0  0  0  0  0  0  0  0  0
  150.2653  137.8407  154.8040 C   0  0  0  0  0  0  0  0  0  0  0  0
  151.4508  137.3044  155.2183 C   0  0  0  0  0  0  0  0  0  0  0  0
  152.1666  138.4219  155.7320 C   0  0  0  0  0  0  0  0  0  0  0  0
  151.4813  139.5505  155.6433 N   0  0  0  0  0  0  0  0  0  0  0  0
  151.3017  143.7624  159.4326 C   0  0  0  0  0  0  0  0  0  0  0  0
  152.7321  143.9627  159.9651 C   0  0  0  0  0  0  0  0  0  0  0  0
  152.1901  143.9135  162.8072 H   0  0  0  0  0  0  0  0  0  0  0  0
  153.9059  144.3565  162.6863 H   0  0  0  0  0  0  0  0  0  0  0  0
  153.3786  143.1554  163.8621 H   0  0  0  0  0  0  0  0  0  0  0  0
  153.9865  142.0287  158.6698 H   0  0  0  0  0  0  0  0  0  0  0  0
  153.7954  140.7426  159.8251 H   0  0  0  0  0  0  0  0  0  0  0  0
  152.0074  140.6150  158.1139 H   0  0  0  0  0  0  0  0  0  0  0  0
  151.3197  140.9158  159.6914 H   0  0  0  0  0  0  0  0  0  0  0  0
  151.8311  142.9723  157.5064 H   0  0  0  0  0  0  0  0  0  0  0  0
  149.3978  141.5363  158.4870 H   0  0  0  0  0  0  0  0  0  0  0  0
  149.1820  143.2191  158.0495 H   0  0  0  0  0  0  0  0  0  0  0  0
  149.5534  142.7920  155.9384 H   0  0  0  0  0  0  0  0  0  0  0  0
  147.8649  141.3950  155.8765 H   0  0  0  0  0  0  0  0  0  0  0  0
  147.8424  139.1873  157.0441 H   0  0  0  0  0  0  0  0  0  0  0  0
  148.2559  140.4515  158.1771 H   0  0  0  0  0  0  0  0  0  0  0  0
  149.5191  139.4097  157.5303 H   0  0  0  0  0  0  0  0  0  0  0  0
  148.4510  139.7047  154.3314 H   0  0  0  0  0  0  0  0  0  0  0  0
  149.6843  140.9231  154.1077 H   0  0  0  0  0  0  0  0  0  0  0  0
  149.4034  137.3778  154.3460 H   0  0  0  0  0  0  0  0  0  0  0  0
  151.7608  136.2713  155.1619 H   0  0  0  0  0  0  0  0  0  0  0  0
  153.1566  138.4464  156.1634 H   0  0  0  0  0  0  0  0  0  0  0  0
  150.9371  144.7000  159.0123 H   0  0  0  0  0  0  0  0  0  0  0  0
  150.6389  143.5175  160.2639 H   0  0  0  0  0  0  0  0  0  0  0  0
  152.7475  144.7794  160.6852 H   0  0  0  0  0  0  0  0  0  0  0  0
  153.3902  144.2797  159.1547 H   0  0  0  0  0  0  0  0  0  0  0  0
  150.7134  141.6605  156.1815 H   0  0  0  0  0  0  0  0  0  0  0  0
  1  2  1  0  0  0  0
  1 20  1  0  0  0  0
  1 21  1  0  0  0  0
  1 22  1  0  0  0  0
  2  3  2  0  0  0  0
  2  4  1  0  0  0  0
  4 19  1  0  0  0  0
  4  5  1  0  0  0  0
  5  6  1  0  0  0  0
  5 23  1  0  0  0  0
  5 24  1  0  0  0  0
  6  7  1  0  0  0  0
  6 25  1  0  0  0  0
  6 26  1  0  0  0  0
  7  8  1  0  0  0  0
  7 18  1  0  0  0  0
  7 27  1  0  0  0  0
  8  9  1  0  0  0  0
  8 28  1  0  0  0  0
  8 29  1  0  0  0  0
  9 10  1  0  0  0  0
  9 30  1  0  0  0  0
  9 44  1  0  0  0  0
 10 11  1  0  0  0  0
 10 12  1  0  0  0  0
 10 31  1  0  0  0  0
 11 32  1  0  0  0  0
 11 33  1  0  0  0  0
 11 34  1  0  0  0  0
 12 13  1  0  0  0  0
 12 35  1  0  0  0  0
 12 36  1  0  0  0  0
 13 17  1  0  0  0  0
 13 14  1  0  0  0  0
 14 15  2  0  0  0  0
 14 37  1  0  0  0  0
 15 16  1  0  0  0  0
 15 38  1  0  0  0  0
 16 17  2  0  0  0  0
 16 39  1  0  0  0  0
 18 19  1  0  0  0  0
 18 40  1  0  0  0  0
 18 41  1  0  0  0  0
 19 42  1  0  0  0  0
 19 43  1  0  0  0  0
M  CHG  1   9   1
M  END
> <s_m_source_file>
AV-unprocessed.smi

> <i_m_source_file_index>
3043

> <i_lp_mmshare_version>
43012

> <i_f3d_flags>
0

> <s_epik_input>
W0NIM11DKD1PKU4xW0NIMl1bQ0gyXVtDSF0oW0NIMl1bQ0gyXTEpW0NIMl1bTkhdW0NASF0oW0NIM10pW0NIMl1uMltjSF1bY0hdW2NIXW4y

> <s_epik_cmdline>
J2VwaWtfcHl0aG9uJywgJy1waCcsICc3LjAnLCAnLXRuJywgJzgnLCAnLW1hJywgJzIwMCcsICctbWV0YWxfYmluZGluZycsICctaW1hZScsICc8aW5maWxlLm1hZT4nLCAnLW9tYWUnLCAnPG91dGZpbGUubWFlPic=

> <r_lp_tautomer_probability>
1

> <r_epik_Ionization_Penalty>
0.00300549

> <r_epik_Ionization_Penalty_Charging>
0.00299781

> <r_epik_Ionization_Penalty_Neutral>
7.6831e-06

> <r_epik_State_Penalty>
0.00210473

> <r_epik_Charging_Adjusted_Penalty>
0.00510254

> <i_epik_Tot_Q>
1

> <i_epik_Tot_abs_Q>
1

> <r_epik_Metal_State_Penalty>
-0

> <b_epik_Metal_Only>
0

> <s_lp_Force_Field>
OPLS_2005

> <r_lp_Energy>
29.3743

> <b_lp_Chiralities_Consistent>
1

> <s_lp_Variant>
AV-unprocessed.smi:3043-1

> <Gold.Version>
5.8.1

> <Gold.Id.Protein>
6NUR|6NUR_protein|mol2

> <Gold.PLP.Fitness>
52.6203

> <Gold.PLP.PLP>
-45.8869

> <Gold.PLP.part.hbond>
-2.0000

> <Gold.PLP.part.metal>
0.0000

> <Gold.PLP.part.buried>
-5.8232

> <Gold.PLP.part.nonpolar>
-37.5095

> <Gold.PLP.part.repulsive>
0.0897

> <Gold.PLP.ligand.clash>
0.0000

> <Gold.PLP.ligand.torsion>
1.1552

> <Gold.PLP.Chemscore.Hbond>
2.0000

> <Gold.PLP.Chemscore.CHOScore>
1.0000

> <Gold.PLP.Chemscore.Metal>
0.0000

> <Gold.Chemscore.Hbonds>
donor molecule, donor type, donor heavy atom, donor atom, acceptor molecule, acceptor atom, score
      L1  H     9    30       P1  8028  1.85
      L1  C    14    37       P1  7948  0.45

> <Gold.PLP.Chemscore.Internal.Correction>
0.0439

> <Gold.Rescore>
     Score         DG    S(hbond)    S(metal)    S(lipo)     H(rot)  DE(clash)    DE(int)     intcor
     15.40     -16.67       1.00        0.00     105.28       1.74       0.02       1.26       ----

> <Gold.Chemscore.Fitness>
15.3968

> <Gold.Chemscore.DG>
-16.6708

> <Gold.Chemscore.ZeroCoef>
-5.4800

> <Gold.Chemscore.Hbond>
0.9978

> <Gold.Chemscore.Metal>
0.0000

> <Gold.Chemscore.Lipo>
105.2825

> <Gold.Chemscore.Internal_Hbond>
0.0000

> <Gold.Chemscore.DEClash>
0.0166

> <Gold.Chemscore.DEInternal>
1.2575

> <Gold.Chemscore.Rot>
1.7422

> <Gold.Chemscore.Internal.Correction>
   9.000000E+99

> <Gold.Chemscore.Hbonds>
donor molecule, donor type, donor heavy atom, donor atom, acceptor molecule, acceptor atom, score
      L1  H     9    30       P1  8028  0.87

> <Gold.Chemscore.Hbond.Weighted>
-3.3327

> <Gold.Chemscore.Metal.Weighted>
-0.0000

> <Gold.Chemscore.Lipo.Weighted>
-12.3181

> <Gold.Chemscore.Internal_Hbond.Weighted>
0.0000

> <Gold.Chemscore.DEClash.Weighted>
0.0166

> <Gold.Chemscore.DEInternal.Weighted>
1.2575

> <Gold.Chemscore.Rot.Weighted>
4.4600

> <Gold.Chemscore.Internal.Correction.Weighted>
   9.000000E+99

> <Gold.Protein.RotatedTorsions>
[ 6907 6896 6895 6894 ] final   38.11 input  -60.11 | X-H torsion
[ 7974 7965 7964 7962 ] final  166.89 input  175.53 | X-H torsion
[ 8008 7997 7996 7995 ] final   40.25 input   59.86 | X-H torsion
[ 10167 10162 10161 10158 ] final  101.54 input  -65.29 | X-H torsion
[ 10718 10713 10712 10709 ] final -117.75 input   66.30 | X-H torsion
[ 10763 10752 10751 10750 ] final  -25.22 input  -60.55 | X-H torsion
[ 11005 11000 10999 10996 ] final  111.13 input  -57.11 | X-H torsion

> <Gold.Protein.ActiveResidues>
 VAL166  LYS551  ARG553  GLY616  TRP617  ASP618  TYR619  PRO620  LYS621  CYS622 
 ASP623  PHE694  ASN695  SER759  ASP760  ASP761  ALA762  ILE779  LEU786  VAL792 
 PHE793  MET794  SER795  GLU796  ALA797  LYS798  CYS799  TRP800  GLU811  SER814 

> <Gold.Protein.RotatedAtoms>
  152.1522  134.8979  160.0547 H   0  0  0  0  0  0  0  0  0  0  0  0  # atno 6907 bound_to 6896
  152.0007  133.3819  159.4189 H   0  0  0  0  0  0  0  0  0  0  0  0  # atno 6908 bound_to 6896
  150.6877  134.3759  159.5056 H   0  0  0  0  0  0  0  0  0  0  0  0  # atno 6909 bound_to 6896
  144.7445  139.8681  143.6386 H   0  0  0  0  0  0  0  0  0  0  0  0  # atno 7974 bound_to 7965
  155.2500  140.3352  155.4283 H   0  0  0  0  0  0  0  0  0  0  0  0  # atno 8008 bound_to 7997
  156.2219  140.1813  156.7499 H   0  0  0  0  0  0  0  0  0  0  0  0  # atno 8009 bound_to 7997
  154.5839  140.0649  156.9128 H   0  0  0  0  0  0  0  0  0  0  0  0  # atno 8010 bound_to 7997
  139.7428  144.7006  151.0549 H   0  0  0  0  0  0  0  0  0  0  0  0  # atno 10167 bound_to 10162
  156.1056  130.6208  150.9204 H   0  0  0  0  0  0  0  0  0  0  0  0  # atno 10718 bound_to 10713
  153.6964  135.6959  153.5075 H   0  0  0  0  0  0  0  0  0  0  0  0  # atno 10763 bound_to 10752
  153.2375  135.4317  155.0661 H   0  0  0  0  0  0  0  0  0  0  0  0  # atno 10764 bound_to 10752
  154.8357  135.3499  154.6504 H   0  0  0  0  0  0  0  0  0  0  0  0  # atno 10765 bound_to 10752
  139.8897  134.9501  156.6385 H   0  0  0  0  0  0  0  0  0  0  0  0  # atno 11005 bound_to 11000
  146.1300  139.4333  143.0175 LP  0  0  0  0  0  0  0  0  0  0  0  0  # atno 17320 bound_to 7965
  145.7177  141.0085  143.1419 LP  0  0  0  0  0  0  0  0  0  0  0  0  # atno 17321 bound_to 7965
  140.7788  143.4903  150.9902 LP  0  0  0  0  0  0  0  0  0  0  0  0  # atno 17342 bound_to 10162
  139.8591  143.7338  152.3174 LP  0  0  0  0  0  0  0  0  0  0  0  0  # atno 17343 bound_to 10162
  157.6233  131.0928  150.8582 LP  0  0  0  0  0  0  0  0  0  0  0  0  # atno 17370 bound_to 10713
  156.8702  130.5143  149.5297 LP  0  0  0  0  0  0  0  0  0  0  0  0  # atno 17371 bound_to 10713
  140.7612  133.8816  155.8419 LP  0  0  0  0  0  0  0  0  0  0  0  0  # atno 17394 bound_to 11000
  140.9920  134.1265  157.4399 LP  0  0  0  0  0  0  0  0  0  0  0  0  # atno 17395 bound_to 11000

$$$$
