AV-unprocessed.smi:215|AV-procd|sdf|1657|dock1
  -GOLD-   2262020 53D 1   1.00000     0.00000
 Structure written by MMmdl.
 59 62  0  0  0  0  0  0  0  0  2 V2000
  153.5877  136.2335  163.6280 C   0  0  0  0  0  0  0  0  0  0  0  0
  154.6913  136.3036  162.5485 C   0  0  1  0  0  0  0  0  0  0  0  0
  155.6011  135.0577  162.5049 C   0  0  1  0  0  0  0  0  0  0  0  0
  156.0608  134.5576  163.8351 N   0  3  1  0  0  0  0  0  0  0  0  0
  156.8819  133.3244  163.7286 C   0  0  0  0  0  0  0  0  0  0  0  0
  156.7428  135.6114  164.6374 C   0  0  0  0  0  0  0  0  0  0  0  0
  157.2800  135.0945  165.9852 C   0  0  0  0  0  0  0  0  0  0  0  0
  156.2988  134.3194  166.6399 O   0  0  0  0  0  0  0  0  0  0  0  0
  154.7573  134.0708  161.6802 C   0  0  0  0  0  0  0  0  0  0  0  0
  154.0081  134.9644  160.6840 C   0  0  0  0  0  0  0  0  0  0  0  0
  154.1159  136.3211  161.2102 N   0  0  0  0  0  0  0  0  0  0  0  0
  153.3854  137.3522  160.7047 C   0  0  0  0  0  0  0  0  0  0  0  0
  152.3069  137.0539  159.9327 N   0  0  0  0  0  0  0  0  0  0  0  0
  151.5467  138.0234  159.4172 C   0  0  0  0  0  0  0  0  0  0  0  0
  151.6870  139.3435  159.5370 N   0  0  0  0  0  0  0  0  0  0  0  0
  152.7759  139.6577  160.2946 C   0  0  0  0  0  0  0  0  0  0  0  0
  153.6700  138.7360  160.9144 C   0  0  0  0  0  0  0  0  0  0  0  0
  154.6497  139.4397  161.6075 N   0  0  0  0  0  0  0  0  0  0  0  0
  154.3458  140.6943  161.4211 C   0  0  0  0  0  0  0  0  0  0  0  0
  153.2501  140.9166  160.6201 N   0  0  0  0  0  0  0  0  0  0  0  0
  152.6765  142.1870  160.2849 C   0  0  0  0  0  0  0  0  0  0  0  0
  151.5471  142.3001  159.2581 C   0  0  0  0  0  0  0  0  0  0  0  0
  152.0803  143.6879  158.8358 C   0  0  0  0  0  0  0  0  0  0  0  0
  152.0374  143.9495  157.3201 C   0  0  0  0  0  0  0  0  0  0  0  0
  150.8039  143.5619  156.7511 O   0  0  0  0  0  0  0  0  0  0  0  0
  151.4107  144.8654  159.5757 C   0  0  0  0  0  0  0  0  0  0  0  0
  152.1566  146.0605  159.4674 O   0  0  0  0  0  0  0  0  0  0  0  0
  153.4279  143.1904  159.4077 C   0  0  0  0  0  0  0  0  0  0  0  0
  155.3077  137.1877  162.7003 H   0  0  0  0  0  0  0  0  0  0  0  0
  156.4880  135.3016  161.9161 H   0  0  0  0  0  0  0  0  0  0  0  0
  154.0109  136.2352  164.6310 H   0  0  0  0  0  0  0  0  0  0  0  0
  152.9734  135.3387  163.5279 H   0  0  0  0  0  0  0  0  0  0  0  0
  152.9191  137.0920  163.5688 H   0  0  0  0  0  0  0  0  0  0  0  0
  157.7652  133.4978  163.1127 H   0  0  0  0  0  0  0  0  0  0  0  0
  156.3153  132.5047  163.2878 H   0  0  0  0  0  0  0  0  0  0  0  0
  157.2160  132.9726  164.7031 H   0  0  0  0  0  0  0  0  0  0  0  0
  157.5564  136.0386  164.0492 H   0  0  0  0  0  0  0  0  0  0  0  0
  156.0642  136.4373  164.8480 H   0  0  0  0  0  0  0  0  0  0  0  0
  158.1948  134.5139  165.8773 H   0  0  0  0  0  0  0  0  0  0  0  0
  157.5241  135.9406  166.6282 H   0  0  0  0  0  0  0  0  0  0  0  0
  156.6599  133.9984  167.4529 H   0  0  0  0  0  0  0  0  0  0  0  0
  155.3586  133.3128  161.1771 H   0  0  0  0  0  0  0  0  0  0  0  0
  154.0367  133.5570  162.3181 H   0  0  0  0  0  0  0  0  0  0  0  0
  154.4786  134.9255  159.7008 H   0  0  0  0  0  0  0  0  0  0  0  0
  152.9692  134.6491  160.5800 H   0  0  0  0  0  0  0  0  0  0  0  0
  150.7064  137.6942  158.8238 H   0  0  0  0  0  0  0  0  0  0  0  0
  154.9217  141.4960  161.8605 H   0  0  0  0  0  0  0  0  0  0  0  0
  152.3863  142.6446  161.2321 H   0  0  0  0  0  0  0  0  0  0  0  0
  151.6282  141.5476  158.4713 H   0  0  0  0  0  0  0  0  0  0  0  0
  150.5452  142.3028  159.6887 H   0  0  0  0  0  0  0  0  0  0  0  0
  152.1724  145.0103  157.1067 H   0  0  0  0  0  0  0  0  0  0  0  0
  152.8451  143.4289  156.8046 H   0  0  0  0  0  0  0  0  0  0  0  0
  150.3496  144.3371  156.4591 H   0  0  0  0  0  0  0  0  0  0  0  0
  150.4049  145.0468  159.1960 H   0  0  0  0  0  0  0  0  0  0  0  0
  151.2956  144.6484  160.6379 H   0  0  0  0  0  0  0  0  0  0  0  0
  152.9682  145.9528  159.9389 H   0  0  0  0  0  0  0  0  0  0  0  0
  153.9994  143.9347  159.9630 H   0  0  0  0  0  0  0  0  0  0  0  0
  154.0513  142.7046  158.6542 H   0  0  0  0  0  0  0  0  0  0  0  0
  155.2244  134.3089  164.3448 H   0  0  0  0  0  0  0  0  0  0  0  0
  1  2  1  0  0  0  0
  1 31  1  0  0  0  0
  1 32  1  0  0  0  0
  1 33  1  0  0  0  0
  2 29  1  0  0  0  0
  2 11  1  0  0  0  0
  2  3  1  0  0  0  0
  3 30  1  0  0  0  0
  3  4  1  0  0  0  0
  3  9  1  0  0  0  0
  4  5  1  0  0  0  0
  4  6  1  0  0  0  0
  4 59  1  0  0  0  0
  5 34  1  0  0  0  0
  5 35  1  0  0  0  0
  5 36  1  0  0  0  0
  6  7  1  0  0  0  0
  6 37  1  0  0  0  0
  6 38  1  0  0  0  0
  7  8  1  0  0  0  0
  7 39  1  0  0  0  0
  7 40  1  0  0  0  0
  8 41  1  0  0  0  0
  9 10  1  0  0  0  0
  9 42  1  0  0  0  0
  9 43  1  0  0  0  0
 10 11  1  0  0  0  0
 10 44  1  0  0  0  0
 10 45  1  0  0  0  0
 11 12  1  0  0  0  0
 12 17  1  0  0  0  0
 12 13  2  0  0  0  0
 13 14  1  0  0  0  0
 14 15  2  0  0  0  0
 14 46  1  0  0  0  0
 15 16  1  0  0  0  0
 16 20  1  0  0  0  0
 16 17  2  0  0  0  0
 17 18  1  0  0  0  0
 18 19  2  0  0  0  0
 19 20  1  0  0  0  0
 19 47  1  0  0  0  0
 20 21  1  0  0  0  0
 21 28  1  0  0  0  0
 21 22  1  0  0  0  0
 21 48  1  0  0  0  0
 22 23  1  0  0  0  0
 22 49  1  0  0  0  0
 22 50  1  0  0  0  0
 23 24  1  0  0  0  0
 23 26  1  0  0  0  0
 23 28  1  0  0  0  0
 24 25  1  0  0  0  0
 24 51  1  0  0  0  0
 24 52  1  0  0  0  0
 25 53  1  0  0  0  0
 26 27  1  0  0  0  0
 26 54  1  0  0  0  0
 26 55  1  0  0  0  0
 27 56  1  0  0  0  0
 28 57  1  0  0  0  0
 28 58  1  0  0  0  0
M  CHG  1   4   1
M  END
> <s_m_source_file>
AV-unprocessed.smi

> <i_m_source_file_index>
215

> <i_lp_mmshare_version>
43012

> <i_f3d_flags>
0

> <s_epik_input>
W09IXVtDSDJdW0NIMl1OKFtDSDNdKVtDQEBIXShbQ0BIXTFbQ0gzXSlbQ0gyXVtDSDJdTjFjKG5bY0hdbjIpYyhjMjMpbltjSF1uM1tDSF0oW0NIMl00KVtDSDJdQzQoW0NIMl1bT0hdKVtDSDJdW09IXQ==

> <s_epik_cmdline>
J2VwaWtfcHl0aG9uJywgJy1waCcsICc3LjAnLCAnLXRuJywgJzgnLCAnLW1hJywgJzIwMCcsICctbWV0YWxfYmluZGluZycsICctaW1hZScsICc8aW5maWxlLm1hZT4nLCAnLW9tYWUnLCAnPG91dGZpbGUubWFlPic=

> <r_lp_tautomer_probability>
1

> <r_epik_Ionization_Penalty>
0.0036237

> <r_epik_Ionization_Penalty_Charging>
0.0032725

> <r_epik_Ionization_Penalty_Neutral>
0.000351196

> <r_epik_State_Penalty>
-0

> <r_epik_Charging_Adjusted_Penalty>
0.0032725

> <i_epik_Tot_Q>
1

> <i_epik_Tot_abs_Q>
1

> <r_epik_Metal_State_Penalty>
-0

> <b_epik_Metal_Only>
0

> <s_lp_Force_Field>
OPLS_2005

> <r_lp_Energy>
65.1718

> <b_lp_Chiralities_Consistent>
1

> <s_lp_Variant>
AV-unprocessed.smi:215-8

> <Gold.Version>
5.8.1

> <Gold.Id.Protein>
6NUR|6NUR_protein|mol2

> <Gold.PLP.Fitness>
48.5734

> <Gold.PLP.PLP>
-44.5464

> <Gold.PLP.part.hbond>
-3.7500

> <Gold.PLP.part.metal>
0.0000

> <Gold.PLP.part.buried>
-7.6061

> <Gold.PLP.part.nonpolar>
-35.5233

> <Gold.PLP.part.repulsive>
0.0000

> <Gold.PLP.ligand.clash>
0.0000

> <Gold.PLP.ligand.torsion>
1.1070

> <Gold.PLP.Chemscore.Hbond>
1.8125

> <Gold.PLP.Chemscore.CHOScore>
0.0000

> <Gold.PLP.Chemscore.Metal>
0.0000

> <Gold.Chemscore.Hbonds>
donor molecule, donor type, donor heavy atom, donor atom, acceptor molecule, acceptor atom, score
      L1  H    25    53       P1  8028  0.78
      P1  H  6896  6908       L1    13  1.00

> <Gold.PLP.Chemscore.Internal.Correction>
0.8035

> <Gold.Rescore>
     Score         DG    S(hbond)    S(metal)    S(lipo)     H(rot)  DE(clash)    DE(int)     intcor
      8.42     -11.15       1.87        0.00      93.09       4.48       0.37       2.36       ----

> <Gold.Chemscore.Fitness>
8.4179

> <Gold.Chemscore.DG>
-11.1461

> <Gold.Chemscore.ZeroCoef>
-5.4800

> <Gold.Chemscore.Hbond>
1.8681

> <Gold.Chemscore.Metal>
0.0000

> <Gold.Chemscore.Lipo>
93.0946

> <Gold.Chemscore.Internal_Hbond>
0.0000

> <Gold.Chemscore.DEClash>
0.3677

> <Gold.Chemscore.DEInternal>
2.3604

> <Gold.Chemscore.Rot>
4.4787

> <Gold.Chemscore.Internal.Correction>
   9.000000E+99

> <Gold.Chemscore.Hbonds>
donor molecule, donor type, donor heavy atom, donor atom, acceptor molecule, acceptor atom, score
      L1  H    25    53       P1  8028  0.79
      P1  H  6896  6908       L1    13  0.67

> <Gold.Chemscore.Hbond.Weighted>
-6.2395

> <Gold.Chemscore.Metal.Weighted>
-0.0000

> <Gold.Chemscore.Lipo.Weighted>
-10.8921

> <Gold.Chemscore.Internal_Hbond.Weighted>
0.0000

> <Gold.Chemscore.DEClash.Weighted>
0.3677

> <Gold.Chemscore.DEInternal.Weighted>
2.3604

> <Gold.Chemscore.Rot.Weighted>
11.4655

> <Gold.Chemscore.Internal.Correction.Weighted>
   9.000000E+99

> <Gold.Protein.RotatedTorsions>
[ 6907 6896 6895 6894 ] final  -96.12 input  -60.11 | X-H torsion
[ 7974 7965 7964 7962 ] final -102.09 input  175.53 | X-H torsion
[ 8008 7997 7996 7995 ] final  -51.21 input   59.86 | X-H torsion
[ 10167 10162 10161 10158 ] final  -75.91 input  -65.29 | X-H torsion
[ 10718 10713 10712 10709 ] final  121.91 input   66.30 | X-H torsion
[ 10763 10752 10751 10750 ] final   78.37 input  -60.55 | X-H torsion
[ 11005 11000 10999 10996 ] final  103.97 input  -57.11 | X-H torsion

> <Gold.Protein.ActiveResidues>
 VAL166  LYS551  ARG553  GLY616  TRP617  ASP618  TYR619  PRO620  LYS621  CYS622 
 ASP623  PHE694  ASN695  SER759  ASP760  ASP761  ALA762  ILE779  LEU786  VAL792 
 PHE793  MET794  SER795  GLU796  ALA797  LYS798  CYS799  TRP800  GLU811  SER814 

> <Gold.Protein.RotatedAtoms>
  150.6980  134.1552  159.4155 H   0  0  0  0  0  0  0  0  0  0  0  0  # atno 6907 bound_to 6896
  151.9533  135.0156  160.0552 H   0  0  0  0  0  0  0  0  0  0  0  0  # atno 6908 bound_to 6896
  152.1991  133.4793  159.5086 H   0  0  0  0  0  0  0  0  0  0  0  0  # atno 6909 bound_to 6896
  145.2731  140.9304  143.2975 H   0  0  0  0  0  0  0  0  0  0  0  0  # atno 7974 bound_to 7965
  154.4078  140.1253  156.4791 H   0  0  0  0  0  0  0  0  0  0  0  0  # atno 8008 bound_to 7997
  155.7103  140.3494  155.4951 H   0  0  0  0  0  0  0  0  0  0  0  0  # atno 8009 bound_to 7997
  155.9307  140.1069  157.1125 H   0  0  0  0  0  0  0  0  0  0  0  0  # atno 8010 bound_to 7997
  140.4902  143.2382  151.7918 H   0  0  0  0  0  0  0  0  0  0  0  0  # atno 10167 bound_to 10162
  157.5782  131.1077  150.8237 H   0  0  0  0  0  0  0  0  0  0  0  0  # atno 10718 bound_to 10713
  153.0869  135.4879  154.8614 H   0  0  0  0  0  0  0  0  0  0  0  0  # atno 10763 bound_to 10752
  154.7221  135.3042  154.9032 H   0  0  0  0  0  0  0  0  0  0  0  0  # atno 10764 bound_to 10752
  153.9693  135.6803  153.4800 H   0  0  0  0  0  0  0  0  0  0  0  0  # atno 10765 bound_to 10752
  139.8788  134.9283  156.5291 H   0  0  0  0  0  0  0  0  0  0  0  0  # atno 11005 bound_to 11000
  144.9317  139.4290  143.6492 LP  0  0  0  0  0  0  0  0  0  0  0  0  # atno 17320 bound_to 7965
  146.3240  139.8232  142.8923 LP  0  0  0  0  0  0  0  0  0  0  0  0  # atno 17321 bound_to 7965
  139.4850  144.4659  151.9485 LP  0  0  0  0  0  0  0  0  0  0  0  0  # atno 17342 bound_to 10162
  140.3745  144.2814  150.5916 LP  0  0  0  0  0  0  0  0  0  0  0  0  # atno 17343 bound_to 10162
  156.8691  130.5139  149.5298 LP  0  0  0  0  0  0  0  0  0  0  0  0  # atno 17370 bound_to 10713
  156.0827  130.5834  150.9593 LP  0  0  0  0  0  0  0  0  0  0  0  0  # atno 17371 bound_to 10713
  140.8394  133.8217  155.9060 LP  0  0  0  0  0  0  0  0  0  0  0  0  # atno 17394 bound_to 11000
  140.9252  134.2092  157.4900 LP  0  0  0  0  0  0  0  0  0  0  0  0  # atno 17395 bound_to 11000

$$$$
