AV-unprocessed.smi:1715|AV-procd|sdf|6910|dock2
  -GOLD-   22720 8113D 1   1.00000     0.00000
 Structure written by MMmdl.
 40 41  0  0  0  0  0  0  0  0  1 V2000
  145.5583  132.7210  150.1343 C   0  0  0  0  0  0  0  0  0  0  0  0
  145.9291  132.1672  151.5141 C   0  0  2  0  0  0  0  0  0  0  0  0
  147.3648  132.5432  151.9265 C   0  0  0  0  0  0  0  0  0  0  0  0
  147.7397  131.9531  153.2067 N   0  0  0  0  0  0  0  0  0  0  0  0
  149.1017  132.3330  153.5770 C   0  0  0  0  0  0  0  0  0  0  0  0
  149.2046  133.3041  154.7681 C   0  0  0  0  0  0  0  0  0  0  0  0
  149.4380  134.6711  154.3188 N   0  0  0  0  0  0  0  0  0  0  0  0
  150.1963  135.5723  154.9588 C   0  0  0  0  0  0  0  0  0  0  0  0
  150.7869  135.3394  156.0137 O   0  0  0  0  0  0  0  0  0  0  0  0
  150.2201  136.7440  154.3026 N   0  0  0  0  0  0  0  0  0  0  0  0
  150.9141  137.9238  154.6723 C   0  0  0  0  0  0  0  0  0  0  0  0
  150.5725  139.2331  154.2375 C   0  0  0  0  0  0  0  0  0  0  0  0
  151.3965  140.1407  154.7413 N   0  0  0  0  0  0  0  0  0  0  0  0
  152.2612  139.4229  155.4933 N   0  0  0  0  0  0  0  0  0  0  0  0
  152.0058  138.0694  155.4817 C   0  0  0  0  0  0  0  0  0  0  0  0
  147.5604  130.5052  153.1300 C   0  0  0  0  0  0  0  0  0  0  0  0
  146.1265  130.1221  152.7151 C   0  0  2  0  0  0  0  0  0  0  0  0
  145.9564  128.6085  152.5478 C   0  0  0  0  0  0  0  0  0  0  0  0
  145.8157  130.7474  151.4730 O   0  0  0  0  0  0  0  0  0  0  0  0
  153.0125  139.8663  156.0029 H   0  0  0  0  0  0  0  0  0  0  0  0
  145.6202  133.8094  150.1190 H   0  0  0  0  0  0  0  0  0  0  0  0
  144.5396  132.4422  149.8636 H   0  0  0  0  0  0  0  0  0  0  0  0
  146.2255  132.3366  149.3622 H   0  0  0  0  0  0  0  0  0  0  0  0
  145.2235  132.5577  152.2493 H   0  0  0  0  0  0  0  0  0  0  0  0
  148.0617  132.2169  151.1525 H   0  0  0  0  0  0  0  0  0  0  0  0
  147.4494  133.6291  151.9833 H   0  0  0  0  0  0  0  0  0  0  0  0
  149.6905  131.4378  153.7830 H   0  0  0  0  0  0  0  0  0  0  0  0
  149.5739  132.8094  152.7165 H   0  0  0  0  0  0  0  0  0  0  0  0
  148.3010  133.2584  155.3785 H   0  0  0  0  0  0  0  0  0  0  0  0
  150.0352  133.0331  155.4188 H   0  0  0  0  0  0  0  0  0  0  0  0
  148.9901  134.9497  153.4582 H   0  0  0  0  0  0  0  0  0  0  0  0
  149.6861  136.7982  153.4478 H   0  0  0  0  0  0  0  0  0  0  0  0
  149.7705  139.5486  153.5866 H   0  0  0  0  0  0  0  0  0  0  0  0
  152.6073  137.3624  156.0335 H   0  0  0  0  0  0  0  0  0  0  0  0
  148.2703  130.0834  152.4167 H   0  0  0  0  0  0  0  0  0  0  0  0
  147.7762  130.0466  154.0944 H   0  0  0  0  0  0  0  0  0  0  0  0
  145.4223  130.4719  153.4719 H   0  0  0  0  0  0  0  0  0  0  0  0
  146.1719  128.0834  153.4788 H   0  0  0  0  0  0  0  0  0  0  0  0
  146.6253  128.2185  151.7801 H   0  0  0  0  0  0  0  0  0  0  0  0
  144.9352  128.3619  152.2563 H   0  0  0  0  0  0  0  0  0  0  0  0
  1  2  1  0  0  0  0
  1 21  1  0  0  0  0
  1 22  1  0  0  0  0
  1 23  1  0  0  0  0
  2 19  1  0  0  0  0
  2  3  1  0  0  0  0
  2 24  1  0  0  0  0
  3  4  1  0  0  0  0
  3 25  1  0  0  0  0
  3 26  1  0  0  0  0
  4  5  1  0  0  0  0
  4 16  1  0  0  0  0
  5  6  1  0  0  0  0
  5 27  1  0  0  0  0
  5 28  1  0  0  0  0
  6  7  1  0  0  0  0
  6 29  1  0  0  0  0
  6 30  1  0  0  0  0
  7  8  1  0  0  0  0
  7 31  1  0  0  0  0
  8  9  2  0  0  0  0
  8 10  1  0  0  0  0
 10 11  1  0  0  0  0
 10 32  1  0  0  0  0
 11 15  2  0  0  0  0
 11 12  1  0  0  0  0
 12 13  2  0  0  0  0
 12 33  1  0  0  0  0
 13 14  1  0  0  0  0
 14 20  1  0  0  0  0
 14 15  1  0  0  0  0
 15 34  1  0  0  0  0
 16 17  1  0  0  0  0
 16 35  1  0  0  0  0
 16 36  1  0  0  0  0
 17 18  1  0  0  0  0
 17 19  1  0  0  0  0
 17 37  1  0  0  0  0
 18 38  1  0  0  0  0
 18 39  1  0  0  0  0
 18 40  1  0  0  0  0
M  END
> <s_m_source_file>
AV-unprocessed.smi

> <i_m_source_file_index>
1715

> <i_lp_mmshare_version>
43012

> <i_f3d_flags>
0

> <s_epik_input>
W0NIM11bQ0BASF0xW0NIMl1OKFtDSDJdW0NASF0oTzEpW0NIM10pW0NIMl1bQ0gyXVtOSF1DKD1PKVtOSF1jMltjSF1uW25IXVtjSF0y

> <s_epik_cmdline>
J2VwaWtfcHl0aG9uJywgJy1waCcsICc3LjAnLCAnLXRuJywgJzgnLCAnLW1hJywgJzIwMCcsICctbWV0YWxfYmluZGluZycsICctaW1hZScsICc8aW5maWxlLm1hZT4nLCAnLW9tYWUnLCAnPG91dGZpbGUubWFlPic=

> <r_lp_tautomer_probability>
0.5

> <r_epik_Ionization_Penalty>
0.242771

> <r_epik_Ionization_Penalty_Charging>
0

> <r_epik_Ionization_Penalty_Neutral>
0.242771

> <r_epik_State_Penalty>
0.233765

> <r_epik_Charging_Adjusted_Penalty>
0.233765

> <i_epik_Tot_Q>
0

> <i_epik_Tot_abs_Q>
0

> <r_epik_Metal_State_Penalty>
0.233764

> <b_epik_Metal_Only>
0

> <s_lp_Force_Field>
OPLS_2005

> <r_lp_Energy>
21.5882

> <b_lp_Chiralities_Consistent>
1

> <s_lp_Variant>
AV-unprocessed.smi:1715-2

> <Gold.Version>
5.8.1

> <Gold.Id.Protein>
6NUR|6NUR_protein|mol2

> <Gold.PLP.Fitness>
40.6920

> <Gold.PLP.PLP>
-31.6787

> <Gold.PLP.part.hbond>
-3.5277

> <Gold.PLP.part.metal>
0.0000

> <Gold.PLP.part.buried>
-2.7838

> <Gold.PLP.part.nonpolar>
-26.0845

> <Gold.PLP.part.repulsive>
0.5951

> <Gold.PLP.ligand.clash>
0.0000

> <Gold.PLP.ligand.torsion>
1.2840

> <Gold.PLP.Chemscore.Hbond>
2.8620

> <Gold.PLP.Chemscore.CHOScore>
0.9921

> <Gold.PLP.Chemscore.Metal>
0.0000

> <Gold.Chemscore.Hbonds>
donor molecule, donor type, donor heavy atom, donor atom, acceptor molecule, acceptor atom, score
      L1  H     7    31       P1  7948  0.94
      L1  H    10    32       P1  7948  1.00
      P1  H  7989  7998       L1    13  0.69
      L1  C    12    33       P1  7957  1.00

> <Gold.PLP.Chemscore.Internal.Correction>
0.0191

> <Gold.Rescore>
     Score         DG    S(hbond)    S(metal)    S(lipo)     H(rot)  DE(clash)    DE(int)     intcor
     12.89     -16.41       1.73        0.00      79.78       1.63       1.31       2.21       ----

> <Gold.Chemscore.Fitness>
12.8893

> <Gold.Chemscore.DG>
-16.4136

> <Gold.Chemscore.ZeroCoef>
-5.4800

> <Gold.Chemscore.Hbond>
1.7272

> <Gold.Chemscore.Metal>
0.0000

> <Gold.Chemscore.Lipo>
79.7804

> <Gold.Chemscore.Internal_Hbond>
0.0000

> <Gold.Chemscore.DEClash>
1.3107

> <Gold.Chemscore.DEInternal>
2.2136

> <Gold.Chemscore.Rot>
1.6287

> <Gold.Chemscore.Internal.Correction>
   9.000000E+99

> <Gold.Chemscore.Hbonds>
donor molecule, donor type, donor heavy atom, donor atom, acceptor molecule, acceptor atom, score
      L1  H     7    31       P1  7948  0.26
      L1  H    10    32       P1  7948  0.55
      P1  H  7989  7998       L1    13  0.12

> <Gold.Chemscore.Hbond.Weighted>
-5.7688

> <Gold.Chemscore.Metal.Weighted>
-0.0000

> <Gold.Chemscore.Lipo.Weighted>
-9.3343

> <Gold.Chemscore.Internal_Hbond.Weighted>
0.0000

> <Gold.Chemscore.DEClash.Weighted>
1.3107

> <Gold.Chemscore.DEInternal.Weighted>
2.2136

> <Gold.Chemscore.Rot.Weighted>
4.1695

> <Gold.Chemscore.Internal.Correction.Weighted>
   9.000000E+99

> <Gold.Protein.RotatedTorsions>
[ 6907 6896 6895 6894 ] final   72.48 input  -60.11 | X-H torsion
[ 7974 7965 7964 7962 ] final  -41.92 input  175.53 | X-H torsion
[ 8008 7997 7996 7995 ] final  100.47 input   59.86 | X-H torsion
[ 10167 10162 10161 10158 ] final  -32.12 input  -65.29 | X-H torsion
[ 10718 10713 10712 10709 ] final  -90.72 input   66.30 | X-H torsion
[ 10763 10752 10751 10750 ] final   13.09 input  -60.55 | X-H torsion
[ 11005 11000 10999 10996 ] final   96.48 input  -57.11 | X-H torsion

> <Gold.Protein.ActiveResidues>
 VAL166  LYS551  ARG553  GLY616  TRP617  ASP618  TYR619  PRO620  LYS621  CYS622 
 ASP623  PHE694  ASN695  SER759  ASP760  ASP761  ALA762  ILE779  LEU786  VAL792 
 PHE793  MET794  SER795  GLU796  ALA797  LYS798  CYS799  TRP800  GLU811  SER814 

> <Gold.Protein.RotatedAtoms>
  152.4870  134.4565  159.9591 H   0  0  0  0  0  0  0  0  0  0  0  0  # atno 6907 bound_to 6896
  151.4559  133.3599  159.2810 H   0  0  0  0  0  0  0  0  0  0  0  0  # atno 6908 bound_to 6896
  150.8989  134.8425  159.7407 H   0  0  0  0  0  0  0  0  0  0  0  0  # atno 6909 bound_to 6896
  146.0165  140.6902  142.9199 H   0  0  0  0  0  0  0  0  0  0  0  0  # atno 7974 bound_to 7965
  156.1206  140.3213  155.8203 H   0  0  0  0  0  0  0  0  0  0  0  0  # atno 8008 bound_to 7997
  155.4510  140.0532  157.3018 H   0  0  0  0  0  0  0  0  0  0  0  0  # atno 8009 bound_to 7997
  154.4825  140.2059  155.9744 H   0  0  0  0  0  0  0  0  0  0  0  0  # atno 8010 bound_to 7997
  140.7226  143.3718  151.1763 H   0  0  0  0  0  0  0  0  0  0  0  0  # atno 10167 bound_to 10162
  155.9989  130.4920  150.5366 H   0  0  0  0  0  0  0  0  0  0  0  0  # atno 10718 bound_to 10713
  153.1756  135.6819  153.8547 H   0  0  0  0  0  0  0  0  0  0  0  0  # atno 10763 bound_to 10752
  153.7896  135.3171  155.3378 H   0  0  0  0  0  0  0  0  0  0  0  0  # atno 10764 bound_to 10752
  154.8027  135.4768  154.0408 H   0  0  0  0  0  0  0  0  0  0  0  0  # atno 10765 bound_to 10752
  139.8781  134.8953  156.4165 H   0  0  0  0  0  0  0  0  0  0  0  0  # atno 11005 bound_to 11000
  144.6973  140.3490  143.7185 LP  0  0  0  0  0  0  0  0  0  0  0  0  # atno 17320 bound_to 7965
  145.7261  139.1723  143.2457 LP  0  0  0  0  0  0  0  0  0  0  0  0  # atno 17321 bound_to 7965
  139.7291  143.9101  152.3013 LP  0  0  0  0  0  0  0  0  0  0  0  0  # atno 17342 bound_to 10162
  139.8884  144.6979  150.8798 LP  0  0  0  0  0  0  0  0  0  0  0  0  # atno 17343 bound_to 10162
  157.3308  131.0699  151.1862 LP  0  0  0  0  0  0  0  0  0  0  0  0  # atno 17370 bound_to 10713
  157.2743  130.6719  149.6035 LP  0  0  0  0  0  0  0  0  0  0  0  0  # atno 17371 bound_to 10713
  140.9163  133.7676  155.9853 LP  0  0  0  0  0  0  0  0  0  0  0  0  # atno 17394 bound_to 11000
  140.8489  134.2977  157.5283 LP  0  0  0  0  0  0  0  0  0  0  0  0  # atno 17395 bound_to 11000

$$$$
