AV-unprocessed.smi:2776|AV-procd|sdf|10704|dock2
  -GOLD-   2272015143D 1   1.00000     0.00000
 Structure written by MMmdl.
 25 26  0  0  0  0  0  0  0  0  1 V2000
  147.9352  142.2910  156.6218 O   0  0  0  0  0  0  0  0  0  0  0  0
  148.3376  141.3418  155.6523 C   0  0  2  0  0  0  0  0  0  0  0  0
  149.7700  141.6607  155.1794 C   0  0  0  0  0  0  0  0  0  0  0  0
  150.7729  141.3179  156.1721 N   0  0  0  0  0  0  0  0  0  0  0  0
  151.5869  140.2449  156.1629 C   0  0  0  0  0  0  0  0  0  0  0  0
  152.4401  140.1185  157.1754 N   0  0  0  0  0  0  0  0  0  0  0  0
  152.1473  141.2417  157.9298 C   0  0  0  0  0  0  0  0  0  0  0  0
  152.7033  141.7008  159.1451 C   0  0  0  0  0  0  0  0  0  0  0  0
  152.2366  142.8916  159.7401 C   0  0  0  0  0  0  0  0  0  0  0  0
  152.7800  143.3166  160.9054 F   0  0  0  0  0  0  0  0  0  0  0  0
  151.2082  143.6399  159.1296 C   0  0  0  0  0  0  0  0  0  0  0  0
  150.7655  144.7816  159.7074 F   0  0  0  0  0  0  0  0  0  0  0  0
  150.6383  143.2017  157.9189 C   0  0  0  0  0  0  0  0  0  0  0  0
  151.1077  142.0138  157.3288 C   0  0  0  0  0  0  0  0  0  0  0  0
  147.3152  141.3288  154.4996 C   0  0  0  0  0  0  0  0  0  0  0  0
  147.1276  142.5653  154.0379 F   0  0  0  0  0  0  0  0  0  0  0  0
  147.7240  140.5382  153.5066 F   0  0  0  0  0  0  0  0  0  0  0  0
  146.1450  140.8760  154.9499 F   0  0  0  0  0  0  0  0  0  0  0  0
  148.3734  143.1084  156.4414 H   0  0  0  0  0  0  0  0  0  0  0  0
  148.3336  140.3625  156.1328 H   0  0  0  0  0  0  0  0  0  0  0  0
  149.9959  141.1110  154.2649 H   0  0  0  0  0  0  0  0  0  0  0  0
  149.8678  142.7196  154.9371 H   0  0  0  0  0  0  0  0  0  0  0  0
  151.5499  139.5145  155.3680 H   0  0  0  0  0  0  0  0  0  0  0  0
  153.4902  141.1355  159.6215 H   0  0  0  0  0  0  0  0  0  0  0  0
  149.8485  143.7711  157.4515 H   0  0  0  0  0  0  0  0  0  0  0  0
  1  2  1  0  0  0  0
  1 19  1  0  0  0  0
  2  3  1  0  0  0  0
  2 15  1  0  0  0  0
  2 20  1  0  0  0  0
  3  4  1  0  0  0  0
  3 21  1  0  0  0  0
  3 22  1  0  0  0  0
  4 14  1  0  0  0  0
  4  5  1  0  0  0  0
  5  6  2  0  0  0  0
  5 23  1  0  0  0  0
  6  7  1  0  0  0  0
  7 14  2  0  0  0  0
  7  8  1  0  0  0  0
  8  9  2  0  0  0  0
  8 24  1  0  0  0  0
  9 10  1  0  0  0  0
  9 11  1  0  0  0  0
 11 12  1  0  0  0  0
 11 13  2  0  0  0  0
 13 14  1  0  0  0  0
 13 25  1  0  0  0  0
 15 16  1  0  0  0  0
 15 17  1  0  0  0  0
 15 18  1  0  0  0  0
M  END
> <s_m_source_file>
AV-unprocessed.smi

> <i_m_source_file_index>
2776

> <i_lp_mmshare_version>
43012

> <i_f3d_flags>
0

> <s_epik_input>
RkMoRikoRilbQ0BIXShbT0hdKVtDSDJdbihbY0hdbjEpYyhjMTIpW2NIXWMoRiljKEYpW2NIXTI=

> <s_epik_cmdline>
J2VwaWtfcHl0aG9uJywgJy1waCcsICc3LjAnLCAnLXRuJywgJzgnLCAnLW1hJywgJzIwMCcsICctbWV0YWxfYmluZGluZycsICctaW1hZScsICc8aW5maWxlLm1hZT4nLCAnLW9tYWUnLCAnPG91dGZpbGUubWFlPic=

> <r_epik_Ionization_Penalty>
0.0162713

> <r_epik_Ionization_Penalty_Charging>
0

> <r_epik_Ionization_Penalty_Neutral>
0.0162713

> <r_epik_State_Penalty>
0.00836517

> <r_epik_Charging_Adjusted_Penalty>
0.00836517

> <i_epik_Tot_Q>
0

> <i_epik_Tot_abs_Q>
0

> <r_epik_Metal_State_Penalty>
8.42444e-06

> <b_epik_Metal_Only>
0

> <s_lp_Force_Field>
OPLS_2005

> <r_lp_Energy>
8.8272

> <b_lp_Chiralities_Consistent>
1

> <s_lp_Variant>
AV-unprocessed.smi:2776-1

> <Gold.Version>
5.8.1

> <Gold.Id.Protein>
6NUR|6NUR_protein|mol2

> <Gold.PLP.Fitness>
45.3545

> <Gold.PLP.PLP>
-40.1780

> <Gold.PLP.part.hbond>
-2.0000

> <Gold.PLP.part.metal>
0.0000

> <Gold.PLP.part.buried>
-1.8139

> <Gold.PLP.part.nonpolar>
-35.2727

> <Gold.PLP.part.repulsive>
0.0000

> <Gold.PLP.ligand.clash>
0.0000

> <Gold.PLP.ligand.torsion>
0.4207

> <Gold.PLP.Chemscore.Hbond>
2.0000

> <Gold.PLP.Chemscore.CHOScore>
0.0000

> <Gold.PLP.Chemscore.Metal>
0.0000

> <Gold.Chemscore.Hbonds>
donor molecule, donor type, donor heavy atom, donor atom, acceptor molecule, acceptor atom, score
      L1  H     1    19       P1  8028  1.00
      P1  H  7997  8008       L1     6  0.98

> <Gold.PLP.Chemscore.Internal.Correction>
0.0180

> <Gold.Rescore>
     Score         DG    S(hbond)    S(metal)    S(lipo)     H(rot)  DE(clash)    DE(int)     intcor
     13.17     -13.57       1.44        0.00      73.77       2.08       0.08       0.33       ----

> <Gold.Chemscore.Fitness>
13.1690

> <Gold.Chemscore.DG>
-13.5731

> <Gold.Chemscore.ZeroCoef>
-5.4800

> <Gold.Chemscore.Hbond>
1.4364

> <Gold.Chemscore.Metal>
0.0000

> <Gold.Chemscore.Lipo>
73.7694

> <Gold.Chemscore.Internal_Hbond>
0.0000

> <Gold.Chemscore.DEClash>
0.0756

> <Gold.Chemscore.DEInternal>
0.3286

> <Gold.Chemscore.Rot>
2.0841

> <Gold.Chemscore.Internal.Correction>
   9.000000E+99

> <Gold.Chemscore.Hbonds>
donor molecule, donor type, donor heavy atom, donor atom, acceptor molecule, acceptor atom, score
      L1  H     1    19       P1  8028  0.70
      P1  H  7997  8008       L1     6  0.52

> <Gold.Chemscore.Hbond.Weighted>
-4.7975

> <Gold.Chemscore.Metal.Weighted>
-0.0000

> <Gold.Chemscore.Lipo.Weighted>
-8.6310

> <Gold.Chemscore.Internal_Hbond.Weighted>
0.0000

> <Gold.Chemscore.DEClash.Weighted>
0.0756

> <Gold.Chemscore.DEInternal.Weighted>
0.3286

> <Gold.Chemscore.Rot.Weighted>
5.3353

> <Gold.Chemscore.Internal.Correction.Weighted>
   9.000000E+99

> <Gold.Protein.RotatedTorsions>
[ 6907 6896 6895 6894 ] final   28.02 input  -60.11 | X-H torsion
[ 7974 7965 7964 7962 ] final  175.15 input  175.53 | X-H torsion
[ 8008 7997 7996 7995 ] final  -47.67 input   59.86 | X-H torsion
[ 10167 10162 10161 10158 ] final -103.03 input  -65.29 | X-H torsion
[ 10718 10713 10712 10709 ] final   47.86 input   66.30 | X-H torsion
[ 10763 10752 10751 10750 ] final  145.98 input  -60.55 | X-H torsion
[ 11005 11000 10999 10996 ] final -143.47 input  -57.11 | X-H torsion

> <Gold.Protein.ActiveResidues>
 VAL166  LYS551  ARG553  GLY616  TRP617  ASP618  TYR619  PRO620  LYS621  CYS622 
 ASP623  PHE694  ASN695  SER759  ASP760  ASP761  ALA762  ILE779  LEU786  VAL792 
 PHE793  MET794  SER795  GLU796  ALA797  LYS798  CYS799  TRP800  GLU811  SER814 

> <Gold.Protein.RotatedAtoms>
  152.0109  134.9877  160.0567 H   0  0  0  0  0  0  0  0  0  0  0  0  # atno 6907 bound_to 6896
  152.1430  133.4470  159.4784 H   0  0  0  0  0  0  0  0  0  0  0  0  # atno 6908 bound_to 6896
  150.6867  134.2200  159.4436 H   0  0  0  0  0  0  0  0  0  0  0  0  # atno 6909 bound_to 6896
  144.7207  139.9903  143.6440 H   0  0  0  0  0  0  0  0  0  0  0  0  # atno 7974 bound_to 7965
  154.4019  140.1340  156.4213 H   0  0  0  0  0  0  0  0  0  0  0  0  # atno 8008 bound_to 7997
  155.7640  140.3485  155.5192 H   0  0  0  0  0  0  0  0  0  0  0  0  # atno 8009 bound_to 7997
  155.8832  140.0991  157.1461 H   0  0  0  0  0  0  0  0  0  0  0  0  # atno 8010 bound_to 7997
  140.2244  143.3652  152.0942 H   0  0  0  0  0  0  0  0  0  0  0  0  # atno 10167 bound_to 10162
  157.4628  130.8207  149.7904 H   0  0  0  0  0  0  0  0  0  0  0  0  # atno 10718 bound_to 10713
  154.0143  135.2911  155.3388 H   0  0  0  0  0  0  0  0  0  0  0  0  # atno 10763 bound_to 10752
  154.7084  135.5159  153.8633 H   0  0  0  0  0  0  0  0  0  0  0  0  # atno 10764 bound_to 10752
  153.0709  135.6647  154.0371 H   0  0  0  0  0  0  0  0  0  0  0  0  # atno 10765 bound_to 10752
  140.8122  134.2730  157.4936 H   0  0  0  0  0  0  0  0  0  0  0  0  # atno 11005 bound_to 11000
  146.0417  139.3428  143.0693 LP  0  0  0  0  0  0  0  0  0  0  0  0  # atno 17320 bound_to 7965
  145.8326  140.9622  143.0841 LP  0  0  0  0  0  0  0  0  0  0  0  0  # atno 17321 bound_to 7965
  139.5132  144.6929  151.5709 LP  0  0  0  0  0  0  0  0  0  0  0  0  # atno 17342 bound_to 10162
  140.6232  143.9219  150.6543 LP  0  0  0  0  0  0  0  0  0  0  0  0  # atno 17343 bound_to 10162
  156.0036  130.3867  150.2512 LP  0  0  0  0  0  0  0  0  0  0  0  0  # atno 17370 bound_to 10713
  157.0690  131.0111  151.3197 LP  0  0  0  0  0  0  0  0  0  0  0  0  # atno 17371 bound_to 10713
  139.8713  134.9489  156.4011 LP  0  0  0  0  0  0  0  0  0  0  0  0  # atno 17394 bound_to 11000
  140.9186  133.7661  155.9878 LP  0  0  0  0  0  0  0  0  0  0  0  0  # atno 17395 bound_to 11000

$$$$
