AV-unprocessed.smi:1783|AV-procd|sdf|7194|dock2
  -GOLD-   22720 8433D 1   1.00000     0.00000
 Structure written by MMmdl.
 29 30  0  0  0  0  0  0  0  0  2 V2000
  150.2490  141.8214  158.9501 O   0  0  0  0  0  0  0  0  0  0  0  0
  151.2062  142.2521  158.3068 C   0  0  0  0  0  0  0  0  0  0  0  0
  151.4742  141.9621  157.0184 N   0  0  0  0  0  0  0  0  0  0  0  0
  150.7610  141.1624  156.1083 C   0  0  0  0  0  0  0  0  0  0  0  0
  149.5034  141.4255  155.6559 C   0  0  0  0  0  0  0  0  0  0  0  0
  148.8201  140.5607  154.7021 C   0  0  0  0  0  0  0  0  0  0  0  0
  147.4510  140.8652  154.1199 C   0  0  0  0  0  0  0  0  0  0  0  0
  147.1221  139.9818  153.1771 F   0  0  0  0  0  0  0  0  0  0  0  0
  146.5282  140.8116  155.0793 F   0  0  0  0  0  0  0  0  0  0  0  0
  147.4209  142.0845  153.5822 F   0  0  0  0  0  0  0  0  0  0  0  0
  149.6034  139.4934  154.3074 C   0  0  0  0  0  0  0  0  0  0  0  0
  150.8482  139.1570  154.7104 N   0  5  0  0  0  0  0  0  0  0  0  0
  151.4745  139.9683  155.6088 C   0  0  0  0  0  0  0  0  0  0  0  0
  152.6138  139.7265  156.0094 O   0  0  0  0  0  0  0  0  0  0  0  0
  152.2072  143.1941  158.9860 C   0  0  2  0  0  0  0  0  0  0  0  0
  152.8696  142.6029  160.2450 C   0  0  0  0  0  0  0  0  0  0  0  0
  152.3042  143.4376  161.3781 C   0  0  0  0  0  0  0  0  0  0  0  0
  152.0190  144.7605  160.6821 C   0  0  0  0  0  0  0  0  0  0  0  0
  151.5001  144.3517  159.4271 O   0  0  0  0  0  0  0  0  0  0  0  0
  152.3296  142.3482  156.6455 H   0  0  0  0  0  0  0  0  0  0  0  0
  148.9679  142.3016  155.9810 H   0  0  0  0  0  0  0  0  0  0  0  0
  149.1652  138.8085  153.5504 H   0  0  0  0  0  0  0  0  0  0  0  0
  152.9798  143.5012  158.2786 H   0  0  0  0  0  0  0  0  0  0  0  0
  152.6822  141.5379  160.3908 H   0  0  0  0  0  0  0  0  0  0  0  0
  153.9506  142.7362  160.1864 H   0  0  0  0  0  0  0  0  0  0  0  0
  151.3732  142.9982  161.7389 H   0  0  0  0  0  0  0  0  0  0  0  0
  152.9879  143.5360  162.2214 H   0  0  0  0  0  0  0  0  0  0  0  0
  151.3091  145.3820  161.2281 H   0  0  0  0  0  0  0  0  0  0  0  0
  152.9373  145.3301  160.5315 H   0  0  0  0  0  0  0  0  0  0  0  0
  1  2  2  0  0  0  0
  2  3  1  0  0  0  0
  2 15  1  0  0  0  0
  3  4  1  0  0  0  0
  3 20  1  0  0  0  0
  4 13  1  0  0  0  0
  4  5  2  0  0  0  0
  5  6  1  0  0  0  0
  5 21  1  0  0  0  0
  6  7  1  0  0  0  0
  6 11  2  0  0  0  0
  7  8  1  0  0  0  0
  7  9  1  0  0  0  0
  7 10  1  0  0  0  0
 11 12  1  0  0  0  0
 11 22  1  0  0  0  0
 12 13  1  0  0  0  0
 13 14  2  0  0  0  0
 15 19  1  0  0  0  0
 15 16  1  0  0  0  0
 15 23  1  0  0  0  0
 16 17  1  0  0  0  0
 16 24  1  0  0  0  0
 16 25  1  0  0  0  0
 17 18  1  0  0  0  0
 17 26  1  0  0  0  0
 17 27  1  0  0  0  0
 18 19  1  0  0  0  0
 18 28  1  0  0  0  0
 18 29  1  0  0  0  0
M  CHG  1  12  -1
M  END
> <s_m_source_file>
AV-unprocessed.smi

> <i_m_source_file_index>
1783

> <i_lp_mmshare_version>
43012

> <i_f3d_flags>
0

> <s_epik_input>
TzFbQ0gyXVtDSDJdW0NIMl1bQ0BIXTFDKD1PKVtOSF1jMltjSF1jKEMoRikoRilGKVtjSF1bbkhdYzI9Tw==

> <s_epik_cmdline>
J2VwaWtfcHl0aG9uJywgJy1waCcsICc3LjAnLCAnLXRuJywgJzgnLCAnLW1hJywgJzIwMCcsICctbWV0YWxfYmluZGluZycsICctaW1hZScsICc8aW5maWxlLm1hZT4nLCAnLW9tYWUnLCAnPG91dGZpbGUubWFlPic=

> <r_epik_Ionization_Penalty>
2.55264

> <r_epik_Ionization_Penalty_Charging>
0.0580859

> <r_epik_Ionization_Penalty_Neutral>
2.49455

> <r_epik_State_Penalty>
2.65913

> <r_epik_Charging_Adjusted_Penalty>
2.71721

> <i_epik_Tot_Q>
-1

> <i_epik_Tot_abs_Q>
1

> <r_epik_Metal_State_Penalty>
0.516671

> <b_epik_Metal_Only>
0

> <s_lp_Force_Field>
OPLS_2005

> <r_lp_Energy>
34.3394

> <b_lp_Chiralities_Consistent>
1

> <s_lp_Variant>
AV-unprocessed.smi:1783-3

> <Gold.Version>
5.8.1

> <Gold.Id.Protein>
6NUR|6NUR_protein|mol2

> <Gold.PLP.Fitness>
41.1012

> <Gold.PLP.PLP>
-39.3914

> <Gold.PLP.part.hbond>
-2.3142

> <Gold.PLP.part.metal>
0.0000

> <Gold.PLP.part.buried>
-3.7480

> <Gold.PLP.part.nonpolar>
-33.7934

> <Gold.PLP.part.repulsive>
0.2784

> <Gold.PLP.ligand.clash>
0.0000

> <Gold.PLP.ligand.torsion>
0.6731

> <Gold.PLP.Chemscore.Hbond>
1.0000

> <Gold.PLP.Chemscore.CHOScore>
0.0000

> <Gold.PLP.Chemscore.Metal>
0.0000

> <Gold.Chemscore.Hbonds>
donor molecule, donor type, donor heavy atom, donor atom, acceptor molecule, acceptor atom, score
      P1  H  7997  8008       L1    14  1.00

> <Gold.PLP.Chemscore.Internal.Correction>
0.0560

> <Gold.Rescore>
     Score         DG    S(hbond)    S(metal)    S(lipo)     H(rot)  DE(clash)    DE(int)     intcor
     14.78     -15.40       1.00        0.00      78.13       1.00       0.03       0.59       ----

> <Gold.Chemscore.Fitness>
14.7801

> <Gold.Chemscore.DG>
-15.4013

> <Gold.Chemscore.ZeroCoef>
-5.4800

> <Gold.Chemscore.Hbond>
0.9999

> <Gold.Chemscore.Metal>
0.0000

> <Gold.Chemscore.Lipo>
78.1328

> <Gold.Chemscore.Internal_Hbond>
0.0000

> <Gold.Chemscore.DEClash>
0.0266

> <Gold.Chemscore.DEInternal>
0.5947

> <Gold.Chemscore.Rot>
1.0000

> <Gold.Chemscore.Internal.Correction>
   9.000000E+99

> <Gold.Chemscore.Hbonds>
donor molecule, donor type, donor heavy atom, donor atom, acceptor molecule, acceptor atom, score
      P1  H  7997  8008       L1    14  0.96

> <Gold.Chemscore.Hbond.Weighted>
-3.3398

> <Gold.Chemscore.Metal.Weighted>
-0.0000

> <Gold.Chemscore.Lipo.Weighted>
-9.1415

> <Gold.Chemscore.Internal_Hbond.Weighted>
0.0000

> <Gold.Chemscore.DEClash.Weighted>
0.0266

> <Gold.Chemscore.DEInternal.Weighted>
0.5947

> <Gold.Chemscore.Rot.Weighted>
2.5600

> <Gold.Chemscore.Internal.Correction.Weighted>
   9.000000E+99

> <Gold.Protein.RotatedTorsions>
[ 6907 6896 6895 6894 ] final   -2.35 input  -60.11 | X-H torsion
[ 7974 7965 7964 7962 ] final   86.90 input  175.53 | X-H torsion
[ 8008 7997 7996 7995 ] final  -19.48 input   59.86 | X-H torsion
[ 10167 10162 10161 10158 ] final  -18.92 input  -65.29 | X-H torsion
[ 10718 10713 10712 10709 ] final   98.90 input   66.30 | X-H torsion
[ 10763 10752 10751 10750 ] final   99.28 input  -60.55 | X-H torsion
[ 11005 11000 10999 10996 ] final  100.65 input  -57.11 | X-H torsion

> <Gold.Protein.ActiveResidues>
 VAL166  LYS551  ARG553  GLY616  TRP617  ASP618  TYR619  PRO620  LYS621  CYS622 
 ASP623  PHE694  ASN695  SER759  ASP760  ASP761  ALA762  ILE779  LEU786  VAL792 
 PHE793  MET794  SER795  GLU796  ALA797  LYS798  CYS799  TRP800  GLU811  SER814 

> <Gold.Protein.RotatedAtoms>
  151.5314  135.1068  159.9903 H   0  0  0  0  0  0  0  0  0  0  0  0  # atno 6907 bound_to 6896
  152.4577  133.7752  159.6831 H   0  0  0  0  0  0  0  0  0  0  0  0  # atno 6908 bound_to 6896
  150.8526  133.7698  159.3045 H   0  0  0  0  0  0  0  0  0  0  0  0  # atno 6909 bound_to 6896
  145.5662  139.2309  143.2432 H   0  0  0  0  0  0  0  0  0  0  0  0  # atno 7974 bound_to 7965
  154.4834  140.2088  155.9711 H   0  0  0  0  0  0  0  0  0  0  0  0  # atno 8008 bound_to 7997
  156.1199  140.3215  155.8163 H   0  0  0  0  0  0  0  0  0  0  0  0  # atno 8009 bound_to 7997
  155.4486  140.0515  157.2994 H   0  0  0  0  0  0  0  0  0  0  0  0  # atno 8010 bound_to 7997
  140.7263  143.4869  151.0042 H   0  0  0  0  0  0  0  0  0  0  0  0  # atno 10167 bound_to 10162
  157.6887  131.0654  150.4866 H   0  0  0  0  0  0  0  0  0  0  0  0  # atno 10718 bound_to 10713
  153.2994  135.4119  155.1239 H   0  0  0  0  0  0  0  0  0  0  0  0  # atno 10763 bound_to 10752
  154.8545  135.3537  154.5872 H   0  0  0  0  0  0  0  0  0  0  0  0  # atno 10764 bound_to 10752
  153.6297  135.7061  153.5338 H   0  0  0  0  0  0  0  0  0  0  0  0  # atno 10765 bound_to 10752
  139.8771  134.9149  156.4789 H   0  0  0  0  0  0  0  0  0  0  0  0  # atno 11005 bound_to 11000
  146.1817  140.6487  142.9186 LP  0  0  0  0  0  0  0  0  0  0  0  0  # atno 17320 bound_to 7965
  144.7459  140.5067  143.6836 LP  0  0  0  0  0  0  0  0  0  0  0  0  # atno 17321 bound_to 7965
  139.8571  143.7362  152.3175 LP  0  0  0  0  0  0  0  0  0  0  0  0  # atno 17342 bound_to 10162
  139.7564  144.7519  151.0428 LP  0  0  0  0  0  0  0  0  0  0  0  0  # atno 17343 bound_to 10162
  156.5195  130.4158  149.6258 LP  0  0  0  0  0  0  0  0  0  0  0  0  # atno 17370 bound_to 10713
  156.3167  130.7258  151.2162 LP  0  0  0  0  0  0  0  0  0  0  0  0  # atno 17371 bound_to 10713
  140.8742  133.7966  155.9397 LP  0  0  0  0  0  0  0  0  0  0  0  0  # atno 17394 bound_to 11000
  140.8921  134.2482  157.5088 LP  0  0  0  0  0  0  0  0  0  0  0  0  # atno 17395 bound_to 11000

$$$$
