AV-unprocessed.smi:438|AV-procd|sdf|2578|dock10
  -GOLD-   2262022563D 1   1.00000     0.00000
 Structure written by MMmdl.
 48 49  0  0  0  0  0  0  0  0  1 V2000
  144.6747  137.3563  155.1803 C   0  0  0  0  0  0  0  0  0  0  0  0
  145.5936  137.9656  154.1376 C   0  0  0  0  0  0  0  0  0  0  0  0
  146.4724  138.8845  154.5941 N   0  0  0  0  0  0  0  0  0  0  0  0
  147.2793  139.4377  153.6898 C   0  0  0  0  0  0  0  0  0  0  0  0
  148.3638  140.7094  154.3049 S   0  0  0  0  0  0  0  0  0  0  0  0
  149.3299  139.7903  155.5500 C   0  0  0  0  0  0  0  0  0  0  0  0
  150.6152  140.4907  156.0015 C   0  0  0  0  0  0  0  0  0  0  0  0
  151.6110  140.4619  155.2790 O   0  0  0  0  0  0  0  0  0  0  0  0
  150.5774  141.1336  157.1795 N   0  0  0  0  0  0  0  0  0  0  0  0
  151.6429  141.9758  157.7168 C   0  0  1  0  0  0  0  0  0  0  0  0
  151.1671  143.4443  157.7465 C   0  0  0  0  0  0  0  0  0  0  0  0
  152.2238  144.3731  158.3593 C   0  0  0  0  0  0  0  0  0  0  0  0
  152.6178  143.9005  159.7652 C   0  0  0  0  0  0  0  0  0  0  0  0
  153.1062  142.4442  159.7411 C   0  0  0  0  0  0  0  0  0  0  0  0
  152.0562  141.4940  159.1295 C   0  0  2  0  0  0  0  0  0  0  0  0
  152.5736  140.0443  159.1294 C   0  0  0  0  0  0  0  0  0  0  0  0
  147.3342  139.1738  152.3833 N   0  0  0  0  0  0  0  0  0  0  0  0
  146.4604  138.2593  151.9113 C   0  0  0  0  0  0  0  0  0  0  0  0
  146.4932  137.9744  150.5773 O   0  0  0  0  0  0  0  0  0  0  0  0
  145.5344  137.6099  152.7658 C   0  0  0  0  0  0  0  0  0  0  0  0
  144.5413  136.5860  152.2314 C   0  0  0  0  0  0  0  0  0  0  0  0
  145.1965  135.2216  151.9806 C   0  0  0  0  0  0  0  0  0  0  0  0
  146.2928  135.3724  151.1056 O   0  0  0  0  0  0  0  0  0  0  0  0
  144.6989  136.2678  155.1253 H   0  0  0  0  0  0  0  0  0  0  0  0
  143.6494  137.6906  155.0208 H   0  0  0  0  0  0  0  0  0  0  0  0
  144.9701  137.6463  156.1896 H   0  0  0  0  0  0  0  0  0  0  0  0
  148.6995  139.6141  156.4214 H   0  0  0  0  0  0  0  0  0  0  0  0
  149.5798  138.8112  155.1398 H   0  0  0  0  0  0  0  0  0  0  0  0
  149.7186  141.0951  157.7098 H   0  0  0  0  0  0  0  0  0  0  0  0
  152.5168  141.9049  157.0661 H   0  0  0  0  0  0  0  0  0  0  0  0
  150.9232  143.7846  156.7393 H   0  0  0  0  0  0  0  0  0  0  0  0
  150.2472  143.5199  158.3274 H   0  0  0  0  0  0  0  0  0  0  0  0
  153.1059  144.3984  157.7181 H   0  0  0  0  0  0  0  0  0  0  0  0
  151.8412  145.3932  158.4022 H   0  0  0  0  0  0  0  0  0  0  0  0
  153.3964  144.5475  160.1701 H   0  0  0  0  0  0  0  0  0  0  0  0
  151.7615  143.9891  160.4351 H   0  0  0  0  0  0  0  0  0  0  0  0
  154.0337  142.3835  159.1701 H   0  0  0  0  0  0  0  0  0  0  0  0
  153.3491  142.1274  160.7560 H   0  0  0  0  0  0  0  0  0  0  0  0
  151.1726  141.5250  159.7695 H   0  0  0  0  0  0  0  0  0  0  0  0
  153.4429  139.9352  158.4802 H   0  0  0  0  0  0  0  0  0  0  0  0
  151.8115  139.3444  158.7861 H   0  0  0  0  0  0  0  0  0  0  0  0
  152.8677  139.7339  160.1322 H   0  0  0  0  0  0  0  0  0  0  0  0
  145.6977  138.2244  150.1330 H   0  0  0  0  0  0  0  0  0  0  0  0
  143.7074  136.4788  152.9249 H   0  0  0  0  0  0  0  0  0  0  0  0
  144.1006  136.9619  151.3072 H   0  0  0  0  0  0  0  0  0  0  0  0
  145.5459  134.7832  152.9159 H   0  0  0  0  0  0  0  0  0  0  0  0
  144.4836  134.5247  151.5390 H   0  0  0  0  0  0  0  0  0  0  0  0
  147.0554  135.5983  151.6160 H   0  0  0  0  0  0  0  0  0  0  0  0
  1  2  1  0  0  0  0
  1 24  1  0  0  0  0
  1 25  1  0  0  0  0
  1 26  1  0  0  0  0
  2 20  1  0  0  0  0
  2  3  2  0  0  0  0
  3  4  1  0  0  0  0
  4  5  1  0  0  0  0
  4 17  2  0  0  0  0
  5  6  1  0  0  0  0
  6  7  1  0  0  0  0
  6 27  1  0  0  0  0
  6 28  1  0  0  0  0
  7  8  2  0  0  0  0
  7  9  1  0  0  0  0
  9 10  1  0  0  0  0
  9 29  1  0  0  0  0
 10 15  1  0  0  0  0
 10 11  1  0  0  0  0
 10 30  1  0  0  0  0
 11 12  1  0  0  0  0
 11 31  1  0  0  0  0
 11 32  1  0  0  0  0
 12 13  1  0  0  0  0
 12 33  1  0  0  0  0
 12 34  1  0  0  0  0
 13 14  1  0  0  0  0
 13 35  1  0  0  0  0
 13 36  1  0  0  0  0
 14 15  1  0  0  0  0
 14 37  1  0  0  0  0
 14 38  1  0  0  0  0
 15 16  1  0  0  0  0
 15 39  1  0  0  0  0
 16 40  1  0  0  0  0
 16 41  1  0  0  0  0
 16 42  1  0  0  0  0
 17 18  1  0  0  0  0
 18 19  1  0  0  0  0
 18 20  2  0  0  0  0
 19 43  1  0  0  0  0
 20 21  1  0  0  0  0
 21 22  1  0  0  0  0
 21 44  1  0  0  0  0
 21 45  1  0  0  0  0
 22 23  1  0  0  0  0
 22 46  1  0  0  0  0
 22 47  1  0  0  0  0
 23 48  1  0  0  0  0
M  END
> <s_m_source_file>
AV-unprocessed.smi

> <i_m_source_file_index>
438

> <i_lp_mmshare_version>
43012

> <i_f3d_flags>
0

> <s_epik_input>
W09IXVtDSDJdW0NIMl1jMWMoW09IXSluYyhuYzFbQ0gzXSlTW0NIMl1DKD1PKVtOSF1bQ0BASF0yW0NIMl1bQ0gyXVtDSDJdW0NIMl1bQ0BIXTJbQ0gzXQ==

> <s_epik_cmdline>
J2VwaWtfcHl0aG9uJywgJy1waCcsICc3LjAnLCAnLXRuJywgJzgnLCAnLW1hJywgJzIwMCcsICctbWV0YWxfYmluZGluZycsICctaW1hZScsICc8aW5maWxlLm1hZT4nLCAnLW9tYWUnLCAnPG91dGZpbGUubWFlPic=

> <r_lp_tautomer_probability>
0.0660145

> <r_epik_Ionization_Penalty>
2.91405

> <r_epik_Ionization_Penalty_Charging>
0

> <r_epik_Ionization_Penalty_Neutral>
2.91405

> <r_epik_State_Penalty>
2.44767

> <r_epik_Charging_Adjusted_Penalty>
2.44767

> <i_epik_Tot_Q>
0

> <i_epik_Tot_abs_Q>
0

> <r_epik_Metal_State_Penalty>
3.04288

> <b_epik_Metal_Only>
0

> <s_lp_Force_Field>
OPLS_2005

> <r_lp_Energy>
-0.453605

> <b_lp_Chiralities_Consistent>
1

> <s_lp_Variant>
AV-unprocessed.smi:438-16

> <Gold.Version>
5.8.1

> <Gold.Id.Protein>
6NUR|6NUR_protein|mol2

> <Gold.PLP.Fitness>
51.8586

> <Gold.PLP.PLP>
-41.5342

> <Gold.PLP.part.hbond>
-4.4718

> <Gold.PLP.part.metal>
0.0000

> <Gold.PLP.part.buried>
-5.9165

> <Gold.PLP.part.nonpolar>
-34.2461

> <Gold.PLP.part.repulsive>
3.1025

> <Gold.PLP.ligand.clash>
0.0000

> <Gold.PLP.ligand.torsion>
0.6108

> <Gold.PLP.Chemscore.Hbond>
3.8400

> <Gold.PLP.Chemscore.CHOScore>
0.0000

> <Gold.PLP.Chemscore.Metal>
0.0000

> <Gold.Chemscore.Hbonds>
donor molecule, donor type, donor heavy atom, donor atom, acceptor molecule, acceptor atom, score
      L1  H    19    43       P1 10171  1.00
      L1  H    23    48       P1  7948  1.00
      P1  H  7954  7966       L1    19  0.96
      P1  H  7989  7998       L1     8  0.83

> <Gold.PLP.Chemscore.Internal.Correction>
0.0260

> <Gold.Rescore>
     Score         DG    S(hbond)    S(metal)    S(lipo)     H(rot)  DE(clash)    DE(int)     intcor
     17.99     -20.23       3.51        0.00     101.14       3.44       1.55       0.69       ----

> <Gold.Chemscore.Fitness>
17.9926

> <Gold.Chemscore.DG>
-20.2330

> <Gold.Chemscore.ZeroCoef>
-5.4800

> <Gold.Chemscore.Hbond>
3.5077

> <Gold.Chemscore.Metal>
0.0000

> <Gold.Chemscore.Lipo>
101.1403

> <Gold.Chemscore.Internal_Hbond>
0.0000

> <Gold.Chemscore.DEClash>
1.5518

> <Gold.Chemscore.DEInternal>
0.6886

> <Gold.Chemscore.Rot>
3.4359

> <Gold.Chemscore.Internal.Correction>
   9.000000E+99

> <Gold.Chemscore.Hbonds>
donor molecule, donor type, donor heavy atom, donor atom, acceptor molecule, acceptor atom, score
      L1  H    19    43       P1 10171  1.00
      L1  H    23    48       P1  7948  0.95
      P1  H  7954  7966       L1    19  0.83
      P1  H  7989  7998       L1     8  0.81

> <Gold.Chemscore.Hbond.Weighted>
-11.7156

> <Gold.Chemscore.Metal.Weighted>
-0.0000

> <Gold.Chemscore.Lipo.Weighted>
-11.8334

> <Gold.Chemscore.Internal_Hbond.Weighted>
0.0000

> <Gold.Chemscore.DEClash.Weighted>
1.5518

> <Gold.Chemscore.DEInternal.Weighted>
0.6886

> <Gold.Chemscore.Rot.Weighted>
8.7960

> <Gold.Chemscore.Internal.Correction.Weighted>
   9.000000E+99

> <Gold.Protein.RotatedTorsions>
[ 6907 6896 6895 6894 ] final  -95.53 input  -60.11 | X-H torsion
[ 7974 7965 7964 7962 ] final -102.74 input  175.53 | X-H torsion
[ 8008 7997 7996 7995 ] final  -30.01 input   59.86 | X-H torsion
[ 10167 10162 10161 10158 ] final -162.34 input  -65.29 | X-H torsion
[ 10718 10713 10712 10709 ] final  127.52 input   66.30 | X-H torsion
[ 10763 10752 10751 10750 ] final   15.77 input  -60.55 | X-H torsion
[ 11005 11000 10999 10996 ] final   58.33 input  -57.11 | X-H torsion

> <Gold.Protein.ActiveResidues>
 VAL166  LYS551  ARG553  GLY616  TRP617  ASP618  TYR619  PRO620  LYS621  CYS622 
 ASP623  PHE694  ASN695  SER759  ASP760  ASP761  ALA762  ILE779  LEU786  VAL792 
 PHE793  MET794  SER795  GLU796  ALA797  LYS798  CYS799  TRP800  GLU811  SER814 

> <Gold.Protein.RotatedAtoms>
  150.6966  134.1644  159.4187 H   0  0  0  0  0  0  0  0  0  0  0  0  # atno 6907 bound_to 6896
  151.9623  135.0115  160.0557 H   0  0  0  0  0  0  0  0  0  0  0  0  # atno 6908 bound_to 6896
  152.1916  133.4742  159.5047 H   0  0  0  0  0  0  0  0  0  0  0  0  # atno 6909 bound_to 6896
  145.2648  140.9280  143.3020 H   0  0  0  0  0  0  0  0  0  0  0  0  # atno 7974 bound_to 7965
  154.4267  140.1803  156.1338 H   0  0  0  0  0  0  0  0  0  0  0  0  # atno 8008 bound_to 7997
  156.0046  140.3356  155.6855 H   0  0  0  0  0  0  0  0  0  0  0  0  # atno 8009 bound_to 7997
  155.6195  140.0658  157.2673 H   0  0  0  0  0  0  0  0  0  0  0  0  # atno 8010 bound_to 7997
  139.6399  144.0279  152.2084 H   0  0  0  0  0  0  0  0  0  0  0  0  # atno 10167 bound_to 10162
  157.5326  131.1098  150.8986 H   0  0  0  0  0  0  0  0  0  0  0  0  # atno 10718 bound_to 10713
  153.1493  135.6775  153.8906 H   0  0  0  0  0  0  0  0  0  0  0  0  # atno 10763 bound_to 10752
  153.8337  135.3114  155.3422 H   0  0  0  0  0  0  0  0  0  0  0  0  # atno 10764 bound_to 10752
  154.7850  135.4867  154.0012 H   0  0  0  0  0  0  0  0  0  0  0  0  # atno 10765 bound_to 10752
  140.0386  134.5907  155.9412 H   0  0  0  0  0  0  0  0  0  0  0  0  # atno 11005 bound_to 11000
  144.9387  139.4214  143.6460 LP  0  0  0  0  0  0  0  0  0  0  0  0  # atno 17320 bound_to 7965
  146.3264  139.8335  142.8904 LP  0  0  0  0  0  0  0  0  0  0  0  0  # atno 17321 bound_to 7965
  139.9966  144.6324  150.7767 LP  0  0  0  0  0  0  0  0  0  0  0  0  # atno 17342 bound_to 10162
  140.7485  143.2924  151.3295 LP  0  0  0  0  0  0  0  0  0  0  0  0  # atno 17343 bound_to 10162
  156.9562  130.5438  149.5284 LP  0  0  0  0  0  0  0  0  0  0  0  0  # atno 17370 bound_to 10713
  156.0434  130.5513  150.8824 LP  0  0  0  0  0  0  0  0  0  0  0  0  # atno 17371 bound_to 10713
  141.1871  133.6559  156.5266 LP  0  0  0  0  0  0  0  0  0  0  0  0  # atno 17394 bound_to 11000
  140.4107  134.7275  157.4834 LP  0  0  0  0  0  0  0  0  0  0  0  0  # atno 17395 bound_to 11000

$$$$
