AV-unprocessed.smi:2988|AV-procd|sdf|11389|dock6
  -GOLD-   2272016313D 1   1.00000     0.00000
 Structure written by MMmdl.
 37 38  0  0  0  0  0  0  0  0  1 V2000
  153.6252  141.5759  160.6910 C   0  0  0  0  0  0  0  0  0  0  0  0
  153.2206  142.9655  160.1690 C   0  0  2  0  0  0  0  0  0  0  0  0
  152.2177  143.6549  161.1172 C   0  0  0  0  0  0  0  0  0  0  0  0
  151.8704  145.0734  160.6382 C   0  0  0  0  0  0  0  0  0  0  0  0
  151.3425  145.0645  159.1958 C   0  0  0  0  0  0  0  0  0  0  0  0
  152.3348  144.3749  158.2426 C   0  0  0  0  0  0  0  0  0  0  0  0
  152.6961  142.9499  158.7084 C   0  0  2  0  0  0  0  0  0  0  0  0
  151.5347  142.0730  158.5497 N   0  0  0  0  0  0  0  0  0  0  0  0
  151.5066  140.9029  157.8934 C   0  0  0  0  0  0  0  0  0  0  0  0
  152.4795  140.4269  157.3074 O   0  0  0  0  0  0  0  0  0  0  0  0
  150.1643  140.1606  157.8949 C   0  0  0  0  0  0  0  0  0  0  0  0
  149.1998  140.7481  156.9544 N   0  0  0  0  0  0  0  0  0  0  0  0
  149.6437  140.8002  155.6447 N   0  0  0  0  0  0  0  0  0  0  0  0
  148.8697  141.2770  154.7317 C   0  0  0  0  0  0  0  0  0  0  0  0
  147.5424  141.7701  155.0267 C   0  0  0  0  0  0  0  0  0  0  0  0
  146.5481  142.3966  153.7594 Cl  0  0  0  0  0  0  0  0  0  0  0  0
  147.1208  141.7233  156.3154 C   0  0  0  0  0  0  0  0  0  0  0  0
  145.5466  142.2973  156.7474 Cl  0  0  0  0  0  0  0  0  0  0  0  0
  147.9764  141.1878  157.3833 C   0  0  0  0  0  0  0  0  0  0  0  0
  147.6326  141.1333  158.5650 O   0  0  0  0  0  0  0  0  0  0  0  0
  152.7624  140.9199  160.8084 H   0  0  0  0  0  0  0  0  0  0  0  0
  154.1114  141.6516  161.6638 H   0  0  0  0  0  0  0  0  0  0  0  0
  154.3251  141.0893  160.0110 H   0  0  0  0  0  0  0  0  0  0  0  0
  154.1290  143.5701  160.1703 H   0  0  0  0  0  0  0  0  0  0  0  0
  151.3064  143.0600  161.1926 H   0  0  0  0  0  0  0  0  0  0  0  0
  152.6328  143.7054  162.1244 H   0  0  0  0  0  0  0  0  0  0  0  0
  151.1289  145.5186  161.3022 H   0  0  0  0  0  0  0  0  0  0  0  0
  152.7574  145.7058  160.6977 H   0  0  0  0  0  0  0  0  0  0  0  0
  150.3798  144.5532  159.1623 H   0  0  0  0  0  0  0  0  0  0  0  0
  151.1577  146.0861  158.8627 H   0  0  0  0  0  0  0  0  0  0  0  0
  151.9252  144.3493  157.2320 H   0  0  0  0  0  0  0  0  0  0  0  0
  153.2448  144.9734  158.1838 H   0  0  0  0  0  0  0  0  0  0  0  0
  153.4990  142.5936  158.0605 H   0  0  0  0  0  0  0  0  0  0  0  0
  150.6820  142.3767  158.9971 H   0  0  0  0  0  0  0  0  0  0  0  0
  150.3145  139.1041  157.6635 H   0  0  0  0  0  0  0  0  0  0  0  0
  149.7678  140.1829  158.9116 H   0  0  0  0  0  0  0  0  0  0  0  0
  149.1744  141.3342  153.6866 H   0  0  0  0  0  0  0  0  0  0  0  0
  1  2  1  0  0  0  0
  1 21  1  0  0  0  0
  1 22  1  0  0  0  0
  1 23  1  0  0  0  0
  2  7  1  0  0  0  0
  2  3  1  0  0  0  0
  2 24  1  0  0  0  0
  3  4  1  0  0  0  0
  3 25  1  0  0  0  0
  3 26  1  0  0  0  0
  4  5  1  0  0  0  0
  4 27  1  0  0  0  0
  4 28  1  0  0  0  0
  5  6  1  0  0  0  0
  5 29  1  0  0  0  0
  5 30  1  0  0  0  0
  6  7  1  0  0  0  0
  6 31  1  0  0  0  0
  6 32  1  0  0  0  0
  7  8  1  0  0  0  0
  7 33  1  0  0  0  0
  8  9  1  0  0  0  0
  8 34  1  0  0  0  0
  9 10  2  0  0  0  0
  9 11  1  0  0  0  0
 11 12  1  0  0  0  0
 11 35  1  0  0  0  0
 11 36  1  0  0  0  0
 12 19  1  0  0  0  0
 12 13  1  0  0  0  0
 13 14  2  0  0  0  0
 14 15  1  0  0  0  0
 14 37  1  0  0  0  0
 15 16  1  0  0  0  0
 15 17  2  0  0  0  0
 17 18  1  0  0  0  0
 17 19  1  0  0  0  0
 19 20  2  0  0  0  0
M  END
> <s_m_source_file>
AV-unprocessed.smi

> <i_m_source_file_index>
2988

> <i_lp_mmshare_version>
43012

> <i_f3d_flags>
0

> <s_epik_input>
W0NIM11bQ0BASF0xW0NIMl1bQ0gyXVtDSDJdW0NIMl1bQ0BIXTFbTkhdQyg9TylbQ0gyXW4ybltjSF1jKENsKWMoQ2wpYzI9Tw==

> <s_epik_cmdline>
J2VwaWtfcHl0aG9uJywgJy1waCcsICc3LjAnLCAnLXRuJywgJzgnLCAnLW1hJywgJzIwMCcsICctbWV0YWxfYmluZGluZycsICctaW1hZScsICc8aW5maWxlLm1hZT4nLCAnLW9tYWUnLCAnPG91dGZpbGUubWFlPic=

> <r_lp_tautomer_probability>
1

> <r_epik_Ionization_Penalty>
1.90782e-08

> <r_epik_Ionization_Penalty_Charging>
3.13143e-11

> <r_epik_Ionization_Penalty_Neutral>
1.90469e-08

> <r_epik_State_Penalty>
-0

> <r_epik_Charging_Adjusted_Penalty>
3.13143e-11

> <i_epik_Tot_Q>
0

> <i_epik_Tot_abs_Q>
0

> <r_epik_Metal_State_Penalty>
-0

> <b_epik_Metal_Only>
0

> <s_lp_Force_Field>
OPLS_2005

> <r_lp_Energy>
23.4163

> <b_lp_Chiralities_Consistent>
1

> <s_lp_Variant>
AV-unprocessed.smi:2988-3

> <Gold.Version>
5.8.1

> <Gold.Id.Protein>
6NUR|6NUR_protein|mol2

> <Gold.PLP.Fitness>
49.7054

> <Gold.PLP.PLP>
-44.5027

> <Gold.PLP.part.hbond>
-1.9539

> <Gold.PLP.part.metal>
0.0000

> <Gold.PLP.part.buried>
-6.0121

> <Gold.PLP.part.nonpolar>
-36.0338

> <Gold.PLP.part.repulsive>
0.1776

> <Gold.PLP.ligand.clash>
0.0000

> <Gold.PLP.ligand.torsion>
0.3056

> <Gold.PLP.Chemscore.Hbond>
0.9357

> <Gold.PLP.Chemscore.CHOScore>
1.0000

> <Gold.PLP.Chemscore.Metal>
0.0000

> <Gold.Chemscore.Hbonds>
donor molecule, donor type, donor heavy atom, donor atom, acceptor molecule, acceptor atom, score
      P1  H  6934  6946       L1    20  0.04
      P1  H  7997  8008       L1    10  0.91
      L1  C    14    37       P1  7957  0.17

> <Gold.PLP.Chemscore.Internal.Correction>
0.0067

> <Gold.Rescore>
     Score         DG    S(hbond)    S(metal)    S(lipo)     H(rot)  DE(clash)    DE(int)     intcor
     17.78     -18.35       0.93        0.00     116.24       1.50       0.13       0.44       ----

> <Gold.Chemscore.Fitness>
17.7800

> <Gold.Chemscore.DG>
-18.3499

> <Gold.Chemscore.ZeroCoef>
-5.4800

> <Gold.Chemscore.Hbond>
0.9294

> <Gold.Chemscore.Metal>
0.0000

> <Gold.Chemscore.Lipo>
116.2388

> <Gold.Chemscore.Internal_Hbond>
0.0000

> <Gold.Chemscore.DEClash>
0.1276

> <Gold.Chemscore.DEInternal>
0.4423

> <Gold.Chemscore.Rot>
1.4977

> <Gold.Chemscore.Internal.Correction>
   9.000000E+99

> <Gold.Chemscore.Hbonds>
donor molecule, donor type, donor heavy atom, donor atom, acceptor molecule, acceptor atom, score
      P1  H  6934  6946       L1    20  0.05
      P1  H  7997  8008       L1    10  0.84

> <Gold.Chemscore.Hbond.Weighted>
-3.1041

> <Gold.Chemscore.Metal.Weighted>
-0.0000

> <Gold.Chemscore.Lipo.Weighted>
-13.5999

> <Gold.Chemscore.Internal_Hbond.Weighted>
0.0000

> <Gold.Chemscore.DEClash.Weighted>
0.1276

> <Gold.Chemscore.DEInternal.Weighted>
0.4423

> <Gold.Chemscore.Rot.Weighted>
3.8341

> <Gold.Chemscore.Internal.Correction.Weighted>
   9.000000E+99

> <Gold.Protein.RotatedTorsions>
[ 6907 6896 6895 6894 ] final  159.42 input  -60.11 | X-H torsion
[ 7974 7965 7964 7962 ] final -158.34 input  175.53 | X-H torsion
[ 8008 7997 7996 7995 ] final  -60.87 input   59.86 | X-H torsion
[ 10167 10162 10161 10158 ] final  -26.71 input  -65.29 | X-H torsion
[ 10718 10713 10712 10709 ] final   76.13 input   66.30 | X-H torsion
[ 10763 10752 10751 10750 ] final   32.42 input  -60.55 | X-H torsion
[ 11005 11000 10999 10996 ] final -152.16 input  -57.11 | X-H torsion

> <Gold.Protein.ActiveResidues>
 VAL166  LYS551  ARG553  GLY616  TRP617  ASP618  TYR619  PRO620  LYS621  CYS622 
 ASP623  PHE694  ASN695  SER759  ASP760  ASP761  ALA762  ILE779  LEU786  VAL792 
 PHE793  MET794  SER795  GLU796  ALA797  LYS798  CYS799  TRP800  GLU811  SER814 

> <Gold.Protein.RotatedAtoms>
  151.9859  133.3774  159.4125 H   0  0  0  0  0  0  0  0  0  0  0  0  # atno 6907 bound_to 6896
  150.6928  134.3989  159.5119 H   0  0  0  0  0  0  0  0  0  0  0  0  # atno 6908 bound_to 6896
  152.1715  134.8830  160.0584 H   0  0  0  0  0  0  0  0  0  0  0  0  # atno 6909 bound_to 6896
  144.7510  140.3841  143.6048 H   0  0  0  0  0  0  0  0  0  0  0  0  # atno 7974 bound_to 7965
  154.4420  140.1030  156.6342 H   0  0  0  0  0  0  0  0  0  0  0  0  # atno 8008 bound_to 7997
  155.5572  140.3487  155.4464 H   0  0  0  0  0  0  0  0  0  0  0  0  # atno 8009 bound_to 7997
  156.0486  140.1298  157.0065 H   0  0  0  0  0  0  0  0  0  0  0  0  # atno 8010 bound_to 7997
  140.7281  143.4155  151.1036 H   0  0  0  0  0  0  0  0  0  0  0  0  # atno 10167 bound_to 10162
  157.6661  130.9759  150.1452 H   0  0  0  0  0  0  0  0  0  0  0  0  # atno 10718 bound_to 10713
  153.0263  135.6413  154.1352 H   0  0  0  0  0  0  0  0  0  0  0  0  # atno 10763 bound_to 10752
  154.1080  135.2855  155.3238 H   0  0  0  0  0  0  0  0  0  0  0  0  # atno 10764 bound_to 10752
  154.6351  135.5479  153.7788 H   0  0  0  0  0  0  0  0  0  0  0  0  # atno 10765 bound_to 10752
  140.7219  134.3718  157.5182 H   0  0  0  0  0  0  0  0  0  0  0  0  # atno 11005 bound_to 11000
  145.6946  139.1647  143.2627 LP  0  0  0  0  0  0  0  0  0  0  0  0  # atno 17320 bound_to 7965
  146.1459  140.6994  142.9345 LP  0  0  0  0  0  0  0  0  0  0  0  0  # atno 17321 bound_to 7965
  139.7794  143.8377  152.3135 LP  0  0  0  0  0  0  0  0  0  0  0  0  # atno 17342 bound_to 10162
  139.8323  144.7248  150.9434 LP  0  0  0  0  0  0  0  0  0  0  0  0  # atno 17343 bound_to 10162
  156.2265  130.3678  149.8495 LP  0  0  0  0  0  0  0  0  0  0  0  0  # atno 17370 bound_to 10713
  156.6333  130.8675  151.3500 LP  0  0  0  0  0  0  0  0  0  0  0  0  # atno 17371 bound_to 10713
  139.8846  134.8960  156.2693 LP  0  0  0  0  0  0  0  0  0  0  0  0  # atno 17394 bound_to 11000
  140.9996  133.7159  156.0940 LP  0  0  0  0  0  0  0  0  0  0  0  0  # atno 17395 bound_to 11000

$$$$
