AV-unprocessed.smi:927|AV-procd|sdf|4187|dock5
  -GOLD-   22720 2 93D 1   1.00000     0.00000
 Structure written by MMmdl.
 21 21  0  0  0  0  0  0  0  0  2 V2000
  143.4329  133.7046  147.9658 N   0  3  0  0  0  0  0  0  0  0  0  0
  144.0447  132.5290  148.6103 C   0  0  0  0  0  0  0  0  0  0  0  0
  143.7857  132.5084  150.1274 C   0  0  2  0  0  0  0  0  0  0  0  0
  142.4020  132.6937  150.3552 O   0  0  0  0  0  0  0  0  0  0  0  0
  144.6192  133.5603  150.8423 C   0  0  0  0  0  0  0  0  0  0  0  0
  144.4346  134.9308  150.5633 C   0  0  0  0  0  0  0  0  0  0  0  0
  145.2252  135.8719  151.2533 C   0  0  0  0  0  0  0  0  0  0  0  0
  146.1522  135.5291  152.1729 N   0  0  0  0  0  0  0  0  0  0  0  0
  146.3240  134.2165  152.4380 C   0  0  0  0  0  0  0  0  0  0  0  0
  145.5858  133.1965  151.8051 C   0  0  0  0  0  0  0  0  0  0  0  0
  142.9327  133.4149  147.1376 H   0  0  0  0  0  0  0  0  0  0  0  0
  144.1601  134.3576  147.7098 H   0  0  0  0  0  0  0  0  0  0  0  0
  143.6250  131.6352  148.1473 H   0  0  0  0  0  0  0  0  0  0  0  0
  145.1150  132.5243  148.3996 H   0  0  0  0  0  0  0  0  0  0  0  0
  144.0521  131.5281  150.5257 H   0  0  0  0  0  0  0  0  0  0  0  0
  141.9619  131.8686  150.2140 H   0  0  0  0  0  0  0  0  0  0  0  0
  143.7053  135.2601  149.8376 H   0  0  0  0  0  0  0  0  0  0  0  0
  145.1083  136.9283  151.0620 H   0  0  0  0  0  0  0  0  0  0  0  0
  147.0712  133.9712  153.1783 H   0  0  0  0  0  0  0  0  0  0  0  0
  145.7610  132.1608  152.0569 H   0  0  0  0  0  0  0  0  0  0  0  0
  142.7939  134.1493  148.6091 H   0  0  0  0  0  0  0  0  0  0  0  0
  1  2  1  0  0  0  0
  1 11  1  0  0  0  0
  1 12  1  0  0  0  0
  1 21  1  0  0  0  0
  2  3  1  0  0  0  0
  2 13  1  0  0  0  0
  2 14  1  0  0  0  0
  3  4  1  0  0  0  0
  3  5  1  0  0  0  0
  3 15  1  0  0  0  0
  4 16  1  0  0  0  0
  5 10  1  0  0  0  0
  5  6  2  0  0  0  0
  6  7  1  0  0  0  0
  6 17  1  0  0  0  0
  7  8  2  0  0  0  0
  7 18  1  0  0  0  0
  8  9  1  0  0  0  0
  9 10  2  0  0  0  0
  9 19  1  0  0  0  0
 10 20  1  0  0  0  0
M  CHG  1   1   1
M  END
> <s_m_source_file>
AV-unprocessed.smi

> <i_m_source_file_index>
927

> <i_lp_mmshare_version>
43012

> <i_f3d_flags>
0

> <s_epik_input>
W05IMl1bQ0gyXVtDQEhdKFtPSF0pYzFbY0hdW2NIXW5bY0hdW2NIXTE=

> <s_epik_cmdline>
J2VwaWtfcHl0aG9uJywgJy1waCcsICc3LjAnLCAnLXRuJywgJzgnLCAnLW1hJywgJzIwMCcsICctbWV0YWxfYmluZGluZycsICctaW1hZScsICc8aW5maWxlLm1hZT4nLCAnLW9tYWUnLCAnPG91dGZpbGUubWFlPic=

> <r_epik_Ionization_Penalty>
0.0159363

> <r_epik_Ionization_Penalty_Charging>
0.0140431

> <r_epik_Ionization_Penalty_Neutral>
0.00189321

> <r_epik_State_Penalty>
0.0109628

> <r_epik_Charging_Adjusted_Penalty>
0.0250059

> <i_epik_Tot_Q>
1

> <i_epik_Tot_abs_Q>
1

> <r_epik_Metal_State_Penalty>
0.0113463

> <b_epik_Metal_Only>
0

> <s_lp_Force_Field>
OPLS_2005

> <r_lp_Energy>
4.52457

> <b_lp_Chiralities_Consistent>
1

> <s_lp_Variant>
AV-unprocessed.smi:927-1

> <Gold.Version>
5.8.1

> <Gold.Id.Protein>
6NUR|6NUR_protein|mol2

> <Gold.PLP.Fitness>
41.5333

> <Gold.PLP.PLP>
-23.6914

> <Gold.PLP.part.hbond>
-4.4365

> <Gold.PLP.part.metal>
0.0000

> <Gold.PLP.part.buried>
-4.7856

> <Gold.PLP.part.nonpolar>
-16.5272

> <Gold.PLP.part.repulsive>
1.8833

> <Gold.PLP.ligand.clash>
0.0000

> <Gold.PLP.ligand.torsion>
0.0704

> <Gold.PLP.Chemscore.Hbond>
4.9920

> <Gold.PLP.Chemscore.CHOScore>
1.0000

> <Gold.PLP.Chemscore.Metal>
0.0000

> <Gold.Chemscore.Hbonds>
donor molecule, donor type, donor heavy atom, donor atom, acceptor molecule, acceptor atom, score
      L1  H     1    11       P1 10195  1.00
      L1  H     1    12       P1  7921  0.99
      L1  H     1    21       P1 10186  2.00
      L1  H     4    16       P1 10952  1.00
      L1  C     7    18       P1 10171  1.00

> <Gold.PLP.Chemscore.Internal.Correction>
0.0066

> <Gold.Rescore>
     Score         DG    S(hbond)    S(metal)    S(lipo)     H(rot)  DE(clash)    DE(int)     intcor
     19.37     -19.62       3.80        0.00      53.88       1.90       0.11       0.15       ----

> <Gold.Chemscore.Fitness>
19.3700

> <Gold.Chemscore.DG>
-19.6215

> <Gold.Chemscore.ZeroCoef>
-5.4800

> <Gold.Chemscore.Hbond>
3.8013

> <Gold.Chemscore.Metal>
0.0000

> <Gold.Chemscore.Lipo>
53.8845

> <Gold.Chemscore.Internal_Hbond>
0.0000

> <Gold.Chemscore.DEClash>
0.1064

> <Gold.Chemscore.DEInternal>
0.1451

> <Gold.Chemscore.Rot>
1.8981

> <Gold.Chemscore.Internal.Correction>
   9.000000E+99

> <Gold.Chemscore.Hbonds>
donor molecule, donor type, donor heavy atom, donor atom, acceptor molecule, acceptor atom, score
      L1  H     1    11       P1 10195  0.98
      L1  H     1    12       P1  7921  0.91
      L1  H     1    21       P1 10186  0.93
      L1  H     4    16       P1 10952  0.68

> <Gold.Chemscore.Hbond.Weighted>
-12.6962

> <Gold.Chemscore.Metal.Weighted>
-0.0000

> <Gold.Chemscore.Lipo.Weighted>
-6.3045

> <Gold.Chemscore.Internal_Hbond.Weighted>
0.0000

> <Gold.Chemscore.DEClash.Weighted>
0.1064

> <Gold.Chemscore.DEInternal.Weighted>
0.1451

> <Gold.Chemscore.Rot.Weighted>
4.8592

> <Gold.Chemscore.Internal.Correction.Weighted>
   9.000000E+99

> <Gold.Protein.RotatedTorsions>
[ 6907 6896 6895 6894 ] final -149.21 input  -60.11 | X-H torsion
[ 7974 7965 7964 7962 ] final   88.59 input  175.53 | X-H torsion
[ 8008 7997 7996 7995 ] final   -5.65 input   59.86 | X-H torsion
[ 10167 10162 10161 10158 ] final   46.63 input  -65.29 | X-H torsion
[ 10718 10713 10712 10709 ] final  137.89 input   66.30 | X-H torsion
[ 10763 10752 10751 10750 ] final -153.60 input  -60.55 | X-H torsion
[ 11005 11000 10999 10996 ] final  124.09 input  -57.11 | X-H torsion

> <Gold.Protein.ActiveResidues>
 VAL166  LYS551  ARG553  GLY616  TRP617  ASP618  TYR619  PRO620  LYS621  CYS622 
 ASP623  PHE694  ASN695  SER759  ASP760  ASP761  ALA762  ILE779  LEU786  VAL792 
 PHE793  MET794  SER795  GLU796  ALA797  LYS798  CYS799  TRP800  GLU811  SER814 

> <Gold.Protein.RotatedAtoms>
  151.1809  133.4725  159.2593 H   0  0  0  0  0  0  0  0  0  0  0  0  # atno 6907 bound_to 6896
  151.1260  135.0104  159.8570 H   0  0  0  0  0  0  0  0  0  0  0  0  # atno 6908 bound_to 6896
  152.5458  134.1716  159.8652 H   0  0  0  0  0  0  0  0  0  0  0  0  # atno 6909 bound_to 6896
  145.5436  139.2290  143.2552 H   0  0  0  0  0  0  0  0  0  0  0  0  # atno 7974 bound_to 7965
  154.6018  140.2453  155.7783 H   0  0  0  0  0  0  0  0  0  0  0  0  # atno 8008 bound_to 7997
  156.2315  140.2965  156.0154 H   0  0  0  0  0  0  0  0  0  0  0  0  # atno 8009 bound_to 7997
  155.2199  140.0400  157.2937 H   0  0  0  0  0  0  0  0  0  0  0  0  # atno 8010 bound_to 7997
  140.3119  144.2809  150.6198 H   0  0  0  0  0  0  0  0  0  0  0  0  # atno 10167 bound_to 10162
  157.4312  131.1048  151.0248 H   0  0  0  0  0  0  0  0  0  0  0  0  # atno 10718 bound_to 10713
  154.7917  135.3209  154.7763 H   0  0  0  0  0  0  0  0  0  0  0  0  # atno 10763 bound_to 10752
  153.8450  135.6867  153.4803 H   0  0  0  0  0  0  0  0  0  0  0  0  # atno 10764 bound_to 10752
  153.1589  135.4668  154.9685 H   0  0  0  0  0  0  0  0  0  0  0  0  # atno 10765 bound_to 10752
  139.9343  134.9640  156.8358 H   0  0  0  0  0  0  0  0  0  0  0  0  # atno 11005 bound_to 11000
  146.1964  140.6257  142.9122 LP  0  0  0  0  0  0  0  0  0  0  0  0  # atno 17320 bound_to 7965
  144.7564  140.5318  143.6765 LP  0  0  0  0  0  0  0  0  0  0  0  0  # atno 17321 bound_to 7965
  140.5560  143.2199  151.7846 LP  0  0  0  0  0  0  0  0  0  0  0  0  # atno 17342 bound_to 10162
  139.4892  144.4413  151.9761 LP  0  0  0  0  0  0  0  0  0  0  0  0  # atno 17343 bound_to 10162
  157.1144  130.6035  149.5489 LP  0  0  0  0  0  0  0  0  0  0  0  0  # atno 17370 bound_to 10713
  155.9914  130.4968  150.7297 LP  0  0  0  0  0  0  0  0  0  0  0  0  # atno 17371 bound_to 10713
  140.6118  134.0075  155.7580 LP  0  0  0  0  0  0  0  0  0  0  0  0  # atno 17394 bound_to 11000
  141.0948  133.9860  157.3178 LP  0  0  0  0  0  0  0  0  0  0  0  0  # atno 17395 bound_to 11000

$$$$
