AV-unprocessed.smi:3197|AV-procd|sdf|12225|dock3
  -GOLD-   2272018 53D 1   1.00000     0.00000
 Structure written by MMmdl.
 33 34  0  0  0  0  0  0  0  0  1 V2000
  144.9529  135.0460  150.6290 C   0  0  0  0  0  0  0  0  0  0  0  0
  146.2610  135.0057  151.1518 C   0  0  0  0  0  0  0  0  0  0  0  0
  146.8722  133.8381  151.4494 N   0  0  0  0  0  0  0  0  0  0  0  0
  146.1815  132.7171  151.2264 C   0  0  0  0  0  0  0  0  0  0  0  0
  146.8363  131.5420  151.5431 N   0  0  0  0  0  0  0  0  0  0  0  0
  146.3836  130.6015  152.5569 C   0  0  0  0  0  0  0  0  0  0  0  0
  146.1418  129.2084  151.9666 C   0  0  0  0  0  0  0  0  0  0  0  0
  147.3744  128.5105  151.8976 O   0  0  0  0  0  0  0  0  0  0  0  0
  147.3747  127.4952  150.9077 C   0  0  0  0  0  0  0  0  0  0  0  0
  148.7024  126.7274  150.9764 C   0  0  2  0  0  0  0  0  0  0  0  0
  148.8595  125.6705  149.9025 C   0  0  0  0  0  0  0  0  0  0  0  0
  149.9630  124.7938  150.4859 C   0  0  0  0  0  0  0  0  0  0  0  0
  149.7947  124.8504  151.8994 O   0  0  0  0  0  0  0  0  0  0  0  0
  148.8794  125.8877  152.2422 C   0  0  0  0  0  0  0  0  0  0  0  0
  144.9384  132.6377  150.7360 N   0  0  0  0  0  0  0  0  0  0  0  0
  144.3215  133.8013  150.4358 C   0  0  0  0  0  0  0  0  0  0  0  0
  144.4620  135.9777  150.3901 H   0  0  0  0  0  0  0  0  0  0  0  0
  146.8186  135.9127  151.3319 H   0  0  0  0  0  0  0  0  0  0  0  0
  147.6552  131.3064  151.0017 H   0  0  0  0  0  0  0  0  0  0  0  0
  147.1482  130.5371  153.3319 H   0  0  0  0  0  0  0  0  0  0  0  0
  145.4758  130.9763  153.0309 H   0  0  0  0  0  0  0  0  0  0  0  0
  145.4145  128.6584  152.5661 H   0  0  0  0  0  0  0  0  0  0  0  0
  145.7280  129.3077  150.9620 H   0  0  0  0  0  0  0  0  0  0  0  0
  146.5332  126.8174  151.0609 H   0  0  0  0  0  0  0  0  0  0  0  0
  147.2581  127.9439  149.9199 H   0  0  0  0  0  0  0  0  0  0  0  0
  149.5340  127.4296  150.8966 H   0  0  0  0  0  0  0  0  0  0  0  0
  147.9398  125.0927  149.7980 H   0  0  0  0  0  0  0  0  0  0  0  0
  149.1174  126.0836  148.9268 H   0  0  0  0  0  0  0  0  0  0  0  0
  149.9193  123.7682  150.1190 H   0  0  0  0  0  0  0  0  0  0  0  0
  150.9434  125.2015  150.2370 H   0  0  0  0  0  0  0  0  0  0  0  0
  149.2437  126.4769  153.0840 H   0  0  0  0  0  0  0  0  0  0  0  0
  147.9357  125.4269  152.5374 H   0  0  0  0  0  0  0  0  0  0  0  0
  143.3190  133.7389  150.0393 H   0  0  0  0  0  0  0  0  0  0  0  0
  1 16  1  0  0  0  0
  1  2  2  0  0  0  0
  1 17  1  0  0  0  0
  2  3  1  0  0  0  0
  2 18  1  0  0  0  0
  3  4  2  0  0  0  0
  4  5  1  0  0  0  0
  4 15  1  0  0  0  0
  5  6  1  0  0  0  0
  5 19  1  0  0  0  0
  6  7  1  0  0  0  0
  6 20  1  0  0  0  0
  6 21  1  0  0  0  0
  7  8  1  0  0  0  0
  7 22  1  0  0  0  0
  7 23  1  0  0  0  0
  8  9  1  0  0  0  0
  9 10  1  0  0  0  0
  9 24  1  0  0  0  0
  9 25  1  0  0  0  0
 10 14  1  0  0  0  0
 10 11  1  0  0  0  0
 10 26  1  0  0  0  0
 11 12  1  0  0  0  0
 11 27  1  0  0  0  0
 11 28  1  0  0  0  0
 12 13  1  0  0  0  0
 12 29  1  0  0  0  0
 12 30  1  0  0  0  0
 13 14  1  0  0  0  0
 14 31  1  0  0  0  0
 14 32  1  0  0  0  0
 15 16  2  0  0  0  0
 16 33  1  0  0  0  0
M  END
> <s_m_source_file>
AV-unprocessed.smi

> <i_m_source_file_index>
3197

> <i_lp_mmshare_version>
43012

> <i_f3d_flags>
0

> <s_epik_input>
bjFbY0hdW2NIXVtjSF1uYzFbTkhdW0NIMl1bQ0gyXU9bQ0gyXVtDQEBIXTJbQ0gyXVtDSDJdT1tDSDJdMg==

> <s_epik_cmdline>
J2VwaWtfcHl0aG9uJywgJy1waCcsICc3LjAnLCAnLXRuJywgJzgnLCAnLW1hJywgJzIwMCcsICctbWV0YWxfYmluZGluZycsICctaW1hZScsICc8aW5maWxlLm1hZT4nLCAnLW9tYWUnLCAnPG91dGZpbGUubWFlPic=

> <r_lp_tautomer_probability>
1

> <r_epik_Ionization_Penalty>
0.000570263

> <r_epik_Ionization_Penalty_Charging>
0

> <r_epik_Ionization_Penalty_Neutral>
0.000570263

> <r_epik_State_Penalty>
0.000357543

> <r_epik_Charging_Adjusted_Penalty>
0.000357543

> <i_epik_Tot_Q>
0

> <i_epik_Tot_abs_Q>
0

> <r_epik_Metal_State_Penalty>
-0

> <b_epik_Metal_Only>
0

> <s_lp_Force_Field>
OPLS_2005

> <r_lp_Energy>
12.4723

> <b_lp_Chiralities_Consistent>
1

> <s_lp_Variant>
AV-unprocessed.smi:3197-1

> <Gold.Version>
5.8.1

> <Gold.Id.Protein>
6NUR|6NUR_protein|mol2

> <Gold.PLP.Fitness>
39.0833

> <Gold.PLP.PLP>
-31.9614

> <Gold.PLP.part.hbond>
-1.0000

> <Gold.PLP.part.metal>
0.0000

> <Gold.PLP.part.buried>
-5.9550

> <Gold.PLP.part.nonpolar>
-25.9066

> <Gold.PLP.part.repulsive>
0.5523

> <Gold.PLP.ligand.clash>
0.0000

> <Gold.PLP.ligand.torsion>
0.8711

> <Gold.PLP.Chemscore.Hbond>
1.0000

> <Gold.PLP.Chemscore.CHOScore>
1.9272

> <Gold.PLP.Chemscore.Metal>
0.0000

> <Gold.Chemscore.Hbonds>
donor molecule, donor type, donor heavy atom, donor atom, acceptor molecule, acceptor atom, score
      L1  H     5    19       P1 10747  1.00
      L1  C     2    18       P1  7948  1.00
      L1  C    16    33       P1 10186  1.00

> <Gold.PLP.Chemscore.Internal.Correction>
0.0825

> <Gold.Rescore>
     Score         DG    S(hbond)    S(metal)    S(lipo)     H(rot)  DE(clash)    DE(int)     intcor
     11.91     -13.03       1.00        0.00      77.06       1.88       0.19       0.92       ----

> <Gold.Chemscore.Fitness>
11.9144

> <Gold.Chemscore.DG>
-13.0265

> <Gold.Chemscore.ZeroCoef>
-5.4800

> <Gold.Chemscore.Hbond>
0.9997

> <Gold.Chemscore.Metal>
0.0000

> <Gold.Chemscore.Lipo>
77.0615

> <Gold.Chemscore.Internal_Hbond>
0.0000

> <Gold.Chemscore.DEClash>
0.1937

> <Gold.Chemscore.DEInternal>
0.9184

> <Gold.Chemscore.Rot>
1.8784

> <Gold.Chemscore.Internal.Correction>
   9.000000E+99

> <Gold.Chemscore.Hbonds>
donor molecule, donor type, donor heavy atom, donor atom, acceptor molecule, acceptor atom, score
      L1  H     5    19       P1 10747  0.97

> <Gold.Chemscore.Hbond.Weighted>
-3.3390

> <Gold.Chemscore.Metal.Weighted>
-0.0000

> <Gold.Chemscore.Lipo.Weighted>
-9.0162

> <Gold.Chemscore.Internal_Hbond.Weighted>
0.0000

> <Gold.Chemscore.DEClash.Weighted>
0.1937

> <Gold.Chemscore.DEInternal.Weighted>
0.9184

> <Gold.Chemscore.Rot.Weighted>
4.8087

> <Gold.Chemscore.Internal.Correction.Weighted>
   9.000000E+99

> <Gold.Protein.RotatedTorsions>
[ 6907 6896 6895 6894 ] final   51.86 input  -60.11 | X-H torsion
[ 7974 7965 7964 7962 ] final  -65.63 input  175.53 | X-H torsion
[ 8008 7997 7996 7995 ] final   -2.91 input   59.86 | X-H torsion
[ 10167 10162 10161 10158 ] final  156.18 input  -65.29 | X-H torsion
[ 10718 10713 10712 10709 ] final   56.96 input   66.30 | X-H torsion
[ 10763 10752 10751 10750 ] final  -44.50 input  -60.55 | X-H torsion
[ 11005 11000 10999 10996 ] final  -59.35 input  -57.11 | X-H torsion

> <Gold.Protein.ActiveResidues>
 VAL166  LYS551  ARG553  GLY616  TRP617  ASP618  TYR619  PRO620  LYS621  CYS622 
 ASP623  PHE694  ASN695  SER759  ASP760  ASP761  ALA762  ILE779  LEU786  VAL792 
 PHE793  MET794  SER795  GLU796  ALA797  LYS798  CYS799  TRP800  GLU811  SER814 

> <Gold.Protein.RotatedAtoms>
  152.3172  134.7425  160.0322 H   0  0  0  0  0  0  0  0  0  0  0  0  # atno 6907 bound_to 6896
  151.7886  133.3351  159.3500 H   0  0  0  0  0  0  0  0  0  0  0  0  # atno 6908 bound_to 6896
  150.7350  134.5794  159.5975 H   0  0  0  0  0  0  0  0  0  0  0  0  # atno 6909 bound_to 6896
  145.7519  140.8904  143.0475 H   0  0  0  0  0  0  0  0  0  0  0  0  # atno 7974 bound_to 7965
  154.6305  140.2522  155.7439 H   0  0  0  0  0  0  0  0  0  0  0  0  # atno 8008 bound_to 7997
  156.2477  140.2908  156.0575 H   0  0  0  0  0  0  0  0  0  0  0  0  # atno 8009 bound_to 7997
  155.1752  140.0387  157.2861 H   0  0  0  0  0  0  0  0  0  0  0  0  # atno 8010 bound_to 7997
  139.4821  144.5032  151.8137 H   0  0  0  0  0  0  0  0  0  0  0  0  # atno 10167 bound_to 10162
  157.5475  130.8741  149.8913 H   0  0  0  0  0  0  0  0  0  0  0  0  # atno 10718 bound_to 10713
  154.0130  135.6679  153.4767 H   0  0  0  0  0  0  0  0  0  0  0  0  # atno 10763 bound_to 10752
  153.0612  135.5026  154.8094 H   0  0  0  0  0  0  0  0  0  0  0  0  # atno 10764 bound_to 10752
  154.6984  135.3074  154.9342 H   0  0  0  0  0  0  0  0  0  0  0  0  # atno 10765 bound_to 10752
  141.1245  133.6616  156.5059 H   0  0  0  0  0  0  0  0  0  0  0  0  # atno 11005 bound_to 11000
  144.6848  139.9603  143.7480 LP  0  0  0  0  0  0  0  0  0  0  0  0  # atno 17320 bound_to 7965
  146.0348  139.3368  143.0733 LP  0  0  0  0  0  0  0  0  0  0  0  0  # atno 17321 bound_to 7965
  140.4527  144.1832  150.5899 LP  0  0  0  0  0  0  0  0  0  0  0  0  # atno 17342 bound_to 10162
  140.4568  143.2465  151.9274 LP  0  0  0  0  0  0  0  0  0  0  0  0  # atno 17343 bound_to 10162
  156.0548  130.3710  150.1117 LP  0  0  0  0  0  0  0  0  0  0  0  0  # atno 17370 bound_to 10713
  156.9292  130.9708  151.3536 LP  0  0  0  0  0  0  0  0  0  0  0  0  # atno 17371 bound_to 10713
  140.4408  134.7017  157.4991 LP  0  0  0  0  0  0  0  0  0  0  0  0  # atno 17394 bound_to 11000
  140.0230  134.6518  155.9212 LP  0  0  0  0  0  0  0  0  0  0  0  0  # atno 17395 bound_to 11000

$$$$
