AV-unprocessed.smi:45|AV-procd|sdf|408|dock8
  -GOLD-   2262016263D 1   1.00000     0.00000
 Structure written by MMmdl.
 60 63  0  0  0  0  0  0  0  0  1 V2000
  155.4971  129.8443  157.5878 C   0  0  0  0  0  0  0  0  0  0  0  0
  154.6341  129.1741  156.6809 O   0  0  0  0  0  0  0  0  0  0  0  0
  153.4332  129.7725  156.3592 C   0  0  0  0  0  0  0  0  0  0  0  0
  153.0123  131.0247  156.8750 C   0  0  0  0  0  0  0  0  0  0  0  0
  151.7703  131.5726  156.5004 C   0  0  0  0  0  0  0  0  0  0  0  0
  150.9293  130.8823  155.6045 C   0  0  0  0  0  0  0  0  0  0  0  0
  149.5877  131.4659  155.2052 C   0  0  0  0  0  0  0  0  0  0  0  0
  149.5179  132.9132  155.3509 N   0  0  0  0  0  0  0  0  0  0  0  0
  148.3062  133.6024  155.1740 C   0  0  0  0  0  0  0  0  0  0  0  0
  147.6037  133.3578  154.0425 N   0  0  0  0  0  0  0  0  0  0  0  0
  146.4524  134.0093  153.8509 C   0  0  0  0  0  0  0  0  0  0  0  0
  145.7488  133.7483  152.6747 N   0  0  0  0  0  0  0  0  0  0  0  0
  144.8101  134.7168  152.1173 C   0  0  0  0  0  0  0  0  0  0  0  0
  144.8651  134.5333  150.6019 C   0  0  0  0  0  0  0  0  0  0  0  0
  145.2355  133.0644  150.4504 C   0  0  0  0  0  0  0  0  0  0  0  0
  146.1791  132.8111  151.6347 C   0  0  2  0  0  0  0  0  0  0  0  0
  146.1676  131.3384  152.0967 C   0  0  0  0  0  0  0  0  0  0  0  0
  147.3911  131.0173  152.7230 O   0  0  0  0  0  0  0  0  0  0  0  0
  145.9227  134.9039  154.6906 N   0  0  0  0  0  0  0  0  0  0  0  0
  146.6037  135.1677  155.8247 C   0  0  0  0  0  0  0  0  0  0  0  0
  147.8342  134.5421  156.1310 C   0  0  0  0  0  0  0  0  0  0  0  0
  148.5495  134.8468  157.4201 C   0  0  0  0  0  0  0  0  0  0  0  0
  149.2476  134.0021  157.9816 O   0  0  0  0  0  0  0  0  0  0  0  0
  148.3898  136.0986  157.8785 N   0  0  0  0  0  0  0  0  0  0  0  0
  148.9668  136.6157  159.1137 C   0  0  0  0  0  0  0  0  0  0  0  0
  148.3018  136.0406  160.3518 C   0  0  0  0  0  0  0  0  0  0  0  0
  148.1969  134.7086  160.4115 N   0  0  0  0  0  0  0  0  0  0  0  0
  147.6138  134.1911  161.5145 C   0  0  0  0  0  0  0  0  0  0  0  0
  147.1372  135.0121  162.5562 C   0  0  0  0  0  0  0  0  0  0  0  0
  147.3029  136.4008  162.3810 C   0  0  0  0  0  0  0  0  0  0  0  0
  147.8859  136.9131  161.2756 N   0  0  0  0  0  0  0  0  0  0  0  0
  151.3400  129.6369  155.0903 C   0  0  0  0  0  0  0  0  0  0  0  0
  152.5822  129.0874  155.4635 C   0  0  0  0  0  0  0  0  0  0  0  0
  153.0550  127.5586  154.8125 Cl  0  0  0  0  0  0  0  0  0  0  0  0
  147.1922  133.0928  151.3430 H   0  0  0  0  0  0  0  0  0  0  0  0
  156.3935  129.2438  157.7412 H   0  0  0  0  0  0  0  0  0  0  0  0
  155.0237  129.9828  158.5606 H   0  0  0  0  0  0  0  0  0  0  0  0
  155.8123  130.8126  157.1967 H   0  0  0  0  0  0  0  0  0  0  0  0
  153.6248  131.5865  157.5635 H   0  0  0  0  0  0  0  0  0  0  0  0
  151.4643  132.5263  156.9054 H   0  0  0  0  0  0  0  0  0  0  0  0
  149.3705  131.2010  154.1696 H   0  0  0  0  0  0  0  0  0  0  0  0
  148.8155  131.0048  155.8222 H   0  0  0  0  0  0  0  0  0  0  0  0
  150.3252  133.4071  155.7046 H   0  0  0  0  0  0  0  0  0  0  0  0
  143.8123  134.4942  152.4972 H   0  0  0  0  0  0  0  0  0  0  0  0
  145.0577  135.7424  152.3935 H   0  0  0  0  0  0  0  0  0  0  0  0
  143.9289  134.7942  150.1074 H   0  0  0  0  0  0  0  0  0  0  0  0
  145.6558  135.1567  150.1820 H   0  0  0  0  0  0  0  0  0  0  0  0
  144.3347  132.4550  150.5409 H   0  0  0  0  0  0  0  0  0  0  0  0
  145.6965  132.8399  149.4883 H   0  0  0  0  0  0  0  0  0  0  0  0
  145.3702  131.1444  152.8126 H   0  0  0  0  0  0  0  0  0  0  0  0
  146.0073  130.6667  151.2528 H   0  0  0  0  0  0  0  0  0  0  0  0
  148.0394  130.8621  152.0532 H   0  0  0  0  0  0  0  0  0  0  0  0
  146.1517  135.8847  156.4947 H   0  0  0  0  0  0  0  0  0  0  0  0
  147.8084  136.7324  157.3499 H   0  0  0  0  0  0  0  0  0  0  0  0
  150.0421  136.4281  159.1344 H   0  0  0  0  0  0  0  0  0  0  0  0
  148.8467  137.6995  159.1203 H   0  0  0  0  0  0  0  0  0  0  0  0
  147.5275  133.1159  161.5665 H   0  0  0  0  0  0  0  0  0  0  0  0
  146.6708  134.6001  163.4389 H   0  0  0  0  0  0  0  0  0  0  0  0
  146.9674  137.1026  163.1301 H   0  0  0  0  0  0  0  0  0  0  0  0
  150.7022  129.0976  154.4053 H   0  0  0  0  0  0  0  0  0  0  0  0
  1  2  1  0  0  0  0
  1 36  1  0  0  0  0
  1 37  1  0  0  0  0
  1 38  1  0  0  0  0
  2  3  1  0  0  0  0
  3 33  1  0  0  0  0
  3  4  2  0  0  0  0
  4  5  1  0  0  0  0
  4 39  1  0  0  0  0
  5  6  2  0  0  0  0
  5 40  1  0  0  0  0
  6  7  1  0  0  0  0
  6 32  1  0  0  0  0
  7  8  1  0  0  0  0
  7 41  1  0  0  0  0
  7 42  1  0  0  0  0
  8  9  1  0  0  0  0
  8 43  1  0  0  0  0
  9 21  1  0  0  0  0
  9 10  2  0  0  0  0
 10 11  1  0  0  0  0
 11 12  1  0  0  0  0
 11 19  2  0  0  0  0
 12 16  1  0  0  0  0
 12 13  1  0  0  0  0
 13 14  1  0  0  0  0
 13 44  1  0  0  0  0
 13 45  1  0  0  0  0
 14 15  1  0  0  0  0
 14 46  1  0  0  0  0
 14 47  1  0  0  0  0
 15 16  1  0  0  0  0
 15 48  1  0  0  0  0
 15 49  1  0  0  0  0
 16 35  1  0  0  0  0
 16 17  1  0  0  0  0
 17 18  1  0  0  0  0
 17 50  1  0  0  0  0
 17 51  1  0  0  0  0
 18 52  1  0  0  0  0
 19 20  1  0  0  0  0
 20 21  2  0  0  0  0
 20 53  1  0  0  0  0
 21 22  1  0  0  0  0
 22 23  2  0  0  0  0
 22 24  1  0  0  0  0
 24 25  1  0  0  0  0
 24 54  1  0  0  0  0
 25 26  1  0  0  0  0
 25 55  1  0  0  0  0
 25 56  1  0  0  0  0
 26 31  1  0  0  0  0
 26 27  2  0  0  0  0
 27 28  1  0  0  0  0
 28 29  2  0  0  0  0
 28 57  1  0  0  0  0
 29 30  1  0  0  0  0
 29 58  1  0  0  0  0
 30 31  2  0  0  0  0
 30 59  1  0  0  0  0
 32 33  2  0  0  0  0
 32 60  1  0  0  0  0
 33 34  1  0  0  0  0
M  END
> <s_m_source_file>
AV-unprocessed.smi

> <i_m_source_file_index>
45

> <i_lp_mmshare_version>
43012

> <i_f3d_flags>
0

> <s_epik_input>
W0NIM11PYzFbY0hdW2NIXWMoW2NIXWMxQ2wpW0NIMl1bTkhdYzJuYyhOM1tDSDJdW0NIMl1bQ0gyXVtDQEhdM1tDSDJdW09IXSluW2NIXWMyQyg9TylbTkhdW0NIMl1jNG5bY0hdW2NIXVtjSF1uNA==

> <s_epik_cmdline>
J2VwaWtfcHl0aG9uJywgJy1waCcsICc3LjAnLCAnLXRuJywgJzgnLCAnLW1hJywgJzIwMCcsICctbWV0YWxfYmluZGluZycsICctaW1hZScsICc8aW5maWxlLm1hZT4nLCAnLW9tYWUnLCAnPG91dGZpbGUubWFlPic=

> <r_lp_tautomer_probability>
1

> <r_epik_Ionization_Penalty>
0.0522664

> <r_epik_Ionization_Penalty_Charging>
0

> <r_epik_Ionization_Penalty_Neutral>
0.0522664

> <r_epik_State_Penalty>
0.0369431

> <r_epik_Charging_Adjusted_Penalty>
0.0369431

> <i_epik_Tot_Q>
0

> <i_epik_Tot_abs_Q>
0

> <r_epik_Metal_State_Penalty>
0.0404664

> <b_epik_Metal_Only>
0

> <s_epik_Chemistry_Notes>
This compound contains an electron-poor aromatic ring that is susceptible to covalent hydrolysis at low pH, typically resulting in measured values for nitrogen ring protonation that are around two units higher than predicted values.

> <s_lp_Force_Field>
OPLS_2005

> <r_lp_Energy>
32.9916

> <b_lp_Chiralities_Consistent>
1

> <s_lp_Variant>
AV-unprocessed.smi:45-2

> <Gold.Version>
5.8.1

> <Gold.Id.Protein>
6NUR|6NUR_protein|mol2

> <Gold.PLP.Fitness>
56.2675

> <Gold.PLP.PLP>
-47.7416

> <Gold.PLP.part.hbond>
-4.0000

> <Gold.PLP.part.metal>
0.0000

> <Gold.PLP.part.buried>
-7.5104

> <Gold.PLP.part.nonpolar>
-36.4460

> <Gold.PLP.part.repulsive>
0.1656

> <Gold.PLP.ligand.clash>
0.0000

> <Gold.PLP.ligand.torsion>
1.7588

> <Gold.PLP.Chemscore.Hbond>
3.8640

> <Gold.PLP.Chemscore.CHOScore>
0.0000

> <Gold.PLP.Chemscore.Metal>
0.0000

> <Gold.Chemscore.Hbonds>
donor molecule, donor type, donor heavy atom, donor atom, acceptor molecule, acceptor atom, score
      L1  H    18    52       P1 10747  1.00
      P1  H  6896  6907       L1    23  1.00
      P1  H  6931  6943       L1    31  1.00
      P1  H  6934  6947       L1    31  0.38

> <Gold.PLP.Chemscore.Internal.Correction>
0.4515

> <Gold.Rescore>
     Score         DG    S(hbond)    S(metal)    S(lipo)     H(rot)  DE(clash)    DE(int)     intcor
     17.06     -21.22       3.27        0.00     104.76       2.90       0.05       4.11       ----

> <Gold.Chemscore.Fitness>
17.0632

> <Gold.Chemscore.DG>
-21.2213

> <Gold.Chemscore.ZeroCoef>
-5.4800

> <Gold.Chemscore.Hbond>
3.2650

> <Gold.Chemscore.Metal>
0.0000

> <Gold.Chemscore.Lipo>
104.7604

> <Gold.Chemscore.Internal_Hbond>
0.0000

> <Gold.Chemscore.DEClash>
0.0495

> <Gold.Chemscore.DEInternal>
4.1086

> <Gold.Chemscore.Rot>
2.8988

> <Gold.Chemscore.Internal.Correction>
   9.000000E+99

> <Gold.Chemscore.Hbonds>
donor molecule, donor type, donor heavy atom, donor atom, acceptor molecule, acceptor atom, score
      L1  H    18    52       P1 10747  0.96
      P1  H  6896  6907       L1    23  0.98
      P1  H  6931  6943       L1    31  0.49
      P1  H  6934  6947       L1    31  0.27

> <Gold.Chemscore.Hbond.Weighted>
-10.9052

> <Gold.Chemscore.Metal.Weighted>
-0.0000

> <Gold.Chemscore.Lipo.Weighted>
-12.2570

> <Gold.Chemscore.Internal_Hbond.Weighted>
0.0000

> <Gold.Chemscore.DEClash.Weighted>
0.0495

> <Gold.Chemscore.DEInternal.Weighted>
4.1086

> <Gold.Chemscore.Rot.Weighted>
7.4209

> <Gold.Chemscore.Internal.Correction.Weighted>
   9.000000E+99

> <Gold.Protein.RotatedTorsions>
[ 6907 6896 6895 6894 ] final -107.31 input  -60.11 | X-H torsion
[ 7974 7965 7964 7962 ] final   -7.49 input  175.53 | X-H torsion
[ 8008 7997 7996 7995 ] final   95.60 input   59.86 | X-H torsion
[ 10167 10162 10161 10158 ] final   40.32 input  -65.29 | X-H torsion
[ 10718 10713 10712 10709 ] final  -63.86 input   66.30 | X-H torsion
[ 10763 10752 10751 10750 ] final   32.91 input  -60.55 | X-H torsion
[ 11005 11000 10999 10996 ] final  127.67 input  -57.11 | X-H torsion

> <Gold.Protein.ActiveResidues>
 VAL166  LYS551  ARG553  GLY616  TRP617  ASP618  TYR619  PRO620  LYS621  CYS622 
 ASP623  PHE694  ASN695  SER759  ASP760  ASP761  ALA762  ILE779  LEU786  VAL792 
 PHE793  MET794  SER795  GLU796  ALA797  LYS798  CYS799  TRP800  GLU811  SER814 

> <Gold.Protein.RotatedAtoms>
  150.7437  133.9846  159.3587 H   0  0  0  0  0  0  0  0  0  0  0  0  # atno 6907 bound_to 6896
  151.7790  135.0764  160.0380 H   0  0  0  0  0  0  0  0  0  0  0  0  # atno 6908 bound_to 6896
  152.3287  133.5897  159.5831 H   0  0  0  0  0  0  0  0  0  0  0  0  # atno 6909 bound_to 6896
  146.2305  140.2328  142.8341 H   0  0  0  0  0  0  0  0  0  0  0  0  # atno 7974 bound_to 7965
  156.0707  140.3284  155.7572 H   0  0  0  0  0  0  0  0  0  0  0  0  # atno 8008 bound_to 7997
  155.5310  140.0593  157.2906 H   0  0  0  0  0  0  0  0  0  0  0  0  # atno 8009 bound_to 7997
  154.4528  140.1927  156.0484 H   0  0  0  0  0  0  0  0  0  0  0  0  # atno 8010 bound_to 7997
  140.3753  144.2051  150.6132 H   0  0  0  0  0  0  0  0  0  0  0  0  # atno 10167 bound_to 10162
  156.0765  130.4226  150.1337 H   0  0  0  0  0  0  0  0  0  0  0  0  # atno 10718 bound_to 10713
  153.0238  135.6401  154.1429 H   0  0  0  0  0  0  0  0  0  0  0  0  # atno 10763 bound_to 10752
  154.1161  135.2850  155.3221 H   0  0  0  0  0  0  0  0  0  0  0  0  # atno 10764 bound_to 10752
  154.6297  135.5497  153.7729 H   0  0  0  0  0  0  0  0  0  0  0  0  # atno 10765 bound_to 10752
  139.9519  134.9620  156.8888 H   0  0  0  0  0  0  0  0  0  0  0  0  # atno 11005 bound_to 11000
  144.9545  140.8212  143.5552 LP  0  0  0  0  0  0  0  0  0  0  0  0  # atno 17320 bound_to 7965
  145.2292  139.2123  143.5052 LP  0  0  0  0  0  0  0  0  0  0  0  0  # atno 17321 bound_to 7965
  140.4992  143.2323  151.8704 LP  0  0  0  0  0  0  0  0  0  0  0  0  # atno 17342 bound_to 10162
  139.4800  144.5079  151.8973 LP  0  0  0  0  0  0  0  0  0  0  0  0  # atno 17343 bound_to 10162
  156.9377  130.9734  151.3522 LP  0  0  0  0  0  0  0  0  0  0  0  0  # atno 17370 bound_to 10713
  157.5862  130.8411  149.8593 LP  0  0  0  0  0  0  0  0  0  0  0  0  # atno 17371 bound_to 10713
  140.5698  134.0454  155.7426 LP  0  0  0  0  0  0  0  0  0  0  0  0  # atno 17394 bound_to 11000
  141.1184  133.9502  157.2777 LP  0  0  0  0  0  0  0  0  0  0  0  0  # atno 17395 bound_to 11000

$$$$
