AV-unprocessed.smi:2835|AV-procd|sdf|10918|dock4
  -GOLD-   2272015363D 1   1.00000     0.00000
 Structure written by MMmdl.
 34 35  0  0  0  0  0  0  0  0  2 V2000
  149.4899  134.9519  158.1316 O   0  0  0  0  0  0  0  0  0  0  0  0
  149.4528  136.0879  158.6009 C   0  0  0  0  0  0  0  0  0  0  0  0
  150.4093  137.1433  158.0204 C   0  0  0  0  0  0  0  0  0  0  0  0
  151.8122  136.9163  158.3391 N   0  0  0  0  0  0  0  0  0  0  0  0
  152.9009  137.7034  158.0251 C   0  0  0  0  0  0  0  0  0  0  0  0
  154.0110  137.0751  158.5121 C   0  0  0  0  0  0  0  0  0  0  0  0
  153.4936  135.8957  159.1171 C   0  0  0  0  0  0  0  0  0  0  0  0
  152.1774  135.8058  159.0165 N   0  0  0  0  0  0  0  0  0  0  0  0
  148.6302  136.4768  159.5966 N   0  0  0  0  0  0  0  0  0  0  0  0
  147.6009  135.7700  160.3746 C   0  0  0  0  0  0  0  0  0  0  0  0
  146.2852  136.5350  160.0774 C   0  0  0  0  0  0  0  0  0  0  0  0
  146.2467  137.7599  160.3308 O   0  0  0  0  0  0  0  0  0  0  0  0
  145.3138  135.8769  159.6411 O   0  5  0  0  0  0  0  0  0  0  0  0
  147.4581  134.2491  160.0467 C   0  0  0  0  0  0  0  0  0  0  0  0
  146.4883  133.5121  160.9915 C   0  0  0  0  0  0  0  0  0  0  0  0
  146.9070  133.6823  162.4588 C   0  0  0  0  0  0  0  0  0  0  0  0
  147.0403  135.1663  162.8299 C   0  0  0  0  0  0  0  0  0  0  0  0
  148.0004  135.8998  161.8726 C   0  0  0  0  0  0  0  0  0  0  0  0
  150.3012  137.1606  156.9354 H   0  0  0  0  0  0  0  0  0  0  0  0
  150.1172  138.1297  158.3834 H   0  0  0  0  0  0  0  0  0  0  0  0
  152.7957  138.6308  157.4811 H   0  0  0  0  0  0  0  0  0  0  0  0
  155.0368  137.4052  158.4431 H   0  0  0  0  0  0  0  0  0  0  0  0
  154.0318  135.1079  159.6233 H   0  0  0  0  0  0  0  0  0  0  0  0
  148.7101  137.4522  159.8452 H   0  0  0  0  0  0  0  0  0  0  0  0
  147.1448  134.0940  159.0131 H   0  0  0  0  0  0  0  0  0  0  0  0
  148.4303  133.7644  160.1421 H   0  0  0  0  0  0  0  0  0  0  0  0
  145.4711  133.8799  160.8535 H   0  0  0  0  0  0  0  0  0  0  0  0
  146.4638  132.4522  160.7375 H   0  0  0  0  0  0  0  0  0  0  0  0
  146.1807  133.1983  163.1122 H   0  0  0  0  0  0  0  0  0  0  0  0
  147.8594  133.1780  162.6266 H   0  0  0  0  0  0  0  0  0  0  0  0
  146.0579  135.6390  162.8125 H   0  0  0  0  0  0  0  0  0  0  0  0
  147.4024  135.2573  163.8543 H   0  0  0  0  0  0  0  0  0  0  0  0
  149.0023  135.4895  162.0079 H   0  0  0  0  0  0  0  0  0  0  0  0
  148.0789  136.9469  162.1692 H   0  0  0  0  0  0  0  0  0  0  0  0
  1  2  2  0  0  0  0
  2  3  1  0  0  0  0
  2  9  1  0  0  0  0
  3  4  1  0  0  0  0
  3 19  1  0  0  0  0
  3 20  1  0  0  0  0
  4  8  1  0  0  0  0
  4  5  1  0  0  0  0
  5  6  2  0  0  0  0
  5 21  1  0  0  0  0
  6  7  1  0  0  0  0
  6 22  1  0  0  0  0
  7  8  2  0  0  0  0
  7 23  1  0  0  0  0
  9 10  1  0  0  0  0
  9 24  1  0  0  0  0
 10 18  1  0  0  0  0
 10 11  1  0  0  0  0
 10 14  1  0  0  0  0
 11 12  2  0  0  0  0
 11 13  1  0  0  0  0
 14 15  1  0  0  0  0
 14 25  1  0  0  0  0
 14 26  1  0  0  0  0
 15 16  1  0  0  0  0
 15 27  1  0  0  0  0
 15 28  1  0  0  0  0
 16 17  1  0  0  0  0
 16 29  1  0  0  0  0
 16 30  1  0  0  0  0
 17 18  1  0  0  0  0
 17 31  1  0  0  0  0
 17 32  1  0  0  0  0
 18 33  1  0  0  0  0
 18 34  1  0  0  0  0
M  CHG  1  13  -1
M  END
> <s_m_source_file>
AV-unprocessed.smi

> <i_m_source_file_index>
2835

> <i_lp_mmshare_version>
43012

> <i_f3d_flags>
0

> <s_epik_input>
bjFbY0hdW2NIXVtjSF1uMVtDSDJdQyg9TylbTkhdQzIoQyg9TylbT0hdKVtDSDJdW0NIMl1bQ0gyXVtDSDJdW0NIMl0y

> <s_epik_cmdline>
J2VwaWtfcHl0aG9uJywgJy1waCcsICc3LjAnLCAnLXRuJywgJzgnLCAnLW1hJywgJzIwMCcsICctbWV0YWxfYmluZGluZycsICctaW1hZScsICc8aW5maWxlLm1hZT4nLCAnLW9tYWUnLCAnPG91dGZpbGUubWFlPic=

> <r_lp_tautomer_probability>
1

> <r_epik_Ionization_Penalty>
0.000342313

> <r_epik_Ionization_Penalty_Charging>
0.000323848

> <r_epik_Ionization_Penalty_Neutral>
1.84652e-05

> <r_epik_State_Penalty>
0.000195685

> <r_epik_Charging_Adjusted_Penalty>
0.000519533

> <i_epik_Tot_Q>
-1

> <i_epik_Tot_abs_Q>
1

> <r_epik_Metal_State_Penalty>
-0

> <b_epik_Metal_Only>
0

> <s_lp_Force_Field>
OPLS_2005

> <r_lp_Energy>
5.56985

> <b_lp_Chiralities_Consistent>
1

> <s_lp_Variant>
AV-unprocessed.smi:2835-1

> <Gold.Version>
5.8.1

> <Gold.Id.Protein>
6NUR|6NUR_protein|mol2

> <Gold.PLP.Fitness>
40.3507

> <Gold.PLP.PLP>
-29.3270

> <Gold.PLP.part.hbond>
-3.0000

> <Gold.PLP.part.metal>
0.0000

> <Gold.PLP.part.buried>
-4.5673

> <Gold.PLP.part.nonpolar>
-22.6847

> <Gold.PLP.part.repulsive>
0.6438

> <Gold.PLP.ligand.clash>
0.0000

> <Gold.PLP.ligand.torsion>
0.1314

> <Gold.PLP.Chemscore.Hbond>
3.7440

> <Gold.PLP.Chemscore.CHOScore>
0.0000

> <Gold.PLP.Chemscore.Metal>
0.0000

> <Gold.Chemscore.Hbonds>
donor molecule, donor type, donor heavy atom, donor atom, acceptor molecule, acceptor atom, score
      P1  H  6896  6907       L1     1  0.60
      P1  H  6896  6908       L1     8  0.08
      P1  H  6934  6947       L1    12  2.00

> <Gold.PLP.Chemscore.Internal.Correction>
0.0545

> <Gold.Rescore>
     Score         DG    S(hbond)    S(metal)    S(lipo)     H(rot)  DE(clash)    DE(int)     intcor
     12.45     -16.21       2.49        0.00      65.17       2.03       0.01       3.75       ----

> <Gold.Chemscore.Fitness>
12.4467

> <Gold.Chemscore.DG>
-16.2082

> <Gold.Chemscore.ZeroCoef>
-5.4800

> <Gold.Chemscore.Hbond>
2.4880

> <Gold.Chemscore.Metal>
0.0000

> <Gold.Chemscore.Lipo>
65.1707

> <Gold.Chemscore.Internal_Hbond>
0.0000

> <Gold.Chemscore.DEClash>
0.0073

> <Gold.Chemscore.DEInternal>
3.7541

> <Gold.Chemscore.Rot>
2.0338

> <Gold.Chemscore.Internal.Correction>
   9.000000E+99

> <Gold.Chemscore.Hbonds>
donor molecule, donor type, donor heavy atom, donor atom, acceptor molecule, acceptor atom, score
      P1  H  6896  6907       L1     1  0.04
      P1  H  6934  6947       L1    12  0.99

> <Gold.Chemscore.Hbond.Weighted>
-8.3098

> <Gold.Chemscore.Metal.Weighted>
-0.0000

> <Gold.Chemscore.Lipo.Weighted>
-7.6250

> <Gold.Chemscore.Internal_Hbond.Weighted>
0.0000

> <Gold.Chemscore.DEClash.Weighted>
0.0073

> <Gold.Chemscore.DEInternal.Weighted>
3.7541

> <Gold.Chemscore.Rot.Weighted>
5.2066

> <Gold.Chemscore.Internal.Correction.Weighted>
   9.000000E+99

> <Gold.Protein.RotatedTorsions>
[ 6907 6896 6895 6894 ] final  -82.58 input  -60.11 | X-H torsion
[ 7974 7965 7964 7962 ] final   43.52 input  175.53 | X-H torsion
[ 8008 7997 7996 7995 ] final  157.01 input   59.86 | X-H torsion
[ 10167 10162 10161 10158 ] final -151.13 input  -65.29 | X-H torsion
[ 10718 10713 10712 10709 ] final -111.59 input   66.30 | X-H torsion
[ 10763 10752 10751 10750 ] final  157.16 input  -60.55 | X-H torsion
[ 11005 11000 10999 10996 ] final  -76.94 input  -57.11 | X-H torsion

> <Gold.Protein.ActiveResidues>
 VAL166  LYS551  ARG553  GLY616  TRP617  ASP618  TYR619  PRO620  LYS621  CYS622 
 ASP623  PHE694  ASN695  SER759  ASP760  ASP761  ALA762  ILE779  LEU786  VAL792 
 PHE793  MET794  SER795  GLU796  ALA797  LYS798  CYS799  TRP800  GLU811  SER814 

> <Gold.Protein.RotatedAtoms>
  150.6895  134.3643  159.4963 H   0  0  0  0  0  0  0  0  0  0  0  0  # atno 6907 bound_to 6896
  152.1467  134.9017  160.0560 H   0  0  0  0  0  0  0  0  0  0  0  0  # atno 6908 bound_to 6896
  152.0130  133.3834  159.4264 H   0  0  0  0  0  0  0  0  0  0  0  0  # atno 6909 bound_to 6896
  146.0648  139.5178  142.9635 H   0  0  0  0  0  0  0  0  0  0  0  0  # atno 7974 bound_to 7965
  156.2389  140.1897  156.7043 H   0  0  0  0  0  0  0  0  0  0  0  0  # atno 8008 bound_to 7997
  154.6159  140.0615  156.9580 H   0  0  0  0  0  0  0  0  0  0  0  0  # atno 8009 bound_to 7997
  155.1941  140.3287  155.4356 H   0  0  0  0  0  0  0  0  0  0  0  0  # atno 8010 bound_to 7997
  139.7294  143.8832  152.2530 H   0  0  0  0  0  0  0  0  0  0  0  0  # atno 10167 bound_to 10162
  156.0656  130.5875  150.8393 H   0  0  0  0  0  0  0  0  0  0  0  0  # atno 10718 bound_to 10713
  154.1958  135.2792  155.3007 H   0  0  0  0  0  0  0  0  0  0  0  0  # atno 10763 bound_to 10752
  154.5893  135.5565  153.7266 H   0  0  0  0  0  0  0  0  0  0  0  0  # atno 10764 bound_to 10752
  153.0100  135.6364  154.2097 H   0  0  0  0  0  0  0  0  0  0  0  0  # atno 10765 bound_to 10752
  141.1657  133.7003  156.7744 H   0  0  0  0  0  0  0  0  0  0  0  0  # atno 11005 bound_to 11000
  145.6496  141.0266  143.1767 LP  0  0  0  0  0  0  0  0  0  0  0  0  # atno 17320 bound_to 7965
  144.7196  139.8076  143.7386 LP  0  0  0  0  0  0  0  0  0  0  0  0  # atno 17321 bound_to 7965
  139.8750  144.7048  150.8943 LP  0  0  0  0  0  0  0  0  0  0  0  0  # atno 17342 bound_to 10162
  140.7768  143.3707  151.1655 LP  0  0  0  0  0  0  0  0  0  0  0  0  # atno 17343 bound_to 10162
  157.5695  131.0946  150.9440 LP  0  0  0  0  0  0  0  0  0  0  0  0  # atno 17370 bound_to 10713
  156.9659  130.5473  149.5288 LP  0  0  0  0  0  0  0  0  0  0  0  0  # atno 17371 bound_to 10713
  140.2440  134.8592  157.3602 LP  0  0  0  0  0  0  0  0  0  0  0  0  # atno 17394 bound_to 11000
  140.1768  134.4540  155.7797 LP  0  0  0  0  0  0  0  0  0  0  0  0  # atno 17395 bound_to 11000

$$$$
