AV-unprocessed.smi:1961|AV-procd|sdf|7918|dock10
  -GOLD-   2272010 83D 1   1.00000     0.00000
 Structure written by MMmdl.
 36 37  0  0  0  0  0  0  0  0  1 V2000
  152.1433  141.2564  158.0514 C   0  0  0  0  0  0  0  0  0  0  0  0
  151.1572  141.8484  157.0338 C   0  0  0  0  0  0  0  0  0  0  0  0
  149.9341  142.5048  157.6915 C   0  0  0  0  0  0  0  0  0  0  0  0
  150.7682  140.8572  155.9811 C   0  0  0  0  0  0  0  0  0  0  0  0
  151.6624  140.1340  155.2934 N   0  0  0  0  0  0  0  0  0  0  0  0
  151.0614  139.2834  154.3763 N   0  0  0  0  0  0  0  0  0  0  0  0
  149.7258  139.3884  154.3980 C   0  0  0  0  0  0  0  0  0  0  0  0
  148.8606  138.6307  153.5649 N   0  0  0  0  0  0  0  0  0  0  0  0
  147.5232  138.7167  153.4547 C   0  0  0  0  0  0  0  0  0  0  0  0
  146.8034  139.4858  154.0921 O   0  0  0  0  0  0  0  0  0  0  0  0
  147.0544  137.8468  152.5486 N   0  0  0  0  0  0  0  0  0  0  0  0
  145.6493  137.6915  152.1871 C   0  0  0  0  0  0  0  0  0  0  0  0
  145.2266  136.2133  152.1253 C   0  0  2  0  0  0  0  0  0  0  0  0
  145.5729  135.5000  150.8162 C   0  0  0  0  0  0  0  0  0  0  0  0
  144.4874  134.4414  150.6766 C   0  0  0  0  0  0  0  0  0  0  0  0
  143.4938  134.7703  151.7931 C   0  0  0  0  0  0  0  0  0  0  0  0
  143.8140  136.0983  152.1792 O   0  0  0  0  0  0  0  0  0  0  0  0
  149.0890  140.5498  155.5496 S   0  0  0  0  0  0  0  0  0  0  0  0
  153.0364  140.8744  157.5559 H   0  0  0  0  0  0  0  0  0  0  0  0
  151.6932  140.4338  158.6084 H   0  0  0  0  0  0  0  0  0  0  0  0
  152.4623  142.0096  158.7723 H   0  0  0  0  0  0  0  0  0  0  0  0
  151.6930  142.6475  156.5197 H   0  0  0  0  0  0  0  0  0  0  0  0
  149.3009  142.9885  156.9470 H   0  0  0  0  0  0  0  0  0  0  0  0
  150.2358  143.2654  158.4121 H   0  0  0  0  0  0  0  0  0  0  0  0
  149.3259  141.7699  158.2201 H   0  0  0  0  0  0  0  0  0  0  0  0
  149.3154  137.9495  152.9751 H   0  0  0  0  0  0  0  0  0  0  0  0
  147.7148  137.2511  152.0713 H   0  0  0  0  0  0  0  0  0  0  0  0
  145.0196  138.2343  152.8940 H   0  0  0  0  0  0  0  0  0  0  0  0
  145.4964  138.1626  151.2158 H   0  0  0  0  0  0  0  0  0  0  0  0
  145.6474  135.6628  152.9690 H   0  0  0  0  0  0  0  0  0  0  0  0
  145.5144  136.1937  149.9762 H   0  0  0  0  0  0  0  0  0  0  0  0
  146.5776  135.0765  150.8308 H   0  0  0  0  0  0  0  0  0  0  0  0
  144.0139  134.5106  149.6967 H   0  0  0  0  0  0  0  0  0  0  0  0
  144.8828  133.4311  150.7876 H   0  0  0  0  0  0  0  0  0  0  0  0
  142.4556  134.6876  151.4710 H   0  0  0  0  0  0  0  0  0  0  0  0
  143.6403  134.1052  152.6457 H   0  0  0  0  0  0  0  0  0  0  0  0
  1  2  1  0  0  0  0
  1 19  1  0  0  0  0
  1 20  1  0  0  0  0
  1 21  1  0  0  0  0
  2  3  1  0  0  0  0
  2  4  1  0  0  0  0
  2 22  1  0  0  0  0
  3 23  1  0  0  0  0
  3 24  1  0  0  0  0
  3 25  1  0  0  0  0
  4 18  1  0  0  0  0
  4  5  2  0  0  0  0
  5  6  1  0  0  0  0
  6  7  2  0  0  0  0
  7  8  1  0  0  0  0
  7 18  1  0  0  0  0
  8  9  1  0  0  0  0
  8 26  1  0  0  0  0
  9 10  2  0  0  0  0
  9 11  1  0  0  0  0
 11 12  1  0  0  0  0
 11 27  1  0  0  0  0
 12 13  1  0  0  0  0
 12 28  1  0  0  0  0
 12 29  1  0  0  0  0
 13 17  1  0  0  0  0
 13 14  1  0  0  0  0
 13 30  1  0  0  0  0
 14 15  1  0  0  0  0
 14 31  1  0  0  0  0
 14 32  1  0  0  0  0
 15 16  1  0  0  0  0
 15 33  1  0  0  0  0
 15 34  1  0  0  0  0
 16 17  1  0  0  0  0
 16 35  1  0  0  0  0
 16 36  1  0  0  0  0
M  END
> <s_m_source_file>
AV-unprocessed.smi

> <i_m_source_file_index>
1961

> <i_lp_mmshare_version>
43012

> <i_f3d_flags>
0

> <s_epik_input>
W0NIM11bQ0hdKFtDSDNdKWMxbm5jKHMxKVtOSF1DKD1PKVtOSF1bQ0gyXVtDQEBIXTJbQ0gyXVtDSDJdW0NIMl1PMg==

> <s_epik_cmdline>
J2VwaWtfcHl0aG9uJywgJy1waCcsICc3LjAnLCAnLXRuJywgJzgnLCAnLW1hJywgJzIwMCcsICctbWV0YWxfYmluZGluZycsICctaW1hZScsICc8aW5maWxlLm1hZT4nLCAnLW9tYWUnLCAnPG91dGZpbGUubWFlPic=

> <r_lp_tautomer_probability>
1

> <r_epik_Ionization_Penalty>
0.000505257

> <r_epik_Ionization_Penalty_Charging>
0

> <r_epik_Ionization_Penalty_Neutral>
0.000505257

> <r_epik_State_Penalty>
-0

> <r_epik_Charging_Adjusted_Penalty>
0

> <i_epik_Tot_Q>
0

> <i_epik_Tot_abs_Q>
0

> <r_epik_Metal_State_Penalty>
0.219912

> <b_epik_Metal_Only>
0

> <s_lp_Force_Field>
OPLS_2005

> <r_lp_Energy>
10.186

> <b_lp_Chiralities_Consistent>
1

> <s_lp_Variant>
AV-unprocessed.smi:1961-1

> <Gold.Version>
5.8.1

> <Gold.Id.Protein>
6NUR|6NUR_protein|mol2

> <Gold.PLP.Fitness>
35.1350

> <Gold.PLP.PLP>
-30.2890

> <Gold.PLP.part.hbond>
-5.0000

> <Gold.PLP.part.metal>
0.0000

> <Gold.PLP.part.buried>
-4.3350

> <Gold.PLP.part.nonpolar>
-21.9314

> <Gold.PLP.part.repulsive>
0.5753

> <Gold.PLP.ligand.clash>
0.0000

> <Gold.PLP.ligand.torsion>
0.3831

> <Gold.PLP.Chemscore.Hbond>
1.8437

> <Gold.PLP.Chemscore.CHOScore>
0.0000

> <Gold.PLP.Chemscore.Metal>
0.0000

> <Gold.Chemscore.Hbonds>
donor molecule, donor type, donor heavy atom, donor atom, acceptor molecule, acceptor atom, score
      L1  H     8    26       P1  7948  0.84
      L1  H    11    27       P1  7948  1.00

> <Gold.PLP.Chemscore.Internal.Correction>
0.0810

> <Gold.Rescore>
     Score         DG    S(hbond)    S(metal)    S(lipo)     H(rot)  DE(clash)    DE(int)     intcor
     13.73     -15.37       1.90        0.00      61.96       1.45       0.05       1.59       ----

> <Gold.Chemscore.Fitness>
13.7288

> <Gold.Chemscore.DG>
-15.3688

> <Gold.Chemscore.ZeroCoef>
-5.4800

> <Gold.Chemscore.Hbond>
1.8985

> <Gold.Chemscore.Metal>
0.0000

> <Gold.Chemscore.Lipo>
61.9633

> <Gold.Chemscore.Internal_Hbond>
0.0000

> <Gold.Chemscore.DEClash>
0.0453

> <Gold.Chemscore.DEInternal>
1.5947

> <Gold.Chemscore.Rot>
1.4461

> <Gold.Chemscore.Internal.Correction>
   9.000000E+99

> <Gold.Chemscore.Hbonds>
donor molecule, donor type, donor heavy atom, donor atom, acceptor molecule, acceptor atom, score
      L1  H     8    26       P1  7948  0.76
      L1  H    11    27       P1  7948  0.98

> <Gold.Chemscore.Hbond.Weighted>
-6.3411

> <Gold.Chemscore.Metal.Weighted>
-0.0000

> <Gold.Chemscore.Lipo.Weighted>
-7.2497

> <Gold.Chemscore.Internal_Hbond.Weighted>
0.0000

> <Gold.Chemscore.DEClash.Weighted>
0.0453

> <Gold.Chemscore.DEInternal.Weighted>
1.5947

> <Gold.Chemscore.Rot.Weighted>
3.7019

> <Gold.Chemscore.Internal.Correction.Weighted>
   9.000000E+99

> <Gold.Protein.RotatedTorsions>
[ 6907 6896 6895 6894 ] final   35.59 input  -60.11 | X-H torsion
[ 7974 7965 7964 7962 ] final   72.52 input  175.53 | X-H torsion
[ 8008 7997 7996 7995 ] final  -93.38 input   59.86 | X-H torsion
[ 10167 10162 10161 10158 ] final   67.17 input  -65.29 | X-H torsion
[ 10718 10713 10712 10709 ] final -117.97 input   66.30 | X-H torsion
[ 10763 10752 10751 10750 ] final -151.80 input  -60.55 | X-H torsion
[ 11005 11000 10999 10996 ] final   82.06 input  -57.11 | X-H torsion

> <Gold.Protein.ActiveResidues>
 VAL166  LYS551  ARG553  GLY616  TRP617  ASP618  TYR619  PRO620  LYS621  CYS622 
 ASP623  PHE694  ASN695  SER759  ASP760  ASP761  ALA762  ILE779  LEU786  VAL792 
 PHE793  MET794  SER795  GLU796  ALA797  LYS798  CYS799  TRP800  GLU811  SER814 

> <Gold.Protein.RotatedAtoms>
  152.1182  134.9225  160.0563 H   0  0  0  0  0  0  0  0  0  0  0  0  # atno 6907 bound_to 6896
  152.0376  133.3958  159.4331 H   0  0  0  0  0  0  0  0  0  0  0  0  # atno 6908 bound_to 6896
  150.6847  134.3372  159.4896 H   0  0  0  0  0  0  0  0  0  0  0  0  # atno 6909 bound_to 6896
  145.7524  139.2765  143.1423 H   0  0  0  0  0  0  0  0  0  0  0  0  # atno 7974 bound_to 7965
  154.7349  140.0499  157.0760 H   0  0  0  0  0  0  0  0  0  0  0  0  # atno 8008 bound_to 7997
  155.0253  140.3151  155.4759 H   0  0  0  0  0  0  0  0  0  0  0  0  # atno 8009 bound_to 7997
  156.2850  140.2159  156.5372 H   0  0  0  0  0  0  0  0  0  0  0  0  # atno 8010 bound_to 7997
  140.0924  144.4976  150.7090 H   0  0  0  0  0  0  0  0  0  0  0  0  # atno 10167 bound_to 10162
  156.1072  130.6220  150.9232 H   0  0  0  0  0  0  0  0  0  0  0  0  # atno 10718 bound_to 10713
  154.8035  135.3251  154.7491 H   0  0  0  0  0  0  0  0  0  0  0  0  # atno 10763 bound_to 10752
  153.8154  135.6892  153.4839 H   0  0  0  0  0  0  0  0  0  0  0  0  # atno 10764 bound_to 10752
  153.1765  135.4603  154.9916 H   0  0  0  0  0  0  0  0  0  0  0  0  # atno 10765 bound_to 10752
  139.9076  134.8043  156.2124 H   0  0  0  0  0  0  0  0  0  0  0  0  # atno 11005 bound_to 11000
  146.0344  140.8227  142.9860 LP  0  0  0  0  0  0  0  0  0  0  0  0  # atno 17320 bound_to 7965
  144.6847  140.2816  143.7291 LP  0  0  0  0  0  0  0  0  0  0  0  0  # atno 17321 bound_to 7965
  140.7021  143.2442  151.4833 LP  0  0  0  0  0  0  0  0  0  0  0  0  # atno 17342 bound_to 10162
  139.5717  144.1913  152.1845 LP  0  0  0  0  0  0  0  0  0  0  0  0  # atno 17343 bound_to 10162
  157.6250  131.0926  150.8551 LP  0  0  0  0  0  0  0  0  0  0  0  0  # atno 17370 bound_to 10713
  156.8668  130.5132  149.5299 LP  0  0  0  0  0  0  0  0  0  0  0  0  # atno 17371 bound_to 10713
  141.0457  133.6914  156.1678 LP  0  0  0  0  0  0  0  0  0  0  0  0  # atno 17394 bound_to 11000
  140.6888  134.4688  157.5589 LP  0  0  0  0  0  0  0  0  0  0  0  0  # atno 17395 bound_to 11000

$$$$
