AV-unprocessed.smi:1508|AV-procd|sdf|6088|dock4
  -GOLD-   22720 6213D 1   1.00000     0.00000
 Structure written by MMmdl.
 37 38  0  0  0  0  0  0  0  0  3 V2000
  149.4046  132.0496  154.8997 C   0  0  0  0  0  0  0  0  0  0  0  0
  148.8058  132.2983  153.5064 C   0  0  0  0  0  0  0  0  0  0  0  0
  147.5039  131.5067  153.2051 C   0  0  2  0  0  0  0  0  0  0  0  0
  147.6630  129.9850  153.4728 C   0  0  0  0  0  0  0  0  0  0  0  0
  148.2151  129.2659  152.3292 N   0  0  0  0  0  0  0  0  0  0  0  0
  148.2157  127.9346  152.1725 C   0  0  0  0  0  0  0  0  0  0  0  0
  147.6998  127.2151  153.0310 O   0  0  0  0  0  0  0  0  0  0  0  0
  148.8214  127.5206  151.0377 N   0  5  0  0  0  0  0  0  0  0  0  0
  149.0050  126.2083  150.8171 C   0  0  0  0  0  0  0  0  0  0  0  0
  148.2296  125.2685  151.3814 N   0  0  0  0  0  0  0  0  0  0  0  0
  148.5882  123.9767  151.0210 N   0  0  0  0  0  0  0  0  0  0  0  0
  149.6244  123.9760  150.1827 C   0  0  0  0  0  0  0  0  0  0  0  0
  150.2549  125.5528  149.7562 S   0  0  0  0  0  0  0  0  0  0  0  0
  146.9977  131.7616  151.8248 N   0  3  0  0  0  0  0  0  0  0  0  0
  145.8297  130.9389  151.4175 C   0  0  0  0  0  0  0  0  0  0  0  0
  144.9230  131.8266  150.5540 C   0  0  0  0  0  0  0  0  0  0  0  0
  145.7390  133.0878  150.2964 C   0  0  0  0  0  0  0  0  0  0  0  0
  146.6477  133.1655  151.5171 C   0  0  0  0  0  0  0  0  0  0  0  0
  150.3333  132.6073  155.0213 H   0  0  0  0  0  0  0  0  0  0  0  0
  149.6316  130.9955  155.0586 H   0  0  0  0  0  0  0  0  0  0  0  0
  148.7284  132.3723  155.6909 H   0  0  0  0  0  0  0  0  0  0  0  0
  148.6159  133.3663  153.3979 H   0  0  0  0  0  0  0  0  0  0  0  0
  149.5611  132.0819  152.7512 H   0  0  0  0  0  0  0  0  0  0  0  0
  146.7407  131.8877  153.8856 H   0  0  0  0  0  0  0  0  0  0  0  0
  148.3046  129.7940  154.3334 H   0  0  0  0  0  0  0  0  0  0  0  0
  146.6990  129.5398  153.7189 H   0  0  0  0  0  0  0  0  0  0  0  0
  148.6425  129.8192  151.6007 H   0  0  0  0  0  0  0  0  0  0  0  0
  150.0181  123.0419  149.8110 H   0  0  0  0  0  0  0  0  0  0  0  0
  146.1789  130.0671  150.8634 H   0  0  0  0  0  0  0  0  0  0  0  0
  145.2681  130.5810  152.2820 H   0  0  0  0  0  0  0  0  0  0  0  0
  144.6133  131.3368  149.6305 H   0  0  0  0  0  0  0  0  0  0  0  0
  144.0207  132.0807  151.1119 H   0  0  0  0  0  0  0  0  0  0  0  0
  146.3397  132.9638  149.3944 H   0  0  0  0  0  0  0  0  0  0  0  0
  145.1194  133.9763  150.1705 H   0  0  0  0  0  0  0  0  0  0  0  0
  146.1016  133.6021  152.3554 H   0  0  0  0  0  0  0  0  0  0  0  0
  147.5302  133.7771  151.3274 H   0  0  0  0  0  0  0  0  0  0  0  0
  147.7444  131.5194  151.1891 H   0  0  0  0  0  0  0  0  0  0  0  0
  1  2  1  0  0  0  0
  1 19  1  0  0  0  0
  1 20  1  0  0  0  0
  1 21  1  0  0  0  0
  2  3  1  0  0  0  0
  2 22  1  0  0  0  0
  2 23  1  0  0  0  0
  3  4  1  0  0  0  0
  3 14  1  0  0  0  0
  3 24  1  0  0  0  0
  4  5  1  0  0  0  0
  4 25  1  0  0  0  0
  4 26  1  0  0  0  0
  5  6  1  0  0  0  0
  5 27  1  0  0  0  0
  6  7  2  0  0  0  0
  6  8  1  0  0  0  0
  8  9  1  0  0  0  0
  9 13  1  0  0  0  0
  9 10  2  0  0  0  0
 10 11  1  0  0  0  0
 11 12  2  0  0  0  0
 12 13  1  0  0  0  0
 12 28  1  0  0  0  0
 14 18  1  0  0  0  0
 14 15  1  0  0  0  0
 14 37  1  0  0  0  0
 15 16  1  0  0  0  0
 15 29  1  0  0  0  0
 15 30  1  0  0  0  0
 16 17  1  0  0  0  0
 16 31  1  0  0  0  0
 16 32  1  0  0  0  0
 17 18  1  0  0  0  0
 17 33  1  0  0  0  0
 17 34  1  0  0  0  0
 18 35  1  0  0  0  0
 18 36  1  0  0  0  0
M  CHG  1   8  -1
M  CHG  1  14   1
M  END
> <s_m_source_file>
AV-unprocessed.smi

> <i_m_source_file_index>
1508

> <i_lp_mmshare_version>
43012

> <i_f3d_flags>
0

> <s_epik_input>
W0NIMl0xW0NIMl1bQ0gyXVtDSDJdTjFbQ0BIXShbQ0gyXVtDSDNdKVtDSDJdW05IXUMoPU8pW05IXWMybm5bY0hdczI=

> <s_epik_cmdline>
J2VwaWtfcHl0aG9uJywgJy1waCcsICc3LjAnLCAnLXRuJywgJzgnLCAnLW1hJywgJzIwMCcsICctbWV0YWxfYmluZGluZycsICctaW1hZScsICc8aW5maWxlLm1hZT4nLCAnLW9tYWUnLCAnPG91dGZpbGUubWFlPic=

> <r_lp_tautomer_probability>
1

> <r_epik_Ionization_Penalty>
3.98086

> <r_epik_Ionization_Penalty_Charging>
3.94833

> <r_epik_Ionization_Penalty_Neutral>
0.032525

> <r_epik_State_Penalty>
3.94643

> <r_epik_Charging_Adjusted_Penalty>
7.89477

> <i_epik_Tot_Q>
0

> <i_epik_Tot_abs_Q>
2

> <r_epik_Metal_State_Penalty>
0.605555

> <b_epik_Metal_Only>
1

> <s_lp_Force_Field>
OPLS_2005

> <r_lp_Energy>
24.3568

> <b_lp_Chiralities_Consistent>
1

> <s_lp_Variant>
AV-unprocessed.smi:1508-3

> <Gold.Version>
5.8.1

> <Gold.Id.Protein>
6NUR|6NUR_protein|mol2

> <Gold.PLP.Fitness>
38.2247

> <Gold.PLP.PLP>
-33.1841

> <Gold.PLP.part.hbond>
-2.5158

> <Gold.PLP.part.metal>
0.0000

> <Gold.PLP.part.buried>
-5.0868

> <Gold.PLP.part.nonpolar>
-25.5733

> <Gold.PLP.part.repulsive>
0.3338

> <Gold.PLP.ligand.clash>
0.0000

> <Gold.PLP.ligand.torsion>
0.5322

> <Gold.PLP.Chemscore.Hbond>
2.0000

> <Gold.PLP.Chemscore.CHOScore>
0.0000

> <Gold.PLP.Chemscore.Metal>
0.0000

> <Gold.Chemscore.Hbonds>
donor molecule, donor type, donor heavy atom, donor atom, acceptor molecule, acceptor atom, score
      L1  H     5    27       P1 10747  0.95
      L1  H    14    37       P1 10747  1.00

> <Gold.PLP.Chemscore.Internal.Correction>
0.1051

> <Gold.Rescore>
     Score         DG    S(hbond)    S(metal)    S(lipo)     H(rot)  DE(clash)    DE(int)     intcor
     11.53     -13.64       1.65        0.00      63.25       1.86       0.02       2.09       ----

> <Gold.Chemscore.Fitness>
11.5280

> <Gold.Chemscore.DG>
-13.6381

> <Gold.Chemscore.ZeroCoef>
-5.4800

> <Gold.Chemscore.Hbond>
1.6505

> <Gold.Chemscore.Metal>
0.0000

> <Gold.Chemscore.Lipo>
63.2523

> <Gold.Chemscore.Internal_Hbond>
0.0000

> <Gold.Chemscore.DEClash>
0.0234

> <Gold.Chemscore.DEInternal>
2.0867

> <Gold.Chemscore.Rot>
1.8575

> <Gold.Chemscore.Internal.Correction>
   9.000000E+99

> <Gold.Chemscore.Hbonds>
donor molecule, donor type, donor heavy atom, donor atom, acceptor molecule, acceptor atom, score
      L1  H     5    27       P1 10747  0.22
      L1  H    14    37       P1 10747  1.00

> <Gold.Chemscore.Hbond.Weighted>
-5.5127

> <Gold.Chemscore.Metal.Weighted>
-0.0000

> <Gold.Chemscore.Lipo.Weighted>
-7.4005

> <Gold.Chemscore.Internal_Hbond.Weighted>
0.0000

> <Gold.Chemscore.DEClash.Weighted>
0.0234

> <Gold.Chemscore.DEInternal.Weighted>
2.0867

> <Gold.Chemscore.Rot.Weighted>
4.7551

> <Gold.Chemscore.Internal.Correction.Weighted>
   9.000000E+99

> <Gold.Protein.RotatedTorsions>
[ 6907 6896 6895 6894 ] final   97.55 input  -60.11 | X-H torsion
[ 7974 7965 7964 7962 ] final   79.25 input  175.53 | X-H torsion
[ 8008 7997 7996 7995 ] final  -60.32 input   59.86 | X-H torsion
[ 10167 10162 10161 10158 ] final  -52.82 input  -65.29 | X-H torsion
[ 10718 10713 10712 10709 ] final  -81.30 input   66.30 | X-H torsion
[ 10763 10752 10751 10750 ] final -137.07 input  -60.55 | X-H torsion
[ 11005 11000 10999 10996 ] final  -69.08 input  -57.11 | X-H torsion

> <Gold.Protein.ActiveResidues>
 VAL166  LYS551  ARG553  GLY616  TRP617  ASP618  TYR619  PRO620  LYS621  CYS622 
 ASP623  PHE694  ASN695  SER759  ASP760  ASP761  ALA762  ILE779  LEU786  VAL792 
 PHE793  MET794  SER795  GLU796  ALA797  LYS798  CYS799  TRP800  GLU811  SER814 

> <Gold.Protein.RotatedAtoms>
  152.5422  134.0716  159.8196 H   0  0  0  0  0  0  0  0  0  0  0  0  # atno 6907 bound_to 6896
  151.0830  133.5368  159.2627 H   0  0  0  0  0  0  0  0  0  0  0  0  # atno 6908 bound_to 6896
  151.2188  135.0519  159.8995 H   0  0  0  0  0  0  0  0  0  0  0  0  # atno 6909 bound_to 6896
  145.6667  139.2485  143.1892 H   0  0  0  0  0  0  0  0  0  0  0  0  # atno 7974 bound_to 7965
  154.4393  140.1042  156.6255 H   0  0  0  0  0  0  0  0  0  0  0  0  # atno 8008 bound_to 7997
  155.5661  140.3488  155.4485 H   0  0  0  0  0  0  0  0  0  0  0  0  # atno 8009 bound_to 7997
  156.0424  140.1285  157.0130 H   0  0  0  0  0  0  0  0  0  0  0  0  # atno 8010 bound_to 7997
  140.6517  143.2571  151.4703 H   0  0  0  0  0  0  0  0  0  0  0  0  # atno 10167 bound_to 10162
  156.0053  130.4599  150.3931 H   0  0  0  0  0  0  0  0  0  0  0  0  # atno 10718 bound_to 10713
  154.8670  135.3653  154.5164 H   0  0  0  0  0  0  0  0  0  0  0  0  # atno 10763 bound_to 10752
  153.5796  135.7018  153.5474 H   0  0  0  0  0  0  0  0  0  0  0  0  # atno 10764 bound_to 10752
  153.3469  135.4083  155.1578 H   0  0  0  0  0  0  0  0  0  0  0  0  # atno 10765 bound_to 10752
  141.1546  133.6756  156.6544 H   0  0  0  0  0  0  0  0  0  0  0  0  # atno 11005 bound_to 11000
  146.1080  140.7463  142.9517 LP  0  0  0  0  0  0  0  0  0  0  0  0  # atno 17320 bound_to 7965
  144.7070  140.3893  143.7110 LP  0  0  0  0  0  0  0  0  0  0  0  0  # atno 17321 bound_to 7965
  139.5733  144.1877  152.1868 LP  0  0  0  0  0  0  0  0  0  0  0  0  # atno 17342 bound_to 10162
  140.1180  144.5399  150.6881 LP  0  0  0  0  0  0  0  0  0  0  0  0  # atno 17343 bound_to 10162
  157.2005  131.0437  151.2653 LP  0  0  0  0  0  0  0  0  0  0  0  0  # atno 17370 bound_to 10713
  157.3980  130.7318  149.6746 LP  0  0  0  0  0  0  0  0  0  0  0  0  # atno 17371 bound_to 10713
  140.3295  134.7940  157.4315 LP  0  0  0  0  0  0  0  0  0  0  0  0  # atno 17394 bound_to 11000
  140.1028  134.5449  155.8337 LP  0  0  0  0  0  0  0  0  0  0  0  0  # atno 17395 bound_to 11000

$$$$
