AV-unprocessed.smi:2862|AV-procd|sdf|11008|dock7
  -GOLD-   2272015463D 1   1.00000     0.00000
 Structure written by MMmdl.
 52 54  0  0  0  0  0  0  0  0  1 V2000
  149.5792  135.1156  156.8017 C   0  0  0  0  0  0  0  0  0  0  0  0
  149.7970  134.8915  155.2956 C   0  0  2  0  0  0  0  0  0  0  0  0
  150.0872  136.1682  154.6487 N   0  0  0  0  0  0  0  0  0  0  0  0
  151.0191  137.0525  155.0490 C   0  0  0  0  0  0  0  0  0  0  0  0
  151.7733  136.8395  155.9977 O   0  0  0  0  0  0  0  0  0  0  0  0
  151.1312  138.3920  154.3008 C   0  0  0  0  0  0  0  0  0  0  0  0
  150.2685  139.4691  154.8189 N   0  0  0  0  0  0  0  0  0  0  0  0
  149.1740  139.8456  154.0132 C   0  0  0  0  0  0  0  0  0  0  0  0
  148.3157  140.8113  154.3774 C   0  0  0  0  0  0  0  0  0  0  0  0
  148.5326  141.4799  155.6369 C   0  0  0  0  0  0  0  0  0  0  0  0
  149.5920  141.1438  156.4013 C   0  0  0  0  0  0  0  0  0  0  0  0
  149.8106  141.7807  157.6989 C   0  0  0  0  0  0  0  0  0  0  0  0
  149.0388  141.5929  158.6413 O   0  0  0  0  0  0  0  0  0  0  0  0
  150.8863  142.6129  157.8110 N   0  0  0  0  0  0  0  0  0  0  0  0
  151.6945  142.8558  156.6071 C   0  0  0  0  0  0  0  0  0  0  0  0
  151.4306  143.1960  159.0602 C   0  0  2  0  0  0  0  0  0  0  0  0
  151.4359  144.7353  159.0016 C   0  0  0  0  0  0  0  0  0  0  0  0
  152.7803  142.6275  159.4711 C   0  0  0  0  0  0  0  0  0  0  0  0
  152.8990  141.2217  160.0086 C   0  0  0  0  0  0  0  0  0  0  0  0
  153.1235  142.4035  160.9250 C   0  0  0  0  0  0  0  0  0  0  0  0
  150.5306  140.0629  156.0247 C   0  0  0  0  0  0  0  0  0  0  0  0
  151.4815  139.7021  156.7230 O   0  0  0  0  0  0  0  0  0  0  0  0
  148.6044  134.1783  154.6858 C   0  0  0  0  0  0  0  0  0  0  0  0
  148.4017  132.6972  154.9071 C   0  0  0  0  0  0  0  0  0  0  0  0
  148.7659  133.2125  153.5354 C   0  0  0  0  0  0  0  0  0  0  0  0
  149.3964  134.1721  157.3165 H   0  0  0  0  0  0  0  0  0  0  0  0
  148.7226  135.7652  156.9861 H   0  0  0  0  0  0  0  0  0  0  0  0
  150.4512  135.5747  157.2681 H   0  0  0  0  0  0  0  0  0  0  0  0
  150.6620  134.2369  155.1732 H   0  0  0  0  0  0  0  0  0  0  0  0
  149.5092  136.4174  153.8590 H   0  0  0  0  0  0  0  0  0  0  0  0
  152.1739  138.7101  154.3456 H   0  0  0  0  0  0  0  0  0  0  0  0
  150.9452  138.2137  153.2403 H   0  0  0  0  0  0  0  0  0  0  0  0
  149.0827  139.3026  153.0834 H   0  0  0  0  0  0  0  0  0  0  0  0
  147.4859  141.0837  153.7418 H   0  0  0  0  0  0  0  0  0  0  0  0
  147.8461  142.2513  155.9564 H   0  0  0  0  0  0  0  0  0  0  0  0
  152.0732  141.9172  156.1991 H   0  0  0  0  0  0  0  0  0  0  0  0
  152.5611  143.4900  156.7884 H   0  0  0  0  0  0  0  0  0  0  0  0
  151.0940  143.3438  155.8383 H   0  0  0  0  0  0  0  0  0  0  0  0
  150.7789  142.9662  159.9002 H   0  0  0  0  0  0  0  0  0  0  0  0
  151.7111  145.1588  159.9659 H   0  0  0  0  0  0  0  0  0  0  0  0
  150.4526  145.1282  158.7455 H   0  0  0  0  0  0  0  0  0  0  0  0
  152.1461  145.1212  158.2715 H   0  0  0  0  0  0  0  0  0  0  0  0
  153.6075  142.9627  158.8488 H   0  0  0  0  0  0  0  0  0  0  0  0
  151.9821  140.6509  160.1413 H   0  0  0  0  0  0  0  0  0  0  0  0
  153.7701  140.6423  159.7094 H   0  0  0  0  0  0  0  0  0  0  0  0
  154.1445  142.6117  161.2380 H   0  0  0  0  0  0  0  0  0  0  0  0
  152.3573  142.6055  161.6700 H   0  0  0  0  0  0  0  0  0  0  0  0
  147.6948  134.7762  154.6835 H   0  0  0  0  0  0  0  0  0  0  0  0
  149.1679  132.1545  155.4572 H   0  0  0  0  0  0  0  0  0  0  0  0
  147.3825  132.3478  155.0590 H   0  0  0  0  0  0  0  0  0  0  0  0
  147.9855  133.1879  152.7784 H   0  0  0  0  0  0  0  0  0  0  0  0
  149.7734  133.0159  153.1741 H   0  0  0  0  0  0  0  0  0  0  0  0
  1  2  1  0  0  0  0
  1 26  1  0  0  0  0
  1 27  1  0  0  0  0
  1 28  1  0  0  0  0
  2  3  1  0  0  0  0
  2 23  1  0  0  0  0
  2 29  1  0  0  0  0
  3  4  1  0  0  0  0
  3 30  1  0  0  0  0
  4  5  2  0  0  0  0
  4  6  1  0  0  0  0
  6  7  1  0  0  0  0
  6 31  1  0  0  0  0
  6 32  1  0  0  0  0
  7 21  1  0  0  0  0
  7  8  1  0  0  0  0
  8  9  2  0  0  0  0
  8 33  1  0  0  0  0
  9 10  1  0  0  0  0
  9 34  1  0  0  0  0
 10 11  2  0  0  0  0
 10 35  1  0  0  0  0
 11 12  1  0  0  0  0
 11 21  1  0  0  0  0
 12 13  2  0  0  0  0
 12 14  1  0  0  0  0
 14 15  1  0  0  0  0
 14 16  1  0  0  0  0
 15 36  1  0  0  0  0
 15 37  1  0  0  0  0
 15 38  1  0  0  0  0
 16 17  1  0  0  0  0
 16 18  1  0  0  0  0
 16 39  1  0  0  0  0
 17 40  1  0  0  0  0
 17 41  1  0  0  0  0
 17 42  1  0  0  0  0
 18 20  1  0  0  0  0
 18 19  1  0  0  0  0
 18 43  1  0  0  0  0
 19 20  1  0  0  0  0
 19 44  1  0  0  0  0
 19 45  1  0  0  0  0
 20 46  1  0  0  0  0
 20 47  1  0  0  0  0
 21 22  2  0  0  0  0
 23 25  1  0  0  0  0
 23 24  1  0  0  0  0
 23 48  1  0  0  0  0
 24 25  1  0  0  0  0
 24 49  1  0  0  0  0
 24 50  1  0  0  0  0
 25 51  1  0  0  0  0
 25 52  1  0  0  0  0
M  END
> <s_m_source_file>
AV-unprocessed.smi

> <i_m_source_file_index>
2862

> <i_lp_mmshare_version>
43012

> <i_f3d_flags>
0

> <s_epik_input>
W0NIMl0xW0NIMl1bQ0hdMVtDQEhdKFtDSDNdKVtOSF1DKD1PKVtDSDJdbjJbY0hdW2NIXVtjSF1jKGMyPU8pQyg9TylOKFtDSDNdKVtDQEhdKFtDSDNdKVtDSF0zW0NIMl1bQ0gyXTM=

> <s_epik_cmdline>
J2VwaWtfcHl0aG9uJywgJy1waCcsICc3LjAnLCAnLXRuJywgJzgnLCAnLW1hJywgJzIwMCcsICctbWV0YWxfYmluZGluZycsICctaW1hZScsICc8aW5maWxlLm1hZT4nLCAnLW9tYWUnLCAnPG91dGZpbGUubWFlPic=

> <r_lp_tautomer_probability>
1

> <r_epik_Ionization_Penalty>
4.00841e-08

> <r_epik_Ionization_Penalty_Charging>
2.07773e-08

> <r_epik_Ionization_Penalty_Neutral>
1.93069e-08

> <r_epik_State_Penalty>
-0

> <r_epik_Charging_Adjusted_Penalty>
2.07773e-08

> <i_epik_Tot_Q>
0

> <i_epik_Tot_abs_Q>
0

> <r_epik_Metal_State_Penalty>
-0

> <b_epik_Metal_Only>
0

> <s_lp_Force_Field>
OPLS_2005

> <r_lp_Energy>
63.2381

> <b_lp_Chiralities_Consistent>
1

> <s_lp_Variant>
AV-unprocessed.smi:2862-1

> <Gold.Version>
5.8.1

> <Gold.Id.Protein>
6NUR|6NUR_protein|mol2

> <Gold.PLP.Fitness>
56.0114

> <Gold.PLP.PLP>
-49.6008

> <Gold.PLP.part.hbond>
-4.3949

> <Gold.PLP.part.metal>
0.0000

> <Gold.PLP.part.buried>
-1.3755

> <Gold.PLP.part.nonpolar>
-42.6881

> <Gold.PLP.part.repulsive>
0.1339

> <Gold.PLP.ligand.clash>
1.1158

> <Gold.PLP.ligand.torsion>
3.0540

> <Gold.PLP.Chemscore.Hbond>
1.9920

> <Gold.PLP.Chemscore.CHOScore>
0.9636

> <Gold.PLP.Chemscore.Metal>
0.0000

> <Gold.Chemscore.Hbonds>
donor molecule, donor type, donor heavy atom, donor atom, acceptor molecule, acceptor atom, score
      L1  H     3    30       P1  7948  0.94
      P1  H 10752 10765       L1     5  0.56
      L1  C     8    33       P1  7957  0.93

> <Gold.PLP.Chemscore.Internal.Correction>
4.7674

> <Gold.Rescore>
     Score         DG    S(hbond)    S(metal)    S(lipo)     H(rot)  DE(clash)    DE(int)     intcor
     12.85     -19.97       1.42        0.00     121.28       1.73       1.67       5.45       ----

> <Gold.Chemscore.Fitness>
12.8540

> <Gold.Chemscore.DG>
-19.9727

> <Gold.Chemscore.ZeroCoef>
-5.4800

> <Gold.Chemscore.Hbond>
1.4205

> <Gold.Chemscore.Metal>
0.0000

> <Gold.Chemscore.Lipo>
121.2762

> <Gold.Chemscore.Internal_Hbond>
0.0000

> <Gold.Chemscore.DEClash>
1.6722

> <Gold.Chemscore.DEInternal>
5.4465

> <Gold.Chemscore.Rot>
1.7348

> <Gold.Chemscore.Internal.Correction>
   9.000000E+99

> <Gold.Chemscore.Hbonds>
donor molecule, donor type, donor heavy atom, donor atom, acceptor molecule, acceptor atom, score
      L1  H     3    30       P1  7948  0.63
      P1  H 10752 10765       L1     5  0.07

> <Gold.Chemscore.Hbond.Weighted>
-4.7445

> <Gold.Chemscore.Metal.Weighted>
-0.0000

> <Gold.Chemscore.Lipo.Weighted>
-14.1893

> <Gold.Chemscore.Internal_Hbond.Weighted>
0.0000

> <Gold.Chemscore.DEClash.Weighted>
1.6722

> <Gold.Chemscore.DEInternal.Weighted>
5.4465

> <Gold.Chemscore.Rot.Weighted>
4.4412

> <Gold.Chemscore.Internal.Correction.Weighted>
   9.000000E+99

> <Gold.Protein.RotatedTorsions>
[ 6907 6896 6895 6894 ] final    8.19 input  -60.11 | X-H torsion
[ 7974 7965 7964 7962 ] final -167.59 input  175.53 | X-H torsion
[ 8008 7997 7996 7995 ] final  -93.38 input   59.86 | X-H torsion
[ 10167 10162 10161 10158 ] final  135.87 input  -65.29 | X-H torsion
[ 10718 10713 10712 10709 ] final -172.51 input   66.30 | X-H torsion
[ 10763 10752 10751 10750 ] final -158.70 input  -60.55 | X-H torsion
[ 11005 11000 10999 10996 ] final   69.96 input  -57.11 | X-H torsion

> <Gold.Protein.ActiveResidues>
 VAL166  LYS551  ARG553  GLY616  TRP617  ASP618  TYR619  PRO620  LYS621  CYS622 
 ASP623  PHE694  ASN695  SER759  ASP760  ASP761  ALA762  ILE779  LEU786  VAL792 
 PHE793  MET794  SER795  GLU796  ALA797  LYS798  CYS799  TRP800  GLU811  SER814 

> <Gold.Protein.RotatedAtoms>
  151.7021  135.0928  160.0252 H   0  0  0  0  0  0  0  0  0  0  0  0  # atno 6907 bound_to 6896
  152.3714  133.6420  159.6098 H   0  0  0  0  0  0  0  0  0  0  0  0  # atno 6908 bound_to 6896
  150.7676  133.9180  159.3431 H   0  0  0  0  0  0  0  0  0  0  0  0  # atno 6909 bound_to 6896
  144.7220  140.2496  143.6280 H   0  0  0  0  0  0  0  0  0  0  0  0  # atno 7974 bound_to 7965
  154.7350  140.0499  157.0760 H   0  0  0  0  0  0  0  0  0  0  0  0  # atno 8008 bound_to 7997
  155.0252  140.3151  155.4759 H   0  0  0  0  0  0  0  0  0  0  0  0  # atno 8009 bound_to 7997
  156.2851  140.2160  156.5372 H   0  0  0  0  0  0  0  0  0  0  0  0  # atno 8010 bound_to 7997
  139.5201  144.6495  151.5344 H   0  0  0  0  0  0  0  0  0  0  0  0  # atno 10167 bound_to 10162
  156.7566  130.9398  151.3116 H   0  0  0  0  0  0  0  0  0  0  0  0  # atno 10718 bound_to 10713
  154.7535  135.3098  154.8513 H   0  0  0  0  0  0  0  0  0  0  0  0  # atno 10763 bound_to 10752
  153.9293  135.6787  153.4750 H   0  0  0  0  0  0  0  0  0  0  0  0  # atno 10764 bound_to 10752
  153.1132  135.4857  154.8999 H   0  0  0  0  0  0  0  0  0  0  0  0  # atno 10765 bound_to 10752
  139.9624  134.7038  156.0617 H   0  0  0  0  0  0  0  0  0  0  0  0  # atno 11005 bound_to 11000
  145.8241  139.2057  143.1921 LP  0  0  0  0  0  0  0  0  0  0  0  0  # atno 17320 bound_to 7965
  146.0488  140.8090  142.9792 LP  0  0  0  0  0  0  0  0  0  0  0  0  # atno 17321 bound_to 7965
  140.6293  143.9107  150.6592 LP  0  0  0  0  0  0  0  0  0  0  0  0  # atno 17342 bound_to 10162
  140.2406  143.3667  152.1490 LP  0  0  0  0  0  0  0  0  0  0  0  0  # atno 17343 bound_to 10162
  157.6753  130.9089  150.0136 LP  0  0  0  0  0  0  0  0  0  0  0  0  # atno 17370 bound_to 10713
  156.1366  130.3642  149.9647 LP  0  0  0  0  0  0  0  0  0  0  0  0  # atno 17371 bound_to 10713
  141.1302  133.6588  156.3445 LP  0  0  0  0  0  0  0  0  0  0  0  0  # atno 17394 bound_to 11000
  140.5470  134.6064  157.5397 LP  0  0  0  0  0  0  0  0  0  0  0  0  # atno 17395 bound_to 11000

$$$$
