AV-unprocessed.smi:2779|AV-procd|sdf|10711|dock5
  -GOLD-   2272015143D 1   1.00000     0.00000
 Structure written by MMmdl.
 38 39  0  0  0  0  0  0  0  0  1 V2000
  149.9480  139.3084  155.6721 O   0  0  0  0  0  0  0  0  0  0  0  0
  150.3238  140.0354  156.5914 C   0  0  0  0  0  0  0  0  0  0  0  0
  149.4870  141.0761  157.1833 C   0  0  0  0  0  0  0  0  0  0  0  0
  149.9266  141.8474  158.2008 C   0  0  0  0  0  0  0  0  0  0  0  0
  151.2667  141.6444  158.7259 C   0  0  0  0  0  0  0  0  0  0  0  0
  151.8472  142.4495  159.8624 C   0  0  0  0  0  0  0  0  0  0  0  0
  150.9483  143.3027  160.3546 F   0  0  0  0  0  0  0  0  0  0  0  0
  152.2418  141.6377  160.8438 F   0  0  0  0  0  0  0  0  0  0  0  0
  152.9032  143.1448  159.4388 F   0  0  0  0  0  0  0  0  0  0  0  0
  152.0143  140.7269  158.2023 N   0  0  0  0  0  0  0  0  0  0  0  0
  151.5615  139.9380  157.1592 N   0  0  0  0  0  0  0  0  0  0  0  0
  152.5353  138.9402  156.6999 C   0  0  0  0  0  0  0  0  0  0  0  0
  152.6181  138.8802  155.1593 C   0  0  2  0  0  0  0  0  0  0  0  0
  152.4232  137.5554  154.7061 O   0  0  0  0  0  0  0  0  0  0  0  0
  153.9648  139.3741  154.6052 C   0  0  0  0  0  0  0  0  0  0  0  0
  154.9447  138.3528  154.7125 O   0  0  0  0  0  0  0  0  0  0  0  0
  156.2507  138.8080  154.3973 C   0  0  0  0  0  0  0  0  0  0  0  0
  157.0326  137.7890  153.5897 C   0  0  0  0  0  0  0  0  0  0  0  0
  156.5710  137.3766  152.3210 C   0  0  0  0  0  0  0  0  0  0  0  0
  157.3127  136.4486  151.5644 C   0  0  0  0  0  0  0  0  0  0  0  0
  158.5220  135.9332  152.0696 C   0  0  0  0  0  0  0  0  0  0  0  0
  158.9911  136.3490  153.3306 C   0  0  0  0  0  0  0  0  0  0  0  0
  158.2498  137.2774  154.0876 C   0  0  0  0  0  0  0  0  0  0  0  0
  151.8326  139.4931  154.7158 H   0  0  0  0  0  0  0  0  0  0  0  0
  148.4903  141.2304  156.7965 H   0  0  0  0  0  0  0  0  0  0  0  0
  149.2896  142.6099  158.6236 H   0  0  0  0  0  0  0  0  0  0  0  0
  153.5157  139.1901  157.1100 H   0  0  0  0  0  0  0  0  0  0  0  0
  152.3033  137.9542  157.1080 H   0  0  0  0  0  0  0  0  0  0  0  0
  151.5561  137.2775  154.9589 H   0  0  0  0  0  0  0  0  0  0  0  0
  153.8566  139.7040  153.5702 H   0  0  0  0  0  0  0  0  0  0  0  0
  154.2938  140.2388  155.1837 H   0  0  0  0  0  0  0  0  0  0  0  0
  156.1946  139.7294  153.8159 H   0  0  0  0  0  0  0  0  0  0  0  0
  156.7901  139.0349  155.3183 H   0  0  0  0  0  0  0  0  0  0  0  0
  155.6479  137.7717  151.9225 H   0  0  0  0  0  0  0  0  0  0  0  0
  156.9552  136.1346  150.5948 H   0  0  0  0  0  0  0  0  0  0  0  0
  159.0911  135.2225  151.4885 H   0  0  0  0  0  0  0  0  0  0  0  0
  159.9213  135.9581  153.7161 H   0  0  0  0  0  0  0  0  0  0  0  0
  158.6195  137.5954  155.0514 H   0  0  0  0  0  0  0  0  0  0  0  0
  1  2  2  0  0  0  0
  2 11  1  0  0  0  0
  2  3  1  0  0  0  0
  3  4  2  0  0  0  0
  3 25  1  0  0  0  0
  4  5  1  0  0  0  0
  4 26  1  0  0  0  0
  5  6  1  0  0  0  0
  5 10  2  0  0  0  0
  6  7  1  0  0  0  0
  6  8  1  0  0  0  0
  6  9  1  0  0  0  0
 10 11  1  0  0  0  0
 11 12  1  0  0  0  0
 12 13  1  0  0  0  0
 12 27  1  0  0  0  0
 12 28  1  0  0  0  0
 13 24  1  0  0  0  0
 13 14  1  0  0  0  0
 13 15  1  0  0  0  0
 14 29  1  0  0  0  0
 15 16  1  0  0  0  0
 15 30  1  0  0  0  0
 15 31  1  0  0  0  0
 16 17  1  0  0  0  0
 17 18  1  0  0  0  0
 17 32  1  0  0  0  0
 17 33  1  0  0  0  0
 18 23  1  0  0  0  0
 18 19  2  0  0  0  0
 19 20  1  0  0  0  0
 19 34  1  0  0  0  0
 20 21  2  0  0  0  0
 20 35  1  0  0  0  0
 21 22  1  0  0  0  0
 21 36  1  0  0  0  0
 22 23  2  0  0  0  0
 22 37  1  0  0  0  0
 23 38  1  0  0  0  0
M  END
> <s_m_source_file>
AV-unprocessed.smi

> <i_m_source_file_index>
2779

> <i_lp_mmshare_version>
43012

> <i_f3d_flags>
0

> <s_epik_input>
Tz1jMVtjSF1bY0hdYyhDKEYpKEYpRilubjFbQ0gyXVtDQEhdKFtPSF0pW0NIMl1PW0NIMl1jMltjSF1bY0hdW2NIXVtjSF1bY0hdMg==

> <s_epik_cmdline>
J2VwaWtfcHl0aG9uJywgJy1waCcsICc3LjAnLCAnLXRuJywgJzgnLCAnLW1hJywgJzIwMCcsICctbWV0YWxfYmluZGluZycsICctaW1hZScsICc8aW5maWxlLm1hZT4nLCAnLW9tYWUnLCAnPG91dGZpbGUubWFlPic=

> <r_lp_tautomer_probability>
1

> <r_epik_Ionization_Penalty>
6.7226e-08

> <r_epik_Ionization_Penalty_Charging>
6.11342e-09

> <r_epik_Ionization_Penalty_Neutral>
6.11126e-08

> <r_epik_State_Penalty>
-0

> <r_epik_Charging_Adjusted_Penalty>
6.11342e-09

> <i_epik_Tot_Q>
0

> <i_epik_Tot_abs_Q>
0

> <r_epik_Metal_State_Penalty>
-0

> <b_epik_Metal_Only>
0

> <s_lp_Force_Field>
OPLS_2005

> <r_lp_Energy>
33.7736

> <b_lp_Chiralities_Consistent>
1

> <s_lp_Variant>
AV-unprocessed.smi:2779-1

> <Gold.Version>
5.8.1

> <Gold.Id.Protein>
6NUR|6NUR_protein|mol2

> <Gold.PLP.Fitness>
44.4639

> <Gold.PLP.PLP>
-44.9579

> <Gold.PLP.part.hbond>
-2.7789

> <Gold.PLP.part.metal>
0.0000

> <Gold.PLP.part.buried>
-0.8758

> <Gold.PLP.part.nonpolar>
-41.6149

> <Gold.PLP.part.repulsive>
0.0139

> <Gold.PLP.ligand.clash>
0.0000

> <Gold.PLP.ligand.torsion>
1.4219

> <Gold.PLP.Chemscore.Hbond>
0.7200

> <Gold.PLP.Chemscore.CHOScore>
0.0000

> <Gold.PLP.Chemscore.Metal>
0.0000

> <Gold.Chemscore.Hbonds>
donor molecule, donor type, donor heavy atom, donor atom, acceptor molecule, acceptor atom, score
      P1  H 10752 10764       L1    14  0.25

> <Gold.PLP.Chemscore.Internal.Correction>
0.1898

> <Gold.Rescore>
     Score         DG    S(hbond)    S(metal)    S(lipo)     H(rot)  DE(clash)    DE(int)     intcor
     11.67     -15.14       0.94        0.00     116.98       2.80       0.25       3.22       ----

> <Gold.Chemscore.Fitness>
11.6746

> <Gold.Chemscore.DG>
-15.1424

> <Gold.Chemscore.ZeroCoef>
-5.4800

> <Gold.Chemscore.Hbond>
0.9428

> <Gold.Chemscore.Metal>
0.0000

> <Gold.Chemscore.Lipo>
116.9838

> <Gold.Chemscore.Internal_Hbond>
0.0000

> <Gold.Chemscore.DEClash>
0.2488

> <Gold.Chemscore.DEInternal>
3.2191

> <Gold.Chemscore.Rot>
2.8022

> <Gold.Chemscore.Internal.Correction>
   9.000000E+99

> <Gold.Chemscore.Hbonds>
donor molecule, donor type, donor heavy atom, donor atom, acceptor molecule, acceptor atom, score
      P1  H 10752 10764       L1    14  0.01

> <Gold.Chemscore.Hbond.Weighted>
-3.1489

> <Gold.Chemscore.Metal.Weighted>
-0.0000

> <Gold.Chemscore.Lipo.Weighted>
-13.6871

> <Gold.Chemscore.Internal_Hbond.Weighted>
0.0000

> <Gold.Chemscore.DEClash.Weighted>
0.2488

> <Gold.Chemscore.DEInternal.Weighted>
3.2191

> <Gold.Chemscore.Rot.Weighted>
7.1736

> <Gold.Chemscore.Internal.Correction.Weighted>
   9.000000E+99

> <Gold.Protein.RotatedTorsions>
[ 6907 6896 6895 6894 ] final   18.39 input  -60.11 | X-H torsion
[ 7974 7965 7964 7962 ] final  153.37 input  175.53 | X-H torsion
[ 8008 7997 7996 7995 ] final -150.45 input   59.86 | X-H torsion
[ 10167 10162 10161 10158 ] final -103.73 input  -65.29 | X-H torsion
[ 10718 10713 10712 10709 ] final -127.18 input   66.30 | X-H torsion
[ 10763 10752 10751 10750 ] final  -56.00 input  -60.55 | X-H torsion
[ 11005 11000 10999 10996 ] final  170.12 input  -57.11 | X-H torsion

> <Gold.Protein.ActiveResidues>
 VAL166  LYS551  ARG553  GLY616  TRP617  ASP618  TYR619  PRO620  LYS621  CYS622 
 ASP623  PHE694  ASN695  SER759  ASP760  ASP761  ALA762  ILE779  LEU786  VAL792 
 PHE793  MET794  SER795  GLU796  ALA797  LYS798  CYS799  TRP800  GLU811  SER814 

> <Gold.Protein.RotatedAtoms>
  151.8645  135.0512  160.0472 H   0  0  0  0  0  0  0  0  0  0  0  0  # atno 6907 bound_to 6896
  152.2637  133.5315  159.5405 H   0  0  0  0  0  0  0  0  0  0  0  0  # atno 6908 bound_to 6896
  150.7125  134.0711  159.3907 H   0  0  0  0  0  0  0  0  0  0  0  0  # atno 6909 bound_to 6896
  144.8159  139.6791  143.6121 H   0  0  0  0  0  0  0  0  0  0  0  0  # atno 7974 bound_to 7965
  155.6237  140.0684  157.2670 H   0  0  0  0  0  0  0  0  0  0  0  0  # atno 8008 bound_to 7997
  154.4223  140.1780  156.1448 H   0  0  0  0  0  0  0  0  0  0  0  0  # atno 8009 bound_to 7997
  155.9988  140.3338  155.6829 H   0  0  0  0  0  0  0  0  0  0  0  0  # atno 8010 bound_to 7997
  140.2168  143.3705  152.1004 H   0  0  0  0  0  0  0  0  0  0  0  0  # atno 10167 bound_to 10162
  156.1834  130.6747  151.0333 H   0  0  0  0  0  0  0  0  0  0  0  0  # atno 10718 bound_to 10713
  154.1997  135.6413  153.5083 H   0  0  0  0  0  0  0  0  0  0  0  0  # atno 10763 bound_to 10752
  153.0015  135.5448  154.6328 H   0  0  0  0  0  0  0  0  0  0  0  0  # atno 10764 bound_to 10752
  154.5738  135.2919  155.0774 H   0  0  0  0  0  0  0  0  0  0  0  0  # atno 10765 bound_to 10752
  140.3050  134.7564  157.3946 H   0  0  0  0  0  0  0  0  0  0  0  0  # atno 11005 bound_to 11000
  146.2462  139.6103  142.9458 LP  0  0  0  0  0  0  0  0  0  0  0  0  # atno 17320 bound_to 7965
  145.5215  141.0431  143.2433 LP  0  0  0  0  0  0  0  0  0  0  0  0  # atno 17321 bound_to 7965
  139.5159  144.6969  151.5604 LP  0  0  0  0  0  0  0  0  0  0  0  0  # atno 17342 bound_to 10162
  140.6284  143.9124  150.6584 LP  0  0  0  0  0  0  0  0  0  0  0  0  # atno 17343 bound_to 10162
  157.6883  131.0818  150.7181 LP  0  0  0  0  0  0  0  0  0  0  0  0  # atno 17370 bound_to 10713
  156.7238  130.4688  149.5516 LP  0  0  0  0  0  0  0  0  0  0  0  0  # atno 17371 bound_to 10713
  140.1075  134.5390  155.8296 LP  0  0  0  0  0  0  0  0  0  0  0  0  # atno 17394 bound_to 11000
  141.2120  133.6714  156.6626 LP  0  0  0  0  0  0  0  0  0  0  0  0  # atno 17395 bound_to 11000

$$$$
