AV-unprocessed.smi:2906|AV-procd|sdf|11164|dock5
  -GOLD-   2272016 53D 1   1.00000     0.00000
 Structure written by MMmdl.
 39 40  0  0  0  0  0  0  0  0  2 V2000
  152.0443  144.7845  160.8017 C   0  0  0  0  0  0  0  0  0  0  0  0
  152.1533  144.5454  159.2869 C   0  0  0  0  0  0  0  0  0  0  0  0
  151.2790  143.3868  158.7780 C   0  0  0  0  0  0  0  0  0  0  0  0
  150.1928  143.6258  158.2472 O   0  0  0  0  0  0  0  0  0  0  0  0
  151.7385  142.1271  158.9297 N   0  0  0  0  0  0  0  0  0  0  0  0
  153.0114  141.8077  159.5705 C   0  0  0  0  0  0  0  0  0  0  0  0
  153.0314  140.2885  159.7338 C   0  0  0  0  0  0  0  0  0  0  0  0
  152.0683  139.7706  158.6660 C   0  0  1  0  0  0  0  0  0  0  0  0
  151.4065  138.5304  159.0614 N   0  0  0  0  0  0  0  0  0  0  0  0
  150.9226  137.6025  158.2231 C   0  0  0  0  0  0  0  0  0  0  0  0
  151.0145  137.7684  157.0044 O   0  0  0  0  0  0  0  0  0  0  0  0
  150.3669  136.5387  158.8474 N   0  5  0  0  0  0  0  0  0  0  0  0
  149.0923  136.5989  159.2665 C   0  0  0  0  0  0  0  0  0  0  0  0
  148.6323  135.8981  160.3088 N   0  0  0  0  0  0  0  0  0  0  0  0
  147.2769  136.1123  160.5731 C   0  0  0  0  0  0  0  0  0  0  0  0
  146.6147  135.4024  161.7146 C   0  0  0  0  0  0  0  0  0  0  0  0
  147.3310  135.6489  163.0471 C   0  0  0  0  0  0  0  0  0  0  0  0
  146.6907  136.9888  159.6972 C   0  0  0  0  0  0  0  0  0  0  0  0
  147.8269  137.5743  158.5163 S   0  0  0  0  0  0  0  0  0  0  0  0
  151.0590  140.9104  158.4866 C   0  0  0  0  0  0  0  0  0  0  0  0
  152.6736  145.6215  161.1047 H   0  0  0  0  0  0  0  0  0  0  0  0
  152.3676  143.9098  161.3676 H   0  0  0  0  0  0  0  0  0  0  0  0
  151.0209  145.0190  161.0964 H   0  0  0  0  0  0  0  0  0  0  0  0
  151.8708  145.4583  158.7616 H   0  0  0  0  0  0  0  0  0  0  0  0
  153.1938  144.3402  159.0339 H   0  0  0  0  0  0  0  0  0  0  0  0
  153.8261  142.1327  158.9220 H   0  0  0  0  0  0  0  0  0  0  0  0
  153.1227  142.3099  160.5327 H   0  0  0  0  0  0  0  0  0  0  0  0
  154.0330  139.8680  159.6361 H   0  0  0  0  0  0  0  0  0  0  0  0
  152.6622  140.0322  160.7282 H   0  0  0  0  0  0  0  0  0  0  0  0
  152.6091  139.6307  157.7279 H   0  0  0  0  0  0  0  0  0  0  0  0
  151.3102  138.3568  160.0511 H   0  0  0  0  0  0  0  0  0  0  0  0
  145.5761  135.7238  161.8005 H   0  0  0  0  0  0  0  0  0  0  0  0
  146.5802  134.3302  161.5186 H   0  0  0  0  0  0  0  0  0  0  0  0
  146.8328  135.1206  163.8602 H   0  0  0  0  0  0  0  0  0  0  0  0
  147.3429  136.7100  163.2977 H   0  0  0  0  0  0  0  0  0  0  0  0
  148.3643  135.3028  163.0077 H   0  0  0  0  0  0  0  0  0  0  0  0
  145.6646  137.3229  159.6727 H   0  0  0  0  0  0  0  0  0  0  0  0
  150.1770  140.7581  159.1114 H   0  0  0  0  0  0  0  0  0  0  0  0
  150.7311  140.9754  157.4484 H   0  0  0  0  0  0  0  0  0  0  0  0
  1  2  1  0  0  0  0
  1 21  1  0  0  0  0
  1 22  1  0  0  0  0
  1 23  1  0  0  0  0
  2  3  1  0  0  0  0
  2 24  1  0  0  0  0
  2 25  1  0  0  0  0
  3  4  2  0  0  0  0
  3  5  1  0  0  0  0
  5 20  1  0  0  0  0
  5  6  1  0  0  0  0
  6  7  1  0  0  0  0
  6 26  1  0  0  0  0
  6 27  1  0  0  0  0
  7  8  1  0  0  0  0
  7 28  1  0  0  0  0
  7 29  1  0  0  0  0
  8  9  1  0  0  0  0
  8 20  1  0  0  0  0
  8 30  1  0  0  0  0
  9 10  1  0  0  0  0
  9 31  1  0  0  0  0
 10 11  2  0  0  0  0
 10 12  1  0  0  0  0
 12 13  1  0  0  0  0
 13 19  1  0  0  0  0
 13 14  2  0  0  0  0
 14 15  1  0  0  0  0
 15 16  1  0  0  0  0
 15 18  2  0  0  0  0
 16 17  1  0  0  0  0
 16 32  1  0  0  0  0
 16 33  1  0  0  0  0
 17 34  1  0  0  0  0
 17 35  1  0  0  0  0
 17 36  1  0  0  0  0
 18 19  1  0  0  0  0
 18 37  1  0  0  0  0
 20 38  1  0  0  0  0
 20 39  1  0  0  0  0
M  CHG  1  12  -1
M  END
> <s_m_source_file>
AV-unprocessed.smi

> <i_m_source_file_index>
2906

> <i_lp_mmshare_version>
43012

> <i_f3d_flags>
0

> <s_epik_input>
W0NIM11bQ0gyXUMoPU8pTjFbQ0gyXVtDSDJdW0NASF0oW0NIMl0xKVtOSF1DKD1PKVtOSF1jMm5jKFtjSF1zMilbQ0gyXVtDSDNd

> <s_epik_cmdline>
J2VwaWtfcHl0aG9uJywgJy1waCcsICc3LjAnLCAnLXRuJywgJzgnLCAnLW1hJywgJzIwMCcsICctbWV0YWxfYmluZGluZycsICctaW1hZScsICc8aW5maWxlLm1hZT4nLCAnLW9tYWUnLCAnPG91dGZpbGUubWFlPic=

> <r_lp_tautomer_probability>
1

> <r_epik_Ionization_Penalty>
7.20119

> <r_epik_Ionization_Penalty_Charging>
5.87168

> <r_epik_Ionization_Penalty_Neutral>
1.32951

> <r_epik_State_Penalty>
5.87165

> <r_epik_Charging_Adjusted_Penalty>
11.7433

> <i_epik_Tot_Q>
-1

> <i_epik_Tot_abs_Q>
1

> <r_epik_Metal_State_Penalty>
1.83511

> <b_epik_Metal_Only>
1

> <s_lp_Force_Field>
OPLS_2005

> <r_lp_Energy>
20.3379

> <b_lp_Chiralities_Consistent>
1

> <s_lp_Variant>
AV-unprocessed.smi:2906-3

> <Gold.Version>
5.8.1

> <Gold.Id.Protein>
6NUR|6NUR_protein|mol2

> <Gold.PLP.Fitness>
38.1203

> <Gold.PLP.PLP>
-35.2528

> <Gold.PLP.part.hbond>
-1.0000

> <Gold.PLP.part.metal>
0.0000

> <Gold.PLP.part.buried>
-5.9473

> <Gold.PLP.part.nonpolar>
-30.0720

> <Gold.PLP.part.repulsive>
0.3696

> <Gold.PLP.ligand.clash>
0.0000

> <Gold.PLP.ligand.torsion>
1.5914

> <Gold.PLP.Chemscore.Hbond>
2.0000

> <Gold.PLP.Chemscore.CHOScore>
0.0000

> <Gold.PLP.Chemscore.Metal>
0.0000

> <Gold.Chemscore.Hbonds>
donor molecule, donor type, donor heavy atom, donor atom, acceptor molecule, acceptor atom, score
      P1  H  6896  6909       L1    12  2.00

> <Gold.PLP.Chemscore.Internal.Correction>
0.0504

> <Gold.Rescore>
     Score         DG    S(hbond)    S(metal)    S(lipo)     H(rot)  DE(clash)    DE(int)     intcor
     12.36     -14.12       0.92        0.00      77.91       1.39       0.11       1.64       ----

> <Gold.Chemscore.Fitness>
12.3647

> <Gold.Chemscore.DG>
-14.1175

> <Gold.Chemscore.ZeroCoef>
-5.4800

> <Gold.Chemscore.Hbond>
0.9188

> <Gold.Chemscore.Metal>
0.0000

> <Gold.Chemscore.Lipo>
77.9137

> <Gold.Chemscore.Internal_Hbond>
0.0000

> <Gold.Chemscore.DEClash>
0.1135

> <Gold.Chemscore.DEInternal>
1.6393

> <Gold.Chemscore.Rot>
1.3856

> <Gold.Chemscore.Internal.Correction>
   9.000000E+99

> <Gold.Chemscore.Hbonds>
donor molecule, donor type, donor heavy atom, donor atom, acceptor molecule, acceptor atom, score
      P1  H  6896  6909       L1    12  0.25

> <Gold.Chemscore.Hbond.Weighted>
-3.0687

> <Gold.Chemscore.Metal.Weighted>
-0.0000

> <Gold.Chemscore.Lipo.Weighted>
-9.1159

> <Gold.Chemscore.Internal_Hbond.Weighted>
0.0000

> <Gold.Chemscore.DEClash.Weighted>
0.1135

> <Gold.Chemscore.DEInternal.Weighted>
1.6393

> <Gold.Chemscore.Rot.Weighted>
3.5471

> <Gold.Chemscore.Internal.Correction.Weighted>
   9.000000E+99

> <Gold.Protein.RotatedTorsions>
[ 6907 6896 6895 6894 ] final   77.78 input  -60.11 | X-H torsion
[ 7974 7965 7964 7962 ] final    1.95 input  175.53 | X-H torsion
[ 8008 7997 7996 7995 ] final -112.65 input   59.86 | X-H torsion
[ 10167 10162 10161 10158 ] final  127.59 input  -65.29 | X-H torsion
[ 10718 10713 10712 10709 ] final  -34.05 input   66.30 | X-H torsion
[ 10763 10752 10751 10750 ] final  135.36 input  -60.55 | X-H torsion
[ 11005 11000 10999 10996 ] final   25.39 input  -57.11 | X-H torsion

> <Gold.Protein.ActiveResidues>
 VAL166  LYS551  ARG553  GLY616  TRP617  ASP618  TYR619  PRO620  LYS621  CYS622 
 ASP623  PHE694  ASN695  SER759  ASP760  ASP761  ALA762  ILE779  LEU786  VAL792 
 PHE793  MET794  SER795  GLU796  ALA797  LYS798  CYS799  TRP800  GLU811  SER814 

> <Gold.Protein.RotatedAtoms>
  152.5132  134.3765  159.9335 H   0  0  0  0  0  0  0  0  0  0  0  0  # atno 6907 bound_to 6896
  151.3720  133.3845  159.2708 H   0  0  0  0  0  0  0  0  0  0  0  0  # atno 6908 bound_to 6896
  150.9570  134.8983  159.7765 H   0  0  0  0  0  0  0  0  0  0  0  0  # atno 6909 bound_to 6896
  146.2442  140.0910  142.8352 H   0  0  0  0  0  0  0  0  0  0  0  0  # atno 7974 bound_to 7965
  155.0086  140.0394  157.2390 H   0  0  0  0  0  0  0  0  0  0  0  0  # atno 8008 bound_to 7997
  154.7480  140.2761  155.6293 H   0  0  0  0  0  0  0  0  0  0  0  0  # atno 8009 bound_to 7997
  156.2879  140.2652  156.2226 H   0  0  0  0  0  0  0  0  0  0  0  0  # atno 8010 bound_to 7997
  139.5570  144.6856  151.4152 H   0  0  0  0  0  0  0  0  0  0  0  0  # atno 10167 bound_to 10162
  156.3553  130.4315  149.7669 H   0  0  0  0  0  0  0  0  0  0  0  0  # atno 10718 bound_to 10713
  153.8388  135.3094  155.3424 H   0  0  0  0  0  0  0  0  0  0  0  0  # atno 10763 bound_to 10752
  154.7942  135.4765  154.0124 H   0  0  0  0  0  0  0  0  0  0  0  0  # atno 10764 bound_to 10752
  153.1589  135.6857  153.8864 H   0  0  0  0  0  0  0  0  0  0  0  0  # atno 10765 bound_to 10752
  140.3484  134.2256  155.7682 H   0  0  0  0  0  0  0  0  0  0  0  0  # atno 11005 bound_to 11000
  145.0651  140.9115  143.4915 LP  0  0  0  0  0  0  0  0  0  0  0  0  # atno 17320 bound_to 7965
  145.1033  139.2808  143.5675 LP  0  0  0  0  0  0  0  0  0  0  0  0  # atno 17321 bound_to 7965
  140.6845  143.8006  150.7167 LP  0  0  0  0  0  0  0  0  0  0  0  0  # atno 17342 bound_to 10162
  140.1469  143.4391  152.2157 LP  0  0  0  0  0  0  0  0  0  0  0  0  # atno 17343 bound_to 10162
  156.4854  130.8060  151.3073 LP  0  0  0  0  0  0  0  0  0  0  0  0  # atno 17370 bound_to 10713
  157.7466  130.9992  150.2881 LP  0  0  0  0  0  0  0  0  0  0  0  0  # atno 17371 bound_to 10713
  141.2019  133.7951  157.0417 LP  0  0  0  0  0  0  0  0  0  0  0  0  # atno 17394 bound_to 11000
  140.0723  134.9695  157.1488 LP  0  0  0  0  0  0  0  0  0  0  0  0  # atno 17395 bound_to 11000

$$$$
