AV-unprocessed.smi:697|AV-procd|sdf|3395|dock9
  -GOLD-   22720 0373D 1   1.00000     0.00000
 Structure written by MMmdl.
 43 44  0  0  0  0  0  0  0  0  2 V2000
  152.6967  138.8704  155.1469 C   0  0  0  0  0  0  0  0  0  0  0  0
  152.3899  139.7305  156.2374 O   0  0  0  0  0  0  0  0  0  0  0  0
  151.0139  140.0882  156.4256 C   0  0  1  0  0  0  0  0  0  0  0  0
  150.7083  141.4305  155.7488 C   0  0  0  0  0  0  0  0  0  0  0  0
  150.1080  138.8753  156.1393 C   0  0  0  0  0  0  0  0  0  0  0  0
  150.3883  138.4207  157.5703 C   0  0  2  0  0  0  0  0  0  0  0  0
  149.2190  137.8279  158.2111 N   0  0  0  0  0  0  0  0  0  0  0  0
  149.2634  136.8013  159.0705 C   0  0  0  0  0  0  0  0  0  0  0  0
  150.3100  136.2368  159.3880 O   0  0  0  0  0  0  0  0  0  0  0  0
  148.0298  136.4956  159.5119 N   0  0  0  0  0  0  0  0  0  0  0  0
  147.6221  135.5265  160.4456 C   0  0  0  0  0  0  0  0  0  0  0  0
  147.8054  134.1835  160.3100 C   0  0  0  0  0  0  0  0  0  0  0  0
  147.3718  133.2299  161.3233 C   0  0  0  0  0  0  0  0  0  0  0  0
  147.4741  131.7237  161.1596 C   0  0  0  0  0  0  0  0  0  0  0  0
  148.2926  131.1951  162.0694 F   0  0  0  0  0  0  0  0  0  0  0  0
  146.2784  131.1480  161.2840 F   0  0  0  0  0  0  0  0  0  0  0  0
  147.9519  131.4307  159.9512 F   0  0  0  0  0  0  0  0  0  0  0  0
  146.7614  133.8475  162.3977 C   0  0  0  0  0  0  0  0  0  0  0  0
  146.5645  135.1650  162.6217 N   0  5  0  0  0  0  0  0  0  0  0  0
  146.9752  136.0479  161.6679 C   0  0  0  0  0  0  0  0  0  0  0  0
  146.8198  137.2620  161.8057 O   0  0  0  0  0  0  0  0  0  0  0  0
  150.6552  139.9036  157.9367 C   0  0  0  0  0  0  0  0  0  0  0  0
  151.7830  140.1517  158.9448 C   0  0  0  0  0  0  0  0  0  0  0  0
  149.4509  140.7168  158.4487 C   0  0  0  0  0  0  0  0  0  0  0  0
  153.7359  138.5526  155.2270 H   0  0  0  0  0  0  0  0  0  0  0  0
  152.5900  139.3822  154.1905 H   0  0  0  0  0  0  0  0  0  0  0  0
  152.0769  137.9744  155.1356 H   0  0  0  0  0  0  0  0  0  0  0  0
  149.6972  141.7728  155.9655 H   0  0  0  0  0  0  0  0  0  0  0  0
  150.7771  141.3643  154.6634 H   0  0  0  0  0  0  0  0  0  0  0  0
  151.3954  142.2081  156.0826 H   0  0  0  0  0  0  0  0  0  0  0  0
  149.0680  139.1566  155.9648 H   0  0  0  0  0  0  0  0  0  0  0  0
  150.4583  138.1827  155.3749 H   0  0  0  0  0  0  0  0  0  0  0  0
  151.2857  137.8002  157.6273 H   0  0  0  0  0  0  0  0  0  0  0  0
  148.3203  138.2345  157.9964 H   0  0  0  0  0  0  0  0  0  0  0  0
  147.2692  137.0250  159.1113 H   0  0  0  0  0  0  0  0  0  0  0  0
  148.3000  133.7738  159.4456 H   0  0  0  0  0  0  0  0  0  0  0  0
  146.3692  133.1824  163.1965 H   0  0  0  0  0  0  0  0  0  0  0  0
  151.4691  139.9183  159.9628 H   0  0  0  0  0  0  0  0  0  0  0  0
  152.1103  141.1916  158.9298 H   0  0  0  0  0  0  0  0  0  0  0  0
  152.6572  139.5334  158.7401 H   0  0  0  0  0  0  0  0  0  0  0  0
  149.1549  140.4101  159.4526 H   0  0  0  0  0  0  0  0  0  0  0  0
  148.5741  140.6017  157.8112 H   0  0  0  0  0  0  0  0  0  0  0  0
  149.6783  141.7821  158.4932 H   0  0  0  0  0  0  0  0  0  0  0  0
  1  2  1  0  0  0  0
  1 25  1  0  0  0  0
  1 26  1  0  0  0  0
  1 27  1  0  0  0  0
  2  3  1  0  0  0  0
  3 22  1  0  0  0  0
  3  4  1  0  0  0  0
  3  5  1  0  0  0  0
  4 28  1  0  0  0  0
  4 29  1  0  0  0  0
  4 30  1  0  0  0  0
  5  6  1  0  0  0  0
  5 31  1  0  0  0  0
  5 32  1  0  0  0  0
  6  7  1  0  0  0  0
  6 22  1  0  0  0  0
  6 33  1  0  0  0  0
  7  8  1  0  0  0  0
  7 34  1  0  0  0  0
  8  9  2  0  0  0  0
  8 10  1  0  0  0  0
 10 11  1  0  0  0  0
 10 35  1  0  0  0  0
 11 20  1  0  0  0  0
 11 12  2  0  0  0  0
 12 13  1  0  0  0  0
 12 36  1  0  0  0  0
 13 14  1  0  0  0  0
 13 18  2  0  0  0  0
 14 15  1  0  0  0  0
 14 16  1  0  0  0  0
 14 17  1  0  0  0  0
 18 19  1  0  0  0  0
 18 37  1  0  0  0  0
 19 20  1  0  0  0  0
 20 21  2  0  0  0  0
 22 23  1  0  0  0  0
 22 24  1  0  0  0  0
 23 38  1  0  0  0  0
 23 39  1  0  0  0  0
 23 40  1  0  0  0  0
 24 41  1  0  0  0  0
 24 42  1  0  0  0  0
 24 43  1  0  0  0  0
M  CHG  1  19  -1
M  END
> <s_m_source_file>
AV-unprocessed.smi

> <i_m_source_file_index>
697

> <i_lp_mmshare_version>
43012

> <i_f3d_flags>
0

> <s_epik_input>
W0NIM11PW0NAQF0xKFtDSDNdKVtDSDJdW0NASF0oQzEoW0NIM10pW0NIM10pW05IXUMoPU8pW05IXWMyW2NIXWMoQyhGKShGKUYpW2NIXVtuSF1jMj1P

> <s_epik_cmdline>
J2VwaWtfcHl0aG9uJywgJy1waCcsICc3LjAnLCAnLXRuJywgJzgnLCAnLW1hJywgJzIwMCcsICctbWV0YWxfYmluZGluZycsICctaW1hZScsICc8aW5maWxlLm1hZT4nLCAnLW9tYWUnLCAnPG91dGZpbGUubWFlPic=

> <r_lp_tautomer_probability>
1

> <r_epik_Ionization_Penalty>
3.20094

> <r_epik_Ionization_Penalty_Charging>
0.180017

> <r_epik_Ionization_Penalty_Neutral>
3.02092

> <r_epik_State_Penalty>
3.01726

> <r_epik_Charging_Adjusted_Penalty>
3.19727

> <i_epik_Tot_Q>
-1

> <i_epik_Tot_abs_Q>
1

> <r_epik_Metal_State_Penalty>
0.455096

> <b_epik_Metal_Only>
1

> <s_lp_Force_Field>
OPLS_2005

> <r_lp_Energy>
36.256

> <b_lp_Chiralities_Consistent>
1

> <s_lp_Variant>
AV-unprocessed.smi:697-7

> <Gold.Version>
5.8.1

> <Gold.Id.Protein>
6NUR|6NUR_protein|mol2

> <Gold.PLP.Fitness>
44.1220

> <Gold.PLP.PLP>
-36.4136

> <Gold.PLP.part.hbond>
-3.8816

> <Gold.PLP.part.metal>
0.0000

> <Gold.PLP.part.buried>
-3.4018

> <Gold.PLP.part.nonpolar>
-28.9892

> <Gold.PLP.part.repulsive>
0.2894

> <Gold.PLP.ligand.clash>
0.0000

> <Gold.PLP.ligand.torsion>
1.5452

> <Gold.PLP.Chemscore.Hbond>
3.4560

> <Gold.PLP.Chemscore.CHOScore>
0.0000

> <Gold.PLP.Chemscore.Metal>
0.0000

> <Gold.Chemscore.Hbonds>
donor molecule, donor type, donor heavy atom, donor atom, acceptor molecule, acceptor atom, score
      P1  H  6896  6908       L1     9  0.89
      P1  H  6931  6943       L1    21  0.02
      P1  H  6934  6947       L1    21  0.93
      P1  H  7997  8010       L1     2  0.20

> <Gold.PLP.Chemscore.Internal.Correction>
0.4308

> <Gold.Rescore>
     Score         DG    S(hbond)    S(metal)    S(lipo)     H(rot)  DE(clash)    DE(int)     intcor
     16.82     -18.48       2.44        0.00      69.92       1.30       0.01       1.65       ----

> <Gold.Chemscore.Fitness>
16.8165

> <Gold.Chemscore.DG>
-18.4770

> <Gold.Chemscore.ZeroCoef>
-5.4800

> <Gold.Chemscore.Hbond>
2.4362

> <Gold.Chemscore.Metal>
0.0000

> <Gold.Chemscore.Lipo>
69.9229

> <Gold.Chemscore.Internal_Hbond>
0.0000

> <Gold.Chemscore.DEClash>
0.0089

> <Gold.Chemscore.DEInternal>
1.6516

> <Gold.Chemscore.Rot>
1.2973

> <Gold.Chemscore.Internal.Correction>
   9.000000E+99

> <Gold.Chemscore.Hbonds>
donor molecule, donor type, donor heavy atom, donor atom, acceptor molecule, acceptor atom, score
      P1  H  6896  6908       L1     9  0.87
      P1  H  6931  6943       L1    21  0.04
      P1  H  6934  6947       L1    21  0.87

> <Gold.Chemscore.Hbond.Weighted>
-8.1370

> <Gold.Chemscore.Metal.Weighted>
-0.0000

> <Gold.Chemscore.Lipo.Weighted>
-8.1810

> <Gold.Chemscore.Internal_Hbond.Weighted>
0.0000

> <Gold.Chemscore.DEClash.Weighted>
0.0089

> <Gold.Chemscore.DEInternal.Weighted>
1.6516

> <Gold.Chemscore.Rot.Weighted>
3.3210

> <Gold.Chemscore.Internal.Correction.Weighted>
   9.000000E+99

> <Gold.Protein.RotatedTorsions>
[ 6907 6896 6895 6894 ] final -168.92 input  -60.11 | X-H torsion
[ 7974 7965 7964 7962 ] final  -23.84 input  175.53 | X-H torsion
[ 8008 7997 7996 7995 ] final   85.99 input   59.86 | X-H torsion
[ 10167 10162 10161 10158 ] final  -43.38 input  -65.29 | X-H torsion
[ 10718 10713 10712 10709 ] final -161.14 input   66.30 | X-H torsion
[ 10763 10752 10751 10750 ] final  133.87 input  -60.55 | X-H torsion
[ 11005 11000 10999 10996 ] final   56.12 input  -57.11 | X-H torsion

> <Gold.Protein.ActiveResidues>
 VAL166  LYS551  ARG553  GLY616  TRP617  ASP618  TYR619  PRO620  LYS621  CYS622 
 ASP623  PHE694  ASN695  SER759  ASP760  ASP761  ALA762  ILE779  LEU786  VAL792 
 PHE793  MET794  SER795  GLU796  ALA797  LYS798  CYS799  TRP800  GLU811  SER814 

> <Gold.Protein.RotatedAtoms>
  151.4833  133.3541  159.2841 H   0  0  0  0  0  0  0  0  0  0  0  0  # atno 6907 bound_to 6896
  150.8883  134.8285  159.7286 H   0  0  0  0  0  0  0  0  0  0  0  0  # atno 6908 bound_to 6896
  152.4807  134.4739  159.9696 H   0  0  0  0  0  0  0  0  0  0  0  0  # atno 6909 bound_to 6896
  146.1592  140.4670  142.8579 H   0  0  0  0  0  0  0  0  0  0  0  0  # atno 7974 bound_to 7965
  155.9571  140.3396  155.6458 H   0  0  0  0  0  0  0  0  0  0  0  0  # atno 8008 bound_to 7997
  155.6846  140.0742  157.2490 H   0  0  0  0  0  0  0  0  0  0  0  0  # atno 8009 bound_to 7997
  154.4135  140.1668  156.2007 H   0  0  0  0  0  0  0  0  0  0  0  0  # atno 8010 bound_to 7997
  140.6936  143.2986  151.3344 H   0  0  0  0  0  0  0  0  0  0  0  0  # atno 10167 bound_to 10162
  156.5920  130.8774  151.2892 H   0  0  0  0  0  0  0  0  0  0  0  0  # atno 10718 bound_to 10713
  153.8142  135.3125  155.3404 H   0  0  0  0  0  0  0  0  0  0  0  0  # atno 10763 bound_to 10752
  154.8039  135.4710  154.0346 H   0  0  0  0  0  0  0  0  0  0  0  0  # atno 10764 bound_to 10752
  153.1734  135.6881  153.8665 H   0  0  0  0  0  0  0  0  0  0  0  0  # atno 10765 bound_to 10752
  140.0554  134.5678  155.9214 H   0  0  0  0  0  0  0  0  0  0  0  0  # atno 11005 bound_to 11000
  144.8003  140.6201  143.6482 LP  0  0  0  0  0  0  0  0  0  0  0  0  # atno 17320 bound_to 7965
  145.4632  139.1510  143.3855 LP  0  0  0  0  0  0  0  0  0  0  0  0  # atno 17321 bound_to 7965
  139.6365  144.0621  152.2520 LP  0  0  0  0  0  0  0  0  0  0  0  0  # atno 17342 bound_to 10162
  140.0112  144.6222  150.7645 LP  0  0  0  0  0  0  0  0  0  0  0  0  # atno 17343 bound_to 10162
  157.7301  130.9681  150.1818 LP  0  0  0  0  0  0  0  0  0  0  0  0  # atno 17370 bound_to 10713
  156.2542  130.3704  149.8200 LP  0  0  0  0  0  0  0  0  0  0  0  0  # atno 17371 bound_to 10713
  141.1949  133.6585  156.5619 LP  0  0  0  0  0  0  0  0  0  0  0  0  # atno 17394 bound_to 11000
  140.3852  134.7488  157.4687 LP  0  0  0  0  0  0  0  0  0  0  0  0  # atno 17395 bound_to 11000

$$$$
