AV-unprocessed.smi:2483|AV-procd|sdf|9786|dock2
  -GOLD-   2272013423D 1   1.00000     0.00000
 Structure written by MMmdl.
 38 39  0  0  0  0  0  0  0  0  2 V2000
  145.9502  141.6465  156.1160 C   0  0  0  0  0  0  0  0  0  0  0  0
  146.9715  142.0500  155.1571 N   0  0  0  0  0  0  0  0  0  0  0  0
  146.5242  142.8987  154.0612 C   0  0  0  0  0  0  0  0  0  0  0  0
  147.8925  141.0586  154.7635 C   0  0  0  0  0  0  0  0  0  0  0  0
  147.4402  140.0421  153.9936 N   0  0  0  0  0  0  0  0  0  0  0  0
  148.2856  139.0914  153.5844 C   0  0  0  0  0  0  0  0  0  0  0  0
  149.5858  139.0883  153.9046 N   0  3  0  0  0  0  0  0  0  0  0  0
  150.0889  140.0811  154.6763 C   0  0  0  0  0  0  0  0  0  0  0  0
  149.2553  141.1264  155.1431 C   0  0  0  0  0  0  0  0  0  0  0  0
  149.7011  142.1893  155.9824 N   0  0  0  0  0  0  0  0  0  0  0  0
  150.5853  142.1634  156.9936 C   0  0  0  0  0  0  0  0  0  0  0  0
  151.1696  141.1613  157.4029 O   0  0  0  0  0  0  0  0  0  0  0  0
  150.7609  143.3907  157.5083 N   0  0  0  0  0  0  0  0  0  0  0  0
  151.6426  143.7635  158.6235 C   0  0  0  0  0  0  0  0  0  0  0  0
  152.9180  142.9203  158.5903 C   0  0  0  0  0  0  0  0  0  0  0  0
  151.7536  145.2978  158.7799 C   0  0  0  0  0  0  0  0  0  0  0  0
  150.5371  145.2717  159.7077 C   0  0  0  0  0  0  0  0  0  0  0  0
  150.8223  143.7840  159.9289 C   0  0  0  0  0  0  0  0  0  0  0  0
  146.3879  141.0698  156.9319 H   0  0  0  0  0  0  0  0  0  0  0  0
  145.1799  141.0414  155.6361 H   0  0  0  0  0  0  0  0  0  0  0  0
  145.4715  142.5257  156.5478 H   0  0  0  0  0  0  0  0  0  0  0  0
  147.3533  143.2281  153.4349 H   0  0  0  0  0  0  0  0  0  0  0  0
  146.0274  143.7872  154.4518 H   0  0  0  0  0  0  0  0  0  0  0  0
  145.8145  142.3616  153.4307 H   0  0  0  0  0  0  0  0  0  0  0  0
  147.9334  138.2761  152.9696 H   0  0  0  0  0  0  0  0  0  0  0  0
  151.1407  139.9782  154.8907 H   0  0  0  0  0  0  0  0  0  0  0  0
  149.3256  143.0981  155.7518 H   0  0  0  0  0  0  0  0  0  0  0  0
  150.2336  144.1456  157.0943 H   0  0  0  0  0  0  0  0  0  0  0  0
  153.5438  143.1180  159.4608 H   0  0  0  0  0  0  0  0  0  0  0  0
  153.5228  143.1308  157.7082 H   0  0  0  0  0  0  0  0  0  0  0  0
  152.6909  141.8537  158.5906 H   0  0  0  0  0  0  0  0  0  0  0  0
  152.6627  145.5984  159.3031 H   0  0  0  0  0  0  0  0  0  0  0  0
  151.6153  145.8873  157.8733 H   0  0  0  0  0  0  0  0  0  0  0  0
  150.6294  145.8930  160.5990 H   0  0  0  0  0  0  0  0  0  0  0  0
  149.5984  145.4514  159.1813 H   0  0  0  0  0  0  0  0  0  0  0  0
  149.9363  143.1474  159.9368 H   0  0  0  0  0  0  0  0  0  0  0  0
  151.4362  143.6104  160.8145 H   0  0  0  0  0  0  0  0  0  0  0  0
  150.2017  138.3434  153.5779 H   0  0  0  0  0  0  0  0  0  0  0  0
  1  2  1  0  0  0  0
  1 19  1  0  0  0  0
  1 20  1  0  0  0  0
  1 21  1  0  0  0  0
  2  3  1  0  0  0  0
  2  4  1  0  0  0  0
  3 22  1  0  0  0  0
  3 23  1  0  0  0  0
  3 24  1  0  0  0  0
  4  9  1  0  0  0  0
  4  5  2  0  0  0  0
  5  6  1  0  0  0  0
  6  7  2  0  0  0  0
  6 25  1  0  0  0  0
  7  8  1  0  0  0  0
  7 38  1  0  0  0  0
  8  9  2  0  0  0  0
  8 26  1  0  0  0  0
  9 10  1  0  0  0  0
 10 11  1  0  0  0  0
 10 27  1  0  0  0  0
 11 12  2  0  0  0  0
 11 13  1  0  0  0  0
 13 14  1  0  0  0  0
 13 28  1  0  0  0  0
 14 18  1  0  0  0  0
 14 15  1  0  0  0  0
 14 16  1  0  0  0  0
 15 29  1  0  0  0  0
 15 30  1  0  0  0  0
 15 31  1  0  0  0  0
 16 17  1  0  0  0  0
 16 32  1  0  0  0  0
 16 33  1  0  0  0  0
 17 18  1  0  0  0  0
 17 34  1  0  0  0  0
 17 35  1  0  0  0  0
 18 36  1  0  0  0  0
 18 37  1  0  0  0  0
M  CHG  1   7   1
M  END
> <s_m_source_file>
AV-unprocessed.smi

> <i_m_source_file_index>
2483

> <i_lp_mmshare_version>
43012

> <i_f3d_flags>
0

> <s_epik_input>
W0NIM11OKFtDSDNdKWMxbltjSF1uW2NIXWMxW05IXUMoPU8pW05IXUMyKFtDSDNdKVtDSDJdW0NIMl1bQ0gyXTI=

> <s_epik_cmdline>
J2VwaWtfcHl0aG9uJywgJy1waCcsICc3LjAnLCAnLXRuJywgJzgnLCAnLW1hJywgJzIwMCcsICctbWV0YWxfYmluZGluZycsICctaW1hZScsICc8aW5maWxlLm1hZT4nLCAnLW9tYWUnLCAnPG91dGZpbGUubWFlPic=

> <r_lp_tautomer_probability>
0.999336

> <r_epik_Ionization_Penalty>
2.07201

> <r_epik_Ionization_Penalty_Charging>
2.07196

> <r_epik_Ionization_Penalty_Neutral>
5.01675e-05

> <r_epik_State_Penalty>
2.20599

> <r_epik_Charging_Adjusted_Penalty>
4.27795

> <i_epik_Tot_Q>
1

> <i_epik_Tot_abs_Q>
1

> <r_epik_Metal_State_Penalty>
2.22376

> <b_epik_Metal_Only>
0

> <s_lp_Force_Field>
OPLS_2005

> <r_lp_Energy>
22.2556

> <b_lp_Chiralities_Consistent>
1

> <s_lp_Variant>
AV-unprocessed.smi:2483-2

> <Gold.Version>
5.8.1

> <Gold.Id.Protein>
6NUR|6NUR_protein|mol2

> <Gold.PLP.Fitness>
39.7397

> <Gold.PLP.PLP>
-31.8689

> <Gold.PLP.part.hbond>
-3.0000

> <Gold.PLP.part.metal>
0.0000

> <Gold.PLP.part.buried>
-3.9318

> <Gold.PLP.part.nonpolar>
-25.9532

> <Gold.PLP.part.repulsive>
0.4989

> <Gold.PLP.ligand.clash>
0.0110

> <Gold.PLP.ligand.torsion>
0.8471

> <Gold.PLP.Chemscore.Hbond>
1.9760

> <Gold.PLP.Chemscore.CHOScore>
1.0000

> <Gold.PLP.Chemscore.Metal>
0.0000

> <Gold.Chemscore.Hbonds>
donor molecule, donor type, donor heavy atom, donor atom, acceptor molecule, acceptor atom, score
      L1  H    10    27       P1  8028  1.00
      L1  H    13    28       P1  8028  0.98
      L1  C     6    25       P1  7948  1.00

> <Gold.PLP.Chemscore.Internal.Correction>
0.6479

> <Gold.Rescore>
     Score         DG    S(hbond)    S(metal)    S(lipo)     H(rot)  DE(clash)    DE(int)     intcor
     15.08     -17.88       1.94        0.00      78.21       1.27       0.48       2.31       ----

> <Gold.Chemscore.Fitness>
15.0823

> <Gold.Chemscore.DG>
-17.8788

> <Gold.Chemscore.ZeroCoef>
-5.4800

> <Gold.Chemscore.Hbond>
1.9434

> <Gold.Chemscore.Metal>
0.0000

> <Gold.Chemscore.Lipo>
78.2080

> <Gold.Chemscore.Internal_Hbond>
0.0000

> <Gold.Chemscore.DEClash>
0.4818

> <Gold.Chemscore.DEInternal>
2.3147

> <Gold.Chemscore.Rot>
1.2666

> <Gold.Chemscore.Internal.Correction>
   9.000000E+99

> <Gold.Chemscore.Hbonds>
donor molecule, donor type, donor heavy atom, donor atom, acceptor molecule, acceptor atom, score
      L1  H    10    27       P1  8028  1.00
      L1  H    13    28       P1  8028  0.79

> <Gold.Chemscore.Hbond.Weighted>
-6.4911

> <Gold.Chemscore.Metal.Weighted>
-0.0000

> <Gold.Chemscore.Lipo.Weighted>
-9.1503

> <Gold.Chemscore.Internal_Hbond.Weighted>
0.0000

> <Gold.Chemscore.DEClash.Weighted>
0.4818

> <Gold.Chemscore.DEInternal.Weighted>
2.3147

> <Gold.Chemscore.Rot.Weighted>
3.2426

> <Gold.Chemscore.Internal.Correction.Weighted>
   9.000000E+99

> <Gold.Protein.RotatedTorsions>
[ 6907 6896 6895 6894 ] final  -93.65 input  -60.11 | X-H torsion
[ 7974 7965 7964 7962 ] final -159.14 input  175.53 | X-H torsion
[ 8008 7997 7996 7995 ] final  -95.63 input   59.86 | X-H torsion
[ 10167 10162 10161 10158 ] final  154.99 input  -65.29 | X-H torsion
[ 10718 10713 10712 10709 ] final   43.49 input   66.30 | X-H torsion
[ 10763 10752 10751 10750 ] final   53.91 input  -60.55 | X-H torsion
[ 11005 11000 10999 10996 ] final  171.67 input  -57.11 | X-H torsion

> <Gold.Protein.ActiveResidues>
 VAL166  LYS551  ARG553  GLY616  TRP617  ASP618  TYR619  PRO620  LYS621  CYS622 
 ASP623  PHE694  ASN695  SER759  ASP760  ASP761  ALA762  ILE779  LEU786  VAL792 
 PHE793  MET794  SER795  GLU796  ALA797  LYS798  CYS799  TRP800  GLU811  SER814 

> <Gold.Protein.RotatedAtoms>
  150.6926  134.1934  159.4293 H   0  0  0  0  0  0  0  0  0  0  0  0  # atno 6907 bound_to 6896
  151.9904  134.9980  160.0570 H   0  0  0  0  0  0  0  0  0  0  0  0  # atno 6908 bound_to 6896
  152.1673  133.4585  159.4928 H   0  0  0  0  0  0  0  0  0  0  0  0  # atno 6909 bound_to 6896
  144.7477  140.3727  143.6072 H   0  0  0  0  0  0  0  0  0  0  0  0  # atno 7974 bound_to 7965
  154.7639  140.0478  157.0996 H   0  0  0  0  0  0  0  0  0  0  0  0  # atno 8008 bound_to 7997
  154.9904  140.3112  155.4889 H   0  0  0  0  0  0  0  0  0  0  0  0  # atno 8009 bound_to 7997
  156.2909  140.2220  156.5008 H   0  0  0  0  0  0  0  0  0  0  0  0  # atno 8010 bound_to 7997
  139.4822  144.5138  151.7983 H   0  0  0  0  0  0  0  0  0  0  0  0  # atno 10167 bound_to 10162
  157.4165  130.7944  149.7476 H   0  0  0  0  0  0  0  0  0  0  0  0  # atno 10718 bound_to 10713
  152.9799  135.5763  154.4819 H   0  0  0  0  0  0  0  0  0  0  0  0  # atno 10763 bound_to 10752
  154.4366  135.2775  155.1878 H   0  0  0  0  0  0  0  0  0  0  0  0  # atno 10764 bound_to 10752
  154.3564  135.6198  153.5722 H   0  0  0  0  0  0  0  0  0  0  0  0  # atno 10765 bound_to 10752
  140.3214  134.7434  157.4067 H   0  0  0  0  0  0  0  0  0  0  0  0  # atno 11005 bound_to 11000
  145.7061  139.1673  143.2565 LP  0  0  0  0  0  0  0  0  0  0  0  0  # atno 17320 bound_to 7965
  146.1381  140.7095  142.9380 LP  0  0  0  0  0  0  0  0  0  0  0  0  # atno 17321 bound_to 7965
  140.4644  144.1676  150.5910 LP  0  0  0  0  0  0  0  0  0  0  0  0  # atno 17342 bound_to 10162
  140.4450  143.2510  151.9423 LP  0  0  0  0  0  0  0  0  0  0  0  0  # atno 17343 bound_to 10162
  155.9867  130.3973  150.3201 LP  0  0  0  0  0  0  0  0  0  0  0  0  # atno 17370 bound_to 10713
  157.1345  131.0280  151.2955 LP  0  0  0  0  0  0  0  0  0  0  0  0  # atno 17371 bound_to 10713
  140.0938  134.5565  155.8418 LP  0  0  0  0  0  0  0  0  0  0  0  0  # atno 17394 bound_to 11000
  141.2085  133.6675  156.6379 LP  0  0  0  0  0  0  0  0  0  0  0  0  # atno 17395 bound_to 11000

$$$$
