AV-unprocessed.smi:2990|AV-procd|sdf|11396|dock5
  -GOLD-   2272016323D 1   1.00000     0.00000
 Structure written by MMmdl.
 40 42  0  0  0  0  0  0  0  0  2 V2000
  149.5859  141.3461  155.0690 C   0  0  0  0  0  0  0  0  0  0  0  0
  150.4020  141.8005  156.2325 C   0  0  0  0  0  0  0  0  0  0  0  0
  150.4032  143.0530  156.7702 N   0  3  0  0  0  0  0  0  0  0  0  0
  151.2947  143.1059  157.8431 C   0  0  0  0  0  0  0  0  0  0  0  0
  151.6375  144.1525  158.6936 C   0  0  0  0  0  0  0  0  0  0  0  0
  152.5903  143.8684  159.6942 C   0  0  0  0  0  0  0  0  0  0  0  0
  153.1639  142.5862  159.8196 C   0  0  0  0  0  0  0  0  0  0  0  0
  152.8097  141.5333  158.9501 C   0  0  0  0  0  0  0  0  0  0  0  0
  151.8654  141.8226  157.9656 C   0  0  0  0  0  0  0  0  0  0  0  0
  151.2826  141.0505  156.9552 N   0  0  0  0  0  0  0  0  0  0  0  0
  151.6765  139.6409  156.8126 C   0  0  0  0  0  0  0  0  0  0  0  0
  151.8396  139.2051  155.3422 C   0  0  1  0  0  0  0  0  0  0  0  0
  153.1360  139.5363  154.8863 O   0  0  0  0  0  0  0  0  0  0  0  0
  151.6239  137.6970  155.1536 C   0  0  0  0  0  0  0  0  0  0  0  0
  150.2555  137.3958  155.3942 O   0  0  0  0  0  0  0  0  0  0  0  0
  149.8274  136.1011  155.1939 C   0  0  0  0  0  0  0  0  0  0  0  0
  148.4340  135.8851  155.1653 C   0  0  0  0  0  0  0  0  0  0  0  0
  147.9082  134.5939  154.9669 C   0  0  0  0  0  0  0  0  0  0  0  0
  148.7761  133.5002  154.7927 C   0  0  0  0  0  0  0  0  0  0  0  0
  150.1686  133.7012  154.8171 C   0  0  0  0  0  0  0  0  0  0  0  0
  150.6944  134.9928  155.0162 C   0  0  0  0  0  0  0  0  0  0  0  0
  148.8797  142.1209  154.7701 H   0  0  0  0  0  0  0  0  0  0  0  0
  149.0250  140.4478  155.3277 H   0  0  0  0  0  0  0  0  0  0  0  0
  150.2339  141.1210  154.2218 H   0  0  0  0  0  0  0  0  0  0  0  0
  151.2004  145.1357  158.5987 H   0  0  0  0  0  0  0  0  0  0  0  0
  152.8872  144.6497  160.3790 H   0  0  0  0  0  0  0  0  0  0  0  0
  153.8907  142.4064  160.5985 H   0  0  0  0  0  0  0  0  0  0  0  0
  153.2545  140.5546  159.0532 H   0  0  0  0  0  0  0  0  0  0  0  0
  152.6123  139.5009  157.3550 H   0  0  0  0  0  0  0  0  0  0  0  0
  150.9340  139.0259  157.3226 H   0  0  0  0  0  0  0  0  0  0  0  0
  151.1280  139.7428  154.7153 H   0  0  0  0  0  0  0  0  0  0  0  0
  153.0542  140.0256  154.0823 H   0  0  0  0  0  0  0  0  0  0  0  0
  151.8840  137.4139  154.1320 H   0  0  0  0  0  0  0  0  0  0  0  0
  152.2684  137.1392  155.8352 H   0  0  0  0  0  0  0  0  0  0  0  0
  147.7603  136.7189  155.2989 H   0  0  0  0  0  0  0  0  0  0  0  0
  146.8389  134.4433  154.9483 H   0  0  0  0  0  0  0  0  0  0  0  0
  148.3746  132.5092  154.6403 H   0  0  0  0  0  0  0  0  0  0  0  0
  150.8364  132.8629  154.6825 H   0  0  0  0  0  0  0  0  0  0  0  0
  151.7675  135.1067  155.0270 H   0  0  0  0  0  0  0  0  0  0  0  0
  149.8353  143.8160  156.4248 H   0  0  0  0  0  0  0  0  0  0  0  0
  1  2  1  0  0  0  0
  1 22  1  0  0  0  0
  1 23  1  0  0  0  0
  1 24  1  0  0  0  0
  2 10  1  0  0  0  0
  2  3  2  0  0  0  0
  3  4  1  0  0  0  0
  3 40  1  0  0  0  0
  4  9  2  0  0  0  0
  4  5  1  0  0  0  0
  5  6  2  0  0  0  0
  5 25  1  0  0  0  0
  6  7  1  0  0  0  0
  6 26  1  0  0  0  0
  7  8  2  0  0  0  0
  7 27  1  0  0  0  0
  8  9  1  0  0  0  0
  8 28  1  0  0  0  0
  9 10  1  0  0  0  0
 10 11  1  0  0  0  0
 11 12  1  0  0  0  0
 11 29  1  0  0  0  0
 11 30  1  0  0  0  0
 12 13  1  0  0  0  0
 12 14  1  0  0  0  0
 12 31  1  0  0  0  0
 13 32  1  0  0  0  0
 14 15  1  0  0  0  0
 14 33  1  0  0  0  0
 14 34  1  0  0  0  0
 15 16  1  0  0  0  0
 16 21  1  0  0  0  0
 16 17  2  0  0  0  0
 17 18  1  0  0  0  0
 17 35  1  0  0  0  0
 18 19  2  0  0  0  0
 18 36  1  0  0  0  0
 19 20  1  0  0  0  0
 19 37  1  0  0  0  0
 20 21  2  0  0  0  0
 20 38  1  0  0  0  0
 21 39  1  0  0  0  0
M  CHG  1   3   1
M  END
> <s_m_source_file>
AV-unprocessed.smi

> <i_m_source_file_index>
2990

> <i_lp_mmshare_version>
43012

> <i_f3d_flags>
0

> <s_epik_input>
W2NIXTFbY0hdW2NIXVtjSF1jKGMxMiluKGMobjIpW0NIM10pW0NIMl1bQ0BIXShbT0hdKVtDSDJdT2MzW2NIXVtjSF1bY0hdW2NIXVtjSF0z

> <s_epik_cmdline>
J2VwaWtfcHl0aG9uJywgJy1waCcsICc3LjAnLCAnLXRuJywgJzgnLCAnLW1hJywgJzIwMCcsICctbWV0YWxfYmluZGluZycsICctaW1hZScsICc8aW5maWxlLm1hZT4nLCAnLW9tYWUnLCAnPG91dGZpbGUubWFlPic=

> <r_lp_tautomer_probability>
1

> <r_epik_Ionization_Penalty>
1.00673

> <r_epik_Ionization_Penalty_Charging>
1.00673

> <r_epik_Ionization_Penalty_Neutral>
2.3993e-06

> <r_epik_State_Penalty>
1.05579

> <r_epik_Charging_Adjusted_Penalty>
2.06252

> <i_epik_Tot_Q>
1

> <i_epik_Tot_abs_Q>
1

> <r_epik_Metal_State_Penalty>
5.03947

> <b_epik_Metal_Only>
0

> <s_lp_Force_Field>
OPLS_2005

> <r_lp_Energy>
17.9265

> <b_lp_Chiralities_Consistent>
1

> <s_lp_Variant>
AV-unprocessed.smi:2990-4

> <Gold.Version>
5.8.1

> <Gold.Id.Protein>
6NUR|6NUR_protein|mol2

> <Gold.PLP.Fitness>
51.8846

> <Gold.PLP.PLP>
-44.3331

> <Gold.PLP.part.hbond>
-2.8511

> <Gold.PLP.part.metal>
0.0000

> <Gold.PLP.part.buried>
-5.1765

> <Gold.PLP.part.nonpolar>
-37.2013

> <Gold.PLP.part.repulsive>
0.1396

> <Gold.PLP.ligand.clash>
0.0000

> <Gold.PLP.ligand.torsion>
0.7437

> <Gold.PLP.Chemscore.Hbond>
3.0000

> <Gold.PLP.Chemscore.CHOScore>
0.0000

> <Gold.PLP.Chemscore.Metal>
0.0000

> <Gold.Chemscore.Hbonds>
donor molecule, donor type, donor heavy atom, donor atom, acceptor molecule, acceptor atom, score
      L1  H     3    40       P1  8028  1.89
      P1  H  7997  8009       L1    13  1.00

> <Gold.PLP.Chemscore.Internal.Correction>
0.0388

> <Gold.Rescore>
     Score         DG    S(hbond)    S(metal)    S(lipo)     H(rot)  DE(clash)    DE(int)     intcor
     20.02     -20.85       1.97        0.00     121.61       2.12       0.18       0.65       ----

> <Gold.Chemscore.Fitness>
20.0245

> <Gold.Chemscore.DG>
-20.8539

> <Gold.Chemscore.ZeroCoef>
-5.4800

> <Gold.Chemscore.Hbond>
1.9668

> <Gold.Chemscore.Metal>
0.0000

> <Gold.Chemscore.Lipo>
121.6074

> <Gold.Chemscore.Internal_Hbond>
0.0000

> <Gold.Chemscore.DEClash>
0.1840

> <Gold.Chemscore.DEInternal>
0.6454

> <Gold.Chemscore.Rot>
2.1184

> <Gold.Chemscore.Internal.Correction>
   9.000000E+99

> <Gold.Chemscore.Hbonds>
donor molecule, donor type, donor heavy atom, donor atom, acceptor molecule, acceptor atom, score
      L1  H     3    40       P1  8028  0.90
      P1  H  7997  8009       L1    13  0.70

> <Gold.Chemscore.Hbond.Weighted>
-6.5690

> <Gold.Chemscore.Metal.Weighted>
-0.0000

> <Gold.Chemscore.Lipo.Weighted>
-14.2281

> <Gold.Chemscore.Internal_Hbond.Weighted>
0.0000

> <Gold.Chemscore.DEClash.Weighted>
0.1840

> <Gold.Chemscore.DEInternal.Weighted>
0.6454

> <Gold.Chemscore.Rot.Weighted>
5.4231

> <Gold.Chemscore.Internal.Correction.Weighted>
   9.000000E+99

> <Gold.Protein.RotatedTorsions>
[ 6907 6896 6895 6894 ] final  -47.64 input  -60.11 | X-H torsion
[ 7974 7965 7964 7962 ] final  111.11 input  175.53 | X-H torsion
[ 8008 7997 7996 7995 ] final -133.34 input   59.86 | X-H torsion
[ 10167 10162 10161 10158 ] final  106.31 input  -65.29 | X-H torsion
[ 10718 10713 10712 10709 ] final  -35.55 input   66.30 | X-H torsion
[ 10763 10752 10751 10750 ] final -115.77 input  -60.55 | X-H torsion
[ 11005 11000 10999 10996 ] final -116.43 input  -57.11 | X-H torsion

> <Gold.Protein.ActiveResidues>
 VAL166  LYS551  ARG553  GLY616  TRP617  ASP618  TYR619  PRO620  LYS621  CYS622 
 ASP623  PHE694  ASN695  SER759  ASP760  ASP761  ALA762  ILE779  LEU786  VAL792 
 PHE793  MET794  SER795  GLU796  ALA797  LYS798  CYS799  TRP800  GLU811  SER814 

> <Gold.Protein.RotatedAtoms>
  150.8987  134.8397  159.7344 H   0  0  0  0  0  0  0  0  0  0  0  0  # atno 6907 bound_to 6896
  152.4880  134.4536  159.9592 H   0  0  0  0  0  0  0  0  0  0  0  0  # atno 6908 bound_to 6896
  151.4590  133.3558  159.2841 H   0  0  0  0  0  0  0  0  0  0  0  0  # atno 6909 bound_to 6896
  145.2464  139.2757  143.4090 H   0  0  0  0  0  0  0  0  0  0  0  0  # atno 7974 bound_to 7965
  155.3438  140.0473  157.3045 H   0  0  0  0  0  0  0  0  0  0  0  0  # atno 8008 bound_to 7997
  154.5263  140.2242  155.8849 H   0  0  0  0  0  0  0  0  0  0  0  0  # atno 8009 bound_to 7997
  156.1742  140.3089  155.9036 H   0  0  0  0  0  0  0  0  0  0  0  0  # atno 8010 bound_to 7997
  139.7020  144.7092  151.1170 H   0  0  0  0  0  0  0  0  0  0  0  0  # atno 10167 bound_to 10162
  156.3373  130.4288  149.7818 H   0  0  0  0  0  0  0  0  0  0  0  0  # atno 10718 bound_to 10713
  154.8494  135.4370  154.1715 H   0  0  0  0  0  0  0  0  0  0  0  0  # atno 10763 bound_to 10752
  153.2827  135.6955  153.7375 H   0  0  0  0  0  0  0  0  0  0  0  0  # atno 10764 bound_to 10752
  153.6573  135.3441  155.3092 H   0  0  0  0  0  0  0  0  0  0  0  0  # atno 10765 bound_to 10752
  141.0423  133.9817  157.2975 H   0  0  0  0  0  0  0  0  0  0  0  0  # atno 11005 bound_to 11000
  146.3314  140.2842  142.8612 LP  0  0  0  0  0  0  0  0  0  0  0  0  # atno 17320 bound_to 7965
  144.9542  140.8210  143.5553 LP  0  0  0  0  0  0  0  0  0  0  0  0  # atno 17321 bound_to 7965
  140.7712  143.5411  150.9311 LP  0  0  0  0  0  0  0  0  0  0  0  0  # atno 17342 bound_to 10162
  139.9093  143.6739  152.3118 LP  0  0  0  0  0  0  0  0  0  0  0  0  # atno 17343 bound_to 10162
  156.5068  130.8154  151.3153 LP  0  0  0  0  0  0  0  0  0  0  0  0  # atno 17370 bound_to 10713
  157.7441  130.9927  150.2645 LP  0  0  0  0  0  0  0  0  0  0  0  0  # atno 17371 bound_to 10713
  139.9285  135.0201  156.8317 LP  0  0  0  0  0  0  0  0  0  0  0  0  # atno 17394 bound_to 11000
  140.6212  133.9992  155.7619 LP  0  0  0  0  0  0  0  0  0  0  0  0  # atno 17395 bound_to 11000

$$$$
