AV-unprocessed.smi:14|AV-procd|sdf|78|dock7
  -GOLD-   2262015203D 1   1.00000     0.00000
 Structure written by MMmdl.
 57 60  0  0  0  0  0  0  0  0  1 V2000
  152.4154  136.1673  157.2206 N   0  0  0  0  0  0  0  0  0  0  0  0
  151.6962  136.9948  157.5905 C   0  0  0  0  0  0  0  0  0  0  0  0
  150.7829  138.0467  158.0602 C   0  0  0  0  0  0  0  0  0  0  0  0
  151.4555  138.9965  159.0634 C   0  0  0  0  0  0  0  0  0  0  0  0
  152.1779  140.0931  158.4144 N   0  0  0  0  0  0  0  0  0  0  0  0
  153.1334  140.8367  159.2385 C   0  0  0  0  0  0  0  0  0  0  0  0
  152.7476  142.3131  159.4699 C   0  0  1  0  0  0  0  0  0  0  0  0
  152.3629  143.0858  158.2209 C   0  0  0  0  0  0  0  0  0  0  0  0
  151.5605  144.2512  158.7915 C   0  0  0  0  0  0  0  0  0  0  0  0
  150.9776  143.7734  160.0001 O   0  0  0  0  0  0  0  0  0  0  0  0
  151.4716  142.4717  160.2957 C   0  0  0  0  0  0  0  0  0  0  0  0
  152.4909  139.9767  157.0951 C   0  0  0  0  0  0  0  0  0  0  0  0
  153.3605  139.0097  156.6950 N   0  0  0  0  0  0  0  0  0  0  0  0
  153.7110  138.9003  155.4112 C   0  0  0  0  0  0  0  0  0  0  0  0
  153.3172  139.6404  154.3747 N   0  0  0  0  0  0  0  0  0  0  0  0
  152.4333  140.6035  154.7607 C   0  0  0  0  0  0  0  0  0  0  0  0
  151.9721  140.8411  156.0875 C   0  0  0  0  0  0  0  0  0  0  0  0
  151.0801  141.9069  156.0888 N   0  0  0  0  0  0  0  0  0  0  0  0
  151.0324  142.2883  154.8423 C   0  0  0  0  0  0  0  0  0  0  0  0
  151.8002  141.5489  153.9710 N   0  0  0  0  0  0  0  0  0  0  0  0
  151.9341  141.7610  152.5357 C   0  0  0  0  0  0  0  0  0  0  0  0
  150.5925  141.9580  151.7600 C   0  0  0  0  0  0  0  0  0  0  0  0
  150.3408  143.4807  151.5712 C   0  0  0  0  0  0  0  0  0  0  0  0
  149.1333  143.7742  150.8966 O   0  0  0  0  0  0  0  0  0  0  0  0
  150.7056  141.2613  150.3786 C   0  0  0  0  0  0  0  0  0  0  0  0
  150.6872  139.7249  150.4841 C   0  0  0  0  0  0  0  0  0  0  0  0
  149.5149  139.2991  151.1673 O   0  0  0  0  0  0  0  0  0  0  0  0
  149.4499  139.7786  152.5045 C   0  0  0  0  0  0  0  0  0  0  0  0
  149.3947  141.3178  152.5087 C   0  0  0  0  0  0  0  0  0  0  0  0
  150.4210  138.5795  157.1817 H   0  0  0  0  0  0  0  0  0  0  0  0
  149.9227  137.5589  158.5193 H   0  0  0  0  0  0  0  0  0  0  0  0
  150.6902  139.4156  159.7174 H   0  0  0  0  0  0  0  0  0  0  0  0
  152.1332  138.4399  159.7122 H   0  0  0  0  0  0  0  0  0  0  0  0
  153.3052  140.3429  160.1931 H   0  0  0  0  0  0  0  0  0  0  0  0
  154.0959  140.8031  158.7270 H   0  0  0  0  0  0  0  0  0  0  0  0
  153.5544  142.8388  159.9828 H   0  0  0  0  0  0  0  0  0  0  0  0
  153.2198  143.4214  157.6374 H   0  0  0  0  0  0  0  0  0  0  0  0
  151.7297  142.4749  157.5754 H   0  0  0  0  0  0  0  0  0  0  0  0
  152.2200  145.0858  159.0325 H   0  0  0  0  0  0  0  0  0  0  0  0
  150.8002  144.6095  158.0969 H   0  0  0  0  0  0  0  0  0  0  0  0
  150.7205  141.7418  159.9894 H   0  0  0  0  0  0  0  0  0  0  0  0
  151.6464  142.3468  161.3646 H   0  0  0  0  0  0  0  0  0  0  0  0
  154.4097  138.1093  155.1822 H   0  0  0  0  0  0  0  0  0  0  0  0
  150.4242  143.1209  154.5198 H   0  0  0  0  0  0  0  0  0  0  0  0
  152.5667  142.6388  152.3963 H   0  0  0  0  0  0  0  0  0  0  0  0
  152.5095  140.9279  152.1348 H   0  0  0  0  0  0  0  0  0  0  0  0
  150.2980  143.9899  152.5338 H   0  0  0  0  0  0  0  0  0  0  0  0
  151.1581  143.9331  151.0084 H   0  0  0  0  0  0  0  0  0  0  0  0
  149.2939  144.4760  150.2842 H   0  0  0  0  0  0  0  0  0  0  0  0
  149.8717  141.5499  149.7384 H   0  0  0  0  0  0  0  0  0  0  0  0
  151.6067  141.5882  149.8586 H   0  0  0  0  0  0  0  0  0  0  0  0
  150.6836  139.2874  149.4858 H   0  0  0  0  0  0  0  0  0  0  0  0
  151.5768  139.3422  150.9848 H   0  0  0  0  0  0  0  0  0  0  0  0
  148.5525  139.3756  152.9738 H   0  0  0  0  0  0  0  0  0  0  0  0
  150.2957  139.4009  153.0785 H   0  0  0  0  0  0  0  0  0  0  0  0
  149.3256  141.6915  153.5298 H   0  0  0  0  0  0  0  0  0  0  0  0
  148.4604  141.6089  152.0282 H   0  0  0  0  0  0  0  0  0  0  0  0
  1  2  3  0  0  0  0
  2  3  1  0  0  0  0
  3  4  1  0  0  0  0
  3 30  1  0  0  0  0
  3 31  1  0  0  0  0
  4  5  1  0  0  0  0
  4 32  1  0  0  0  0
  4 33  1  0  0  0  0
  5  6  1  0  0  0  0
  5 12  1  0  0  0  0
  6  7  1  0  0  0  0
  6 34  1  0  0  0  0
  6 35  1  0  0  0  0
  7 11  1  0  0  0  0
  7  8  1  0  0  0  0
  7 36  1  0  0  0  0
  8  9  1  0  0  0  0
  8 37  1  0  0  0  0
  8 38  1  0  0  0  0
  9 10  1  0  0  0  0
  9 39  1  0  0  0  0
  9 40  1  0  0  0  0
 10 11  1  0  0  0  0
 11 41  1  0  0  0  0
 11 42  1  0  0  0  0
 12 17  1  0  0  0  0
 12 13  2  0  0  0  0
 13 14  1  0  0  0  0
 14 15  2  0  0  0  0
 14 43  1  0  0  0  0
 15 16  1  0  0  0  0
 16 20  1  0  0  0  0
 16 17  2  0  0  0  0
 17 18  1  0  0  0  0
 18 19  2  0  0  0  0
 19 20  1  0  0  0  0
 19 44  1  0  0  0  0
 20 21  1  0  0  0  0
 21 22  1  0  0  0  0
 21 45  1  0  0  0  0
 21 46  1  0  0  0  0
 22 29  1  0  0  0  0
 22 23  1  0  0  0  0
 22 25  1  0  0  0  0
 23 24  1  0  0  0  0
 23 47  1  0  0  0  0
 23 48  1  0  0  0  0
 24 49  1  0  0  0  0
 25 26  1  0  0  0  0
 25 50  1  0  0  0  0
 25 51  1  0  0  0  0
 26 27  1  0  0  0  0
 26 52  1  0  0  0  0
 26 53  1  0  0  0  0
 27 28  1  0  0  0  0
 28 29  1  0  0  0  0
 28 54  1  0  0  0  0
 28 55  1  0  0  0  0
 29 56  1  0  0  0  0
 29 57  1  0  0  0  0
M  END
> <s_m_source_file>
AV-unprocessed.smi

> <i_m_source_file_index>
14

> <i_lp_mmshare_version>
43012

> <i_f3d_flags>
0

> <s_epik_input>
W0NIMl0xT1tDSDJdW0NIMl1bQ0BIXTFbQ0gyXU4oW0NIMl1bQ0gyXUMjTiljKG5bY0hdbjIpYyhjMjMpbltjSF1uM1tDSDJdQzQoW0NIMl1bT0hdKVtDSDJdW0NIMl1PW0NIMl1bQ0gyXTQ=

> <s_epik_cmdline>
J2VwaWtfcHl0aG9uJywgJy1waCcsICc3LjAnLCAnLXRuJywgJzgnLCAnLW1hJywgJzIwMCcsICctbWV0YWxfYmluZGluZycsICctaW1hZScsICc8aW5maWxlLm1hZT4nLCAnLW9tYWUnLCAnPG91dGZpbGUubWFlPic=

> <r_lp_tautomer_probability>
1

> <r_epik_Ionization_Penalty>
0.000542547

> <r_epik_Ionization_Penalty_Charging>
0

> <r_epik_Ionization_Penalty_Neutral>
0.000542547

> <r_epik_State_Penalty>
0.000265709

> <r_epik_Charging_Adjusted_Penalty>
0.000265709

> <i_epik_Tot_Q>
0

> <i_epik_Tot_abs_Q>
0

> <r_epik_Metal_State_Penalty>
-0

> <b_epik_Metal_Only>
0

> <s_lp_Force_Field>
OPLS_2005

> <r_lp_Energy>
43.0361

> <b_lp_Chiralities_Consistent>
1

> <s_lp_Variant>
AV-unprocessed.smi:14-2

> <Gold.Version>
5.8.1

> <Gold.Id.Protein>
6NUR|6NUR_protein|mol2

> <Gold.PLP.Fitness>
54.8580

> <Gold.PLP.PLP>
-49.1464

> <Gold.PLP.part.hbond>
-3.8840

> <Gold.PLP.part.metal>
0.0000

> <Gold.PLP.part.buried>
-0.7617

> <Gold.PLP.part.nonpolar>
-43.7664

> <Gold.PLP.part.repulsive>
0.4071

> <Gold.PLP.ligand.clash>
0.0000

> <Gold.PLP.ligand.torsion>
2.8456

> <Gold.PLP.Chemscore.Hbond>
2.9100

> <Gold.PLP.Chemscore.CHOScore>
0.5299

> <Gold.PLP.Chemscore.Metal>
0.0000

> <Gold.Chemscore.Hbonds>
donor molecule, donor type, donor heavy atom, donor atom, acceptor molecule, acceptor atom, score
      P1  H 10752 10764       L1     1  0.29
      L1  C    19    44       P1  8028  1.00

> <Gold.PLP.Chemscore.Internal.Correction>
1.0831

> <Gold.Rescore>
     Score         DG    S(hbond)    S(metal)    S(lipo)     H(rot)  DE(clash)    DE(int)     intcor
      8.22     -14.99       1.59        0.00     107.28       3.26       2.33       4.45       ----

> <Gold.Chemscore.Fitness>
8.2184

> <Gold.Chemscore.DG>
-14.9943

> <Gold.Chemscore.ZeroCoef>
-5.4800

> <Gold.Chemscore.Hbond>
1.5857

> <Gold.Chemscore.Metal>
0.0000

> <Gold.Chemscore.Lipo>
107.2782

> <Gold.Chemscore.Internal_Hbond>
0.0000

> <Gold.Chemscore.DEClash>
2.3255

> <Gold.Chemscore.DEInternal>
4.4504

> <Gold.Chemscore.Rot>
3.2553

> <Gold.Chemscore.Internal.Correction>
   9.000000E+99

> <Gold.Chemscore.Hbonds>
donor molecule, donor type, donor heavy atom, donor atom, acceptor molecule, acceptor atom, score
      P1  H 10752 10764       L1     1  0.29

> <Gold.Chemscore.Hbond.Weighted>
-5.2963

> <Gold.Chemscore.Metal.Weighted>
-0.0000

> <Gold.Chemscore.Lipo.Weighted>
-12.5516

> <Gold.Chemscore.Internal_Hbond.Weighted>
0.0000

> <Gold.Chemscore.DEClash.Weighted>
2.3255

> <Gold.Chemscore.DEInternal.Weighted>
4.4504

> <Gold.Chemscore.Rot.Weighted>
8.3336

> <Gold.Chemscore.Internal.Correction.Weighted>
   9.000000E+99

> <Gold.Protein.RotatedTorsions>
[ 6907 6896 6895 6894 ] final -171.54 input  -60.11 | X-H torsion
[ 7974 7965 7964 7962 ] final  -39.61 input  175.53 | X-H torsion
[ 8008 7997 7996 7995 ] final -163.20 input   59.86 | X-H torsion
[ 10167 10162 10161 10158 ] final -130.74 input  -65.29 | X-H torsion
[ 10718 10713 10712 10709 ] final  -41.24 input   66.30 | X-H torsion
[ 10763 10752 10751 10750 ] final   -5.31 input  -60.55 | X-H torsion
[ 11005 11000 10999 10996 ] final  175.35 input  -57.11 | X-H torsion

> <Gold.Protein.ActiveResidues>
 VAL166  LYS551  ARG553  GLY616  TRP617  ASP618  TYR619  PRO620  LYS621  CYS622 
 ASP623  PHE694  ASN695  SER759  ASP760  ASP761  ALA762  ILE779  LEU786  VAL792 
 PHE793  MET794  SER795  GLU796  ALA797  LYS798  CYS799  TRP800  GLU811  SER814 

> <Gold.Protein.RotatedAtoms>
  151.5254  133.3459  159.2908 H   0  0  0  0  0  0  0  0  0  0  0  0  # atno 6907 bound_to 6896
  150.8626  134.7984  159.7105 H   0  0  0  0  0  0  0  0  0  0  0  0  # atno 6908 bound_to 6896
  152.4641  134.5126  159.9810 H   0  0  0  0  0  0  0  0  0  0  0  0  # atno 6909 bound_to 6896
  146.0380  140.6646  142.9101 H   0  0  0  0  0  0  0  0  0  0  0  0  # atno 7974 bound_to 7965
  155.8179  140.0915  157.1866 H   0  0  0  0  0  0  0  0  0  0  0  0  # atno 8008 bound_to 7997
  154.3979  140.1442  156.3524 H   0  0  0  0  0  0  0  0  0  0  0  0  # atno 8009 bound_to 7997
  155.8297  140.3443  155.5567 H   0  0  0  0  0  0  0  0  0  0  0  0  # atno 8010 bound_to 7997
  139.9262  143.6325  152.2541 H   0  0  0  0  0  0  0  0  0  0  0  0  # atno 10167 bound_to 10162
  156.2726  130.4208  149.8422 H   0  0  0  0  0  0  0  0  0  0  0  0  # atno 10718 bound_to 10713
  153.3968  135.7003  153.6455 H   0  0  0  0  0  0  0  0  0  0  0  0  # atno 10763 bound_to 10752
  153.5005  135.3653  155.2538 H   0  0  0  0  0  0  0  0  0  0  0  0  # atno 10764 bound_to 10752
  154.8707  135.4111  154.3295 H   0  0  0  0  0  0  0  0  0  0  0  0  # atno 10765 bound_to 10752
  140.3613  134.7110  157.4333 H   0  0  0  0  0  0  0  0  0  0  0  0  # atno 11005 bound_to 11000
  144.7061  140.3856  143.7117 LP  0  0  0  0  0  0  0  0  0  0  0  0  # atno 17320 bound_to 7965
  145.6932  139.1644  143.2635 LP  0  0  0  0  0  0  0  0  0  0  0  0  # atno 17321 bound_to 7965
  139.6820  144.7655  151.1591 LP  0  0  0  0  0  0  0  0  0  0  0  0  # atno 17342 bound_to 10162
  140.7649  143.5711  150.8995 LP  0  0  0  0  0  0  0  0  0  0  0  0  # atno 17343 bound_to 10162
  156.5898  130.8501  151.3405 LP  0  0  0  0  0  0  0  0  0  0  0  0  # atno 17370 bound_to 10713
  157.7289  130.9663  150.1761 LP  0  0  0  0  0  0  0  0  0  0  0  0  # atno 17371 bound_to 10713
  140.0625  134.5976  155.8733 LP  0  0  0  0  0  0  0  0  0  0  0  0  # atno 17394 bound_to 11000
  141.1983  133.6601  156.5786 LP  0  0  0  0  0  0  0  0  0  0  0  0  # atno 17395 bound_to 11000

$$$$
