AV-unprocessed.smi:2448|AV-procd|sdf|9655|dock3
  -GOLD-   2272013293D 1   1.00000     0.00000
 Structure written by MMmdl.
 38 39  0  0  0  0  0  0  0  0  2 V2000
  149.8877  140.8086  153.5047 O   0  0  0  0  0  0  0  0  0  0  0  0
  148.9259  140.5630  154.5172 C   0  0  1  0  0  0  0  0  0  0  0  0
  149.5996  140.7576  155.8905 C   0  0  0  0  0  0  0  0  0  0  0  0
  150.1487  139.4917  156.4263 N   0  3  0  0  0  0  0  0  0  0  0  0
  150.7952  139.5952  157.7563 C   0  0  2  0  0  0  0  0  0  0  0  0
  151.9984  140.5648  157.7143 C   0  0  0  0  0  0  0  0  0  0  0  0
  151.7375  141.8893  158.4081 C   0  0  0  0  0  0  0  0  0  0  0  0
  150.6721  142.7194  158.0011 C   0  0  0  0  0  0  0  0  0  0  0  0
  150.4581  143.9266  158.6963 C   0  0  0  0  0  0  0  0  0  0  0  0
  151.2228  144.3295  159.7335 N   0  0  0  0  0  0  0  0  0  0  0  0
  152.2448  143.5332  160.1135 C   0  0  0  0  0  0  0  0  0  0  0  0
  152.5435  142.3063  159.4871 C   0  0  0  0  0  0  0  0  0  0  0  0
  151.2153  138.1931  158.2378 C   0  0  0  0  0  0  0  0  0  0  0  0
  150.1310  137.4417  158.4305 F   0  0  0  0  0  0  0  0  0  0  0  0
  151.9942  137.5995  157.3329 F   0  0  0  0  0  0  0  0  0  0  0  0
  151.8765  138.2795  159.3918 F   0  0  0  0  0  0  0  0  0  0  0  0
  147.7687  141.5532  154.3056 C   0  0  0  0  0  0  0  0  0  0  0  0
  146.9690  141.0865  153.0851 C   0  0  0  0  0  0  0  0  0  0  0  0
  147.0194  139.2770  153.0595 S   0  0  0  0  0  0  0  0  0  0  0  0
  148.3127  139.1643  154.3240 C   0  0  0  0  0  0  0  0  0  0  0  0
  149.7772  140.1737  152.8140 H   0  0  0  0  0  0  0  0  0  0  0  0
  150.3910  141.5024  155.8060 H   0  0  0  0  0  0  0  0  0  0  0  0
  148.8775  141.1518  156.6069 H   0  0  0  0  0  0  0  0  0  0  0  0
  149.3814  138.8392  156.5054 H   0  0  0  0  0  0  0  0  0  0  0  0
  150.0651  139.9739  158.4743 H   0  0  0  0  0  0  0  0  0  0  0  0
  152.8629  140.1034  158.1928 H   0  0  0  0  0  0  0  0  0  0  0  0
  152.2931  140.7538  156.6811 H   0  0  0  0  0  0  0  0  0  0  0  0
  150.0270  142.4405  157.1808 H   0  0  0  0  0  0  0  0  0  0  0  0
  149.6487  144.5837  158.4139 H   0  0  0  0  0  0  0  0  0  0  0  0
  152.8400  143.8815  160.9447 H   0  0  0  0  0  0  0  0  0  0  0  0
  153.3698  141.7019  159.8322 H   0  0  0  0  0  0  0  0  0  0  0  0
  147.1138  141.5363  155.1780 H   0  0  0  0  0  0  0  0  0  0  0  0
  148.1160  142.5812  154.1916 H   0  0  0  0  0  0  0  0  0  0  0  0
  145.9415  141.4503  153.1034 H   0  0  0  0  0  0  0  0  0  0  0  0
  147.4338  141.4530  152.1690 H   0  0  0  0  0  0  0  0  0  0  0  0
  149.0544  138.4104  154.0576 H   0  0  0  0  0  0  0  0  0  0  0  0
  147.8325  138.8355  155.2466 H   0  0  0  0  0  0  0  0  0  0  0  0
  150.8212  139.1174  155.7723 H   0  0  0  0  0  0  0  0  0  0  0  0
  1  2  1  0  0  0  0
  1 21  1  0  0  0  0
  2 20  1  0  0  0  0
  2  3  1  0  0  0  0
  2 17  1  0  0  0  0
  3  4  1  0  0  0  0
  3 22  1  0  0  0  0
  3 23  1  0  0  0  0
  4  5  1  0  0  0  0
  4 24  1  0  0  0  0
  4 38  1  0  0  0  0
  5  6  1  0  0  0  0
  5 13  1  0  0  0  0
  5 25  1  0  0  0  0
  6  7  1  0  0  0  0
  6 26  1  0  0  0  0
  6 27  1  0  0  0  0
  7 12  1  0  0  0  0
  7  8  2  0  0  0  0
  8  9  1  0  0  0  0
  8 28  1  0  0  0  0
  9 10  2  0  0  0  0
  9 29  1  0  0  0  0
 10 11  1  0  0  0  0
 11 12  2  0  0  0  0
 11 30  1  0  0  0  0
 12 31  1  0  0  0  0
 13 14  1  0  0  0  0
 13 15  1  0  0  0  0
 13 16  1  0  0  0  0
 17 18  1  0  0  0  0
 17 32  1  0  0  0  0
 17 33  1  0  0  0  0
 18 19  1  0  0  0  0
 18 34  1  0  0  0  0
 18 35  1  0  0  0  0
 19 20  1  0  0  0  0
 20 36  1  0  0  0  0
 20 37  1  0  0  0  0
M  CHG  1   4   1
M  END
> <s_m_source_file>
AV-unprocessed.smi

> <i_m_source_file_index>
2448

> <i_lp_mmshare_version>
43012

> <i_f3d_flags>
0

> <s_epik_input>
W0NIMl0xU1tDSDJdW0NIMl1bQ0BAXTEoW09IXSlbQ0gyXVtOSF1bQ0BASF0oQyhGKShGKUYpW0NIMl1jMltjSF1bY0hdbltjSF1bY0hdMg==

> <s_epik_cmdline>
J2VwaWtfcHl0aG9uJywgJy1waCcsICc3LjAnLCAnLXRuJywgJzgnLCAnLW1hJywgJzIwMCcsICctbWV0YWxfYmluZGluZycsICctaW1hZScsICc8aW5maWxlLm1hZT4nLCAnLW9tYWUnLCAnPG91dGZpbGUubWFlPic=

> <r_epik_Ionization_Penalty>
1.19945

> <r_epik_Ionization_Penalty_Charging>
1.19892

> <r_epik_Ionization_Penalty_Neutral>
0.000532129

> <r_epik_State_Penalty>
0.752927

> <r_epik_Charging_Adjusted_Penalty>
1.95185

> <i_epik_Tot_Q>
1

> <i_epik_Tot_abs_Q>
1

> <r_epik_Metal_State_Penalty>
0.804507

> <b_epik_Metal_Only>
0

> <s_lp_Force_Field>
OPLS_2005

> <r_lp_Energy>
24.3965

> <b_lp_Chiralities_Consistent>
1

> <s_lp_Variant>
AV-unprocessed.smi:2448-5

> <Gold.Version>
5.8.1

> <Gold.Id.Protein>
6NUR|6NUR_protein|mol2

> <Gold.PLP.Fitness>
43.5635

> <Gold.PLP.PLP>
-36.2074

> <Gold.PLP.part.hbond>
-2.4326

> <Gold.PLP.part.metal>
0.0000

> <Gold.PLP.part.buried>
-6.1470

> <Gold.PLP.part.nonpolar>
-28.5848

> <Gold.PLP.part.repulsive>
0.0952

> <Gold.PLP.ligand.clash>
0.0000

> <Gold.PLP.ligand.torsion>
1.3456

> <Gold.PLP.Chemscore.Hbond>
2.0520

> <Gold.PLP.Chemscore.CHOScore>
1.0920

> <Gold.PLP.Chemscore.Metal>
0.0000

> <Gold.Chemscore.Hbonds>
donor molecule, donor type, donor heavy atom, donor atom, acceptor molecule, acceptor atom, score
      L1  H     1    21       P1  7957  0.83
      P1  H  7989  7998       L1     1  0.30
      P1  H  8011  8017       L1     1  0.80
      L1  C     9    29       P1  8028  0.06
      L1  C     9    29       P1  8029  1.00

> <Gold.PLP.Chemscore.Internal.Correction>
0.6153

> <Gold.Rescore>
     Score         DG    S(hbond)    S(metal)    S(lipo)     H(rot)  DE(clash)    DE(int)     intcor
     14.08     -15.46       1.19        0.00     103.52       2.39       0.01       1.37       ----

> <Gold.Chemscore.Fitness>
14.0832

> <Gold.Chemscore.DG>
-15.4575

> <Gold.Chemscore.ZeroCoef>
-5.4800

> <Gold.Chemscore.Hbond>
1.1901

> <Gold.Chemscore.Metal>
0.0000

> <Gold.Chemscore.Lipo>
103.5243

> <Gold.Chemscore.Internal_Hbond>
0.0000

> <Gold.Chemscore.DEClash>
0.0088

> <Gold.Chemscore.DEInternal>
1.3655

> <Gold.Chemscore.Rot>
2.3866

> <Gold.Chemscore.Internal.Correction>
   9.000000E+99

> <Gold.Chemscore.Hbonds>
donor molecule, donor type, donor heavy atom, donor atom, acceptor molecule, acceptor atom, score
      L1  H     1    21       P1  7957  0.83
      P1  H  7989  7998       L1     1  0.05
      P1  H  8011  8017       L1     1  0.11

> <Gold.Chemscore.Hbond.Weighted>
-3.9748

> <Gold.Chemscore.Metal.Weighted>
-0.0000

> <Gold.Chemscore.Lipo.Weighted>
-12.1123

> <Gold.Chemscore.Internal_Hbond.Weighted>
0.0000

> <Gold.Chemscore.DEClash.Weighted>
0.0088

> <Gold.Chemscore.DEInternal.Weighted>
1.3655

> <Gold.Chemscore.Rot.Weighted>
6.1096

> <Gold.Chemscore.Internal.Correction.Weighted>
   9.000000E+99

> <Gold.Protein.RotatedTorsions>
[ 6907 6896 6895 6894 ] final  -34.42 input  -60.11 | X-H torsion
[ 7974 7965 7964 7962 ] final -100.38 input  175.53 | X-H torsion
[ 8008 7997 7996 7995 ] final   89.05 input   59.86 | X-H torsion
[ 10167 10162 10161 10158 ] final  -77.88 input  -65.29 | X-H torsion
[ 10718 10713 10712 10709 ] final  -18.79 input   66.30 | X-H torsion
[ 10763 10752 10751 10750 ] final   16.18 input  -60.55 | X-H torsion
[ 11005 11000 10999 10996 ] final -159.01 input  -57.11 | X-H torsion

> <Gold.Protein.ActiveResidues>
 VAL166  LYS551  ARG553  GLY616  TRP617  ASP618  TYR619  PRO620  LYS621  CYS622 
 ASP623  PHE694  ASN695  SER759  ASP760  ASP761  ALA762  ILE779  LEU786  VAL792 
 PHE793  MET794  SER795  GLU796  ALA797  LYS798  CYS799  TRP800  GLU811  SER814 

> <Gold.Protein.RotatedAtoms>
  151.0529  134.9685  159.8220 H   0  0  0  0  0  0  0  0  0  0  0  0  # atno 6907 bound_to 6896
  152.5383  134.2514  159.8910 H   0  0  0  0  0  0  0  0  0  0  0  0  # atno 6908 bound_to 6896
  151.2531  133.4297  159.2646 H   0  0  0  0  0  0  0  0  0  0  0  0  # atno 6909 bound_to 6896
  145.2953  140.9363  143.2854 H   0  0  0  0  0  0  0  0  0  0  0  0  # atno 7974 bound_to 7965
  155.9952  140.3365  155.6792 H   0  0  0  0  0  0  0  0  0  0  0  0  # atno 8008 bound_to 7997
  155.6366  140.0690  157.2650 H   0  0  0  0  0  0  0  0  0  0  0  0  # atno 8009 bound_to 7997
  154.4232  140.1750  156.1516 H   0  0  0  0  0  0  0  0  0  0  0  0  # atno 8010 bound_to 7997
  140.4731  143.2421  151.8174 H   0  0  0  0  0  0  0  0  0  0  0  0  # atno 10167 bound_to 10162
  156.5546  130.4710  149.6435 H   0  0  0  0  0  0  0  0  0  0  0  0  # atno 10718 bound_to 10713
  153.1454  135.6768  153.8962 H   0  0  0  0  0  0  0  0  0  0  0  0  # atno 10763 bound_to 10752
  153.8405  135.3106  155.3427 H   0  0  0  0  0  0  0  0  0  0  0  0  # atno 10764 bound_to 10752
  154.7821  135.4882  153.9952 H   0  0  0  0  0  0  0  0  0  0  0  0  # atno 10765 bound_to 10752
  140.6473  134.4488  157.5234 H   0  0  0  0  0  0  0  0  0  0  0  0  # atno 11005 bound_to 11000
  144.9138  139.4495  143.6574 LP  0  0  0  0  0  0  0  0  0  0  0  0  # atno 17320 bound_to 7965
  146.3171  139.7961  142.8975 LP  0  0  0  0  0  0  0  0  0  0  0  0  # atno 17321 bound_to 7965
  139.4821  144.4866  151.9238 LP  0  0  0  0  0  0  0  0  0  0  0  0  # atno 17342 bound_to 10162
  140.3952  144.2565  150.5896 LP  0  0  0  0  0  0  0  0  0  0  0  0  # atno 17343 bound_to 10162
  156.2853  130.7094  151.1929 LP  0  0  0  0  0  0  0  0  0  0  0  0  # atno 17370 bound_to 10713
  157.7381  131.0545  150.5317 LP  0  0  0  0  0  0  0  0  0  0  0  0  # atno 17371 bound_to 10713
  139.9058  134.8452  156.1711 LP  0  0  0  0  0  0  0  0  0  0  0  0  # atno 17394 bound_to 11000
  141.0563  133.6863  156.1867 LP  0  0  0  0  0  0  0  0  0  0  0  0  # atno 17395 bound_to 11000

$$$$
