AV-unprocessed.smi:829|AV-procd|sdf|3866|dock6
  -GOLD-   22720 1313D 1   1.00000     0.00000
 Structure written by MMmdl.
 49 51  0  0  0  0  0  0  0  0  2 V2000
  150.6420  136.5974  156.1725 O   0  0  0  0  0  0  0  0  0  0  0  0
  150.1651  136.5320  155.0399 C   0  0  0  0  0  0  0  0  0  0  0  0
  149.8253  135.4017  154.3956 N   0  0  0  0  0  0  0  0  0  0  0  0
  149.9179  134.0526  154.8365 C   0  0  0  0  0  0  0  0  0  0  0  0
  149.4529  133.0496  153.9607 C   0  0  0  0  0  0  0  0  0  0  0  0
  149.5201  131.7030  154.3704 C   0  0  0  0  0  0  0  0  0  0  0  0
  150.0047  131.3157  155.5687 N   0  0  0  0  0  0  0  0  0  0  0  0
  150.4399  132.2767  156.4107 C   0  0  0  0  0  0  0  0  0  0  0  0
  150.4159  133.6513  156.1003 C   0  0  0  0  0  0  0  0  0  0  0  0
  149.9294  137.6113  154.2795 N   0  0  0  0  0  0  0  0  0  0  0  0
  150.2024  138.9906  154.6731 C   0  0  2  0  0  0  0  0  0  0  0  0
  151.5416  139.0925  155.4257 C   0  0  0  0  0  0  0  0  0  0  0  0
  151.7885  140.5237  155.9320 C   0  0  0  0  0  0  0  0  0  0  0  0
  150.6668  140.9926  156.7860 N   0  3  1  0  0  0  0  0  0  0  0  0
  150.9281  142.3139  157.4136 C   0  0  0  0  0  0  0  0  0  0  0  0
  151.4388  142.1710  158.8599 C   0  0  0  0  0  0  0  0  0  0  0  0
  151.8059  143.4855  159.5550 C   0  0  0  0  0  0  0  0  0  0  0  0
  152.7089  143.0756  160.7221 C   0  0  0  0  0  0  0  0  0  0  0  0
  153.3381  141.7323  160.3238 C   0  0  0  0  0  0  0  0  0  0  0  0
  152.7349  141.3621  158.9638 C   0  0  0  0  0  0  0  0  0  0  0  0
  149.3702  140.9396  156.0611 C   0  0  0  0  0  0  0  0  0  0  0  0
  149.0690  139.5147  155.5690 C   0  0  0  0  0  0  0  0  0  0  0  0
  149.4978  135.5180  153.4480 H   0  0  0  0  0  0  0  0  0  0  0  0
  149.0535  133.3015  152.9890 H   0  0  0  0  0  0  0  0  0  0  0  0
  149.1738  130.9157  153.7172 H   0  0  0  0  0  0  0  0  0  0  0  0
  150.8156  131.9400  157.3657 H   0  0  0  0  0  0  0  0  0  0  0  0
  150.7682  134.3555  156.8370 H   0  0  0  0  0  0  0  0  0  0  0  0
  149.5390  137.4680  153.3594 H   0  0  0  0  0  0  0  0  0  0  0  0
  150.2468  139.6167  153.7796 H   0  0  0  0  0  0  0  0  0  0  0  0
  151.5449  138.4039  156.2721 H   0  0  0  0  0  0  0  0  0  0  0  0
  152.3638  138.7874  154.7771 H   0  0  0  0  0  0  0  0  0  0  0  0
  152.7177  140.5429  156.5033 H   0  0  0  0  0  0  0  0  0  0  0  0
  151.9171  141.2053  155.0895 H   0  0  0  0  0  0  0  0  0  0  0  0
  151.6934  142.8434  156.8440 H   0  0  0  0  0  0  0  0  0  0  0  0
  150.0409  142.9477  157.3700 H   0  0  0  0  0  0  0  0  0  0  0  0
  150.6794  141.6633  159.4575 H   0  0  0  0  0  0  0  0  0  0  0  0
  152.3670  144.1249  158.8718 H   0  0  0  0  0  0  0  0  0  0  0  0
  150.9309  144.0432  159.8899 H   0  0  0  0  0  0  0  0  0  0  0  0
  153.4614  143.8360  160.9339 H   0  0  0  0  0  0  0  0  0  0  0  0
  152.1127  142.9467  161.6264 H   0  0  0  0  0  0  0  0  0  0  0  0
  154.4256  141.7933  160.2691 H   0  0  0  0  0  0  0  0  0  0  0  0
  153.0923  140.9733  161.0678 H   0  0  0  0  0  0  0  0  0  0  0  0
  152.5673  140.2895  158.8624 H   0  0  0  0  0  0  0  0  0  0  0  0
  153.4228  141.6618  158.1719 H   0  0  0  0  0  0  0  0  0  0  0  0
  148.5617  141.2725  156.7109 H   0  0  0  0  0  0  0  0  0  0  0  0
  149.3965  141.6289  155.2155 H   0  0  0  0  0  0  0  0  0  0  0  0
  148.1254  139.5059  155.0220 H   0  0  0  0  0  0  0  0  0  0  0  0
  148.9357  138.8551  156.4281 H   0  0  0  0  0  0  0  0  0  0  0  0
  150.6039  140.3308  157.5463 H   0  0  0  0  0  0  0  0  0  0  0  0
  1  2  2  0  0  0  0
  2  3  1  0  0  0  0
  2 10  1  0  0  0  0
  3  4  1  0  0  0  0
  3 23  1  0  0  0  0
  4  9  1  0  0  0  0
  4  5  2  0  0  0  0
  5  6  1  0  0  0  0
  5 24  1  0  0  0  0
  6  7  2  0  0  0  0
  6 25  1  0  0  0  0
  7  8  1  0  0  0  0
  8  9  2  0  0  0  0
  8 26  1  0  0  0  0
  9 27  1  0  0  0  0
 10 11  1  0  0  0  0
 10 28  1  0  0  0  0
 11 22  1  0  0  0  0
 11 12  1  0  0  0  0
 11 29  1  0  0  0  0
 12 13  1  0  0  0  0
 12 30  1  0  0  0  0
 12 31  1  0  0  0  0
 13 14  1  0  0  0  0
 13 32  1  0  0  0  0
 13 33  1  0  0  0  0
 14 15  1  0  0  0  0
 14 21  1  0  0  0  0
 14 49  1  0  0  0  0
 15 16  1  0  0  0  0
 15 34  1  0  0  0  0
 15 35  1  0  0  0  0
 16 20  1  0  0  0  0
 16 17  1  0  0  0  0
 16 36  1  0  0  0  0
 17 18  1  0  0  0  0
 17 37  1  0  0  0  0
 17 38  1  0  0  0  0
 18 19  1  0  0  0  0
 18 39  1  0  0  0  0
 18 40  1  0  0  0  0
 19 20  1  0  0  0  0
 19 41  1  0  0  0  0
 19 42  1  0  0  0  0
 20 43  1  0  0  0  0
 20 44  1  0  0  0  0
 21 22  1  0  0  0  0
 21 45  1  0  0  0  0
 21 46  1  0  0  0  0
 22 47  1  0  0  0  0
 22 48  1  0  0  0  0
M  CHG  1  14   1
M  END
> <s_m_source_file>
AV-unprocessed.smi

> <i_m_source_file_index>
829

> <i_lp_mmshare_version>
43012

> <i_f3d_flags>
0

> <s_epik_input>
W2NIXTFbY0hdbltjSF1bY0hdYzFbTkhdQyg9TylbTkhdW0NIXTJbQ0gyXVtDSDJdTihbQ0gyXVtDSDJdMilbQ0gyXVtDSF0zW0NIMl1bQ0gyXVtDSDJdW0NIMl0z

> <s_epik_cmdline>
J2VwaWtfcHl0aG9uJywgJy1waCcsICc3LjAnLCAnLXRuJywgJzgnLCAnLW1hJywgJzIwMCcsICctbWV0YWxfYmluZGluZycsICctaW1hZScsICc8aW5maWxlLm1hZT4nLCAnLW9tYWUnLCAnPG91dGZpbGUubWFlPic=

> <r_epik_Ionization_Penalty>
0.101981

> <r_epik_Ionization_Penalty_Charging>
0.00207989

> <r_epik_Ionization_Penalty_Neutral>
0.0999008

> <r_epik_State_Penalty>
0.0935668

> <r_epik_Charging_Adjusted_Penalty>
0.0956467

> <i_epik_Tot_Q>
1

> <i_epik_Tot_abs_Q>
1

> <r_epik_Metal_State_Penalty>
0.0787682

> <b_epik_Metal_Only>
0

> <s_lp_Force_Field>
OPLS_2005

> <r_lp_Energy>
43.2002

> <b_lp_Chiralities_Consistent>
1

> <s_lp_Variant>
AV-unprocessed.smi:829-1

> <Gold.Version>
5.8.1

> <Gold.Id.Protein>
6NUR|6NUR_protein|mol2

> <Gold.PLP.Fitness>
46.7760

> <Gold.PLP.PLP>
-42.7768

> <Gold.PLP.part.hbond>
-2.2664

> <Gold.PLP.part.metal>
0.0000

> <Gold.PLP.part.buried>
-5.5046

> <Gold.PLP.part.nonpolar>
-35.5621

> <Gold.PLP.part.repulsive>
0.1751

> <Gold.PLP.ligand.clash>
0.0000

> <Gold.PLP.ligand.torsion>
0.8728

> <Gold.PLP.Chemscore.Hbond>
1.9000

> <Gold.PLP.Chemscore.CHOScore>
0.0000

> <Gold.PLP.Chemscore.Metal>
0.0000

> <Gold.Chemscore.Hbonds>
donor molecule, donor type, donor heavy atom, donor atom, acceptor molecule, acceptor atom, score
      L1  H     3    23       P1  7948  0.80
      L1  H    10    28       P1  7948  1.00

> <Gold.PLP.Chemscore.Internal.Correction>
0.0447

> <Gold.Rescore>
     Score         DG    S(hbond)    S(metal)    S(lipo)     H(rot)  DE(clash)    DE(int)     intcor
     17.70     -21.14       1.77        0.00     112.84       1.35       0.05       3.39       ----

> <Gold.Chemscore.Fitness>
17.7030

> <Gold.Chemscore.DG>
-21.1410

> <Gold.Chemscore.ZeroCoef>
-5.4800

> <Gold.Chemscore.Hbond>
1.7673

> <Gold.Chemscore.Metal>
0.0000

> <Gold.Chemscore.Lipo>
112.8444

> <Gold.Chemscore.Internal_Hbond>
0.0000

> <Gold.Chemscore.DEClash>
0.0509

> <Gold.Chemscore.DEInternal>
3.3871

> <Gold.Chemscore.Rot>
1.3455

> <Gold.Chemscore.Internal.Correction>
   9.000000E+99

> <Gold.Chemscore.Hbonds>
donor molecule, donor type, donor heavy atom, donor atom, acceptor molecule, acceptor atom, score
      L1  H     3    23       P1  7948  0.12
      L1  H    10    28       P1  7948  0.81

> <Gold.Chemscore.Hbond.Weighted>
-5.9027

> <Gold.Chemscore.Metal.Weighted>
-0.0000

> <Gold.Chemscore.Lipo.Weighted>
-13.2028

> <Gold.Chemscore.Internal_Hbond.Weighted>
0.0000

> <Gold.Chemscore.DEClash.Weighted>
0.0509

> <Gold.Chemscore.DEInternal.Weighted>
3.3871

> <Gold.Chemscore.Rot.Weighted>
3.4445

> <Gold.Chemscore.Internal.Correction.Weighted>
   9.000000E+99

> <Gold.Protein.RotatedTorsions>
[ 6907 6896 6895 6894 ] final  -11.62 input  -60.11 | X-H torsion
[ 7974 7965 7964 7962 ] final -160.58 input  175.53 | X-H torsion
[ 8008 7997 7996 7995 ] final   86.97 input   59.86 | X-H torsion
[ 10167 10162 10161 10158 ] final  -11.20 input  -65.29 | X-H torsion
[ 10718 10713 10712 10709 ] final  166.41 input   66.30 | X-H torsion
[ 10763 10752 10751 10750 ] final  163.06 input  -60.55 | X-H torsion
[ 11005 11000 10999 10996 ] final  -11.02 input  -57.11 | X-H torsion

> <Gold.Protein.ActiveResidues>
 VAL166  LYS551  ARG553  GLY616  TRP617  ASP618  TYR619  PRO620  LYS621  CYS622 
 ASP623  PHE694  ASN695  SER759  ASP760  ASP761  ALA762  ILE779  LEU786  VAL792 
 PHE793  MET794  SER795  GLU796  ALA797  LYS798  CYS799  TRP800  GLU811  SER814 

> <Gold.Protein.RotatedAtoms>
  151.3834  135.0943  159.9502 H   0  0  0  0  0  0  0  0  0  0  0  0  # atno 6907 bound_to 6896
  152.5101  133.9050  159.7470 H   0  0  0  0  0  0  0  0  0  0  0  0  # atno 6908 bound_to 6896
  150.9488  133.6517  159.2805 H   0  0  0  0  0  0  0  0  0  0  0  0  # atno 6909 bound_to 6896
  144.7422  140.3521  143.6113 H   0  0  0  0  0  0  0  0  0  0  0  0  # atno 7974 bound_to 7965
  155.9695  140.3387  155.6563 H   0  0  0  0  0  0  0  0  0  0  0  0  # atno 8008 bound_to 7997
  155.6693  140.0725  157.2544 H   0  0  0  0  0  0  0  0  0  0  0  0  # atno 8009 bound_to 7997
  154.4163  140.1694  156.1849 H   0  0  0  0  0  0  0  0  0  0  0  0  # atno 8010 bound_to 7997
  140.7133  143.5665  150.9139 H   0  0  0  0  0  0  0  0  0  0  0  0  # atno 10167 bound_to 10162
  157.0662  131.0354  151.2628 H   0  0  0  0  0  0  0  0  0  0  0  0  # atno 10718 bound_to 10713
  154.2879  135.2761  155.2668 H   0  0  0  0  0  0  0  0  0  0  0  0  # atno 10763 bound_to 10752
  154.5160  135.5769  153.6646 H   0  0  0  0  0  0  0  0  0  0  0  0  # atno 10764 bound_to 10752
  152.9919  135.6192  154.3042 H   0  0  0  0  0  0  0  0  0  0  0  0  # atno 10765 bound_to 10752
  140.7509  133.8593  155.9044 H   0  0  0  0  0  0  0  0  0  0  0  0  # atno 11005 bound_to 11000
  145.7265  139.1724  143.2455 LP  0  0  0  0  0  0  0  0  0  0  0  0  # atno 17320 bound_to 7965
  146.1238  140.7274  142.9445 LP  0  0  0  0  0  0  0  0  0  0  0  0  # atno 17321 bound_to 7965
  139.9391  143.6403  152.3058 LP  0  0  0  0  0  0  0  0  0  0  0  0  # atno 17342 bound_to 10162
  139.6881  144.7649  151.1487 LP  0  0  0  0  0  0  0  0  0  0  0  0  # atno 17343 bound_to 10162
  157.4915  130.7825  149.7512 LP  0  0  0  0  0  0  0  0  0  0  0  0  # atno 17370 bound_to 10713
  155.9963  130.3906  150.2782 LP  0  0  0  0  0  0  0  0  0  0  0  0  # atno 17371 bound_to 10713
  140.9752  134.1479  157.4542 LP  0  0  0  0  0  0  0  0  0  0  0  0  # atno 17394 bound_to 11000
  139.8788  134.9992  156.5941 LP  0  0  0  0  0  0  0  0  0  0  0  0  # atno 17395 bound_to 11000

$$$$
