AV-unprocessed.smi:265|AV-procd|sdf|2015|dock3
  -GOLD-   2262021213D 1   1.00000     0.00000
 Structure written by MMmdl.
 52 56  0  0  0  0  0  0  0  0  1 V2000
  148.9883  133.8402  157.7890 C   0  0  0  0  0  0  0  0  0  0  0  0
  148.7906  133.4438  156.3183 C   0  0  2  0  0  0  0  0  0  0  0  0
  149.0951  132.0651  156.1212 O   0  0  0  0  0  0  0  0  0  0  0  0
  149.6970  131.8710  154.8443 C   0  0  0  0  0  0  0  0  0  0  0  0
  149.5770  133.2107  154.1248 C   0  0  0  0  0  0  0  0  0  0  0  0
  149.6297  134.2080  155.2759 C   0  0  1  0  0  0  0  0  0  0  0  0
  148.9655  135.3963  154.8879 O   0  0  0  0  0  0  0  0  0  0  0  0
  151.0693  134.5506  155.7467 C   0  0  0  0  0  0  0  0  0  0  0  0
  151.2048  135.8891  156.3005 N   0  0  0  0  0  0  0  0  0  0  0  0
  151.0466  136.2609  157.6164 C   0  0  0  0  0  0  0  0  0  0  0  0
  151.2281  137.5299  157.8621 N   0  0  0  0  0  0  0  0  0  0  0  0
  151.5376  138.0757  156.6217 C   0  0  0  0  0  0  0  0  0  0  0  0
  151.8548  139.3868  156.1658 C   0  0  0  0  0  0  0  0  0  0  0  0
  151.8885  140.4635  156.9915 N   0  0  0  0  0  0  0  0  0  0  0  0
  150.6365  141.2014  157.1930 C   0  0  0  0  0  0  0  0  0  0  0  0
  150.8910  142.5658  157.8609 C   0  0  0  0  0  0  0  0  0  0  0  0
  151.6938  142.3718  159.1533 C   0  0  2  0  0  0  0  0  0  0  0  0
  152.0390  143.6095  159.7568 O   0  0  0  0  0  0  0  0  0  0  0  0
  152.6499  143.4624  161.0435 C   0  0  0  0  0  0  0  0  0  0  0  0
  153.7652  142.3952  161.0581 C   0  0  0  0  0  0  0  0  0  0  0  0
  154.5370  142.3296  162.0119 O   0  0  0  0  0  0  0  0  0  0  0  0
  153.8309  141.5324  160.0308 N   0  0  0  0  0  0  0  0  0  0  0  0
  153.0146  141.6558  158.8306 C   0  0  1  0  0  0  0  0  0  0  0  0
  152.7279  140.2931  158.1801 C   0  0  0  0  0  0  0  0  0  0  0  0
  152.1312  139.5383  154.8426 N   0  0  0  0  0  0  0  0  0  0  0  0
  152.0917  138.4866  154.0191 C   0  0  0  0  0  0  0  0  0  0  0  0
  151.8063  137.2148  154.3037 N   0  0  0  0  0  0  0  0  0  0  0  0
  151.5362  137.0538  155.6305 C   0  0  0  0  0  0  0  0  0  0  0  0
  151.0960  141.7828  159.8525 H   0  0  0  0  0  0  0  0  0  0  0  0
  153.5854  142.2626  158.1253 H   0  0  0  0  0  0  0  0  0  0  0  0
  148.7872  134.9009  157.9397 H   0  0  0  0  0  0  0  0  0  0  0  0
  150.0027  133.6348  158.1312 H   0  0  0  0  0  0  0  0  0  0  0  0
  148.3097  133.2798  158.4323 H   0  0  0  0  0  0  0  0  0  0  0  0
  147.7336  133.5572  156.0694 H   0  0  0  0  0  0  0  0  0  0  0  0
  150.7444  131.6042  154.9889 H   0  0  0  0  0  0  0  0  0  0  0  0
  149.2153  131.0617  154.2954 H   0  0  0  0  0  0  0  0  0  0  0  0
  150.3361  133.3554  153.3567 H   0  0  0  0  0  0  0  0  0  0  0  0
  148.6055  133.2578  153.6294 H   0  0  0  0  0  0  0  0  0  0  0  0
  149.0796  135.5125  153.9570 H   0  0  0  0  0  0  0  0  0  0  0  0
  151.4022  133.8396  156.5040 H   0  0  0  0  0  0  0  0  0  0  0  0
  151.7704  134.4568  154.9168 H   0  0  0  0  0  0  0  0  0  0  0  0
  150.7892  135.5565  158.3940 H   0  0  0  0  0  0  0  0  0  0  0  0
  150.1367  141.3553  156.2356 H   0  0  0  0  0  0  0  0  0  0  0  0
  149.9658  140.6062  157.8144 H   0  0  0  0  0  0  0  0  0  0  0  0
  151.4391  143.2147  157.1765 H   0  0  0  0  0  0  0  0  0  0  0  0
  149.9445  143.0631  158.0738 H   0  0  0  0  0  0  0  0  0  0  0  0
  153.0555  144.4249  161.3563 H   0  0  0  0  0  0  0  0  0  0  0  0
  151.8885  143.1816  161.7722 H   0  0  0  0  0  0  0  0  0  0  0  0
  154.5352  140.8090  160.0481 H   0  0  0  0  0  0  0  0  0  0  0  0
  152.2102  139.6408  158.8849 H   0  0  0  0  0  0  0  0  0  0  0  0
  153.6697  139.8040  157.9333 H   0  0  0  0  0  0  0  0  0  0  0  0
  152.3227  138.6935  152.9845 H   0  0  0  0  0  0  0  0  0  0  0  0
  1  2  1  0  0  0  0
  1 31  1  0  0  0  0
  1 32  1  0  0  0  0
  1 33  1  0  0  0  0
  2  6  1  0  0  0  0
  2  3  1  0  0  0  0
  2 34  1  0  0  0  0
  3  4  1  0  0  0  0
  4  5  1  0  0  0  0
  4 35  1  0  0  0  0
  4 36  1  0  0  0  0
  5  6  1  0  0  0  0
  5 37  1  0  0  0  0
  5 38  1  0  0  0  0
  6  7  1  0  0  0  0
  6  8  1  0  0  0  0
  7 39  1  0  0  0  0
  8  9  1  0  0  0  0
  8 40  1  0  0  0  0
  8 41  1  0  0  0  0
  9 28  1  0  0  0  0
  9 10  1  0  0  0  0
 10 11  2  0  0  0  0
 10 42  1  0  0  0  0
 11 12  1  0  0  0  0
 12 28  2  0  0  0  0
 12 13  1  0  0  0  0
 13 14  1  0  0  0  0
 13 25  2  0  0  0  0
 14 24  1  0  0  0  0
 14 15  1  0  0  0  0
 15 16  1  0  0  0  0
 15 43  1  0  0  0  0
 15 44  1  0  0  0  0
 16 17  1  0  0  0  0
 16 45  1  0  0  0  0
 16 46  1  0  0  0  0
 17 29  1  0  0  0  0
 17 23  1  0  0  0  0
 17 18  1  0  0  0  0
 18 19  1  0  0  0  0
 19 20  1  0  0  0  0
 19 47  1  0  0  0  0
 19 48  1  0  0  0  0
 20 21  2  0  0  0  0
 20 22  1  0  0  0  0
 22 23  1  0  0  0  0
 22 49  1  0  0  0  0
 23 30  1  0  0  0  0
 23 24  1  0  0  0  0
 24 50  1  0  0  0  0
 24 51  1  0  0  0  0
 25 26  1  0  0  0  0
 26 27  2  0  0  0  0
 26 52  1  0  0  0  0
 27 28  1  0  0  0  0
M  END
> <s_m_source_file>
AV-unprocessed.smi

> <i_m_source_file_index>
265

> <i_lp_mmshare_version>
43012

> <i_f3d_flags>
0

> <s_epik_input>
W0NIMl0xW0NIMl1PW0NAQEhdKFtDSDNdKVtDQEBdMShbT0hdKVtDSDJdbihbY0hdbjIpYyhjMjMpbltjSF1uYzNOKFtDSDJdW0NIMl00KVtDSDJdW0NAQEhdKFtDQEhdNDUpW05IXUMoPU8pW0NIMl1PNQ==

> <s_epik_cmdline>
J2VwaWtfcHl0aG9uJywgJy1waCcsICc3LjAnLCAnLXRuJywgJzgnLCAnLW1hJywgJzIwMCcsICctbWV0YWxfYmluZGluZycsICctaW1hZScsICc8aW5maWxlLm1hZT4nLCAnLW9tYWUnLCAnPG91dGZpbGUubWFlPic=

> <r_lp_tautomer_probability>
1

> <r_epik_Ionization_Penalty>
0.00221504

> <r_epik_Ionization_Penalty_Charging>
0

> <r_epik_Ionization_Penalty_Neutral>
0.00221504

> <r_epik_State_Penalty>
-0

> <r_epik_Charging_Adjusted_Penalty>
0

> <i_epik_Tot_Q>
0

> <i_epik_Tot_abs_Q>
0

> <r_epik_Metal_State_Penalty>
-0

> <b_epik_Metal_Only>
0

> <s_lp_Force_Field>
OPLS_2005

> <r_lp_Energy>
45.3858

> <b_lp_Chiralities_Consistent>
1

> <s_lp_Variant>
AV-unprocessed.smi:265-1

> <Gold.Version>
5.8.1

> <Gold.Id.Protein>
6NUR|6NUR_protein|mol2

> <Gold.PLP.Fitness>
47.0775

> <Gold.PLP.PLP>
-41.8300

> <Gold.PLP.part.hbond>
-4.0000

> <Gold.PLP.part.metal>
0.0000

> <Gold.PLP.part.buried>
-9.3311

> <Gold.PLP.part.nonpolar>
-29.6527

> <Gold.PLP.part.repulsive>
0.2973

> <Gold.PLP.ligand.clash>
0.0000

> <Gold.PLP.ligand.torsion>
1.4265

> <Gold.PLP.Chemscore.Hbond>
2.5591

> <Gold.PLP.Chemscore.CHOScore>
0.0000

> <Gold.PLP.Chemscore.Metal>
0.0000

> <Gold.Chemscore.Hbonds>
donor molecule, donor type, donor heavy atom, donor atom, acceptor molecule, acceptor atom, score
      L1  H     7    39       P1  7948  0.60
      P1  H  7989  7998       L1    25  0.68
      P1  H 10752 10763       L1    27  0.85

> <Gold.PLP.Chemscore.Internal.Correction>
0.4232

> <Gold.Rescore>
     Score         DG    S(hbond)    S(metal)    S(lipo)     H(rot)  DE(clash)    DE(int)     intcor
     15.28     -16.61       2.17        0.00      82.23       2.25       0.02       1.30       ----

> <Gold.Chemscore.Fitness>
15.2831

> <Gold.Chemscore.DG>
-16.6084

> <Gold.Chemscore.ZeroCoef>
-5.4800

> <Gold.Chemscore.Hbond>
2.1722

> <Gold.Chemscore.Metal>
0.0000

> <Gold.Chemscore.Lipo>
82.2337

> <Gold.Chemscore.Internal_Hbond>
0.0000

> <Gold.Chemscore.DEClash>
0.0218

> <Gold.Chemscore.DEInternal>
1.3035

> <Gold.Chemscore.Rot>
2.2453

> <Gold.Chemscore.Internal.Correction>
   9.000000E+99

> <Gold.Chemscore.Hbonds>
donor molecule, donor type, donor heavy atom, donor atom, acceptor molecule, acceptor atom, score
      L1  H     7    39       P1  7948  0.47
      P1  H  7989  7998       L1    25  0.10
      P1  H 10752 10763       L1    27  0.14

> <Gold.Chemscore.Hbond.Weighted>
-7.2550

> <Gold.Chemscore.Metal.Weighted>
-0.0000

> <Gold.Chemscore.Lipo.Weighted>
-9.6213

> <Gold.Chemscore.Internal_Hbond.Weighted>
0.0000

> <Gold.Chemscore.DEClash.Weighted>
0.0218

> <Gold.Chemscore.DEInternal.Weighted>
1.3035

> <Gold.Chemscore.Rot.Weighted>
5.7479

> <Gold.Chemscore.Internal.Correction.Weighted>
   9.000000E+99

> <Gold.Protein.RotatedTorsions>
[ 6907 6896 6895 6894 ] final   -1.41 input  -60.11 | X-H torsion
[ 7974 7965 7964 7962 ] final   16.52 input  175.53 | X-H torsion
[ 8008 7997 7996 7995 ] final -118.97 input   59.86 | X-H torsion
[ 10167 10162 10161 10158 ] final   45.54 input  -65.29 | X-H torsion
[ 10718 10713 10712 10709 ] final   70.30 input   66.30 | X-H torsion
[ 10763 10752 10751 10750 ] final   30.87 input  -60.55 | X-H torsion
[ 11005 11000 10999 10996 ] final   78.50 input  -57.11 | X-H torsion

> <Gold.Protein.ActiveResidues>
 VAL166  LYS551  ARG553  GLY616  TRP617  ASP618  TYR619  PRO620  LYS621  CYS622 
 ASP623  PHE694  ASN695  SER759  ASP760  ASP761  ALA762  ILE779  LEU786  VAL792 
 PHE793  MET794  SER795  GLU796  ALA797  LYS798  CYS799  TRP800  GLU811  SER814 

> <Gold.Protein.RotatedAtoms>
  151.5465  135.1068  159.9939 H   0  0  0  0  0  0  0  0  0  0  0  0  # atno 6907 bound_to 6896
  152.4511  133.7627  159.6766 H   0  0  0  0  0  0  0  0  0  0  0  0  # atno 6908 bound_to 6896
  150.8440  133.7824  159.3074 H   0  0  0  0  0  0  0  0  0  0  0  0  # atno 6909 bound_to 6896
  146.2247  139.8736  142.8583 H   0  0  0  0  0  0  0  0  0  0  0  0  # atno 7974 bound_to 7965
  155.1082  140.0397  157.2716 H   0  0  0  0  0  0  0  0  0  0  0  0  # atno 8008 bound_to 7997
  154.6705  140.2611  155.6986 H   0  0  0  0  0  0  0  0  0  0  0  0  # atno 8009 bound_to 7997
  156.2656  140.2798  156.1212 H   0  0  0  0  0  0  0  0  0  0  0  0  # atno 8010 bound_to 7997
  140.3231  144.2680  150.6179 H   0  0  0  0  0  0  0  0  0  0  0  0  # atno 10167 bound_to 10162
  157.6392  130.9470  150.0632 H   0  0  0  0  0  0  0  0  0  0  0  0  # atno 10718 bound_to 10713
  153.0347  135.6453  154.1111 H   0  0  0  0  0  0  0  0  0  0  0  0  # atno 10763 bound_to 10752
  154.0828  135.2872  155.3288 H   0  0  0  0  0  0  0  0  0  0  0  0  # atno 10764 bound_to 10752
  154.6518  135.5423  153.7975 H   0  0  0  0  0  0  0  0  0  0  0  0  # atno 10765 bound_to 10752
  139.9210  134.7768  156.1657 H   0  0  0  0  0  0  0  0  0  0  0  0  # atno 11005 bound_to 11000
  145.2583  141.0068  143.3841 LP  0  0  0  0  0  0  0  0  0  0  0  0  # atno 17320 bound_to 7965
  144.9319  139.4289  143.6491 LP  0  0  0  0  0  0  0  0  0  0  0  0  # atno 17321 bound_to 7965
  140.5465  143.2214  151.7998 LP  0  0  0  0  0  0  0  0  0  0  0  0  # atno 17342 bound_to 10162
  139.4870  144.4532  151.9629 LP  0  0  0  0  0  0  0  0  0  0  0  0  # atno 17343 bound_to 10162
  156.1658  130.3645  149.9234 LP  0  0  0  0  0  0  0  0  0  0  0  0  # atno 17370 bound_to 10713
  156.7222  130.9011  151.3619 LP  0  0  0  0  0  0  0  0  0  0  0  0  # atno 17371 bound_to 10713
  141.0731  133.6788  156.2180 LP  0  0  0  0  0  0  0  0  0  0  0  0  # atno 17394 bound_to 11000
  140.6474  134.5103  157.5575 LP  0  0  0  0  0  0  0  0  0  0  0  0  # atno 17395 bound_to 11000

$$$$
