AV-unprocessed.smi:618|AV-procd|sdf|3075|dock3
  -GOLD-   22720 0 03D 1   1.00000     0.00000
 Structure written by MMmdl.
 41 43  0  0  0  0  0  0  0  0  2 V2000
  151.2441  141.2255  156.9070 O   0  0  0  0  0  0  0  0  0  0  0  0
  150.4498  142.1116  156.5934 C   0  0  0  0  0  0  0  0  0  0  0  0
  149.6399  142.0294  155.5283 N   0  0  0  0  0  0  0  0  0  0  0  0
  149.5800  140.8928  154.6152 C   0  0  0  0  0  0  0  0  0  0  0  0
  148.1641  140.2760  154.5542 C   0  0  1  0  0  0  0  0  0  0  0  0
  147.4423  140.2841  155.9239 C   0  0  0  0  0  0  0  0  0  0  0  0
  146.9752  141.6516  156.2175 N   0  3  2  0  0  0  0  0  0  0  0  0
  146.2593  141.8832  157.4842 C   0  0  0  0  0  0  0  0  0  0  0  0
  145.3990  143.1372  157.2302 C   0  0  0  0  0  0  0  0  0  0  0  0
  145.5676  143.4628  155.7355 C   0  0  0  0  0  0  0  0  0  0  0  0
  146.1030  142.1574  155.1560 C   0  0  1  0  0  0  0  0  0  0  0  0
  146.8957  142.2225  153.8457 C   0  0  0  0  0  0  0  0  0  0  0  0
  147.3573  140.9024  153.5439 O   0  0  0  0  0  0  0  0  0  0  0  0
  150.2917  143.2791  157.2400 N   0  0  0  0  0  0  0  0  0  0  0  0
  150.9456  143.7277  158.4193 C   0  0  0  0  0  0  0  0  0  0  0  0
  152.0200  142.9603  158.9144 C   0  0  0  0  0  0  0  0  0  0  0  0
  152.6963  143.3923  160.0710 C   0  0  0  0  0  0  0  0  0  0  0  0
  152.2758  144.5877  160.6855 C   0  0  0  0  0  0  0  0  0  0  0  0
  151.2606  145.3431  160.2166 N   0  0  0  0  0  0  0  0  0  0  0  0
  150.6148  144.9216  159.1077 C   0  0  0  0  0  0  0  0  0  0  0  0
  149.0212  142.8042  155.3378 H   0  0  0  0  0  0  0  0  0  0  0  0
  149.8913  141.2132  153.6195 H   0  0  0  0  0  0  0  0  0  0  0  0
  150.3175  140.1568  154.9335 H   0  0  0  0  0  0  0  0  0  0  0  0
  148.2722  139.2325  154.2570 H   0  0  0  0  0  0  0  0  0  0  0  0
  146.5873  139.6067  155.8994 H   0  0  0  0  0  0  0  0  0  0  0  0
  148.1046  139.9347  156.7166 H   0  0  0  0  0  0  0  0  0  0  0  0
  145.6195  141.0298  157.7141 H   0  0  0  0  0  0  0  0  0  0  0  0
  146.9596  142.0152  158.3095 H   0  0  0  0  0  0  0  0  0  0  0  0
  144.3547  142.9296  157.4661 H   0  0  0  0  0  0  0  0  0  0  0  0
  145.7152  143.9766  157.8507 H   0  0  0  0  0  0  0  0  0  0  0  0
  144.6381  143.7837  155.2641 H   0  0  0  0  0  0  0  0  0  0  0  0
  146.3017  144.2604  155.6111 H   0  0  0  0  0  0  0  0  0  0  0  0
  145.2656  141.4669  155.0326 H   0  0  0  0  0  0  0  0  0  0  0  0
  146.2578  142.5694  153.0327 H   0  0  0  0  0  0  0  0  0  0  0  0
  147.7294  142.9213  153.9158 H   0  0  0  0  0  0  0  0  0  0  0  0
  149.6668  143.9459  156.8113 H   0  0  0  0  0  0  0  0  0  0  0  0
  152.3212  142.0486  158.4192 H   0  0  0  0  0  0  0  0  0  0  0  0
  153.5182  142.8216  160.4773 H   0  0  0  0  0  0  0  0  0  0  0  0
  152.7712  144.9499  161.5742 H   0  0  0  0  0  0  0  0  0  0  0  0
  149.8316  145.5801  158.7661 H   0  0  0  0  0  0  0  0  0  0  0  0
  147.7865  142.2529  156.2332 H   0  0  0  0  0  0  0  0  0  0  0  0
  1  2  2  0  0  0  0
  2  3  1  0  0  0  0
  2 14  1  0  0  0  0
  3  4  1  0  0  0  0
  3 21  1  0  0  0  0
  4  5  1  0  0  0  0
  4 22  1  0  0  0  0
  4 23  1  0  0  0  0
  5 13  1  0  0  0  0
  5  6  1  0  0  0  0
  5 24  1  0  0  0  0
  6  7  1  0  0  0  0
  6 25  1  0  0  0  0
  6 26  1  0  0  0  0
  7 11  1  0  0  0  0
  7  8  1  0  0  0  0
  7 41  1  0  0  0  0
  8  9  1  0  0  0  0
  8 27  1  0  0  0  0
  8 28  1  0  0  0  0
  9 10  1  0  0  0  0
  9 29  1  0  0  0  0
  9 30  1  0  0  0  0
 10 11  1  0  0  0  0
 10 31  1  0  0  0  0
 10 32  1  0  0  0  0
 11 12  1  0  0  0  0
 11 33  1  0  0  0  0
 12 13  1  0  0  0  0
 12 34  1  0  0  0  0
 12 35  1  0  0  0  0
 14 15  1  0  0  0  0
 14 36  1  0  0  0  0
 15 20  1  0  0  0  0
 15 16  2  0  0  0  0
 16 17  1  0  0  0  0
 16 37  1  0  0  0  0
 17 18  2  0  0  0  0
 17 38  1  0  0  0  0
 18 19  1  0  0  0  0
 18 39  1  0  0  0  0
 19 20  2  0  0  0  0
 20 40  1  0  0  0  0
M  CHG  1   7   1
M  END
> <s_m_source_file>
AV-unprocessed.smi

> <i_m_source_file_index>
618

> <i_lp_mmshare_version>
43012

> <i_f3d_flags>
0

> <s_epik_input>
W2NIXTFuW2NIXVtjSF1bY0hdYzFbTkhdQyg9TylbTkhdW0NIMl1bQ0BIXShbQ0gyXTIpT1tDSDJdW0NAQEhdKE4yMylbQ0gyXVtDSDJdW0NIMl0z

> <s_epik_cmdline>
J2VwaWtfcHl0aG9uJywgJy1waCcsICc3LjAnLCAnLXRuJywgJzgnLCAnLW1hJywgJzIwMCcsICctbWV0YWxfYmluZGluZycsICctaW1hZScsICc8aW5maWxlLm1hZT4nLCAnLW9tYWUnLCAnPG91dGZpbGUubWFlPic=

> <r_epik_Ionization_Penalty>
0.111044

> <r_epik_Ionization_Penalty_Charging>
0.10673

> <r_epik_Ionization_Penalty_Neutral>
0.00431361

> <r_epik_State_Penalty>
0.0978747

> <r_epik_Charging_Adjusted_Penalty>
0.204605

> <i_epik_Tot_Q>
1

> <i_epik_Tot_abs_Q>
1

> <r_epik_Metal_State_Penalty>
0.0947591

> <b_epik_Metal_Only>
0

> <s_lp_Force_Field>
OPLS_2005

> <r_lp_Energy>
41.905

> <b_lp_Chiralities_Consistent>
1

> <s_lp_Variant>
AV-unprocessed.smi:618-2

> <Gold.Version>
5.8.1

> <Gold.Id.Protein>
6NUR|6NUR_protein|mol2

> <Gold.PLP.Fitness>
42.5299

> <Gold.PLP.PLP>
-34.5715

> <Gold.PLP.part.hbond>
-2.0000

> <Gold.PLP.part.metal>
0.0000

> <Gold.PLP.part.buried>
-7.0407

> <Gold.PLP.part.nonpolar>
-25.2118

> <Gold.PLP.part.repulsive>
0.5568

> <Gold.PLP.ligand.clash>
0.0000

> <Gold.PLP.ligand.torsion>
0.3162

> <Gold.PLP.Chemscore.Hbond>
1.8640

> <Gold.PLP.Chemscore.CHOScore>
0.9960

> <Gold.PLP.Chemscore.Metal>
0.0000

> <Gold.Chemscore.Hbonds>
donor molecule, donor type, donor heavy atom, donor atom, acceptor molecule, acceptor atom, score
      L1  H     3    21       P1  8028  0.82
      L1  H    14    36       P1  8028  1.00
      L1  C    20    40       P1  8029  1.00

> <Gold.PLP.Chemscore.Internal.Correction>
0.0109

> <Gold.Rescore>
     Score         DG    S(hbond)    S(metal)    S(lipo)     H(rot)  DE(clash)    DE(int)     intcor
     15.09     -18.33       1.80        0.00      86.08       1.27       0.07       3.17       ----

> <Gold.Chemscore.Fitness>
15.0906

> <Gold.Chemscore.DG>
-18.3319

> <Gold.Chemscore.ZeroCoef>
-5.4800

> <Gold.Chemscore.Hbond>
1.8026

> <Gold.Chemscore.Metal>
0.0000

> <Gold.Chemscore.Lipo>
86.0787

> <Gold.Chemscore.Internal_Hbond>
0.0000

> <Gold.Chemscore.DEClash>
0.0705

> <Gold.Chemscore.DEInternal>
3.1708

> <Gold.Chemscore.Rot>
1.2656

> <Gold.Chemscore.Internal.Correction>
   9.000000E+99

> <Gold.Chemscore.Hbonds>
donor molecule, donor type, donor heavy atom, donor atom, acceptor molecule, acceptor atom, score
      L1  H     3    21       P1  8028  0.81
      L1  H    14    36       P1  8028  0.91

> <Gold.Chemscore.Hbond.Weighted>
-6.0206

> <Gold.Chemscore.Metal.Weighted>
-0.0000

> <Gold.Chemscore.Lipo.Weighted>
-10.0712

> <Gold.Chemscore.Internal_Hbond.Weighted>
0.0000

> <Gold.Chemscore.DEClash.Weighted>
0.0705

> <Gold.Chemscore.DEInternal.Weighted>
3.1708

> <Gold.Chemscore.Rot.Weighted>
3.2399

> <Gold.Chemscore.Internal.Correction.Weighted>
   9.000000E+99

> <Gold.Protein.RotatedTorsions>
[ 6907 6896 6895 6894 ] final    9.79 input  -60.11 | X-H torsion
[ 7974 7965 7964 7962 ] final  -25.92 input  175.53 | X-H torsion
[ 8008 7997 7996 7995 ] final   14.88 input   59.86 | X-H torsion
[ 10167 10162 10161 10158 ] final  115.17 input  -65.29 | X-H torsion
[ 10718 10713 10712 10709 ] final   39.77 input   66.30 | X-H torsion
[ 10763 10752 10751 10750 ] final   47.41 input  -60.55 | X-H torsion
[ 11005 11000 10999 10996 ] final  148.70 input  -57.11 | X-H torsion

> <Gold.Protein.ActiveResidues>
 VAL166  LYS551  ARG553  GLY616  TRP617  ASP618  TYR619  PRO620  LYS621  CYS622 
 ASP623  PHE694  ASN695  SER759  ASP760  ASP761  ALA762  ILE779  LEU786  VAL792 
 PHE793  MET794  SER795  GLU796  ALA797  LYS798  CYS799  TRP800  GLU811  SER814 

> <Gold.Protein.RotatedAtoms>
  151.7279  135.0881  160.0294 H   0  0  0  0  0  0  0  0  0  0  0  0  # atno 6907 bound_to 6896
  152.3560  133.6233  159.5988 H   0  0  0  0  0  0  0  0  0  0  0  0  # atno 6908 bound_to 6896
  150.7572  133.9415  159.3499 H   0  0  0  0  0  0  0  0  0  0  0  0  # atno 6909 bound_to 6896
  146.1459  140.4951  142.8632 H   0  0  0  0  0  0  0  0  0  0  0  0  # atno 7974 bound_to 7965
  154.8547  140.2935  155.5576 H   0  0  0  0  0  0  0  0  0  0  0  0  # atno 8008 bound_to 7997
  156.3018  140.2489  156.3444 H   0  0  0  0  0  0  0  0  0  0  0  0  # atno 8009 bound_to 7997
  154.8983  140.0392  157.1867 H   0  0  0  0  0  0  0  0  0  0  0  0  # atno 8010 bound_to 7997
  139.6336  144.7117  151.2381 H   0  0  0  0  0  0  0  0  0  0  0  0  # atno 10167 bound_to 10162
  157.3744  130.7719  149.7144 H   0  0  0  0  0  0  0  0  0  0  0  0  # atno 10718 bound_to 10713
  152.9800  135.5977  154.3758 H   0  0  0  0  0  0  0  0  0  0  0  0  # atno 10763 bound_to 10752
  154.3427  135.2767  155.2416 H   0  0  0  0  0  0  0  0  0  0  0  0  # atno 10764 bound_to 10752
  154.4490  135.5994  153.6234 H   0  0  0  0  0  0  0  0  0  0  0  0  # atno 10765 bound_to 10752
  140.0982  134.8999  157.1755 H   0  0  0  0  0  0  0  0  0  0  0  0  # atno 11005 bound_to 11000
  144.7846  140.5910  143.6582 LP  0  0  0  0  0  0  0  0  0  0  0  0  # atno 17320 bound_to 7965
  145.4938  139.1487  143.3695 LP  0  0  0  0  0  0  0  0  0  0  0  0  # atno 17321 bound_to 7965
  140.7453  143.6436  150.8312 LP  0  0  0  0  0  0  0  0  0  0  0  0  # atno 17342 bound_to 10162
  140.0064  143.5689  152.2856 LP  0  0  0  0  0  0  0  0  0  0  0  0  # atno 17343 bound_to 10162
  155.9762  130.4078  150.3794 LP  0  0  0  0  0  0  0  0  0  0  0  0  # atno 17370 bound_to 10713
  157.1889  131.0410  151.2710 LP  0  0  0  0  0  0  0  0  0  0  0  0  # atno 17371 bound_to 10713
  140.3257  134.2866  155.7237 LP  0  0  0  0  0  0  0  0  0  0  0  0  # atno 17394 bound_to 11000
  141.2098  133.7738  156.9973 LP  0  0  0  0  0  0  0  0  0  0  0  0  # atno 17395 bound_to 11000

$$$$
