AV-unprocessed.smi:2675|AV-procd|sdf|10360|dock5
  -GOLD-   2272014383D 1   1.00000     0.00000
 Structure written by MMmdl.
 37 38  0  0  0  0  0  0  0  0  2 V2000
  151.4393  145.1624  159.3143 C   0  0  0  0  0  0  0  0  0  0  0  0
  151.4125  143.8080  158.6887 C   0  0  0  0  0  0  0  0  0  0  0  0
  150.6780  143.5503  157.5617 N   0  3  0  0  0  0  0  0  0  0  0  0
  150.8119  142.2753  157.1952 C   0  0  0  0  0  0  0  0  0  0  0  0
  151.6316  141.7017  158.0832 N   0  0  0  0  0  0  0  0  0  0  0  0
  151.9878  140.2783  157.9964 C   0  0  0  0  0  0  0  0  0  0  0  0
  151.6214  139.7125  156.6249 C   0  0  0  0  0  0  0  0  0  0  0  0
  152.3872  139.8713  155.6761 O   0  0  0  0  0  0  0  0  0  0  0  0
  150.4679  139.0257  156.5570 N   0  0  0  0  0  0  0  0  0  0  0  0
  149.9095  138.2895  155.4156 C   0  0  1  0  0  0  0  0  0  0  0  0
  149.7030  139.3270  154.3000 C   0  0  0  0  0  0  0  0  0  0  0  0
  150.8448  137.2653  154.9096 C   0  0  0  0  0  0  0  0  0  0  0  0
  151.5802  136.4642  154.5135 N   0  0  0  0  0  0  0  0  0  0  0  0
  148.5710  137.5993  155.6897 C   0  0  0  0  0  0  0  0  0  0  0  0
  148.4840  136.2294  156.3258 C   0  0  0  0  0  0  0  0  0  0  0  0
  148.0401  136.4268  154.8933 C   0  0  0  0  0  0  0  0  0  0  0  0
  152.0274  142.6235  159.0279 C   0  0  0  0  0  0  0  0  0  0  0  0
  152.9451  142.2858  160.1589 C   0  0  0  0  0  0  0  0  0  0  0  0
  152.0483  145.1615  160.2178 H   0  0  0  0  0  0  0  0  0  0  0  0
  150.4291  145.4739  159.5809 H   0  0  0  0  0  0  0  0  0  0  0  0
  151.8562  145.8901  158.6177 H   0  0  0  0  0  0  0  0  0  0  0  0
  150.3431  141.8011  156.3512 H   0  0  0  0  0  0  0  0  0  0  0  0
  153.0566  140.1716  158.1894 H   0  0  0  0  0  0  0  0  0  0  0  0
  151.4642  139.7333  158.7821 H   0  0  0  0  0  0  0  0  0  0  0  0
  149.9211  138.9800  157.4044 H   0  0  0  0  0  0  0  0  0  0  0  0
  149.3098  138.8627  153.3946 H   0  0  0  0  0  0  0  0  0  0  0  0
  150.6414  139.8150  154.0328 H   0  0  0  0  0  0  0  0  0  0  0  0
  148.9994  140.1040  154.6023 H   0  0  0  0  0  0  0  0  0  0  0  0
  147.8029  138.3034  156.0061 H   0  0  0  0  0  0  0  0  0  0  0  0
  149.4056  135.6754  156.4907 H   0  0  0  0  0  0  0  0  0  0  0  0
  147.7106  136.0748  157.0754 H   0  0  0  0  0  0  0  0  0  0  0  0
  146.9707  136.4047  154.6941 H   0  0  0  0  0  0  0  0  0  0  0  0
  148.6589  135.9843  154.1182 H   0  0  0  0  0  0  0  0  0  0  0  0
  153.1581  143.1679  160.7618 H   0  0  0  0  0  0  0  0  0  0  0  0
  153.8899  141.8983  159.7782 H   0  0  0  0  0  0  0  0  0  0  0  0
  152.4909  141.5330  160.8032 H   0  0  0  0  0  0  0  0  0  0  0  0
  150.1095  144.2310  157.0737 H   0  0  0  0  0  0  0  0  0  0  0  0
  1  2  1  0  0  0  0
  1 19  1  0  0  0  0
  1 20  1  0  0  0  0
  1 21  1  0  0  0  0
  2 17  2  0  0  0  0
  2  3  1  0  0  0  0
  3  4  2  0  0  0  0
  3 37  1  0  0  0  0
  4  5  1  0  0  0  0
  4 22  1  0  0  0  0
  5  6  1  0  0  0  0
  5 17  1  0  0  0  0
  6  7  1  0  0  0  0
  6 23  1  0  0  0  0
  6 24  1  0  0  0  0
  7  8  2  0  0  0  0
  7  9  1  0  0  0  0
  9 10  1  0  0  0  0
  9 25  1  0  0  0  0
 10 11  1  0  0  0  0
 10 12  1  0  0  0  0
 10 14  1  0  0  0  0
 11 26  1  0  0  0  0
 11 27  1  0  0  0  0
 11 28  1  0  0  0  0
 12 13  3  0  0  0  0
 14 16  1  0  0  0  0
 14 15  1  0  0  0  0
 14 29  1  0  0  0  0
 15 16  1  0  0  0  0
 15 30  1  0  0  0  0
 15 31  1  0  0  0  0
 16 32  1  0  0  0  0
 16 33  1  0  0  0  0
 17 18  1  0  0  0  0
 18 34  1  0  0  0  0
 18 35  1  0  0  0  0
 18 36  1  0  0  0  0
M  CHG  1   3   1
M  END
> <s_m_source_file>
AV-unprocessed.smi

> <i_m_source_file_index>
2675

> <i_lp_mmshare_version>
43012

> <i_f3d_flags>
0

> <s_epik_input>
W0NIM11jMW5bY0hdbihjMVtDSDNdKVtDSDJdQyg9TylbTkhdW0NAQF0oW0NIM10pKEMjTilbQ0hdMltDSDJdW0NIMl0y

> <s_epik_cmdline>
J2VwaWtfcHl0aG9uJywgJy1waCcsICc3LjAnLCAnLXRuJywgJzgnLCAnLW1hJywgJzIwMCcsICctbWV0YWxfYmluZGluZycsICctaW1hZScsICc8aW5maWxlLm1hZT4nLCAnLW9tYWUnLCAnPG91dGZpbGUubWFlPic=

> <r_lp_tautomer_probability>
1

> <r_epik_Ionization_Penalty>
0.153253

> <r_epik_Ionization_Penalty_Charging>
0

> <r_epik_Ionization_Penalty_Neutral>
0.153253

> <r_epik_State_Penalty>
0.14254

> <r_epik_Charging_Adjusted_Penalty>
0.14254

> <i_epik_Tot_Q>
1

> <i_epik_Tot_abs_Q>
1

> <r_epik_Metal_State_Penalty>
0.466899

> <b_epik_Metal_Only>
0

> <s_lp_Force_Field>
OPLS_2005

> <r_lp_Energy>
18.2007

> <b_lp_Chiralities_Consistent>
1

> <s_lp_Variant>
AV-unprocessed.smi:2675-1

> <Gold.Version>
5.8.1

> <Gold.Id.Protein>
6NUR|6NUR_protein|mol2

> <Gold.PLP.Fitness>
44.5444

> <Gold.PLP.PLP>
-32.6912

> <Gold.PLP.part.hbond>
-4.0000

> <Gold.PLP.part.metal>
0.0000

> <Gold.PLP.part.buried>
-3.9053

> <Gold.PLP.part.nonpolar>
-25.7454

> <Gold.PLP.part.repulsive>
1.0678

> <Gold.PLP.ligand.clash>
0.0950

> <Gold.PLP.ligand.torsion>
1.2392

> <Gold.PLP.Chemscore.Hbond>
4.3042

> <Gold.PLP.Chemscore.CHOScore>
0.0000

> <Gold.PLP.Chemscore.Metal>
0.0000

> <Gold.Chemscore.Hbonds>
donor molecule, donor type, donor heavy atom, donor atom, acceptor molecule, acceptor atom, score
      L1  H     3    37       P1  8028  2.00
      P1  H  7997  8010       L1     8  0.94
      P1  H 10752 10765       L1    13  1.00

> <Gold.PLP.Chemscore.Internal.Correction>
1.5141

> <Gold.Rescore>
     Score         DG    S(hbond)    S(metal)    S(lipo)     H(rot)  DE(clash)    DE(int)     intcor
     15.84     -18.12       2.80        0.00      67.22       1.80       0.04       2.24       ----

> <Gold.Chemscore.Fitness>
15.8357

> <Gold.Chemscore.DG>
-18.1150

> <Gold.Chemscore.ZeroCoef>
-5.4800

> <Gold.Chemscore.Hbond>
2.8043

> <Gold.Chemscore.Metal>
0.0000

> <Gold.Chemscore.Lipo>
67.2222

> <Gold.Chemscore.Internal_Hbond>
0.0000

> <Gold.Chemscore.DEClash>
0.0370

> <Gold.Chemscore.DEInternal>
2.2423

> <Gold.Chemscore.Rot>
1.7955

> <Gold.Chemscore.Internal.Correction>
   9.000000E+99

> <Gold.Chemscore.Hbonds>
donor molecule, donor type, donor heavy atom, donor atom, acceptor molecule, acceptor atom, score
      L1  H     3    37       P1  8028  0.79
      P1  H  7989  7998       L1     8  0.01
      P1  H  7997  8010       L1     8  0.87
      P1  H 10752 10765       L1    13  0.98

> <Gold.Chemscore.Hbond.Weighted>
-9.3665

> <Gold.Chemscore.Metal.Weighted>
-0.0000

> <Gold.Chemscore.Lipo.Weighted>
-7.8650

> <Gold.Chemscore.Internal_Hbond.Weighted>
0.0000

> <Gold.Chemscore.DEClash.Weighted>
0.0370

> <Gold.Chemscore.DEInternal.Weighted>
2.2423

> <Gold.Chemscore.Rot.Weighted>
4.5965

> <Gold.Chemscore.Internal.Correction.Weighted>
   9.000000E+99

> <Gold.Protein.RotatedTorsions>
[ 6907 6896 6895 6894 ] final  -58.97 input  -60.11 | X-H torsion
[ 7974 7965 7964 7962 ] final  -25.86 input  175.53 | X-H torsion
[ 8008 7997 7996 7995 ] final   94.93 input   59.86 | X-H torsion
[ 10167 10162 10161 10158 ] final -152.03 input  -65.29 | X-H torsion
[ 10718 10713 10712 10709 ] final   53.84 input   66.30 | X-H torsion
[ 10763 10752 10751 10750 ] final  161.33 input  -60.55 | X-H torsion
[ 11005 11000 10999 10996 ] final  -27.12 input  -57.11 | X-H torsion

> <Gold.Protein.ActiveResidues>
 VAL166  LYS551  ARG553  GLY616  TRP617  ASP618  TYR619  PRO620  LYS621  CYS622 
 ASP623  PHE694  ASN695  SER759  ASP760  ASP761  ALA762  ILE779  LEU786  VAL792 
 PHE793  MET794  SER795  GLU796  ALA797  LYS798  CYS799  TRP800  GLU811  SER814 

> <Gold.Protein.RotatedAtoms>
  150.7966  134.7030  159.6560 H   0  0  0  0  0  0  0  0  0  0  0  0  # atno 6907 bound_to 6896
  152.4079  134.6172  160.0051 H   0  0  0  0  0  0  0  0  0  0  0  0  # atno 6908 bound_to 6896
  151.6424  133.3288  159.3169 H   0  0  0  0  0  0  0  0  0  0  0  0  # atno 6909 bound_to 6896
  146.1463  140.4943  142.8630 H   0  0  0  0  0  0  0  0  0  0  0  0  # atno 7974 bound_to 7965
  156.0633  140.3293  155.7487 H   0  0  0  0  0  0  0  0  0  0  0  0  # atno 8008 bound_to 7997
  155.5421  140.0602  157.2885 H   0  0  0  0  0  0  0  0  0  0  0  0  # atno 8009 bound_to 7997
  154.4492  140.1909  156.0589 H   0  0  0  0  0  0  0  0  0  0  0  0  # atno 8010 bound_to 7997
  139.7216  143.8948  152.2505 H   0  0  0  0  0  0  0  0  0  0  0  0  # atno 10167 bound_to 10162
  157.5203  130.8560  149.8550 H   0  0  0  0  0  0  0  0  0  0  0  0  # atno 10718 bound_to 10713
  154.2612  135.2768  155.2777 H   0  0  0  0  0  0  0  0  0  0  0  0  # atno 10763 bound_to 10752
  154.5382  135.5710  153.6820 H   0  0  0  0  0  0  0  0  0  0  0  0  # atno 10764 bound_to 10752
  152.9962  135.6244  154.2763 H   0  0  0  0  0  0  0  0  0  0  0  0  # atno 10765 bound_to 10752
  140.9091  133.7473  156.0646 H   0  0  0  0  0  0  0  0  0  0  0  0  # atno 11005 bound_to 11000
  144.7851  140.5919  143.6579 LP  0  0  0  0  0  0  0  0  0  0  0  0  # atno 17320 bound_to 7965
  145.4928  139.1487  143.3700 LP  0  0  0  0  0  0  0  0  0  0  0  0  # atno 17321 bound_to 7965
  139.8846  144.6999  150.8839 LP  0  0  0  0  0  0  0  0  0  0  0  0  # atno 17342 bound_to 10162
  140.7755  143.3634  151.1784 LP  0  0  0  0  0  0  0  0  0  0  0  0  # atno 17343 bound_to 10162
  156.0349  130.3754  150.1588 LP  0  0  0  0  0  0  0  0  0  0  0  0  # atno 17370 bound_to 10713
  156.9776  130.9854  151.3445 LP  0  0  0  0  0  0  0  0  0  0  0  0  # atno 17371 bound_to 10713
  140.8133  134.3374  157.5405 LP  0  0  0  0  0  0  0  0  0  0  0  0  # atno 17394 bound_to 11000
  139.8754  134.9267  156.3406 LP  0  0  0  0  0  0  0  0  0  0  0  0  # atno 17395 bound_to 11000

$$$$
