AV-unprocessed.smi:195|AV-procd|sdf|1527|dock2
  -GOLD-   2262019373D 1   1.00000     0.00000
 Structure written by MMmdl.
 45 48  0  0  0  0  0  0  0  0  1 V2000
  147.9313  137.2693  163.3832 N   0  0  0  0  0  0  0  0  0  0  0  0
  147.0932  136.7103  162.8142 C   0  0  0  0  0  0  0  0  0  0  0  0
  146.0266  135.9994  162.0914 C   0  0  0  0  0  0  0  0  0  0  0  0
  146.4821  134.6658  161.4920 C   0  0  0  0  0  0  0  0  0  0  0  0
  146.0019  133.6849  162.3873 O   0  0  0  0  0  0  0  0  0  0  0  0
  146.1618  134.4103  160.0163 C   0  0  0  0  0  0  0  0  0  0  0  0
  147.5498  134.7471  159.7116 N   0  0  0  0  0  0  0  0  0  0  0  0
  147.7185  136.0635  159.1781 C   0  0  0  0  0  0  0  0  0  0  0  0
  146.6524  136.7745  158.7201 N   0  0  0  0  0  0  0  0  0  0  0  0
  146.8012  138.0085  158.2294 C   0  0  0  0  0  0  0  0  0  0  0  0
  147.9165  138.7292  158.1123 N   0  0  0  0  0  0  0  0  0  0  0  0
  148.9922  138.0399  158.5851 C   0  0  0  0  0  0  0  0  0  0  0  0
  148.9802  136.7238  159.1290 C   0  0  0  0  0  0  0  0  0  0  0  0
  150.2669  136.3620  159.5119 N   0  0  0  0  0  0  0  0  0  0  0  0
  150.9965  137.4008  159.2085 C   0  0  0  0  0  0  0  0  0  0  0  0
  150.3102  138.4535  158.6480 N   0  0  0  0  0  0  0  0  0  0  0  0
  150.8624  139.7264  158.2211 C   0  0  0  0  0  0  0  0  0  0  0  0
  152.3815  139.8159  158.4630 C   0  0  1  0  0  0  0  0  0  0  0  0
  153.0943  139.4572  157.2944 O   0  0  0  0  0  0  0  0  0  0  0  0
  152.8251  141.2056  158.9619 C   0  0  1  0  0  0  0  0  0  0  0  0
  151.7143  142.1500  159.4287 C   0  0  0  0  0  0  0  0  0  0  0  0
  152.4856  143.0848  160.3331 C   0  0  0  0  0  0  0  0  0  0  0  0
  153.4695  142.1295  161.0043 C   0  0  0  0  0  0  0  0  0  0  0  0
  153.7484  141.1137  160.0442 O   0  0  0  0  0  0  0  0  0  0  0  0
  147.9555  134.5175  161.0985 C   0  0  0  0  0  0  0  0  0  0  0  0
  145.1909  135.8580  162.7776 H   0  0  0  0  0  0  0  0  0  0  0  0
  145.6714  136.6747  161.3132 H   0  0  0  0  0  0  0  0  0  0  0  0
  145.7115  134.1382  163.1639 H   0  0  0  0  0  0  0  0  0  0  0  0
  145.9400  133.3658  159.7934 H   0  0  0  0  0  0  0  0  0  0  0  0
  145.4090  135.0822  159.6023 H   0  0  0  0  0  0  0  0  0  0  0  0
  145.8963  138.4862  157.8835 H   0  0  0  0  0  0  0  0  0  0  0  0
  152.0610  137.4299  159.3909 H   0  0  0  0  0  0  0  0  0  0  0  0
  150.6314  139.8688  157.1648 H   0  0  0  0  0  0  0  0  0  0  0  0
  150.3464  140.5198  158.7632 H   0  0  0  0  0  0  0  0  0  0  0  0
  152.6534  139.0864  159.2268 H   0  0  0  0  0  0  0  0  0  0  0  0
  152.4774  139.3779  156.5830 H   0  0  0  0  0  0  0  0  0  0  0  0
  153.3636  141.7029  158.1533 H   0  0  0  0  0  0  0  0  0  0  0  0
  151.2185  142.6631  158.6043 H   0  0  0  0  0  0  0  0  0  0  0  0
  150.9550  141.6250  160.0092 H   0  0  0  0  0  0  0  0  0  0  0  0
  153.0244  143.8229  159.7374 H   0  0  0  0  0  0  0  0  0  0  0  0
  151.8523  143.6150  161.0447 H   0  0  0  0  0  0  0  0  0  0  0  0
  154.3805  142.6312  161.3307 H   0  0  0  0  0  0  0  0  0  0  0  0
  153.0096  141.6628  161.8761 H   0  0  0  0  0  0  0  0  0  0  0  0
  148.6274  135.2479  161.5486 H   0  0  0  0  0  0  0  0  0  0  0  0
  148.3325  133.5033  161.2369 H   0  0  0  0  0  0  0  0  0  0  0  0
  1  2  3  0  0  0  0
  2  3  1  0  0  0  0
  3  4  1  0  0  0  0
  3 26  1  0  0  0  0
  3 27  1  0  0  0  0
  4 25  1  0  0  0  0
  4  5  1  0  0  0  0
  4  6  1  0  0  0  0
  5 28  1  0  0  0  0
  6  7  1  0  0  0  0
  6 29  1  0  0  0  0
  6 30  1  0  0  0  0
  7  8  1  0  0  0  0
  7 25  1  0  0  0  0
  8 13  1  0  0  0  0
  8  9  2  0  0  0  0
  9 10  1  0  0  0  0
 10 11  2  0  0  0  0
 10 31  1  0  0  0  0
 11 12  1  0  0  0  0
 12 16  1  0  0  0  0
 12 13  2  0  0  0  0
 13 14  1  0  0  0  0
 14 15  2  0  0  0  0
 15 16  1  0  0  0  0
 15 32  1  0  0  0  0
 16 17  1  0  0  0  0
 17 18  1  0  0  0  0
 17 33  1  0  0  0  0
 17 34  1  0  0  0  0
 18 19  1  0  0  0  0
 18 20  1  0  0  0  0
 18 35  1  0  0  0  0
 19 36  1  0  0  0  0
 20 24  1  0  0  0  0
 20 21  1  0  0  0  0
 20 37  1  0  0  0  0
 21 22  1  0  0  0  0
 21 38  1  0  0  0  0
 21 39  1  0  0  0  0
 22 23  1  0  0  0  0
 22 40  1  0  0  0  0
 22 41  1  0  0  0  0
 23 24  1  0  0  0  0
 23 42  1  0  0  0  0
 23 43  1  0  0  0  0
 25 44  1  0  0  0  0
 25 45  1  0  0  0  0
M  END
> <s_m_source_file>
AV-unprocessed.smi

> <i_m_source_file_index>
195

> <i_lp_mmshare_version>
43012

> <i_f3d_flags>
0

> <s_epik_input>
TiNDW0NIMl1DMShbT0hdKVtDSDJdTihbQ0gyXTEpYyhuW2NIXW4yKWMoYzIzKW5bY0hdbjNbQ0gyXVtDQEhdKFtPSF0pW0NAQEhdNFtDSDJdW0NIMl1bQ0gyXU80

> <s_epik_cmdline>
J2VwaWtfcHl0aG9uJywgJy1waCcsICc3LjAnLCAnLXRuJywgJzgnLCAnLW1hJywgJzIwMCcsICctbWV0YWxfYmluZGluZycsICctaW1hZScsICc8aW5maWxlLm1hZT4nLCAnLW9tYWUnLCAnPG91dGZpbGUubWFlPic=

> <r_lp_tautomer_probability>
1

> <r_epik_Ionization_Penalty>
0.00307146

> <r_epik_Ionization_Penalty_Charging>
0

> <r_epik_Ionization_Penalty_Neutral>
0.00307146

> <r_epik_State_Penalty>
0.0020279

> <r_epik_Charging_Adjusted_Penalty>
0.0020279

> <i_epik_Tot_Q>
0

> <i_epik_Tot_abs_Q>
0

> <r_epik_Metal_State_Penalty>
-0

> <b_epik_Metal_Only>
0

> <s_lp_Force_Field>
OPLS_2005

> <r_lp_Energy>
44.2023

> <b_lp_Chiralities_Consistent>
1

> <s_lp_Variant>
AV-unprocessed.smi:195-4

> <Gold.Version>
5.8.1

> <Gold.Id.Protein>
6NUR|6NUR_protein|mol2

> <Gold.PLP.Fitness>
40.0641

> <Gold.PLP.PLP>
-38.0816

> <Gold.PLP.part.hbond>
-3.6856

> <Gold.PLP.part.metal>
0.0000

> <Gold.PLP.part.buried>
-7.8336

> <Gold.PLP.part.nonpolar>
-26.3100

> <Gold.PLP.part.repulsive>
0.0348

> <Gold.PLP.ligand.clash>
0.0000

> <Gold.PLP.ligand.torsion>
2.7891

> <Gold.PLP.Chemscore.Hbond>
2.4000

> <Gold.PLP.Chemscore.CHOScore>
0.0000

> <Gold.PLP.Chemscore.Metal>
0.0000

> <Gold.Chemscore.Hbonds>
donor molecule, donor type, donor heavy atom, donor atom, acceptor molecule, acceptor atom, score
      P1  H  6896  6909       L1    14  1.00
      P1  H  6931  6943       L1     1  0.49
      P1  H  7997  8009       L1    19  0.94

> <Gold.PLP.Chemscore.Internal.Correction>
0.3608

> <Gold.Rescore>
     Score         DG    S(hbond)    S(metal)    S(lipo)     H(rot)  DE(clash)    DE(int)     intcor
     10.65     -13.30       2.49        0.00      77.13       3.72       0.03       2.62       ----

> <Gold.Chemscore.Fitness>
10.6511

> <Gold.Chemscore.DG>
-13.2975

> <Gold.Chemscore.ZeroCoef>
-5.4800

> <Gold.Chemscore.Hbond>
2.4906

> <Gold.Chemscore.Metal>
0.0000

> <Gold.Chemscore.Lipo>
77.1327

> <Gold.Chemscore.Internal_Hbond>
0.0000

> <Gold.Chemscore.DEClash>
0.0294

> <Gold.Chemscore.DEInternal>
2.6170

> <Gold.Chemscore.Rot>
3.7210

> <Gold.Chemscore.Internal.Correction>
   9.000000E+99

> <Gold.Chemscore.Hbonds>
donor molecule, donor type, donor heavy atom, donor atom, acceptor molecule, acceptor atom, score
      P1  H  6896  6909       L1    14  0.86
      P1  H  6931  6943       L1     1  0.28
      P1  H  7997  8009       L1    19  0.20

> <Gold.Chemscore.Hbond.Weighted>
-8.3186

> <Gold.Chemscore.Metal.Weighted>
-0.0000

> <Gold.Chemscore.Lipo.Weighted>
-9.0245

> <Gold.Chemscore.Internal_Hbond.Weighted>
0.0000

> <Gold.Chemscore.DEClash.Weighted>
0.0294

> <Gold.Chemscore.DEInternal.Weighted>
2.6170

> <Gold.Chemscore.Rot.Weighted>
9.5256

> <Gold.Chemscore.Internal.Correction.Weighted>
   9.000000E+99

> <Gold.Protein.RotatedTorsions>
[ 6907 6896 6895 6894 ] final   92.27 input  -60.11 | X-H torsion
[ 7974 7965 7964 7962 ] final  -68.03 input  175.53 | X-H torsion
[ 8008 7997 7996 7995 ] final -167.71 input   59.86 | X-H torsion
[ 10167 10162 10161 10158 ] final  -37.46 input  -65.29 | X-H torsion
[ 10718 10713 10712 10709 ] final   13.07 input   66.30 | X-H torsion
[ 10763 10752 10751 10750 ] final    1.65 input  -60.55 | X-H torsion
[ 11005 11000 10999 10996 ] final  -31.97 input  -57.11 | X-H torsion

> <Gold.Protein.ActiveResidues>
 VAL166  LYS551  ARG553  GLY616  TRP617  ASP618  TYR619  PRO620  LYS621  CYS622 
 ASP623  PHE694  ASN695  SER759  ASP760  ASP761  ALA762  ILE779  LEU786  VAL792 
 PHE793  MET794  SER795  GLU796  ALA797  LYS798  CYS799  TRP800  GLU811  SER814 

> <Gold.Protein.RotatedAtoms>
  152.5452  134.1527  159.8524 H   0  0  0  0  0  0  0  0  0  0  0  0  # atno 6907 bound_to 6896
  151.1553  133.4873  159.2602 H   0  0  0  0  0  0  0  0  0  0  0  0  # atno 6908 bound_to 6896
  151.1430  135.0200  159.8689 H   0  0  0  0  0  0  0  0  0  0  0  0  # atno 6909 bound_to 6896
  145.7217  140.9035  143.0626 H   0  0  0  0  0  0  0  0  0  0  0  0  # atno 7974 bound_to 7965
  155.8814  140.1009  157.1483 H   0  0  0  0  0  0  0  0  0  0  0  0  # atno 8008 bound_to 7997
  154.4005  140.1328  156.4264 H   0  0  0  0  0  0  0  0  0  0  0  0  # atno 8009 bound_to 7997
  155.7639  140.3462  155.5214 H   0  0  0  0  0  0  0  0  0  0  0  0  # atno 8010 bound_to 7997
  140.7117  143.3340  151.2503 H   0  0  0  0  0  0  0  0  0  0  0  0  # atno 10167 bound_to 10162
  157.0193  130.6148  149.5719 H   0  0  0  0  0  0  0  0  0  0  0  0  # atno 10718 bound_to 10713
  153.3053  135.6959  153.7165 H   0  0  0  0  0  0  0  0  0  0  0  0  # atno 10763 bound_to 10752
  153.6063  135.3452  155.2964 H   0  0  0  0  0  0  0  0  0  0  0  0  # atno 10764 bound_to 10752
  154.8561  135.4353  154.2176 H   0  0  0  0  0  0  0  0  0  0  0  0  # atno 10765 bound_to 10752
  140.9513  133.7219  156.1224 H   0  0  0  0  0  0  0  0  0  0  0  0  # atno 11005 bound_to 11000
  144.6915  139.9212  143.7468 LP  0  0  0  0  0  0  0  0  0  0  0  0  # atno 17320 bound_to 7965
  146.0619  139.3612  143.0576 LP  0  0  0  0  0  0  0  0  0  0  0  0  # atno 17321 bound_to 7965
  139.6830  143.9821  152.2819 LP  0  0  0  0  0  0  0  0  0  0  0  0  # atno 17342 bound_to 10162
  139.9457  144.6653  150.8221 LP  0  0  0  0  0  0  0  0  0  0  0  0  # atno 17343 bound_to 10162
  156.0108  130.5199  150.7981 LP  0  0  0  0  0  0  0  0  0  0  0  0  # atno 17370 bound_to 10713
  157.5261  131.0934  151.0015 LP  0  0  0  0  0  0  0  0  0  0  0  0  # atno 17371 bound_to 10713
  140.7599  134.3951  157.5527 LP  0  0  0  0  0  0  0  0  0  0  0  0  # atno 17394 bound_to 11000
  139.8848  134.8954  156.2680 LP  0  0  0  0  0  0  0  0  0  0  0  0  # atno 17395 bound_to 11000

$$$$
