AV-unprocessed.smi:3058|AV-procd|sdf|11669|dock10
  -GOLD-   2272017 73D 1   1.00000     0.00000
 Structure written by MMmdl.
 38 40  0  0  0  0  0  0  0  0  1 V2000
  153.1205  140.1697  158.5565 O   0  0  0  0  0  0  0  0  0  0  0  0
  152.4562  141.1536  158.2298 C   0  0  0  0  0  0  0  0  0  0  0  0
  151.4561  141.0949  157.3367 N   0  0  0  0  0  0  0  0  0  0  0  0
  151.0239  139.8896  156.6398 C   0  0  0  0  0  0  0  0  0  0  0  0
  151.0129  140.0889  155.1151 C   0  0  0  0  0  0  0  0  0  0  0  0
  149.6111  140.2976  154.5770 C   0  0  0  0  0  0  0  0  0  0  0  0
  148.8881  139.2258  154.0140 C   0  0  0  0  0  0  0  0  0  0  0  0
  147.5875  139.4649  153.5302 C   0  0  0  0  0  0  0  0  0  0  0  0
  147.0646  140.7698  153.6293 C   0  0  0  0  0  0  0  0  0  0  0  0
  147.7476  141.8036  154.1668 N   0  0  0  0  0  0  0  0  0  0  0  0
  148.9939  141.5655  154.6293 C   0  0  0  0  0  0  0  0  0  0  0  0
  152.7409  142.5382  158.8377 C   0  0  2  0  0  0  0  0  0  0  0  0
  152.4041  142.6245  160.3468 C   0  0  0  0  0  0  0  0  0  0  0  0
  151.4468  143.8296  160.4269 C   0  0  1  0  0  0  0  0  0  0  0  0
  152.2246  145.1247  160.1242 C   0  0  0  0  0  0  0  0  0  0  0  0
  152.4743  145.0243  158.6067 C   0  0  0  0  0  0  0  0  0  0  0  0
  151.8479  143.6622  158.2525 C   0  0  2  0  0  0  0  0  0  0  0  0
  150.6188  143.6589  159.1613 C   0  0  0  0  0  0  0  0  0  0  0  0
  150.9583  141.9476  157.1254 H   0  0  0  0  0  0  0  0  0  0  0  0
  151.6667  139.0511  156.9137 H   0  0  0  0  0  0  0  0  0  0  0  0
  150.0216  139.6390  156.9885 H   0  0  0  0  0  0  0  0  0  0  0  0
  151.6327  140.9452  154.8453 H   0  0  0  0  0  0  0  0  0  0  0  0
  151.4508  139.2240  154.6150 H   0  0  0  0  0  0  0  0  0  0  0  0
  149.3209  138.2377  153.9552 H   0  0  0  0  0  0  0  0  0  0  0  0
  147.0046  138.6676  153.0934 H   0  0  0  0  0  0  0  0  0  0  0  0
  146.0709  140.9888  153.2673 H   0  0  0  0  0  0  0  0  0  0  0  0
  149.5121  142.4123  155.0547 H   0  0  0  0  0  0  0  0  0  0  0  0
  153.7933  142.7783  158.6749 H   0  0  0  0  0  0  0  0  0  0  0  0
  151.9076  141.7233  160.7108 H   0  0  0  0  0  0  0  0  0  0  0  0
  153.2961  142.7715  160.9570 H   0  0  0  0  0  0  0  0  0  0  0  0
  150.8713  143.8707  161.3523 H   0  0  0  0  0  0  0  0  0  0  0  0
  151.6238  146.0050  160.3563 H   0  0  0  0  0  0  0  0  0  0  0  0
  153.1515  145.1916  160.6951 H   0  0  0  0  0  0  0  0  0  0  0  0
  151.9634  145.8323  158.0812 H   0  0  0  0  0  0  0  0  0  0  0  0
  153.5333  145.0797  158.3516 H   0  0  0  0  0  0  0  0  0  0  0  0
  151.6270  143.5507  157.1900 H   0  0  0  0  0  0  0  0  0  0  0  0
  150.0461  142.7313  159.1416 H   0  0  0  0  0  0  0  0  0  0  0  0
  149.9407  144.4933  158.9736 H   0  0  0  0  0  0  0  0  0  0  0  0
  1  2  2  0  0  0  0
  2  3  1  0  0  0  0
  2 12  1  0  0  0  0
  3  4  1  0  0  0  0
  3 19  1  0  0  0  0
  4  5  1  0  0  0  0
  4 20  1  0  0  0  0
  4 21  1  0  0  0  0
  5  6  1  0  0  0  0
  5 22  1  0  0  0  0
  5 23  1  0  0  0  0
  6 11  1  0  0  0  0
  6  7  2  0  0  0  0
  7  8  1  0  0  0  0
  7 24  1  0  0  0  0
  8  9  2  0  0  0  0
  8 25  1  0  0  0  0
  9 10  1  0  0  0  0
  9 26  1  0  0  0  0
 10 11  2  0  0  0  0
 11 27  1  0  0  0  0
 12 17  1  0  0  0  0
 12 13  1  0  0  0  0
 12 28  1  0  0  0  0
 13 14  1  0  0  0  0
 13 29  1  0  0  0  0
 13 30  1  0  0  0  0
 14 18  1  0  0  0  0
 14 15  1  0  0  0  0
 14 31  1  0  0  0  0
 15 16  1  0  0  0  0
 15 32  1  0  0  0  0
 15 33  1  0  0  0  0
 16 17  1  0  0  0  0
 16 34  1  0  0  0  0
 16 35  1  0  0  0  0
 17 18  1  0  0  0  0
 17 36  1  0  0  0  0
 18 37  1  0  0  0  0
 18 38  1  0  0  0  0
M  END
> <s_m_source_file>
AV-unprocessed.smi

> <i_m_source_file_index>
3058

> <i_lp_mmshare_version>
43012

> <i_f3d_flags>
0

> <s_epik_input>
W0NIMl0xW0NIMl1bQ0BIXShbQ0gyXTIpW0NAQEhdKFtDSDJdW0NAQEhdMTIpQyg9TylbTkhdW0NIMl1bQ0gyXWMzW2NIXVtjSF1bY0hdbltjSF0z

> <s_epik_cmdline>
J2VwaWtfcHl0aG9uJywgJy1waCcsICc3LjAnLCAnLXRuJywgJzgnLCAnLW1hJywgJzIwMCcsICctbWV0YWxfYmluZGluZycsICctaW1hZScsICc8aW5maWxlLm1hZT4nLCAnLW9tYWUnLCAnPG91dGZpbGUubWFlPic=

> <r_epik_Ionization_Penalty>
0.0135821

> <r_epik_Ionization_Penalty_Charging>
0

> <r_epik_Ionization_Penalty_Neutral>
0.0135821

> <r_epik_State_Penalty>
0.0105782

> <r_epik_Charging_Adjusted_Penalty>
0.0105782

> <i_epik_Tot_Q>
0

> <i_epik_Tot_abs_Q>
0

> <r_epik_Metal_State_Penalty>
0.0103407

> <b_epik_Metal_Only>
0

> <s_lp_Force_Field>
OPLS_2005

> <r_lp_Energy>
46.4183

> <b_lp_Chiralities_Consistent>
1

> <s_lp_Variant>
AV-unprocessed.smi:3058-1

> <Gold.Version>
5.8.1

> <Gold.Id.Protein>
6NUR|6NUR_protein|mol2

> <Gold.PLP.Fitness>
47.1426

> <Gold.PLP.PLP>
-39.8210

> <Gold.PLP.part.hbond>
-1.0000

> <Gold.PLP.part.metal>
0.0000

> <Gold.PLP.part.buried>
-2.3948

> <Gold.PLP.part.nonpolar>
-35.5110

> <Gold.PLP.part.repulsive>
0.2290

> <Gold.PLP.ligand.clash>
0.0000

> <Gold.PLP.ligand.torsion>
0.7000

> <Gold.PLP.Chemscore.Hbond>
0.9040

> <Gold.PLP.Chemscore.CHOScore>
1.9935

> <Gold.PLP.Chemscore.Metal>
0.0000

> <Gold.Chemscore.Hbonds>
donor molecule, donor type, donor heavy atom, donor atom, acceptor molecule, acceptor atom, score
      P1  H  7997  8009       L1     1  0.76
      L1  C     9    26       P1 10175  0.93
      L1  C    11    27       P1  8028  1.00

> <Gold.PLP.Chemscore.Internal.Correction>
0.0289

> <Gold.Rescore>
     Score         DG    S(hbond)    S(metal)    S(lipo)     H(rot)  DE(clash)    DE(int)     intcor
     18.00     -18.89       0.69        0.00     124.77       1.37       0.29       0.60       ----

> <Gold.Chemscore.Fitness>
18.0001

> <Gold.Chemscore.DG>
-18.8893

> <Gold.Chemscore.ZeroCoef>
-5.4800

> <Gold.Chemscore.Hbond>
0.6904

> <Gold.Chemscore.Metal>
0.0000

> <Gold.Chemscore.Lipo>
124.7739

> <Gold.Chemscore.Internal_Hbond>
0.0000

> <Gold.Chemscore.DEClash>
0.2911

> <Gold.Chemscore.DEInternal>
0.5980

> <Gold.Chemscore.Rot>
1.3653

> <Gold.Chemscore.Internal.Correction>
   9.000000E+99

> <Gold.Chemscore.Hbonds>
donor molecule, donor type, donor heavy atom, donor atom, acceptor molecule, acceptor atom, score
      P1  H  7997  8009       L1     1  0.32

> <Gold.Chemscore.Hbond.Weighted>
-2.3059

> <Gold.Chemscore.Metal.Weighted>
-0.0000

> <Gold.Chemscore.Lipo.Weighted>
-14.5986

> <Gold.Chemscore.Internal_Hbond.Weighted>
0.0000

> <Gold.Chemscore.DEClash.Weighted>
0.2911

> <Gold.Chemscore.DEInternal.Weighted>
0.5980

> <Gold.Chemscore.Rot.Weighted>
3.4951

> <Gold.Chemscore.Internal.Correction.Weighted>
   9.000000E+99

> <Gold.Protein.RotatedTorsions>
[ 6907 6896 6895 6894 ] final   39.39 input  -60.11 | X-H torsion
[ 7974 7965 7964 7962 ] final  -42.08 input  175.53 | X-H torsion
[ 8008 7997 7996 7995 ] final  150.64 input   59.86 | X-H torsion
[ 10167 10162 10161 10158 ] final   27.59 input  -65.29 | X-H torsion
[ 10718 10713 10712 10709 ] final -114.29 input   66.30 | X-H torsion
[ 10763 10752 10751 10750 ] final   20.69 input  -60.55 | X-H torsion
[ 11005 11000 10999 10996 ] final  130.50 input  -57.11 | X-H torsion

> <Gold.Protein.ActiveResidues>
 VAL166  LYS551  ARG553  GLY616  TRP617  ASP618  TYR619  PRO620  LYS621  CYS622 
 ASP623  PHE694  ASN695  SER759  ASP760  ASP761  ALA762  ILE779  LEU786  VAL792 
 PHE793  MET794  SER795  GLU796  ALA797  LYS798  CYS799  TRP800  GLU811  SER814 

> <Gold.Protein.RotatedAtoms>
  152.1689  134.8851  160.0535 H   0  0  0  0  0  0  0  0  0  0  0  0  # atno 6907 bound_to 6896
  151.9818  133.3755  159.4118 H   0  0  0  0  0  0  0  0  0  0  0  0  # atno 6908 bound_to 6896
  150.6898  134.3953  159.5138 H   0  0  0  0  0  0  0  0  0  0  0  0  # atno 6909 bound_to 6896
  146.0150  140.6919  142.9206 H   0  0  0  0  0  0  0  0  0  0  0  0  # atno 7974 bound_to 7965
  156.2707  140.2069  156.6049 H   0  0  0  0  0  0  0  0  0  0  0  0  # atno 8008 bound_to 7997
  154.6877  140.0533  157.0355 H   0  0  0  0  0  0  0  0  0  0  0  0  # atno 8009 bound_to 7997
  155.0911  140.3196  155.4576 H   0  0  0  0  0  0  0  0  0  0  0  0  # atno 8010 bound_to 7997
  140.4925  144.0444  150.6302 H   0  0  0  0  0  0  0  0  0  0  0  0  # atno 10167 bound_to 10162
  156.0821  130.6019  150.8756 H   0  0  0  0  0  0  0  0  0  0  0  0  # atno 10718 bound_to 10713
  153.1056  135.6684  153.9592 H   0  0  0  0  0  0  0  0  0  0  0  0  # atno 10763 bound_to 10752
  153.9150  135.3021  155.3449 H   0  0  0  0  0  0  0  0  0  0  0  0  # atno 10764 bound_to 10752
  154.7477  135.5049  153.9310 H   0  0  0  0  0  0  0  0  0  0  0  0  # atno 10765 bound_to 10752
  139.9676  134.9586  156.9303 H   0  0  0  0  0  0  0  0  0  0  0  0  # atno 11005 bound_to 11000
  144.6967  140.3465  143.7189 LP  0  0  0  0  0  0  0  0  0  0  0  0  # atno 17320 bound_to 7965
  145.7283  139.1729  143.2445 LP  0  0  0  0  0  0  0  0  0  0  0  0  # atno 17321 bound_to 7965
  140.3717  143.2851  152.0271 LP  0  0  0  0  0  0  0  0  0  0  0  0  # atno 17342 bound_to 10162
  139.4854  144.6225  151.7228 LP  0  0  0  0  0  0  0  0  0  0  0  0  # atno 17343 bound_to 10162
  157.5941  131.0943  150.9070 LP  0  0  0  0  0  0  0  0  0  0  0  0  # atno 17370 bound_to 10713
  156.9240  130.5325  149.5279 LP  0  0  0  0  0  0  0  0  0  0  0  0  # atno 17371 bound_to 10713
  140.5363  134.0763  155.7329 LP  0  0  0  0  0  0  0  0  0  0  0  0  # atno 17394 bound_to 11000
  141.1355  133.9228  157.2442 LP  0  0  0  0  0  0  0  0  0  0  0  0  # atno 17395 bound_to 11000

$$$$
