AV-unprocessed.smi:275|AV-procd|sdf|2068|dock2
  -GOLD-   2262021323D 1   1.00000     0.00000
 Structure written by MMmdl.
 65 69  0  0  0  0  0  0  0  0  1 V2000
  147.5325  136.0070  156.1913 C   0  0  0  0  0  0  0  0  0  0  0  0
  147.1380  135.1100  157.3775 C   0  0  0  0  0  0  0  0  0  0  0  0
  145.6903  134.6280  157.1840 C   0  0  0  0  0  0  0  0  0  0  0  0
  147.3104  135.8247  158.7285 C   0  0  2  0  0  0  0  0  0  0  0  0
  148.7049  136.0928  159.0722 N   0  0  0  0  0  0  0  0  0  0  0  0
  149.2139  137.3639  158.6906 C   0  0  0  0  0  0  0  0  0  0  0  0
  148.4953  138.2146  157.9078 N   0  0  0  0  0  0  0  0  0  0  0  0
  148.9929  139.4026  157.5516 C   0  0  0  0  0  0  0  0  0  0  0  0
  150.1753  139.9376  157.8597 N   0  0  0  0  0  0  0  0  0  0  0  0
  150.9031  139.0941  158.6453 C   0  0  0  0  0  0  0  0  0  0  0  0
  150.4996  137.8075  159.1000 C   0  0  0  0  0  0  0  0  0  0  0  0
  151.5036  137.2405  159.8746 N   0  0  0  0  0  0  0  0  0  0  0  0
  152.4491  138.1402  159.8769 C   0  0  0  0  0  0  0  0  0  0  0  0
  152.1746  139.2816  159.1584 N   0  0  0  0  0  0  0  0  0  0  0  0
  153.0471  140.4314  158.9954 C   0  0  0  0  0  0  0  0  0  0  0  0
  152.9417  141.4521  160.1571 C   0  0  1  0  0  0  0  0  0  0  0  0
  154.1087  141.2722  161.1626 C   0  0  0  0  0  0  0  0  0  0  0  0
  154.1604  139.9612  161.6840 O   0  0  0  0  0  0  0  0  0  0  0  0
  152.8641  142.9015  159.6010 C   0  0  1  0  0  0  0  0  0  0  0  0
  151.8568  143.1064  158.4808 C   0  0  0  0  0  0  0  0  0  0  0  0
  151.6820  144.6204  158.4689 C   0  0  0  0  0  0  0  0  0  0  0  0
  151.8444  145.0342  159.8194 O   0  0  0  0  0  0  0  0  0  0  0  0
  152.3793  143.9656  160.5939 C   0  0  0  0  0  0  0  0  0  0  0  0
  148.4011  135.9777  160.4899 C   0  0  0  0  0  0  0  0  0  0  0  0
  147.2255  135.0753  160.0811 C   0  0  0  0  0  0  0  0  0  0  0  0
  145.9205  135.2764  160.8676 C   0  0  0  0  0  0  0  0  0  0  0  0
  146.0061  134.7423  162.3072 C   0  0  0  0  0  0  0  0  0  0  0  0
  146.3763  133.2533  162.3274 C   0  0  0  0  0  0  0  0  0  0  0  0
  147.6491  132.9860  161.5135 C   0  0  0  0  0  0  0  0  0  0  0  0
  147.5304  133.5598  160.0911 C   0  0  0  0  0  0  0  0  0  0  0  0
  146.9658  136.9386  156.1921 H   0  0  0  0  0  0  0  0  0  0  0  0
  147.3474  135.5058  155.2408 H   0  0  0  0  0  0  0  0  0  0  0  0
  148.5919  136.2601  156.2148 H   0  0  0  0  0  0  0  0  0  0  0  0
  147.7807  134.2294  157.3496 H   0  0  0  0  0  0  0  0  0  0  0  0
  144.9947  135.4678  157.1792 H   0  0  0  0  0  0  0  0  0  0  0  0
  145.3747  133.9482  157.9734 H   0  0  0  0  0  0  0  0  0  0  0  0
  145.5758  134.0980  156.2381 H   0  0  0  0  0  0  0  0  0  0  0  0
  146.7076  136.7335  158.7818 H   0  0  0  0  0  0  0  0  0  0  0  0
  148.3520  140.0097  156.9294 H   0  0  0  0  0  0  0  0  0  0  0  0
  153.3816  137.9941  160.4025 H   0  0  0  0  0  0  0  0  0  0  0  0
  154.0751  140.0822  158.8926 H   0  0  0  0  0  0  0  0  0  0  0  0
  152.7829  140.8945  158.0451 H   0  0  0  0  0  0  0  0  0  0  0  0
  152.0097  141.2396  160.6837 H   0  0  0  0  0  0  0  0  0  0  0  0
  155.0752  141.4446  160.6913 H   0  0  0  0  0  0  0  0  0  0  0  0
  154.0284  141.9885  161.9808 H   0  0  0  0  0  0  0  0  0  0  0  0
  154.8531  139.9201  162.3256 H   0  0  0  0  0  0  0  0  0  0  0  0
  153.8477  143.1971  159.2317 H   0  0  0  0  0  0  0  0  0  0  0  0
  152.1973  142.7276  157.5167 H   0  0  0  0  0  0  0  0  0  0  0  0
  150.9101  142.6219  158.7249 H   0  0  0  0  0  0  0  0  0  0  0  0
  152.4614  145.0881  157.8660 H   0  0  0  0  0  0  0  0  0  0  0  0
  150.7147  144.9264  158.0697 H   0  0  0  0  0  0  0  0  0  0  0  0
  151.5801  143.5726  161.2237 H   0  0  0  0  0  0  0  0  0  0  0  0
  153.1777  144.3240  161.2442 H   0  0  0  0  0  0  0  0  0  0  0  0
  149.1847  135.4817  161.0627 H   0  0  0  0  0  0  0  0  0  0  0  0
  148.0863  136.9133  160.9556 H   0  0  0  0  0  0  0  0  0  0  0  0
  145.6589  136.3346  160.9003 H   0  0  0  0  0  0  0  0  0  0  0  0
  145.0942  134.7865  160.3513 H   0  0  0  0  0  0  0  0  0  0  0  0
  146.7512  135.3121  162.8638 H   0  0  0  0  0  0  0  0  0  0  0  0
  145.0554  134.8950  162.8184 H   0  0  0  0  0  0  0  0  0  0  0  0
  146.5095  132.9132  163.3548 H   0  0  0  0  0  0  0  0  0  0  0  0
  145.5531  132.6702  161.9126 H   0  0  0  0  0  0  0  0  0  0  0  0
  148.5069  133.4291  162.0203 H   0  0  0  0  0  0  0  0  0  0  0  0
  147.8409  131.9139  161.4669 H   0  0  0  0  0  0  0  0  0  0  0  0
  146.7534  133.0090  159.5626 H   0  0  0  0  0  0  0  0  0  0  0  0
  148.4549  133.3511  159.5516 H   0  0  0  0  0  0  0  0  0  0  0  0
  1  2  1  0  0  0  0
  1 31  1  0  0  0  0
  1 32  1  0  0  0  0
  1 33  1  0  0  0  0
  2  3  1  0  0  0  0
  2  4  1  0  0  0  0
  2 34  1  0  0  0  0
  3 35  1  0  0  0  0
  3 36  1  0  0  0  0
  3 37  1  0  0  0  0
  4 25  1  0  0  0  0
  4  5  1  0  0  0  0
  4 38  1  0  0  0  0
  5  6  1  0  0  0  0
  5 24  1  0  0  0  0
  6 11  1  0  0  0  0
  6  7  2  0  0  0  0
  7  8  1  0  0  0  0
  8  9  2  0  0  0  0
  8 39  1  0  0  0  0
  9 10  1  0  0  0  0
 10 14  1  0  0  0  0
 10 11  2  0  0  0  0
 11 12  1  0  0  0  0
 12 13  2  0  0  0  0
 13 14  1  0  0  0  0
 13 40  1  0  0  0  0
 14 15  1  0  0  0  0
 15 16  1  0  0  0  0
 15 41  1  0  0  0  0
 15 42  1  0  0  0  0
 16 17  1  0  0  0  0
 16 19  1  0  0  0  0
 16 43  1  0  0  0  0
 17 18  1  0  0  0  0
 17 44  1  0  0  0  0
 17 45  1  0  0  0  0
 18 46  1  0  0  0  0
 19 23  1  0  0  0  0
 19 20  1  0  0  0  0
 19 47  1  0  0  0  0
 20 21  1  0  0  0  0
 20 48  1  0  0  0  0
 20 49  1  0  0  0  0
 21 22  1  0  0  0  0
 21 50  1  0  0  0  0
 21 51  1  0  0  0  0
 22 23  1  0  0  0  0
 23 52  1  0  0  0  0
 23 53  1  0  0  0  0
 24 25  1  0  0  0  0
 24 54  1  0  0  0  0
 24 55  1  0  0  0  0
 25 30  1  0  0  0  0
 25 26  1  0  0  0  0
 26 27  1  0  0  0  0
 26 56  1  0  0  0  0
 26 57  1  0  0  0  0
 27 28  1  0  0  0  0
 27 58  1  0  0  0  0
 27 59  1  0  0  0  0
 28 29  1  0  0  0  0
 28 60  1  0  0  0  0
 28 61  1  0  0  0  0
 29 30  1  0  0  0  0
 29 62  1  0  0  0  0
 29 63  1  0  0  0  0
 30 64  1  0  0  0  0
 30 65  1  0  0  0  0
M  END
> <s_m_source_file>
AV-unprocessed.smi

> <i_m_source_file_index>
275

> <i_lp_mmshare_version>
43012

> <i_f3d_flags>
0

> <s_epik_input>
W0NIMl0xW0NIMl1bQ0gyXVtDSDJdW0NIMl1DMTJbQ0BIXShbQ0hdKFtDSDNdKVtDSDNdKU4oW0NIMl0yKWMobltjSF1uMyljKGMzNCluW2NIXW40W0NIMl1bQ0BIXShbQ0gyXVtPSF0pW0NAQEhdNVtDSDJdW0NIMl1PW0NIMl01

> <s_epik_cmdline>
J2VwaWtfcHl0aG9uJywgJy1waCcsICc3LjAnLCAnLXRuJywgJzgnLCAnLW1hJywgJzIwMCcsICctbWV0YWxfYmluZGluZycsICctaW1hZScsICc8aW5maWxlLm1hZT4nLCAnLW9tYWUnLCAnPG91dGZpbGUubWFlPic=

> <r_lp_tautomer_probability>
1

> <r_epik_Ionization_Penalty>
0.00375122

> <r_epik_Ionization_Penalty_Charging>
0

> <r_epik_Ionization_Penalty_Neutral>
0.00375122

> <r_epik_State_Penalty>
0.00260593

> <r_epik_Charging_Adjusted_Penalty>
0.00260593

> <i_epik_Tot_Q>
0

> <i_epik_Tot_abs_Q>
0

> <r_epik_Metal_State_Penalty>
-0

> <b_epik_Metal_Only>
0

> <s_lp_Force_Field>
OPLS_2005

> <r_lp_Energy>
64.3005

> <b_lp_Chiralities_Consistent>
1

> <s_lp_Variant>
AV-unprocessed.smi:275-7

> <Gold.Version>
5.8.1

> <Gold.Id.Protein>
6NUR|6NUR_protein|mol2

> <Gold.PLP.Fitness>
48.1403

> <Gold.PLP.PLP>
-47.2142

> <Gold.PLP.part.hbond>
-0.9680

> <Gold.PLP.part.metal>
0.0000

> <Gold.PLP.part.buried>
-7.6566

> <Gold.PLP.part.nonpolar>
-39.7440

> <Gold.PLP.part.repulsive>
0.0683

> <Gold.PLP.ligand.clash>
0.0000

> <Gold.PLP.ligand.torsion>
1.3128

> <Gold.PLP.Chemscore.Hbond>
0.9588

> <Gold.PLP.Chemscore.CHOScore>
0.0000

> <Gold.PLP.Chemscore.Metal>
0.0000

> <Gold.Chemscore.Hbonds>
donor molecule, donor type, donor heavy atom, donor atom, acceptor molecule, acceptor atom, score
      P1  H  6896  6908       L1    12  0.88

> <Gold.PLP.Chemscore.Internal.Correction>
0.6756

> <Gold.Rescore>
     Score         DG    S(hbond)    S(metal)    S(lipo)     H(rot)  DE(clash)    DE(int)     intcor
     15.44     -16.84       0.95        0.00     125.37       2.54       0.04       1.35       ----

> <Gold.Chemscore.Fitness>
15.4407

> <Gold.Chemscore.DG>
-16.8367

> <Gold.Chemscore.ZeroCoef>
-5.4800

> <Gold.Chemscore.Hbond>
0.9536

> <Gold.Chemscore.Metal>
0.0000

> <Gold.Chemscore.Lipo>
125.3691

> <Gold.Chemscore.Internal_Hbond>
0.0000

> <Gold.Chemscore.DEClash>
0.0437

> <Gold.Chemscore.DEInternal>
1.3523

> <Gold.Chemscore.Rot>
2.5377

> <Gold.Chemscore.Internal.Correction>
   9.000000E+99

> <Gold.Chemscore.Hbonds>
donor molecule, donor type, donor heavy atom, donor atom, acceptor molecule, acceptor atom, score
      P1  H  6896  6908       L1    12  0.73

> <Gold.Chemscore.Hbond.Weighted>
-3.1851

> <Gold.Chemscore.Metal.Weighted>
-0.0000

> <Gold.Chemscore.Lipo.Weighted>
-14.6682

> <Gold.Chemscore.Internal_Hbond.Weighted>
0.0000

> <Gold.Chemscore.DEClash.Weighted>
0.0437

> <Gold.Chemscore.DEInternal.Weighted>
1.3523

> <Gold.Chemscore.Rot.Weighted>
6.4966

> <Gold.Chemscore.Internal.Correction.Weighted>
   9.000000E+99

> <Gold.Protein.RotatedTorsions>
[ 6907 6896 6895 6894 ] final -131.42 input  -60.11 | X-H torsion
[ 7974 7965 7964 7962 ] final  -52.87 input  175.53 | X-H torsion
[ 8008 7997 7996 7995 ] final -154.71 input   59.86 | X-H torsion
[ 10167 10162 10161 10158 ] final -141.71 input  -65.29 | X-H torsion
[ 10718 10713 10712 10709 ] final  -14.28 input   66.30 | X-H torsion
[ 10763 10752 10751 10750 ] final   85.37 input  -60.55 | X-H torsion
[ 11005 11000 10999 10996 ] final  117.53 input  -57.11 | X-H torsion

> <Gold.Protein.ActiveResidues>
 VAL166  LYS551  ARG553  GLY616  TRP617  ASP618  TYR619  PRO620  LYS621  CYS622 
 ASP623  PHE694  ASN695  SER759  ASP760  ASP761  ALA762  ILE779  LEU786  VAL792 
 PHE793  MET794  SER795  GLU796  ALA797  LYS798  CYS799  TRP800  GLU811  SER814 

> <Gold.Protein.RotatedAtoms>
  150.9507  133.6552  159.2772 H   0  0  0  0  0  0  0  0  0  0  0  0  # atno 6907 bound_to 6896
  151.3909  135.0954  159.9535 H   0  0  0  0  0  0  0  0  0  0  0  0  # atno 6908 bound_to 6896
  152.5109  133.9022  159.7501 H   0  0  0  0  0  0  0  0  0  0  0  0  # atno 6909 bound_to 6896
  145.9031  140.7977  142.9733 H   0  0  0  0  0  0  0  0  0  0  0  0  # atno 7974 bound_to 7965
  155.6906  140.0755  157.2449 H   0  0  0  0  0  0  0  0  0  0  0  0  # atno 8008 bound_to 7997
  154.4089  140.1665  156.2135 H   0  0  0  0  0  0  0  0  0  0  0  0  # atno 8009 bound_to 7997
  155.9455  140.3381  155.6366 H   0  0  0  0  0  0  0  0  0  0  0  0  # atno 8010 bound_to 7997
  139.8158  143.7641  152.2665 H   0  0  0  0  0  0  0  0  0  0  0  0  # atno 10167 bound_to 10162
  156.6183  130.4868  149.6174 H   0  0  0  0  0  0  0  0  0  0  0  0  # atno 10718 bound_to 10713
  153.1469  135.4619  154.9579 H   0  0  0  0  0  0  0  0  0  0  0  0  # atno 10763 bound_to 10752
  154.7793  135.3183  154.8026 H   0  0  0  0  0  0  0  0  0  0  0  0  # atno 10764 bound_to 10752
  153.8539  135.6919  153.4844 H   0  0  0  0  0  0  0  0  0  0  0  0  # atno 10765 bound_to 10752
  139.9078  134.9611  156.7365 H   0  0  0  0  0  0  0  0  0  0  0  0  # atno 11005 bound_to 11000
  144.6737  140.1709  143.7414 LP  0  0  0  0  0  0  0  0  0  0  0  0  # atno 17320 bound_to 7965
  145.8765  139.2300  143.1630 LP  0  0  0  0  0  0  0  0  0  0  0  0  # atno 17321 bound_to 7965
  139.7804  144.7446  151.0097 LP  0  0  0  0  0  0  0  0  0  0  0  0  # atno 17342 bound_to 10162
  140.7816  143.4549  151.0360 LP  0  0  0  0  0  0  0  0  0  0  0  0  # atno 17343 bound_to 10162
  156.2333  130.6807  151.1485 LP  0  0  0  0  0  0  0  0  0  0  0  0  # atno 17370 bound_to 10713
  157.7235  131.0666  150.6034 LP  0  0  0  0  0  0  0  0  0  0  0  0  # atno 17371 bound_to 10713
  140.6883  133.9412  155.7951 LP  0  0  0  0  0  0  0  0  0  0  0  0  # atno 17394 bound_to 11000
  141.0460  134.0553  157.3844 LP  0  0  0  0  0  0  0  0  0  0  0  0  # atno 17395 bound_to 11000

$$$$
