AV-unprocessed.smi:913|AV-procd|sdf|4148|dock3
  -GOLD-   22720 2 53D 1   1.00000     0.00000
 Structure written by MMmdl.
 21 21  0  0  0  0  0  0  0  0  2 V2000
  151.3127  144.1211  158.0547 C   0  0  0  0  0  0  0  0  0  0  0  0
  151.2486  142.7548  157.4052 C   0  0  0  0  0  0  0  0  0  0  0  0
  151.8330  141.7034  157.8807 N   0  0  0  0  0  0  0  0  0  0  0  0
  151.6892  140.5030  157.1775 C   0  0  0  0  0  0  0  0  0  0  0  0
  152.3520  139.4561  157.7857 N   0  0  0  0  0  0  0  0  0  0  0  0
  150.9688  140.4007  156.0265 C   0  0  0  0  0  0  0  0  0  0  0  0
  150.8189  139.0855  155.2626 C   0  0  0  0  0  0  0  0  0  0  0  0
  152.1336  138.5291  154.7056 C   0  0  0  0  0  0  0  0  0  0  0  0
  153.1557  139.2291  154.8750 O   0  0  0  0  0  0  0  0  0  0  0  0
  152.1026  137.4262  154.1155 O   0  5  0  0  0  0  0  0  0  0  0  0
  150.3120  141.6098  155.4942 C   0  0  0  0  0  0  0  0  0  0  0  0
  149.6402  141.6456  154.4643 O   0  0  0  0  0  0  0  0  0  0  0  0
  150.4942  142.7310  156.2303 N   0  0  0  0  0  0  0  0  0  0  0  0
  150.0621  143.5845  155.9087 H   0  0  0  0  0  0  0  0  0  0  0  0
  150.9110  144.0742  159.0674 H   0  0  0  0  0  0  0  0  0  0  0  0
  150.7400  144.8611  157.4939 H   0  0  0  0  0  0  0  0  0  0  0  0
  152.3472  144.4610  158.1108 H   0  0  0  0  0  0  0  0  0  0  0  0
  152.8685  139.5976  158.6426 H   0  0  0  0  0  0  0  0  0  0  0  0
  152.5452  138.5988  157.2885 H   0  0  0  0  0  0  0  0  0  0  0  0
  150.3547  138.3214  155.8866 H   0  0  0  0  0  0  0  0  0  0  0  0
  150.1277  139.2433  154.4337 H   0  0  0  0  0  0  0  0  0  0  0  0
  1  2  1  0  0  0  0
  1 15  1  0  0  0  0
  1 16  1  0  0  0  0
  1 17  1  0  0  0  0
  2 13  1  0  0  0  0
  2  3  2  0  0  0  0
  3  4  1  0  0  0  0
  4  5  1  0  0  0  0
  4  6  2  0  0  0  0
  5 18  1  0  0  0  0
  5 19  1  0  0  0  0
  6  7  1  0  0  0  0
  6 11  1  0  0  0  0
  7  8  1  0  0  0  0
  7 20  1  0  0  0  0
  7 21  1  0  0  0  0
  8  9  2  0  0  0  0
  8 10  1  0  0  0  0
 11 12  2  0  0  0  0
 11 13  1  0  0  0  0
 13 14  1  0  0  0  0
M  CHG  1  10  -1
M  END
> <s_m_source_file>
AV-unprocessed.smi

> <i_m_source_file_index>
913

> <i_lp_mmshare_version>
43012

> <i_f3d_flags>
0

> <s_epik_input>
W0NIM11jMW5jKFtOSDJdKWMoYyg9TylbbkhdMSlbQ0gyXUMoPU8pW09IXQ==

> <s_epik_cmdline>
J2VwaWtfcHl0aG9uJywgJy1waCcsICc3LjAnLCAnLXRuJywgJzgnLCAnLW1hJywgJzIwMCcsICctbWV0YWxfYmluZGluZycsICctaW1hZScsICc8aW5maWxlLm1hZT4nLCAnLW9tYWUnLCAnPG91dGZpbGUubWFlPic=

> <r_lp_tautomer_probability>
0.994035

> <r_epik_Ionization_Penalty>
0.00166212

> <r_epik_Ionization_Penalty_Charging>
0.00113713

> <r_epik_Ionization_Penalty_Neutral>
0.000524996

> <r_epik_State_Penalty>
7.90533e-05

> <r_epik_Charging_Adjusted_Penalty>
0.00121618

> <i_epik_Tot_Q>
-1

> <i_epik_Tot_abs_Q>
1

> <r_epik_Metal_State_Penalty>
0.236869

> <b_epik_Metal_Only>
0

> <s_lp_Force_Field>
OPLS_2005

> <r_lp_Energy>
5.01011

> <b_lp_Chiralities_Consistent>
1

> <s_lp_Variant>
AV-unprocessed.smi:913-1

> <Gold.Version>
5.8.1

> <Gold.Id.Protein>
6NUR|6NUR_protein|mol2

> <Gold.PLP.Fitness>
40.0892

> <Gold.PLP.PLP>
-24.8823

> <Gold.PLP.part.hbond>
-5.4771

> <Gold.PLP.part.metal>
0.0000

> <Gold.PLP.part.buried>
-3.4878

> <Gold.PLP.part.nonpolar>
-16.8070

> <Gold.PLP.part.repulsive>
0.7848

> <Gold.PLP.ligand.clash>
0.0000

> <Gold.PLP.ligand.torsion>
0.0258

> <Gold.PLP.Chemscore.Hbond>
5.0861

> <Gold.PLP.Chemscore.CHOScore>
0.0000

> <Gold.PLP.Chemscore.Metal>
0.0000

> <Gold.Chemscore.Hbonds>
donor molecule, donor type, donor heavy atom, donor atom, acceptor molecule, acceptor atom, score
      L1  H    13    14       P1  8028  1.00
      P1  H  7989  7998       L1    12  0.01
      P1  H  7997  8010       L1     9  2.00
      P1  H  8011  8017       L1    12  0.20
      P1  H 10752 10763       L1    10  1.79

> <Gold.PLP.Chemscore.Internal.Correction>
0.0003

> <Gold.Rescore>
     Score         DG    S(hbond)    S(metal)    S(lipo)     H(rot)  DE(clash)    DE(int)     intcor
     13.25     -13.36       2.87        0.00      22.26       1.68       0.00       0.11       ----

> <Gold.Chemscore.Fitness>
13.2504

> <Gold.Chemscore.DG>
-13.3574

> <Gold.Chemscore.ZeroCoef>
-5.4800

> <Gold.Chemscore.Hbond>
2.8668

> <Gold.Chemscore.Metal>
0.0000

> <Gold.Chemscore.Lipo>
22.2611

> <Gold.Chemscore.Internal_Hbond>
0.0000

> <Gold.Chemscore.DEClash>
0.0000

> <Gold.Chemscore.DEInternal>
0.1070

> <Gold.Chemscore.Rot>
1.6806

> <Gold.Chemscore.Internal.Correction>
   9.000000E+99

> <Gold.Chemscore.Hbonds>
donor molecule, donor type, donor heavy atom, donor atom, acceptor molecule, acceptor atom, score
      L1  H    13    14       P1  8028  0.99
      P1  H  7997  8010       L1     9  1.00
      P1  H  8011  8017       L1    12  0.20
      P1  H 10752 10763       L1    10  0.86

> <Gold.Chemscore.Hbond.Weighted>
-9.5750

> <Gold.Chemscore.Metal.Weighted>
-0.0000

> <Gold.Chemscore.Lipo.Weighted>
-2.6046

> <Gold.Chemscore.Internal_Hbond.Weighted>
0.0000

> <Gold.Chemscore.DEClash.Weighted>
0.0000

> <Gold.Chemscore.DEInternal.Weighted>
0.1070

> <Gold.Chemscore.Rot.Weighted>
4.3022

> <Gold.Chemscore.Internal.Correction.Weighted>
   9.000000E+99

> <Gold.Protein.RotatedTorsions>
[ 6907 6896 6895 6894 ] final   40.32 input  -60.11 | X-H torsion
[ 7974 7965 7964 7962 ] final    5.91 input  175.53 | X-H torsion
[ 8008 7997 7996 7995 ] final  104.03 input   59.86 | X-H torsion
[ 10167 10162 10161 10158 ] final   70.63 input  -65.29 | X-H torsion
[ 10718 10713 10712 10709 ] final  175.28 input   66.30 | X-H torsion
[ 10763 10752 10751 10750 ] final   29.44 input  -60.55 | X-H torsion
[ 11005 11000 10999 10996 ] final  -77.88 input  -57.11 | X-H torsion

> <Gold.Protein.ActiveResidues>
 VAL166  LYS551  ARG553  GLY616  TRP617  ASP618  TYR619  PRO620  LYS621  CYS622 
 ASP623  PHE694  ASN695  SER759  ASP760  ASP761  ALA762  ILE779  LEU786  VAL792 
 PHE793  MET794  SER795  GLU796  ALA797  LYS798  CYS799  TRP800  GLU811  SER814 

> <Gold.Protein.RotatedAtoms>
  152.1810  134.8754  160.0526 H   0  0  0  0  0  0  0  0  0  0  0  0  # atno 6907 bound_to 6896
  151.9678  133.3711  159.4068 H   0  0  0  0  0  0  0  0  0  0  0  0  # atno 6908 bound_to 6896
  150.6917  134.4095  159.5199 H   0  0  0  0  0  0  0  0  0  0  0  0  # atno 6909 bound_to 6896
  146.2438  140.0313  142.8389 H   0  0  0  0  0  0  0  0  0  0  0  0  # atno 7974 bound_to 7965
  156.1537  140.3154  155.8690 H   0  0  0  0  0  0  0  0  0  0  0  0  # atno 8008 bound_to 7997
  155.3921  140.0494  157.3057 H   0  0  0  0  0  0  0  0  0  0  0  0  # atno 8009 bound_to 7997
  154.5082  140.2154  155.9221 H   0  0  0  0  0  0  0  0  0  0  0  0  # atno 8010 bound_to 7997
  140.0548  144.5282  150.7337 H   0  0  0  0  0  0  0  0  0  0  0  0  # atno 10167 bound_to 10162
  156.9371  130.9989  151.2976 H   0  0  0  0  0  0  0  0  0  0  0  0  # atno 10718 bound_to 10713
  153.0430  135.6489  154.0891 H   0  0  0  0  0  0  0  0  0  0  0  0  # atno 10763 bound_to 10752
  154.0593  135.2889  155.3329 H   0  0  0  0  0  0  0  0  0  0  0  0  # atno 10764 bound_to 10752
  154.6668  135.5371  153.8152 H   0  0  0  0  0  0  0  0  0  0  0  0  # atno 10765 bound_to 10752
  141.1662  133.7040  156.7887 H   0  0  0  0  0  0  0  0  0  0  0  0  # atno 11005 bound_to 11000
  145.1152  140.9429  143.4633 LP  0  0  0  0  0  0  0  0  0  0  0  0  # atno 17320 bound_to 7965
  145.0536  139.3161  143.5916 LP  0  0  0  0  0  0  0  0  0  0  0  0  # atno 17321 bound_to 7965
  140.7200  143.2579  151.4311 LP  0  0  0  0  0  0  0  0  0  0  0  0  # atno 17342 bound_to 10162
  139.5930  144.1458  152.2111 LP  0  0  0  0  0  0  0  0  0  0  0  0  # atno 17343 bound_to 10162
  157.5809  130.8375  149.8521 LP  0  0  0  0  0  0  0  0  0  0  0  0  # atno 17370 bound_to 10713
  156.0421  130.3736  150.1410 LP  0  0  0  0  0  0  0  0  0  0  0  0  # atno 17371 bound_to 10713
  140.2341  134.8663  157.3507 LP  0  0  0  0  0  0  0  0  0  0  0  0  # atno 17394 bound_to 11000
  140.1861  134.4429  155.7743 LP  0  0  0  0  0  0  0  0  0  0  0  0  # atno 17395 bound_to 11000

$$$$
