AV-unprocessed.smi:3330|AV-procd|sdf|12814|dock4
  -GOLD-   2272019183D 1   1.00000     0.00000
 Structure written by MMmdl.
 37 38  0  0  0  0  0  0  0  0  2 V2000
  147.9284  132.9917  152.8139 C   0  0  0  0  0  0  0  0  0  0  0  0
  146.9306  134.1101  153.1675 C   0  0  1  0  0  0  0  0  0  0  0  0
  147.6925  135.1674  153.8227 N   0  0  0  0  0  0  0  0  0  0  0  0
  148.4420  134.6522  154.9575 C   0  0  0  0  0  0  0  0  0  0  0  0
  149.9077  134.4413  154.5521 C   0  0  0  0  0  0  0  0  0  0  0  0
  150.5472  133.4338  155.4023 N   0  0  0  0  0  0  0  0  0  0  0  0
  150.1754  132.1513  155.4576 C   0  0  0  0  0  0  0  0  0  0  0  0
  149.2626  131.6003  154.8418 O   0  0  0  0  0  0  0  0  0  0  0  0
  151.0979  131.4518  156.4283 C   0  0  0  0  0  0  0  0  0  0  0  0
  151.9797  132.5202  156.8413 N   0  5  0  0  0  0  0  0  0  0  0  0
  151.6079  133.6542  156.2025 C   0  0  0  0  0  0  0  0  0  0  0  0
  152.1377  134.7605  156.3005 O   0  0  0  0  0  0  0  0  0  0  0  0
  146.1875  134.6906  151.9343 C   0  0  2  0  0  0  0  0  0  0  0  0
  145.2851  135.8891  152.2814 C   0  0  0  0  0  0  0  0  0  0  0  0
  145.4000  133.6694  151.2550 N   0  0  0  0  0  0  0  0  0  0  0  0
  145.8255  132.4736  150.7114 C   0  0  0  0  0  0  0  0  0  0  0  0
  144.7307  131.8517  150.1833 C   0  0  0  0  0  0  0  0  0  0  0  0
  143.6663  132.7555  150.4544 C   0  0  0  0  0  0  0  0  0  0  0  0
  144.0688  133.8403  151.0959 N   0  0  0  0  0  0  0  0  0  0  0  0
  147.4249  132.1195  152.3971 H   0  0  0  0  0  0  0  0  0  0  0  0
  148.4688  132.6529  153.6985 H   0  0  0  0  0  0  0  0  0  0  0  0
  148.6638  133.3310  152.0833 H   0  0  0  0  0  0  0  0  0  0  0  0
  146.1972  133.6883  153.8572 H   0  0  0  0  0  0  0  0  0  0  0  0
  148.3372  135.5792  153.1633 H   0  0  0  0  0  0  0  0  0  0  0  0
  148.3817  135.3505  155.7929 H   0  0  0  0  0  0  0  0  0  0  0  0
  148.0020  133.7094  155.2861 H   0  0  0  0  0  0  0  0  0  0  0  0
  149.9706  134.1391  153.5053 H   0  0  0  0  0  0  0  0  0  0  0  0
  150.4535  135.3842  154.6213 H   0  0  0  0  0  0  0  0  0  0  0  0
  150.5195  131.0285  157.2501 H   0  0  0  0  0  0  0  0  0  0  0  0
  151.6167  130.6351  155.9250 H   0  0  0  0  0  0  0  0  0  0  0  0
  146.9392  135.0439  151.2254 H   0  0  0  0  0  0  0  0  0  0  0  0
  145.8670  136.7284  152.6622 H   0  0  0  0  0  0  0  0  0  0  0  0
  144.5451  135.6267  153.0381 H   0  0  0  0  0  0  0  0  0  0  0  0
  144.7493  136.2439  151.4004 H   0  0  0  0  0  0  0  0  0  0  0  0
  146.8612  132.1696  150.7451 H   0  0  0  0  0  0  0  0  0  0  0  0
  144.6961  130.8971  149.6796 H   0  0  0  0  0  0  0  0  0  0  0  0
  142.6198  132.6563  150.2065 H   0  0  0  0  0  0  0  0  0  0  0  0
  1  2  1  0  0  0  0
  1 20  1  0  0  0  0
  1 21  1  0  0  0  0
  1 22  1  0  0  0  0
  2  3  1  0  0  0  0
  2 13  1  0  0  0  0
  2 23  1  0  0  0  0
  3  4  1  0  0  0  0
  3 24  1  0  0  0  0
  4  5  1  0  0  0  0
  4 25  1  0  0  0  0
  4 26  1  0  0  0  0
  5  6  1  0  0  0  0
  5 27  1  0  0  0  0
  5 28  1  0  0  0  0
  6 11  1  0  0  0  0
  6  7  1  0  0  0  0
  7  8  2  0  0  0  0
  7  9  1  0  0  0  0
  9 10  1  0  0  0  0
  9 29  1  0  0  0  0
  9 30  1  0  0  0  0
 10 11  1  0  0  0  0
 11 12  2  0  0  0  0
 13 14  1  0  0  0  0
 13 15  1  0  0  0  0
 13 31  1  0  0  0  0
 14 32  1  0  0  0  0
 14 33  1  0  0  0  0
 14 34  1  0  0  0  0
 15 19  1  0  0  0  0
 15 16  1  0  0  0  0
 16 17  2  0  0  0  0
 16 35  1  0  0  0  0
 17 18  1  0  0  0  0
 17 36  1  0  0  0  0
 18 19  2  0  0  0  0
 18 37  1  0  0  0  0
M  CHG  1  10  -1
M  END
> <s_m_source_file>
AV-unprocessed.smi

> <i_m_source_file_index>
3330

> <i_lp_mmshare_version>
43012

> <i_f3d_flags>
0

> <s_epik_input>
bjFbY0hdW2NIXVtjSF1uMVtDQEBIXShbQ0gzXSlbQ0BIXShbQ0gzXSlbTkhdW0NIMl1bQ0gyXU4yQyg9TylbQ0gyXVtOSF1DMj1P

> <s_epik_cmdline>
J2VwaWtfcHl0aG9uJywgJy1waCcsICc3LjAnLCAnLXRuJywgJzgnLCAnLW1hJywgJzIwMCcsICctbWV0YWxfYmluZGluZycsICctaW1hZScsICc8aW5maWxlLm1hZT4nLCAnLW9tYWUnLCAnPG91dGZpbGUubWFlPic=

> <r_lp_tautomer_probability>
1

> <r_epik_Ionization_Penalty>
8.77477

> <r_epik_Ionization_Penalty_Charging>
6.28461

> <r_epik_Ionization_Penalty_Neutral>
2.49016

> <r_epik_State_Penalty>
8.73376

> <r_epik_Charging_Adjusted_Penalty>
15.0184

> <i_epik_Tot_Q>
-1

> <i_epik_Tot_abs_Q>
1

> <r_epik_Metal_State_Penalty>
4.73175

> <b_epik_Metal_Only>
1

> <s_lp_Force_Field>
OPLS_2005

> <r_lp_Energy>
21.213

> <b_lp_Chiralities_Consistent>
1

> <s_lp_Variant>
AV-unprocessed.smi:3330-14

> <Gold.Version>
5.8.1

> <Gold.Id.Protein>
6NUR|6NUR_protein|mol2

> <Gold.PLP.Fitness>
48.0169

> <Gold.PLP.PLP>
-31.4089

> <Gold.PLP.part.hbond>
-2.9623

> <Gold.PLP.part.metal>
0.0000

> <Gold.PLP.part.buried>
-3.3373

> <Gold.PLP.part.nonpolar>
-25.2099

> <Gold.PLP.part.repulsive>
0.1582

> <Gold.PLP.ligand.clash>
0.0000

> <Gold.PLP.ligand.torsion>
0.4640

> <Gold.PLP.Chemscore.Hbond>
3.8240

> <Gold.PLP.Chemscore.CHOScore>
1.9854

> <Gold.PLP.Chemscore.Metal>
0.0000

> <Gold.Chemscore.Hbonds>
donor molecule, donor type, donor heavy atom, donor atom, acceptor molecule, acceptor atom, score
      L1  H     3    24       P1  7948  1.00
      P1  H 10752 10765       L1    12  0.85
      L1  C    16    35       P1 10747  1.00
      L1  C    18    37       P1 10186  0.99

> <Gold.PLP.Chemscore.Internal.Correction>
0.1078

> <Gold.Rescore>
     Score         DG    S(hbond)    S(metal)    S(lipo)     H(rot)  DE(clash)    DE(int)     intcor
     13.29     -13.91       2.48        0.00      56.45       2.52       0.01       0.61       ----

> <Gold.Chemscore.Fitness>
13.2861

> <Gold.Chemscore.DG>
-13.9129

> <Gold.Chemscore.ZeroCoef>
-5.4800

> <Gold.Chemscore.Hbond>
2.4758

> <Gold.Chemscore.Metal>
0.0000

> <Gold.Chemscore.Lipo>
56.4520

> <Gold.Chemscore.Internal_Hbond>
0.0000

> <Gold.Chemscore.DEClash>
0.0136

> <Gold.Chemscore.DEInternal>
0.6132

> <Gold.Chemscore.Rot>
2.5160

> <Gold.Chemscore.Internal.Correction>
   9.000000E+99

> <Gold.Chemscore.Hbonds>
donor molecule, donor type, donor heavy atom, donor atom, acceptor molecule, acceptor atom, score
      L1  H     3    24       P1  7948  0.97
      P1  H 10752 10765       L1    12  0.84

> <Gold.Chemscore.Hbond.Weighted>
-8.2691

> <Gold.Chemscore.Metal.Weighted>
-0.0000

> <Gold.Chemscore.Lipo.Weighted>
-6.6049

> <Gold.Chemscore.Internal_Hbond.Weighted>
0.0000

> <Gold.Chemscore.DEClash.Weighted>
0.0136

> <Gold.Chemscore.DEInternal.Weighted>
0.6132

> <Gold.Chemscore.Rot.Weighted>
6.4410

> <Gold.Chemscore.Internal.Correction.Weighted>
   9.000000E+99

> <Gold.Protein.RotatedTorsions>
[ 6907 6896 6895 6894 ] final -169.40 input  -60.11 | X-H torsion
[ 7974 7965 7964 7962 ] final   52.08 input  175.53 | X-H torsion
[ 8008 7997 7996 7995 ] final  127.68 input   59.86 | X-H torsion
[ 10167 10162 10161 10158 ] final    3.75 input  -65.29 | X-H torsion
[ 10718 10713 10712 10709 ] final  161.87 input   66.30 | X-H torsion
[ 10763 10752 10751 10750 ] final -143.49 input  -60.55 | X-H torsion
[ 11005 11000 10999 10996 ] final  111.14 input  -57.11 | X-H torsion

> <Gold.Protein.ActiveResidues>
 VAL166  LYS551  ARG553  GLY616  TRP617  ASP618  TYR619  PRO620  LYS621  CYS622 
 ASP623  PHE694  ASN695  SER759  ASP760  ASP761  ALA762  ILE779  LEU786  VAL792 
 PHE793  MET794  SER795  GLU796  ALA797  LYS798  CYS799  TRP800  GLU811  SER814 

> <Gold.Protein.RotatedAtoms>
  151.4910  133.3525  159.2853 H   0  0  0  0  0  0  0  0  0  0  0  0  # atno 6907 bound_to 6896
  150.8834  134.8231  159.7252 H   0  0  0  0  0  0  0  0  0  0  0  0  # atno 6908 bound_to 6896
  152.4777  134.4811  159.9717 H   0  0  0  0  0  0  0  0  0  0  0  0  # atno 6909 bound_to 6896
  145.9849  139.4279  143.0109 H   0  0  0  0  0  0  0  0  0  0  0  0  # atno 7974 bound_to 7965
  156.2897  140.2663  156.2313 H   0  0  0  0  0  0  0  0  0  0  0  0  # atno 8008 bound_to 7997
  155.0069  140.0387  157.2402 H   0  0  0  0  0  0  0  0  0  0  0  0  # atno 8009 bound_to 7997
  154.7552  140.2750  155.6264 H   0  0  0  0  0  0  0  0  0  0  0  0  # atno 8010 bound_to 7997
  140.6570  143.7402  150.7671 H   0  0  0  0  0  0  0  0  0  0  0  0  # atno 10167 bound_to 10162
  157.1304  131.0515  151.2374 H   0  0  0  0  0  0  0  0  0  0  0  0  # atno 10718 bound_to 10713
  154.8468  135.3466  154.6195 H   0  0  0  0  0  0  0  0  0  0  0  0  # atno 10763 bound_to 10752
  153.6804  135.6980  153.5124 H   0  0  0  0  0  0  0  0  0  0  0  0  # atno 10764 bound_to 10752
  153.2673  135.4304  155.0909 H   0  0  0  0  0  0  0  0  0  0  0  0  # atno 10765 bound_to 10752
  139.8897  134.9501  156.6386 H   0  0  0  0  0  0  0  0  0  0  0  0  # atno 11005 bound_to 11000
  145.7715  140.9894  143.1147 LP  0  0  0  0  0  0  0  0  0  0  0  0  # atno 17320 bound_to 7965
  144.6872  139.9453  143.7476 LP  0  0  0  0  0  0  0  0  0  0  0  0  # atno 17321 bound_to 7965
  140.1064  143.4740  152.2396 LP  0  0  0  0  0  0  0  0  0  0  0  0  # atno 17342 bound_to 10162
  139.5795  144.7503  151.3678 LP  0  0  0  0  0  0  0  0  0  0  0  0  # atno 17343 bound_to 10162
  157.4397  130.7537  149.7059 LP  0  0  0  0  0  0  0  0  0  0  0  0  # atno 17370 bound_to 10713
  155.9809  130.4025  150.3502 LP  0  0  0  0  0  0  0  0  0  0  0  0  # atno 17371 bound_to 10713
  140.7611  133.8817  155.8419 LP  0  0  0  0  0  0  0  0  0  0  0  0  # atno 17394 bound_to 11000
  140.9921  134.1264  157.4398 LP  0  0  0  0  0  0  0  0  0  0  0  0  # atno 17395 bound_to 11000

$$$$
