AV-unprocessed.smi:2019|AV-procd|sdf|8171|dock7
  -GOLD-   2272010423D 1   1.00000     0.00000
 Structure written by MMmdl.
 36 37  0  0  0  0  0  0  0  0  1 V2000
  151.5839  141.0318  157.4439 O   0  0  0  0  0  0  0  0  0  0  0  0
  151.0636  142.1423  157.3291 C   0  0  0  0  0  0  0  0  0  0  0  0
  151.7580  143.3966  157.8771 C   0  0  0  0  0  0  0  0  0  0  0  0
  152.1132  143.2866  159.3017 N   0  0  0  0  0  0  0  0  0  0  0  0
  152.8405  142.1460  159.6966 C   0  0  0  0  0  0  0  0  0  0  0  0
  153.2136  141.9477  160.9708 C   0  0  0  0  0  0  0  0  0  0  0  0
  152.8504  142.9433  161.9513 C   0  0  0  0  0  0  0  0  0  0  0  0
  152.1523  144.0365  161.5849 C   0  0  0  0  0  0  0  0  0  0  0  0
  151.7408  144.2566  160.1935 C   0  0  0  0  0  0  0  0  0  0  0  0
  151.1026  145.2520  159.8505 O   0  0  0  0  0  0  0  0  0  0  0  0
  149.8864  142.3426  156.7154 N   0  0  0  0  0  0  0  0  0  0  0  0
  149.0392  141.2962  156.1385 C   0  0  2  0  0  0  0  0  0  0  0  0
  148.4485  141.8479  154.8205 C   0  0  0  0  0  0  0  0  0  0  0  0
  147.9930  140.7545  153.8385 C   0  0  0  0  0  0  0  0  0  0  0  0
  146.8174  139.8939  154.3262 C   0  0  0  0  0  0  0  0  0  0  0  0
  147.1302  139.0821  155.5947 C   0  0  0  0  0  0  0  0  0  0  0  0
  147.0819  139.9034  156.7973 N   0  0  0  0  0  0  0  0  0  0  0  0
  147.8837  140.9352  157.1019 C   0  0  0  0  0  0  0  0  0  0  0  0
  147.6961  141.5844  158.1310 O   0  0  0  0  0  0  0  0  0  0  0  0
  152.6468  143.5821  157.2725 H   0  0  0  0  0  0  0  0  0  0  0  0
  151.1184  144.2673  157.7191 H   0  0  0  0  0  0  0  0  0  0  0  0
  153.0662  141.4465  158.9049 H   0  0  0  0  0  0  0  0  0  0  0  0
  153.7673  141.0652  161.2554 H   0  0  0  0  0  0  0  0  0  0  0  0
  153.1388  142.8098  162.9837 H   0  0  0  0  0  0  0  0  0  0  0  0
  151.8882  144.7703  162.3323 H   0  0  0  0  0  0  0  0  0  0  0  0
  149.5326  143.2871  156.6706 H   0  0  0  0  0  0  0  0  0  0  0  0
  149.6493  140.4138  155.9366 H   0  0  0  0  0  0  0  0  0  0  0  0
  147.6299  142.5425  155.0187 H   0  0  0  0  0  0  0  0  0  0  0  0
  149.2110  142.4367  154.3082 H   0  0  0  0  0  0  0  0  0  0  0  0
  147.7073  141.2295  152.8994 H   0  0  0  0  0  0  0  0  0  0  0  0
  148.8390  140.1091  153.5978 H   0  0  0  0  0  0  0  0  0  0  0  0
  145.9344  140.5149  154.4840 H   0  0  0  0  0  0  0  0  0  0  0  0
  146.5539  139.1987  153.5286 H   0  0  0  0  0  0  0  0  0  0  0  0
  146.3813  138.2984  155.7119 H   0  0  0  0  0  0  0  0  0  0  0  0
  148.0934  138.5764  155.5138 H   0  0  0  0  0  0  0  0  0  0  0  0
  146.3456  139.6878  157.4540 H   0  0  0  0  0  0  0  0  0  0  0  0
  1  2  2  0  0  0  0
  2  3  1  0  0  0  0
  2 11  1  0  0  0  0
  3  4  1  0  0  0  0
  3 20  1  0  0  0  0
  3 21  1  0  0  0  0
  4  9  1  0  0  0  0
  4  5  1  0  0  0  0
  5  6  2  0  0  0  0
  5 22  1  0  0  0  0
  6  7  1  0  0  0  0
  6 23  1  0  0  0  0
  7  8  2  0  0  0  0
  7 24  1  0  0  0  0
  8  9  1  0  0  0  0
  8 25  1  0  0  0  0
  9 10  2  0  0  0  0
 11 12  1  0  0  0  0
 11 26  1  0  0  0  0
 12 18  1  0  0  0  0
 12 13  1  0  0  0  0
 12 27  1  0  0  0  0
 13 14  1  0  0  0  0
 13 28  1  0  0  0  0
 13 29  1  0  0  0  0
 14 15  1  0  0  0  0
 14 30  1  0  0  0  0
 14 31  1  0  0  0  0
 15 16  1  0  0  0  0
 15 32  1  0  0  0  0
 15 33  1  0  0  0  0
 16 17  1  0  0  0  0
 16 34  1  0  0  0  0
 16 35  1  0  0  0  0
 17 18  1  0  0  0  0
 17 36  1  0  0  0  0
 18 19  2  0  0  0  0
M  END
> <s_m_source_file>
AV-unprocessed.smi

> <i_m_source_file_index>
2019

> <i_lp_mmshare_version>
43012

> <i_f3d_flags>
0

> <s_epik_input>
Tz1jMVtjSF1bY0hdW2NIXVtjSF1uMVtDSDJdQyg9TylbTkhdW0NAQEhdMltDSDJdW0NIMl1bQ0gyXVtDSDJdW05IXUMyPU8=

> <s_epik_cmdline>
J2VwaWtfcHl0aG9uJywgJy1waCcsICc3LjAnLCAnLXRuJywgJzgnLCAnLW1hJywgJzIwMCcsICctbWV0YWxfYmluZGluZycsICctaW1hZScsICc8aW5maWxlLm1hZT4nLCAnLW9tYWUnLCAnPG91dGZpbGUubWFlPic=

> <r_lp_tautomer_probability>
1

> <r_epik_Ionization_Penalty>
3.70786e-07

> <r_epik_Ionization_Penalty_Charging>
3.17464e-07

> <r_epik_Ionization_Penalty_Neutral>
5.33217e-08

> <r_epik_State_Penalty>
-0

> <r_epik_Charging_Adjusted_Penalty>
3.17464e-07

> <i_epik_Tot_Q>
0

> <i_epik_Tot_abs_Q>
0

> <r_epik_Metal_State_Penalty>
-0

> <b_epik_Metal_Only>
0

> <s_lp_Force_Field>
OPLS_2005

> <r_lp_Energy>
20.44

> <b_lp_Chiralities_Consistent>
1

> <s_lp_Variant>
AV-unprocessed.smi:2019-1

> <Gold.Version>
5.8.1

> <Gold.Id.Protein>
6NUR|6NUR_protein|mol2

> <Gold.PLP.Fitness>
41.5012

> <Gold.PLP.PLP>
-39.3108

> <Gold.PLP.part.hbond>
-1.3030

> <Gold.PLP.part.metal>
0.0000

> <Gold.PLP.part.buried>
-4.2173

> <Gold.PLP.part.nonpolar>
-33.5183

> <Gold.PLP.part.repulsive>
0.3152

> <Gold.PLP.ligand.clash>
0.0000

> <Gold.PLP.ligand.torsion>
0.3933

> <Gold.PLP.Chemscore.Hbond>
0.9920

> <Gold.PLP.Chemscore.CHOScore>
0.0000

> <Gold.PLP.Chemscore.Metal>
0.0000

> <Gold.Chemscore.Hbonds>
donor molecule, donor type, donor heavy atom, donor atom, acceptor molecule, acceptor atom, score
      L1  H    11    26       P1  8028  1.00

> <Gold.PLP.Chemscore.Internal.Correction>
0.0010

> <Gold.Rescore>
     Score         DG    S(hbond)    S(metal)    S(lipo)     H(rot)  DE(clash)    DE(int)     intcor
     12.72     -14.22       0.98        0.00      81.71       1.59       0.00       1.49       ----

> <Gold.Chemscore.Fitness>
12.7209

> <Gold.Chemscore.DG>
-14.2171

> <Gold.Chemscore.ZeroCoef>
-5.4800

> <Gold.Chemscore.Hbond>
0.9752

> <Gold.Chemscore.Metal>
0.0000

> <Gold.Chemscore.Lipo>
81.7121

> <Gold.Chemscore.Internal_Hbond>
0.0000

> <Gold.Chemscore.DEClash>
0.0038

> <Gold.Chemscore.DEInternal>
1.4924

> <Gold.Chemscore.Rot>
1.5939

> <Gold.Chemscore.Internal.Correction>
   9.000000E+99

> <Gold.Chemscore.Hbonds>
donor molecule, donor type, donor heavy atom, donor atom, acceptor molecule, acceptor atom, score
      L1  H    11    26       P1  8028  0.94

> <Gold.Chemscore.Hbond.Weighted>
-3.2572

> <Gold.Chemscore.Metal.Weighted>
-0.0000

> <Gold.Chemscore.Lipo.Weighted>
-9.5603

> <Gold.Chemscore.Internal_Hbond.Weighted>
0.0000

> <Gold.Chemscore.DEClash.Weighted>
0.0038

> <Gold.Chemscore.DEInternal.Weighted>
1.4924

> <Gold.Chemscore.Rot.Weighted>
4.0804

> <Gold.Chemscore.Internal.Correction.Weighted>
   9.000000E+99

> <Gold.Protein.RotatedTorsions>
[ 6907 6896 6895 6894 ] final -133.42 input  -60.11 | X-H torsion
[ 7974 7965 7964 7962 ] final  123.72 input  175.53 | X-H torsion
[ 8008 7997 7996 7995 ] final -161.28 input   59.86 | X-H torsion
[ 10167 10162 10161 10158 ] final -152.96 input  -65.29 | X-H torsion
[ 10718 10713 10712 10709 ] final -176.16 input   66.30 | X-H torsion
[ 10763 10752 10751 10750 ] final -170.17 input  -60.55 | X-H torsion
[ 11005 11000 10999 10996 ] final  152.45 input  -57.11 | X-H torsion

> <Gold.Protein.ActiveResidues>
 VAL166  LYS551  ARG553  GLY616  TRP617  ASP618  TYR619  PRO620  LYS621  CYS622 
 ASP623  PHE694  ASN695  SER759  ASP760  ASP761  ALA762  ILE779  LEU786  VAL792 
 PHE793  MET794  SER795  GLU796  ALA797  LYS798  CYS799  TRP800  GLU811  SER814 

> <Gold.Protein.RotatedAtoms>
  150.9738  133.6316  159.2733 H   0  0  0  0  0  0  0  0  0  0  0  0  # atno 6907 bound_to 6896
  151.3595  135.0900  159.9439 H   0  0  0  0  0  0  0  0  0  0  0  0  # atno 6908 bound_to 6896
  152.5192  133.9314  159.7637 H   0  0  0  0  0  0  0  0  0  0  0  0  # atno 6909 bound_to 6896
  145.0926  139.3575  143.4853 H   0  0  0  0  0  0  0  0  0  0  0  0  # atno 7974 bound_to 7965
  155.7898  140.0877  157.2015 H   0  0  0  0  0  0  0  0  0  0  0  0  # atno 8008 bound_to 7997
  154.3986  140.1492  156.3208 H   0  0  0  0  0  0  0  0  0  0  0  0  # atno 8009 bound_to 7997
  155.8570  140.3432  155.5733 H   0  0  0  0  0  0  0  0  0  0  0  0  # atno 8010 bound_to 7997
  139.7137  143.9067  152.2478 H   0  0  0  0  0  0  0  0  0  0  0  0  # atno 10167 bound_to 10162
  156.8106  130.9584  151.3116 H   0  0  0  0  0  0  0  0  0  0  0  0  # atno 10718 bound_to 10713
  154.6444  135.2903  155.0064 H   0  0  0  0  0  0  0  0  0  0  0  0  # atno 10763 bound_to 10752
  154.1180  135.6552  153.4901 H   0  0  0  0  0  0  0  0  0  0  0  0  # atno 10764 bound_to 10752
  153.0343  135.5281  154.7324 H   0  0  0  0  0  0  0  0  0  0  0  0  # atno 10765 bound_to 10752
  140.1309  134.8802  157.2202 H   0  0  0  0  0  0  0  0  0  0  0  0  # atno 11005 bound_to 11000
  146.3531  140.0768  142.8620 LP  0  0  0  0  0  0  0  0  0  0  0  0  # atno 17320 bound_to 7965
  145.1048  140.9368  143.4691 LP  0  0  0  0  0  0  0  0  0  0  0  0  # atno 17321 bound_to 7965
  139.8944  144.6947  150.8735 LP  0  0  0  0  0  0  0  0  0  0  0  0  # atno 17342 bound_to 10162
  140.7739  143.3562  151.1917 LP  0  0  0  0  0  0  0  0  0  0  0  0  # atno 17343 bound_to 10162
  157.6508  130.8883  149.9629 LP  0  0  0  0  0  0  0  0  0  0  0  0  # atno 17370 bound_to 10713
  156.1047  130.3653  150.0155 LP  0  0  0  0  0  0  0  0  0  0  0  0  # atno 17371 bound_to 10713
  140.2844  134.3313  155.7333 LP  0  0  0  0  0  0  0  0  0  0  0  0  # atno 17394 bound_to 11000
  141.2170  133.7497  156.9411 LP  0  0  0  0  0  0  0  0  0  0  0  0  # atno 17395 bound_to 11000

$$$$
