AV-unprocessed.smi:2328|AV-procd|sdf|9300|dock6
  -GOLD-   2272012523D 1   1.00000     0.00000
 Structure written by MMmdl.
 40 40  0  0  0  0  0  0  0  0  1 V2000
  147.8367  138.6263  156.7063 C   0  0  0  0  0  0  0  0  0  0  0  0
  148.7319  139.8684  156.8695 C   0  0  0  0  0  0  0  0  0  0  0  0
  148.7877  140.8469  155.6467 C   0  0  1  0  0  0  0  0  0  0  0  0
  149.6049  142.0333  155.9872 N   0  0  0  0  0  0  0  0  0  0  0  0
  150.7820  142.1952  156.6281 C   0  0  0  0  0  0  0  0  0  0  0  0
  151.3800  141.2083  157.0538 O   0  0  0  0  0  0  0  0  0  0  0  0
  151.3953  143.5922  156.8344 C   0  0  0  0  0  0  0  0  0  0  0  0
  151.6256  143.8880  158.3069 C   0  0  0  0  0  0  0  0  0  0  0  0
  152.5938  143.1799  159.0488 C   0  0  0  0  0  0  0  0  0  0  0  0
  152.7638  143.4901  160.4118 C   0  0  0  0  0  0  0  0  0  0  0  0
  151.9571  144.4985  160.9758 C   0  0  0  0  0  0  0  0  0  0  0  0
  151.0287  145.1845  160.2750 N   0  0  0  0  0  0  0  0  0  0  0  0
  150.8717  144.8806  158.9689 C   0  0  0  0  0  0  0  0  0  0  0  0
  149.3584  140.0981  154.4050 C   0  0  0  0  0  0  0  0  0  0  0  0
  148.5456  139.8557  153.3696 N   0  0  0  0  0  0  0  0  0  0  0  0
  150.5351  139.7415  154.3754 O   0  0  0  0  0  0  0  0  0  0  0  0
  147.3464  141.3896  155.3124 C   0  0  0  0  0  0  0  0  0  0  0  0
  147.2806  142.4496  154.1897 C   0  0  0  0  0  0  0  0  0  0  0  0
  146.5633  141.9157  156.5387 C   0  0  0  0  0  0  0  0  0  0  0  0
  147.8404  138.0345  157.6218 H   0  0  0  0  0  0  0  0  0  0  0  0
  148.1863  137.9765  155.9052 H   0  0  0  0  0  0  0  0  0  0  0  0
  146.8006  138.8927  156.4990 H   0  0  0  0  0  0  0  0  0  0  0  0
  148.4048  140.3955  157.7638 H   0  0  0  0  0  0  0  0  0  0  0  0
  149.7329  139.5277  157.1309 H   0  0  0  0  0  0  0  0  0  0  0  0
  149.1818  142.9007  155.6912 H   0  0  0  0  0  0  0  0  0  0  0  0
  152.3428  143.6461  156.2976 H   0  0  0  0  0  0  0  0  0  0  0  0
  150.7597  144.3813  156.4402 H   0  0  0  0  0  0  0  0  0  0  0  0
  153.1933  142.4104  158.5848 H   0  0  0  0  0  0  0  0  0  0  0  0
  153.4940  142.9665  161.0112 H   0  0  0  0  0  0  0  0  0  0  0  0
  152.0611  144.7614  162.0181 H   0  0  0  0  0  0  0  0  0  0  0  0
  150.1200  145.4447  158.4364 H   0  0  0  0  0  0  0  0  0  0  0  0
  148.8987  139.3731  152.5560 H   0  0  0  0  0  0  0  0  0  0  0  0
  147.5827  140.1579  153.4053 H   0  0  0  0  0  0  0  0  0  0  0  0
  146.7622  140.5417  154.9550 H   0  0  0  0  0  0  0  0  0  0  0  0
  147.8463  143.3477  154.4368 H   0  0  0  0  0  0  0  0  0  0  0  0
  146.2503  142.7602  154.0142 H   0  0  0  0  0  0  0  0  0  0  0  0
  147.6493  142.0682  153.2386 H   0  0  0  0  0  0  0  0  0  0  0  0
  147.0079  142.8237  156.9460 H   0  0  0  0  0  0  0  0  0  0  0  0
  146.5065  141.1817  157.3421 H   0  0  0  0  0  0  0  0  0  0  0  0
  145.5362  142.1587  156.2649 H   0  0  0  0  0  0  0  0  0  0  0  0
  1  2  1  0  0  0  0
  1 20  1  0  0  0  0
  1 21  1  0  0  0  0
  1 22  1  0  0  0  0
  2  3  1  0  0  0  0
  2 23  1  0  0  0  0
  2 24  1  0  0  0  0
  3  4  1  0  0  0  0
  3 14  1  0  0  0  0
  3 17  1  0  0  0  0
  4  5  1  0  0  0  0
  4 25  1  0  0  0  0
  5  6  2  0  0  0  0
  5  7  1  0  0  0  0
  7  8  1  0  0  0  0
  7 26  1  0  0  0  0
  7 27  1  0  0  0  0
  8 13  1  0  0  0  0
  8  9  2  0  0  0  0
  9 10  1  0  0  0  0
  9 28  1  0  0  0  0
 10 11  2  0  0  0  0
 10 29  1  0  0  0  0
 11 12  1  0  0  0  0
 11 30  1  0  0  0  0
 12 13  2  0  0  0  0
 13 31  1  0  0  0  0
 14 15  1  0  0  0  0
 14 16  2  0  0  0  0
 15 32  1  0  0  0  0
 15 33  1  0  0  0  0
 17 18  1  0  0  0  0
 17 19  1  0  0  0  0
 17 34  1  0  0  0  0
 18 35  1  0  0  0  0
 18 36  1  0  0  0  0
 18 37  1  0  0  0  0
 19 38  1  0  0  0  0
 19 39  1  0  0  0  0
 19 40  1  0  0  0  0
M  END
> <s_m_source_file>
AV-unprocessed.smi

> <i_m_source_file_index>
2328

> <i_lp_mmshare_version>
43012

> <i_f3d_flags>
0

> <s_epik_input>
W0NIM11bQ0gyXVtDQEBdKEMoPU8pW05IMl0pKFtDSF0oW0NIM10pW0NIM10pW05IXUMoPU8pW0NIMl1jMVtjSF1bY0hdW2NIXW5bY0hdMQ==

> <s_epik_cmdline>
J2VwaWtfcHl0aG9uJywgJy1waCcsICc3LjAnLCAnLXRuJywgJzgnLCAnLW1hJywgJzIwMCcsICctbWV0YWxfYmluZGluZycsICctaW1hZScsICc8aW5maWxlLm1hZT4nLCAnLW9tYWUnLCAnPG91dGZpbGUubWFlPic=

> <r_epik_Ionization_Penalty>
0.00378489

> <r_epik_Ionization_Penalty_Charging>
0

> <r_epik_Ionization_Penalty_Neutral>
0.00378489

> <r_epik_State_Penalty>
0.00269972

> <r_epik_Charging_Adjusted_Penalty>
0.00269972

> <i_epik_Tot_Q>
0

> <i_epik_Tot_abs_Q>
0

> <r_epik_Metal_State_Penalty>
-0

> <b_epik_Metal_Only>
0

> <s_lp_Force_Field>
OPLS_2005

> <r_lp_Energy>
14.3821

> <b_lp_Chiralities_Consistent>
1

> <s_lp_Variant>
AV-unprocessed.smi:2328-1

> <Gold.Version>
5.8.1

> <Gold.Id.Protein>
6NUR|6NUR_protein|mol2

> <Gold.PLP.Fitness>
45.4175

> <Gold.PLP.PLP>
-35.6842

> <Gold.PLP.part.hbond>
-2.9087

> <Gold.PLP.part.metal>
0.0000

> <Gold.PLP.part.buried>
-4.0276

> <Gold.PLP.part.nonpolar>
-30.1693

> <Gold.PLP.part.repulsive>
0.5681

> <Gold.PLP.ligand.clash>
0.0000

> <Gold.PLP.ligand.torsion>
0.7197

> <Gold.PLP.Chemscore.Hbond>
2.6720

> <Gold.PLP.Chemscore.CHOScore>
0.9879

> <Gold.PLP.Chemscore.Metal>
0.0000

> <Gold.Chemscore.Hbonds>
donor molecule, donor type, donor heavy atom, donor atom, acceptor molecule, acceptor atom, score
      L1  H     4    25       P1  8028  1.00
      L1  H    15    32       P1  7957  0.58
      P1  H  7989  7998       L1    16  1.00
      L1  C    13    31       P1  8029  0.98

> <Gold.PLP.Chemscore.Internal.Correction>
0.1928

> <Gold.Rescore>
     Score         DG    S(hbond)    S(metal)    S(lipo)     H(rot)  DE(clash)    DE(int)     intcor
     15.80     -19.52       2.75        0.00      91.55       2.29       1.48       2.24       ----

> <Gold.Chemscore.Fitness>
15.7983

> <Gold.Chemscore.DG>
-19.5158

> <Gold.Chemscore.ZeroCoef>
-5.4800

> <Gold.Chemscore.Hbond>
2.7522

> <Gold.Chemscore.Metal>
0.0000

> <Gold.Chemscore.Lipo>
91.5492

> <Gold.Chemscore.Internal_Hbond>
0.0000

> <Gold.Chemscore.DEClash>
1.4811

> <Gold.Chemscore.DEInternal>
2.2365

> <Gold.Chemscore.Rot>
2.2921

> <Gold.Chemscore.Internal.Correction>
   9.000000E+99

> <Gold.Chemscore.Hbonds>
donor molecule, donor type, donor heavy atom, donor atom, acceptor molecule, acceptor atom, score
      L1  H     4    25       P1  8028  0.99
      L1  H    15    32       P1  7957  0.58
      P1  H  7989  7998       L1    16  0.88

> <Gold.Chemscore.Hbond.Weighted>
-9.1923

> <Gold.Chemscore.Metal.Weighted>
-0.0000

> <Gold.Chemscore.Lipo.Weighted>
-10.7113

> <Gold.Chemscore.Internal_Hbond.Weighted>
0.0000

> <Gold.Chemscore.DEClash.Weighted>
1.4811

> <Gold.Chemscore.DEInternal.Weighted>
2.2365

> <Gold.Chemscore.Rot.Weighted>
5.8677

> <Gold.Chemscore.Internal.Correction.Weighted>
   9.000000E+99

> <Gold.Protein.RotatedTorsions>
[ 6907 6896 6895 6894 ] final  130.86 input  -60.11 | X-H torsion
[ 7974 7965 7964 7962 ] final  -50.78 input  175.53 | X-H torsion
[ 8008 7997 7996 7995 ] final  145.77 input   59.86 | X-H torsion
[ 10167 10162 10161 10158 ] final  108.21 input  -65.29 | X-H torsion
[ 10718 10713 10712 10709 ] final  -90.73 input   66.30 | X-H torsion
[ 10763 10752 10751 10750 ] final   73.25 input  -60.55 | X-H torsion
[ 11005 11000 10999 10996 ] final  162.14 input  -57.11 | X-H torsion

> <Gold.Protein.ActiveResidues>
 VAL166  LYS551  ARG553  GLY616  TRP617  ASP618  TYR619  PRO620  LYS621  CYS622 
 ASP623  PHE694  ASN695  SER759  ASP760  ASP761  ALA762  ILE779  LEU786  VAL792 
 PHE793  MET794  SER795  GLU796  ALA797  LYS798  CYS799  TRP800  GLU811  SER814 

> <Gold.Protein.RotatedAtoms>
  152.3484  133.6149  159.5926 H   0  0  0  0  0  0  0  0  0  0  0  0  # atno 6907 bound_to 6896
  150.7522  133.9613  159.3525 H   0  0  0  0  0  0  0  0  0  0  0  0  # atno 6908 bound_to 6896
  151.7468  135.0842  160.0375 H   0  0  0  0  0  0  0  0  0  0  0  0  # atno 6909 bound_to 6896
  145.9261  140.7790  142.9623 H   0  0  0  0  0  0  0  0  0  0  0  0  # atno 7974 bound_to 7965
  156.2874  140.2200  156.5269 H   0  0  0  0  0  0  0  0  0  0  0  0  # atno 8008 bound_to 7997
  154.7482  140.0482  157.0892 H   0  0  0  0  0  0  0  0  0  0  0  0  # atno 8009 bound_to 7997
  155.0144  140.3117  155.4820 H   0  0  0  0  0  0  0  0  0  0  0  0  # atno 8010 bound_to 7997
  139.6865  144.7113  151.1424 H   0  0  0  0  0  0  0  0  0  0  0  0  # atno 10167 bound_to 10162
  155.9989  130.4921  150.5367 H   0  0  0  0  0  0  0  0  0  0  0  0  # atno 10718 bound_to 10713
  153.0509  135.5070  154.7865 H   0  0  0  0  0  0  0  0  0  0  0  0  # atno 10763 bound_to 10752
  154.6728  135.2955  154.9721 H   0  0  0  0  0  0  0  0  0  0  0  0  # atno 10764 bound_to 10752
  154.0534  135.6701  153.4855 H   0  0  0  0  0  0  0  0  0  0  0  0  # atno 10765 bound_to 10752
  140.2227  134.8183  157.3237 H   0  0  0  0  0  0  0  0  0  0  0  0  # atno 11005 bound_to 11000
  144.6759  140.2053  143.7383 LP  0  0  0  0  0  0  0  0  0  0  0  0  # atno 17320 bound_to 7965
  145.8486  139.2164  143.1785 LP  0  0  0  0  0  0  0  0  0  0  0  0  # atno 17321 bound_to 7965
  140.7669  143.5622  150.9086 LP  0  0  0  0  0  0  0  0  0  0  0  0  # atno 17342 bound_to 10162
  139.9297  143.6508  152.3079 LP  0  0  0  0  0  0  0  0  0  0  0  0  # atno 17343 bound_to 10162
  157.3309  131.0699  151.1861 LP  0  0  0  0  0  0  0  0  0  0  0  0  # atno 17370 bound_to 10713
  157.2742  130.6719  149.6034 LP  0  0  0  0  0  0  0  0  0  0  0  0  # atno 17371 bound_to 10713
  140.1832  134.4463  155.7759 LP  0  0  0  0  0  0  0  0  0  0  0  0  # atno 17394 bound_to 11000
  141.2222  133.6993  156.7904 LP  0  0  0  0  0  0  0  0  0  0  0  0  # atno 17395 bound_to 11000

$$$$
