AV-unprocessed.smi:2351|AV-procd|sdf|9374|dock7
  -GOLD-   2272013 03D 1   1.00000     0.00000
 Structure written by MMmdl.
 47 49  0  0  0  0  0  0  0  0  2 V2000
  145.8183  137.5898  155.4666 O   0  0  0  0  0  0  0  0  0  0  0  0
  145.3409  138.6020  154.9533 C   0  0  0  0  0  0  0  0  0  0  0  0
  144.1120  138.6874  154.4185 N   0  0  0  0  0  0  0  0  0  0  0  0
  143.1514  137.6478  154.3230 C   0  0  0  0  0  0  0  0  0  0  0  0
  143.6018  136.3136  154.3972 C   0  0  0  0  0  0  0  0  0  0  0  0
  142.6529  135.2742  154.3256 C   0  0  0  0  0  0  0  0  0  0  0  0
  141.3256  135.4880  154.2042 N   0  0  0  0  0  0  0  0  0  0  0  0
  140.8948  136.7669  154.1595 C   0  0  0  0  0  0  0  0  0  0  0  0
  141.7572  137.8803  154.2246 C   0  0  0  0  0  0  0  0  0  0  0  0
  141.2399  139.1325  154.2232 F   0  0  0  0  0  0  0  0  0  0  0  0
  145.9914  139.7723  154.8796 N   0  0  0  0  0  0  0  0  0  0  0  0
  147.3448  140.0104  155.3728 C   0  0  2  0  0  0  0  0  0  0  0  0
  147.3099  141.0186  156.5318 C   0  0  0  0  0  0  0  0  0  0  0  0
  148.7294  141.3574  157.0170 C   0  0  0  0  0  0  0  0  0  0  0  0
  149.5693  141.8743  155.9056 N   0  3  1  0  0  0  0  0  0  0  0  0
  150.8998  142.3398  156.3746 C   0  0  0  0  0  0  0  0  0  0  0  0
  150.8491  142.9523  157.7883 C   0  0  2  0  0  0  0  0  0  0  0  0
  151.7321  144.1726  157.9546 C   0  0  0  0  0  0  0  0  0  0  0  0
  151.8689  144.2601  159.4718 C   0  0  0  0  0  0  0  0  0  0  0  0
  151.8011  142.9176  159.9444 O   0  0  0  0  0  0  0  0  0  0  0  0
  151.4037  142.0471  158.8898 C   0  0  0  0  0  0  0  0  0  0  0  0
  149.6500  140.8983  154.7864 C   0  0  0  0  0  0  0  0  0  0  0  0
  148.2516  140.5497  154.2513 C   0  0  0  0  0  0  0  0  0  0  0  0
  143.7955  139.6075  154.1500 H   0  0  0  0  0  0  0  0  0  0  0  0
  144.6532  136.0860  154.4961 H   0  0  0  0  0  0  0  0  0  0  0  0
  142.9691  134.2424  154.3693 H   0  0  0  0  0  0  0  0  0  0  0  0
  139.8268  136.9081  154.0836 H   0  0  0  0  0  0  0  0  0  0  0  0
  145.5181  140.5529  154.4482 H   0  0  0  0  0  0  0  0  0  0  0  0
  147.7586  139.0718  155.7470 H   0  0  0  0  0  0  0  0  0  0  0  0
  146.8083  141.9342  156.2140 H   0  0  0  0  0  0  0  0  0  0  0  0
  146.7243  140.6170  157.3597 H   0  0  0  0  0  0  0  0  0  0  0  0
  148.6645  142.1046  157.8088 H   0  0  0  0  0  0  0  0  0  0  0  0
  149.2008  140.4744  157.4517 H   0  0  0  0  0  0  0  0  0  0  0  0
  151.5965  141.5002  156.3896 H   0  0  0  0  0  0  0  0  0  0  0  0
  151.3068  143.0575  155.6606 H   0  0  0  0  0  0  0  0  0  0  0  0
  149.8306  143.2424  158.0472 H   0  0  0  0  0  0  0  0  0  0  0  0
  152.7105  144.0025  157.5025 H   0  0  0  0  0  0  0  0  0  0  0  0
  151.3057  145.0750  157.5152 H   0  0  0  0  0  0  0  0  0  0  0  0
  152.7951  144.7459  159.7794 H   0  0  0  0  0  0  0  0  0  0  0  0
  151.0351  144.8195  159.8979 H   0  0  0  0  0  0  0  0  0  0  0  0
  150.6736  141.3145  159.2349 H   0  0  0  0  0  0  0  0  0  0  0  0
  152.2851  141.5064  158.5419 H   0  0  0  0  0  0  0  0  0  0  0  0
  150.2463  141.3028  153.9697 H   0  0  0  0  0  0  0  0  0  0  0  0
  150.1557  139.9932  155.1262 H   0  0  0  0  0  0  0  0  0  0  0  0
  148.3415  139.8143  153.4508 H   0  0  0  0  0  0  0  0  0  0  0  0
  147.8025  141.4382  153.8047 H   0  0  0  0  0  0  0  0  0  0  0  0
  149.0912  142.6904  155.5512 H   0  0  0  0  0  0  0  0  0  0  0  0
  1  2  2  0  0  0  0
  2  3  1  0  0  0  0
  2 11  1  0  0  0  0
  3  4  1  0  0  0  0
  3 24  1  0  0  0  0
  4  9  1  0  0  0  0
  4  5  2  0  0  0  0
  5  6  1  0  0  0  0
  5 25  1  0  0  0  0
  6  7  2  0  0  0  0
  6 26  1  0  0  0  0
  7  8  1  0  0  0  0
  8  9  2  0  0  0  0
  8 27  1  0  0  0  0
  9 10  1  0  0  0  0
 11 12  1  0  0  0  0
 11 28  1  0  0  0  0
 12 23  1  0  0  0  0
 12 13  1  0  0  0  0
 12 29  1  0  0  0  0
 13 14  1  0  0  0  0
 13 30  1  0  0  0  0
 13 31  1  0  0  0  0
 14 15  1  0  0  0  0
 14 32  1  0  0  0  0
 14 33  1  0  0  0  0
 15 16  1  0  0  0  0
 15 22  1  0  0  0  0
 15 47  1  0  0  0  0
 16 17  1  0  0  0  0
 16 34  1  0  0  0  0
 16 35  1  0  0  0  0
 17 21  1  0  0  0  0
 17 18  1  0  0  0  0
 17 36  1  0  0  0  0
 18 19  1  0  0  0  0
 18 37  1  0  0  0  0
 18 38  1  0  0  0  0
 19 20  1  0  0  0  0
 19 39  1  0  0  0  0
 19 40  1  0  0  0  0
 20 21  1  0  0  0  0
 21 41  1  0  0  0  0
 21 42  1  0  0  0  0
 22 23  1  0  0  0  0
 22 43  1  0  0  0  0
 22 44  1  0  0  0  0
 23 45  1  0  0  0  0
 23 46  1  0  0  0  0
M  CHG  1  15   1
M  END
> <s_m_source_file>
AV-unprocessed.smi

> <i_m_source_file_index>
2351

> <i_lp_mmshare_version>
43012

> <i_f3d_flags>
0

> <s_epik_input>
RmMxW2NIXW5bY0hdW2NIXWMxW05IXUMoPU8pW05IXVtDSF0yW0NIMl1bQ0gyXU4oW0NIMl1bQ0gyXTIpW0NIMl1bQ0BASF0zW0NIMl1bQ0gyXU9bQ0gyXTM=

> <s_epik_cmdline>
J2VwaWtfcHl0aG9uJywgJy1waCcsICc3LjAnLCAnLXRuJywgJzgnLCAnLW1hJywgJzIwMCcsICctbWV0YWxfYmluZGluZycsICctaW1hZScsICc8aW5maWxlLm1hZT4nLCAnLW9tYWUnLCAnPG91dGZpbGUubWFlPic=

> <r_epik_Ionization_Penalty>
0.0102464

> <r_epik_Ionization_Penalty_Charging>
0.00747775

> <r_epik_Ionization_Penalty_Neutral>
0.00276864

> <r_epik_State_Penalty>
0.00558817

> <r_epik_Charging_Adjusted_Penalty>
0.0130659

> <i_epik_Tot_Q>
1

> <i_epik_Tot_abs_Q>
1

> <r_epik_Metal_State_Penalty>
-0

> <b_epik_Metal_Only>
0

> <s_lp_Force_Field>
OPLS_2005

> <r_lp_Energy>
40.2239

> <b_lp_Chiralities_Consistent>
1

> <s_lp_Variant>
AV-unprocessed.smi:2351-1

> <Gold.Version>
5.8.1

> <Gold.Id.Protein>
6NUR|6NUR_protein|mol2

> <Gold.PLP.Fitness>
43.7578

> <Gold.PLP.PLP>
-33.2162

> <Gold.PLP.part.hbond>
-3.0000

> <Gold.PLP.part.metal>
0.0000

> <Gold.PLP.part.buried>
-4.8057

> <Gold.PLP.part.nonpolar>
-26.6218

> <Gold.PLP.part.repulsive>
0.2464

> <Gold.PLP.ligand.clash>
0.0000

> <Gold.PLP.ligand.torsion>
0.9625

> <Gold.PLP.Chemscore.Hbond>
3.1008

> <Gold.PLP.Chemscore.CHOScore>
1.0000

> <Gold.PLP.Chemscore.Metal>
0.0000

> <Gold.Chemscore.Hbonds>
donor molecule, donor type, donor heavy atom, donor atom, acceptor molecule, acceptor atom, score
      L1  H     3    24       P1 10175  0.66
      L1  H    15    47       P1  8028  1.84
      P1  H 11000 11005       L1     7  0.55
      L1  C     6    26       P1 10957  1.00

> <Gold.PLP.Chemscore.Internal.Correction>
0.1642

> <Gold.Rescore>
     Score         DG    S(hbond)    S(metal)    S(lipo)     H(rot)  DE(clash)    DE(int)     intcor
     16.80     -19.24       2.13        0.00      88.32       1.45       0.05       2.38       ----

> <Gold.Chemscore.Fitness>
16.8034

> <Gold.Chemscore.DG>
-19.2364

> <Gold.Chemscore.ZeroCoef>
-5.4800

> <Gold.Chemscore.Hbond>
2.1350

> <Gold.Chemscore.Metal>
0.0000

> <Gold.Chemscore.Lipo>
88.3194

> <Gold.Chemscore.Internal_Hbond>
0.0000

> <Gold.Chemscore.DEClash>
0.0491

> <Gold.Chemscore.DEInternal>
2.3839

> <Gold.Chemscore.Rot>
1.4483

> <Gold.Chemscore.Internal.Correction>
   9.000000E+99

> <Gold.Chemscore.Hbonds>
donor molecule, donor type, donor heavy atom, donor atom, acceptor molecule, acceptor atom, score
      L1  H     3    24       P1 10175  0.66
      L1  H    15    47       P1  8028  0.84
      P1  H 11000 11005       L1     7  0.31

> <Gold.Chemscore.Hbond.Weighted>
-7.1308

> <Gold.Chemscore.Metal.Weighted>
-0.0000

> <Gold.Chemscore.Lipo.Weighted>
-10.3334

> <Gold.Chemscore.Internal_Hbond.Weighted>
0.0000

> <Gold.Chemscore.DEClash.Weighted>
0.0491

> <Gold.Chemscore.DEInternal.Weighted>
2.3839

> <Gold.Chemscore.Rot.Weighted>
3.7077

> <Gold.Chemscore.Internal.Correction.Weighted>
   9.000000E+99

> <Gold.Protein.RotatedTorsions>
[ 6907 6896 6895 6894 ] final  151.56 input  -60.11 | X-H torsion
[ 7974 7965 7964 7962 ] final  -47.77 input  175.53 | X-H torsion
[ 8008 7997 7996 7995 ] final   34.77 input   59.86 | X-H torsion
[ 10167 10162 10161 10158 ] final   66.78 input  -65.29 | X-H torsion
[ 10718 10713 10712 10709 ] final -154.71 input   66.30 | X-H torsion
[ 10763 10752 10751 10750 ] final  -86.25 input  -60.55 | X-H torsion
[ 11005 11000 10999 10996 ] final   33.37 input  -57.11 | X-H torsion

> <Gold.Protein.ActiveResidues>
 VAL166  LYS551  ARG553  GLY616  TRP617  ASP618  TYR619  PRO620  LYS621  CYS622 
 ASP623  PHE694  ASN695  SER759  ASP760  ASP761  ALA762  ILE779  LEU786  VAL792 
 PHE793  MET794  SER795  GLU796  ALA797  LYS798  CYS799  TRP800  GLU811  SER814 

> <Gold.Protein.RotatedAtoms>
  152.0990  133.4239  159.4577 H   0  0  0  0  0  0  0  0  0  0  0  0  # atno 6907 bound_to 6896
  150.6863  134.2783  159.4626 H   0  0  0  0  0  0  0  0  0  0  0  0  # atno 6908 bound_to 6896
  152.0641  134.9575  160.0625 H   0  0  0  0  0  0  0  0  0  0  0  0  # atno 6909 bound_to 6896
  145.9582  140.7506  142.9471 H   0  0  0  0  0  0  0  0  0  0  0  0  # atno 7974 bound_to 7965
  155.1603  140.3282  155.4413 H   0  0  0  0  0  0  0  0  0  0  0  0  # atno 8008 bound_to 7997
  156.2545  140.1961  156.6661 H   0  0  0  0  0  0  0  0  0  0  0  0  # atno 8009 bound_to 7997
  154.6410  140.0570  156.9832 H   0  0  0  0  0  0  0  0  0  0  0  0  # atno 8010 bound_to 7997
  140.0966  144.4940  150.7064 H   0  0  0  0  0  0  0  0  0  0  0  0  # atno 10167 bound_to 10162
  156.5029  130.8400  151.2616 H   0  0  0  0  0  0  0  0  0  0  0  0  # atno 10718 bound_to 10713
  154.6203  135.5456  153.7568 H   0  0  0  0  0  0  0  0  0  0  0  0  # atno 10763 bound_to 10752
  153.0235  135.6411  154.1450 H   0  0  0  0  0  0  0  0  0  0  0  0  # atno 10764 bound_to 10752
  154.1385  135.2910  155.3147 H   0  0  0  0  0  0  0  0  0  0  0  0  # atno 10765 bound_to 10752
  140.2638  134.3161  155.7849 H   0  0  0  0  0  0  0  0  0  0  0  0  # atno 11005 bound_to 11000
  144.6809  140.2546  143.7327 LP  0  0  0  0  0  0  0  0  0  0  0  0  # atno 17320 bound_to 7965
  145.8077  139.1990  143.2011 LP  0  0  0  0  0  0  0  0  0  0  0  0  # atno 17321 bound_to 7965
  140.7000  143.2428  151.4892 LP  0  0  0  0  0  0  0  0  0  0  0  0  # atno 17342 bound_to 10162
  139.5694  144.1964  152.1814 LP  0  0  0  0  0  0  0  0  0  0  0  0  # atno 17343 bound_to 10162
  157.7460  130.9975  150.2820 LP  0  0  0  0  0  0  0  0  0  0  0  0  # atno 17370 bound_to 10713
  156.3315  130.3801  149.7487 LP  0  0  0  0  0  0  0  0  0  0  0  0  # atno 17371 bound_to 10713
  141.2187  133.7425  156.9228 LP  0  0  0  0  0  0  0  0  0  0  0  0  # atno 17394 bound_to 11000
  140.1439  134.9275  157.2503 LP  0  0  0  0  0  0  0  0  0  0  0  0  # atno 17395 bound_to 11000

$$$$
