AV-unprocessed.smi:3165|AV-procd|sdf|12092|dock7
  -GOLD-   2272017523D 1   1.00000     0.00000
 Structure written by MMmdl.
 37 38  0  0  0  0  0  0  0  0  1 V2000
  147.4829  141.6167  156.3286 C   0  0  0  0  0  0  0  0  0  0  0  0
  148.9130  141.0628  156.4310 C   0  0  1  0  0  0  0  0  0  0  0  0
  149.5836  140.8980  155.0431 C   0  0  0  0  0  0  0  0  0  0  0  0
  150.4475  139.7323  154.9395 N   0  0  0  0  0  0  0  0  0  0  0  0
  150.1104  138.4008  155.0686 C   0  0  0  0  0  0  0  0  0  0  0  0
  151.2521  137.6725  154.8951 C   0  0  0  0  0  0  0  0  0  0  0  0
  152.2507  138.6600  154.6675 C   0  0  0  0  0  0  0  0  0  0  0  0
  151.7674  139.8911  154.6994 N   0  0  0  0  0  0  0  0  0  0  0  0
  149.6904  141.8989  157.3521 N   0  0  0  0  0  0  0  0  0  0  0  0
  151.1058  141.5526  157.4823 C   0  0  0  0  0  0  0  0  0  0  0  0
  151.8639  142.6171  158.2892 C   0  0  1  0  0  0  0  0  0  0  0  0
  151.6859  144.0377  157.7140 C   0  0  0  0  0  0  0  0  0  0  0  0
  152.3863  145.0706  158.6039 C   0  0  0  0  0  0  0  0  0  0  0  0
  151.9058  144.9171  160.0505 C   0  0  0  0  0  0  0  0  0  0  0  0
  152.0550  143.4583  160.5107 C   0  0  0  0  0  0  0  0  0  0  0  0
  151.3549  142.5934  159.6209 O   0  0  0  0  0  0  0  0  0  0  0  0
  146.8760  141.0136  155.6529 H   0  0  0  0  0  0  0  0  0  0  0  0
  147.4718  142.6434  155.9608 H   0  0  0  0  0  0  0  0  0  0  0  0
  146.9920  141.6122  157.3023 H   0  0  0  0  0  0  0  0  0  0  0  0
  148.8327  140.0657  156.8658 H   0  0  0  0  0  0  0  0  0  0  0  0
  148.8468  140.8663  154.2401 H   0  0  0  0  0  0  0  0  0  0  0  0
  150.1937  141.7783  154.8375 H   0  0  0  0  0  0  0  0  0  0  0  0
  149.0963  138.0864  155.2670 H   0  0  0  0  0  0  0  0  0  0  0  0
  151.3579  136.5984  154.9260 H   0  0  0  0  0  0  0  0  0  0  0  0
  153.3056  138.5202  154.4827 H   0  0  0  0  0  0  0  0  0  0  0  0
  149.2544  141.8899  158.2685 H   0  0  0  0  0  0  0  0  0  0  0  0
  151.2206  140.5765  157.9552 H   0  0  0  0  0  0  0  0  0  0  0  0
  151.5615  141.4791  156.4951 H   0  0  0  0  0  0  0  0  0  0  0  0
  152.9232  142.3533  158.3177 H   0  0  0  0  0  0  0  0  0  0  0  0
  152.0848  144.0932  156.7006 H   0  0  0  0  0  0  0  0  0  0  0  0
  150.6238  144.2769  157.6452 H   0  0  0  0  0  0  0  0  0  0  0  0
  153.4660  144.9225  158.5576 H   0  0  0  0  0  0  0  0  0  0  0  0
  152.1914  146.0805  158.2426 H   0  0  0  0  0  0  0  0  0  0  0  0
  152.4678  145.5810  160.7080 H   0  0  0  0  0  0  0  0  0  0  0  0
  150.8594  145.2160  160.1226 H   0  0  0  0  0  0  0  0  0  0  0  0
  153.1065  143.1716  160.5620 H   0  0  0  0  0  0  0  0  0  0  0  0
  151.6445  143.3384  161.5134 H   0  0  0  0  0  0  0  0  0  0  0  0
  1  2  1  0  0  0  0
  1 17  1  0  0  0  0
  1 18  1  0  0  0  0
  1 19  1  0  0  0  0
  2  3  1  0  0  0  0
  2  9  1  0  0  0  0
  2 20  1  0  0  0  0
  3  4  1  0  0  0  0
  3 21  1  0  0  0  0
  3 22  1  0  0  0  0
  4  8  1  0  0  0  0
  4  5  1  0  0  0  0
  5  6  2  0  0  0  0
  5 23  1  0  0  0  0
  6  7  1  0  0  0  0
  6 24  1  0  0  0  0
  7  8  2  0  0  0  0
  7 25  1  0  0  0  0
  9 10  1  0  0  0  0
  9 26  1  0  0  0  0
 10 11  1  0  0  0  0
 10 27  1  0  0  0  0
 10 28  1  0  0  0  0
 11 16  1  0  0  0  0
 11 12  1  0  0  0  0
 11 29  1  0  0  0  0
 12 13  1  0  0  0  0
 12 30  1  0  0  0  0
 12 31  1  0  0  0  0
 13 14  1  0  0  0  0
 13 32  1  0  0  0  0
 13 33  1  0  0  0  0
 14 15  1  0  0  0  0
 14 34  1  0  0  0  0
 14 35  1  0  0  0  0
 15 16  1  0  0  0  0
 15 36  1  0  0  0  0
 15 37  1  0  0  0  0
M  END
> <s_m_source_file>
AV-unprocessed.smi

> <i_m_source_file_index>
3165

> <i_lp_mmshare_version>
43012

> <i_f3d_flags>
0

> <s_epik_input>
bjFbY0hdW2NIXVtjSF1uMVtDSDJdW0NAQEhdKFtDSDNdKVtOSF1bQ0gyXVtDQEBIXTJbQ0gyXVtDSDJdW0NIMl1bQ0gyXU8y

> <s_epik_cmdline>
J2VwaWtfcHl0aG9uJywgJy1waCcsICc3LjAnLCAnLXRuJywgJzgnLCAnLW1hJywgJzIwMCcsICctbWV0YWxfYmluZGluZycsICctaW1hZScsICc8aW5maWxlLm1hZT4nLCAnLW9tYWUnLCAnPG91dGZpbGUubWFlPic=

> <r_lp_tautomer_probability>
1

> <r_epik_Ionization_Penalty>
2.51982

> <r_epik_Ionization_Penalty_Charging>
0

> <r_epik_Ionization_Penalty_Neutral>
2.51982

> <r_epik_State_Penalty>
2.68614

> <r_epik_Charging_Adjusted_Penalty>
2.68614

> <i_epik_Tot_Q>
0

> <i_epik_Tot_abs_Q>
0

> <r_epik_Metal_State_Penalty>
2.6861

> <b_epik_Metal_Only>
0

> <s_lp_Force_Field>
OPLS_2005

> <r_lp_Energy>
14.4807

> <b_lp_Chiralities_Consistent>
1

> <s_lp_Variant>
AV-unprocessed.smi:3165-8

> <Gold.Version>
5.8.1

> <Gold.Id.Protein>
6NUR|6NUR_protein|mol2

> <Gold.PLP.Fitness>
40.3158

> <Gold.PLP.PLP>
-38.4935

> <Gold.PLP.part.hbond>
-1.1895

> <Gold.PLP.part.metal>
0.0000

> <Gold.PLP.part.buried>
-5.3419

> <Gold.PLP.part.nonpolar>
-32.3400

> <Gold.PLP.part.repulsive>
0.0691

> <Gold.PLP.ligand.clash>
0.0000

> <Gold.PLP.ligand.torsion>
0.5244

> <Gold.PLP.Chemscore.Hbond>
0.9500

> <Gold.PLP.Chemscore.CHOScore>
0.0000

> <Gold.PLP.Chemscore.Metal>
0.0000

> <Gold.Chemscore.Hbonds>
donor molecule, donor type, donor heavy atom, donor atom, acceptor molecule, acceptor atom, score
      P1  H  7989  7998       L1     8  0.95

> <Gold.PLP.Chemscore.Internal.Correction>
0.0211

> <Gold.Rescore>
     Score         DG    S(hbond)    S(metal)    S(lipo)     H(rot)  DE(clash)    DE(int)     intcor
     15.74     -16.28       0.94        0.00      99.81       1.57       0.00       0.54       ----

> <Gold.Chemscore.Fitness>
15.7400

> <Gold.Chemscore.DG>
-16.2838

> <Gold.Chemscore.ZeroCoef>
-5.4800

> <Gold.Chemscore.Hbond>
0.9441

> <Gold.Chemscore.Metal>
0.0000

> <Gold.Chemscore.Lipo>
99.8098

> <Gold.Chemscore.Internal_Hbond>
0.0000

> <Gold.Chemscore.DEClash>
0.0015

> <Gold.Chemscore.DEInternal>
0.5423

> <Gold.Chemscore.Rot>
1.5731

> <Gold.Chemscore.Internal.Correction>
   9.000000E+99

> <Gold.Chemscore.Hbonds>
donor molecule, donor type, donor heavy atom, donor atom, acceptor molecule, acceptor atom, score
      P1  H  7989  7998       L1     8  0.19

> <Gold.Chemscore.Hbond.Weighted>
-3.1533

> <Gold.Chemscore.Metal.Weighted>
-0.0000

> <Gold.Chemscore.Lipo.Weighted>
-11.6777

> <Gold.Chemscore.Internal_Hbond.Weighted>
0.0000

> <Gold.Chemscore.DEClash.Weighted>
0.0015

> <Gold.Chemscore.DEInternal.Weighted>
0.5423

> <Gold.Chemscore.Rot.Weighted>
4.0273

> <Gold.Chemscore.Internal.Correction.Weighted>
   9.000000E+99

> <Gold.Protein.RotatedTorsions>
[ 6907 6896 6895 6894 ] final -164.19 input  -60.11 | X-H torsion
[ 7974 7965 7964 7962 ] final  -56.90 input  175.53 | X-H torsion
[ 8008 7997 7996 7995 ] final  151.38 input   59.86 | X-H torsion
[ 10167 10162 10161 10158 ] final -135.42 input  -65.29 | X-H torsion
[ 10718 10713 10712 10709 ] final -107.77 input   66.30 | X-H torsion
[ 10763 10752 10751 10750 ] final   62.19 input  -60.55 | X-H torsion
[ 11005 11000 10999 10996 ] final  -15.04 input  -57.11 | X-H torsion

> <Gold.Protein.ActiveResidues>
 VAL166  LYS551  ARG553  GLY616  TRP617  ASP618  TYR619  PRO620  LYS621  CYS622 
 ASP623  PHE694  ASN695  SER759  ASP760  ASP761  ALA762  ILE779  LEU786  VAL792 
 PHE793  MET794  SER795  GLU796  ALA797  LYS798  CYS799  TRP800  GLU811  SER814 

> <Gold.Protein.RotatedAtoms>
  151.4079  133.3737  159.2739 H   0  0  0  0  0  0  0  0  0  0  0  0  # atno 6907 bound_to 6896
  150.9385  134.8797  159.7607 H   0  0  0  0  0  0  0  0  0  0  0  0  # atno 6908 bound_to 6896
  152.5061  134.4028  159.9474 H   0  0  0  0  0  0  0  0  0  0  0  0  # atno 6909 bound_to 6896
  145.8572  140.8311  142.9955 H   0  0  0  0  0  0  0  0  0  0  0  0  # atno 7974 bound_to 7965
  156.2676  140.2049  156.6167 H   0  0  0  0  0  0  0  0  0  0  0  0  # atno 8008 bound_to 7997
  154.6789  140.0542  157.0269 H   0  0  0  0  0  0  0  0  0  0  0  0  # atno 8009 bound_to 7997
  155.1029  140.3208  155.4545 H   0  0  0  0  0  0  0  0  0  0  0  0  # atno 8010 bound_to 7997
  139.8781  143.6873  152.2631 H   0  0  0  0  0  0  0  0  0  0  0  0  # atno 10167 bound_to 10162
  156.0452  130.5679  150.7868 H   0  0  0  0  0  0  0  0  0  0  0  0  # atno 10718 bound_to 10713
  152.9974  135.5474  154.6153 H   0  0  0  0  0  0  0  0  0  0  0  0  # atno 10763 bound_to 10752
  154.5464  135.2823  155.1050 H   0  0  0  0  0  0  0  0  0  0  0  0  # atno 10764 bound_to 10752
  154.2307  135.6434  153.5227 H   0  0  0  0  0  0  0  0  0  0  0  0  # atno 10765 bound_to 10752
  140.7926  133.8276  155.9394 H   0  0  0  0  0  0  0  0  0  0  0  0  # atno 11005 bound_to 11000
  144.6727  140.1042  143.7459 LP  0  0  0  0  0  0  0  0  0  0  0  0  # atno 17320 bound_to 7965
  145.9289  139.2593  143.1337 LP  0  0  0  0  0  0  0  0  0  0  0  0  # atno 17321 bound_to 7965
  139.7221  144.7600  151.0938 LP  0  0  0  0  0  0  0  0  0  0  0  0  # atno 17342 bound_to 10162
  140.7749  143.5194  150.9555 LP  0  0  0  0  0  0  0  0  0  0  0  0  # atno 17343 bound_to 10162
  157.5320  131.0937  150.9943 LP  0  0  0  0  0  0  0  0  0  0  0  0  # atno 17370 bound_to 10713
  157.0247  130.5687  149.5335 LP  0  0  0  0  0  0  0  0  0  0  0  0  # atno 17371 bound_to 10713
  140.9374  134.1944  157.4822 LP  0  0  0  0  0  0  0  0  0  0  0  0  # atno 17394 bound_to 11000
  139.8729  134.9858  156.5297 LP  0  0  0  0  0  0  0  0  0  0  0  0  # atno 17395 bound_to 11000

$$$$
