AV-unprocessed.smi:2061|AV-procd|sdf|8371|dock10
  -GOLD-   2272011 43D 1   1.00000     0.00000
 Structure written by MMmdl.
 46 47  0  0  0  0  0  0  0  0  2 V2000
  143.4716  132.0491  150.5352 C   0  0  0  0  0  0  0  0  0  0  0  0
  144.5567  133.0240  150.8398 C   0  0  0  0  0  0  0  0  0  0  0  0
  144.5537  134.2833  151.3698 C   0  0  0  0  0  0  0  0  0  0  0  0
  145.9371  134.6272  151.3829 C   0  0  0  0  0  0  0  0  0  0  0  0
  146.4958  135.8482  151.8413 N   0  0  0  0  0  0  0  0  0  0  0  0
  145.9247  136.7916  152.6091 C   0  0  0  0  0  0  0  0  0  0  0  0
  144.7750  136.7559  153.0473 O   0  0  0  0  0  0  0  0  0  0  0  0
  146.7735  137.8032  152.8457 N   0  0  0  0  0  0  0  0  0  0  0  0
  146.4940  138.9672  153.6845 C   0  0  0  0  0  0  0  0  0  0  0  0
  147.4909  140.1419  153.4702 C   0  0  1  0  0  0  0  0  0  0  0  0
  146.7637  141.5042  153.5940 C   0  0  0  0  0  0  0  0  0  0  0  0
  148.6717  140.0595  154.3974 N   0  3  1  0  0  0  0  0  0  0  0  0
  149.7015  139.0666  153.9820 C   0  0  0  0  0  0  0  0  0  0  0  0
  150.8585  138.9860  154.9942 C   0  0  1  0  0  0  0  0  0  0  0  0
  151.9697  138.0436  154.5186 C   0  0  0  0  0  0  0  0  0  0  0  0
  151.4320  140.2739  155.1732 O   0  0  0  0  0  0  0  0  0  0  0  0
  150.5133  141.2626  155.6252 C   0  0  2  0  0  0  0  0  0  0  0  0
  150.0894  141.0495  157.0902 C   0  0  0  0  0  0  0  0  0  0  0  0
  149.3271  141.3747  154.6478 C   0  0  0  0  0  0  0  0  0  0  0  0
  146.7046  133.6670  150.9012 N   0  0  0  0  0  0  0  0  0  0  0  0
  145.8276  132.6334  150.5524 O   0  0  0  0  0  0  0  0  0  0  0  0
  142.4900  132.5046  150.6673 H   0  0  0  0  0  0  0  0  0  0  0  0
  143.5342  131.1832  151.1944 H   0  0  0  0  0  0  0  0  0  0  0  0
  143.5449  131.6977  149.5058 H   0  0  0  0  0  0  0  0  0  0  0  0
  143.6926  134.8498  151.6901 H   0  0  0  0  0  0  0  0  0  0  0  0
  147.4524  136.0127  151.5644 H   0  0  0  0  0  0  0  0  0  0  0  0
  147.6965  137.7493  152.4395 H   0  0  0  0  0  0  0  0  0  0  0  0
  145.4674  139.3126  153.5510 H   0  0  0  0  0  0  0  0  0  0  0  0
  146.5600  138.5815  154.7001 H   0  0  0  0  0  0  0  0  0  0  0  0
  147.8720  140.0652  152.4505 H   0  0  0  0  0  0  0  0  0  0  0  0
  145.8802  141.5571  152.9600 H   0  0  0  0  0  0  0  0  0  0  0  0
  147.3816  142.3402  153.2715 H   0  0  0  0  0  0  0  0  0  0  0  0
  146.4434  141.6911  154.6196 H   0  0  0  0  0  0  0  0  0  0  0  0
  149.2776  138.0667  153.9172 H   0  0  0  0  0  0  0  0  0  0  0  0
  150.0781  139.3266  152.9913 H   0  0  0  0  0  0  0  0  0  0  0  0
  150.4856  138.6097  155.9469 H   0  0  0  0  0  0  0  0  0  0  0  0
  151.5915  137.0316  154.3703 H   0  0  0  0  0  0  0  0  0  0  0  0
  152.7759  137.9921  155.2506 H   0  0  0  0  0  0  0  0  0  0  0  0
  152.3982  138.3826  153.5747 H   0  0  0  0  0  0  0  0  0  0  0  0
  151.0559  142.2079  155.5933 H   0  0  0  0  0  0  0  0  0  0  0  0
  149.5102  141.8997  157.4517 H   0  0  0  0  0  0  0  0  0  0  0  0
  150.9618  140.9488  157.7364 H   0  0  0  0  0  0  0  0  0  0  0  0
  149.4714  140.1614  157.2198 H   0  0  0  0  0  0  0  0  0  0  0  0
  149.6749  141.7818  153.6969 H   0  0  0  0  0  0  0  0  0  0  0  0
  148.6308  142.0980  155.0669 H   0  0  0  0  0  0  0  0  0  0  0  0
  148.3145  139.7430  155.2877 H   0  0  0  0  0  0  0  0  0  0  0  0
  1  2  1  0  0  0  0
  1 22  1  0  0  0  0
  1 23  1  0  0  0  0
  1 24  1  0  0  0  0
  2 21  1  0  0  0  0
  2  3  2  0  0  0  0
  3  4  1  0  0  0  0
  3 25  1  0  0  0  0
  4  5  1  0  0  0  0
  4 20  2  0  0  0  0
  5  6  1  0  0  0  0
  5 26  1  0  0  0  0
  6  7  2  0  0  0  0
  6  8  1  0  0  0  0
  8  9  1  0  0  0  0
  8 27  1  0  0  0  0
  9 10  1  0  0  0  0
  9 28  1  0  0  0  0
  9 29  1  0  0  0  0
 10 11  1  0  0  0  0
 10 12  1  0  0  0  0
 10 30  1  0  0  0  0
 11 31  1  0  0  0  0
 11 32  1  0  0  0  0
 11 33  1  0  0  0  0
 12 19  1  0  0  0  0
 12 13  1  0  0  0  0
 12 46  1  0  0  0  0
 13 14  1  0  0  0  0
 13 34  1  0  0  0  0
 13 35  1  0  0  0  0
 14 15  1  0  0  0  0
 14 16  1  0  0  0  0
 14 36  1  0  0  0  0
 15 37  1  0  0  0  0
 15 38  1  0  0  0  0
 15 39  1  0  0  0  0
 16 17  1  0  0  0  0
 17 18  1  0  0  0  0
 17 19  1  0  0  0  0
 17 40  1  0  0  0  0
 18 41  1  0  0  0  0
 18 42  1  0  0  0  0
 18 43  1  0  0  0  0
 19 44  1  0  0  0  0
 19 45  1  0  0  0  0
 20 21  1  0  0  0  0
M  CHG  1  12   1
M  END
> <s_m_source_file>
AV-unprocessed.smi

> <i_m_source_file_index>
2061

> <i_lp_mmshare_version>
43012

> <i_f3d_flags>
0

> <s_epik_input>
W0NIM11jMVtjSF1jKG5vMSlbTkhdQyg9TylbTkhdW0NIMl1bQ0BIXShbQ0gzXSlOMltDSDJdW0NAQEhdKFtDSDNdKU9bQ0BASF0oW0NIM10pW0NIMl0y

> <s_epik_cmdline>
J2VwaWtfcHl0aG9uJywgJy1waCcsICc3LjAnLCAnLXRuJywgJzgnLCAnLW1hJywgJzIwMCcsICctbWV0YWxfYmluZGluZycsICctaW1hZScsICc8aW5maWxlLm1hZT4nLCAnLW9tYWUnLCAnPG91dGZpbGUubWFlPic=

> <r_epik_Ionization_Penalty>
0.707076

> <r_epik_Ionization_Penalty_Charging>
0.707039

> <r_epik_Ionization_Penalty_Neutral>
3.6548e-05

> <r_epik_State_Penalty>
0.730276

> <r_epik_Charging_Adjusted_Penalty>
1.43732

> <i_epik_Tot_Q>
1

> <i_epik_Tot_abs_Q>
1

> <r_epik_Metal_State_Penalty>
0.743132

> <b_epik_Metal_Only>
0

> <s_lp_Force_Field>
OPLS_2005

> <r_lp_Energy>
23.7206

> <b_lp_Chiralities_Consistent>
1

> <s_lp_Variant>
AV-unprocessed.smi:2061-12

> <Gold.Version>
5.8.1

> <Gold.Id.Protein>
6NUR|6NUR_protein|mol2

> <Gold.PLP.Fitness>
41.7234

> <Gold.PLP.PLP>
-35.9456

> <Gold.PLP.part.hbond>
-2.8281

> <Gold.PLP.part.metal>
0.0000

> <Gold.PLP.part.buried>
-3.1139

> <Gold.PLP.part.nonpolar>
-30.3660

> <Gold.PLP.part.repulsive>
0.7535

> <Gold.PLP.ligand.clash>
0.0000

> <Gold.PLP.ligand.torsion>
1.0974

> <Gold.PLP.Chemscore.Hbond>
2.6435

> <Gold.PLP.Chemscore.CHOScore>
0.0000

> <Gold.PLP.Chemscore.Metal>
0.0000

> <Gold.Chemscore.Hbonds>
donor molecule, donor type, donor heavy atom, donor atom, acceptor molecule, acceptor atom, score
      L1  H     5    26       P1  7948  0.94
      L1  H     8    27       P1  7948  0.71
      P1  H  7989  7998       L1    16  0.89

> <Gold.PLP.Chemscore.Internal.Correction>
0.0420

> <Gold.Rescore>
     Score         DG    S(hbond)    S(metal)    S(lipo)     H(rot)  DE(clash)    DE(int)     intcor
     15.32     -17.54       1.92        0.00      83.01       1.58       0.17       2.05       ----

> <Gold.Chemscore.Fitness>
15.3214

> <Gold.Chemscore.DG>
-17.5406

> <Gold.Chemscore.ZeroCoef>
-5.4800

> <Gold.Chemscore.Hbond>
1.9169

> <Gold.Chemscore.Metal>
0.0000

> <Gold.Chemscore.Lipo>
83.0062

> <Gold.Chemscore.Internal_Hbond>
0.0000

> <Gold.Chemscore.DEClash>
0.1675

> <Gold.Chemscore.DEInternal>
2.0517

> <Gold.Chemscore.Rot>
1.5834

> <Gold.Chemscore.Internal.Correction>
   9.000000E+99

> <Gold.Chemscore.Hbonds>
donor molecule, donor type, donor heavy atom, donor atom, acceptor molecule, acceptor atom, score
      L1  H     5    26       P1  7948  0.88
      L1  H     8    27       P1  7948  0.66
      P1  H  7989  7998       L1    16  0.08

> <Gold.Chemscore.Hbond.Weighted>
-6.4023

> <Gold.Chemscore.Metal.Weighted>
-0.0000

> <Gold.Chemscore.Lipo.Weighted>
-9.7117

> <Gold.Chemscore.Internal_Hbond.Weighted>
0.0000

> <Gold.Chemscore.DEClash.Weighted>
0.1675

> <Gold.Chemscore.DEInternal.Weighted>
2.0517

> <Gold.Chemscore.Rot.Weighted>
4.0535

> <Gold.Chemscore.Internal.Correction.Weighted>
   9.000000E+99

> <Gold.Protein.RotatedTorsions>
[ 6907 6896 6895 6894 ] final  -13.71 input  -60.11 | X-H torsion
[ 7974 7965 7964 7962 ] final -120.89 input  175.53 | X-H torsion
[ 8008 7997 7996 7995 ] final  140.27 input   59.86 | X-H torsion
[ 10167 10162 10161 10158 ] final  -74.60 input  -65.29 | X-H torsion
[ 10718 10713 10712 10709 ] final   46.54 input   66.30 | X-H torsion
[ 10763 10752 10751 10750 ] final  -49.49 input  -60.55 | X-H torsion
[ 11005 11000 10999 10996 ] final   93.30 input  -57.11 | X-H torsion

> <Gold.Protein.ActiveResidues>
 VAL166  LYS551  ARG553  GLY616  TRP617  ASP618  TYR619  PRO620  LYS621  CYS622 
 ASP623  PHE694  ASN695  SER759  ASP760  ASP761  ALA762  ILE779  LEU786  VAL792 
 PHE793  MET794  SER795  GLU796  ALA797  LYS798  CYS799  TRP800  GLU811  SER814 

> <Gold.Protein.RotatedAtoms>
  151.3507  135.0884  159.9401 H   0  0  0  0  0  0  0  0  0  0  0  0  # atno 6907 bound_to 6896
  152.5188  133.9355  159.7611 H   0  0  0  0  0  0  0  0  0  0  0  0  # atno 6908 bound_to 6896
  150.9730  133.6270  159.2764 H   0  0  0  0  0  0  0  0  0  0  0  0  # atno 6909 bound_to 6896
  145.0464  140.8185  143.4235 H   0  0  0  0  0  0  0  0  0  0  0  0  # atno 7974 bound_to 7965
  156.2981  140.2346  156.4374 H   0  0  0  0  0  0  0  0  0  0  0  0  # atno 8008 bound_to 7997
  154.8216  140.0437  157.1435 H   0  0  0  0  0  0  0  0  0  0  0  0  # atno 8009 bound_to 7997
  154.9308  140.3016  155.5172 H   0  0  0  0  0  0  0  0  0  0  0  0  # atno 8010 bound_to 7997
  140.5013  143.2361  151.7747 H   0  0  0  0  0  0  0  0  0  0  0  0  # atno 10167 bound_to 10162
  157.4492  130.8128  149.7771 H   0  0  0  0  0  0  0  0  0  0  0  0  # atno 10718 bound_to 10713
  154.0950  135.6572  153.4858 H   0  0  0  0  0  0  0  0  0  0  0  0  # atno 10763 bound_to 10752
  153.0308  135.5211  154.7343 H   0  0  0  0  0  0  0  0  0  0  0  0  # atno 10764 bound_to 10752
  154.6478  135.2997  154.9993 H   0  0  0  0  0  0  0  0  0  0  0  0  # atno 10765 bound_to 10752
  139.8812  134.8782  156.3698 H   0  0  0  0  0  0  0  0  0  0  0  0  # atno 11005 bound_to 11000
  145.1582  139.2474  143.5405 LP  0  0  0  0  0  0  0  0  0  0  0  0  # atno 17320 bound_to 7965
  146.3514  140.1303  142.8597 LP  0  0  0  0  0  0  0  0  0  0  0  0  # atno 17321 bound_to 7965
  139.4873  144.4518  151.9645 LP  0  0  0  0  0  0  0  0  0  0  0  0  # atno 17342 bound_to 10162
  140.3607  144.2976  150.5934 LP  0  0  0  0  0  0  0  0  0  0  0  0  # atno 17343 bound_to 10162
  155.9980  130.3897  150.2719 LP  0  0  0  0  0  0  0  0  0  0  0  0  # atno 17370 bound_to 10713
  157.0890  131.0164  151.3129 LP  0  0  0  0  0  0  0  0  0  0  0  0  # atno 17371 bound_to 10713
  140.9472  133.7475  156.0224 LP  0  0  0  0  0  0  0  0  0  0  0  0  # atno 17394 bound_to 11000
  140.8149  134.3356  157.5400 LP  0  0  0  0  0  0  0  0  0  0  0  0  # atno 17395 bound_to 11000

$$$$
