AV-unprocessed.smi:2883|AV-procd|sdf|11078|dock2
  -GOLD-   2272015553D 1   1.00000     0.00000
 Structure written by MMmdl.
 40 42  0  0  0  0  0  0  0  0  2 V2000
  151.0285  137.1318  154.5873 C   0  0  0  0  0  0  0  0  0  0  0  0
  151.5851  138.3508  155.3597 C   0  0  0  0  0  0  0  0  0  0  0  0
  151.5403  137.9730  156.8578 C   0  0  0  0  0  0  0  0  0  0  0  0
  153.0420  138.6134  154.9373 C   0  0  0  0  0  0  0  0  0  0  0  0
  150.7409  139.6037  155.0859 C   0  0  0  0  0  0  0  0  0  0  0  0
  149.7117  139.5281  154.2227 N   0  3  0  0  0  0  0  0  0  0  0  0
  148.8848  140.5885  154.0541 C   0  0  0  0  0  0  0  0  0  0  0  0
  149.0724  141.7639  154.8032 C   0  0  0  0  0  0  0  0  0  0  0  0
  150.1358  141.7678  155.7204 C   0  0  0  0  0  0  0  0  0  0  0  0
  150.3676  142.9029  156.5093 N   0  0  0  0  0  0  0  0  0  0  0  0
  151.4877  142.9549  157.4434 C   0  0  1  0  0  0  0  0  0  0  0  0
  151.7988  144.3760  157.9324 C   0  0  0  0  0  0  0  0  0  0  0  0
  151.7001  144.2159  159.4544 C   0  0  2  0  0  0  0  0  0  0  0  0
  152.8418  143.3640  160.0259 C   0  0  0  0  0  0  0  0  0  0  0  0
  152.4454  141.9614  159.5663 C   0  0  0  0  0  0  0  0  0  0  0  0
  151.1655  142.2407  158.7667 C   0  0  1  0  0  0  0  0  0  0  0  0
  150.6220  143.3011  159.5361 O   0  0  0  0  0  0  0  0  0  0  0  0
  150.9320  140.6854  155.8569 N   0  0  0  0  0  0  0  0  0  0  0  0
  151.5987  136.2287  154.8071 H   0  0  0  0  0  0  0  0  0  0  0  0
  151.0727  137.2765  153.5070 H   0  0  0  0  0  0  0  0  0  0  0  0
  149.9887  136.9342  154.8513 H   0  0  0  0  0  0  0  0  0  0  0  0
  150.5171  137.8008  157.1945 H   0  0  0  0  0  0  0  0  0  0  0  0
  151.9714  138.7506  157.4893 H   0  0  0  0  0  0  0  0  0  0  0  0
  152.1056  137.0607  157.0527 H   0  0  0  0  0  0  0  0  0  0  0  0
  153.6717  137.7410  155.1155 H   0  0  0  0  0  0  0  0  0  0  0  0
  153.4718  139.4481  155.4923 H   0  0  0  0  0  0  0  0  0  0  0  0
  153.1100  138.8557  153.8761 H   0  0  0  0  0  0  0  0  0  0  0  0
  148.0928  140.4572  153.3312 H   0  0  0  0  0  0  0  0  0  0  0  0
  148.4204  142.6170  154.6826 H   0  0  0  0  0  0  0  0  0  0  0  0
  149.8730  143.7601  156.3083 H   0  0  0  0  0  0  0  0  0  0  0  0
  152.3607  142.4926  156.9804 H   0  0  0  0  0  0  0  0  0  0  0  0
  152.7813  144.7243  157.6120 H   0  0  0  0  0  0  0  0  0  0  0  0
  151.0559  145.0949  157.5832 H   0  0  0  0  0  0  0  0  0  0  0  0
  151.5355  145.1526  159.9875 H   0  0  0  0  0  0  0  0  0  0  0  0
  153.8170  143.6747  159.6496 H   0  0  0  0  0  0  0  0  0  0  0  0
  152.8614  143.4178  161.1149 H   0  0  0  0  0  0  0  0  0  0  0  0
  153.2167  141.4772  158.9663 H   0  0  0  0  0  0  0  0  0  0  0  0
  152.2321  141.3243  160.4253 H   0  0  0  0  0  0  0  0  0  0  0  0
  150.5158  141.3701  158.6670 H   0  0  0  0  0  0  0  0  0  0  0  0
  149.5498  138.6754  153.6864 H   0  0  0  0  0  0  0  0  0  0  0  0
  1  2  1  0  0  0  0
  1 19  1  0  0  0  0
  1 20  1  0  0  0  0
  1 21  1  0  0  0  0
  2  3  1  0  0  0  0
  2  4  1  0  0  0  0
  2  5  1  0  0  0  0
  3 22  1  0  0  0  0
  3 23  1  0  0  0  0
  3 24  1  0  0  0  0
  4 25  1  0  0  0  0
  4 26  1  0  0  0  0
  4 27  1  0  0  0  0
  5 18  1  0  0  0  0
  5  6  2  0  0  0  0
  6  7  1  0  0  0  0
  6 40  1  0  0  0  0
  7  8  2  0  0  0  0
  7 28  1  0  0  0  0
  8  9  1  0  0  0  0
  8 29  1  0  0  0  0
  9 10  1  0  0  0  0
  9 18  2  0  0  0  0
 10 11  1  0  0  0  0
 10 30  1  0  0  0  0
 11 16  1  0  0  0  0
 11 12  1  0  0  0  0
 11 31  1  0  0  0  0
 12 13  1  0  0  0  0
 12 32  1  0  0  0  0
 12 33  1  0  0  0  0
 13 17  1  0  0  0  0
 13 14  1  0  0  0  0
 13 34  1  0  0  0  0
 14 15  1  0  0  0  0
 14 35  1  0  0  0  0
 14 36  1  0  0  0  0
 15 16  1  0  0  0  0
 15 37  1  0  0  0  0
 15 38  1  0  0  0  0
 16 17  1  0  0  0  0
 16 39  1  0  0  0  0
M  CHG  1   6   1
M  END
> <s_m_source_file>
AV-unprocessed.smi

> <i_m_source_file_index>
2883

> <i_lp_mmshare_version>
43012

> <i_f3d_flags>
0

> <s_epik_input>
W0NIM11DKFtDSDNdKShbQ0gzXSljMW5bY0hdW2NIXWMobjEpW05IXVtDQEhdKFtDSDJdW0NAQEhdMjMpW0NAQEhdKE8zKVtDSDJdW0NIMl0y

> <s_epik_cmdline>
J2VwaWtfcHl0aG9uJywgJy1waCcsICc3LjAnLCAnLXRuJywgJzgnLCAnLW1hJywgJzIwMCcsICctbWV0YWxfYmluZGluZycsICctaW1hZScsICc8aW5maWxlLm1hZT4nLCAnLW9tYWUnLCAnPG91dGZpbGUubWFlPic=

> <r_lp_tautomer_probability>
0.999336

> <r_epik_Ionization_Penalty>
0.371831

> <r_epik_Ionization_Penalty_Charging>
0.371821

> <r_epik_Ionization_Penalty_Neutral>
1.06897e-05

> <r_epik_State_Penalty>
0.369311

> <r_epik_Charging_Adjusted_Penalty>
0.741132

> <i_epik_Tot_Q>
1

> <i_epik_Tot_abs_Q>
1

> <r_epik_Metal_State_Penalty>
0.621338

> <b_epik_Metal_Only>
0

> <s_lp_Force_Field>
OPLS_2005

> <r_lp_Energy>
38.7214

> <b_lp_Chiralities_Consistent>
1

> <s_lp_Variant>
AV-unprocessed.smi:2883-4

> <Gold.Version>
5.8.1

> <Gold.Id.Protein>
6NUR|6NUR_protein|mol2

> <Gold.PLP.Fitness>
44.3810

> <Gold.PLP.PLP>
-42.0489

> <Gold.PLP.part.hbond>
-2.6085

> <Gold.PLP.part.metal>
0.0000

> <Gold.PLP.part.buried>
-1.7554

> <Gold.PLP.part.nonpolar>
-37.5352

> <Gold.PLP.part.repulsive>
0.2586

> <Gold.PLP.ligand.clash>
0.0000

> <Gold.PLP.ligand.torsion>
0.4143

> <Gold.PLP.Chemscore.Hbond>
1.0000

> <Gold.PLP.Chemscore.CHOScore>
0.0000

> <Gold.PLP.Chemscore.Metal>
0.0000

> <Gold.Chemscore.Hbonds>
donor molecule, donor type, donor heavy atom, donor atom, acceptor molecule, acceptor atom, score
      L1  H    10    30       P1  8028  0.96

> <Gold.PLP.Chemscore.Internal.Correction>
0.1607

> <Gold.Rescore>
     Score         DG    S(hbond)    S(metal)    S(lipo)     H(rot)  DE(clash)    DE(int)     intcor
     18.33     -18.79       0.97        0.00     111.50       1.16       0.14       0.32       ----

> <Gold.Chemscore.Fitness>
18.3281

> <Gold.Chemscore.DG>
-18.7860

> <Gold.Chemscore.ZeroCoef>
-5.4800

> <Gold.Chemscore.Hbond>
0.9690

> <Gold.Chemscore.Metal>
0.0000

> <Gold.Chemscore.Lipo>
111.5036

> <Gold.Chemscore.Internal_Hbond>
0.0000

> <Gold.Chemscore.DEClash>
0.1366

> <Gold.Chemscore.DEInternal>
0.3213

> <Gold.Chemscore.Rot>
1.1626

> <Gold.Chemscore.Internal.Correction>
   9.000000E+99

> <Gold.Chemscore.Hbonds>
donor molecule, donor type, donor heavy atom, donor atom, acceptor molecule, acceptor atom, score
      L1  H    10    30       P1  8028  0.91

> <Gold.Chemscore.Hbond.Weighted>
-3.2364

> <Gold.Chemscore.Metal.Weighted>
-0.0000

> <Gold.Chemscore.Lipo.Weighted>
-13.0459

> <Gold.Chemscore.Internal_Hbond.Weighted>
0.0000

> <Gold.Chemscore.DEClash.Weighted>
0.1366

> <Gold.Chemscore.DEInternal.Weighted>
0.3213

> <Gold.Chemscore.Rot.Weighted>
2.9763

> <Gold.Chemscore.Internal.Correction.Weighted>
   9.000000E+99

> <Gold.Protein.RotatedTorsions>
[ 6907 6896 6895 6894 ] final   27.36 input  -60.11 | X-H torsion
[ 7974 7965 7964 7962 ] final  163.12 input  175.53 | X-H torsion
[ 8008 7997 7996 7995 ] final  132.73 input   59.86 | X-H torsion
[ 10167 10162 10161 10158 ] final  179.67 input  -65.29 | X-H torsion
[ 10718 10713 10712 10709 ] final   78.20 input   66.30 | X-H torsion
[ 10763 10752 10751 10750 ] final  -32.56 input  -60.55 | X-H torsion
[ 11005 11000 10999 10996 ] final  -15.79 input  -57.11 | X-H torsion

> <Gold.Protein.ActiveResidues>
 VAL166  LYS551  ARG553  GLY616  TRP617  ASP618  TYR619  PRO620  LYS621  CYS622 
 ASP623  PHE694  ASN695  SER759  ASP760  ASP761  ALA762  ILE779  LEU786  VAL792 
 PHE793  MET794  SER795  GLU796  ALA797  LYS798  CYS799  TRP800  GLU811  SER814 

> <Gold.Protein.RotatedAtoms>
  152.0011  134.9928  160.0564 H   0  0  0  0  0  0  0  0  0  0  0  0  # atno 6907 bound_to 6896
  152.1518  133.4522  159.4825 H   0  0  0  0  0  0  0  0  0  0  0  0  # atno 6908 bound_to 6896
  150.6876  134.2097  159.4397 H   0  0  0  0  0  0  0  0  0  0  0  0  # atno 6909 bound_to 6896
  144.7604  139.8138  143.6334 H   0  0  0  0  0  0  0  0  0  0  0  0  # atno 7974 bound_to 7965
  156.2985  140.2539  156.3137 H   0  0  0  0  0  0  0  0  0  0  0  0  # atno 8008 bound_to 7997
  154.9302  140.0398  157.2063 H   0  0  0  0  0  0  0  0  0  0  0  0  # atno 8009 bound_to 7997
  154.8226  140.2862  155.5781 H   0  0  0  0  0  0  0  0  0  0  0  0  # atno 8010 bound_to 7997
  139.5347  144.2533  152.0767 H   0  0  0  0  0  0  0  0  0  0  0  0  # atno 10167 bound_to 10162
  157.6737  130.9857  150.1752 H   0  0  0  0  0  0  0  0  0  0  0  0  # atno 10718 bound_to 10713
  153.8158  135.6878  153.4834 H   0  0  0  0  0  0  0  0  0  0  0  0  # atno 10763 bound_to 10752
  153.1600  135.4584  154.9756 H   0  0  0  0  0  0  0  0  0  0  0  0  # atno 10764 bound_to 10752
  154.7948  135.3315  154.7635 H   0  0  0  0  0  0  0  0  0  0  0  0  # atno 10765 bound_to 10752
  140.8002  133.8220  155.9462 H   0  0  0  0  0  0  0  0  0  0  0  0  # atno 11005 bound_to 11000
  146.1661  139.4793  142.9957 LP  0  0  0  0  0  0  0  0  0  0  0  0  # atno 17320 bound_to 7965
  145.6638  141.0234  143.1695 LP  0  0  0  0  0  0  0  0  0  0  0  0  # atno 17321 bound_to 7965
  140.2002  144.4666  150.6435 LP  0  0  0  0  0  0  0  0  0  0  0  0  # atno 17342 bound_to 10162
  140.6546  143.2234  151.5999 LP  0  0  0  0  0  0  0  0  0  0  0  0  # atno 17343 bound_to 10162
  156.2497  130.3699  149.8246 LP  0  0  0  0  0  0  0  0  0  0  0  0  # atno 17370 bound_to 10713
  156.6022  130.8551  151.3434 LP  0  0  0  0  0  0  0  0  0  0  0  0  # atno 17371 bound_to 10713
  140.9302  134.2031  157.4868 LP  0  0  0  0  0  0  0  0  0  0  0  0  # atno 17394 bound_to 11000
  139.8722  134.9830  156.5178 LP  0  0  0  0  0  0  0  0  0  0  0  0  # atno 17395 bound_to 11000

$$$$
