AV-unprocessed.smi:236|AV-procd|sdf|1813|dock8
  -GOLD-   2262020403D 1   1.00000     0.00000
 Structure written by MMmdl.
 58 62  0  0  0  0  0  0  0  0  1 V2000
  143.1602  132.4353  150.7210 C   0  0  0  0  0  0  0  0  0  0  0  0
  144.6905  132.5171  150.6176 C   0  0  2  0  0  0  0  0  0  0  0  0
  145.3074  131.5431  151.4556 O   0  0  0  0  0  0  0  0  0  0  0  0
  146.5270  132.0533  151.9879 C   0  0  0  0  0  0  0  0  0  0  0  0
  146.7596  133.3861  151.2829 C   0  0  0  0  0  0  0  0  0  0  0  0
  145.3396  133.8612  150.9994 C   0  0  1  0  0  0  0  0  0  0  0  0
  145.3598  134.7314  149.8831 O   0  0  0  0  0  0  0  0  0  0  0  0
  144.6618  134.5749  152.2008 C   0  0  0  0  0  0  0  0  0  0  0  0
  145.2862  135.8382  152.5611 N   0  0  0  0  0  0  0  0  0  0  0  0
  145.2471  137.0130  151.8452 C   0  0  0  0  0  0  0  0  0  0  0  0
  145.8957  138.0113  152.3795 N   0  0  0  0  0  0  0  0  0  0  0  0
  146.4095  137.4924  153.5629 C   0  0  0  0  0  0  0  0  0  0  0  0
  147.2092  138.0218  154.6166 C   0  0  0  0  0  0  0  0  0  0  0  0
  147.6474  139.3078  154.6391 N   0  0  0  0  0  0  0  0  0  0  0  0
  147.3453  140.1588  153.4901 C   0  0  0  0  0  0  0  0  0  0  0  0
  147.6524  141.6269  153.8240 C   0  0  0  0  0  0  0  0  0  0  0  0
  149.0009  141.7413  154.2653 O   0  0  0  0  0  0  0  0  0  0  0  0
  149.2441  140.9958  155.4560 C   0  0  2  0  0  0  0  0  0  0  0  0
  150.6877  141.2574  155.9030 C   0  0  0  0  0  0  0  0  0  0  0  0
  150.6790  141.7311  157.2395 O   0  0  0  0  0  0  0  0  0  0  0  0
  151.1585  143.0597  157.3511 C   0  0  0  0  0  0  0  0  0  0  0  0
  151.1265  143.4762  158.8060 C   0  0  0  0  0  0  0  0  0  0  0  0
  151.8047  144.7518  159.2520 C   0  0  0  0  0  0  0  0  0  0  0  0
  152.3773  143.4161  159.6534 C   0  0  0  0  0  0  0  0  0  0  0  0
  148.9986  139.5040  155.1562 C   0  0  0  0  0  0  0  0  0  0  0  0
  147.5415  137.1761  155.6294 N   0  0  0  0  0  0  0  0  0  0  0  0
  147.1169  135.9093  155.6227 C   0  0  0  0  0  0  0  0  0  0  0  0
  146.3654  135.2868  154.7135 N   0  0  0  0  0  0  0  0  0  0  0  0
  146.0348  136.1242  153.6896 C   0  0  0  0  0  0  0  0  0  0  0  0
  142.6842  133.2034  150.1112 H   0  0  0  0  0  0  0  0  0  0  0  0
  142.8170  132.5569  151.7484 H   0  0  0  0  0  0  0  0  0  0  0  0
  142.8027  131.4665  150.3719 H   0  0  0  0  0  0  0  0  0  0  0  0
  144.9823  132.2645  149.5962 H   0  0  0  0  0  0  0  0  0  0  0  0
  146.4049  132.2024  153.0612 H   0  0  0  0  0  0  0  0  0  0  0  0
  147.3505  131.3556  151.8357 H   0  0  0  0  0  0  0  0  0  0  0  0
  147.3685  134.0785  151.8630 H   0  0  0  0  0  0  0  0  0  0  0  0
  147.2886  133.2008  150.3463 H   0  0  0  0  0  0  0  0  0  0  0  0
  144.6866  135.3842  149.9999 H   0  0  0  0  0  0  0  0  0  0  0  0
  143.6111  134.7707  151.9843 H   0  0  0  0  0  0  0  0  0  0  0  0
  144.6731  133.9293  153.0797 H   0  0  0  0  0  0  0  0  0  0  0  0
  144.7252  137.1047  150.9038 H   0  0  0  0  0  0  0  0  0  0  0  0
  147.9431  139.8399  152.6350 H   0  0  0  0  0  0  0  0  0  0  0  0
  146.2955  140.0597  153.2113 H   0  0  0  0  0  0  0  0  0  0  0  0
  147.5124  142.2513  152.9415 H   0  0  0  0  0  0  0  0  0  0  0  0
  146.9734  142.0018  154.5915 H   0  0  0  0  0  0  0  0  0  0  0  0
  148.5638  141.3238  156.2444 H   0  0  0  0  0  0  0  0  0  0  0  0
  151.2601  140.3296  155.8572 H   0  0  0  0  0  0  0  0  0  0  0  0
  151.1715  141.9756  155.2391 H   0  0  0  0  0  0  0  0  0  0  0  0
  152.1781  143.1299  156.9684 H   0  0  0  0  0  0  0  0  0  0  0  0
  150.5337  143.7425  156.7735 H   0  0  0  0  0  0  0  0  0  0  0  0
  150.1951  143.2301  159.3126 H   0  0  0  0  0  0  0  0  0  0  0  0
  152.3488  145.3260  158.5045 H   0  0  0  0  0  0  0  0  0  0  0  0
  151.3112  145.3396  160.0233 H   0  0  0  0  0  0  0  0  0  0  0  0
  152.2649  143.1119  160.6921 H   0  0  0  0  0  0  0  0  0  0  0  0
  153.3003  143.0989  159.1722 H   0  0  0  0  0  0  0  0  0  0  0  0
  149.1713  138.9217  156.0598 H   0  0  0  0  0  0  0  0  0  0  0  0
  149.7139  139.1493  154.4128 H   0  0  0  0  0  0  0  0  0  0  0  0
  147.4241  135.3084  156.4659 H   0  0  0  0  0  0  0  0  0  0  0  0
  1  2  1  0  0  0  0
  1 30  1  0  0  0  0
  1 31  1  0  0  0  0
  1 32  1  0  0  0  0
  2  6  1  0  0  0  0
  2  3  1  0  0  0  0
  2 33  1  0  0  0  0
  3  4  1  0  0  0  0
  4  5  1  0  0  0  0
  4 34  1  0  0  0  0
  4 35  1  0  0  0  0
  5  6  1  0  0  0  0
  5 36  1  0  0  0  0
  5 37  1  0  0  0  0
  6  7  1  0  0  0  0
  6  8  1  0  0  0  0
  7 38  1  0  0  0  0
  8  9  1  0  0  0  0
  8 39  1  0  0  0  0
  8 40  1  0  0  0  0
  9 29  1  0  0  0  0
  9 10  1  0  0  0  0
 10 11  2  0  0  0  0
 10 41  1  0  0  0  0
 11 12  1  0  0  0  0
 12 29  2  0  0  0  0
 12 13  1  0  0  0  0
 13 14  1  0  0  0  0
 13 26  2  0  0  0  0
 14 25  1  0  0  0  0
 14 15  1  0  0  0  0
 15 16  1  0  0  0  0
 15 42  1  0  0  0  0
 15 43  1  0  0  0  0
 16 17  1  0  0  0  0
 16 44  1  0  0  0  0
 16 45  1  0  0  0  0
 17 18  1  0  0  0  0
 18 19  1  0  0  0  0
 18 25  1  0  0  0  0
 18 46  1  0  0  0  0
 19 20  1  0  0  0  0
 19 47  1  0  0  0  0
 19 48  1  0  0  0  0
 20 21  1  0  0  0  0
 21 22  1  0  0  0  0
 21 49  1  0  0  0  0
 21 50  1  0  0  0  0
 22 24  1  0  0  0  0
 22 23  1  0  0  0  0
 22 51  1  0  0  0  0
 23 24  1  0  0  0  0
 23 52  1  0  0  0  0
 23 53  1  0  0  0  0
 24 54  1  0  0  0  0
 24 55  1  0  0  0  0
 25 56  1  0  0  0  0
 25 57  1  0  0  0  0
 26 27  1  0  0  0  0
 27 28  2  0  0  0  0
 27 58  1  0  0  0  0
 28 29  1  0  0  0  0
M  END
> <s_m_source_file>
AV-unprocessed.smi

> <i_m_source_file_index>
236

> <i_lp_mmshare_version>
43012

> <i_f3d_flags>
0

> <s_epik_input>
W0NIMl0xW0NIMl1PW0NAQEhdKFtDSDNdKVtDQEBdMShbT0hdKVtDSDJdbihbY0hdbjIpYyhjMjMpbltjSF1uYzNONFtDSDJdW0NIMl1PW0NASF0oW0NIMl00KVtDSDJdT1tDSDJdW0NIXTVbQ0gyXVtDSDJdNQ==

> <s_epik_cmdline>
J2VwaWtfcHl0aG9uJywgJy1waCcsICc3LjAnLCAnLXRuJywgJzgnLCAnLW1hJywgJzIwMCcsICctbWV0YWxfYmluZGluZycsICctaW1hZScsICc8aW5maWxlLm1hZT4nLCAnLW9tYWUnLCAnPG91dGZpbGUubWFlPic=

> <r_lp_tautomer_probability>
1

> <r_epik_Ionization_Penalty>
7.21838e-05

> <r_epik_Ionization_Penalty_Charging>
0

> <r_epik_Ionization_Penalty_Neutral>
7.21838e-05

> <r_epik_State_Penalty>
-0

> <r_epik_Charging_Adjusted_Penalty>
0

> <i_epik_Tot_Q>
0

> <i_epik_Tot_abs_Q>
0

> <r_epik_Metal_State_Penalty>
-0

> <b_epik_Metal_Only>
0

> <s_lp_Force_Field>
OPLS_2005

> <r_lp_Energy>
47.7421

> <b_lp_Chiralities_Consistent>
1

> <s_lp_Variant>
AV-unprocessed.smi:236-5

> <Gold.Version>
5.8.1

> <Gold.Id.Protein>
6NUR|6NUR_protein|mol2

> <Gold.PLP.Fitness>
45.8937

> <Gold.PLP.PLP>
-44.0602

> <Gold.PLP.part.hbond>
-1.8421

> <Gold.PLP.part.metal>
0.0000

> <Gold.PLP.part.buried>
-3.2120

> <Gold.PLP.part.nonpolar>
-37.9219

> <Gold.PLP.part.repulsive>
0.8976

> <Gold.PLP.ligand.clash>
0.0000

> <Gold.PLP.ligand.torsion>
1.8589

> <Gold.PLP.Chemscore.Hbond>
0.4836

> <Gold.PLP.Chemscore.CHOScore>
1.0000

> <Gold.PLP.Chemscore.Metal>
0.0000

> <Gold.Chemscore.Hbonds>
donor molecule, donor type, donor heavy atom, donor atom, acceptor molecule, acceptor atom, score
      P1  H  8011  8017       L1    17  0.25
      L1  C    10    41       P1 10171  0.99

> <Gold.PLP.Chemscore.Internal.Correction>
1.1005

> <Gold.Rescore>
     Score         DG    S(hbond)    S(metal)    S(lipo)     H(rot)  DE(clash)    DE(int)     intcor
      8.56     -13.09       0.12        0.00     124.26       2.87       0.25       4.28       ----

> <Gold.Chemscore.Fitness>
8.5630

> <Gold.Chemscore.DG>
-13.0918

> <Gold.Chemscore.ZeroCoef>
-5.4800

> <Gold.Chemscore.Hbond>
0.1224

> <Gold.Chemscore.Metal>
0.0000

> <Gold.Chemscore.Lipo>
124.2636

> <Gold.Chemscore.Internal_Hbond>
0.0000

> <Gold.Chemscore.DEClash>
0.2458

> <Gold.Chemscore.DEInternal>
4.2830

> <Gold.Chemscore.Rot>
2.8655

> <Gold.Chemscore.Internal.Correction>
   9.000000E+99

> <Gold.Chemscore.Hbonds>
donor molecule, donor type, donor heavy atom, donor atom, acceptor molecule, acceptor atom, score
      P1  H  8011  8017       L1    17  0.04

> <Gold.Chemscore.Hbond.Weighted>
-0.4088

> <Gold.Chemscore.Metal.Weighted>
-0.0000

> <Gold.Chemscore.Lipo.Weighted>
-14.5388

> <Gold.Chemscore.Internal_Hbond.Weighted>
0.0000

> <Gold.Chemscore.DEClash.Weighted>
0.2458

> <Gold.Chemscore.DEInternal.Weighted>
4.2830

> <Gold.Chemscore.Rot.Weighted>
7.3358

> <Gold.Chemscore.Internal.Correction.Weighted>
   9.000000E+99

> <Gold.Protein.RotatedTorsions>
[ 6907 6896 6895 6894 ] final  -86.64 input  -60.11 | X-H torsion
[ 7974 7965 7964 7962 ] final  -84.10 input  175.53 | X-H torsion
[ 8008 7997 7996 7995 ] final  -26.31 input   59.86 | X-H torsion
[ 10167 10162 10161 10158 ] final  124.01 input  -65.29 | X-H torsion
[ 10718 10713 10712 10709 ] final  -73.60 input   66.30 | X-H torsion
[ 10763 10752 10751 10750 ] final  172.66 input  -60.55 | X-H torsion
[ 11005 11000 10999 10996 ] final    0.69 input  -57.11 | X-H torsion

> <Gold.Protein.ActiveResidues>
 VAL166  LYS551  ARG553  GLY616  TRP617  ASP618  TYR619  PRO620  LYS621  CYS622 
 ASP623  PHE694  ASN695  SER759  ASP760  ASP761  ALA762  ILE779  LEU786  VAL792 
 PHE793  MET794  SER795  GLU796  ALA797  LYS798  CYS799  TRP800  GLU811  SER814 

> <Gold.Protein.RotatedAtoms>
  150.6866  134.3019  159.4709 H   0  0  0  0  0  0  0  0  0  0  0  0  # atno 6907 bound_to 6896
  152.0914  134.9402  160.0581 H   0  0  0  0  0  0  0  0  0  0  0  0  # atno 6908 bound_to 6896
  152.0716  133.4075  159.4498 H   0  0  0  0  0  0  0  0  0  0  0  0  # atno 6909 bound_to 6896
  145.5111  140.9540  143.1707 H   0  0  0  0  0  0  0  0  0  0  0  0  # atno 7974 bound_to 7965
  154.4431  140.1903  156.0756 H   0  0  0  0  0  0  0  0  0  0  0  0  # atno 8008 bound_to 7997
  156.0478  140.3312  155.7290 H   0  0  0  0  0  0  0  0  0  0  0  0  # atno 8009 bound_to 7997
  155.5603  140.0603  157.2821 H   0  0  0  0  0  0  0  0  0  0  0  0  # atno 8010 bound_to 7997
  139.5766  144.6966  151.3637 H   0  0  0  0  0  0  0  0  0  0  0  0  # atno 10167 bound_to 10162
  156.0274  130.4398  150.2767 H   0  0  0  0  0  0  0  0  0  0  0  0  # atno 10718 bound_to 10713
  154.4292  135.2759  155.1924 H   0  0  0  0  0  0  0  0  0  0  0  0  # atno 10763 bound_to 10752
  154.3837  135.6082  153.5808 H   0  0  0  0  0  0  0  0  0  0  0  0  # atno 10764 bound_to 10752
  152.9835  135.5886  154.4600 H   0  0  0  0  0  0  0  0  0  0  0  0  # atno 10765 bound_to 10752
  140.6238  133.9637  155.8238 H   0  0  0  0  0  0  0  0  0  0  0  0  # atno 11005 bound_to 11000
  144.7727  139.6699  143.7188 LP  0  0  0  0  0  0  0  0  0  0  0  0  # atno 17320 bound_to 7965
  146.2166  139.5560  142.9646 LP  0  0  0  0  0  0  0  0  0  0  0  0  # atno 17321 bound_to 7965
  140.7048  143.7541  150.7464 LP  0  0  0  0  0  0  0  0  0  0  0  0  # atno 17342 bound_to 10162
  140.1062  143.4741  152.2397 LP  0  0  0  0  0  0  0  0  0  0  0  0  # atno 17343 bound_to 10162
  157.0870  131.0159  151.3136 LP  0  0  0  0  0  0  0  0  0  0  0  0  # atno 17370 bound_to 10713
  157.4883  130.7807  149.7482 LP  0  0  0  0  0  0  0  0  0  0  0  0  # atno 17371 bound_to 10713
  141.0724  134.0186  157.3507 LP  0  0  0  0  0  0  0  0  0  0  0  0  # atno 17394 bound_to 11000
  139.9143  135.0195  156.7817 LP  0  0  0  0  0  0  0  0  0  0  0  0  # atno 17395 bound_to 11000

$$$$
