AV-unprocessed.smi:467|AV-procd|sdf|2645|dock4
  -GOLD-   2262023 53D 1   1.00000     0.00000
 Structure written by MMmdl.
 45 47  0  0  0  0  0  0  0  0  2 V2000
  153.5213  142.3375  160.8157 C   0  0  0  0  0  0  0  0  0  0  0  0
  152.5827  142.0994  159.6458 C   0  0  0  0  0  0  0  0  0  0  0  0
  152.5231  140.8130  159.0645 C   0  0  0  0  0  0  0  0  0  0  0  0
  151.6658  140.5499  157.9740 C   0  0  0  0  0  0  0  0  0  0  0  0
  151.4476  139.3822  157.2632 N   0  0  0  0  0  0  0  0  0  0  0  0
  150.5415  139.7750  156.3730 C   0  0  0  0  0  0  0  0  0  0  0  0
  150.1403  141.0596  156.4272 N   0  0  0  0  0  0  0  0  0  0  0  0
  149.1644  141.7040  155.5674 C   0  0  0  0  0  0  0  0  0  0  0  0
  148.6399  140.7659  154.4630 C   0  0  2  0  0  0  0  0  0  0  0  0
  149.5371  140.8529  153.3740 O   0  0  0  0  0  0  0  0  0  0  0  0
  147.2178  141.1282  153.9778 C   0  0  0  0  0  0  0  0  0  0  0  0
  146.4521  139.9486  153.5006 N   0  3  0  0  0  0  0  0  0  0  0  0
  147.1153  139.2196  152.3907 C   0  0  0  0  0  0  0  0  0  0  0  0
  146.2466  138.0371  151.9293 C   0  0  0  0  0  0  0  0  0  0  0  0
  145.9860  137.1757  153.0303 O   0  0  0  0  0  0  0  0  0  0  0  0
  145.2738  137.8385  154.0673 C   0  0  0  0  0  0  0  0  0  0  0  0
  146.1116  139.0137  154.5993 C   0  0  0  0  0  0  0  0  0  0  0  0
  150.8636  141.6182  157.4758 C   0  0  0  0  0  0  0  0  0  0  0  0
  150.9123  142.9020  158.0472 C   0  0  0  0  0  0  0  0  0  0  0  0
  151.7726  143.1469  159.1380 C   0  0  0  0  0  0  0  0  0  0  0  0
  151.8166  144.5363  159.7487 C   0  0  0  0  0  0  0  0  0  0  0  0
  154.1395  141.4616  161.0147 H   0  0  0  0  0  0  0  0  0  0  0  0
  152.9536  142.5604  161.7190 H   0  0  0  0  0  0  0  0  0  0  0  0
  154.1887  143.1749  160.6103 H   0  0  0  0  0  0  0  0  0  0  0  0
  153.1381  140.0144  159.4530 H   0  0  0  0  0  0  0  0  0  0  0  0
  150.1420  139.0880  155.6408 H   0  0  0  0  0  0  0  0  0  0  0  0
  148.3415  142.0691  156.1832 H   0  0  0  0  0  0  0  0  0  0  0  0
  149.6340  142.5836  155.1243 H   0  0  0  0  0  0  0  0  0  0  0  0
  148.6688  139.7447  154.8417 H   0  0  0  0  0  0  0  0  0  0  0  0
  149.2556  140.2596  152.6951 H   0  0  0  0  0  0  0  0  0  0  0  0
  146.6433  141.6126  154.7680 H   0  0  0  0  0  0  0  0  0  0  0  0
  147.3037  141.8628  153.1753 H   0  0  0  0  0  0  0  0  0  0  0  0
  147.2945  139.8844  151.5466 H   0  0  0  0  0  0  0  0  0  0  0  0
  148.0897  138.8558  152.7215 H   0  0  0  0  0  0  0  0  0  0  0  0
  145.3087  138.3881  151.4959 H   0  0  0  0  0  0  0  0  0  0  0  0
  146.7636  137.4714  151.1539 H   0  0  0  0  0  0  0  0  0  0  0  0
  144.3064  138.1838  153.6987 H   0  0  0  0  0  0  0  0  0  0  0  0
  145.0734  137.1272  154.8684 H   0  0  0  0  0  0  0  0  0  0  0  0
  147.0279  138.6413  155.0606 H   0  0  0  0  0  0  0  0  0  0  0  0
  145.5522  139.5397  155.3740 H   0  0  0  0  0  0  0  0  0  0  0  0
  150.2926  143.6922  157.6501 H   0  0  0  0  0  0  0  0  0  0  0  0
  151.0724  145.1929  159.2970 H   0  0  0  0  0  0  0  0  0  0  0  0
  152.7977  144.9869  159.5976 H   0  0  0  0  0  0  0  0  0  0  0  0
  151.6163  144.4923  160.8195 H   0  0  0  0  0  0  0  0  0  0  0  0
  145.5732  140.2981  153.1467 H   0  0  0  0  0  0  0  0  0  0  0  0
  1  2  1  0  0  0  0
  1 22  1  0  0  0  0
  1 23  1  0  0  0  0
  1 24  1  0  0  0  0
  2 20  1  0  0  0  0
  2  3  2  0  0  0  0
  3  4  1  0  0  0  0
  3 25  1  0  0  0  0
  4 18  2  0  0  0  0
  4  5  1  0  0  0  0
  5  6  2  0  0  0  0
  6  7  1  0  0  0  0
  6 26  1  0  0  0  0
  7  8  1  0  0  0  0
  7 18  1  0  0  0  0
  8  9  1  0  0  0  0
  8 27  1  0  0  0  0
  8 28  1  0  0  0  0
  9 10  1  0  0  0  0
  9 11  1  0  0  0  0
  9 29  1  0  0  0  0
 10 30  1  0  0  0  0
 11 12  1  0  0  0  0
 11 31  1  0  0  0  0
 11 32  1  0  0  0  0
 12 17  1  0  0  0  0
 12 13  1  0  0  0  0
 12 45  1  0  0  0  0
 13 14  1  0  0  0  0
 13 33  1  0  0  0  0
 13 34  1  0  0  0  0
 14 15  1  0  0  0  0
 14 35  1  0  0  0  0
 14 36  1  0  0  0  0
 15 16  1  0  0  0  0
 16 17  1  0  0  0  0
 16 37  1  0  0  0  0
 16 38  1  0  0  0  0
 17 39  1  0  0  0  0
 17 40  1  0  0  0  0
 18 19  1  0  0  0  0
 19 20  2  0  0  0  0
 19 41  1  0  0  0  0
 20 21  1  0  0  0  0
 21 42  1  0  0  0  0
 21 43  1  0  0  0  0
 21 44  1  0  0  0  0
M  CHG  1  12   1
M  END
> <s_m_source_file>
AV-unprocessed.smi

> <i_m_source_file_index>
467

> <i_lp_mmshare_version>
43012

> <i_f3d_flags>
0

> <s_epik_input>
W0NIM11jKFtjSF0xKWMoW0NIM10pW2NIXWMoYzEyKW4oW2NIXW4yKVtDSDJdW0NASF0oW09IXSlbQ0gyXU4zW0NIMl1bQ0gyXU9bQ0gyXVtDSDJdMw==

> <s_epik_cmdline>
J2VwaWtfcHl0aG9uJywgJy1waCcsICc3LjAnLCAnLXRuJywgJzgnLCAnLW1hJywgJzIwMCcsICctbWV0YWxfYmluZGluZycsICctaW1hZScsICc8aW5maWxlLm1hZT4nLCAnLW9tYWUnLCAnPG91dGZpbGUubWFlPic=

> <r_epik_Ionization_Penalty>
0.695168

> <r_epik_Ionization_Penalty_Charging>
0.608065

> <r_epik_Ionization_Penalty_Neutral>
0.0871028

> <r_epik_State_Penalty>
0.731876

> <r_epik_Charging_Adjusted_Penalty>
1.33994

> <i_epik_Tot_Q>
1

> <i_epik_Tot_abs_Q>
1

> <r_epik_Metal_State_Penalty>
0.652189

> <b_epik_Metal_Only>
0

> <s_lp_Force_Field>
OPLS_2005

> <r_lp_Energy>
23.0141

> <b_lp_Chiralities_Consistent>
1

> <s_lp_Variant>
AV-unprocessed.smi:467-3

> <Gold.Version>
5.8.1

> <Gold.Id.Protein>
6NUR|6NUR_protein|mol2

> <Gold.PLP.Fitness>
52.4086

> <Gold.PLP.PLP>
-42.0435

> <Gold.PLP.part.hbond>
-3.1241

> <Gold.PLP.part.metal>
0.0000

> <Gold.PLP.part.buried>
-1.0611

> <Gold.PLP.part.nonpolar>
-38.7870

> <Gold.PLP.part.repulsive>
0.1861

> <Gold.PLP.ligand.clash>
0.0000

> <Gold.PLP.ligand.torsion>
0.7065

> <Gold.PLP.Chemscore.Hbond>
3.9064

> <Gold.PLP.Chemscore.CHOScore>
0.0000

> <Gold.PLP.Chemscore.Metal>
0.0000

> <Gold.Chemscore.Hbonds>
donor molecule, donor type, donor heavy atom, donor atom, acceptor molecule, acceptor atom, score
      L1  H    10    30       P1  7957  0.70
      L1  H    12    45       P1 10175  2.00
      P1  H  7989  7998       L1    10  0.25
      P1  H  8011  8017       L1    10  0.95

> <Gold.PLP.Chemscore.Internal.Correction>
0.0589

> <Gold.Rescore>
     Score         DG    S(hbond)    S(metal)    S(lipo)     H(rot)  DE(clash)    DE(int)     intcor
     20.40     -21.21       2.26        0.00     115.77       2.10       0.13       0.68       ----

> <Gold.Chemscore.Fitness>
20.3975

> <Gold.Chemscore.DG>
-21.2082

> <Gold.Chemscore.ZeroCoef>
-5.4800

> <Gold.Chemscore.Hbond>
2.2640

> <Gold.Chemscore.Metal>
0.0000

> <Gold.Chemscore.Lipo>
115.7718

> <Gold.Chemscore.Internal_Hbond>
0.0000

> <Gold.Chemscore.DEClash>
0.1288

> <Gold.Chemscore.DEInternal>
0.6820

> <Gold.Chemscore.Rot>
2.1011

> <Gold.Chemscore.Internal.Correction>
   9.000000E+99

> <Gold.Chemscore.Hbonds>
donor molecule, donor type, donor heavy atom, donor atom, acceptor molecule, acceptor atom, score
      L1  H    10    30       P1  7957  0.69
      L1  H    12    45       P1 10175  0.93
      P1  H  7989  7998       L1    10  0.19
      P1  H  8011  8017       L1    10  0.21

> <Gold.Chemscore.Hbond.Weighted>
-7.5619

> <Gold.Chemscore.Metal.Weighted>
-0.0000

> <Gold.Chemscore.Lipo.Weighted>
-13.5453

> <Gold.Chemscore.Internal_Hbond.Weighted>
0.0000

> <Gold.Chemscore.DEClash.Weighted>
0.1288

> <Gold.Chemscore.DEInternal.Weighted>
0.6820

> <Gold.Chemscore.Rot.Weighted>
5.3789

> <Gold.Chemscore.Internal.Correction.Weighted>
   9.000000E+99

> <Gold.Protein.RotatedTorsions>
[ 6907 6896 6895 6894 ] final  -87.82 input  -60.11 | X-H torsion
[ 7974 7965 7964 7962 ] final -168.54 input  175.53 | X-H torsion
[ 8008 7997 7996 7995 ] final   80.88 input   59.86 | X-H torsion
[ 10167 10162 10161 10158 ] final   -3.15 input  -65.29 | X-H torsion
[ 10718 10713 10712 10709 ] final -111.56 input   66.30 | X-H torsion
[ 10763 10752 10751 10750 ] final  -22.17 input  -60.55 | X-H torsion
[ 11005 11000 10999 10996 ] final -105.71 input  -57.11 | X-H torsion

> <Gold.Protein.ActiveResidues>
 VAL166  LYS551  ARG553  GLY616  TRP617  ASP618  TYR619  PRO620  LYS621  CYS622 
 ASP623  PHE694  ASN695  SER759  ASP760  ASP761  ALA762  ILE779  LEU786  VAL792 
 PHE793  MET794  SER795  GLU796  ALA797  LYS798  CYS799  TRP800  GLU811  SER814 

> <Gold.Protein.RotatedAtoms>
  150.6867  134.2837  159.4637 H   0  0  0  0  0  0  0  0  0  0  0  0  # atno 6907 bound_to 6896
  152.0748  134.9507  160.0583 H   0  0  0  0  0  0  0  0  0  0  0  0  # atno 6908 bound_to 6896
  152.0883  133.4152  159.4569 H   0  0  0  0  0  0  0  0  0  0  0  0  # atno 6909 bound_to 6896
  144.7201  140.2354  143.6298 H   0  0  0  0  0  0  0  0  0  0  0  0  # atno 7974 bound_to 7965
  155.8896  140.3439  155.5946 H   0  0  0  0  0  0  0  0  0  0  0  0  # atno 8008 bound_to 7997
  155.7626  140.0834  157.2166 H   0  0  0  0  0  0  0  0  0  0  0  0  # atno 8009 bound_to 7997
  154.4032  140.1533  156.2838 H   0  0  0  0  0  0  0  0  0  0  0  0  # atno 8010 bound_to 7997
  140.6879  143.6573  150.8297 H   0  0  0  0  0  0  0  0  0  0  0  0  # atno 10167 bound_to 10162
  156.0654  130.5874  150.8390 H   0  0  0  0  0  0  0  0  0  0  0  0  # atno 10718 bound_to 10713
  153.6478  135.6982  153.5219 H   0  0  0  0  0  0  0  0  0  0  0  0  # atno 10763 bound_to 10752
  153.2731  135.4209  155.1006 H   0  0  0  0  0  0  0  0  0  0  0  0  # atno 10764 bound_to 10752
  154.8484  135.3583  154.6022 H   0  0  0  0  0  0  0  0  0  0  0  0  # atno 10765 bound_to 10752
  141.1040  133.8831  157.1767 H   0  0  0  0  0  0  0  0  0  0  0  0  # atno 11005 bound_to 11000
  145.8370  139.2112  143.1849 LP  0  0  0  0  0  0  0  0  0  0  0  0  # atno 17320 bound_to 7965
  146.0380  140.8193  142.9843 LP  0  0  0  0  0  0  0  0  0  0  0  0  # atno 17321 bound_to 7965
  140.0283  143.5471  152.2771 LP  0  0  0  0  0  0  0  0  0  0  0  0  # atno 17342 bound_to 10162
  139.6254  144.7636  151.2650 LP  0  0  0  0  0  0  0  0  0  0  0  0  # atno 17343 bound_to 10162
  157.5692  131.0946  150.9443 LP  0  0  0  0  0  0  0  0  0  0  0  0  # atno 17370 bound_to 10713
  156.9663  130.5474  149.5288 LP  0  0  0  0  0  0  0  0  0  0  0  0  # atno 17371 bound_to 10713
  139.9903  135.0067  156.9959 LP  0  0  0  0  0  0  0  0  0  0  0  0  # atno 17394 bound_to 11000
  140.4949  134.1155  155.7239 LP  0  0  0  0  0  0  0  0  0  0  0  0  # atno 17395 bound_to 11000

$$$$
