AV-unprocessed.smi:243|AV-procd|sdf|1862|dock7
  -GOLD-   2262020493D 1   1.00000     0.00000
 Structure written by MMmdl.
 58 61  0  0  0  0  0  0  0  0  2 V2000
  146.6390  128.2558  151.9368 C   0  0  0  0  0  0  0  0  0  0  0  0
  145.9336  129.6061  151.7414 C   0  0  0  0  0  0  0  0  0  0  0  0
  146.7805  130.7581  152.1430 N   0  3  2  0  0  0  0  0  0  0  0  0
  147.5042  130.5318  153.4191 C   0  0  0  0  0  0  0  0  0  0  0  0
  148.4559  131.6995  153.7442 C   0  0  0  0  0  0  0  0  0  0  0  0
  147.7786  133.0883  153.7346 C   0  0  2  0  0  0  0  0  0  0  0  0
  147.1382  133.4653  155.0095 N   0  0  0  0  0  0  0  0  0  0  0  0
  146.0390  132.6610  155.5338 C   0  0  0  0  0  0  0  0  0  0  0  0
  147.8238  134.1373  155.9617 C   0  0  0  0  0  0  0  0  0  0  0  0
  147.3677  134.1310  157.2405 N   0  0  0  0  0  0  0  0  0  0  0  0
  148.0357  134.7895  158.1924 C   0  0  0  0  0  0  0  0  0  0  0  0
  149.1531  135.5109  158.0803 N   0  0  0  0  0  0  0  0  0  0  0  0
  149.5936  135.5468  156.7900 C   0  0  0  0  0  0  0  0  0  0  0  0
  148.9894  134.8983  155.6770 C   0  0  0  0  0  0  0  0  0  0  0  0
  149.7143  135.1611  154.5220 N   0  0  0  0  0  0  0  0  0  0  0  0
  150.6989  135.9140  154.9304 C   0  0  0  0  0  0  0  0  0  0  0  0
  150.7013  136.1990  156.2775 N   0  0  0  0  0  0  0  0  0  0  0  0
  151.6733  137.0085  156.9962 C   0  0  0  0  0  0  0  0  0  0  0  0
  151.7063  138.4847  156.5369 C   0  0  2  0  0  0  0  0  0  0  0  0
  152.6265  139.2000  157.3426 O   0  0  0  0  0  0  0  0  0  0  0  0
  150.3542  139.1902  156.6037 C   0  0  0  0  0  0  0  0  0  0  0  0
  150.4213  140.1664  155.4375 C   0  0  0  0  0  0  0  0  0  0  0  0
  151.0799  139.4060  154.4397 O   0  0  0  0  0  0  0  0  0  0  0  0
  152.1166  138.6526  155.0601 C   0  0  0  0  0  0  0  0  0  0  0  0
  146.9254  133.2431  152.4425 C   0  0  2  0  0  0  0  0  0  0  0  0
  146.1658  134.5733  152.3174 C   0  0  0  0  0  0  0  0  0  0  0  0
  146.0130  132.0289  152.1678 C   0  0  0  0  0  0  0  0  0  0  0  0
  146.0272  127.4448  151.5412 H   0  0  0  0  0  0  0  0  0  0  0  0
  146.8224  128.0353  152.9879 H   0  0  0  0  0  0  0  0  0  0  0  0
  147.5955  128.2315  151.4138 H   0  0  0  0  0  0  0  0  0  0  0  0
  145.6831  129.6967  150.6837 H   0  0  0  0  0  0  0  0  0  0  0  0
  144.9874  129.6293  152.2841 H   0  0  0  0  0  0  0  0  0  0  0  0
  146.7806  130.3703  154.2156 H   0  0  0  0  0  0  0  0  0  0  0  0
  148.0950  129.6189  153.3580 H   0  0  0  0  0  0  0  0  0  0  0  0
  148.9701  131.5280  154.6894 H   0  0  0  0  0  0  0  0  0  0  0  0
  149.2424  131.7036  152.9883 H   0  0  0  0  0  0  0  0  0  0  0  0
  148.5965  133.8037  153.6406 H   0  0  0  0  0  0  0  0  0  0  0  0
  146.3834  131.9233  156.2583 H   0  0  0  0  0  0  0  0  0  0  0  0
  145.5227  132.1321  154.7328 H   0  0  0  0  0  0  0  0  0  0  0  0
  145.3100  133.3033  156.0292 H   0  0  0  0  0  0  0  0  0  0  0  0
  147.6154  134.7301  159.1855 H   0  0  0  0  0  0  0  0  0  0  0  0
  151.4546  136.2861  154.2539 H   0  0  0  0  0  0  0  0  0  0  0  0
  151.4521  136.9486  158.0628 H   0  0  0  0  0  0  0  0  0  0  0  0
  152.6555  136.5530  156.8629 H   0  0  0  0  0  0  0  0  0  0  0  0
  152.5783  138.8634  158.2241 H   0  0  0  0  0  0  0  0  0  0  0  0
  149.5479  138.4798  156.4162 H   0  0  0  0  0  0  0  0  0  0  0  0
  150.1547  139.6742  157.5608 H   0  0  0  0  0  0  0  0  0  0  0  0
  149.4374  140.4999  155.1074 H   0  0  0  0  0  0  0  0  0  0  0  0
  151.0195  141.0431  155.6904 H   0  0  0  0  0  0  0  0  0  0  0  0
  153.0644  139.1832  154.9548 H   0  0  0  0  0  0  0  0  0  0  0  0
  152.2208  137.6968  154.5457 H   0  0  0  0  0  0  0  0  0  0  0  0
  147.6478  133.2515  151.6245 H   0  0  0  0  0  0  0  0  0  0  0  0
  145.3352  134.6306  153.0204 H   0  0  0  0  0  0  0  0  0  0  0  0
  145.7486  134.6893  151.3169 H   0  0  0  0  0  0  0  0  0  0  0  0
  146.8243  135.4236  152.4951 H   0  0  0  0  0  0  0  0  0  0  0  0
  145.5308  132.1674  151.1993 H   0  0  0  0  0  0  0  0  0  0  0  0
  145.2096  131.9567  152.8977 H   0  0  0  0  0  0  0  0  0  0  0  0
  147.4794  130.8662  151.4217 H   0  0  0  0  0  0  0  0  0  0  0  0
  1  2  1  0  0  0  0
  1 28  1  0  0  0  0
  1 29  1  0  0  0  0
  1 30  1  0  0  0  0
  2  3  1  0  0  0  0
  2 31  1  0  0  0  0
  2 32  1  0  0  0  0
  3 27  1  0  0  0  0
  3  4  1  0  0  0  0
  3 58  1  0  0  0  0
  4  5  1  0  0  0  0
  4 33  1  0  0  0  0
  4 34  1  0  0  0  0
  5  6  1  0  0  0  0
  5 35  1  0  0  0  0
  5 36  1  0  0  0  0
  6  7  1  0  0  0  0
  6 25  1  0  0  0  0
  6 37  1  0  0  0  0
  7  8  1  0  0  0  0
  7  9  1  0  0  0  0
  8 38  1  0  0  0  0
  8 39  1  0  0  0  0
  8 40  1  0  0  0  0
  9 14  1  0  0  0  0
  9 10  2  0  0  0  0
 10 11  1  0  0  0  0
 11 12  2  0  0  0  0
 11 41  1  0  0  0  0
 12 13  1  0  0  0  0
 13 17  1  0  0  0  0
 13 14  2  0  0  0  0
 14 15  1  0  0  0  0
 15 16  2  0  0  0  0
 16 17  1  0  0  0  0
 16 42  1  0  0  0  0
 17 18  1  0  0  0  0
 18 19  1  0  0  0  0
 18 43  1  0  0  0  0
 18 44  1  0  0  0  0
 19 24  1  0  0  0  0
 19 20  1  0  0  0  0
 19 21  1  0  0  0  0
 20 45  1  0  0  0  0
 21 22  1  0  0  0  0
 21 46  1  0  0  0  0
 21 47  1  0  0  0  0
 22 23  1  0  0  0  0
 22 48  1  0  0  0  0
 22 49  1  0  0  0  0
 23 24  1  0  0  0  0
 24 50  1  0  0  0  0
 24 51  1  0  0  0  0
 25 26  1  0  0  0  0
 25 27  1  0  0  0  0
 25 52  1  0  0  0  0
 26 53  1  0  0  0  0
 26 54  1  0  0  0  0
 26 55  1  0  0  0  0
 27 56  1  0  0  0  0
 27 57  1  0  0  0  0
M  CHG  1   3   1
M  END
> <s_m_source_file>
AV-unprocessed.smi

> <i_m_source_file_index>
243

> <i_lp_mmshare_version>
43012

> <i_f3d_flags>
0

> <s_epik_input>
W0NIM11bQ0gyXU4xW0NIMl1bQ0gyXVtDQEhdKFtDQEBIXShbQ0gzXSlbQ0gyXTEpTihbQ0gzXSljKG5bY0hdbjIpYyhjMjMpbltjSF1uM1tDSDJdW0NAQF00KFtPSF0pW0NIMl1bQ0gyXU9bQ0gyXTQ=

> <s_epik_cmdline>
J2VwaWtfcHl0aG9uJywgJy1waCcsICc3LjAnLCAnLXRuJywgJzgnLCAnLW1hJywgJzIwMCcsICctbWV0YWxfYmluZGluZycsICctaW1hZScsICc8aW5maWxlLm1hZT4nLCAnLW9tYWUnLCAnPG91dGZpbGUubWFlPic=

> <r_lp_tautomer_probability>
1

> <r_epik_Ionization_Penalty>
0.00253099

> <r_epik_Ionization_Penalty_Charging>
0.00137877

> <r_epik_Ionization_Penalty_Neutral>
0.00115221

> <r_epik_State_Penalty>
-0

> <r_epik_Charging_Adjusted_Penalty>
0.00137877

> <i_epik_Tot_Q>
1

> <i_epik_Tot_abs_Q>
1

> <r_epik_Metal_State_Penalty>
-0

> <b_epik_Metal_Only>
0

> <s_lp_Force_Field>
OPLS_2005

> <r_lp_Energy>
52.4668

> <b_lp_Chiralities_Consistent>
1

> <s_lp_Variant>
AV-unprocessed.smi:243-15

> <Gold.Version>
5.8.1

> <Gold.Id.Protein>
6NUR|6NUR_protein|mol2

> <Gold.PLP.Fitness>
48.6743

> <Gold.PLP.PLP>
-35.1017

> <Gold.PLP.part.hbond>
-4.0000

> <Gold.PLP.part.metal>
0.0000

> <Gold.PLP.part.buried>
-3.4129

> <Gold.PLP.part.nonpolar>
-29.3371

> <Gold.PLP.part.repulsive>
1.9934

> <Gold.PLP.ligand.clash>
0.0000

> <Gold.PLP.ligand.torsion>
0.5661

> <Gold.PLP.Chemscore.Hbond>
3.8500

> <Gold.PLP.Chemscore.CHOScore>
0.7343

> <Gold.PLP.Chemscore.Metal>
0.0000

> <Gold.Chemscore.Hbonds>
donor molecule, donor type, donor heavy atom, donor atom, acceptor molecule, acceptor atom, score
      L1  H     3    58       P1 10747  1.00
      P1  H  6896  6909       L1    12  0.31
      P1  H  7989  7998       L1    23  0.75
      P1  H  7997  8010       L1    20  0.89
      L1  C    16    42       P1  7949  0.29

> <Gold.PLP.Chemscore.Internal.Correction>
0.9521

> <Gold.Rescore>
     Score         DG    S(hbond)    S(metal)    S(lipo)     H(rot)  DE(clash)    DE(int)     intcor
     16.80     -18.72       2.78        0.00      82.87       2.24       0.10       1.82       ----

> <Gold.Chemscore.Fitness>
16.8029

> <Gold.Chemscore.DG>
-18.7217

> <Gold.Chemscore.ZeroCoef>
-5.4800

> <Gold.Chemscore.Hbond>
2.7768

> <Gold.Chemscore.Metal>
0.0000

> <Gold.Chemscore.Lipo>
82.8738

> <Gold.Chemscore.Internal_Hbond>
0.0000

> <Gold.Chemscore.DEClash>
0.1004

> <Gold.Chemscore.DEInternal>
1.8184

> <Gold.Chemscore.Rot>
2.2379

> <Gold.Chemscore.Internal.Correction>
   9.000000E+99

> <Gold.Chemscore.Hbonds>
donor molecule, donor type, donor heavy atom, donor atom, acceptor molecule, acceptor atom, score
      L1  H     3    58       P1 10747  1.00
      P1  H  6896  6909       L1    12  0.15
      P1  H  7989  7998       L1    23  0.08
      P1  H  7997  8010       L1    20  0.83

> <Gold.Chemscore.Hbond.Weighted>
-9.2745

> <Gold.Chemscore.Metal.Weighted>
-0.0000

> <Gold.Chemscore.Lipo.Weighted>
-9.6962

> <Gold.Chemscore.Internal_Hbond.Weighted>
0.0000

> <Gold.Chemscore.DEClash.Weighted>
0.1004

> <Gold.Chemscore.DEInternal.Weighted>
1.8184

> <Gold.Chemscore.Rot.Weighted>
5.7291

> <Gold.Chemscore.Internal.Correction.Weighted>
   9.000000E+99

> <Gold.Protein.RotatedTorsions>
[ 6907 6896 6895 6894 ] final   48.89 input  -60.11 | X-H torsion
[ 7974 7965 7964 7962 ] final   -6.78 input  175.53 | X-H torsion
[ 8008 7997 7996 7995 ] final   57.85 input   59.86 | X-H torsion
[ 10167 10162 10161 10158 ] final    6.23 input  -65.29 | X-H torsion
[ 10718 10713 10712 10709 ] final   18.60 input   66.30 | X-H torsion
[ 10763 10752 10751 10750 ] final  -55.78 input  -60.55 | X-H torsion
[ 11005 11000 10999 10996 ] final -164.37 input  -57.11 | X-H torsion

> <Gold.Protein.ActiveResidues>
 VAL166  LYS551  ARG553  GLY616  TRP617  ASP618  TYR619  PRO620  LYS621  CYS622 
 ASP623  PHE694  ASN695  SER759  ASP760  ASP761  ALA762  ILE779  LEU786  VAL792 
 PHE793  MET794  SER795  GLU796  ALA797  LYS798  CYS799  TRP800  GLU811  SER814 

> <Gold.Protein.RotatedAtoms>
  152.2847  134.7789  160.0389 H   0  0  0  0  0  0  0  0  0  0  0  0  # atno 6907 bound_to 6896
  151.8357  133.3410  159.3635 H   0  0  0  0  0  0  0  0  0  0  0  0  # atno 6908 bound_to 6896
  150.7204  134.5369  159.5772 H   0  0  0  0  0  0  0  0  0  0  0  0  # atno 6909 bound_to 6896
  146.2323  140.2222  142.8338 H   0  0  0  0  0  0  0  0  0  0  0  0  # atno 7974 bound_to 7965
  155.5404  140.3484  155.4445 H   0  0  0  0  0  0  0  0  0  0  0  0  # atno 8008 bound_to 7997
  156.0655  140.1350  156.9917 H   0  0  0  0  0  0  0  0  0  0  0  0  # atno 8009 bound_to 7997
  154.4501  140.0976  156.6566 H   0  0  0  0  0  0  0  0  0  0  0  0  # atno 8010 bound_to 7997
  140.6439  143.7708  150.7469 H   0  0  0  0  0  0  0  0  0  0  0  0  # atno 10167 bound_to 10162
  157.0986  130.6458  149.5866 H   0  0  0  0  0  0  0  0  0  0  0  0  # atno 10718 bound_to 10713
  154.1962  135.6419  153.5074 H   0  0  0  0  0  0  0  0  0  0  0  0  # atno 10763 bound_to 10752
  153.0023  135.5440  154.6363 H   0  0  0  0  0  0  0  0  0  0  0  0  # atno 10764 bound_to 10752
  154.5765  135.2921  155.0749 H   0  0  0  0  0  0  0  0  0  0  0  0  # atno 10765 bound_to 10752
  140.5876  134.5077  157.5188 H   0  0  0  0  0  0  0  0  0  0  0  0  # atno 11005 bound_to 11000
  144.9623  140.8287  143.5506 LP  0  0  0  0  0  0  0  0  0  0  0  0  # atno 17320 bound_to 7965
  145.2194  139.2166  143.5101 LP  0  0  0  0  0  0  0  0  0  0  0  0  # atno 17321 bound_to 7965
  140.1346  143.4496  152.2233 LP  0  0  0  0  0  0  0  0  0  0  0  0  # atno 17342 bound_to 10162
  139.5649  144.7429  151.4051 LP  0  0  0  0  0  0  0  0  0  0  0  0  # atno 17343 bound_to 10162
  155.9879  130.4921  150.7147 LP  0  0  0  0  0  0  0  0  0  0  0  0  # atno 17370 bound_to 10713
  157.4660  131.0888  151.0694 LP  0  0  0  0  0  0  0  0  0  0  0  0  # atno 17371 bound_to 10713
  139.9288  134.8003  156.0989 LP  0  0  0  0  0  0  0  0  0  0  0  0  # atno 17394 bound_to 11000
  141.0956  133.6697  156.2637 LP  0  0  0  0  0  0  0  0  0  0  0  0  # atno 17395 bound_to 11000

$$$$
