AV-unprocessed.smi:1220|AV-procd|sdf|5117|dock6
  -GOLD-   22720 4173D 1   1.00000     0.00000
 Structure written by MMmdl.
 35 36  0  0  0  0  0  0  0  0  1 V2000
  145.5533  135.8706  151.8838 C   0  0  0  0  0  0  0  0  0  0  0  0
  146.1528  134.7710  152.7705 C   0  0  1  0  0  0  0  0  0  0  0  0
  146.6789  133.5912  151.9245 C   0  0  0  0  0  0  0  0  0  0  0  0
  145.6801  133.0642  151.0109 N   0  0  0  0  0  0  0  0  0  0  0  0
  145.8649  132.2345  149.9247 C   0  0  0  0  0  0  0  0  0  0  0  0
  144.6345  131.9913  149.3856 C   0  0  0  0  0  0  0  0  0  0  0  0
  143.7487  132.7299  150.2190 C   0  0  0  0  0  0  0  0  0  0  0  0
  144.3779  133.3744  151.1885 N   0  0  0  0  0  0  0  0  0  0  0  0
  147.2261  135.3464  153.5807 N   0  0  0  0  0  0  0  0  0  0  0  0
  147.2263  135.4546  154.9192 C   0  0  0  0  0  0  0  0  0  0  0  0
  146.2814  135.1071  155.6278 O   0  0  0  0  0  0  0  0  0  0  0  0
  148.5006  136.0217  155.5552 C   0  0  1  0  0  0  0  0  0  0  0  0
  148.3987  136.1158  157.0930 C   0  0  0  0  0  0  0  0  0  0  0  0
  149.8006  136.3685  157.6566 C   0  0  0  0  0  0  0  0  0  0  0  0
  150.9467  135.4600  156.5547 S   0  0  0  0  0  0  0  0  0  0  0  0
  151.9883  136.3835  156.0804 O   0  0  0  0  0  0  0  0  0  0  0  0
  151.3000  134.1718  157.1700 O   0  0  0  0  0  0  0  0  0  0  0  0
  149.7329  135.1640  155.2141 C   0  0  0  0  0  0  0  0  0  0  0  0
  144.7268  135.4847  151.2864 H   0  0  0  0  0  0  0  0  0  0  0  0
  146.2968  136.2792  151.1982 H   0  0  0  0  0  0  0  0  0  0  0  0
  145.1661  136.6935  152.4858 H   0  0  0  0  0  0  0  0  0  0  0  0
  145.3518  134.4091  153.4178 H   0  0  0  0  0  0  0  0  0  0  0  0
  147.5413  133.9064  151.3351 H   0  0  0  0  0  0  0  0  0  0  0  0
  147.0237  132.7817  152.5693 H   0  0  0  0  0  0  0  0  0  0  0  0
  146.8444  131.8838  149.6350 H   0  0  0  0  0  0  0  0  0  0  0  0
  144.4018  131.3779  148.5280 H   0  0  0  0  0  0  0  0  0  0  0  0
  142.6745  132.8163  150.1489 H   0  0  0  0  0  0  0  0  0  0  0  0
  148.0473  135.6610  153.0843 H   0  0  0  0  0  0  0  0  0  0  0  0
  148.6768  137.0292  155.1741 H   0  0  0  0  0  0  0  0  0  0  0  0
  147.7043  136.8970  157.4036 H   0  0  0  0  0  0  0  0  0  0  0  0
  148.0234  135.1764  157.5022 H   0  0  0  0  0  0  0  0  0  0  0  0
  150.0532  137.4277  157.6059 H   0  0  0  0  0  0  0  0  0  0  0  0
  149.9166  136.0297  158.6863 H   0  0  0  0  0  0  0  0  0  0  0  0
  149.5022  134.0977  155.2008 H   0  0  0  0  0  0  0  0  0  0  0  0
  150.1754  135.4314  154.2546 H   0  0  0  0  0  0  0  0  0  0  0  0
  1  2  1  0  0  0  0
  1 19  1  0  0  0  0
  1 20  1  0  0  0  0
  1 21  1  0  0  0  0
  2  3  1  0  0  0  0
  2  9  1  0  0  0  0
  2 22  1  0  0  0  0
  3  4  1  0  0  0  0
  3 23  1  0  0  0  0
  3 24  1  0  0  0  0
  4  8  1  0  0  0  0
  4  5  1  0  0  0  0
  5  6  2  0  0  0  0
  5 25  1  0  0  0  0
  6  7  1  0  0  0  0
  6 26  1  0  0  0  0
  7  8  2  0  0  0  0
  7 27  1  0  0  0  0
  9 10  1  0  0  0  0
  9 28  1  0  0  0  0
 10 11  2  0  0  0  0
 10 12  1  0  0  0  0
 12 18  1  0  0  0  0
 12 13  1  0  0  0  0
 12 29  1  0  0  0  0
 13 14  1  0  0  0  0
 13 30  1  0  0  0  0
 13 31  1  0  0  0  0
 14 15  1  0  0  0  0
 14 32  1  0  0  0  0
 14 33  1  0  0  0  0
 15 16  2  0  0  0  0
 15 17  2  0  0  0  0
 15 18  1  0  0  0  0
 18 34  1  0  0  0  0
 18 35  1  0  0  0  0
M  END
> <s_m_source_file>
AV-unprocessed.smi

> <i_m_source_file_index>
1220

> <i_lp_mmshare_version>
43012

> <i_f3d_flags>
0

> <s_epik_input>
bjFbY0hdW2NIXVtjSF1uMVtDSDJdW0NAQEhdKFtDSDNdKVtOSF1DKD1PKVtDQEBIXShbQ0gyXTIpW0NIMl1bQ0gyXVMyKD1PKT1P

> <s_epik_cmdline>
J2VwaWtfcHl0aG9uJywgJy1waCcsICc3LjAnLCAnLXRuJywgJzgnLCAnLW1hJywgJzIwMCcsICctbWV0YWxfYmluZGluZycsICctaW1hZScsICc8aW5maWxlLm1hZT4nLCAnLW9tYWUnLCAnPG91dGZpbGUubWFlPic=

> <r_lp_tautomer_probability>
1

> <r_epik_Ionization_Penalty>
0.000293905

> <r_epik_Ionization_Penalty_Charging>
0

> <r_epik_Ionization_Penalty_Neutral>
0.000293905

> <r_epik_State_Penalty>
-0

> <r_epik_Charging_Adjusted_Penalty>
0

> <i_epik_Tot_Q>
0

> <i_epik_Tot_abs_Q>
0

> <r_epik_Metal_State_Penalty>
-0

> <b_epik_Metal_Only>
0

> <s_lp_Force_Field>
OPLS_2005

> <r_lp_Energy>
3.0384

> <b_lp_Chiralities_Consistent>
1

> <s_lp_Variant>
AV-unprocessed.smi:1220-4

> <Gold.Version>
5.8.1

> <Gold.Id.Protein>
6NUR|6NUR_protein|mol2

> <Gold.PLP.Fitness>
37.5329

> <Gold.PLP.PLP>
-25.0508

> <Gold.PLP.part.hbond>
-3.0000

> <Gold.PLP.part.metal>
0.0000

> <Gold.PLP.part.buried>
-3.1492

> <Gold.PLP.part.nonpolar>
-19.5333

> <Gold.PLP.part.repulsive>
0.1591

> <Gold.PLP.ligand.clash>
0.0000

> <Gold.PLP.ligand.torsion>
0.2374

> <Gold.PLP.Chemscore.Hbond>
2.3120

> <Gold.PLP.Chemscore.CHOScore>
2.0000

> <Gold.PLP.Chemscore.Metal>
0.0000

> <Gold.Chemscore.Hbonds>
donor molecule, donor type, donor heavy atom, donor atom, acceptor molecule, acceptor atom, score
      L1  H     9    28       P1  7948  1.00
      P1  H  6896  6908       L1    17  0.25
      P1  H 10752 10763       L1    16  1.00
      L1  C     5    25       P1 10747  1.00
      L1  C     7    27       P1 10186  1.00

> <Gold.PLP.Chemscore.Internal.Correction>
0.0209

> <Gold.Rescore>
     Score         DG    S(hbond)    S(metal)    S(lipo)     H(rot)  DE(clash)    DE(int)     intcor
     14.90     -16.47       2.59        0.00      58.20       1.75       0.06       1.52       ----

> <Gold.Chemscore.Fitness>
14.8960

> <Gold.Chemscore.DG>
-16.4735

> <Gold.Chemscore.ZeroCoef>
-5.4800

> <Gold.Chemscore.Hbond>
2.5910

> <Gold.Chemscore.Metal>
0.0000

> <Gold.Chemscore.Lipo>
58.1988

> <Gold.Chemscore.Internal_Hbond>
0.0000

> <Gold.Chemscore.DEClash>
0.0553

> <Gold.Chemscore.DEInternal>
1.5223

> <Gold.Chemscore.Rot>
1.7460

> <Gold.Chemscore.Internal.Correction>
   9.000000E+99

> <Gold.Chemscore.Hbonds>
donor molecule, donor type, donor heavy atom, donor atom, acceptor molecule, acceptor atom, score
      L1  H     9    28       P1  7948  0.98
      P1  H  6896  6908       L1    17  0.25
      P1  H 10752 10763       L1    16  0.69

> <Gold.Chemscore.Hbond.Weighted>
-8.6540

> <Gold.Chemscore.Metal.Weighted>
-0.0000

> <Gold.Chemscore.Lipo.Weighted>
-6.8093

> <Gold.Chemscore.Internal_Hbond.Weighted>
0.0000

> <Gold.Chemscore.DEClash.Weighted>
0.0553

> <Gold.Chemscore.DEInternal.Weighted>
1.5223

> <Gold.Chemscore.Rot.Weighted>
4.4697

> <Gold.Chemscore.Internal.Correction.Weighted>
   9.000000E+99

> <Gold.Protein.RotatedTorsions>
[ 6907 6896 6895 6894 ] final   95.61 input  -60.11 | X-H torsion
[ 7974 7965 7964 7962 ] final   45.53 input  175.53 | X-H torsion
[ 8008 7997 7996 7995 ] final  -29.58 input   59.86 | X-H torsion
[ 10167 10162 10161 10158 ] final  -46.77 input  -65.29 | X-H torsion
[ 10718 10713 10712 10709 ] final  155.71 input   66.30 | X-H torsion
[ 10763 10752 10751 10750 ] final   72.91 input  -60.55 | X-H torsion
[ 11005 11000 10999 10996 ] final  167.05 input  -57.11 | X-H torsion

> <Gold.Protein.ActiveResidues>
 VAL166  LYS551  ARG553  GLY616  TRP617  ASP618  TYR619  PRO620  LYS621  CYS622 
 ASP623  PHE694  ASN695  SER759  ASP760  ASP761  ALA762  ILE779  LEU786  VAL792 
 PHE793  MET794  SER795  GLU796  ALA797  LYS798  CYS799  TRP800  GLU811  SER814 

> <Gold.Protein.RotatedAtoms>
  152.5442  134.1013  159.8318 H   0  0  0  0  0  0  0  0  0  0  0  0  # atno 6907 bound_to 6896
  151.1091  133.5179  159.2614 H   0  0  0  0  0  0  0  0  0  0  0  0  # atno 6908 bound_to 6896
  151.1905  135.0409  159.8885 H   0  0  0  0  0  0  0  0  0  0  0  0  # atno 6909 bound_to 6896
  146.0471  139.4954  142.9741 H   0  0  0  0  0  0  0  0  0  0  0  0  # atno 7974 bound_to 7965
  154.4284  140.1814  156.1271 H   0  0  0  0  0  0  0  0  0  0  0  0  # atno 8008 bound_to 7997
  156.0097  140.3352  155.6903 H   0  0  0  0  0  0  0  0  0  0  0  0  # atno 8009 bound_to 7997
  155.6128  140.0651  157.2692 H   0  0  0  0  0  0  0  0  0  0  0  0  # atno 8010 bound_to 7997
  140.6803  143.2815  151.3831 H   0  0  0  0  0  0  0  0  0  0  0  0  # atno 10167 bound_to 10162
  157.2147  131.0705  151.1948 H   0  0  0  0  0  0  0  0  0  0  0  0  # atno 10718 bound_to 10713
  153.0488  135.5082  154.7814 H   0  0  0  0  0  0  0  0  0  0  0  0  # atno 10763 bound_to 10752
  154.6693  135.2950  154.9766 H   0  0  0  0  0  0  0  0  0  0  0  0  # atno 10764 bound_to 10752
  154.0590  135.6693  153.4862 H   0  0  0  0  0  0  0  0  0  0  0  0  # atno 10765 bound_to 10752
  140.2728  134.7813  157.3690 H   0  0  0  0  0  0  0  0  0  0  0  0  # atno 11005 bound_to 11000
  145.6787  141.0197  143.1618 LP  0  0  0  0  0  0  0  0  0  0  0  0  # atno 17320 bound_to 7965
  144.7103  139.8395  143.7416 LP  0  0  0  0  0  0  0  0  0  0  0  0  # atno 17321 bound_to 7965
  139.6121  144.1076  152.2309 LP  0  0  0  0  0  0  0  0  0  0  0  0  # atno 17342 bound_to 10162
  140.0494  144.5945  150.7348 LP  0  0  0  0  0  0  0  0  0  0  0  0  # atno 17343 bound_to 10162
  157.3637  130.7144  149.6518 LP  0  0  0  0  0  0  0  0  0  0  0  0  # atno 17370 bound_to 10713
  155.9687  130.4218  150.4487 LP  0  0  0  0  0  0  0  0  0  0  0  0  # atno 17371 bound_to 10713
  140.1357  134.5037  155.8070 LP  0  0  0  0  0  0  0  0  0  0  0  0  # atno 17394 bound_to 11000
  141.2175  133.6806  156.7119 LP  0  0  0  0  0  0  0  0  0  0  0  0  # atno 17395 bound_to 11000

$$$$
