AV-unprocessed.smi:1218|AV-procd|sdf|5111|dock6
  -GOLD-   22720 4163D 1   1.00000     0.00000
 Structure written by MMmdl.
 44 45  0  0  0  0  0  0  0  0  1 V2000
  147.4229  136.8250  163.1381 C   0  0  0  0  0  0  0  0  0  0  0  0
  147.1203  135.6969  162.1388 C   0  0  0  0  0  0  0  0  0  0  0  0
  147.3237  134.3252  162.7988 C   0  0  0  0  0  0  0  0  0  0  0  0
  147.9844  135.8158  160.8648 C   0  0  0  0  0  0  0  0  0  0  0  0
  147.7617  137.0123  160.0507 N   0  0  0  0  0  0  0  0  0  0  0  0
  146.5474  136.9263  159.2421 C   0  0  0  0  0  0  0  0  0  0  0  0
  146.3539  138.1730  158.3631 C   0  0  0  0  0  0  0  0  0  0  0  0
  147.5038  138.3610  157.5465 O   0  0  0  0  0  0  0  0  0  0  0  0
  148.7028  138.5191  158.3017 C   0  0  2  0  0  0  0  0  0  0  0  0
  149.8793  138.7381  157.3356 C   0  0  0  0  0  0  0  0  0  0  0  0
  150.0827  140.1551  157.0533 N   0  0  0  0  0  0  0  0  0  0  0  0
  151.2762  140.7589  156.9384 C   0  0  0  0  0  0  0  0  0  0  0  0
  152.3504  140.1747  157.0790 O   0  0  0  0  0  0  0  0  0  0  0  0
  151.2593  142.2511  156.6024 C   0  0  0  0  0  0  0  0  0  0  0  0
  151.6513  143.0582  157.7449 N   0  0  0  0  0  0  0  0  0  0  0  0
  151.4926  144.4163  157.9300 C   0  0  0  0  0  0  0  0  0  0  0  0
  152.0110  144.7226  159.1554 C   0  0  0  0  0  0  0  0  0  0  0  0
  152.4662  143.4695  159.6528 C   0  0  0  0  0  0  0  0  0  0  0  0
  152.2503  142.4754  158.8066 N   0  0  0  0  0  0  0  0  0  0  0  0
  148.8991  137.2604  159.1703 C   0  0  0  0  0  0  0  0  0  0  0  0
  148.4681  136.8093  163.4488 H   0  0  0  0  0  0  0  0  0  0  0  0
  146.8082  136.7319  164.0339 H   0  0  0  0  0  0  0  0  0  0  0  0
  147.2191  137.8041  162.7040 H   0  0  0  0  0  0  0  0  0  0  0  0
  146.0667  135.7573  161.8688 H   0  0  0  0  0  0  0  0  0  0  0  0
  148.3597  134.1831  163.1078 H   0  0  0  0  0  0  0  0  0  0  0  0
  147.0664  133.5173  162.1132 H   0  0  0  0  0  0  0  0  0  0  0  0
  146.6946  134.2167  163.6828 H   0  0  0  0  0  0  0  0  0  0  0  0
  149.0312  135.7859  161.1714 H   0  0  0  0  0  0  0  0  0  0  0  0
  147.8352  134.9304  160.2448 H   0  0  0  0  0  0  0  0  0  0  0  0
  146.5877  136.0407  158.6063 H   0  0  0  0  0  0  0  0  0  0  0  0
  145.6713  136.8156  159.8797 H   0  0  0  0  0  0  0  0  0  0  0  0
  145.4785  138.0550  157.7245 H   0  0  0  0  0  0  0  0  0  0  0  0
  146.1857  139.0587  158.9777 H   0  0  0  0  0  0  0  0  0  0  0  0
  148.6059  139.3933  158.9487 H   0  0  0  0  0  0  0  0  0  0  0  0
  150.7974  138.3586  157.7847 H   0  0  0  0  0  0  0  0  0  0  0  0
  149.7322  138.1707  156.4149 H   0  0  0  0  0  0  0  0  0  0  0  0
  149.2544  140.7182  156.9232 H   0  0  0  0  0  0  0  0  0  0  0  0
  151.9460  142.4565  155.7802 H   0  0  0  0  0  0  0  0  0  0  0  0
  150.2625  142.5436  156.2680 H   0  0  0  0  0  0  0  0  0  0  0  0
  151.0304  145.0432  157.1816 H   0  0  0  0  0  0  0  0  0  0  0  0
  152.0567  145.6933  159.6259 H   0  0  0  0  0  0  0  0  0  0  0  0
  152.9432  143.2540  160.5976 H   0  0  0  0  0  0  0  0  0  0  0  0
  149.8054  137.3746  159.7662 H   0  0  0  0  0  0  0  0  0  0  0  0
  149.0590  136.3961  158.5237 H   0  0  0  0  0  0  0  0  0  0  0  0
  1  2  1  0  0  0  0
  1 21  1  0  0  0  0
  1 22  1  0  0  0  0
  1 23  1  0  0  0  0
  2  3  1  0  0  0  0
  2  4  1  0  0  0  0
  2 24  1  0  0  0  0
  3 25  1  0  0  0  0
  3 26  1  0  0  0  0
  3 27  1  0  0  0  0
  4  5  1  0  0  0  0
  4 28  1  0  0  0  0
  4 29  1  0  0  0  0
  5 20  1  0  0  0  0
  5  6  1  0  0  0  0
  6  7  1  0  0  0  0
  6 30  1  0  0  0  0
  6 31  1  0  0  0  0
  7  8  1  0  0  0  0
  7 32  1  0  0  0  0
  7 33  1  0  0  0  0
  8  9  1  0  0  0  0
  9 10  1  0  0  0  0
  9 20  1  0  0  0  0
  9 34  1  0  0  0  0
 10 11  1  0  0  0  0
 10 35  1  0  0  0  0
 10 36  1  0  0  0  0
 11 12  1  0  0  0  0
 11 37  1  0  0  0  0
 12 13  2  0  0  0  0
 12 14  1  0  0  0  0
 14 15  1  0  0  0  0
 14 38  1  0  0  0  0
 14 39  1  0  0  0  0
 15 19  1  0  0  0  0
 15 16  1  0  0  0  0
 16 17  2  0  0  0  0
 16 40  1  0  0  0  0
 17 18  1  0  0  0  0
 17 41  1  0  0  0  0
 18 19  2  0  0  0  0
 18 42  1  0  0  0  0
 20 43  1  0  0  0  0
 20 44  1  0  0  0  0
M  END
> <s_m_source_file>
AV-unprocessed.smi

> <i_m_source_file_index>
1218

> <i_lp_mmshare_version>
43012

> <i_f3d_flags>
0

> <s_epik_input>
W0NIM11bQ0hdKFtDSDNdKVtDSDJdTjFbQ0gyXVtDSDJdT1tDQEhdKFtDSDJdMSlbQ0gyXVtOSF1DKD1PKVtDSDJdbjJbY0hdW2NIXVtjSF1uMg==

> <s_epik_cmdline>
J2VwaWtfcHl0aG9uJywgJy1waCcsICc3LjAnLCAnLXRuJywgJzgnLCAnLW1hJywgJzIwMCcsICctbWV0YWxfYmluZGluZycsICctaW1hZScsICc8aW5maWxlLm1hZT4nLCAnLW9tYWUnLCAnPG91dGZpbGUubWFlPic=

> <r_lp_tautomer_probability>
1

> <r_epik_Ionization_Penalty>
1.10621

> <r_epik_Ionization_Penalty_Charging>
0

> <r_epik_Ionization_Penalty_Neutral>
1.10621

> <r_epik_State_Penalty>
1.16377

> <r_epik_Charging_Adjusted_Penalty>
1.16377

> <i_epik_Tot_Q>
0

> <i_epik_Tot_abs_Q>
0

> <r_epik_Metal_State_Penalty>
1.16377

> <b_epik_Metal_Only>
0

> <s_lp_Force_Field>
OPLS_2005

> <r_lp_Energy>
24.8608

> <b_lp_Chiralities_Consistent>
1

> <s_lp_Variant>
AV-unprocessed.smi:1218-6

> <Gold.Version>
5.8.1

> <Gold.Id.Protein>
6NUR|6NUR_protein|mol2

> <Gold.PLP.Fitness>
43.3846

> <Gold.PLP.PLP>
-38.4272

> <Gold.PLP.part.hbond>
-1.9472

> <Gold.PLP.part.metal>
0.0000

> <Gold.PLP.part.buried>
-4.3991

> <Gold.PLP.part.nonpolar>
-32.0719

> <Gold.PLP.part.repulsive>
0.0188

> <Gold.PLP.ligand.clash>
0.0000

> <Gold.PLP.ligand.torsion>
1.0160

> <Gold.PLP.Chemscore.Hbond>
1.3280

> <Gold.PLP.Chemscore.CHOScore>
0.9843

> <Gold.PLP.Chemscore.Metal>
0.0000

> <Gold.Chemscore.Hbonds>
donor molecule, donor type, donor heavy atom, donor atom, acceptor molecule, acceptor atom, score
      P1  H  6934  6947       L1     5  0.24
      P1  H  7997  8009       L1    13  0.91
      L1  C    16    40       P1  8028  0.82

> <Gold.PLP.Chemscore.Internal.Correction>
0.0526

> <Gold.Rescore>
     Score         DG    S(hbond)    S(metal)    S(lipo)     H(rot)  DE(clash)    DE(int)     intcor
     12.00     -14.80       0.94        0.00      94.42       1.90       0.29       2.51       ----

> <Gold.Chemscore.Fitness>
11.9987

> <Gold.Chemscore.DG>
-14.7972

> <Gold.Chemscore.ZeroCoef>
-5.4800

> <Gold.Chemscore.Hbond>
0.9359

> <Gold.Chemscore.Metal>
0.0000

> <Gold.Chemscore.Lipo>
94.4248

> <Gold.Chemscore.Internal_Hbond>
0.0000

> <Gold.Chemscore.DEClash>
0.2917

> <Gold.Chemscore.DEInternal>
2.5068

> <Gold.Chemscore.Rot>
1.8970

> <Gold.Chemscore.Internal.Correction>
   9.000000E+99

> <Gold.Chemscore.Hbonds>
donor molecule, donor type, donor heavy atom, donor atom, acceptor molecule, acceptor atom, score
      P1  H  6934  6947       L1     5  0.01
      P1  H  7997  8009       L1    13  0.84

> <Gold.Chemscore.Hbond.Weighted>
-3.1259

> <Gold.Chemscore.Metal.Weighted>
-0.0000

> <Gold.Chemscore.Lipo.Weighted>
-11.0477

> <Gold.Chemscore.Internal_Hbond.Weighted>
0.0000

> <Gold.Chemscore.DEClash.Weighted>
0.2917

> <Gold.Chemscore.DEInternal.Weighted>
2.5068

> <Gold.Chemscore.Rot.Weighted>
4.8564

> <Gold.Chemscore.Internal.Correction.Weighted>
   9.000000E+99

> <Gold.Protein.RotatedTorsions>
[ 6907 6896 6895 6894 ] final -141.84 input  -60.11 | X-H torsion
[ 7974 7965 7964 7962 ] final   60.57 input  175.53 | X-H torsion
[ 8008 7997 7996 7995 ] final -173.73 input   59.86 | X-H torsion
[ 10167 10162 10161 10158 ] final   53.90 input  -65.29 | X-H torsion
[ 10718 10713 10712 10709 ] final   38.32 input   66.30 | X-H torsion
[ 10763 10752 10751 10750 ] final  148.90 input  -60.55 | X-H torsion
[ 11005 11000 10999 10996 ] final   35.17 input  -57.11 | X-H torsion

> <Gold.Protein.ActiveResidues>
 VAL166  LYS551  ARG553  GLY616  TRP617  ASP618  TYR619  PRO620  LYS621  CYS622 
 ASP623  PHE694  ASN695  SER759  ASP760  ASP761  ALA762  ILE779  LEU786  VAL792 
 PHE793  MET794  SER795  GLU796  ALA797  LYS798  CYS799  TRP800  GLU811  SER814 

> <Gold.Protein.RotatedAtoms>
  151.0791  133.5404  159.2621 H   0  0  0  0  0  0  0  0  0  0  0  0  # atno 6907 bound_to 6896
  151.2315  135.0555  159.8999 H   0  0  0  0  0  0  0  0  0  0  0  0  # atno 6908 bound_to 6896
  152.5421  134.0579  159.8193 H   0  0  0  0  0  0  0  0  0  0  0  0  # atno 6909 bound_to 6896
  145.8945  139.3535  143.0629 H   0  0  0  0  0  0  0  0  0  0  0  0  # atno 7974 bound_to 7965
  155.9611  140.1145  157.0894 H   0  0  0  0  0  0  0  0  0  0  0  0  # atno 8008 bound_to 7997
  154.4132  140.1181  156.5248 H   0  0  0  0  0  0  0  0  0  0  0  0  # atno 8009 bound_to 7997
  155.6718  140.3473  155.4824 H   0  0  0  0  0  0  0  0  0  0  0  0  # atno 8010 bound_to 7997
  140.2359  144.3636  150.6397 H   0  0  0  0  0  0  0  0  0  0  0  0  # atno 10167 bound_to 10162
  157.3574  130.7631  149.7022 H   0  0  0  0  0  0  0  0  0  0  0  0  # atno 10718 bound_to 10713
  154.0623  135.2873  155.3322 H   0  0  0  0  0  0  0  0  0  0  0  0  # atno 10763 bound_to 10752
  154.6800  135.5267  153.8254 H   0  0  0  0  0  0  0  0  0  0  0  0  # atno 10764 bound_to 10752
  153.0517  135.6579  154.0811 H   0  0  0  0  0  0  0  0  0  0  0  0  # atno 10765 bound_to 10752
  140.2453  134.3366  155.7910 H   0  0  0  0  0  0  0  0  0  0  0  0  # atno 11005 bound_to 11000
  145.8868  140.9329  143.0573 LP  0  0  0  0  0  0  0  0  0  0  0  0  # atno 17320 bound_to 7965
  144.6732  140.0852  143.7467 LP  0  0  0  0  0  0  0  0  0  0  0  0  # atno 17321 bound_to 7965
  140.6150  143.2172  151.6809 LP  0  0  0  0  0  0  0  0  0  0  0  0  # atno 17342 bound_to 10162
  139.5094  144.3579  152.0590 LP  0  0  0  0  0  0  0  0  0  0  0  0  # atno 17343 bound_to 10162
  155.9731  130.4123  150.4027 LP  0  0  0  0  0  0  0  0  0  0  0  0  # atno 17370 bound_to 10713
  157.2099  131.0458  151.2605 LP  0  0  0  0  0  0  0  0  0  0  0  0  # atno 17371 bound_to 10713
  141.2207  133.7322  156.8951 LP  0  0  0  0  0  0  0  0  0  0  0  0  # atno 17394 bound_to 11000
  140.1612  134.9164  157.2716 LP  0  0  0  0  0  0  0  0  0  0  0  0  # atno 17395 bound_to 11000

$$$$
