AV-unprocessed.smi:1430|AV-procd|sdf|5823|dock5
  -GOLD-   22720 5483D 1   1.00000     0.00000
 Structure written by MMmdl.
 46 47  0  0  0  0  0  0  0  0  1 V2000
  145.1303  132.0802  151.1070 C   0  0  0  0  0  0  0  0  0  0  0  0
  145.7773  133.3357  151.2832 O   0  0  0  0  0  0  0  0  0  0  0  0
  145.0124  134.4197  151.6624 C   0  0  0  0  0  0  0  0  0  0  0  0
  143.7199  134.1872  152.1728 C   0  0  0  0  0  0  0  0  0  0  0  0
  142.9329  135.2874  152.5641 C   0  0  0  0  0  0  0  0  0  0  0  0
  143.4692  136.5913  152.4382 C   0  0  0  0  0  0  0  0  0  0  0  0
  142.7742  137.7832  152.7797 N   0  0  0  0  0  0  0  0  0  0  0  0
  141.5358  137.9194  153.2843 C   0  0  0  0  0  0  0  0  0  0  0  0
  140.7747  136.9945  153.5682 O   0  0  0  0  0  0  0  0  0  0  0  0
  141.2272  139.2112  153.4655 N   0  0  0  0  0  0  0  0  0  0  0  0
  139.9691  139.7006  154.0162 C   0  0  0  0  0  0  0  0  0  0  0  0
  138.7704  139.2308  153.1712 C   0  0  0  0  0  0  0  0  0  0  0  0
  137.5679  140.0519  153.2960 N   0  0  0  0  0  0  0  0  0  0  0  0
  137.9144  141.4584  153.4568 C   0  0  0  0  0  0  0  0  0  0  0  0
  136.6663  142.3539  153.5532 C   0  0  2  0  0  0  0  0  0  0  0  0
  137.0287  143.8206  153.8080 C   0  0  0  0  0  0  0  0  0  0  0  0
  135.8457  141.9072  154.6309 O   0  0  0  0  0  0  0  0  0  0  0  0
  135.4743  140.5287  154.5819 C   0  0  1  0  0  0  0  0  0  0  0  0
  134.3962  140.2670  153.5164 C   0  0  0  0  0  0  0  0  0  0  0  0
  136.7246  139.6410  154.4171 C   0  0  0  0  0  0  0  0  0  0  0  0
  144.7679  136.7165  151.9027 C   0  0  0  0  0  0  0  0  0  0  0  0
  145.5277  135.6665  151.5267 N   0  0  0  0  0  0  0  0  0  0  0  0
  145.8669  131.3334  150.8107 H   0  0  0  0  0  0  0  0  0  0  0  0
  144.3738  132.1280  150.3224 H   0  0  0  0  0  0  0  0  0  0  0  0
  144.6655  131.7370  152.0323 H   0  0  0  0  0  0  0  0  0  0  0  0
  143.3366  133.1813  152.2597 H   0  0  0  0  0  0  0  0  0  0  0  0
  141.9369  135.1076  152.9367 H   0  0  0  0  0  0  0  0  0  0  0  0
  143.3043  138.6358  152.6736 H   0  0  0  0  0  0  0  0  0  0  0  0
  141.9131  139.9064  153.2100 H   0  0  0  0  0  0  0  0  0  0  0  0
  139.8755  139.3223  155.0344 H   0  0  0  0  0  0  0  0  0  0  0  0
  140.0070  140.7881  154.0893 H   0  0  0  0  0  0  0  0  0  0  0  0
  139.0612  139.1658  152.1214 H   0  0  0  0  0  0  0  0  0  0  0  0
  138.5316  138.2114  153.4786 H   0  0  0  0  0  0  0  0  0  0  0  0
  138.5262  141.5875  154.3516 H   0  0  0  0  0  0  0  0  0  0  0  0
  138.5241  141.7859  152.6137 H   0  0  0  0  0  0  0  0  0  0  0  0
  136.1037  142.2968  152.6211 H   0  0  0  0  0  0  0  0  0  0  0  0
  137.6507  144.2169  153.0050 H   0  0  0  0  0  0  0  0  0  0  0  0
  137.5761  143.9346  154.7441 H   0  0  0  0  0  0  0  0  0  0  0  0
  136.1320  144.4377  153.8697 H   0  0  0  0  0  0  0  0  0  0  0  0
  135.0261  140.2984  155.5487 H   0  0  0  0  0  0  0  0  0  0  0  0
  134.0441  139.2364  153.5663 H   0  0  0  0  0  0  0  0  0  0  0  0
  134.7692  140.4343  152.5063 H   0  0  0  0  0  0  0  0  0  0  0  0
  133.5350  140.9181  153.6674 H   0  0  0  0  0  0  0  0  0  0  0  0
  136.4067  138.6055  154.2994 H   0  0  0  0  0  0  0  0  0  0  0  0
  137.3066  139.6805  155.3393 H   0  0  0  0  0  0  0  0  0  0  0  0
  145.2160  137.6913  151.7753 H   0  0  0  0  0  0  0  0  0  0  0  0
  1  2  1  0  0  0  0
  1 23  1  0  0  0  0
  1 24  1  0  0  0  0
  1 25  1  0  0  0  0
  2  3  1  0  0  0  0
  3 22  1  0  0  0  0
  3  4  2  0  0  0  0
  4  5  1  0  0  0  0
  4 26  1  0  0  0  0
  5  6  2  0  0  0  0
  5 27  1  0  0  0  0
  6  7  1  0  0  0  0
  6 21  1  0  0  0  0
  7  8  1  0  0  0  0
  7 28  1  0  0  0  0
  8  9  2  0  0  0  0
  8 10  1  0  0  0  0
 10 11  1  0  0  0  0
 10 29  1  0  0  0  0
 11 12  1  0  0  0  0
 11 30  1  0  0  0  0
 11 31  1  0  0  0  0
 12 13  1  0  0  0  0
 12 32  1  0  0  0  0
 12 33  1  0  0  0  0
 13 20  1  0  0  0  0
 13 14  1  0  0  0  0
 14 15  1  0  0  0  0
 14 34  1  0  0  0  0
 14 35  1  0  0  0  0
 15 16  1  0  0  0  0
 15 17  1  0  0  0  0
 15 36  1  0  0  0  0
 16 37  1  0  0  0  0
 16 38  1  0  0  0  0
 16 39  1  0  0  0  0
 17 18  1  0  0  0  0
 18 19  1  0  0  0  0
 18 20  1  0  0  0  0
 18 40  1  0  0  0  0
 19 41  1  0  0  0  0
 19 42  1  0  0  0  0
 19 43  1  0  0  0  0
 20 44  1  0  0  0  0
 20 45  1  0  0  0  0
 21 22  2  0  0  0  0
 21 46  1  0  0  0  0
M  END
> <s_m_source_file>
AV-unprocessed.smi

> <i_m_source_file_index>
1430

> <i_lp_mmshare_version>
43012

> <i_f3d_flags>
0

> <s_epik_input>
W0NIM11PYzFbY0hdW2NIXWMoW2NIXW4xKVtOSF1DKD1PKVtOSF1bQ0gyXVtDSDJdTjJbQ0gyXVtDQEBIXShbQ0gzXSlPW0NAQEhdKFtDSDNdKVtDSDJdMg==

> <s_epik_cmdline>
J2VwaWtfcHl0aG9uJywgJy1waCcsICc3LjAnLCAnLXRuJywgJzgnLCAnLW1hJywgJzIwMCcsICctbWV0YWxfYmluZGluZycsICctaW1hZScsICc8aW5maWxlLm1hZT4nLCAnLW9tYWUnLCAnPG91dGZpbGUubWFlPic=

> <r_lp_tautomer_probability>
1

> <r_epik_Ionization_Penalty>
0.266083

> <r_epik_Ionization_Penalty_Charging>
0

> <r_epik_Ionization_Penalty_Neutral>
0.266083

> <r_epik_State_Penalty>
0.257924

> <r_epik_Charging_Adjusted_Penalty>
0.257924

> <i_epik_Tot_Q>
0

> <i_epik_Tot_abs_Q>
0

> <r_epik_Metal_State_Penalty>
0.257922

> <b_epik_Metal_Only>
0

> <s_lp_Force_Field>
OPLS_2005

> <r_lp_Energy>
25.3264

> <b_lp_Chiralities_Consistent>
1

> <s_lp_Variant>
AV-unprocessed.smi:1430-2

> <Gold.Version>
5.8.1

> <Gold.Id.Protein>
6NUR|6NUR_protein|mol2

> <Gold.PLP.Fitness>
37.8678

> <Gold.PLP.PLP>
-31.7632

> <Gold.PLP.part.hbond>
-3.2738

> <Gold.PLP.part.metal>
0.0000

> <Gold.PLP.part.buried>
-4.3700

> <Gold.PLP.part.nonpolar>
-25.3047

> <Gold.PLP.part.repulsive>
0.5693

> <Gold.PLP.ligand.clash>
0.0000

> <Gold.PLP.ligand.torsion>
0.6114

> <Gold.PLP.Chemscore.Hbond>
2.0000

> <Gold.PLP.Chemscore.CHOScore>
0.4386

> <Gold.PLP.Chemscore.Metal>
0.0000

> <Gold.Chemscore.Hbonds>
donor molecule, donor type, donor heavy atom, donor atom, acceptor molecule, acceptor atom, score
      L1  H     7    28       P1 10175  1.00
      L1  H    10    29       P1 10175  1.00
      L1  C    21    46       P1 10171  0.41

> <Gold.PLP.Chemscore.Internal.Correction>
0.0116

> <Gold.Rescore>
     Score         DG    S(hbond)    S(metal)    S(lipo)     H(rot)  DE(clash)    DE(int)     intcor
     13.85     -15.70       1.74        0.00      75.04       1.71       0.07       1.79       ----

> <Gold.Chemscore.Fitness>
13.8495

> <Gold.Chemscore.DG>
-15.7039

> <Gold.Chemscore.ZeroCoef>
-5.4800

> <Gold.Chemscore.Hbond>
1.7437

> <Gold.Chemscore.Metal>
0.0000

> <Gold.Chemscore.Lipo>
75.0372

> <Gold.Chemscore.Internal_Hbond>
0.0000

> <Gold.Chemscore.DEClash>
0.0678

> <Gold.Chemscore.DEInternal>
1.7867

> <Gold.Chemscore.Rot>
1.7107

> <Gold.Chemscore.Internal.Correction>
   9.000000E+99

> <Gold.Chemscore.Hbonds>
donor molecule, donor type, donor heavy atom, donor atom, acceptor molecule, acceptor atom, score
      L1  H     7    28       P1 10175  0.99
      L1  H    10    29       P1 10175  0.49

> <Gold.Chemscore.Hbond.Weighted>
-5.8240

> <Gold.Chemscore.Metal.Weighted>
-0.0000

> <Gold.Chemscore.Lipo.Weighted>
-8.7794

> <Gold.Chemscore.Internal_Hbond.Weighted>
0.0000

> <Gold.Chemscore.DEClash.Weighted>
0.0678

> <Gold.Chemscore.DEInternal.Weighted>
1.7867

> <Gold.Chemscore.Rot.Weighted>
4.3794

> <Gold.Chemscore.Internal.Correction.Weighted>
   9.000000E+99

> <Gold.Protein.RotatedTorsions>
[ 6907 6896 6895 6894 ] final   89.68 input  -60.11 | X-H torsion
[ 7974 7965 7964 7962 ] final  -92.90 input  175.53 | X-H torsion
[ 8008 7997 7996 7995 ] final -156.80 input   59.86 | X-H torsion
[ 10167 10162 10161 10158 ] final  -47.44 input  -65.29 | X-H torsion
[ 10718 10713 10712 10709 ] final    9.64 input   66.30 | X-H torsion
[ 10763 10752 10751 10750 ] final  -83.66 input  -60.55 | X-H torsion
[ 11005 11000 10999 10996 ] final -105.95 input  -57.11 | X-H torsion

> <Gold.Protein.ActiveResidues>
 VAL166  LYS551  ARG553  GLY616  TRP617  ASP618  TYR619  PRO620  LYS621  CYS622 
 ASP623  PHE694  ASN695  SER759  ASP760  ASP761  ALA762  ILE779  LEU786  VAL792 
 PHE793  MET794  SER795  GLU796  ALA797  LYS798  CYS799  TRP800  GLU811  SER814 

> <Gold.Protein.RotatedAtoms>
  152.5438  134.1929  159.8680 H   0  0  0  0  0  0  0  0  0  0  0  0  # atno 6907 bound_to 6896
  151.1923  133.4653  159.2602 H   0  0  0  0  0  0  0  0  0  0  0  0  # atno 6908 bound_to 6896
  151.1071  135.0018  159.8532 H   0  0  0  0  0  0  0  0  0  0  0  0  # atno 6909 bound_to 6896
  145.3936  140.9530  143.2326 H   0  0  0  0  0  0  0  0  0  0  0  0  # atno 7974 bound_to 7965
  155.7228  140.0792  157.2323 H   0  0  0  0  0  0  0  0  0  0  0  0  # atno 8008 bound_to 7997
  154.4043  140.1609  156.2475 H   0  0  0  0  0  0  0  0  0  0  0  0  # atno 8009 bound_to 7997
  155.9181  140.3399  155.6154 H   0  0  0  0  0  0  0  0  0  0  0  0  # atno 8010 bound_to 7997
  140.6775  143.2784  151.3927 H   0  0  0  0  0  0  0  0  0  0  0  0  # atno 10167 bound_to 10162
  156.9693  130.5963  149.5667 H   0  0  0  0  0  0  0  0  0  0  0  0  # atno 10718 bound_to 10713
  154.5904  135.5548  153.7273 H   0  0  0  0  0  0  0  0  0  0  0  0  # atno 10763 bound_to 10752
  153.0114  135.6342  154.1857 H   0  0  0  0  0  0  0  0  0  0  0  0  # atno 10764 bound_to 10752
  154.1798  135.2887  155.3035 H   0  0  0  0  0  0  0  0  0  0  0  0  # atno 10765 bound_to 10752
  141.1028  133.8851  157.1796 H   0  0  0  0  0  0  0  0  0  0  0  0  # atno 11005 bound_to 11000
  144.8423  139.5453  143.6895 LP  0  0  0  0  0  0  0  0  0  0  0  0  # atno 17320 bound_to 7965
  146.2786  139.6816  142.9245 LP  0  0  0  0  0  0  0  0  0  0  0  0  # atno 17321 bound_to 7965
  139.6076  144.1165  152.2265 LP  0  0  0  0  0  0  0  0  0  0  0  0  # atno 17342 bound_to 10162
  140.0569  144.5888  150.7293 LP  0  0  0  0  0  0  0  0  0  0  0  0  # atno 17343 bound_to 10162
  156.0289  130.5382  150.8482 LP  0  0  0  0  0  0  0  0  0  0  0  0  # atno 17370 bound_to 10713
  157.5603  131.0946  150.9568 LP  0  0  0  0  0  0  0  0  0  0  0  0  # atno 17371 bound_to 10713
  139.9887  135.0073  156.9923 LP  0  0  0  0  0  0  0  0  0  0  0  0  # atno 17394 bound_to 11000
  140.4977  134.1128  155.7244 LP  0  0  0  0  0  0  0  0  0  0  0  0  # atno 17395 bound_to 11000

$$$$
