AV-unprocessed.smi:1734|AV-procd|sdf|6983|dock6
  -GOLD-   22720 8193D 1   1.00000     0.00000
 Structure written by MMmdl.
 50 52  0  0  0  0  0  0  0  0  1 V2000
  145.1148  135.5516  151.2710 C   0  0  0  0  0  0  0  0  0  0  0  0
  145.1908  134.0395  151.1355 C   0  0  0  0  0  0  0  0  0  0  0  0
  144.1493  133.3526  150.4760 C   0  0  0  0  0  0  0  0  0  0  0  0
  144.2211  131.9549  150.3511 C   0  0  0  0  0  0  0  0  0  0  0  0
  145.3385  131.2986  150.8947 C   0  0  0  0  0  0  0  0  0  0  0  0
  146.3376  131.9469  151.5272 N   0  0  0  0  0  0  0  0  0  0  0  0
  146.2841  133.2965  151.6567 C   0  0  0  0  0  0  0  0  0  0  0  0
  147.2999  134.0462  152.3148 N   0  0  0  0  0  0  0  0  0  0  0  0
  147.8109  133.8632  153.5452 C   0  0  0  0  0  0  0  0  0  0  0  0
  147.4924  132.9625  154.3223 O   0  0  0  0  0  0  0  0  0  0  0  0
  148.7209  134.8051  153.8337 N   0  0  0  0  0  0  0  0  0  0  0  0
  149.4379  134.9394  155.0993 C   0  0  0  0  0  0  0  0  0  0  0  0
  149.0843  136.2640  155.8295 C   0  0  1  0  0  0  0  0  0  0  0  0
  149.3218  136.1897  157.3695 C   0  0  1  0  0  0  0  0  0  0  0  0
  148.5819  135.1113  158.1664 C   0  0  0  0  0  0  0  0  0  0  0  0
  149.6526  134.5325  159.0929 C   0  0  0  0  0  0  0  0  0  0  0  0
  150.6571  135.5338  159.1399 O   0  0  0  0  0  0  0  0  0  0  0  0
  150.7803  136.0469  157.8240 C   0  0  0  0  0  0  0  0  0  0  0  0
  149.5984  137.4870  155.1813 N   0  0  0  0  0  0  0  0  0  0  0  0
  149.1554  138.7487  155.7715 C   0  0  0  0  0  0  0  0  0  0  0  0
  149.6594  139.9610  154.9688 C   0  0  0  0  0  0  0  0  0  0  0  0
  151.0769  139.9077  154.8444 O   0  0  0  0  0  0  0  0  0  0  0  0
  151.5271  138.7132  154.2142 C   0  0  0  0  0  0  0  0  0  0  0  0
  151.0515  137.4980  155.0271 C   0  0  0  0  0  0  0  0  0  0  0  0
  144.2035  135.9455  150.8198 H   0  0  0  0  0  0  0  0  0  0  0  0
  145.9645  136.0220  150.7756 H   0  0  0  0  0  0  0  0  0  0  0  0
  145.1206  135.8416  152.3221 H   0  0  0  0  0  0  0  0  0  0  0  0
  143.3035  133.8876  150.0694 H   0  0  0  0  0  0  0  0  0  0  0  0
  143.4404  131.4003  149.8516 H   0  0  0  0  0  0  0  0  0  0  0  0
  145.4335  130.2253  150.8207 H   0  0  0  0  0  0  0  0  0  0  0  0
  147.6653  134.8278  151.7917 H   0  0  0  0  0  0  0  0  0  0  0  0
  148.9184  135.5012  153.1297 H   0  0  0  0  0  0  0  0  0  0  0  0
  149.2588  134.0815  155.7482 H   0  0  0  0  0  0  0  0  0  0  0  0
  150.4977  134.9076  154.8510 H   0  0  0  0  0  0  0  0  0  0  0  0
  147.9986  136.3411  155.7514 H   0  0  0  0  0  0  0  0  0  0  0  0
  148.9829  137.1400  157.7856 H   0  0  0  0  0  0  0  0  0  0  0  0
  147.7853  135.5685  158.7545 H   0  0  0  0  0  0  0  0  0  0  0  0
  148.1195  134.3377  157.5557 H   0  0  0  0  0  0  0  0  0  0  0  0
  149.2684  134.3029  160.0871 H   0  0  0  0  0  0  0  0  0  0  0  0
  150.0744  133.6187  158.6713 H   0  0  0  0  0  0  0  0  0  0  0  0
  151.3404  135.3292  157.2236 H   0  0  0  0  0  0  0  0  0  0  0  0
  151.3184  136.9949  157.8116 H   0  0  0  0  0  0  0  0  0  0  0  0
  148.0695  138.7957  155.7972 H   0  0  0  0  0  0  0  0  0  0  0  0
  149.5066  138.8278  156.8005 H   0  0  0  0  0  0  0  0  0  0  0  0
  149.2029  139.9811  153.9780 H   0  0  0  0  0  0  0  0  0  0  0  0
  149.3794  140.8885  155.4681 H   0  0  0  0  0  0  0  0  0  0  0  0
  151.1511  138.6663  153.1911 H   0  0  0  0  0  0  0  0  0  0  0  0
  152.6155  138.7288  154.1562 H   0  0  0  0  0  0  0  0  0  0  0  0
  151.5365  137.5254  156.0026 H   0  0  0  0  0  0  0  0  0  0  0  0
  151.3819  136.5831  154.5346 H   0  0  0  0  0  0  0  0  0  0  0  0
  1  2  1  0  0  0  0
  1 25  1  0  0  0  0
  1 26  1  0  0  0  0
  1 27  1  0  0  0  0
  2  7  1  0  0  0  0
  2  3  2  0  0  0  0
  3  4  1  0  0  0  0
  3 28  1  0  0  0  0
  4  5  2  0  0  0  0
  4 29  1  0  0  0  0
  5  6  1  0  0  0  0
  5 30  1  0  0  0  0
  6  7  2  0  0  0  0
  7  8  1  0  0  0  0
  8  9  1  0  0  0  0
  8 31  1  0  0  0  0
  9 10  2  0  0  0  0
  9 11  1  0  0  0  0
 11 12  1  0  0  0  0
 11 32  1  0  0  0  0
 12 13  1  0  0  0  0
 12 33  1  0  0  0  0
 12 34  1  0  0  0  0
 13 14  1  0  0  0  0
 13 19  1  0  0  0  0
 13 35  1  0  0  0  0
 14 18  1  0  0  0  0
 14 15  1  0  0  0  0
 14 36  1  0  0  0  0
 15 16  1  0  0  0  0
 15 37  1  0  0  0  0
 15 38  1  0  0  0  0
 16 17  1  0  0  0  0
 16 39  1  0  0  0  0
 16 40  1  0  0  0  0
 17 18  1  0  0  0  0
 18 41  1  0  0  0  0
 18 42  1  0  0  0  0
 19 24  1  0  0  0  0
 19 20  1  0  0  0  0
 20 21  1  0  0  0  0
 20 43  1  0  0  0  0
 20 44  1  0  0  0  0
 21 22  1  0  0  0  0
 21 45  1  0  0  0  0
 21 46  1  0  0  0  0
 22 23  1  0  0  0  0
 23 24  1  0  0  0  0
 23 47  1  0  0  0  0
 23 48  1  0  0  0  0
 24 49  1  0  0  0  0
 24 50  1  0  0  0  0
M  END
> <s_m_source_file>
AV-unprocessed.smi

> <i_m_source_file_index>
1734

> <i_lp_mmshare_version>
43012

> <i_f3d_flags>
0

> <s_epik_input>
W0NIM11jMVtjSF1bY0hdW2NIXW5jMVtOSF1DKD1PKVtOSF1bQ0gyXVtDQEhdKFtDQEBIXTJbQ0gyXVtDSDJdT1tDSDJdMilOM1tDSDJdW0NIMl1PW0NIMl1bQ0gyXTM=

> <s_epik_cmdline>
J2VwaWtfcHl0aG9uJywgJy1waCcsICc3LjAnLCAnLXRuJywgJzgnLCAnLW1hJywgJzIwMCcsICctbWV0YWxfYmluZGluZycsICctaW1hZScsICc8aW5maWxlLm1hZT4nLCAnLW9tYWUnLCAnPG91dGZpbGUubWFlPic=

> <r_epik_Ionization_Penalty>
0.125073

> <r_epik_Ionization_Penalty_Charging>
0

> <r_epik_Ionization_Penalty_Neutral>
0.125073

> <r_epik_State_Penalty>
0.114484

> <r_epik_Charging_Adjusted_Penalty>
0.114484

> <i_epik_Tot_Q>
0

> <i_epik_Tot_abs_Q>
0

> <r_epik_Metal_State_Penalty>
0.114483

> <b_epik_Metal_Only>
0

> <s_lp_Force_Field>
OPLS_2005

> <r_lp_Energy>
55.6911

> <b_lp_Chiralities_Consistent>
1

> <s_lp_Variant>
AV-unprocessed.smi:1734-4

> <Gold.Version>
5.8.1

> <Gold.Id.Protein>
6NUR|6NUR_protein|mol2

> <Gold.PLP.Fitness>
44.4484

> <Gold.PLP.PLP>
-34.6293

> <Gold.PLP.part.hbond>
-4.0000

> <Gold.PLP.part.metal>
0.0000

> <Gold.PLP.part.buried>
-6.4115

> <Gold.PLP.part.nonpolar>
-24.4781

> <Gold.PLP.part.repulsive>
0.3605

> <Gold.PLP.ligand.clash>
0.0000

> <Gold.PLP.ligand.torsion>
0.7807

> <Gold.PLP.Chemscore.Hbond>
3.6360

> <Gold.PLP.Chemscore.CHOScore>
0.0000

> <Gold.PLP.Chemscore.Metal>
0.0000

> <Gold.Chemscore.Hbonds>
donor molecule, donor type, donor heavy atom, donor atom, acceptor molecule, acceptor atom, score
      L1  H     8    31       P1  7948  0.88
      L1  H    11    32       P1  7948  0.76
      P1  H  7989  7998       L1    22  0.55

> <Gold.PLP.Chemscore.Internal.Correction>
0.4724

> <Gold.Rescore>
     Score         DG    S(hbond)    S(metal)    S(lipo)     H(rot)  DE(clash)    DE(int)     intcor
     15.40     -16.45       1.89        0.00      75.77       1.65       0.12       0.93       ----

> <Gold.Chemscore.Fitness>
15.4040

> <Gold.Chemscore.DG>
-16.4538

> <Gold.Chemscore.ZeroCoef>
-5.4800

> <Gold.Chemscore.Hbond>
1.8944

> <Gold.Chemscore.Metal>
0.0000

> <Gold.Chemscore.Lipo>
75.7734

> <Gold.Chemscore.Internal_Hbond>
0.0000

> <Gold.Chemscore.DEClash>
0.1224

> <Gold.Chemscore.DEInternal>
0.9273

> <Gold.Chemscore.Rot>
1.6480

> <Gold.Chemscore.Internal.Correction>
   9.000000E+99

> <Gold.Chemscore.Hbonds>
donor molecule, donor type, donor heavy atom, donor atom, acceptor molecule, acceptor atom, score
      L1  H     8    31       P1  7948  0.48
      L1  H    11    32       P1  7948  0.52
      P1  H  7989  7998       L1    22  0.03

> <Gold.Chemscore.Hbond.Weighted>
-6.3271

> <Gold.Chemscore.Metal.Weighted>
-0.0000

> <Gold.Chemscore.Lipo.Weighted>
-8.8655

> <Gold.Chemscore.Internal_Hbond.Weighted>
0.0000

> <Gold.Chemscore.DEClash.Weighted>
0.1224

> <Gold.Chemscore.DEInternal.Weighted>
0.9273

> <Gold.Chemscore.Rot.Weighted>
4.2188

> <Gold.Chemscore.Internal.Correction.Weighted>
   9.000000E+99

> <Gold.Protein.RotatedTorsions>
[ 6907 6896 6895 6894 ] final   83.45 input  -60.11 | X-H torsion
[ 7974 7965 7964 7962 ] final   38.23 input  175.53 | X-H torsion
[ 8008 7997 7996 7995 ] final -110.43 input   59.86 | X-H torsion
[ 10167 10162 10161 10158 ] final -146.63 input  -65.29 | X-H torsion
[ 10718 10713 10712 10709 ] final -121.41 input   66.30 | X-H torsion
[ 10763 10752 10751 10750 ] final  133.73 input  -60.55 | X-H torsion
[ 11005 11000 10999 10996 ] final -122.47 input  -57.11 | X-H torsion

> <Gold.Protein.ActiveResidues>
 VAL166  LYS551  ARG553  GLY616  TRP617  ASP618  TYR619  PRO620  LYS621  CYS622 
 ASP623  PHE694  ASN695  SER759  ASP760  ASP761  ALA762  ILE779  LEU786  VAL792 
 PHE793  MET794  SER795  GLU796  ALA797  LYS798  CYS799  TRP800  GLU811  SER814 

> <Gold.Protein.RotatedAtoms>
  152.5327  134.2893  159.9036 H   0  0  0  0  0  0  0  0  0  0  0  0  # atno 6907 bound_to 6896
  151.2845  133.4187  159.2636 H   0  0  0  0  0  0  0  0  0  0  0  0  # atno 6908 bound_to 6896
  151.0254  134.9516  159.8139 H   0  0  0  0  0  0  0  0  0  0  0  0  # atno 6909 bound_to 6896
  146.1078  139.5798  142.9372 H   0  0  0  0  0  0  0  0  0  0  0  0  # atno 7974 bound_to 7965
  154.9744  140.0397  157.2249 H   0  0  0  0  0  0  0  0  0  0  0  0  # atno 8008 bound_to 7997
  154.7771  140.2812  155.6070 H   0  0  0  0  0  0  0  0  0  0  0  0  # atno 8009 bound_to 7997
  156.2930  140.2599  156.2588 H   0  0  0  0  0  0  0  0  0  0  0  0  # atno 8010 bound_to 7997
  139.7696  143.8257  152.2622 H   0  0  0  0  0  0  0  0  0  0  0  0  # atno 10167 bound_to 10162
  156.1335  130.6413  150.9659 H   0  0  0  0  0  0  0  0  0  0  0  0  # atno 10718 bound_to 10713
  153.8119  135.3128  155.3401 H   0  0  0  0  0  0  0  0  0  0  0  0  # atno 10763 bound_to 10752
  154.8048  135.4704  154.0368 H   0  0  0  0  0  0  0  0  0  0  0  0  # atno 10764 bound_to 10752
  153.1748  135.6884  153.8646 H   0  0  0  0  0  0  0  0  0  0  0  0  # atno 10765 bound_to 10752
  140.9993  134.0427  157.3558 H   0  0  0  0  0  0  0  0  0  0  0  0  # atno 11005 bound_to 11000
  145.5726  141.0392  143.2166 LP  0  0  0  0  0  0  0  0  0  0  0  0  # atno 17320 bound_to 7965
  144.7485  139.7255  143.7282 LP  0  0  0  0  0  0  0  0  0  0  0  0  # atno 17321 bound_to 7965
  139.8288  144.7263  150.9478 LP  0  0  0  0  0  0  0  0  0  0  0  0  # atno 17342 bound_to 10162
  140.7813  143.4090  151.1024 LP  0  0  0  0  0  0  0  0  0  0  0  0  # atno 17343 bound_to 10162
  157.6511  131.0897  150.8049 LP  0  0  0  0  0  0  0  0  0  0  0  0  # atno 17370 bound_to 10713
  156.8132  130.4959  149.5353 LP  0  0  0  0  0  0  0  0  0  0  0  0  # atno 17371 bound_to 10713
  139.9030  135.0171  156.7358 LP  0  0  0  0  0  0  0  0  0  0  0  0  # atno 17394 bound_to 11000
  140.6916  133.9385  155.7969 LP  0  0  0  0  0  0  0  0  0  0  0  0  # atno 17395 bound_to 11000

$$$$
