AV-unprocessed.smi:1191|AV-procd|sdf|4987|dock2
  -GOLD-   22720 3583D 1   1.00000     0.00000
 Structure written by MMmdl.
 47 48  0  0  0  0  0  0  0  0  2 V2000
  152.4593  140.3863  158.5294 C   0  0  0  0  0  0  0  0  0  0  0  0
  151.7047  140.4031  157.2328 C   0  0  0  0  0  0  0  0  0  0  0  0
  150.9556  141.4692  156.6616 C   0  0  0  0  0  0  0  0  0  0  0  0
  150.4767  140.9559  155.4894 C   0  0  0  0  0  0  0  0  0  0  0  0
  149.6158  141.5875  154.4447 C   0  0  0  0  0  0  0  0  0  0  0  0
  150.9381  139.6534  155.4033 N   0  0  0  0  0  0  0  0  0  0  0  0
  150.7163  138.6647  154.3591 C   0  0  0  0  0  0  0  0  0  0  0  0
  150.2880  137.3199  154.9501 C   0  0  0  0  0  0  0  0  0  0  0  0
  151.0901  136.6412  155.5920 O   0  0  0  0  0  0  0  0  0  0  0  0
  149.0146  136.9507  154.7420 N   0  0  0  0  0  0  0  0  0  0  0  0
  148.4081  135.7323  155.2634 C   0  0  0  0  0  0  0  0  0  0  0  0
  146.8900  135.7083  154.9998 C   0  0  0  0  0  0  0  0  0  0  0  0
  146.5622  135.8554  153.5595 N   0  3  2  0  0  0  0  0  0  0  0  0
  145.6256  136.9817  153.3114 C   0  0  0  0  0  0  0  0  0  0  0  0
  145.4078  137.1998  151.8060 C   0  0  0  0  0  0  0  0  0  0  0  0
  144.9040  135.9170  151.1333 C   0  0  0  0  0  0  0  0  0  0  0  0
  145.8650  134.7516  151.4209 C   0  0  2  0  0  0  0  0  0  0  0  0
  145.3688  133.4467  150.7823 C   0  0  0  0  0  0  0  0  0  0  0  0
  146.0732  134.5931  152.9409 C   0  0  0  0  0  0  0  0  0  0  0  0
  151.6918  139.3202  156.4737 N   0  0  0  0  0  0  0  0  0  0  0  0
  152.3370  141.3254  159.0691 H   0  0  0  0  0  0  0  0  0  0  0  0
  153.5259  140.2367  158.3611 H   0  0  0  0  0  0  0  0  0  0  0  0
  152.1075  139.5837  159.1783 H   0  0  0  0  0  0  0  0  0  0  0  0
  150.7933  142.4618  157.0550 H   0  0  0  0  0  0  0  0  0  0  0  0
  149.4973  142.6548  154.6327 H   0  0  0  0  0  0  0  0  0  0  0  0
  148.6231  141.1372  154.4368 H   0  0  0  0  0  0  0  0  0  0  0  0
  150.0518  141.4704  153.4527 H   0  0  0  0  0  0  0  0  0  0  0  0
  149.9643  139.0455  153.6667 H   0  0  0  0  0  0  0  0  0  0  0  0
  151.6339  138.5286  153.7845 H   0  0  0  0  0  0  0  0  0  0  0  0
  148.4243  137.5624  154.1964 H   0  0  0  0  0  0  0  0  0  0  0  0
  148.8837  134.8807  154.7763 H   0  0  0  0  0  0  0  0  0  0  0  0
  148.6342  135.6469  156.3267 H   0  0  0  0  0  0  0  0  0  0  0  0
  146.4356  134.7941  155.3850 H   0  0  0  0  0  0  0  0  0  0  0  0
  146.4414  136.5309  155.5589 H   0  0  0  0  0  0  0  0  0  0  0  0
  144.6734  136.7813  153.8054 H   0  0  0  0  0  0  0  0  0  0  0  0
  146.0244  137.8979  153.7491 H   0  0  0  0  0  0  0  0  0  0  0  0
  144.6947  138.0091  151.6459 H   0  0  0  0  0  0  0  0  0  0  0  0
  146.3432  137.5155  151.3420 H   0  0  0  0  0  0  0  0  0  0  0  0
  143.9055  135.6773  151.5021 H   0  0  0  0  0  0  0  0  0  0  0  0
  144.8098  136.0746  150.0582 H   0  0  0  0  0  0  0  0  0  0  0  0
  146.8302  134.9900  150.9713 H   0  0  0  0  0  0  0  0  0  0  0  0
  144.4013  133.1490  151.1883 H   0  0  0  0  0  0  0  0  0  0  0  0
  146.0696  132.6305  150.9594 H   0  0  0  0  0  0  0  0  0  0  0  0
  145.2570  133.5552  149.7030 H   0  0  0  0  0  0  0  0  0  0  0  0
  146.7871  133.7893  153.1177 H   0  0  0  0  0  0  0  0  0  0  0  0
  145.1397  134.2928  153.4200 H   0  0  0  0  0  0  0  0  0  0  0  0
  147.4238  136.0996  153.0926 H   0  0  0  0  0  0  0  0  0  0  0  0
  1  2  1  0  0  0  0
  1 21  1  0  0  0  0
  1 22  1  0  0  0  0
  1 23  1  0  0  0  0
  2 20  2  0  0  0  0
  2  3  1  0  0  0  0
  3  4  2  0  0  0  0
  3 24  1  0  0  0  0
  4  5  1  0  0  0  0
  4  6  1  0  0  0  0
  5 25  1  0  0  0  0
  5 26  1  0  0  0  0
  5 27  1  0  0  0  0
  6  7  1  0  0  0  0
  6 20  1  0  0  0  0
  7  8  1  0  0  0  0
  7 28  1  0  0  0  0
  7 29  1  0  0  0  0
  8  9  2  0  0  0  0
  8 10  1  0  0  0  0
 10 11  1  0  0  0  0
 10 30  1  0  0  0  0
 11 12  1  0  0  0  0
 11 31  1  0  0  0  0
 11 32  1  0  0  0  0
 12 13  1  0  0  0  0
 12 33  1  0  0  0  0
 12 34  1  0  0  0  0
 13 19  1  0  0  0  0
 13 14  1  0  0  0  0
 13 47  1  0  0  0  0
 14 15  1  0  0  0  0
 14 35  1  0  0  0  0
 14 36  1  0  0  0  0
 15 16  1  0  0  0  0
 15 37  1  0  0  0  0
 15 38  1  0  0  0  0
 16 17  1  0  0  0  0
 16 39  1  0  0  0  0
 16 40  1  0  0  0  0
 17 18  1  0  0  0  0
 17 19  1  0  0  0  0
 17 41  1  0  0  0  0
 18 42  1  0  0  0  0
 18 43  1  0  0  0  0
 18 44  1  0  0  0  0
 19 45  1  0  0  0  0
 19 46  1  0  0  0  0
M  CHG  1  13   1
M  END
> <s_m_source_file>
AV-unprocessed.smi

> <i_m_source_file_index>
1191

> <i_lp_mmshare_version>
43012

> <i_f3d_flags>
0

> <s_epik_input>
W0NIM11jMVtjSF1jKFtDSDNdKW4objEpW0NIMl1DKD1PKVtOSF1bQ0gyXVtDSDJdTjJbQ0gyXVtDSDJdW0NIMl1bQ0BASF0oW0NIM10pW0NIMl0y

> <s_epik_cmdline>
J2VwaWtfcHl0aG9uJywgJy1waCcsICc3LjAnLCAnLXRuJywgJzgnLCAnLW1hJywgJzIwMCcsICctbWV0YWxfYmluZGluZycsICctaW1hZScsICc8aW5maWxlLm1hZT4nLCAnLW9tYWUnLCAnPG91dGZpbGUubWFlPic=

> <r_lp_tautomer_probability>
1

> <r_epik_Ionization_Penalty>
0.00249932

> <r_epik_Ionization_Penalty_Charging>
0.00230623

> <r_epik_Ionization_Penalty_Neutral>
0.000193092

> <r_epik_State_Penalty>
-0

> <r_epik_Charging_Adjusted_Penalty>
0.00230623

> <i_epik_Tot_Q>
1

> <i_epik_Tot_abs_Q>
1

> <r_epik_Metal_State_Penalty>
-0

> <b_epik_Metal_Only>
0

> <s_lp_Force_Field>
OPLS_2005

> <r_lp_Energy>
14.4812

> <b_lp_Chiralities_Consistent>
1

> <s_lp_Variant>
AV-unprocessed.smi:1191-4

> <Gold.Version>
5.8.1

> <Gold.Id.Protein>
6NUR|6NUR_protein|mol2

> <Gold.PLP.Fitness>
44.2864

> <Gold.PLP.PLP>
-37.1331

> <Gold.PLP.part.hbond>
-3.0000

> <Gold.PLP.part.metal>
0.0000

> <Gold.PLP.part.buried>
-3.1590

> <Gold.PLP.part.nonpolar>
-30.4437

> <Gold.PLP.part.repulsive>
0.1131

> <Gold.PLP.ligand.clash>
0.0000

> <Gold.PLP.ligand.torsion>
0.9523

> <Gold.PLP.Chemscore.Hbond>
3.0000

> <Gold.PLP.Chemscore.CHOScore>
0.0000

> <Gold.PLP.Chemscore.Metal>
0.0000

> <Gold.Chemscore.Hbonds>
donor molecule, donor type, donor heavy atom, donor atom, acceptor molecule, acceptor atom, score
      L1  H    13    47       P1  7948  2.00
      P1  H 10752 10765       L1     9  0.11

> <Gold.PLP.Chemscore.Internal.Correction>
0.0579

> <Gold.Rescore>
     Score         DG    S(hbond)    S(metal)    S(lipo)     H(rot)  DE(clash)    DE(int)     intcor
     14.71     -17.02       1.99        0.00      78.35       1.67       0.08       2.23       ----

> <Gold.Chemscore.Fitness>
14.7149

> <Gold.Chemscore.DG>
-17.0191

> <Gold.Chemscore.ZeroCoef>
-5.4800

> <Gold.Chemscore.Hbond>
1.9871

> <Gold.Chemscore.Metal>
0.0000

> <Gold.Chemscore.Lipo>
78.3453

> <Gold.Chemscore.Internal_Hbond>
0.0000

> <Gold.Chemscore.DEClash>
0.0777

> <Gold.Chemscore.DEInternal>
2.2265

> <Gold.Chemscore.Rot>
1.6657

> <Gold.Chemscore.Internal.Correction>
   9.000000E+99

> <Gold.Chemscore.Hbonds>
donor molecule, donor type, donor heavy atom, donor atom, acceptor molecule, acceptor atom, score
      L1  H    13    47       P1  7948  0.98
      P1  H 10752 10765       L1     9  0.14

> <Gold.Chemscore.Hbond.Weighted>
-6.6368

> <Gold.Chemscore.Metal.Weighted>
-0.0000

> <Gold.Chemscore.Lipo.Weighted>
-9.1664

> <Gold.Chemscore.Internal_Hbond.Weighted>
0.0000

> <Gold.Chemscore.DEClash.Weighted>
0.0777

> <Gold.Chemscore.DEInternal.Weighted>
2.2265

> <Gold.Chemscore.Rot.Weighted>
4.2641

> <Gold.Chemscore.Internal.Correction.Weighted>
   9.000000E+99

> <Gold.Protein.RotatedTorsions>
[ 6907 6896 6895 6894 ] final  121.67 input  -60.11 | X-H torsion
[ 7974 7965 7964 7962 ] final  152.20 input  175.53 | X-H torsion
[ 8008 7997 7996 7995 ] final -118.95 input   59.86 | X-H torsion
[ 10167 10162 10161 10158 ] final  -73.36 input  -65.29 | X-H torsion
[ 10718 10713 10712 10709 ] final  -86.37 input   66.30 | X-H torsion
[ 10763 10752 10751 10750 ] final  171.39 input  -60.55 | X-H torsion
[ 11005 11000 10999 10996 ] final  107.01 input  -57.11 | X-H torsion

> <Gold.Protein.ActiveResidues>
 VAL166  LYS551  ARG553  GLY616  TRP617  ASP618  TYR619  PRO620  LYS621  CYS622 
 ASP623  PHE694  ASN695  SER759  ASP760  ASP761  ALA762  ILE779  LEU786  VAL792 
 PHE793  MET794  SER795  GLU796  ALA797  LYS798  CYS799  TRP800  GLU811  SER814 

> <Gold.Protein.RotatedAtoms>
  152.4304  133.7267  159.6563 H   0  0  0  0  0  0  0  0  0  0  0  0  # atno 6907 bound_to 6896
  150.8183  133.8288  159.3156 H   0  0  0  0  0  0  0  0  0  0  0  0  # atno 6908 bound_to 6896
  151.5978  135.1051  160.0105 H   0  0  0  0  0  0  0  0  0  0  0  0  # atno 6909 bound_to 6896
  144.8239  139.6637  143.6088 H   0  0  0  0  0  0  0  0  0  0  0  0  # atno 7974 bound_to 7965
  155.1078  140.0397  157.2715 H   0  0  0  0  0  0  0  0  0  0  0  0  # atno 8008 bound_to 7997
  154.6708  140.2612  155.6983 H   0  0  0  0  0  0  0  0  0  0  0  0  # atno 8009 bound_to 7997
  156.2657  140.2798  156.1216 H   0  0  0  0  0  0  0  0  0  0  0  0  # atno 8010 bound_to 7997
  140.5117  143.2344  151.7582 H   0  0  0  0  0  0  0  0  0  0  0  0  # atno 10167 bound_to 10162
  155.9990  130.4763  150.4704 H   0  0  0  0  0  0  0  0  0  0  0  0  # atno 10718 bound_to 10713
  154.4111  135.2756  155.2036 H   0  0  0  0  0  0  0  0  0  0  0  0  # atno 10763 bound_to 10752
  154.4021  135.6042  153.5907 H   0  0  0  0  0  0  0  0  0  0  0  0  # atno 10764 bound_to 10752
  152.9831  135.5929  154.4393 H   0  0  0  0  0  0  0  0  0  0  0  0  # atno 10765 bound_to 10752
  139.8822  134.9387  156.5754 H   0  0  0  0  0  0  0  0  0  0  0  0  # atno 11005 bound_to 11000
  146.2544  139.6271  142.9405 LP  0  0  0  0  0  0  0  0  0  0  0  0  # atno 17320 bound_to 7965
  145.5044  141.0437  143.2523 LP  0  0  0  0  0  0  0  0  0  0  0  0  # atno 17321 bound_to 7965
  139.4898  144.4381  151.9796 LP  0  0  0  0  0  0  0  0  0  0  0  0  # atno 17342 bound_to 10162
  140.3474  144.3131  150.5955 LP  0  0  0  0  0  0  0  0  0  0  0  0  # atno 17343 bound_to 10162
  157.2720  131.0589  151.2254 LP  0  0  0  0  0  0  0  0  0  0  0  0  # atno 17370 bound_to 10713
  157.3331  130.6995  149.6336 LP  0  0  0  0  0  0  0  0  0  0  0  0  # atno 17371 bound_to 10713
  140.8067  133.8462  155.8774 LP  0  0  0  0  0  0  0  0  0  0  0  0  # atno 17394 bound_to 11000
  140.9544  134.1737  157.4703 LP  0  0  0  0  0  0  0  0  0  0  0  0  # atno 17395 bound_to 11000

$$$$
