AV-unprocessed.smi:2784|AV-procd|sdf|10743|dock7
  -GOLD-   2272015183D 1   1.00000     0.00000
 Structure written by MMmdl.
 30 31  0  0  0  0  0  0  0  0  2 V2000
  151.9866  140.6900  158.8222 C   0  0  0  0  0  0  0  0  0  0  0  0
  151.5091  139.4754  158.2674 O   0  0  0  0  0  0  0  0  0  0  0  0
  150.6821  139.6541  157.1210 C   0  0  1  0  0  0  0  0  0  0  0  0
  151.5391  140.2074  155.9774 C   0  0  0  0  0  0  0  0  0  0  0  0
  152.2291  138.9745  155.4003 C   0  0  0  0  0  0  0  0  0  0  0  0
  151.1837  137.8600  155.4974 C   0  0  0  0  0  0  0  0  0  0  0  0
  150.1915  138.2841  156.5983 C   0  0  1  0  0  0  0  0  0  0  0  0
  150.0943  137.2686  157.6459 N   0  0  0  0  0  0  0  0  0  0  0  0
  149.1560  137.2191  158.6024 C   0  0  0  0  0  0  0  0  0  0  0  0
  148.2748  138.0811  158.6432 O   0  0  0  0  0  0  0  0  0  0  0  0
  149.2998  136.1784  159.4536 N   0  5  0  0  0  0  0  0  0  0  0  0
  148.4641  136.0475  160.4963 C   0  0  0  0  0  0  0  0  0  0  0  0
  148.0090  134.9016  161.0063 N   0  0  0  0  0  0  0  0  0  0  0  0
  147.1909  135.2576  162.0673 C   0  0  0  0  0  0  0  0  0  0  0  0
  147.1923  136.6226  162.1590 C   0  0  0  0  0  0  0  0  0  0  0  0
  147.9942  137.1321  161.1756 O   0  0  0  0  0  0  0  0  0  0  0  0
  152.6213  140.4730  159.6811 H   0  0  0  0  0  0  0  0  0  0  0  0
  151.1605  141.3132  159.1671 H   0  0  0  0  0  0  0  0  0  0  0  0
  152.5768  141.2580  158.1032 H   0  0  0  0  0  0  0  0  0  0  0  0
  149.8332  140.3004  157.3520 H   0  0  0  0  0  0  0  0  0  0  0  0
  150.8922  140.6497  155.2186 H   0  0  0  0  0  0  0  0  0  0  0  0
  152.2464  140.9740  156.2932 H   0  0  0  0  0  0  0  0  0  0  0  0
  152.5830  139.1299  154.3810 H   0  0  0  0  0  0  0  0  0  0  0  0
  153.0928  138.7201  156.0163 H   0  0  0  0  0  0  0  0  0  0  0  0
  150.6549  137.7625  154.5486 H   0  0  0  0  0  0  0  0  0  0  0  0
  151.6569  136.8977  155.6985 H   0  0  0  0  0  0  0  0  0  0  0  0
  149.2115  138.4103  156.1341 H   0  0  0  0  0  0  0  0  0  0  0  0
  150.8021  136.5491  157.6520 H   0  0  0  0  0  0  0  0  0  0  0  0
  146.6800  134.5194  162.6673 H   0  0  0  0  0  0  0  0  0  0  0  0
  146.7146  137.3338  162.8159 H   0  0  0  0  0  0  0  0  0  0  0  0
  1  2  1  0  0  0  0
  1 17  1  0  0  0  0
  1 18  1  0  0  0  0
  1 19  1  0  0  0  0
  2  3  1  0  0  0  0
  3  7  1  0  0  0  0
  3  4  1  0  0  0  0
  3 20  1  0  0  0  0
  4  5  1  0  0  0  0
  4 21  1  0  0  0  0
  4 22  1  0  0  0  0
  5  6  1  0  0  0  0
  5 23  1  0  0  0  0
  5 24  1  0  0  0  0
  6  7  1  0  0  0  0
  6 25  1  0  0  0  0
  6 26  1  0  0  0  0
  7  8  1  0  0  0  0
  7 27  1  0  0  0  0
  8 28  1  0  0  0  0
  8  9  1  0  0  0  0
  9 11  1  0  0  0  0
  9 10  2  0  0  0  0
 11 12  1  0  0  0  0
 12 16  1  0  0  0  0
 12 13  2  0  0  0  0
 13 14  1  0  0  0  0
 14 29  1  0  0  0  0
 14 15  2  0  0  0  0
 15 30  1  0  0  0  0
 15 16  1  0  0  0  0
M  CHG  1  11  -1
M  END
> <s_m_source_file>
AV-unprocessed.smi

> <i_m_source_file_index>
2784

> <i_lp_mmshare_version>
43012

> <i_f3d_flags>
0

> <s_epik_input>
W0NIM11PW0NAQEhdMVtDSDJdW0NIMl1bQ0gyXVtDQEhdMVtOSF1DKD1PKVtOSF1jMm5bY0hdW2NIXW8y

> <s_epik_cmdline>
J2VwaWtfcHl0aG9uJywgJy1waCcsICc3LjAnLCAnLXRuJywgJzgnLCAnLW1hJywgJzIwMCcsICctbWV0YWxfYmluZGluZycsICctaW1hZScsICc8aW5maWxlLm1hZT4nLCAnLW9tYWUnLCAnPG91dGZpbGUubWFlPic=

> <r_lp_tautomer_probability>
0.107061

> <r_epik_Ionization_Penalty>
10.8857

> <r_epik_Ionization_Penalty_Charging>
7.67908

> <r_epik_Ionization_Penalty_Neutral>
3.20665

> <r_epik_State_Penalty>
5.80296

> <r_epik_Charging_Adjusted_Penalty>
13.482

> <i_epik_Tot_Q>
-1

> <i_epik_Tot_abs_Q>
1

> <r_epik_Metal_State_Penalty>
1.73217

> <b_epik_Metal_Only>
1

> <s_lp_Force_Field>
OPLS_2005

> <r_lp_Energy>
16.6072

> <b_lp_Chiralities_Consistent>
1

> <s_lp_Variant>
AV-unprocessed.smi:2784-18

> <Gold.Version>
5.8.1

> <Gold.Id.Protein>
6NUR|6NUR_protein|mol2

> <Gold.PLP.Fitness>
35.3223

> <Gold.PLP.PLP>
-25.2336

> <Gold.PLP.part.hbond>
-3.6554

> <Gold.PLP.part.metal>
0.0000

> <Gold.PLP.part.buried>
-3.3751

> <Gold.PLP.part.nonpolar>
-18.5995

> <Gold.PLP.part.repulsive>
0.0537

> <Gold.PLP.ligand.clash>
0.0000

> <Gold.PLP.ligand.torsion>
0.4192

> <Gold.PLP.Chemscore.Hbond>
3.6377

> <Gold.PLP.Chemscore.CHOScore>
0.0000

> <Gold.PLP.Chemscore.Metal>
0.0000

> <Gold.Chemscore.Hbonds>
donor molecule, donor type, donor heavy atom, donor atom, acceptor molecule, acceptor atom, score
      P1  H  6896  6907       L1    11  1.98
      P1  H  6931  6943       L1    16  1.00
      P1  H  6934  6947       L1    16  0.66

> <Gold.PLP.Chemscore.Internal.Correction>
0.0140

> <Gold.Rescore>
     Score         DG    S(hbond)    S(metal)    S(lipo)     H(rot)  DE(clash)    DE(int)     intcor
     13.09     -15.07       2.10        0.00      50.55       1.31       0.00       1.98       ----

> <Gold.Chemscore.Fitness>
13.0860

> <Gold.Chemscore.DG>
-15.0673

> <Gold.Chemscore.ZeroCoef>
-5.4800

> <Gold.Chemscore.Hbond>
2.1041

> <Gold.Chemscore.Metal>
0.0000

> <Gold.Chemscore.Lipo>
50.5514

> <Gold.Chemscore.Internal_Hbond>
0.0000

> <Gold.Chemscore.DEClash>
0.0000

> <Gold.Chemscore.DEInternal>
1.9813

> <Gold.Chemscore.Rot>
1.3106

> <Gold.Chemscore.Internal.Correction>
   9.000000E+99

> <Gold.Chemscore.Hbonds>
donor molecule, donor type, donor heavy atom, donor atom, acceptor molecule, acceptor atom, score
      P1  H  6896  6907       L1    11  0.60
      P1  H  6931  6943       L1    16  0.57
      P1  H  6934  6947       L1    16  0.22

> <Gold.Chemscore.Hbond.Weighted>
-7.0278

> <Gold.Chemscore.Metal.Weighted>
-0.0000

> <Gold.Chemscore.Lipo.Weighted>
-5.9145

> <Gold.Chemscore.Internal_Hbond.Weighted>
0.0000

> <Gold.Chemscore.DEClash.Weighted>
0.0000

> <Gold.Chemscore.DEInternal.Weighted>
1.9813

> <Gold.Chemscore.Rot.Weighted>
3.3550

> <Gold.Chemscore.Internal.Correction.Weighted>
   9.000000E+99

> <Gold.Protein.RotatedTorsions>
[ 6907 6896 6895 6894 ] final  -54.36 input  -60.11 | X-H torsion
[ 7974 7965 7964 7962 ] final  -28.25 input  175.53 | X-H torsion
[ 8008 7997 7996 7995 ] final   45.57 input   59.86 | X-H torsion
[ 10167 10162 10161 10158 ] final  116.96 input  -65.29 | X-H torsion
[ 10718 10713 10712 10709 ] final  136.38 input   66.30 | X-H torsion
[ 10763 10752 10751 10750 ] final  -69.28 input  -60.55 | X-H torsion
[ 11005 11000 10999 10996 ] final -134.39 input  -57.11 | X-H torsion

> <Gold.Protein.ActiveResidues>
 VAL166  LYS551  ARG553  GLY616  TRP617  ASP618  TYR619  PRO620  LYS621  CYS622 
 ASP623  PHE694  ASN695  SER759  ASP760  ASP761  ALA762  ILE779  LEU786  VAL792 
 PHE793  MET794  SER795  GLU796  ALA797  LYS798  CYS799  TRP800  GLU811  SER814 

> <Gold.Protein.RotatedAtoms>
  150.8345  134.7613  159.6881 H   0  0  0  0  0  0  0  0  0  0  0  0  # atno 6907 bound_to 6896
  152.4444  134.5521  159.9879 H   0  0  0  0  0  0  0  0  0  0  0  0  # atno 6908 bound_to 6896
  151.5674  133.3357  159.3019 H   0  0  0  0  0  0  0  0  0  0  0  0  # atno 6909 bound_to 6896
  146.1301  140.5258  142.8697 H   0  0  0  0  0  0  0  0  0  0  0  0  # atno 7974 bound_to 7965
  155.3381  140.3406  155.4239 H   0  0  0  0  0  0  0  0  0  0  0  0  # atno 8008 bound_to 7997
  156.1827  140.1669  156.8280 H   0  0  0  0  0  0  0  0  0  0  0  0  # atno 8009 bound_to 7997
  154.5351  140.0737  156.8397 H   0  0  0  0  0  0  0  0  0  0  0  0  # atno 8010 bound_to 7997
  139.6211  144.7101  151.2632 H   0  0  0  0  0  0  0  0  0  0  0  0  # atno 10167 bound_to 10162
  157.4472  131.1063  151.0075 H   0  0  0  0  0  0  0  0  0  0  0  0  # atno 10718 bound_to 10713
  154.4012  135.6030  153.5898 H   0  0  0  0  0  0  0  0  0  0  0  0  # atno 10763 bound_to 10752
  152.9788  135.5907  154.4182 H   0  0  0  0  0  0  0  0  0  0  0  0  # atno 10764 bound_to 10752
  154.3981  135.2842  155.2092 H   0  0  0  0  0  0  0  0  0  0  0  0  # atno 10765 bound_to 10752
  140.8994  134.1709  157.4471 H   0  0  0  0  0  0  0  0  0  0  0  0  # atno 11005 bound_to 11000
  144.7682  140.5578  143.6688 LP  0  0  0  0  0  0  0  0  0  0  0  0  # atno 17320 bound_to 7965
  145.5279  139.1475  143.3516 LP  0  0  0  0  0  0  0  0  0  0  0  0  # atno 17321 bound_to 7965
  140.7382  143.6654  150.8128 LP  0  0  0  0  0  0  0  0  0  0  0  0  # atno 17342 bound_to 10162
  140.0265  143.5488  152.2778 LP  0  0  0  0  0  0  0  0  0  0  0  0  # atno 17343 bound_to 10162
  157.0917  130.5945  149.5441 LP  0  0  0  0  0  0  0  0  0  0  0  0  # atno 17370 bound_to 10713
  155.9972  130.5043  150.7526 LP  0  0  0  0  0  0  0  0  0  0  0  0  # atno 17371 bound_to 10713
  139.8740  134.9892  156.5446 LP  0  0  0  0  0  0  0  0  0  0  0  0  # atno 17394 bound_to 11000
  140.8248  133.8325  155.8929 LP  0  0  0  0  0  0  0  0  0  0  0  0  # atno 17395 bound_to 11000

$$$$
