AV-unprocessed.smi:2057|AV-procd|sdf|8342|dock8
  -GOLD-   2272011 13D 1   1.00000     0.00000
 Structure written by MMmdl.
 45 47  0  0  0  0  0  0  0  0  2 V2000
  151.1626  144.6704  159.1921 C   0  0  0  0  0  0  0  0  0  0  0  0
  152.1693  143.9853  159.9230 O   0  0  0  0  0  0  0  0  0  0  0  0
  152.3996  142.6589  159.6264 C   0  0  0  0  0  0  0  0  0  0  0  0
  153.4017  142.0025  160.3641 C   0  0  0  0  0  0  0  0  0  0  0  0
  153.6951  140.6462  160.1351 C   0  0  0  0  0  0  0  0  0  0  0  0
  152.9910  139.9109  159.1497 C   0  0  0  0  0  0  0  0  0  0  0  0
  153.2204  138.5739  158.8926 O   0  0  0  0  0  0  0  0  0  0  0  0
  154.2534  137.9141  159.6095 C   0  0  0  0  0  0  0  0  0  0  0  0
  151.9929  140.5690  158.3902 C   0  0  0  0  0  0  0  0  0  0  0  0
  151.2160  139.8012  157.3247 C   0  0  2  0  0  0  0  0  0  0  0  0
  151.8388  138.5856  156.9535 O   0  0  0  0  0  0  0  0  0  0  0  0
  150.9793  140.6763  156.0785 C   0  0  0  0  0  0  0  0  0  0  0  0
  150.0333  140.0725  155.1281 N   0  0  0  0  0  0  0  0  0  0  0  0
  150.2557  139.1628  154.1370 C   0  0  0  0  0  0  0  0  0  0  0  0
  151.5709  138.5459  153.7792 C   0  0  0  0  0  0  0  0  0  0  0  0
  151.5105  137.1417  153.6404 O   0  0  0  0  0  0  0  0  0  0  0  0
  149.0543  138.9187  153.5395 N   0  3  0  0  0  0  0  0  0  0  0  0
  148.0573  139.6797  154.1509 C   0  0  0  0  0  0  0  0  0  0  0  0
  146.6930  139.7703  153.8928 C   0  0  0  0  0  0  0  0  0  0  0  0
  145.9523  140.6530  154.7063 C   0  0  0  0  0  0  0  0  0  0  0  0
  146.5705  141.4037  155.7272 C   0  0  0  0  0  0  0  0  0  0  0  0
  147.9543  141.3023  155.9801 C   0  0  0  0  0  0  0  0  0  0  0  0
  148.6794  140.4259  155.1728 C   0  0  0  0  0  0  0  0  0  0  0  0
  151.6958  141.9286  158.6389 C   0  0  0  0  0  0  0  0  0  0  0  0
  151.1017  145.7007  159.5426 H   0  0  0  0  0  0  0  0  0  0  0  0
  150.1829  144.2138  159.3396 H   0  0  0  0  0  0  0  0  0  0  0  0
  151.3918  144.6986  158.1260 H   0  0  0  0  0  0  0  0  0  0  0  0
  153.9499  142.5441  161.1210 H   0  0  0  0  0  0  0  0  0  0  0  0
  154.4675  140.1915  160.7362 H   0  0  0  0  0  0  0  0  0  0  0  0
  154.2897  136.8683  159.3048 H   0  0  0  0  0  0  0  0  0  0  0  0
  154.0709  137.9371  160.6847 H   0  0  0  0  0  0  0  0  0  0  0  0
  155.2291  138.3536  159.3976 H   0  0  0  0  0  0  0  0  0  0  0  0
  150.2512  139.5124  157.7419 H   0  0  0  0  0  0  0  0  0  0  0  0
  151.7162  137.9622  157.6534 H   0  0  0  0  0  0  0  0  0  0  0  0
  150.5580  141.6374  156.3763 H   0  0  0  0  0  0  0  0  0  0  0  0
  151.9153  140.9041  155.5681 H   0  0  0  0  0  0  0  0  0  0  0  0
  151.9281  138.9762  152.8432 H   0  0  0  0  0  0  0  0  0  0  0  0
  152.3017  138.7945  154.5493 H   0  0  0  0  0  0  0  0  0  0  0  0
  151.1517  136.9400  152.7893 H   0  0  0  0  0  0  0  0  0  0  0  0
  146.2179  139.1976  153.1099 H   0  0  0  0  0  0  0  0  0  0  0  0
  144.8895  140.7576  154.5427 H   0  0  0  0  0  0  0  0  0  0  0  0
  145.9716  142.0724  156.3285 H   0  0  0  0  0  0  0  0  0  0  0  0
  148.4179  141.8872  156.7604 H   0  0  0  0  0  0  0  0  0  0  0  0
  150.9155  142.3999  158.0615 H   0  0  0  0  0  0  0  0  0  0  0  0
  148.9333  138.2765  152.7668 H   0  0  0  0  0  0  0  0  0  0  0  0
  1  2  1  0  0  0  0
  1 25  1  0  0  0  0
  1 26  1  0  0  0  0
  1 27  1  0  0  0  0
  2  3  1  0  0  0  0
  3 24  1  0  0  0  0
  3  4  2  0  0  0  0
  4  5  1  0  0  0  0
  4 28  1  0  0  0  0
  5  6  2  0  0  0  0
  5 29  1  0  0  0  0
  6  7  1  0  0  0  0
  6  9  1  0  0  0  0
  7  8  1  0  0  0  0
  8 30  1  0  0  0  0
  8 31  1  0  0  0  0
  8 32  1  0  0  0  0
  9 10  1  0  0  0  0
  9 24  2  0  0  0  0
 10 11  1  0  0  0  0
 10 12  1  0  0  0  0
 10 33  1  0  0  0  0
 11 34  1  0  0  0  0
 12 13  1  0  0  0  0
 12 35  1  0  0  0  0
 12 36  1  0  0  0  0
 13 23  1  0  0  0  0
 13 14  1  0  0  0  0
 14 15  1  0  0  0  0
 14 17  2  0  0  0  0
 15 16  1  0  0  0  0
 15 37  1  0  0  0  0
 15 38  1  0  0  0  0
 16 39  1  0  0  0  0
 17 18  1  0  0  0  0
 17 45  1  0  0  0  0
 18 23  2  0  0  0  0
 18 19  1  0  0  0  0
 19 20  2  0  0  0  0
 19 40  1  0  0  0  0
 20 21  1  0  0  0  0
 20 41  1  0  0  0  0
 21 22  2  0  0  0  0
 21 42  1  0  0  0  0
 22 23  1  0  0  0  0
 22 43  1  0  0  0  0
 24 44  1  0  0  0  0
M  CHG  1  17   1
M  END
> <s_m_source_file>
AV-unprocessed.smi

> <i_m_source_file_index>
2057

> <i_lp_mmshare_version>
43012

> <i_f3d_flags>
0

> <s_epik_input>
W0NIM11PYzFbY0hdW2NIXWMoT1tDSDNdKWMoW2NIXTEpW0NASF0oW09IXSlbQ0gyXW4oYyhuMilbQ0gyXVtPSF0pYyhjMjMpW2NIXVtjSF1bY0hdW2NIXTM=

> <s_epik_cmdline>
J2VwaWtfcHl0aG9uJywgJy1waCcsICc3LjAnLCAnLXRuJywgJzgnLCAnLW1hJywgJzIwMCcsICctbWV0YWxfYmluZGluZycsICctaW1hZScsICc8aW5maWxlLm1hZT4nLCAnLW9tYWUnLCAnPG91dGZpbGUubWFlPic=

> <r_lp_tautomer_probability>
1

> <r_epik_Ionization_Penalty>
1.35643

> <r_epik_Ionization_Penalty_Charging>
1.35557

> <r_epik_Ionization_Penalty_Neutral>
0.000857128

> <r_epik_State_Penalty>
1.43401

> <r_epik_Charging_Adjusted_Penalty>
2.78958

> <i_epik_Tot_Q>
1

> <i_epik_Tot_abs_Q>
1

> <r_epik_Metal_State_Penalty>
5.47166

> <b_epik_Metal_Only>
0

> <s_lp_Force_Field>
OPLS_2005

> <r_lp_Energy>
20.8096

> <b_lp_Chiralities_Consistent>
1

> <s_lp_Variant>
AV-unprocessed.smi:2057-3

> <Gold.Version>
5.8.1

> <Gold.Id.Protein>
6NUR|6NUR_protein|mol2

> <Gold.PLP.Fitness>
58.6586

> <Gold.PLP.PLP>
-53.2240

> <Gold.PLP.part.hbond>
-4.0545

> <Gold.PLP.part.metal>
0.0000

> <Gold.PLP.part.buried>
-0.6517

> <Gold.PLP.part.nonpolar>
-48.5388

> <Gold.PLP.part.repulsive>
0.0863

> <Gold.PLP.ligand.clash>
4.6469

> <Gold.PLP.ligand.torsion>
1.0025

> <Gold.PLP.Chemscore.Hbond>
4.0000

> <Gold.PLP.Chemscore.CHOScore>
0.0000

> <Gold.PLP.Chemscore.Metal>
0.0000

> <Gold.Chemscore.Hbonds>
donor molecule, donor type, donor heavy atom, donor atom, acceptor molecule, acceptor atom, score
      L1  H    16    39       P1  7949  0.96
      L1  H    17    45       P1  7948  1.14
      P1  H 10752 10764       L1    16  0.25

> <Gold.PLP.Chemscore.Internal.Correction>
0.0866

> <Gold.Rescore>
     Score         DG    S(hbond)    S(metal)    S(lipo)     H(rot)  DE(clash)    DE(int)     intcor
     18.56     -19.94       2.63        0.00     119.79       3.25       0.67       0.71       ----

> <Gold.Chemscore.Fitness>
18.5583

> <Gold.Chemscore.DG>
-19.9354

> <Gold.Chemscore.ZeroCoef>
-5.4800

> <Gold.Chemscore.Hbond>
2.6258

> <Gold.Chemscore.Metal>
0.0000

> <Gold.Chemscore.Lipo>
119.7851

> <Gold.Chemscore.Internal_Hbond>
0.0000

> <Gold.Chemscore.DEClash>
0.6719

> <Gold.Chemscore.DEInternal>
0.7053

> <Gold.Chemscore.Rot>
3.2537

> <Gold.Chemscore.Internal.Correction>
   9.000000E+99

> <Gold.Chemscore.Hbonds>
donor molecule, donor type, donor heavy atom, donor atom, acceptor molecule, acceptor atom, score
      L1  H    16    39       P1  7949  0.46
      L1  H    17    45       P1  7948  0.54
      P1  H 10752 10764       L1    16  0.24

> <Gold.Chemscore.Hbond.Weighted>
-8.7700

> <Gold.Chemscore.Metal.Weighted>
-0.0000

> <Gold.Chemscore.Lipo.Weighted>
-14.0149

> <Gold.Chemscore.Internal_Hbond.Weighted>
0.0000

> <Gold.Chemscore.DEClash.Weighted>
0.6719

> <Gold.Chemscore.DEInternal.Weighted>
0.7053

> <Gold.Chemscore.Rot.Weighted>
8.3295

> <Gold.Chemscore.Internal.Correction.Weighted>
   9.000000E+99

> <Gold.Protein.RotatedTorsions>
[ 6907 6896 6895 6894 ] final   73.88 input  -60.11 | X-H torsion
[ 7974 7965 7964 7962 ] final -140.79 input  175.53 | X-H torsion
[ 8008 7997 7996 7995 ] final  -94.96 input   59.86 | X-H torsion
[ 10167 10162 10161 10158 ] final  -69.45 input  -65.29 | X-H torsion
[ 10718 10713 10712 10709 ] final  152.87 input   66.30 | X-H torsion
[ 10763 10752 10751 10750 ] final  -59.34 input  -60.55 | X-H torsion
[ 11005 11000 10999 10996 ] final  -16.94 input  -57.11 | X-H torsion

> <Gold.Protein.ActiveResidues>
 VAL166  LYS551  ARG553  GLY616  TRP617  ASP618  TYR619  PRO620  LYS621  CYS622 
 ASP623  PHE694  ASN695  SER759  ASP760  ASP761  ALA762  ILE779  LEU786  VAL792 
 PHE793  MET794  SER795  GLU796  ALA797  LYS798  CYS799  TRP800  GLU811  SER814 

> <Gold.Protein.RotatedAtoms>
  152.4947  134.4354  159.9525 H   0  0  0  0  0  0  0  0  0  0  0  0  # atno 6907 bound_to 6896
  151.4335  133.3657  159.2780 H   0  0  0  0  0  0  0  0  0  0  0  0  # atno 6908 bound_to 6896
  150.9137  134.8578  159.7503 H   0  0  0  0  0  0  0  0  0  0  0  0  # atno 6909 bound_to 6896
  144.8569  140.6157  143.5353 H   0  0  0  0  0  0  0  0  0  0  0  0  # atno 7974 bound_to 7965
  154.7552  140.0484  157.0927 H   0  0  0  0  0  0  0  0  0  0  0  0  # atno 8008 bound_to 7997
  155.0007  140.3124  155.4849 H   0  0  0  0  0  0  0  0  0  0  0  0  # atno 8009 bound_to 7997
  156.2893  140.2202  156.5116 H   0  0  0  0  0  0  0  0  0  0  0  0  # atno 8010 bound_to 7997
  140.5430  143.2314  151.7054 H   0  0  0  0  0  0  0  0  0  0  0  0  # atno 10167 bound_to 10162
  157.2521  131.0781  151.1723 H   0  0  0  0  0  0  0  0  0  0  0  0  # atno 10718 bound_to 10713
  154.2522  135.6324  153.5244 H   0  0  0  0  0  0  0  0  0  0  0  0  # atno 10763 bound_to 10752
  152.9910  135.5567  154.5795 H   0  0  0  0  0  0  0  0  0  0  0  0  # atno 10764 bound_to 10752
  154.5325  135.2889  155.1142 H   0  0  0  0  0  0  0  0  0  0  0  0  # atno 10765 bound_to 10752
  140.8118  133.8135  155.9571 H   0  0  0  0  0  0  0  0  0  0  0  0  # atno 11005 bound_to 11000
  145.4388  139.1538  143.3982 LP  0  0  0  0  0  0  0  0  0  0  0  0  # atno 17320 bound_to 7965
  146.2830  140.4508  142.8769 LP  0  0  0  0  0  0  0  0  0  0  0  0  # atno 17321 bound_to 7965
  139.4996  144.3939  152.0251 LP  0  0  0  0  0  0  0  0  0  0  0  0  # atno 17342 bound_to 10162
  140.3050  144.3603  150.6049 LP  0  0  0  0  0  0  0  0  0  0  0  0  # atno 17343 bound_to 10162
  157.3267  130.6964  149.6300 LP  0  0  0  0  0  0  0  0  0  0  0  0  # atno 17370 bound_to 10713
  155.9666  130.4319  150.4942 LP  0  0  0  0  0  0  0  0  0  0  0  0  # atno 17371 bound_to 10713
  140.9190  134.2166  157.4939 LP  0  0  0  0  0  0  0  0  0  0  0  0  # atno 17394 bound_to 11000
  139.8713  134.9784  156.4995 LP  0  0  0  0  0  0  0  0  0  0  0  0  # atno 17395 bound_to 11000

$$$$
