AV-unprocessed.smi:1670|AV-procd|sdf|6695|dock4
  -GOLD-   22720 7433D 1   1.00000     0.00000
 Structure written by MMmdl.
 41 42  0  0  0  0  0  0  0  0  1 V2000
  146.0412  139.3856  154.7364 C   0  0  0  0  0  0  0  0  0  0  0  0
  147.4350  138.7613  154.5837 C   0  0  2  0  0  0  0  0  0  0  0  0
  148.4834  139.8175  154.1712 C   0  0  0  0  0  0  0  0  0  0  0  0
  149.8410  139.4160  154.4989 N   0  0  0  0  0  0  0  0  0  0  0  0
  150.5239  138.2909  154.0876 C   0  0  0  0  0  0  0  0  0  0  0  0
  151.7759  138.3552  154.6289 C   0  0  0  0  0  0  0  0  0  0  0  0
  151.7628  139.5712  155.3678 C   0  0  0  0  0  0  0  0  0  0  0  0
  150.6020  140.2014  155.2927 N   0  0  0  0  0  0  0  0  0  0  0  0
  147.3692  137.6825  153.5982 N   0  0  0  0  0  0  0  0  0  0  0  0
  146.3935  136.7663  153.5126 C   0  0  0  0  0  0  0  0  0  0  0  0
  145.3856  136.7601  154.2199 O   0  0  0  0  0  0  0  0  0  0  0  0
  146.6653  135.8371  152.5862 N   0  0  0  0  0  0  0  0  0  0  0  0
  145.8420  134.6643  152.3090 C   0  0  2  0  0  0  0  0  0  0  0  0
  146.4239  133.8579  151.1288 C   0  0  0  0  0  0  0  0  0  0  0  0
  145.5348  132.6530  150.7753 C   0  0  0  0  0  0  0  0  0  0  0  0
  144.0750  133.0629  150.5042 C   0  0  2  0  0  0  0  0  0  0  0  0
  143.9897  133.7810  149.2890 O   0  0  0  0  0  0  0  0  0  0  0  0
  143.5005  133.9073  151.6575 C   0  0  0  0  0  0  0  0  0  0  0  0
  144.3991  135.1070  152.0057 C   0  0  0  0  0  0  0  0  0  0  0  0
  146.0467  140.1776  155.4859 H   0  0  0  0  0  0  0  0  0  0  0  0
  145.3093  138.6411  155.0516 H   0  0  0  0  0  0  0  0  0  0  0  0
  145.6939  139.8187  153.7978 H   0  0  0  0  0  0  0  0  0  0  0  0
  147.7147  138.3563  155.5579 H   0  0  0  0  0  0  0  0  0  0  0  0
  148.4184  140.0256  153.1016 H   0  0  0  0  0  0  0  0  0  0  0  0
  148.2840  140.7602  154.6823 H   0  0  0  0  0  0  0  0  0  0  0  0
  150.0696  137.5518  153.4443 H   0  0  0  0  0  0  0  0  0  0  0  0
  152.5800  137.6442  154.5117 H   0  0  0  0  0  0  0  0  0  0  0  0
  152.5568  140.0113  155.9530 H   0  0  0  0  0  0  0  0  0  0  0  0
  148.1545  137.5957  152.9699 H   0  0  0  0  0  0  0  0  0  0  0  0
  147.5218  135.9260  152.0595 H   0  0  0  0  0  0  0  0  0  0  0  0
  145.8238  134.0294  153.1971 H   0  0  0  0  0  0  0  0  0  0  0  0
  146.5291  134.5035  150.2558 H   0  0  0  0  0  0  0  0  0  0  0  0
  147.4281  133.5060  151.3690 H   0  0  0  0  0  0  0  0  0  0  0  0
  145.9463  132.1225  149.9157 H   0  0  0  0  0  0  0  0  0  0  0  0
  145.5558  131.9459  151.6054 H   0  0  0  0  0  0  0  0  0  0  0  0
  143.4686  132.1645  150.3849 H   0  0  0  0  0  0  0  0  0  0  0  0
  144.8658  133.9418  148.9733 H   0  0  0  0  0  0  0  0  0  0  0  0
  142.4953  134.2509  151.4109 H   0  0  0  0  0  0  0  0  0  0  0  0
  143.3970  133.2764  152.5412 H   0  0  0  0  0  0  0  0  0  0  0  0
  143.9829  135.6369  152.8634 H   0  0  0  0  0  0  0  0  0  0  0  0
  144.3959  135.8158  151.1764 H   0  0  0  0  0  0  0  0  0  0  0  0
  1  2  1  0  0  0  0
  1 20  1  0  0  0  0
  1 21  1  0  0  0  0
  1 22  1  0  0  0  0
  2  3  1  0  0  0  0
  2  9  1  0  0  0  0
  2 23  1  0  0  0  0
  3  4  1  0  0  0  0
  3 24  1  0  0  0  0
  3 25  1  0  0  0  0
  4  8  1  0  0  0  0
  4  5  1  0  0  0  0
  5  6  2  0  0  0  0
  5 26  1  0  0  0  0
  6  7  1  0  0  0  0
  6 27  1  0  0  0  0
  7  8  2  0  0  0  0
  7 28  1  0  0  0  0
  9 10  1  0  0  0  0
  9 29  1  0  0  0  0
 10 11  2  0  0  0  0
 10 12  1  0  0  0  0
 12 13  1  0  0  0  0
 12 30  1  0  0  0  0
 13 19  1  0  0  0  0
 13 14  1  0  0  0  0
 13 31  1  0  0  0  0
 14 15  1  0  0  0  0
 14 32  1  0  0  0  0
 14 33  1  0  0  0  0
 15 16  1  0  0  0  0
 15 34  1  0  0  0  0
 15 35  1  0  0  0  0
 16 17  1  0  0  0  0
 16 18  1  0  0  0  0
 16 36  1  0  0  0  0
 17 37  1  0  0  0  0
 18 19  1  0  0  0  0
 18 38  1  0  0  0  0
 18 39  1  0  0  0  0
 19 40  1  0  0  0  0
 19 41  1  0  0  0  0
M  END
> <s_m_source_file>
AV-unprocessed.smi

> <i_m_source_file_index>
1670

> <i_lp_mmshare_version>
43012

> <i_f3d_flags>
0

> <s_epik_input>
bjFbY0hdW2NIXVtjSF1uMVtDSDJdW0NAQEhdKFtDSDNdKVtOSF1DKD1PKVtOSF1bQ0BASF0yW0NIMl1bQ0gyXVtDQEBIXShbT0hdKVtDSDJdW0NIMl0y

> <s_epik_cmdline>
J2VwaWtfcHl0aG9uJywgJy1waCcsICc3LjAnLCAnLXRuJywgJzgnLCAnLW1hJywgJzIwMCcsICctbWV0YWxfYmluZGluZycsICctaW1hZScsICc8aW5maWxlLm1hZT4nLCAnLW9tYWUnLCAnPG91dGZpbGUubWFlPic=

> <r_lp_tautomer_probability>
1

> <r_epik_Ionization_Penalty>
7.33369e-05

> <r_epik_Ionization_Penalty_Charging>
0

> <r_epik_Ionization_Penalty_Neutral>
7.33369e-05

> <r_epik_State_Penalty>
-0

> <r_epik_Charging_Adjusted_Penalty>
0

> <i_epik_Tot_Q>
0

> <i_epik_Tot_abs_Q>
0

> <r_epik_Metal_State_Penalty>
-0

> <b_epik_Metal_Only>
0

> <s_lp_Force_Field>
OPLS_2005

> <r_lp_Energy>
7.35879

> <b_lp_Chiralities_Consistent>
1

> <s_lp_Variant>
AV-unprocessed.smi:1670-3

> <Gold.Version>
5.8.1

> <Gold.Id.Protein>
6NUR|6NUR_protein|mol2

> <Gold.PLP.Fitness>
43.2875

> <Gold.PLP.PLP>
-33.3128

> <Gold.PLP.part.hbond>
-4.1821

> <Gold.PLP.part.metal>
0.0000

> <Gold.PLP.part.buried>
-4.0360

> <Gold.PLP.part.nonpolar>
-25.5209

> <Gold.PLP.part.repulsive>
0.1424

> <Gold.PLP.ligand.clash>
0.0000

> <Gold.PLP.ligand.torsion>
0.4333

> <Gold.PLP.Chemscore.Hbond>
2.5563

> <Gold.PLP.Chemscore.CHOScore>
1.0505

> <Gold.PLP.Chemscore.Metal>
0.0000

> <Gold.Chemscore.Hbonds>
donor molecule, donor type, donor heavy atom, donor atom, acceptor molecule, acceptor atom, score
      L1  H     9    29       P1  7948  0.77
      L1  H    12    30       P1  7948  0.81
      L1  H    17    37       P1  7921  0.99
      L1  C     5    26       P1  7948  1.00
      L1  C     5    26       P1  7949  0.06

> <Gold.PLP.Chemscore.Internal.Correction>
0.0210

> <Gold.Rescore>
     Score         DG    S(hbond)    S(metal)    S(lipo)     H(rot)  DE(clash)    DE(int)     intcor
     13.95     -17.35       2.75        0.00      71.72       2.22       0.41       2.99       ----

> <Gold.Chemscore.Fitness>
13.9549

> <Gold.Chemscore.DG>
-17.3518

> <Gold.Chemscore.ZeroCoef>
-5.4800

> <Gold.Chemscore.Hbond>
2.7456

> <Gold.Chemscore.Metal>
0.0000

> <Gold.Chemscore.Lipo>
71.7166

> <Gold.Chemscore.Internal_Hbond>
0.0000

> <Gold.Chemscore.DEClash>
0.4099

> <Gold.Chemscore.DEInternal>
2.9871

> <Gold.Chemscore.Rot>
2.2224

> <Gold.Chemscore.Internal.Correction>
   9.000000E+99

> <Gold.Chemscore.Hbonds>
donor molecule, donor type, donor heavy atom, donor atom, acceptor molecule, acceptor atom, score
      L1  H     9    29       P1  7948  0.77
      L1  H    12    30       P1  7948  0.80
      L1  H    17    37       P1  7921  0.86

> <Gold.Chemscore.Hbond.Weighted>
-9.1703

> <Gold.Chemscore.Metal.Weighted>
-0.0000

> <Gold.Chemscore.Lipo.Weighted>
-8.3908

> <Gold.Chemscore.Internal_Hbond.Weighted>
0.0000

> <Gold.Chemscore.DEClash.Weighted>
0.4099

> <Gold.Chemscore.DEInternal.Weighted>
2.9871

> <Gold.Chemscore.Rot.Weighted>
5.6893

> <Gold.Chemscore.Internal.Correction.Weighted>
   9.000000E+99

> <Gold.Protein.RotatedTorsions>
[ 6907 6896 6895 6894 ] final   15.47 input  -60.11 | X-H torsion
[ 7974 7965 7964 7962 ] final  155.84 input  175.53 | X-H torsion
[ 8008 7997 7996 7995 ] final    8.35 input   59.86 | X-H torsion
[ 10167 10162 10161 10158 ] final  -72.57 input  -65.29 | X-H torsion
[ 10718 10713 10712 10709 ] final   73.40 input   66.30 | X-H torsion
[ 10763 10752 10751 10750 ] final    5.01 input  -60.55 | X-H torsion
[ 11005 11000 10999 10996 ] final  151.01 input  -57.11 | X-H torsion

> <Gold.Protein.ActiveResidues>
 VAL166  LYS551  ARG553  GLY616  TRP617  ASP618  TYR619  PRO620  LYS621  CYS622 
 ASP623  PHE694  ASN695  SER759  ASP760  ASP761  ALA762  ILE779  LEU786  VAL792 
 PHE793  MET794  SER795  GLU796  ALA797  LYS798  CYS799  TRP800  GLU811  SER814 

> <Gold.Protein.RotatedAtoms>
  151.8185  135.0659  160.0421 H   0  0  0  0  0  0  0  0  0  0  0  0  # atno 6907 bound_to 6896
  152.2968  133.5611  159.5601 H   0  0  0  0  0  0  0  0  0  0  0  0  # atno 6908 bound_to 6896
  150.7255  134.0265  159.3761 H   0  0  0  0  0  0  0  0  0  0  0  0  # atno 6909 bound_to 6896
  144.8000  139.7123  143.6186 H   0  0  0  0  0  0  0  0  0  0  0  0  # atno 7974 bound_to 7965
  154.7657  140.2793  155.6178 H   0  0  0  0  0  0  0  0  0  0  0  0  # atno 8008 bound_to 7997
  156.2924  140.2651  156.2375 H   0  0  0  0  0  0  0  0  0  0  0  0  # atno 8009 bound_to 7997
  154.9961  140.0373  157.2330 H   0  0  0  0  0  0  0  0  0  0  0  0  # atno 8010 bound_to 7997
  140.5181  143.2335  151.7477 H   0  0  0  0  0  0  0  0  0  0  0  0  # atno 10167 bound_to 10162
  157.6546  130.9627  150.1064 H   0  0  0  0  0  0  0  0  0  0  0  0  # atno 10718 bound_to 10713
  153.2644  135.6926  153.7545 H   0  0  0  0  0  0  0  0  0  0  0  0  # atno 10763 bound_to 10752
  153.6592  135.3363  155.3123 H   0  0  0  0  0  0  0  0  0  0  0  0  # atno 10764 bound_to 10752
  154.8442  135.4473  154.1645 H   0  0  0  0  0  0  0  0  0  0  0  0  # atno 10765 bound_to 10752
  140.1181  134.8881  157.2033 H   0  0  0  0  0  0  0  0  0  0  0  0  # atno 11005 bound_to 11000
  146.2278  139.5756  142.9575 LP  0  0  0  0  0  0  0  0  0  0  0  0  # atno 17320 bound_to 7965
  145.5578  141.0407  143.2243 LP  0  0  0  0  0  0  0  0  0  0  0  0  # atno 17321 bound_to 7965
  139.4915  144.4294  151.9889 LP  0  0  0  0  0  0  0  0  0  0  0  0  # atno 17342 bound_to 10162
  140.3389  144.3227  150.5971 LP  0  0  0  0  0  0  0  0  0  0  0  0  # atno 17343 bound_to 10162
  156.1973  130.3658  149.8833 LP  0  0  0  0  0  0  0  0  0  0  0  0  # atno 17370 bound_to 10713
  156.6746  130.8834  151.3567 LP  0  0  0  0  0  0  0  0  0  0  0  0  # atno 17371 bound_to 10713
  140.3001  134.3141  155.7292 LP  0  0  0  0  0  0  0  0  0  0  0  0  # atno 17394 bound_to 11000
  141.2145  133.7587  156.9629 LP  0  0  0  0  0  0  0  0  0  0  0  0  # atno 17395 bound_to 11000

$$$$
