AV-unprocessed.smi:1918|AV-procd|sdf|7770|dock4
  -GOLD-   22720 9513D 1   1.00000     0.00000
 Structure written by MMmdl.
 35 37  0  0  0  0  0  0  0  0  1 V2000
  152.1156  139.8790  156.3848 C   0  0  0  0  0  0  0  0  0  0  0  0
  150.8437  140.3548  155.7574 C   0  0  0  0  0  0  0  0  0  0  0  0
  150.4517  139.9496  154.5496 N   0  0  0  0  0  0  0  0  0  0  0  0
  149.2554  140.6192  154.3794 C   0  0  0  0  0  0  0  0  0  0  0  0
  148.3459  140.6130  153.2976 C   0  0  0  0  0  0  0  0  0  0  0  0
  147.1701  141.3899  153.3494 C   0  0  0  0  0  0  0  0  0  0  0  0
  146.8873  142.1827  154.4805 C   0  0  0  0  0  0  0  0  0  0  0  0
  147.7801  142.2033  155.5693 C   0  0  0  0  0  0  0  0  0  0  0  0
  148.9523  141.4257  155.5133 C   0  0  0  0  0  0  0  0  0  0  0  0
  150.0161  141.2239  156.3880 N   0  0  0  0  0  0  0  0  0  0  0  0
  150.1875  141.8275  157.7028 C   0  0  0  0  0  0  0  0  0  0  0  0
  151.4458  142.7140  157.7948 C   0  0  1  0  0  0  0  0  0  0  0  0
  151.2027  143.9640  157.1769 O   0  0  0  0  0  0  0  0  0  0  0  0
  151.9141  142.8558  159.2373 C   0  0  0  0  0  0  0  0  0  0  0  0
  151.8065  144.0938  159.9110 C   0  0  0  0  0  0  0  0  0  0  0  0
  152.2379  144.2181  161.2458 C   0  0  0  0  0  0  0  0  0  0  0  0
  152.7749  143.1046  161.9190 C   0  0  0  0  0  0  0  0  0  0  0  0
  153.1908  143.2242  163.2019 F   0  0  0  0  0  0  0  0  0  0  0  0
  152.8757  141.8659  161.2582 C   0  0  0  0  0  0  0  0  0  0  0  0
  152.4449  141.7393  159.9230 C   0  0  0  0  0  0  0  0  0  0  0  0
  152.5407  140.5374  159.3050 F   0  0  0  0  0  0  0  0  0  0  0  0
  152.6686  139.2436  155.6922 H   0  0  0  0  0  0  0  0  0  0  0  0
  151.8989  139.3002  157.2826 H   0  0  0  0  0  0  0  0  0  0  0  0
  152.7489  140.7240  156.6535 H   0  0  0  0  0  0  0  0  0  0  0  0
  148.5540  140.0098  152.4263 H   0  0  0  0  0  0  0  0  0  0  0  0
  146.4822  141.3782  152.5167 H   0  0  0  0  0  0  0  0  0  0  0  0
  145.9851  142.7758  154.5116 H   0  0  0  0  0  0  0  0  0  0  0  0
  147.5688  142.8124  156.4355 H   0  0  0  0  0  0  0  0  0  0  0  0
  149.2957  142.4097  157.9378 H   0  0  0  0  0  0  0  0  0  0  0  0
  150.2315  141.0317  158.4470 H   0  0  0  0  0  0  0  0  0  0  0  0
  152.2490  142.2509  157.2216 H   0  0  0  0  0  0  0  0  0  0  0  0
  150.3534  143.9338  156.7637 H   0  0  0  0  0  0  0  0  0  0  0  0
  151.3907  144.9550  159.4088 H   0  0  0  0  0  0  0  0  0  0  0  0
  152.1556  145.1679  161.7533 H   0  0  0  0  0  0  0  0  0  0  0  0
  153.2828  141.0100  161.7765 H   0  0  0  0  0  0  0  0  0  0  0  0
  1  2  1  0  0  0  0
  1 22  1  0  0  0  0
  1 23  1  0  0  0  0
  1 24  1  0  0  0  0
  2 10  1  0  0  0  0
  2  3  2  0  0  0  0
  3  4  1  0  0  0  0
  4  9  2  0  0  0  0
  4  5  1  0  0  0  0
  5  6  2  0  0  0  0
  5 25  1  0  0  0  0
  6  7  1  0  0  0  0
  6 26  1  0  0  0  0
  7  8  2  0  0  0  0
  7 27  1  0  0  0  0
  8  9  1  0  0  0  0
  8 28  1  0  0  0  0
  9 10  1  0  0  0  0
 10 11  1  0  0  0  0
 11 12  1  0  0  0  0
 11 29  1  0  0  0  0
 11 30  1  0  0  0  0
 12 13  1  0  0  0  0
 12 14  1  0  0  0  0
 12 31  1  0  0  0  0
 13 32  1  0  0  0  0
 14 20  1  0  0  0  0
 14 15  2  0  0  0  0
 15 16  1  0  0  0  0
 15 33  1  0  0  0  0
 16 17  2  0  0  0  0
 16 34  1  0  0  0  0
 17 18  1  0  0  0  0
 17 19  1  0  0  0  0
 19 20  2  0  0  0  0
 19 35  1  0  0  0  0
 20 21  1  0  0  0  0
M  END
> <s_m_source_file>
AV-unprocessed.smi

> <i_m_source_file_index>
1918

> <i_lp_mmshare_version>
43012

> <i_f3d_flags>
0

> <s_epik_input>
W2NIXTFbY0hdW2NIXVtjSF1jKGMxMiluKGMobjIpW0NIM10pW0NIMl1bQ0BIXShbT0hdKWMzW2NIXVtjSF1jKEYpW2NIXWMzRg==

> <s_epik_cmdline>
J2VwaWtfcHl0aG9uJywgJy1waCcsICc3LjAnLCAnLXRuJywgJzgnLCAnLW1hJywgJzIwMCcsICctbWV0YWxfYmluZGluZycsICctaW1hZScsICc8aW5maWxlLm1hZT4nLCAnLW9tYWUnLCAnPG91dGZpbGUubWFlPic=

> <r_epik_Ionization_Penalty>
0.129663

> <r_epik_Ionization_Penalty_Charging>
0

> <r_epik_Ionization_Penalty_Neutral>
0.129663

> <r_epik_State_Penalty>
0.119073

> <r_epik_Charging_Adjusted_Penalty>
0.119073

> <i_epik_Tot_Q>
0

> <i_epik_Tot_abs_Q>
0

> <r_epik_Metal_State_Penalty>
0.000131867

> <b_epik_Metal_Only>
0

> <s_lp_Force_Field>
OPLS_2005

> <r_lp_Energy>
11.52

> <b_lp_Chiralities_Consistent>
1

> <s_lp_Variant>
AV-unprocessed.smi:1918-2

> <Gold.Version>
5.8.1

> <Gold.Id.Protein>
6NUR|6NUR_protein|mol2

> <Gold.PLP.Fitness>
55.7777

> <Gold.PLP.PLP>
-50.7425

> <Gold.PLP.part.hbond>
-2.0000

> <Gold.PLP.part.metal>
0.0000

> <Gold.PLP.part.buried>
-0.4489

> <Gold.PLP.part.nonpolar>
-47.6254

> <Gold.PLP.part.repulsive>
0.0937

> <Gold.PLP.ligand.clash>
0.0000

> <Gold.PLP.ligand.torsion>
0.4148

> <Gold.PLP.Chemscore.Hbond>
1.9440

> <Gold.PLP.Chemscore.CHOScore>
0.0000

> <Gold.PLP.Chemscore.Metal>
0.0000

> <Gold.Chemscore.Hbonds>
donor molecule, donor type, donor heavy atom, donor atom, acceptor molecule, acceptor atom, score
      L1  H    13    32       P1  8028  1.00
      P1  H  7989  7998       L1     3  1.00

> <Gold.PLP.Chemscore.Internal.Correction>
0.0328

> <Gold.Rescore>
     Score         DG    S(hbond)    S(metal)    S(lipo)     H(rot)  DE(clash)    DE(int)     intcor
     16.68     -19.05       1.01        0.00     128.49       1.88       2.03       0.33       ----

> <Gold.Chemscore.Fitness>
16.6835

> <Gold.Chemscore.DG>
-19.0495

> <Gold.Chemscore.ZeroCoef>
-5.4800

> <Gold.Chemscore.Hbond>
1.0057

> <Gold.Chemscore.Metal>
0.0000

> <Gold.Chemscore.Lipo>
128.4888

> <Gold.Chemscore.Internal_Hbond>
0.0000

> <Gold.Chemscore.DEClash>
2.0310

> <Gold.Chemscore.DEInternal>
0.3350

> <Gold.Chemscore.Rot>
1.8839

> <Gold.Chemscore.Internal.Correction>
   9.000000E+99

> <Gold.Chemscore.Hbonds>
donor molecule, donor type, donor heavy atom, donor atom, acceptor molecule, acceptor atom, score
      L1  H    13    32       P1  8028  0.94
      P1  H  7989  7998       L1     3  0.13

> <Gold.Chemscore.Hbond.Weighted>
-3.3591

> <Gold.Chemscore.Metal.Weighted>
-0.0000

> <Gold.Chemscore.Lipo.Weighted>
-15.0332

> <Gold.Chemscore.Internal_Hbond.Weighted>
0.0000

> <Gold.Chemscore.DEClash.Weighted>
2.0310

> <Gold.Chemscore.DEInternal.Weighted>
0.3350

> <Gold.Chemscore.Rot.Weighted>
4.8227

> <Gold.Chemscore.Internal.Correction.Weighted>
   9.000000E+99

> <Gold.Protein.RotatedTorsions>
[ 6907 6896 6895 6894 ] final   19.59 input  -60.11 | X-H torsion
[ 7974 7965 7964 7962 ] final   43.20 input  175.53 | X-H torsion
[ 8008 7997 7996 7995 ] final   35.66 input   59.86 | X-H torsion
[ 10167 10162 10161 10158 ] final   82.42 input  -65.29 | X-H torsion
[ 10718 10713 10712 10709 ] final   59.85 input   66.30 | X-H torsion
[ 10763 10752 10751 10750 ] final  -37.54 input  -60.55 | X-H torsion
[ 11005 11000 10999 10996 ] final    4.80 input  -57.11 | X-H torsion

> <Gold.Protein.ActiveResidues>
 VAL166  LYS551  ARG553  GLY616  TRP617  ASP618  TYR619  PRO620  LYS621  CYS622 
 ASP623  PHE694  ASN695  SER759  ASP760  ASP761  ALA762  ILE779  LEU786  VAL792 
 PHE793  MET794  SER795  GLU796  ALA797  LYS798  CYS799  TRP800  GLU811  SER814 

> <Gold.Protein.RotatedAtoms>
  151.8832  135.0445  160.0490 H   0  0  0  0  0  0  0  0  0  0  0  0  # atno 6907 bound_to 6896
  152.2496  133.5199  159.5326 H   0  0  0  0  0  0  0  0  0  0  0  0  # atno 6908 bound_to 6896
  150.7079  134.0895  159.3969 H   0  0  0  0  0  0  0  0  0  0  0  0  # atno 6909 bound_to 6896
  146.0675  139.5213  142.9619 H   0  0  0  0  0  0  0  0  0  0  0  0  # atno 7974 bound_to 7965
  155.1747  140.3295  155.4386 H   0  0  0  0  0  0  0  0  0  0  0  0  # atno 8008 bound_to 7997
  156.2498  140.1937  156.6798 H   0  0  0  0  0  0  0  0  0  0  0  0  # atno 8009 bound_to 7997
  154.6313  140.0582  156.9721 H   0  0  0  0  0  0  0  0  0  0  0  0  # atno 8010 bound_to 7997
  139.9290  144.6164  150.8363 H   0  0  0  0  0  0  0  0  0  0  0  0  # atno 10167 bound_to 10162
  157.5708  130.8906  149.9263 H   0  0  0  0  0  0  0  0  0  0  0  0  # atno 10718 bound_to 10713
  153.8979  135.6805  153.4757 H   0  0  0  0  0  0  0  0  0  0  0  0  # atno 10763 bound_to 10752
  153.1145  135.4768  154.9090 H   0  0  0  0  0  0  0  0  0  0  0  0  # atno 10764 bound_to 10752
  154.7590  135.3205  154.8369 H   0  0  0  0  0  0  0  0  0  0  0  0  # atno 10765 bound_to 10752
  140.5779  134.0041  155.8035 H   0  0  0  0  0  0  0  0  0  0  0  0  # atno 11005 bound_to 11000
  145.6450  141.0276  143.1791 LP  0  0  0  0  0  0  0  0  0  0  0  0  # atno 17320 bound_to 7965
  144.7211  139.8026  143.7381 LP  0  0  0  0  0  0  0  0  0  0  0  0  # atno 17321 bound_to 7965
  140.7642  143.3243  151.2551 LP  0  0  0  0  0  0  0  0  0  0  0  0  # atno 17342 bound_to 10162
  139.6798  143.9875  152.2802 LP  0  0  0  0  0  0  0  0  0  0  0  0  # atno 17343 bound_to 10162
  156.0753  130.3679  150.0690 LP  0  0  0  0  0  0  0  0  0  0  0  0  # atno 17370 bound_to 10713
  156.8843  130.9567  151.3596 LP  0  0  0  0  0  0  0  0  0  0  0  0  # atno 17371 bound_to 10713
  141.1015  133.9760  157.3070 LP  0  0  0  0  0  0  0  0  0  0  0  0  # atno 17394 bound_to 11000
  139.9331  135.0198  156.8467 LP  0  0  0  0  0  0  0  0  0  0  0  0  # atno 17395 bound_to 11000

$$$$
