AV-unprocessed.smi:3149|AV-procd|sdf|12000|dock4
  -GOLD-   2272017403D 1   1.00000     0.00000
 Structure written by MMmdl.
 38 39  0  0  0  0  0  0  0  0  2 V2000
  148.1117  140.1306  155.0787 C   0  0  0  0  0  0  0  0  0  0  0  0
  148.8738  138.9571  154.4362 C   0  0  1  0  0  0  0  0  0  0  0  0
  148.3796  138.7749  153.0504 N   0  3  0  0  0  0  0  0  0  0  0  0
  146.9136  138.8641  152.8767 C   0  0  0  0  0  0  0  0  0  0  0  0
  146.4318  138.0059  151.7012 C   0  0  0  0  0  0  0  0  0  0  0  0
  146.8007  138.2711  150.5577 O   0  0  0  0  0  0  0  0  0  0  0  0
  145.6167  136.9058  151.9789 N   0  0  0  0  0  0  0  0  0  0  0  0
  145.8602  136.0406  153.1237 C   0  0  0  0  0  0  0  0  0  0  0  0
  145.2492  134.9228  152.2732 C   0  0  0  0  0  0  0  0  0  0  0  0
  145.5076  135.7973  151.0422 C   0  0  0  0  0  0  0  0  0  0  0  0
  150.4146  139.1541  154.4481 C   0  0  2  0  0  0  0  0  0  0  0  0
  151.1943  137.8325  154.3104 C   0  0  0  0  0  0  0  0  0  0  0  0
  150.8643  139.8712  155.6349 N   0  0  0  0  0  0  0  0  0  0  0  0
  150.7840  141.2233  155.8987 C   0  0  0  0  0  0  0  0  0  0  0  0
  151.3344  141.4325  157.1305 C   0  0  0  0  0  0  0  0  0  0  0  0
  151.7332  140.1326  157.5483 C   0  0  0  0  0  0  0  0  0  0  0  0
  151.4523  139.2011  156.6518 N   0  0  0  0  0  0  0  0  0  0  0  0
  148.3527  140.2424  156.1361 H   0  0  0  0  0  0  0  0  0  0  0  0
  147.0339  139.9775  155.0145 H   0  0  0  0  0  0  0  0  0  0  0  0
  148.3435  141.0736  154.5823 H   0  0  0  0  0  0  0  0  0  0  0  0
  148.6364  138.0683  155.0232 H   0  0  0  0  0  0  0  0  0  0  0  0
  148.7983  139.4842  152.4654 H   0  0  0  0  0  0  0  0  0  0  0  0
  146.4409  138.4856  153.7832 H   0  0  0  0  0  0  0  0  0  0  0  0
  146.6131  139.9070  152.7835 H   0  0  0  0  0  0  0  0  0  0  0  0
  146.9200  135.8878  153.3377 H   0  0  0  0  0  0  0  0  0  0  0  0
  145.2823  136.3023  154.0107 H   0  0  0  0  0  0  0  0  0  0  0  0
  145.8138  133.9901  152.2862 H   0  0  0  0  0  0  0  0  0  0  0  0
  144.1886  134.7577  152.4718 H   0  0  0  0  0  0  0  0  0  0  0  0
  144.6643  135.8778  150.3557 H   0  0  0  0  0  0  0  0  0  0  0  0
  146.4440  135.5565  150.5346 H   0  0  0  0  0  0  0  0  0  0  0  0
  150.6775  139.7781  153.5922 H   0  0  0  0  0  0  0  0  0  0  0  0
  150.9992  137.3494  153.3533 H   0  0  0  0  0  0  0  0  0  0  0  0
  150.9306  137.1276  155.0996 H   0  0  0  0  0  0  0  0  0  0  0  0
  152.2695  138.0059  154.3672 H   0  0  0  0  0  0  0  0  0  0  0  0
  150.3456  141.9175  155.1969 H   0  0  0  0  0  0  0  0  0  0  0  0
  151.4380  142.3717  157.6537 H   0  0  0  0  0  0  0  0  0  0  0  0
  152.2151  139.8403  158.4697 H   0  0  0  0  0  0  0  0  0  0  0  0
  148.6895  137.8704  152.7258 H   0  0  0  0  0  0  0  0  0  0  0  0
  1  2  1  0  0  0  0
  1 18  1  0  0  0  0
  1 19  1  0  0  0  0
  1 20  1  0  0  0  0
  2  3  1  0  0  0  0
  2 11  1  0  0  0  0
  2 21  1  0  0  0  0
  3  4  1  0  0  0  0
  3 22  1  0  0  0  0
  3 38  1  0  0  0  0
  4  5  1  0  0  0  0
  4 23  1  0  0  0  0
  4 24  1  0  0  0  0
  5  6  2  0  0  0  0
  5  7  1  0  0  0  0
  7 10  1  0  0  0  0
  7  8  1  0  0  0  0
  8  9  1  0  0  0  0
  8 25  1  0  0  0  0
  8 26  1  0  0  0  0
  9 10  1  0  0  0  0
  9 27  1  0  0  0  0
  9 28  1  0  0  0  0
 10 29  1  0  0  0  0
 10 30  1  0  0  0  0
 11 12  1  0  0  0  0
 11 13  1  0  0  0  0
 11 31  1  0  0  0  0
 12 32  1  0  0  0  0
 12 33  1  0  0  0  0
 12 34  1  0  0  0  0
 13 17  1  0  0  0  0
 13 14  1  0  0  0  0
 14 15  2  0  0  0  0
 14 35  1  0  0  0  0
 15 16  1  0  0  0  0
 15 36  1  0  0  0  0
 16 17  2  0  0  0  0
 16 37  1  0  0  0  0
M  CHG  1   3   1
M  END
> <s_m_source_file>
AV-unprocessed.smi

> <i_m_source_file_index>
3149

> <i_lp_mmshare_version>
43012

> <i_f3d_flags>
0

> <s_epik_input>
bjFbY0hdW2NIXVtjSF1uMVtDQEBIXShbQ0gzXSlbQ0BIXShbQ0gzXSlbTkhdW0NIMl1DKD1PKU4yW0NIMl1bQ0gyXVtDSDJdMg==

> <s_epik_cmdline>
J2VwaWtfcHl0aG9uJywgJy1waCcsICc3LjAnLCAnLXRuJywgJzgnLCAnLW1hJywgJzIwMCcsICctbWV0YWxfYmluZGluZycsICctaW1hZScsICc8aW5maWxlLm1hZT4nLCAnLW9tYWUnLCAnPG91dGZpbGUubWFlPic=

> <r_lp_tautomer_probability>
1

> <r_epik_Ionization_Penalty>
0.141739

> <r_epik_Ionization_Penalty_Charging>
0.141731

> <r_epik_Ionization_Penalty_Neutral>
8.82171e-06

> <r_epik_State_Penalty>
0.131043

> <r_epik_Charging_Adjusted_Penalty>
0.272773

> <i_epik_Tot_Q>
1

> <i_epik_Tot_abs_Q>
1

> <r_epik_Metal_State_Penalty>
0.131384

> <b_epik_Metal_Only>
0

> <s_lp_Force_Field>
OPLS_2005

> <r_lp_Energy>
23.3154

> <b_lp_Chiralities_Consistent>
1

> <s_lp_Variant>
AV-unprocessed.smi:3149-2

> <Gold.Version>
5.8.1

> <Gold.Id.Protein>
6NUR|6NUR_protein|mol2

> <Gold.PLP.Fitness>
41.8696

> <Gold.PLP.PLP>
-32.6149

> <Gold.PLP.part.hbond>
-2.8040

> <Gold.PLP.part.metal>
0.0000

> <Gold.PLP.part.buried>
-2.7650

> <Gold.PLP.part.nonpolar>
-29.2395

> <Gold.PLP.part.repulsive>
1.1318

> <Gold.PLP.ligand.clash>
0.0000

> <Gold.PLP.ligand.torsion>
1.7680

> <Gold.PLP.Chemscore.Hbond>
3.9440

> <Gold.PLP.Chemscore.CHOScore>
0.0000

> <Gold.PLP.Chemscore.Metal>
0.0000

> <Gold.Chemscore.Hbonds>
donor molecule, donor type, donor heavy atom, donor atom, acceptor molecule, acceptor atom, score
      L1  H     3    22       P1  7957  1.00
      L1  H     3    38       P1  7948  2.00
      P1  H  7954  7966       L1     6  0.94

> <Gold.PLP.Chemscore.Internal.Correction>
0.9587

> <Gold.Rescore>
     Score         DG    S(hbond)    S(metal)    S(lipo)     H(rot)  DE(clash)    DE(int)     intcor
     15.87     -17.81       2.95        0.00      61.61       1.85       0.82       1.11       ----

> <Gold.Chemscore.Fitness>
15.8712

> <Gold.Chemscore.DG>
-17.8084

> <Gold.Chemscore.ZeroCoef>
-5.4800

> <Gold.Chemscore.Hbond>
2.9541

> <Gold.Chemscore.Metal>
0.0000

> <Gold.Chemscore.Lipo>
61.6139

> <Gold.Chemscore.Internal_Hbond>
0.0000

> <Gold.Chemscore.DEClash>
0.8233

> <Gold.Chemscore.DEInternal>
1.1139

> <Gold.Chemscore.Rot>
1.8544

> <Gold.Chemscore.Internal.Correction>
   9.000000E+99

> <Gold.Chemscore.Hbonds>
donor molecule, donor type, donor heavy atom, donor atom, acceptor molecule, acceptor atom, score
      L1  H     3    22       P1  7957  0.97
      L1  H     3    38       P1  7948  1.00
      P1  H  7954  7966       L1     6  0.87

> <Gold.Chemscore.Hbond.Weighted>
-9.8667

> <Gold.Chemscore.Metal.Weighted>
-0.0000

> <Gold.Chemscore.Lipo.Weighted>
-7.2088

> <Gold.Chemscore.Internal_Hbond.Weighted>
0.0000

> <Gold.Chemscore.DEClash.Weighted>
0.8233

> <Gold.Chemscore.DEInternal.Weighted>
1.1139

> <Gold.Chemscore.Rot.Weighted>
4.7472

> <Gold.Chemscore.Internal.Correction.Weighted>
   9.000000E+99

> <Gold.Protein.RotatedTorsions>
[ 6907 6896 6895 6894 ] final  126.55 input  -60.11 | X-H torsion
[ 7974 7965 7964 7962 ] final  -59.58 input  175.53 | X-H torsion
[ 8008 7997 7996 7995 ] final   74.64 input   59.86 | X-H torsion
[ 10167 10162 10161 10158 ] final  110.06 input  -65.29 | X-H torsion
[ 10718 10713 10712 10709 ] final  160.02 input   66.30 | X-H torsion
[ 10763 10752 10751 10750 ] final  134.45 input  -60.55 | X-H torsion
[ 11005 11000 10999 10996 ] final -125.60 input  -57.11 | X-H torsion

> <Gold.Protein.ActiveResidues>
 VAL166  LYS551  ARG553  GLY616  TRP617  ASP618  TYR619  PRO620  LYS621  CYS622 
 ASP623  PHE694  ASN695  SER759  ASP760  ASP761  ALA762  ILE779  LEU786  VAL792 
 PHE793  MET794  SER795  GLU796  ALA797  LYS798  CYS799  TRP800  GLU811  SER814 

> <Gold.Protein.RotatedAtoms>
  152.3893  133.6656  159.6224 H   0  0  0  0  0  0  0  0  0  0  0  0  # atno 6907 bound_to 6896
  150.7805  133.8982  159.3342 H   0  0  0  0  0  0  0  0  0  0  0  0  # atno 6908 bound_to 6896
  151.6772  135.0969  160.0260 H   0  0  0  0  0  0  0  0  0  0  0  0  # atno 6909 bound_to 6896
  145.8258  140.8511  143.0109 H   0  0  0  0  0  0  0  0  0  0  0  0  # atno 7974 bound_to 7965
  155.8013  140.3476  155.5404 H   0  0  0  0  0  0  0  0  0  0  0  0  # atno 8008 bound_to 7997
  155.8535  140.0960  157.1680 H   0  0  0  0  0  0  0  0  0  0  0  0  # atno 8009 bound_to 7997
  154.4009  140.1372  156.3861 H   0  0  0  0  0  0  0  0  0  0  0  0  # atno 8010 bound_to 7997
  139.6718  144.7125  151.1674 H   0  0  0  0  0  0  0  0  0  0  0  0  # atno 10167 bound_to 10162
  157.1561  131.0576  151.2255 H   0  0  0  0  0  0  0  0  0  0  0  0  # atno 10718 bound_to 10713
  153.8237  135.3113  155.3412 H   0  0  0  0  0  0  0  0  0  0  0  0  # atno 10763 bound_to 10752
  154.8002  135.4731  154.0260 H   0  0  0  0  0  0  0  0  0  0  0  0  # atno 10764 bound_to 10752
  153.1677  135.6872  153.8741 H   0  0  0  0  0  0  0  0  0  0  0  0  # atno 10765 bound_to 10752
  140.9749  134.0755  157.3830 H   0  0  0  0  0  0  0  0  0  0  0  0  # atno 11005 bound_to 11000
  144.6744  140.0599  143.7476 LP  0  0  0  0  0  0  0  0  0  0  0  0  # atno 17320 bound_to 7965
  145.9625  139.2811  143.1147 LP  0  0  0  0  0  0  0  0  0  0  0  0  # atno 17321 bound_to 7965
  140.7621  143.5833  150.8872 LP  0  0  0  0  0  0  0  0  0  0  0  0  # atno 17342 bound_to 10162
  139.9499  143.6284  152.3032 LP  0  0  0  0  0  0  0  0  0  0  0  0  # atno 17343 bound_to 10162
  157.4175  130.7419  149.6887 LP  0  0  0  0  0  0  0  0  0  0  0  0  # atno 17370 bound_to 10713
  155.9762  130.4079  150.3798 LP  0  0  0  0  0  0  0  0  0  0  0  0  # atno 17371 bound_to 10713
  139.8926  135.0126  156.6856 LP  0  0  0  0  0  0  0  0  0  0  0  0  # atno 17394 bound_to 11000
  140.7274  133.9088  155.8188 LP  0  0  0  0  0  0  0  0  0  0  0  0  # atno 17395 bound_to 11000

$$$$
