AV-unprocessed.smi:1018|AV-procd|sdf|4442|dock2
  -GOLD-   22720 2403D 1   1.00000     0.00000
 Structure written by MMmdl.
 52 53  0  0  0  0  0  0  0  0  1 V2000
  152.6627  144.6809  157.9805 C   0  0  0  0  0  0  0  0  0  0  0  0
  151.7129  143.8555  158.8669 C   0  0  1  0  0  0  0  0  0  0  0  0
  150.8170  142.8870  158.0697 C   0  0  0  0  0  0  0  0  0  0  0  0
  151.5745  141.7248  157.6131 N   0  0  0  0  0  0  0  0  0  0  0  0
  150.9275  140.9233  156.6481 C   0  0  0  0  0  0  0  0  0  0  0  0
  151.6831  140.0640  155.8163 C   0  0  0  0  0  0  0  0  0  0  0  0
  151.0218  139.2779  154.8531 C   0  0  0  0  0  0  0  0  0  0  0  0
  149.6136  139.3628  154.7491 C   0  0  0  0  0  0  0  0  0  0  0  0
  148.8276  138.6437  153.8076 N   0  0  0  0  0  0  0  0  0  0  0  0
  147.5324  138.8067  153.4884 C   0  0  0  0  0  0  0  0  0  0  0  0
  146.7869  139.6701  153.9498 O   0  0  0  0  0  0  0  0  0  0  0  0
  147.1488  137.9093  152.5691 N   0  0  0  0  0  0  0  0  0  0  0  0
  145.8169  137.8106  151.9696 C   0  0  0  0  0  0  0  0  0  0  0  0
  145.2241  136.3731  152.0131 C   0  0  0  0  0  0  0  0  0  0  0  0
  143.6782  136.4579  152.0528 C   0  0  0  0  0  0  0  0  0  0  0  0
  145.6270  135.6180  150.7290 C   0  0  0  0  0  0  0  0  0  0  0  0
  145.7488  135.5773  153.2356 C   0  0  0  0  0  0  0  0  0  0  0  0
  147.0671  135.3715  153.3212 N   0  0  0  0  0  0  0  0  0  0  0  0
  144.9813  135.1468  154.0954 O   0  0  0  0  0  0  0  0  0  0  0  0
  148.9486  140.2495  155.6189 C   0  0  0  0  0  0  0  0  0  0  0  0
  149.5783  141.0034  156.5437 N   0  0  0  0  0  0  0  0  0  0  0  0
  152.2959  141.0517  158.6897 C   0  0  0  0  0  0  0  0  0  0  0  0
  153.1943  142.0497  159.4422 C   0  0  2  0  0  0  0  0  0  0  0  0
  153.8624  141.4075  160.6623 C   0  0  0  0  0  0  0  0  0  0  0  0
  152.4098  143.1514  159.8972 O   0  0  0  0  0  0  0  0  0  0  0  0
  152.0978  145.3096  157.2919 H   0  0  0  0  0  0  0  0  0  0  0  0
  153.3181  144.0524  157.3782 H   0  0  0  0  0  0  0  0  0  0  0  0
  153.2892  145.3360  158.5861 H   0  0  0  0  0  0  0  0  0  0  0  0
  151.0604  144.5665  159.3745 H   0  0  0  0  0  0  0  0  0  0  0  0
  150.0057  142.5331  158.7073 H   0  0  0  0  0  0  0  0  0  0  0  0
  150.3513  143.4227  157.2436 H   0  0  0  0  0  0  0  0  0  0  0  0
  152.7565  139.9934  155.9108 H   0  0  0  0  0  0  0  0  0  0  0  0
  151.6101  138.6405  154.2123 H   0  0  0  0  0  0  0  0  0  0  0  0
  149.3253  137.9394  153.2828 H   0  0  0  0  0  0  0  0  0  0  0  0
  147.8361  137.2447  152.2455 H   0  0  0  0  0  0  0  0  0  0  0  0
  145.1673  138.4869  152.5261 H   0  0  0  0  0  0  0  0  0  0  0  0
  145.8173  138.1950  150.9480 H   0  0  0  0  0  0  0  0  0  0  0  0
  143.2945  137.0425  151.2161 H   0  0  0  0  0  0  0  0  0  0  0  0
  143.3159  136.9276  152.9683 H   0  0  0  0  0  0  0  0  0  0  0  0
  143.2193  135.4702  151.9900 H   0  0  0  0  0  0  0  0  0  0  0  0
  145.2253  136.1083  149.8415 H   0  0  0  0  0  0  0  0  0  0  0  0
  145.2528  134.5933  150.7310 H   0  0  0  0  0  0  0  0  0  0  0  0
  146.7100  135.5721  150.6082 H   0  0  0  0  0  0  0  0  0  0  0  0
  147.4471  134.8465  154.0955 H   0  0  0  0  0  0  0  0  0  0  0  0
  147.6781  135.7318  152.6024 H   0  0  0  0  0  0  0  0  0  0  0  0
  147.8748  140.3591  155.5748 H   0  0  0  0  0  0  0  0  0  0  0  0
  151.5770  140.6001  159.3750 H   0  0  0  0  0  0  0  0  0  0  0  0
  152.9110  140.2469  158.2848 H   0  0  0  0  0  0  0  0  0  0  0  0
  153.9805  142.4077  158.7771 H   0  0  0  0  0  0  0  0  0  0  0  0
  154.4869  140.5634  160.3687 H   0  0  0  0  0  0  0  0  0  0  0  0
  153.1196  141.0434  161.3729 H   0  0  0  0  0  0  0  0  0  0  0  0
  154.4971  142.1254  161.1822 H   0  0  0  0  0  0  0  0  0  0  0  0
  1  2  1  0  0  0  0
  1 26  1  0  0  0  0
  1 27  1  0  0  0  0
  1 28  1  0  0  0  0
  2 25  1  0  0  0  0
  2  3  1  0  0  0  0
  2 29  1  0  0  0  0
  3  4  1  0  0  0  0
  3 30  1  0  0  0  0
  3 31  1  0  0  0  0
  4  5  1  0  0  0  0
  4 22  1  0  0  0  0
  5 21  1  0  0  0  0
  5  6  2  0  0  0  0
  6  7  1  0  0  0  0
  6 32  1  0  0  0  0
  7  8  2  0  0  0  0
  7 33  1  0  0  0  0
  8  9  1  0  0  0  0
  8 20  1  0  0  0  0
  9 10  1  0  0  0  0
  9 34  1  0  0  0  0
 10 11  2  0  0  0  0
 10 12  1  0  0  0  0
 12 13  1  0  0  0  0
 12 35  1  0  0  0  0
 13 14  1  0  0  0  0
 13 36  1  0  0  0  0
 13 37  1  0  0  0  0
 14 15  1  0  0  0  0
 14 16  1  0  0  0  0
 14 17  1  0  0  0  0
 15 38  1  0  0  0  0
 15 39  1  0  0  0  0
 15 40  1  0  0  0  0
 16 41  1  0  0  0  0
 16 42  1  0  0  0  0
 16 43  1  0  0  0  0
 17 18  1  0  0  0  0
 17 19  2  0  0  0  0
 18 44  1  0  0  0  0
 18 45  1  0  0  0  0
 20 21  2  0  0  0  0
 20 46  1  0  0  0  0
 22 23  1  0  0  0  0
 22 47  1  0  0  0  0
 22 48  1  0  0  0  0
 23 24  1  0  0  0  0
 23 25  1  0  0  0  0
 23 49  1  0  0  0  0
 24 50  1  0  0  0  0
 24 51  1  0  0  0  0
 24 52  1  0  0  0  0
M  END
> <s_m_source_file>
AV-unprocessed.smi

> <i_m_source_file_index>
1018

> <i_lp_mmshare_version>
43012

> <i_f3d_flags>
0

> <s_epik_input>
W0NIM11bQ0BASF0xW0NIMl1OKFtDSDJdW0NASF0oTzEpW0NIM10pYzJbY0hdW2NIXWMoW2NIXW4yKVtOSF1DKD1PKVtOSF1bQ0gyXUMoW0NIM10pKFtDSDNdKUMoPU8pW05IMl0=

> <s_epik_cmdline>
J2VwaWtfcHl0aG9uJywgJy1waCcsICc3LjAnLCAnLXRuJywgJzgnLCAnLW1hJywgJzIwMCcsICctbWV0YWxfYmluZGluZycsICctaW1hZScsICc8aW5maWxlLm1hZT4nLCAnLW9tYWUnLCAnPG91dGZpbGUubWFlPic=

> <r_lp_tautomer_probability>
1

> <r_epik_Ionization_Penalty>
0.002562

> <r_epik_Ionization_Penalty_Charging>
0

> <r_epik_Ionization_Penalty_Neutral>
0.002562

> <r_epik_State_Penalty>
0.00175377

> <r_epik_Charging_Adjusted_Penalty>
0.00175377

> <i_epik_Tot_Q>
0

> <i_epik_Tot_abs_Q>
0

> <r_epik_Metal_State_Penalty>
-0

> <b_epik_Metal_Only>
0

> <s_lp_Force_Field>
OPLS_2005

> <r_lp_Energy>
25.8871

> <b_lp_Chiralities_Consistent>
1

> <s_lp_Variant>
AV-unprocessed.smi:1018-3

> <Gold.Version>
5.8.1

> <Gold.Id.Protein>
6NUR|6NUR_protein|mol2

> <Gold.PLP.Fitness>
51.4756

> <Gold.PLP.PLP>
-45.6533

> <Gold.PLP.part.hbond>
-3.4676

> <Gold.PLP.part.metal>
0.0000

> <Gold.PLP.part.buried>
-5.2748

> <Gold.PLP.part.nonpolar>
-38.8561

> <Gold.PLP.part.repulsive>
0.3783

> <Gold.PLP.ligand.clash>
0.0000

> <Gold.PLP.ligand.torsion>
0.9379

> <Gold.PLP.Chemscore.Hbond>
2.4410

> <Gold.PLP.Chemscore.CHOScore>
0.0000

> <Gold.PLP.Chemscore.Metal>
0.0000

> <Gold.Chemscore.Hbonds>
donor molecule, donor type, donor heavy atom, donor atom, acceptor molecule, acceptor atom, score
      L1  H     9    34       P1  7948  0.44
      L1  H    12    35       P1  7948  1.00
      L1  H    18    45       P1  7948  1.00

> <Gold.PLP.Chemscore.Internal.Correction>
0.3753

> <Gold.Rescore>
     Score         DG    S(hbond)    S(metal)    S(lipo)     H(rot)  DE(clash)    DE(int)     intcor
     18.34     -22.16       2.83        0.00     107.48       2.09       0.05       3.77       ----

> <Gold.Chemscore.Fitness>
18.3381

> <Gold.Chemscore.DG>
-22.1580

> <Gold.Chemscore.ZeroCoef>
-5.4800

> <Gold.Chemscore.Hbond>
2.8341

> <Gold.Chemscore.Metal>
0.0000

> <Gold.Chemscore.Lipo>
107.4754

> <Gold.Chemscore.Internal_Hbond>
0.0000

> <Gold.Chemscore.DEClash>
0.0538

> <Gold.Chemscore.DEInternal>
3.7661

> <Gold.Chemscore.Rot>
2.0947

> <Gold.Chemscore.Internal.Correction>
   9.000000E+99

> <Gold.Chemscore.Hbonds>
donor molecule, donor type, donor heavy atom, donor atom, acceptor molecule, acceptor atom, score
      L1  H     9    34       P1  7948  0.42
      L1  H    12    35       P1  7948  0.94
      L1  H    18    45       P1  7948  0.94

> <Gold.Chemscore.Hbond.Weighted>
-9.4657

> <Gold.Chemscore.Metal.Weighted>
-0.0000

> <Gold.Chemscore.Lipo.Weighted>
-12.5746

> <Gold.Chemscore.Internal_Hbond.Weighted>
0.0000

> <Gold.Chemscore.DEClash.Weighted>
0.0538

> <Gold.Chemscore.DEInternal.Weighted>
3.7661

> <Gold.Chemscore.Rot.Weighted>
5.3624

> <Gold.Chemscore.Internal.Correction.Weighted>
   9.000000E+99

> <Gold.Protein.RotatedTorsions>
[ 6907 6896 6895 6894 ] final   68.90 input  -60.11 | X-H torsion
[ 7974 7965 7964 7962 ] final -133.33 input  175.53 | X-H torsion
[ 8008 7997 7996 7995 ] final  149.17 input   59.86 | X-H torsion
[ 10167 10162 10161 10158 ] final   88.79 input  -65.29 | X-H torsion
[ 10718 10713 10712 10709 ] final  124.63 input   66.30 | X-H torsion
[ 10763 10752 10751 10750 ] final   35.17 input  -60.55 | X-H torsion
[ 11005 11000 10999 10996 ] final -152.27 input  -57.11 | X-H torsion

> <Gold.Protein.ActiveResidues>
 VAL166  LYS551  ARG553  GLY616  TRP617  ASP618  TYR619  PRO620  LYS621  CYS622 
 ASP623  PHE694  ASN695  SER759  ASP760  ASP761  ALA762  ILE779  LEU786  VAL792 
 PHE793  MET794  SER795  GLU796  ALA797  LYS798  CYS799  TRP800  GLU811  SER814 

> <Gold.Protein.RotatedAtoms>
  152.4651  134.5095  159.9749 H   0  0  0  0  0  0  0  0  0  0  0  0  # atno 6907 bound_to 6896
  151.5135  133.3474  159.2897 H   0  0  0  0  0  0  0  0  0  0  0  0  # atno 6908 bound_to 6896
  150.8631  134.8017  159.7160 H   0  0  0  0  0  0  0  0  0  0  0  0  # atno 6909 bound_to 6896
  144.9203  140.7006  143.4969 H   0  0  0  0  0  0  0  0  0  0  0  0  # atno 7974 bound_to 7965
  156.2765  140.2109  156.5815 H   0  0  0  0  0  0  0  0  0  0  0  0  # atno 8008 bound_to 7997
  154.7055  140.0517  157.0522 H   0  0  0  0  0  0  0  0  0  0  0  0  # atno 8009 bound_to 7997
  155.0677  140.3173  155.4643 H   0  0  0  0  0  0  0  0  0  0  0  0  # atno 8010 bound_to 7997
  139.8637  144.6530  150.9028 H   0  0  0  0  0  0  0  0  0  0  0  0  # atno 10167 bound_to 10162
  157.5569  131.1091  150.8606 H   0  0  0  0  0  0  0  0  0  0  0  0  # atno 10718 bound_to 10713
  153.0131  135.6340  154.1785 H   0  0  0  0  0  0  0  0  0  0  0  0  # atno 10763 bound_to 10752
  154.1526  135.2828  155.3133 H   0  0  0  0  0  0  0  0  0  0  0  0  # atno 10764 bound_to 10752
  154.6042  135.5577  153.7467 H   0  0  0  0  0  0  0  0  0  0  0  0  # atno 10765 bound_to 10752
  140.7207  134.3730  157.5184 H   0  0  0  0  0  0  0  0  0  0  0  0  # atno 11005 bound_to 11000
  145.3307  139.1760  143.4538 LP  0  0  0  0  0  0  0  0  0  0  0  0  # atno 17320 bound_to 7965
  146.3201  140.3336  142.8642 LP  0  0  0  0  0  0  0  0  0  0  0  0  # atno 17321 bound_to 7965
  140.7771  143.3722  151.1628 LP  0  0  0  0  0  0  0  0  0  0  0  0  # atno 17342 bound_to 10162
  139.7349  143.9015  152.3031 LP  0  0  0  0  0  0  0  0  0  0  0  0  # atno 17343 bound_to 10162
  156.9114  130.5282  149.5280 LP  0  0  0  0  0  0  0  0  0  0  0  0  # atno 17370 bound_to 10713
  156.0627  130.5676  150.9225 LP  0  0  0  0  0  0  0  0  0  0  0  0  # atno 17371 bound_to 10713
  139.8849  134.8953  156.2677 LP  0  0  0  0  0  0  0  0  0  0  0  0  # atno 17394 bound_to 11000
  141.0006  133.7154  156.0954 LP  0  0  0  0  0  0  0  0  0  0  0  0  # atno 17395 bound_to 11000

$$$$
