AV-unprocessed.smi:49|AV-procd|sdf|490|dock1
  -GOLD-   2262016353D 1   1.00000     0.00000
 Structure written by MMmdl.
 26 27  0  0  0  0  0  0  0  0  2 V2000
  152.6402  142.2037  159.1402 C   0  0  0  0  0  0  0  0  0  0  0  0
  152.2848  140.7697  158.7349 C   0  0  0  0  0  0  0  0  0  0  0  0
  151.7128  140.6979  157.3360 C   0  0  0  0  0  0  0  0  0  0  0  0
  150.5812  141.2633  156.9275 N   0  0  0  0  0  0  0  0  0  0  0  0
  150.4745  140.9698  155.6239 C   0  0  0  0  0  0  0  0  0  0  0  0
  149.3375  141.4450  154.7371 C   0  0  1  0  0  0  0  0  0  0  0  0
  148.5762  140.2665  154.1031 C   0  0  0  0  0  0  0  0  0  0  0  0
  147.2186  140.2851  154.7984 C   0  0  2  0  0  0  0  0  0  0  0  0
  146.1837  139.7487  154.0016 O   0  0  0  0  0  0  0  0  0  0  0  0
  147.0234  141.7681  155.0851 C   0  0  0  0  0  0  0  0  0  0  0  0
  148.3457  142.2410  155.4693 N   0  0  0  0  0  0  0  0  0  0  0  0
  151.5357  140.2570  155.2115 N   0  0  0  0  0  0  0  0  0  0  0  0
  152.2896  140.0979  156.2801 N   0  5  0  0  0  0  0  0  0  0  0  0
  149.7713  142.0503  153.9404 H   0  0  0  0  0  0  0  0  0  0  0  0
  147.2771  139.7331  155.7378 H   0  0  0  0  0  0  0  0  0  0  0  0
  153.0507  142.2323  160.1495 H   0  0  0  0  0  0  0  0  0  0  0  0
  151.7595  142.8461  159.1186 H   0  0  0  0  0  0  0  0  0  0  0  0
  153.3824  142.6293  158.4644 H   0  0  0  0  0  0  0  0  0  0  0  0
  153.1715  140.1373  158.7856 H   0  0  0  0  0  0  0  0  0  0  0  0
  151.5601  140.3525  159.4343 H   0  0  0  0  0  0  0  0  0  0  0  0
  148.4488  140.4621  153.0372 H   0  0  0  0  0  0  0  0  0  0  0  0
  149.0896  139.3089  154.2006 H   0  0  0  0  0  0  0  0  0  0  0  0
  145.6310  140.4590  153.7140 H   0  0  0  0  0  0  0  0  0  0  0  0
  146.6990  142.2831  154.1798 H   0  0  0  0  0  0  0  0  0  0  0  0
  146.2812  141.9541  155.8617 H   0  0  0  0  0  0  0  0  0  0  0  0
  148.4348  143.2198  155.2178 H   0  0  0  0  0  0  0  0  0  0  0  0
  1  2  1  0  0  0  0
  1 16  1  0  0  0  0
  1 17  1  0  0  0  0
  1 18  1  0  0  0  0
  2  3  1  0  0  0  0
  2 19  1  0  0  0  0
  2 20  1  0  0  0  0
  3 13  1  0  0  0  0
  3  4  2  0  0  0  0
  4  5  1  0  0  0  0
  5  6  1  0  0  0  0
  5 12  2  0  0  0  0
  6 14  1  0  0  0  0
  6 11  1  0  0  0  0
  6  7  1  0  0  0  0
  7  8  1  0  0  0  0
  7 21  1  0  0  0  0
  7 22  1  0  0  0  0
  8 15  1  0  0  0  0
  8  9  1  0  0  0  0
  8 10  1  0  0  0  0
  9 23  1  0  0  0  0
 10 11  1  0  0  0  0
 10 24  1  0  0  0  0
 10 25  1  0  0  0  0
 11 26  1  0  0  0  0
 12 13  1  0  0  0  0
M  CHG  1  13  -1
M  END
> <s_m_source_file>
AV-unprocessed.smi

> <i_m_source_file_index>
49

> <i_lp_mmshare_version>
43012

> <i_f3d_flags>
0

> <s_epik_input>
W0NIM11bQ0gyXWMxbmMobltuSF0xKVtDQEBIXTJbQ0gyXVtDQEBIXShbT0hdKVtDSDJdW05IXTI=

> <s_epik_cmdline>
J2VwaWtfcHl0aG9uJywgJy1waCcsICc3LjAnLCAnLXRuJywgJzgnLCAnLW1hJywgJzIwMCcsICctbWV0YWxfYmluZGluZycsICctaW1hZScsICc8aW5maWxlLm1hZT4nLCAnLW9tYWUnLCAnPG91dGZpbGUubWFlPic=

> <r_lp_tautomer_probability>
0.948284

> <r_epik_Ionization_Penalty>
20.726

> <r_epik_Ionization_Penalty_Charging>
17.6814

> <r_epik_Ionization_Penalty_Neutral>
3.04463

> <r_epik_State_Penalty>
7.95092

> <r_epik_Charging_Adjusted_Penalty>
25.6323

> <i_epik_Tot_Q>
-1

> <i_epik_Tot_abs_Q>
1

> <r_epik_Metal_State_Penalty>
4.146

> <b_epik_Metal_Only>
1

> <s_lp_Force_Field>
OPLS_2005

> <r_lp_Energy>
18.0563

> <b_lp_Chiralities_Consistent>
1

> <s_lp_Variant>
AV-unprocessed.smi:49-28

> <Gold.Version>
5.8.1

> <Gold.Id.Protein>
6NUR|6NUR_protein|mol2

> <Gold.PLP.Fitness>
35.1385

> <Gold.PLP.PLP>
-22.7522

> <Gold.PLP.part.hbond>
-4.0000

> <Gold.PLP.part.metal>
0.0000

> <Gold.PLP.part.buried>
-1.6734

> <Gold.PLP.part.nonpolar>
-16.8134

> <Gold.PLP.part.repulsive>
0.0790

> <Gold.PLP.ligand.clash>
0.0000

> <Gold.PLP.ligand.torsion>
0.0280

> <Gold.PLP.Chemscore.Hbond>
4.1425

> <Gold.PLP.Chemscore.CHOScore>
0.0000

> <Gold.PLP.Chemscore.Metal>
0.0000

> <Gold.Chemscore.Hbonds>
donor molecule, donor type, donor heavy atom, donor atom, acceptor molecule, acceptor atom, score
      L1  H     9    23       P1 10175  0.20
      L1  H    11    26       P1  8028  0.99
      P1  H  7989  7998       L1    12  0.91
      P1  H  7997  8010       L1    13  1.95

> <Gold.PLP.Chemscore.Internal.Correction>
0.0149

> <Gold.Rescore>
     Score         DG    S(hbond)    S(metal)    S(lipo)     H(rot)  DE(clash)    DE(int)     intcor
     13.45     -13.60       2.43        0.00      39.92       1.82       0.11       0.03       ----

> <Gold.Chemscore.Fitness>
13.4541

> <Gold.Chemscore.DG>
-13.5960

> <Gold.Chemscore.ZeroCoef>
-5.4800

> <Gold.Chemscore.Hbond>
2.4285

> <Gold.Chemscore.Metal>
0.0000

> <Gold.Chemscore.Lipo>
39.9191

> <Gold.Chemscore.Internal_Hbond>
0.0000

> <Gold.Chemscore.DEClash>
0.1133

> <Gold.Chemscore.DEInternal>
0.0286

> <Gold.Chemscore.Rot>
1.8226

> <Gold.Chemscore.Internal.Correction>
   9.000000E+99

> <Gold.Chemscore.Hbonds>
donor molecule, donor type, donor heavy atom, donor atom, acceptor molecule, acceptor atom, score
      L1  H     9    23       P1 10175  0.20
      L1  H    11    26       P1  8028  0.92
      P1  H  7989  7998       L1    12  0.20
      P1  H  7997  8010       L1    13  0.80

> <Gold.Chemscore.Hbond.Weighted>
-8.1113

> <Gold.Chemscore.Metal.Weighted>
-0.0000

> <Gold.Chemscore.Lipo.Weighted>
-4.6705

> <Gold.Chemscore.Internal_Hbond.Weighted>
0.0000

> <Gold.Chemscore.DEClash.Weighted>
0.1133

> <Gold.Chemscore.DEInternal.Weighted>
0.0286

> <Gold.Chemscore.Rot.Weighted>
4.6658

> <Gold.Chemscore.Internal.Correction.Weighted>
   9.000000E+99

> <Gold.Protein.RotatedTorsions>
[ 6907 6896 6895 6894 ] final  107.27 input  -60.11 | X-H torsion
[ 7974 7965 7964 7962 ] final  -84.95 input  175.53 | X-H torsion
[ 8008 7997 7996 7995 ] final   79.48 input   59.86 | X-H torsion
[ 10167 10162 10161 10158 ] final   10.93 input  -65.29 | X-H torsion
[ 10718 10713 10712 10709 ] final   86.86 input   66.30 | X-H torsion
[ 10763 10752 10751 10750 ] final  134.27 input  -60.55 | X-H torsion
[ 11005 11000 10999 10996 ] final -179.52 input  -57.11 | X-H torsion

> <Gold.Protein.ActiveResidues>
 VAL166  LYS551  ARG553  GLY616  TRP617  ASP618  TYR619  PRO620  LYS621  CYS622 
 ASP623  PHE694  ASN695  SER759  ASP760  ASP761  ALA762  ILE779  LEU786  VAL792 
 PHE793  MET794  SER795  GLU796  ALA797  LYS798  CYS799  TRP800  GLU811  SER814 

> <Gold.Protein.RotatedAtoms>
  152.5161  133.9260  159.7556 H   0  0  0  0  0  0  0  0  0  0  0  0  # atno 6907 bound_to 6896
  150.9621  133.6426  159.2759 H   0  0  0  0  0  0  0  0  0  0  0  0  # atno 6908 bound_to 6896
  151.3667  135.0920  159.9505 H   0  0  0  0  0  0  0  0  0  0  0  0  # atno 6909 bound_to 6896
  145.4998  140.9548  143.1766 H   0  0  0  0  0  0  0  0  0  0  0  0  # atno 7974 bound_to 7965
  155.8703  140.3449  155.5816 H   0  0  0  0  0  0  0  0  0  0  0  0  # atno 8008 bound_to 7997
  155.7835  140.0861  157.2066 H   0  0  0  0  0  0  0  0  0  0  0  0  # atno 8009 bound_to 7997
  154.4017  140.1496  156.3066 H   0  0  0  0  0  0  0  0  0  0  0  0  # atno 8010 bound_to 7997
  140.6164  143.8299  150.7123 H   0  0  0  0  0  0  0  0  0  0  0  0  # atno 10167 bound_to 10162
  157.6934  131.0232  150.3037 H   0  0  0  0  0  0  0  0  0  0  0  0  # atno 10718 bound_to 10713
  153.8207  135.3116  155.3410 H   0  0  0  0  0  0  0  0  0  0  0  0  # atno 10763 bound_to 10752
  154.8014  135.4724  154.0287 H   0  0  0  0  0  0  0  0  0  0  0  0  # atno 10764 bound_to 10752
  153.1695  135.6875  153.8717 H   0  0  0  0  0  0  0  0  0  0  0  0  # atno 10765 bound_to 10752
  140.4177  134.6634  157.4648 H   0  0  0  0  0  0  0  0  0  0  0  0  # atno 11005 bound_to 11000
  144.7786  139.6575  143.7164 LP  0  0  0  0  0  0  0  0  0  0  0  0  # atno 17320 bound_to 7965
  146.2233  139.5675  142.9604 LP  0  0  0  0  0  0  0  0  0  0  0  0  # atno 17321 bound_to 7965
  140.1879  143.4060  152.1885 LP  0  0  0  0  0  0  0  0  0  0  0  0  # atno 17342 bound_to 10162
  139.5402  144.7249  151.4759 LP  0  0  0  0  0  0  0  0  0  0  0  0  # atno 17343 bound_to 10162
  156.3549  130.3837  149.7299 LP  0  0  0  0  0  0  0  0  0  0  0  0  # atno 17370 bound_to 10713
  156.4764  130.8021  151.3037 LP  0  0  0  0  0  0  0  0  0  0  0  0  # atno 17371 bound_to 10713
  140.0222  134.6530  155.9223 LP  0  0  0  0  0  0  0  0  0  0  0  0  # atno 17394 bound_to 11000
  141.1796  133.6544  156.4967 LP  0  0  0  0  0  0  0  0  0  0  0  0  # atno 17395 bound_to 11000

$$$$
