AV-unprocessed.smi:3033|AV-procd|sdf|11573|dock10
  -GOLD-   2272016543D 1   1.00000     0.00000
 Structure written by MMmdl.
 33 34  0  0  0  0  0  0  0  0  1 V2000
  154.5171  140.9086  162.2297 C   0  0  0  0  0  0  0  0  0  0  0  0
  153.9881  140.3234  161.0488 O   0  0  0  0  0  0  0  0  0  0  0  0
  153.2425  141.1211  160.2076 C   0  0  0  0  0  0  0  0  0  0  0  0
  152.9580  142.4882  160.4514 C   0  0  0  0  0  0  0  0  0  0  0  0
  152.1835  143.2277  159.5374 C   0  0  0  0  0  0  0  0  0  0  0  0
  151.6872  142.6154  158.3723 C   0  0  0  0  0  0  0  0  0  0  0  0
  151.9657  141.2569  158.1136 C   0  0  0  0  0  0  0  0  0  0  0  0
  151.4277  140.5812  156.8614 C   0  0  2  0  0  0  0  0  0  0  0  0
  152.4548  139.8915  156.1769 O   0  0  0  0  0  0  0  0  0  0  0  0
  150.7830  141.6133  155.9104 C   0  0  0  0  0  0  0  0  0  0  0  0
  149.6498  141.0880  155.1868 N   0  0  0  0  0  0  0  0  0  0  0  0
  148.3905  141.6613  155.2764 C   0  0  0  0  0  0  0  0  0  0  0  0
  147.3040  141.1750  154.6294 C   0  0  0  0  0  0  0  0  0  0  0  0
  145.7669  141.9454  154.7956 Cl  0  0  0  0  0  0  0  0  0  0  0  0
  147.4263  139.9866  153.7861 C   0  0  0  0  0  0  0  0  0  0  0  0
  146.5103  139.4640  153.1543 O   0  0  0  0  0  0  0  0  0  0  0  0
  148.7114  139.4384  153.7306 N   0  0  0  0  0  0  0  0  0  0  0  0
  149.8350  139.9302  154.3961 C   0  0  0  0  0  0  0  0  0  0  0  0
  150.9161  139.3541  154.2765 O   0  0  0  0  0  0  0  0  0  0  0  0
  152.7389  140.5203  159.0355 C   0  0  0  0  0  0  0  0  0  0  0  0
  148.8371  138.6140  153.1616 H   0  0  0  0  0  0  0  0  0  0  0  0
  155.0715  140.1544  162.7880 H   0  0  0  0  0  0  0  0  0  0  0  0
  153.7246  141.2828  162.8794 H   0  0  0  0  0  0  0  0  0  0  0  0
  155.2076  141.7204  161.9972 H   0  0  0  0  0  0  0  0  0  0  0  0
  153.3213  142.9930  161.3336 H   0  0  0  0  0  0  0  0  0  0  0  0
  151.9691  144.2683  159.7312 H   0  0  0  0  0  0  0  0  0  0  0  0
  151.0912  143.1911  157.6789 H   0  0  0  0  0  0  0  0  0  0  0  0
  150.6810  139.8453  157.1635 H   0  0  0  0  0  0  0  0  0  0  0  0
  152.0581  139.2387  155.6209 H   0  0  0  0  0  0  0  0  0  0  0  0
  150.3681  142.4426  156.4869 H   0  0  0  0  0  0  0  0  0  0  0  0
  151.4864  142.0708  155.2113 H   0  0  0  0  0  0  0  0  0  0  0  0
  148.2660  142.5381  155.8963 H   0  0  0  0  0  0  0  0  0  0  0  0
  152.9510  139.4779  158.8463 H   0  0  0  0  0  0  0  0  0  0  0  0
  1  2  1  0  0  0  0
  1 22  1  0  0  0  0
  1 23  1  0  0  0  0
  1 24  1  0  0  0  0
  2  3  1  0  0  0  0
  3 20  1  0  0  0  0
  3  4  2  0  0  0  0
  4  5  1  0  0  0  0
  4 25  1  0  0  0  0
  5  6  2  0  0  0  0
  5 26  1  0  0  0  0
  6  7  1  0  0  0  0
  6 27  1  0  0  0  0
  7  8  1  0  0  0  0
  7 20  2  0  0  0  0
  8  9  1  0  0  0  0
  8 10  1  0  0  0  0
  8 28  1  0  0  0  0
  9 29  1  0  0  0  0
 10 11  1  0  0  0  0
 10 30  1  0  0  0  0
 10 31  1  0  0  0  0
 11 18  1  0  0  0  0
 11 12  1  0  0  0  0
 12 13  2  0  0  0  0
 12 32  1  0  0  0  0
 13 14  1  0  0  0  0
 13 15  1  0  0  0  0
 15 16  2  0  0  0  0
 15 17  1  0  0  0  0
 17 21  1  0  0  0  0
 17 18  1  0  0  0  0
 18 19  2  0  0  0  0
 20 33  1  0  0  0  0
M  END
> <s_m_source_file>
AV-unprocessed.smi

> <i_m_source_file_index>
3033

> <i_lp_mmshare_version>
43012

> <i_f3d_flags>
0

> <s_epik_input>
W0NIM11PYzFbY0hdW2NIXVtjSF1jKFtjSF0xKVtDQEhdKFtPSF0pW0NIMl1uMltjSF1jKENsKWMoPU8pW25IXWMyPU8=

> <s_epik_cmdline>
J2VwaWtfcHl0aG9uJywgJy1waCcsICc3LjAnLCAnLXRuJywgJzgnLCAnLW1hJywgJzIwMCcsICctbWV0YWxfYmluZGluZycsICctaW1hZScsICc8aW5maWxlLm1hZT4nLCAnLW9tYWUnLCAnPG91dGZpbGUubWFlPic=

> <r_lp_tautomer_probability>
0.999537

> <r_epik_Ionization_Penalty>
0.0292058

> <r_epik_Ionization_Penalty_Charging>
0.0292057

> <r_epik_Ionization_Penalty_Neutral>
7.1713e-08

> <r_epik_State_Penalty>
0.0240115

> <r_epik_Charging_Adjusted_Penalty>
0.0532172

> <i_epik_Tot_Q>
0

> <i_epik_Tot_abs_Q>
0

> <r_epik_Metal_State_Penalty>
2.21956

> <b_epik_Metal_Only>
0

> <s_lp_Force_Field>
OPLS_2005

> <r_lp_Energy>
16.8707

> <b_lp_Chiralities_Consistent>
1

> <s_lp_Variant>
AV-unprocessed.smi:3033-1

> <Gold.Version>
5.8.1

> <Gold.Id.Protein>
6NUR|6NUR_protein|mol2

> <Gold.PLP.Fitness>
45.6172

> <Gold.PLP.PLP>
-39.1346

> <Gold.PLP.part.hbond>
-3.0000

> <Gold.PLP.part.metal>
0.0000

> <Gold.PLP.part.buried>
-1.7199

> <Gold.PLP.part.nonpolar>
-34.0035

> <Gold.PLP.part.repulsive>
0.8588

> <Gold.PLP.ligand.clash>
0.0000

> <Gold.PLP.ligand.torsion>
0.5917

> <Gold.PLP.Chemscore.Hbond>
1.5500

> <Gold.PLP.Chemscore.CHOScore>
1.0000

> <Gold.PLP.Chemscore.Metal>
0.0000

> <Gold.Chemscore.Hbonds>
donor molecule, donor type, donor heavy atom, donor atom, acceptor molecule, acceptor atom, score
      P1  H  7989  7998       L1    19  0.50
      P1  H  7997  8010       L1     9  1.00
      L1  C    12    32       P1  8028  1.00

> <Gold.PLP.Chemscore.Internal.Correction>
0.0160

> <Gold.Rescore>
     Score         DG    S(hbond)    S(metal)    S(lipo)     H(rot)  DE(clash)    DE(int)     intcor
     10.18     -13.58       1.01        0.00      95.25       2.51       0.02       3.38       ----

> <Gold.Chemscore.Fitness>
10.1845

> <Gold.Chemscore.DG>
-13.5793

> <Gold.Chemscore.ZeroCoef>
-5.4800

> <Gold.Chemscore.Hbond>
1.0126

> <Gold.Chemscore.Metal>
0.0000

> <Gold.Chemscore.Lipo>
95.2533

> <Gold.Chemscore.Internal_Hbond>
0.0000

> <Gold.Chemscore.DEClash>
0.0158

> <Gold.Chemscore.DEInternal>
3.3790

> <Gold.Chemscore.Rot>
2.5107

> <Gold.Chemscore.Internal.Correction>
   9.000000E+99

> <Gold.Chemscore.Hbonds>
donor molecule, donor type, donor heavy atom, donor atom, acceptor molecule, acceptor atom, score
      P1  H  7989  7998       L1    19  0.02
      P1  H  7997  8010       L1     9  0.99

> <Gold.Chemscore.Hbond.Weighted>
-3.3821

> <Gold.Chemscore.Metal.Weighted>
-0.0000

> <Gold.Chemscore.Lipo.Weighted>
-11.1446

> <Gold.Chemscore.Internal_Hbond.Weighted>
0.0000

> <Gold.Chemscore.DEClash.Weighted>
0.0158

> <Gold.Chemscore.DEInternal.Weighted>
3.3790

> <Gold.Chemscore.Rot.Weighted>
6.4274

> <Gold.Chemscore.Internal.Correction.Weighted>
   9.000000E+99

> <Gold.Protein.RotatedTorsions>
[ 6907 6896 6895 6894 ] final   32.78 input  -60.11 | X-H torsion
[ 7974 7965 7964 7962 ] final  -16.82 input  175.53 | X-H torsion
[ 8008 7997 7996 7995 ] final   79.44 input   59.86 | X-H torsion
[ 10167 10162 10161 10158 ] final   10.41 input  -65.29 | X-H torsion
[ 10718 10713 10712 10709 ] final -111.32 input   66.30 | X-H torsion
[ 10763 10752 10751 10750 ] final  107.28 input  -60.55 | X-H torsion
[ 11005 11000 10999 10996 ] final   44.59 input  -57.11 | X-H torsion

> <Gold.Protein.ActiveResidues>
 VAL166  LYS551  ARG553  GLY616  TRP617  ASP618  TYR619  PRO620  LYS621  CYS622 
 ASP623  PHE694  ASN695  SER759  ASP760  ASP761  ALA762  ILE779  LEU786  VAL792 
 PHE793  MET794  SER795  GLU796  ALA797  LYS798  CYS799  TRP800  GLU811  SER814 

> <Gold.Protein.RotatedAtoms>
  152.0792  134.9482  160.0573 H   0  0  0  0  0  0  0  0  0  0  0  0  # atno 6907 bound_to 6896
  152.0777  133.4133  159.4495 H   0  0  0  0  0  0  0  0  0  0  0  0  # atno 6908 bound_to 6896
  150.6836  134.2938  159.4721 H   0  0  0  0  0  0  0  0  0  0  0  0  # atno 6909 bound_to 6896
  146.1970  140.3691  142.8437 H   0  0  0  0  0  0  0  0  0  0  0  0  # atno 7974 bound_to 7965
  155.8697  140.3449  155.5813 H   0  0  0  0  0  0  0  0  0  0  0  0  # atno 8008 bound_to 7997
  155.7841  140.0862  157.2063 H   0  0  0  0  0  0  0  0  0  0  0  0  # atno 8009 bound_to 7997
  154.4016  140.1495  156.3074 H   0  0  0  0  0  0  0  0  0  0  0  0  # atno 8010 bound_to 7997
  140.6196  143.8234  150.7159 H   0  0  0  0  0  0  0  0  0  0  0  0  # atno 10167 bound_to 10162
  156.0640  130.5861  150.8357 H   0  0  0  0  0  0  0  0  0  0  0  0  # atno 10718 bound_to 10713
  153.4045  135.3849  155.2010 H   0  0  0  0  0  0  0  0  0  0  0  0  # atno 10763 bound_to 10752
  154.8732  135.3779  154.4577 H   0  0  0  0  0  0  0  0  0  0  0  0  # atno 10764 bound_to 10752
  153.5078  135.7087  153.5859 H   0  0  0  0  0  0  0  0  0  0  0  0  # atno 10765 bound_to 10752
  140.1538  134.4428  155.8363 H   0  0  0  0  0  0  0  0  0  0  0  0  # atno 11005 bound_to 11000
  144.8601  140.7127  143.6113 LP  0  0  0  0  0  0  0  0  0  0  0  0  # atno 17320 bound_to 7965
  145.3611  139.1681  143.4383 LP  0  0  0  0  0  0  0  0  0  0  0  0  # atno 17321 bound_to 7965
  140.1821  143.4106  152.1925 LP  0  0  0  0  0  0  0  0  0  0  0  0  # atno 17342 bound_to 10162
  139.5427  144.7271  151.4682 LP  0  0  0  0  0  0  0  0  0  0  0  0  # atno 17343 bound_to 10162
  157.5669  131.0946  150.9476 LP  0  0  0  0  0  0  0  0  0  0  0  0  # atno 17370 bound_to 10713
  156.9700  130.5487  149.5290 LP  0  0  0  0  0  0  0  0  0  0  0  0  # atno 17371 bound_to 10713
  141.2202  133.6884  156.7470 LP  0  0  0  0  0  0  0  0  0  0  0  0  # atno 17394 bound_to 11000
  140.2572  134.8495  157.3724 LP  0  0  0  0  0  0  0  0  0  0  0  0  # atno 17395 bound_to 11000

$$$$
