AV-unprocessed.smi:2243|AV-procd|sdf|9064|dock6
  -GOLD-   2272012273D 1   1.00000     0.00000
 Structure written by MMmdl.
 35 36  0  0  0  0  0  0  0  0  2 V2000
  146.4283  141.6507  153.9880 C   0  0  0  0  0  0  0  0  0  0  0  0
  147.2972  140.4500  153.5752 C   0  0  2  0  0  0  0  0  0  0  0  0
  146.4347  139.2690  153.5128 N   0  0  0  0  0  0  0  0  0  0  0  0
  146.4277  138.3493  152.5350 C   0  0  0  0  0  0  0  0  0  0  0  0
  147.1696  138.3838  151.5529 O   0  0  0  0  0  0  0  0  0  0  0  0
  145.5160  137.3922  152.7655 N   0  0  0  0  0  0  0  0  0  0  0  0
  145.2586  136.2804  151.9306 C   0  0  0  0  0  0  0  0  0  0  0  0
  146.1923  135.4214  151.5242 N   0  3  0  0  0  0  0  0  0  0  0  0
  145.6003  134.4697  150.7311 C   0  0  0  0  0  0  0  0  0  0  0  0
  144.2673  134.8005  150.6825 C   0  0  0  0  0  0  0  0  0  0  0  0
  144.0369  135.9368  151.4319 O   0  0  0  0  0  0  0  0  0  0  0  0
  148.4955  140.2013  154.5301 C   0  0  0  0  0  0  0  0  0  0  0  0
  149.3682  141.4586  154.7236 C   0  0  0  0  0  0  0  0  0  0  0  0
  150.5909  141.1632  155.6076 C   0  0  0  0  0  0  0  0  0  0  0  0
  151.3557  140.1050  155.0447 O   0  0  0  0  0  0  0  0  0  0  0  0
  150.6295  138.8850  154.9699 C   0  0  0  0  0  0  0  0  0  0  0  0
  149.4102  139.0542  154.0493 C   0  0  0  0  0  0  0  0  0  0  0  0
  146.9787  142.5889  153.9253 H   0  0  0  0  0  0  0  0  0  0  0  0
  146.0607  141.5447  155.0091 H   0  0  0  0  0  0  0  0  0  0  0  0
  145.5623  141.7504  153.3325 H   0  0  0  0  0  0  0  0  0  0  0  0
  147.6988  140.6665  152.5836 H   0  0  0  0  0  0  0  0  0  0  0  0
  145.7871  139.1509  154.2784 H   0  0  0  0  0  0  0  0  0  0  0  0
  147.1813  135.4318  151.7403 H   0  0  0  0  0  0  0  0  0  0  0  0
  146.1746  133.6680  150.2894 H   0  0  0  0  0  0  0  0  0  0  0  0
  143.4072  134.3647  150.1951 H   0  0  0  0  0  0  0  0  0  0  0  0
  148.0969  139.9190  155.5059 H   0  0  0  0  0  0  0  0  0  0  0  0
  149.7056  141.8273  153.7541 H   0  0  0  0  0  0  0  0  0  0  0  0
  148.7936  142.2630  155.1819 H   0  0  0  0  0  0  0  0  0  0  0  0
  151.2209  142.0499  155.6807 H   0  0  0  0  0  0  0  0  0  0  0  0
  150.2846  140.9065  156.6229 H   0  0  0  0  0  0  0  0  0  0  0  0
  151.2878  138.1085  154.5796 H   0  0  0  0  0  0  0  0  0  0  0  0
  150.3225  138.5690  155.9684 H   0  0  0  0  0  0  0  0  0  0  0  0
  148.8648  138.1113  154.0125 H   0  0  0  0  0  0  0  0  0  0  0  0
  149.7503  139.2566  153.0328 H   0  0  0  0  0  0  0  0  0  0  0  0
  144.9611  137.4648  153.6054 H   0  0  0  0  0  0  0  0  0  0  0  0
  1  2  1  0  0  0  0
  1 18  1  0  0  0  0
  1 19  1  0  0  0  0
  1 20  1  0  0  0  0
  2  3  1  0  0  0  0
  2 12  1  0  0  0  0
  2 21  1  0  0  0  0
  3 22  1  0  0  0  0
  3  4  1  0  0  0  0
  4  6  1  0  0  0  0
  4  5  2  0  0  0  0
  6  7  1  0  0  0  0
  6 35  1  0  0  0  0
  7 11  1  0  0  0  0
  7  8  2  0  0  0  0
  8 23  1  0  0  0  0
  8  9  1  0  0  0  0
  9 24  1  0  0  0  0
  9 10  2  0  0  0  0
 10 25  1  0  0  0  0
 10 11  1  0  0  0  0
 12 17  1  0  0  0  0
 12 13  1  0  0  0  0
 12 26  1  0  0  0  0
 13 14  1  0  0  0  0
 13 27  1  0  0  0  0
 13 28  1  0  0  0  0
 14 15  1  0  0  0  0
 14 29  1  0  0  0  0
 14 30  1  0  0  0  0
 15 16  1  0  0  0  0
 16 17  1  0  0  0  0
 16 31  1  0  0  0  0
 16 32  1  0  0  0  0
 17 33  1  0  0  0  0
 17 34  1  0  0  0  0
M  CHG  1   8   1
M  END
> <s_m_source_file>
AV-unprocessed.smi

> <i_m_source_file_index>
2243

> <i_lp_mmshare_version>
43012

> <i_f3d_flags>
0

> <s_epik_input>
W0NIMl0xW0NIMl1PW0NIMl1bQ0gyXVtDSF0xW0NASF0oW0NIM10pW05IXUMoPU8pW05IXWMybltjSF1bY0hdbzI=

> <s_epik_cmdline>
J2VwaWtfcHl0aG9uJywgJy1waCcsICc3LjAnLCAnLXRuJywgJzgnLCAnLW1hJywgJzIwMCcsICctbWV0YWxfYmluZGluZycsICctaW1hZScsICc8aW5maWxlLm1hZT4nLCAnLW9tYWUnLCAnPG91dGZpbGUubWFlPic=

> <r_epik_Ionization_Penalty>
6.61405

> <r_epik_Ionization_Penalty_Charging>
6.55981

> <r_epik_Ionization_Penalty_Neutral>
0.0542461

> <r_epik_State_Penalty>
1.79186

> <r_epik_Charging_Adjusted_Penalty>
8.35167

> <i_epik_Tot_Q>
1

> <i_epik_Tot_abs_Q>
1

> <r_epik_Metal_State_Penalty>
1.80655

> <b_epik_Metal_Only>
0

> <s_lp_Force_Field>
OPLS_2005

> <r_lp_Energy>
19.6033

> <b_lp_Chiralities_Consistent>
1

> <s_lp_Variant>
AV-unprocessed.smi:2243-3

> <Gold.Version>
5.8.1

> <Gold.Id.Protein>
6NUR|6NUR_protein|mol2

> <Gold.PLP.Fitness>
42.0416

> <Gold.PLP.PLP>
-28.5155

> <Gold.PLP.part.hbond>
-3.6714

> <Gold.PLP.part.metal>
0.0000

> <Gold.PLP.part.buried>
-3.7400

> <Gold.PLP.part.nonpolar>
-26.0297

> <Gold.PLP.part.repulsive>
4.7732

> <Gold.PLP.ligand.clash>
0.0000

> <Gold.PLP.ligand.torsion>
0.7448

> <Gold.PLP.Chemscore.Hbond>
4.0000

> <Gold.PLP.Chemscore.CHOScore>
1.0000

> <Gold.PLP.Chemscore.Metal>
0.0000

> <Gold.Chemscore.Hbonds>
donor molecule, donor type, donor heavy atom, donor atom, acceptor molecule, acceptor atom, score
      L1  H     8    23       P1  7948  2.00
      P1  H  7954  7966       L1     5  1.00
      P1  H  7989  7998       L1    15  0.80
      L1  C    10    25       P1 10186  1.00

> <Gold.PLP.Chemscore.Internal.Correction>
0.0157

> <Gold.Rescore>
     Score         DG    S(hbond)    S(metal)    S(lipo)     H(rot)  DE(clash)    DE(int)     intcor
     14.62     -15.51       2.01        0.00      57.59       1.33       0.18       0.71       ----

> <Gold.Chemscore.Fitness>
14.6223

> <Gold.Chemscore.DG>
-15.5087

> <Gold.Chemscore.ZeroCoef>
-5.4800

> <Gold.Chemscore.Hbond>
2.0062

> <Gold.Chemscore.Metal>
0.0000

> <Gold.Chemscore.Lipo>
57.5925

> <Gold.Chemscore.Internal_Hbond>
0.0000

> <Gold.Chemscore.DEClash>
0.1806

> <Gold.Chemscore.DEInternal>
0.7059

> <Gold.Chemscore.Rot>
1.3321

> <Gold.Chemscore.Internal.Correction>
   9.000000E+99

> <Gold.Chemscore.Hbonds>
donor molecule, donor type, donor heavy atom, donor atom, acceptor molecule, acceptor atom, score
      L1  H     8    23       P1  7948  0.97
      P1  H  7954  7966       L1     5  0.96
      P1  H  7989  7998       L1    15  0.11

> <Gold.Chemscore.Hbond.Weighted>
-6.7007

> <Gold.Chemscore.Metal.Weighted>
-0.0000

> <Gold.Chemscore.Lipo.Weighted>
-6.7383

> <Gold.Chemscore.Internal_Hbond.Weighted>
0.0000

> <Gold.Chemscore.DEClash.Weighted>
0.1806

> <Gold.Chemscore.DEInternal.Weighted>
0.7059

> <Gold.Chemscore.Rot.Weighted>
3.4103

> <Gold.Chemscore.Internal.Correction.Weighted>
   9.000000E+99

> <Gold.Protein.RotatedTorsions>
[ 6907 6896 6895 6894 ] final    8.82 input  -60.11 | X-H torsion
[ 7974 7965 7964 7962 ] final   72.44 input  175.53 | X-H torsion
[ 8008 7997 7996 7995 ] final -137.46 input   59.86 | X-H torsion
[ 10167 10162 10161 10158 ] final   85.82 input  -65.29 | X-H torsion
[ 10718 10713 10712 10709 ] final  -46.03 input   66.30 | X-H torsion
[ 10763 10752 10751 10750 ] final   30.85 input  -60.55 | X-H torsion
[ 11005 11000 10999 10996 ] final   37.81 input  -57.11 | X-H torsion

> <Gold.Protein.ActiveResidues>
 VAL166  LYS551  ARG553  GLY616  TRP617  ASP618  TYR619  PRO620  LYS621  CYS622 
 ASP623  PHE694  ASN695  SER759  ASP760  ASP761  ALA762  ILE779  LEU786  VAL792 
 PHE793  MET794  SER795  GLU796  ALA797  LYS798  CYS799  TRP800  GLU811  SER814 

> <Gold.Protein.RotatedAtoms>
  151.7121  135.0910  160.0269 H   0  0  0  0  0  0  0  0  0  0  0  0  # atno 6907 bound_to 6896
  152.3655  133.6347  159.6055 H   0  0  0  0  0  0  0  0  0  0  0  0  # atno 6908 bound_to 6896
  150.7635  133.9271  159.3457 H   0  0  0  0  0  0  0  0  0  0  0  0  # atno 6909 bound_to 6896
  145.7533  139.2769  143.1418 H   0  0  0  0  0  0  0  0  0  0  0  0  # atno 7974 bound_to 7965
  155.4122  140.0513  157.3031 H   0  0  0  0  0  0  0  0  0  0  0  0  # atno 8008 bound_to 7997
  154.4941  140.2131  155.9445 H   0  0  0  0  0  0  0  0  0  0  0  0  # atno 8009 bound_to 7997
  156.1381  140.3159  155.8458 H   0  0  0  0  0  0  0  0  0  0  0  0  # atno 8010 bound_to 7997
  139.8939  144.6369  150.8709 H   0  0  0  0  0  0  0  0  0  0  0  0  # atno 10167 bound_to 10162
  156.2224  130.4167  149.8976 H   0  0  0  0  0  0  0  0  0  0  0  0  # atno 10718 bound_to 10713
  153.0348  135.6454  154.1108 H   0  0  0  0  0  0  0  0  0  0  0  0  # atno 10763 bound_to 10752
  154.0824  135.2872  155.3289 H   0  0  0  0  0  0  0  0  0  0  0  0  # atno 10764 bound_to 10752
  154.6521  135.5422  153.7978 H   0  0  0  0  0  0  0  0  0  0  0  0  # atno 10765 bound_to 10752
  140.2188  134.3666  155.8014 H   0  0  0  0  0  0  0  0  0  0  0  0  # atno 11005 bound_to 11000
  146.0335  140.8234  142.9864 LP  0  0  0  0  0  0  0  0  0  0  0  0  # atno 17320 bound_to 7965
  144.6845  140.2804  143.7293 LP  0  0  0  0  0  0  0  0  0  0  0  0  # atno 17321 bound_to 7965
  140.7721  143.3489  151.2055 LP  0  0  0  0  0  0  0  0  0  0  0  0  # atno 17342 bound_to 10162
  139.7085  143.9415  152.2937 LP  0  0  0  0  0  0  0  0  0  0  0  0  # atno 17343 bound_to 10162
  156.6618  130.8785  151.3548 LP  0  0  0  0  0  0  0  0  0  0  0  0  # atno 17370 bound_to 10713
  157.7094  130.9422  150.1038 LP  0  0  0  0  0  0  0  0  0  0  0  0  # atno 17371 bound_to 10713
  141.2224  133.7182  156.8541 LP  0  0  0  0  0  0  0  0  0  0  0  0  # atno 17394 bound_to 11000
  140.1871  134.8992  157.3017 LP  0  0  0  0  0  0  0  0  0  0  0  0  # atno 17395 bound_to 11000

$$$$
