AV-unprocessed.smi:530|AV-procd|sdf|2844|dock1
  -GOLD-   2262023333D 1   1.00000     0.00000
 Structure written by MMmdl.
 36 38  0  0  0  0  0  0  0  0  2 V2000
  151.8721  138.1819  154.8631 C   0  0  0  0  0  0  0  0  0  0  0  0
  150.6144  138.9186  154.5451 C   0  0  0  0  0  0  0  0  0  0  0  0
  149.5946  138.4639  153.7631 N   0  3  0  0  0  0  0  0  0  0  0  0
  148.5859  139.4263  153.6955 C   0  0  0  0  0  0  0  0  0  0  0  0
  147.3636  139.4220  153.0303 C   0  0  0  0  0  0  0  0  0  0  0  0
  146.5623  140.5743  153.1718 C   0  0  0  0  0  0  0  0  0  0  0  0
  146.9857  141.6727  153.9485 C   0  0  0  0  0  0  0  0  0  0  0  0
  148.2276  141.6658  154.6174 C   0  0  0  0  0  0  0  0  0  0  0  0
  149.0120  140.5219  154.4736 C   0  0  0  0  0  0  0  0  0  0  0  0
  150.2667  140.1642  154.9777 N   0  0  0  0  0  0  0  0  0  0  0  0
  150.9868  141.1088  155.8445 C   0  0  0  0  0  0  0  0  0  0  0  0
  151.1088  140.6174  157.3009 C   0  0  2  0  0  0  0  0  0  0  0  0
  149.8766  140.0679  157.7254 O   0  0  0  0  0  0  0  0  0  0  0  0
  151.5883  141.7305  158.2185 C   0  0  0  0  0  0  0  0  0  0  0  0
  152.0722  141.4226  159.5084 C   0  0  0  0  0  0  0  0  0  0  0  0
  152.5290  142.4482  160.3588 C   0  0  0  0  0  0  0  0  0  0  0  0
  152.5066  143.7871  159.9236 C   0  0  0  0  0  0  0  0  0  0  0  0
  152.0272  144.1002  158.6373 C   0  0  0  0  0  0  0  0  0  0  0  0
  151.5695  143.0752  157.7866 C   0  0  0  0  0  0  0  0  0  0  0  0
  151.8866  137.2140  154.3618 H   0  0  0  0  0  0  0  0  0  0  0  0
  151.9499  138.0173  155.9379 H   0  0  0  0  0  0  0  0  0  0  0  0
  152.7386  138.7555  154.5344 H   0  0  0  0  0  0  0  0  0  0  0  0
  147.0375  138.5820  152.4346 H   0  0  0  0  0  0  0  0  0  0  0  0
  145.6040  140.6163  152.6745 H   0  0  0  0  0  0  0  0  0  0  0  0
  146.3449  142.5384  154.0339 H   0  0  0  0  0  0  0  0  0  0  0  0
  148.5441  142.5117  155.2095 H   0  0  0  0  0  0  0  0  0  0  0  0
  151.9718  141.2869  155.4113 H   0  0  0  0  0  0  0  0  0  0  0  0
  150.4603  142.0633  155.8062 H   0  0  0  0  0  0  0  0  0  0  0  0
  151.8375  139.8071  157.3413 H   0  0  0  0  0  0  0  0  0  0  0  0
  149.4447  140.6976  158.2826 H   0  0  0  0  0  0  0  0  0  0  0  0
  152.0965  140.3984  159.8509 H   0  0  0  0  0  0  0  0  0  0  0  0
  152.8982  142.2077  161.3450 H   0  0  0  0  0  0  0  0  0  0  0  0
  152.8583  144.5731  160.5755 H   0  0  0  0  0  0  0  0  0  0  0  0
  152.0121  145.1268  158.3019 H   0  0  0  0  0  0  0  0  0  0  0  0
  151.2070  143.3239  156.7999 H   0  0  0  0  0  0  0  0  0  0  0  0
  149.5912  137.5593  153.3099 H   0  0  0  0  0  0  0  0  0  0  0  0
  1  2  1  0  0  0  0
  1 20  1  0  0  0  0
  1 21  1  0  0  0  0
  1 22  1  0  0  0  0
  2 10  1  0  0  0  0
  2  3  2  0  0  0  0
  3  4  1  0  0  0  0
  3 36  1  0  0  0  0
  4  9  2  0  0  0  0
  4  5  1  0  0  0  0
  5  6  2  0  0  0  0
  5 23  1  0  0  0  0
  6  7  1  0  0  0  0
  6 24  1  0  0  0  0
  7  8  2  0  0  0  0
  7 25  1  0  0  0  0
  8  9  1  0  0  0  0
  8 26  1  0  0  0  0
  9 10  1  0  0  0  0
 10 11  1  0  0  0  0
 11 12  1  0  0  0  0
 11 27  1  0  0  0  0
 11 28  1  0  0  0  0
 12 13  1  0  0  0  0
 12 14  1  0  0  0  0
 12 29  1  0  0  0  0
 13 30  1  0  0  0  0
 14 19  1  0  0  0  0
 14 15  2  0  0  0  0
 15 16  1  0  0  0  0
 15 31  1  0  0  0  0
 16 17  2  0  0  0  0
 16 32  1  0  0  0  0
 17 18  1  0  0  0  0
 17 33  1  0  0  0  0
 18 19  2  0  0  0  0
 18 34  1  0  0  0  0
 19 35  1  0  0  0  0
M  CHG  1   3   1
M  END
> <s_m_source_file>
AV-unprocessed.smi

> <i_m_source_file_index>
530

> <i_lp_mmshare_version>
43012

> <i_f3d_flags>
0

> <s_epik_input>
W2NIXTFbY0hdW2NIXVtjSF1jKGMxMiluKGMobjIpW0NIM10pW0NIMl1bQ0BIXShbT0hdKWMzW2NIXVtjSF1bY0hdW2NIXVtjSF0z

> <s_epik_cmdline>
J2VwaWtfcHl0aG9uJywgJy1waCcsICc3LjAnLCAnLXRuJywgJzgnLCAnLW1hJywgJzIwMCcsICctbWV0YWxfYmluZGluZycsICctaW1hZScsICc8aW5maWxlLm1hZT4nLCAnLW9tYWUnLCAnPG91dGZpbGUubWFlPic=

> <r_epik_Ionization_Penalty>
0.963869

> <r_epik_Ionization_Penalty_Charging>
0.963868

> <r_epik_Ionization_Penalty_Neutral>
1.34362e-06

> <r_epik_State_Penalty>
1.00924

> <r_epik_Charging_Adjusted_Penalty>
1.9731

> <i_epik_Tot_Q>
1

> <i_epik_Tot_abs_Q>
1

> <r_epik_Metal_State_Penalty>
4.98304

> <b_epik_Metal_Only>
0

> <s_lp_Force_Field>
OPLS_2005

> <r_lp_Energy>
14.7025

> <b_lp_Chiralities_Consistent>
1

> <s_lp_Variant>
AV-unprocessed.smi:530-3

> <Gold.Version>
5.8.1

> <Gold.Id.Protein>
6NUR|6NUR_protein|mol2

> <Gold.PLP.Fitness>
49.6441

> <Gold.PLP.PLP>
-44.5414

> <Gold.PLP.part.hbond>
-1.9497

> <Gold.PLP.part.metal>
0.0000

> <Gold.PLP.part.buried>
2.7236

> <Gold.PLP.part.nonpolar>
-45.5091

> <Gold.PLP.part.repulsive>
0.0595

> <Gold.PLP.ligand.clash>
0.0000

> <Gold.PLP.ligand.torsion>
0.4644

> <Gold.PLP.Chemscore.Hbond>
2.0000

> <Gold.PLP.Chemscore.CHOScore>
0.0000

> <Gold.PLP.Chemscore.Metal>
0.0000

> <Gold.Chemscore.Hbonds>
donor molecule, donor type, donor heavy atom, donor atom, acceptor molecule, acceptor atom, score
      L1  H     3    36       P1  7948  1.98

> <Gold.PLP.Chemscore.Internal.Correction>
0.0315

> <Gold.Rescore>
     Score         DG    S(hbond)    S(metal)    S(lipo)     H(rot)  DE(clash)    DE(int)     intcor
     16.68     -18.43       0.88        0.00     123.97       1.76       1.11       0.63       ----

> <Gold.Chemscore.Fitness>
16.6846

> <Gold.Chemscore.DG>
-18.4261

> <Gold.Chemscore.ZeroCoef>
-5.4800

> <Gold.Chemscore.Hbond>
0.8789

> <Gold.Chemscore.Metal>
0.0000

> <Gold.Chemscore.Lipo>
123.9722

> <Gold.Chemscore.Internal_Hbond>
0.0000

> <Gold.Chemscore.DEClash>
1.1109

> <Gold.Chemscore.DEInternal>
0.6306

> <Gold.Chemscore.Rot>
1.7555

> <Gold.Chemscore.Internal.Correction>
   9.000000E+99

> <Gold.Chemscore.Hbonds>
donor molecule, donor type, donor heavy atom, donor atom, acceptor molecule, acceptor atom, score
      L1  H     3    36       P1  7948  0.77

> <Gold.Chemscore.Hbond.Weighted>
-2.9355

> <Gold.Chemscore.Metal.Weighted>
-0.0000

> <Gold.Chemscore.Lipo.Weighted>
-14.5047

> <Gold.Chemscore.Internal_Hbond.Weighted>
0.0000

> <Gold.Chemscore.DEClash.Weighted>
1.1109

> <Gold.Chemscore.DEInternal.Weighted>
0.6306

> <Gold.Chemscore.Rot.Weighted>
4.4942

> <Gold.Chemscore.Internal.Correction.Weighted>
   9.000000E+99

> <Gold.Protein.RotatedTorsions>
[ 6907 6896 6895 6894 ] final  -54.86 input  -60.11 | X-H torsion
[ 7974 7965 7964 7962 ] final  154.32 input  175.53 | X-H torsion
[ 8008 7997 7996 7995 ] final  -36.73 input   59.86 | X-H torsion
[ 10167 10162 10161 10158 ] final   50.20 input  -65.29 | X-H torsion
[ 10718 10713 10712 10709 ] final -179.29 input   66.30 | X-H torsion
[ 10763 10752 10751 10750 ] final  104.61 input  -60.55 | X-H torsion
[ 11005 11000 10999 10996 ] final  -41.56 input  -57.11 | X-H torsion

> <Gold.Protein.ActiveResidues>
 VAL166  LYS551  ARG553  GLY616  TRP617  ASP618  TYR619  PRO620  LYS621  CYS622 
 ASP623  PHE694  ASN695  SER759  ASP760  ASP761  ALA762  ILE779  LEU786  VAL792 
 PHE793  MET794  SER795  GLU796  ALA797  LYS798  CYS799  TRP800  GLU811  SER814 

> <Gold.Protein.RotatedAtoms>
  150.8301  134.7550  159.6846 H   0  0  0  0  0  0  0  0  0  0  0  0  # atno 6907 bound_to 6896
  152.4407  134.5594  159.9899 H   0  0  0  0  0  0  0  0  0  0  0  0  # atno 6908 bound_to 6896
  151.5757  133.3346  159.3034 H   0  0  0  0  0  0  0  0  0  0  0  0  # atno 6909 bound_to 6896
  144.8096  139.6918  143.6147 H   0  0  0  0  0  0  0  0  0  0  0  0  # atno 7974 bound_to 7965
  154.4067  140.1623  156.2421 H   0  0  0  0  0  0  0  0  0  0  0  0  # atno 8008 bound_to 7997
  155.9192  140.3422  155.6136 H   0  0  0  0  0  0  0  0  0  0  0  0  # atno 8009 bound_to 7997
  155.7243  140.0772  157.2307 H   0  0  0  0  0  0  0  0  0  0  0  0  # atno 8010 bound_to 7997
  140.2750  144.3222  150.6279 H   0  0  0  0  0  0  0  0  0  0  0  0  # atno 10167 bound_to 10162
  156.8569  130.9738  151.3087 H   0  0  0  0  0  0  0  0  0  0  0  0  # atno 10718 bound_to 10713
  153.3683  135.3937  155.1770 H   0  0  0  0  0  0  0  0  0  0  0  0  # atno 10763 bound_to 10752
  154.8690  135.3696  154.5010 H   0  0  0  0  0  0  0  0  0  0  0  0  # atno 10764 bound_to 10752
  153.5476  135.7083  153.5667 H   0  0  0  0  0  0  0  0  0  0  0  0  # atno 10765 bound_to 10752
  141.0255  133.6843  156.2475 H   0  0  0  0  0  0  0  0  0  0  0  0  # atno 11005 bound_to 11000
  146.2393  139.5968  142.9502 LP  0  0  0  0  0  0  0  0  0  0  0  0  # atno 17320 bound_to 7965
  145.5355  141.0424  143.2359 LP  0  0  0  0  0  0  0  0  0  0  0  0  # atno 17321 bound_to 7965
  140.5859  143.2170  151.7343 LP  0  0  0  0  0  0  0  0  0  0  0  0  # atno 17342 bound_to 10162
  139.4978  144.4012  152.0180 LP  0  0  0  0  0  0  0  0  0  0  0  0  # atno 17343 bound_to 10162
  157.6272  130.8700  149.9210 LP  0  0  0  0  0  0  0  0  0  0  0  0  # atno 17370 bound_to 10713
  156.0797  130.3674  150.0605 LP  0  0  0  0  0  0  0  0  0  0  0  0  # atno 17371 bound_to 10713
  140.6499  134.5078  157.5576 LP  0  0  0  0  0  0  0  0  0  0  0  0  # atno 17394 bound_to 11000
  139.9173  134.8220  156.1325 LP  0  0  0  0  0  0  0  0  0  0  0  0  # atno 17395 bound_to 11000

$$$$
