AV-unprocessed.smi:2177|AV-procd|sdf|8849|dock4
  -GOLD-   2272012 43D 1   1.00000     0.00000
 Structure written by MMmdl.
 42 43  0  0  0  0  0  0  0  0  1 V2000
  147.8775  144.8553  160.4661 C   0  0  0  0  0  0  0  0  0  0  0  0
  146.5291  144.2026  160.5750 C   0  0  0  0  0  0  0  0  0  0  0  0
  145.8613  144.2743  161.7144 N   0  0  0  0  0  0  0  0  0  0  0  0
  144.7195  143.5947  161.4874 N   0  0  0  0  0  0  0  0  0  0  0  0
  143.7431  143.4747  162.5526 C   0  0  0  0  0  0  0  0  0  0  0  0
  144.6622  143.0988  160.1992 C   0  0  0  0  0  0  0  0  0  0  0  0
  143.4964  142.3057  159.7024 C   0  0  0  0  0  0  0  0  0  0  0  0
  145.8229  143.4721  159.5750 C   0  0  0  0  0  0  0  0  0  0  0  0
  146.2757  143.1845  158.1652 C   0  0  0  0  0  0  0  0  0  0  0  0
  147.4825  142.2463  158.1894 C   0  0  0  0  0  0  0  0  0  0  0  0
  147.3425  141.0738  158.5360 O   0  0  0  0  0  0  0  0  0  0  0  0
  148.6583  142.7782  157.8185 N   0  0  0  0  0  0  0  0  0  0  0  0
  149.9326  142.0696  157.7422 C   0  0  1  0  0  0  0  0  0  0  0  0
  150.4108  142.0904  156.2824 C   0  0  0  0  0  0  0  0  0  0  0  0
  150.9511  142.7180  158.7019 C   0  0  2  0  0  0  0  0  0  0  0  0
  151.3527  144.1484  158.3379 C   0  0  0  0  0  0  0  0  0  0  0  0
  152.7285  144.3080  158.9658 C   0  0  0  0  0  0  0  0  0  0  0  0
  153.1624  142.8749  159.2837 C   0  0  0  0  0  0  0  0  0  0  0  0
  152.2008  142.0468  158.6462 O   0  0  0  0  0  0  0  0  0  0  0  0
  148.6246  144.1468  160.1077 H   0  0  0  0  0  0  0  0  0  0  0  0
  148.2214  145.2394  161.4270 H   0  0  0  0  0  0  0  0  0  0  0  0
  147.8497  145.6900  159.7657 H   0  0  0  0  0  0  0  0  0  0  0  0
  142.9159  144.1601  162.3679 H   0  0  0  0  0  0  0  0  0  0  0  0
  144.1950  143.7142  163.5161 H   0  0  0  0  0  0  0  0  0  0  0  0
  143.3603  142.4547  162.5917 H   0  0  0  0  0  0  0  0  0  0  0  0
  143.5552  142.1446  158.6265 H   0  0  0  0  0  0  0  0  0  0  0  0
  142.5581  142.8199  159.9102 H   0  0  0  0  0  0  0  0  0  0  0  0
  143.4623  141.3287  160.1845 H   0  0  0  0  0  0  0  0  0  0  0  0
  145.4838  142.7293  157.5700 H   0  0  0  0  0  0  0  0  0  0  0  0
  146.5490  144.1029  157.6445 H   0  0  0  0  0  0  0  0  0  0  0  0
  148.6672  143.7522  157.5537 H   0  0  0  0  0  0  0  0  0  0  0  0
  149.7918  141.0260  158.0295 H   0  0  0  0  0  0  0  0  0  0  0  0
  151.3330  141.5232  156.1567 H   0  0  0  0  0  0  0  0  0  0  0  0
  150.5967  143.1088  155.9395 H   0  0  0  0  0  0  0  0  0  0  0  0
  149.6657  141.6476  155.6207 H   0  0  0  0  0  0  0  0  0  0  0  0
  150.5810  142.6871  159.7288 H   0  0  0  0  0  0  0  0  0  0  0  0
  151.4344  144.2523  157.2553 H   0  0  0  0  0  0  0  0  0  0  0  0
  150.6377  144.8903  158.6937 H   0  0  0  0  0  0  0  0  0  0  0  0
  153.4174  144.7957  158.2756 H   0  0  0  0  0  0  0  0  0  0  0  0
  152.6857  144.9063  159.8764 H   0  0  0  0  0  0  0  0  0  0  0  0
  154.1686  142.6521  158.9280 H   0  0  0  0  0  0  0  0  0  0  0  0
  153.1337  142.6952  160.3591 H   0  0  0  0  0  0  0  0  0  0  0  0
  1  2  1  0  0  0  0
  1 20  1  0  0  0  0
  1 21  1  0  0  0  0
  1 22  1  0  0  0  0
  2  8  1  0  0  0  0
  2  3  2  0  0  0  0
  3  4  1  0  0  0  0
  4  5  1  0  0  0  0
  4  6  1  0  0  0  0
  5 23  1  0  0  0  0
  5 24  1  0  0  0  0
  5 25  1  0  0  0  0
  6  7  1  0  0  0  0
  6  8  2  0  0  0  0
  7 26  1  0  0  0  0
  7 27  1  0  0  0  0
  7 28  1  0  0  0  0
  8  9  1  0  0  0  0
  9 10  1  0  0  0  0
  9 29  1  0  0  0  0
  9 30  1  0  0  0  0
 10 11  2  0  0  0  0
 10 12  1  0  0  0  0
 12 13  1  0  0  0  0
 12 31  1  0  0  0  0
 13 14  1  0  0  0  0
 13 15  1  0  0  0  0
 13 32  1  0  0  0  0
 14 33  1  0  0  0  0
 14 34  1  0  0  0  0
 14 35  1  0  0  0  0
 15 19  1  0  0  0  0
 15 16  1  0  0  0  0
 15 36  1  0  0  0  0
 16 17  1  0  0  0  0
 16 37  1  0  0  0  0
 16 38  1  0  0  0  0
 17 18  1  0  0  0  0
 17 39  1  0  0  0  0
 17 40  1  0  0  0  0
 18 19  1  0  0  0  0
 18 41  1  0  0  0  0
 18 42  1  0  0  0  0
M  END
> <s_m_source_file>
AV-unprocessed.smi

> <i_m_source_file_index>
2177

> <i_lp_mmshare_version>
43012

> <i_f3d_flags>
0

> <s_epik_input>
W0NIM11jMW5uKFtDSDNdKWMoW0NIM10pYzFbQ0gyXUMoPU8pW05IXVtDQEhdKFtDSDNdKVtDQEBIXTJbQ0gyXVtDSDJdW0NIMl1PMg==

> <s_epik_cmdline>
J2VwaWtfcHl0aG9uJywgJy1waCcsICc3LjAnLCAnLXRuJywgJzgnLCAnLW1hJywgJzIwMCcsICctbWV0YWxfYmluZGluZycsICctaW1hZScsICc8aW5maWxlLm1hZT4nLCAnLW9tYWUnLCAnPG91dGZpbGUubWFlPic=

> <r_lp_tautomer_probability>
1

> <r_epik_Ionization_Penalty>
0.00310467

> <r_epik_Ionization_Penalty_Charging>
0

> <r_epik_Ionization_Penalty_Neutral>
0.00310467

> <r_epik_State_Penalty>
0.00218493

> <r_epik_Charging_Adjusted_Penalty>
0.00218493

> <i_epik_Tot_Q>
0

> <i_epik_Tot_abs_Q>
0

> <r_epik_Metal_State_Penalty>
-0

> <b_epik_Metal_Only>
0

> <s_lp_Force_Field>
OPLS_2005

> <r_lp_Energy>
13.1065

> <b_lp_Chiralities_Consistent>
1

> <s_lp_Variant>
AV-unprocessed.smi:2177-2

> <Gold.Version>
5.8.1

> <Gold.Id.Protein>
6NUR|6NUR_protein|mol2

> <Gold.PLP.Fitness>
38.3301

> <Gold.PLP.PLP>
-37.2021

> <Gold.PLP.part.hbond>
-2.8112

> <Gold.PLP.part.metal>
0.0000

> <Gold.PLP.part.buried>
-5.1678

> <Gold.PLP.part.nonpolar>
-29.5481

> <Gold.PLP.part.repulsive>
0.1771

> <Gold.PLP.ligand.clash>
0.0000

> <Gold.PLP.ligand.torsion>
0.1548

> <Gold.PLP.Chemscore.Hbond>
0.4710

> <Gold.PLP.Chemscore.CHOScore>
0.0000

> <Gold.PLP.Chemscore.Metal>
0.0000

> <Gold.Chemscore.Hbonds>
donor molecule, donor type, donor heavy atom, donor atom, acceptor molecule, acceptor atom, score
      L1  H    12    31       P1  8028  0.27
      P1  H  6934  6946       L1    11  0.10

> <Gold.PLP.Chemscore.Internal.Correction>
0.0247

> <Gold.Rescore>
     Score         DG    S(hbond)    S(metal)    S(lipo)     H(rot)  DE(clash)    DE(int)     intcor
     12.81     -12.93       0.27        0.00      87.83       1.46       0.03       0.09       ----

> <Gold.Chemscore.Fitness>
12.8141

> <Gold.Chemscore.DG>
-12.9293

> <Gold.Chemscore.ZeroCoef>
-5.4800

> <Gold.Chemscore.Hbond>
0.2747

> <Gold.Chemscore.Metal>
0.0000

> <Gold.Chemscore.Lipo>
87.8318

> <Gold.Chemscore.Internal_Hbond>
0.0000

> <Gold.Chemscore.DEClash>
0.0285

> <Gold.Chemscore.DEInternal>
0.0867

> <Gold.Chemscore.Rot>
1.4627

> <Gold.Chemscore.Internal.Correction>
   9.000000E+99

> <Gold.Chemscore.Hbonds>
donor molecule, donor type, donor heavy atom, donor atom, acceptor molecule, acceptor atom, score
      L1  H    12    31       P1  8028  0.01
      P1  H  6934  6946       L1    11  0.09

> <Gold.Chemscore.Hbond.Weighted>
-0.9174

> <Gold.Chemscore.Metal.Weighted>
-0.0000

> <Gold.Chemscore.Lipo.Weighted>
-10.2763

> <Gold.Chemscore.Internal_Hbond.Weighted>
0.0000

> <Gold.Chemscore.DEClash.Weighted>
0.0285

> <Gold.Chemscore.DEInternal.Weighted>
0.0867

> <Gold.Chemscore.Rot.Weighted>
3.7445

> <Gold.Chemscore.Internal.Correction.Weighted>
   9.000000E+99

> <Gold.Protein.RotatedTorsions>
[ 6907 6896 6895 6894 ] final -176.14 input  -60.11 | X-H torsion
[ 7974 7965 7964 7962 ] final  163.68 input  175.53 | X-H torsion
[ 8008 7997 7996 7995 ] final   88.43 input   59.86 | X-H torsion
[ 10167 10162 10161 10158 ] final  -74.21 input  -65.29 | X-H torsion
[ 10718 10713 10712 10709 ] final   71.28 input   66.30 | X-H torsion
[ 10763 10752 10751 10750 ] final -163.36 input  -60.55 | X-H torsion
[ 11005 11000 10999 10996 ] final -176.20 input  -57.11 | X-H torsion

> <Gold.Protein.ActiveResidues>
 VAL166  LYS551  ARG553  GLY616  TRP617  ASP618  TYR619  PRO620  LYS621  CYS622 
 ASP623  PHE694  ASN695  SER759  ASP760  ASP761  ALA762  ILE779  LEU786  VAL792 
 PHE793  MET794  SER795  GLU796  ALA797  LYS798  CYS799  TRP800  GLU811  SER814 

> <Gold.Protein.RotatedAtoms>
  151.5999  133.3357  159.3044 H   0  0  0  0  0  0  0  0  0  0  0  0  # atno 6907 bound_to 6896
  150.8213  134.7426  159.6786 H   0  0  0  0  0  0  0  0  0  0  0  0  # atno 6908 bound_to 6896
  152.4307  134.5789  159.9994 H   0  0  0  0  0  0  0  0  0  0  0  0  # atno 6909 bound_to 6896
  144.7579  139.8218  143.6343 H   0  0  0  0  0  0  0  0  0  0  0  0  # atno 7974 bound_to 7965
  155.9877  140.3371  155.6723 H   0  0  0  0  0  0  0  0  0  0  0  0  # atno 8008 bound_to 7997
  155.6463  140.0700  157.2620 H   0  0  0  0  0  0  0  0  0  0  0  0  # atno 8009 bound_to 7997
  154.4210  140.1733  156.1614 H   0  0  0  0  0  0  0  0  0  0  0  0  # atno 8010 bound_to 7997
  140.5046  143.2355  151.7695 H   0  0  0  0  0  0  0  0  0  0  0  0  # atno 10167 bound_to 10162
  157.6444  130.9520  150.0768 H   0  0  0  0  0  0  0  0  0  0  0  0  # atno 10718 bound_to 10713
  154.7130  135.3010  154.9168 H   0  0  0  0  0  0  0  0  0  0  0  0  # atno 10763 bound_to 10752
  154.0063  135.6700  153.4766 H   0  0  0  0  0  0  0  0  0  0  0  0  # atno 10764 bound_to 10752
  153.0770  135.5029  154.8339 H   0  0  0  0  0  0  0  0  0  0  0  0  # atno 10765 bound_to 10752
  140.4548  134.6310  157.4817 H   0  0  0  0  0  0  0  0  0  0  0  0  # atno 11005 bound_to 11000
  146.1609  139.4723  142.9989 LP  0  0  0  0  0  0  0  0  0  0  0  0  # atno 17320 bound_to 7965
  145.6718  141.0214  143.1653 LP  0  0  0  0  0  0  0  0  0  0  0  0  # atno 17321 bound_to 7965
  139.4880  144.4475  151.9693 LP  0  0  0  0  0  0  0  0  0  0  0  0  # atno 17342 bound_to 10162
  140.3565  144.3025  150.5940 LP  0  0  0  0  0  0  0  0  0  0  0  0  # atno 17343 bound_to 10162
  156.1756  130.3648  149.9105 LP  0  0  0  0  0  0  0  0  0  0  0  0  # atno 17370 bound_to 10713
  156.7070  130.8955  151.3605 LP  0  0  0  0  0  0  0  0  0  0  0  0  # atno 17371 bound_to 10713
  139.9983  134.6876  155.9572 LP  0  0  0  0  0  0  0  0  0  0  0  0  # atno 17394 bound_to 11000
  141.1648  133.6537  156.4441 LP  0  0  0  0  0  0  0  0  0  0  0  0  # atno 17395 bound_to 11000

$$$$
