AV-unprocessed.smi:3004|AV-procd|sdf|11440|dock1
  -GOLD-   2272016373D 1   1.00000     0.00000
 Structure written by MMmdl.
 47 48  0  0  0  0  0  0  0  0  2 V2000
  147.7038  131.8720  161.7270 C   0  0  0  0  0  0  0  0  0  0  0  0
  147.6193  133.3647  161.6042 C   0  0  0  0  0  0  0  0  0  0  0  0
  147.3660  134.3211  162.6269 C   0  0  0  0  0  0  0  0  0  0  0  0
  147.3912  135.5238  161.9788 C   0  0  0  0  0  0  0  0  0  0  0  0
  147.1941  136.9069  162.5066 C   0  0  0  0  0  0  0  0  0  0  0  0
  147.6492  135.2557  160.6459 N   0  0  0  0  0  0  0  0  0  0  0  0
  147.7835  136.1821  159.5313 C   0  0  0  0  0  0  0  0  0  0  0  0
  148.1011  135.4493  158.2262 C   0  0  0  0  0  0  0  0  0  0  0  0
  148.9704  134.5781  158.2052 O   0  0  0  0  0  0  0  0  0  0  0  0
  147.3911  135.8070  157.1445 N   0  0  0  0  0  0  0  0  0  0  0  0
  147.5269  135.2133  155.8207 C   0  0  0  0  0  0  0  0  0  0  0  0
  146.6359  135.9325  154.7881 C   0  0  0  0  0  0  0  0  0  0  0  0
  146.5949  135.2506  153.4661 N   0  3  1  0  0  0  0  0  0  0  0  0
  146.7608  133.7770  153.5941 C   0  0  0  0  0  0  0  0  0  0  0  0
  146.9415  133.1106  152.2211 C   0  0  0  0  0  0  0  0  0  0  0  0
  145.7747  133.4484  151.2870 C   0  0  0  0  0  0  0  0  0  0  0  0
  145.6124  134.9713  151.1864 C   0  0  0  0  0  0  0  0  0  0  0  0
  145.4574  135.6355  152.5716 C   0  0  1  0  0  0  0  0  0  0  0  0
  144.0672  135.3741  153.1903 C   0  0  0  0  0  0  0  0  0  0  0  0
  147.7908  133.9309  160.4212 N   0  0  0  0  0  0  0  0  0  0  0  0
  147.6651  131.5593  162.7708 H   0  0  0  0  0  0  0  0  0  0  0  0
  148.6336  131.4933  161.3023 H   0  0  0  0  0  0  0  0  0  0  0  0
  146.8770  131.3891  161.2056 H   0  0  0  0  0  0  0  0  0  0  0  0
  147.1896  134.1492  163.6786 H   0  0  0  0  0  0  0  0  0  0  0  0
  147.0048  136.8906  163.5801 H   0  0  0  0  0  0  0  0  0  0  0  0
  146.3445  137.3901  162.0239 H   0  0  0  0  0  0  0  0  0  0  0  0
  148.0785  137.5197  162.3326 H   0  0  0  0  0  0  0  0  0  0  0  0
  146.8605  136.7527  159.4157 H   0  0  0  0  0  0  0  0  0  0  0  0
  148.5724  136.8991  159.7619 H   0  0  0  0  0  0  0  0  0  0  0  0
  146.6977  136.5335  157.2546 H   0  0  0  0  0  0  0  0  0  0  0  0
  148.5788  135.2926  155.5491 H   0  0  0  0  0  0  0  0  0  0  0  0
  147.2895  134.1488  155.8612 H   0  0  0  0  0  0  0  0  0  0  0  0
  145.6181  135.9646  155.1794 H   0  0  0  0  0  0  0  0  0  0  0  0
  146.9412  136.9726  154.6726 H   0  0  0  0  0  0  0  0  0  0  0  0
  147.6373  133.5590  154.2054 H   0  0  0  0  0  0  0  0  0  0  0  0
  145.9059  133.3469  154.1170 H   0  0  0  0  0  0  0  0  0  0  0  0
  147.8781  133.4451  151.7726 H   0  0  0  0  0  0  0  0  0  0  0  0
  147.0239  132.0297  152.3388 H   0  0  0  0  0  0  0  0  0  0  0  0
  145.9509  133.0239  150.2981 H   0  0  0  0  0  0  0  0  0  0  0  0
  144.8555  132.9948  151.6592 H   0  0  0  0  0  0  0  0  0  0  0  0
  146.4886  135.3877  150.6866 H   0  0  0  0  0  0  0  0  0  0  0  0
  144.7603  135.2148  150.5507 H   0  0  0  0  0  0  0  0  0  0  0  0
  145.5259  136.7073  152.3895 H   0  0  0  0  0  0  0  0  0  0  0  0
  143.2779  135.6513  152.4909 H   0  0  0  0  0  0  0  0  0  0  0  0
  143.9063  135.9653  154.0914 H   0  0  0  0  0  0  0  0  0  0  0  0
  143.9175  134.3259  153.4477 H   0  0  0  0  0  0  0  0  0  0  0  0
  147.4268  135.5628  152.9856 H   0  0  0  0  0  0  0  0  0  0  0  0
  1  2  1  0  0  0  0
  1 21  1  0  0  0  0
  1 22  1  0  0  0  0
  1 23  1  0  0  0  0
  2 20  2  0  0  0  0
  2  3  1  0  0  0  0
  3  4  2  0  0  0  0
  3 24  1  0  0  0  0
  4  5  1  0  0  0  0
  4  6  1  0  0  0  0
  5 25  1  0  0  0  0
  5 26  1  0  0  0  0
  5 27  1  0  0  0  0
  6  7  1  0  0  0  0
  6 20  1  0  0  0  0
  7  8  1  0  0  0  0
  7 28  1  0  0  0  0
  7 29  1  0  0  0  0
  8  9  2  0  0  0  0
  8 10  1  0  0  0  0
 10 11  1  0  0  0  0
 10 30  1  0  0  0  0
 11 12  1  0  0  0  0
 11 31  1  0  0  0  0
 11 32  1  0  0  0  0
 12 13  1  0  0  0  0
 12 33  1  0  0  0  0
 12 34  1  0  0  0  0
 13 18  1  0  0  0  0
 13 14  1  0  0  0  0
 13 47  1  0  0  0  0
 14 15  1  0  0  0  0
 14 35  1  0  0  0  0
 14 36  1  0  0  0  0
 15 16  1  0  0  0  0
 15 37  1  0  0  0  0
 15 38  1  0  0  0  0
 16 17  1  0  0  0  0
 16 39  1  0  0  0  0
 16 40  1  0  0  0  0
 17 18  1  0  0  0  0
 17 41  1  0  0  0  0
 17 42  1  0  0  0  0
 18 19  1  0  0  0  0
 18 43  1  0  0  0  0
 19 44  1  0  0  0  0
 19 45  1  0  0  0  0
 19 46  1  0  0  0  0
M  CHG  1  13   1
M  END
> <s_m_source_file>
AV-unprocessed.smi

> <i_m_source_file_index>
3004

> <i_lp_mmshare_version>
43012

> <i_f3d_flags>
0

> <s_epik_input>
W0NIM11jMVtjSF1jKFtDSDNdKW4objEpW0NIMl1DKD1PKVtOSF1bQ0gyXVtDSDJdTjJbQ0gyXVtDSDJdW0NIMl1bQ0gyXVtDQEhdMltDSDNd

> <s_epik_cmdline>
J2VwaWtfcHl0aG9uJywgJy1waCcsICc3LjAnLCAnLXRuJywgJzgnLCAnLW1hJywgJzIwMCcsICctbWV0YWxfYmluZGluZycsICctaW1hZScsICc8aW5maWxlLm1hZT4nLCAnLW9tYWUnLCAnPG91dGZpbGUubWFlPic=

> <r_lp_tautomer_probability>
1

> <r_epik_Ionization_Penalty>
0.00303644

> <r_epik_Ionization_Penalty_Charging>
0.00284254

> <r_epik_Ionization_Penalty_Neutral>
0.000193908

> <r_epik_State_Penalty>
-0

> <r_epik_Charging_Adjusted_Penalty>
0.00284254

> <i_epik_Tot_Q>
1

> <i_epik_Tot_abs_Q>
1

> <r_epik_Metal_State_Penalty>
-0

> <b_epik_Metal_Only>
0

> <s_lp_Force_Field>
OPLS_2005

> <r_lp_Energy>
17.9546

> <b_lp_Chiralities_Consistent>
1

> <s_lp_Variant>
AV-unprocessed.smi:3004-2

> <Gold.Version>
5.8.1

> <Gold.Id.Protein>
6NUR|6NUR_protein|mol2

> <Gold.PLP.Fitness>
41.9373

> <Gold.PLP.PLP>
-33.7204

> <Gold.PLP.part.hbond>
-2.0000

> <Gold.PLP.part.metal>
0.0000

> <Gold.PLP.part.buried>
-4.6946

> <Gold.PLP.part.nonpolar>
-26.9124

> <Gold.PLP.part.repulsive>
0.0000

> <Gold.PLP.ligand.clash>
0.0000

> <Gold.PLP.ligand.torsion>
0.4473

> <Gold.PLP.Chemscore.Hbond>
3.0000

> <Gold.PLP.Chemscore.CHOScore>
0.0000

> <Gold.PLP.Chemscore.Metal>
0.0000

> <Gold.Chemscore.Hbonds>
donor molecule, donor type, donor heavy atom, donor atom, acceptor molecule, acceptor atom, score
      L1  H    13    47       P1  7948  2.00
      P1  H  6896  6909       L1     9  0.86

> <Gold.PLP.Chemscore.Internal.Correction>
0.1116

> <Gold.Rescore>
     Score         DG    S(hbond)    S(metal)    S(lipo)     H(rot)  DE(clash)    DE(int)     intcor
     14.79     -16.82       2.00        0.00      76.34       1.67       0.00       2.03       ----

> <Gold.Chemscore.Fitness>
14.7875

> <Gold.Chemscore.DG>
-16.8153

> <Gold.Chemscore.ZeroCoef>
-5.4800

> <Gold.Chemscore.Hbond>
1.9962

> <Gold.Chemscore.Metal>
0.0000

> <Gold.Chemscore.Lipo>
76.3438

> <Gold.Chemscore.Internal_Hbond>
0.0000

> <Gold.Chemscore.DEClash>
0.0000

> <Gold.Chemscore.DEInternal>
2.0279

> <Gold.Chemscore.Rot>
1.6657

> <Gold.Chemscore.Internal.Correction>
   9.000000E+99

> <Gold.Chemscore.Hbonds>
donor molecule, donor type, donor heavy atom, donor atom, acceptor molecule, acceptor atom, score
      L1  H    13    47       P1  7948  0.96
      P1  H  6896  6909       L1     9  0.84

> <Gold.Chemscore.Hbond.Weighted>
-6.6672

> <Gold.Chemscore.Metal.Weighted>
-0.0000

> <Gold.Chemscore.Lipo.Weighted>
-8.9322

> <Gold.Chemscore.Internal_Hbond.Weighted>
0.0000

> <Gold.Chemscore.DEClash.Weighted>
0.0000

> <Gold.Chemscore.DEInternal.Weighted>
2.0279

> <Gold.Chemscore.Rot.Weighted>
4.2641

> <Gold.Chemscore.Internal.Correction.Weighted>
   9.000000E+99

> <Gold.Protein.RotatedTorsions>
[ 6907 6896 6895 6894 ] final   22.77 input  -60.11 | X-H torsion
[ 7974 7965 7964 7962 ] final  -95.21 input  175.53 | X-H torsion
[ 8008 7997 7996 7995 ] final  -93.35 input   59.86 | X-H torsion
[ 10167 10162 10161 10158 ] final -156.88 input  -65.29 | X-H torsion
[ 10718 10713 10712 10709 ] final   43.05 input   66.30 | X-H torsion
[ 10763 10752 10751 10750 ] final   41.22 input  -60.55 | X-H torsion
[ 11005 11000 10999 10996 ] final   23.45 input  -57.11 | X-H torsion

> <Gold.Protein.ActiveResidues>
 VAL166  LYS551  ARG553  GLY616  TRP617  ASP618  TYR619  PRO620  LYS621  CYS622 
 ASP623  PHE694  ASN695  SER759  ASP760  ASP761  ALA762  ILE779  LEU786  VAL792 
 PHE793  MET794  SER795  GLU796  ALA797  LYS798  CYS799  TRP800  GLU811  SER814 

> <Gold.Protein.RotatedAtoms>
  151.9323  135.0251  160.0529 H   0  0  0  0  0  0  0  0  0  0  0  0  # atno 6907 bound_to 6896
  152.2108  133.4905  159.5117 H   0  0  0  0  0  0  0  0  0  0  0  0  # atno 6908 bound_to 6896
  150.6976  134.1386  159.4139 H   0  0  0  0  0  0  0  0  0  0  0  0  # atno 6909 bound_to 6896
  145.3631  140.9494  143.2489 H   0  0  0  0  0  0  0  0  0  0  0  0  # atno 7974 bound_to 7965
  154.7345  140.0500  157.0756 H   0  0  0  0  0  0  0  0  0  0  0  0  # atno 8008 bound_to 7997
  155.0258  140.3152  155.4757 H   0  0  0  0  0  0  0  0  0  0  0  0  # atno 8009 bound_to 7997
  156.2849  140.2159  156.5378 H   0  0  0  0  0  0  0  0  0  0  0  0  # atno 8010 bound_to 7997
  139.6815  143.9574  152.2339 H   0  0  0  0  0  0  0  0  0  0  0  0  # atno 10167 bound_to 10162
  157.4116  130.7917  149.7435 H   0  0  0  0  0  0  0  0  0  0  0  0  # atno 10718 bound_to 10713
  152.9914  135.6168  154.2753 H   0  0  0  0  0  0  0  0  0  0  0  0  # atno 10763 bound_to 10752
  154.2484  135.2786  155.2828 H   0  0  0  0  0  0  0  0  0  0  0  0  # atno 10764 bound_to 10752
  154.5309  135.5788  153.6816 H   0  0  0  0  0  0  0  0  0  0  0  0  # atno 10765 bound_to 10752
  140.3695  134.2038  155.7667 H   0  0  0  0  0  0  0  0  0  0  0  0  # atno 11005 bound_to 11000
  144.8632  139.5147  143.6802 LP  0  0  0  0  0  0  0  0  0  0  0  0  # atno 17320 bound_to 7965
  146.2918  139.7163  142.9155 LP  0  0  0  0  0  0  0  0  0  0  0  0  # atno 17321 bound_to 7965
  139.9365  144.6709  150.8310 LP  0  0  0  0  0  0  0  0  0  0  0  0  # atno 17342 bound_to 10162
  140.7653  143.3273  151.2487 LP  0  0  0  0  0  0  0  0  0  0  0  0  # atno 17343 bound_to 10162
  155.9852  130.3985  150.3272 LP  0  0  0  0  0  0  0  0  0  0  0  0  # atno 17370 bound_to 10713
  157.1411  131.0296  151.2927 LP  0  0  0  0  0  0  0  0  0  0  0  0  # atno 17371 bound_to 10713
  141.1959  133.8095  157.0695 LP  0  0  0  0  0  0  0  0  0  0  0  0  # atno 17394 bound_to 11000
  140.0563  134.9779  157.1226 LP  0  0  0  0  0  0  0  0  0  0  0  0  # atno 17395 bound_to 11000

$$$$
