AV-unprocessed.smi:1919|AV-procd|sdf|7773|dock8
  -GOLD-   22720 9513D 1   1.00000     0.00000
 Structure written by MMmdl.
 36 38  0  0  0  0  0  0  0  0  1 V2000
  153.1838  139.2428  155.1687 O   0  0  0  0  0  0  0  0  0  0  0  0
  152.0189  138.5779  155.6067 C   0  0  0  0  0  0  0  0  0  0  0  0
  150.7606  139.1626  155.0396 C   0  0  0  0  0  0  0  0  0  0  0  0
  149.9549  138.4520  154.2492 N   0  0  0  0  0  0  0  0  0  0  0  0
  148.9295  139.3375  153.9829 C   0  0  0  0  0  0  0  0  0  0  0  0
  147.7607  139.1819  153.2036 C   0  0  0  0  0  0  0  0  0  0  0  0
  146.8364  140.2403  153.0838 C   0  0  0  0  0  0  0  0  0  0  0  0
  147.0665  141.4666  153.7404 C   0  0  0  0  0  0  0  0  0  0  0  0
  148.2257  141.6430  154.5200 C   0  0  0  0  0  0  0  0  0  0  0  0
  149.1473  140.5844  154.6336 C   0  0  0  0  0  0  0  0  0  0  0  0
  150.3598  140.4341  155.2998 N   0  0  0  0  0  0  0  0  0  0  0  0
  151.0160  141.4518  156.1122 C   0  0  0  0  0  0  0  0  0  0  0  0
  150.2918  141.7075  157.4502 C   0  0  2  0  0  0  0  0  0  0  0  0
  149.1671  142.5397  157.2443 O   0  0  0  0  0  0  0  0  0  0  0  0
  151.2464  142.2697  158.4916 C   0  0  0  0  0  0  0  0  0  0  0  0
  152.2149  141.4441  159.1045 C   0  0  0  0  0  0  0  0  0  0  0  0
  153.0858  141.9735  160.0769 C   0  0  0  0  0  0  0  0  0  0  0  0
  152.9914  143.3296  160.4440 C   0  0  0  0  0  0  0  0  0  0  0  0
  152.0243  144.1558  159.8400 C   0  0  0  0  0  0  0  0  0  0  0  0
  151.9295  145.4585  160.1958 F   0  0  0  0  0  0  0  0  0  0  0  0
  151.1539  143.6270  158.8673 C   0  0  0  0  0  0  0  0  0  0  0  0
  152.9766  139.7255  154.3835 H   0  0  0  0  0  0  0  0  0  0  0  0
  152.0918  137.5297  155.3143 H   0  0  0  0  0  0  0  0  0  0  0  0
  151.9735  138.5920  156.6955 H   0  0  0  0  0  0  0  0  0  0  0  0
  147.5742  138.2457  152.6986 H   0  0  0  0  0  0  0  0  0  0  0  0
  145.9456  140.1097  152.4871 H   0  0  0  0  0  0  0  0  0  0  0  0
  146.3526  142.2715  153.6454 H   0  0  0  0  0  0  0  0  0  0  0  0
  148.4034  142.5805  155.0252 H   0  0  0  0  0  0  0  0  0  0  0  0
  152.0358  141.1151  156.3033 H   0  0  0  0  0  0  0  0  0  0  0  0
  151.1046  142.3800  155.5492 H   0  0  0  0  0  0  0  0  0  0  0  0
  149.9027  140.7626  157.8305 H   0  0  0  0  0  0  0  0  0  0  0  0
  149.3777  143.1683  156.5711 H   0  0  0  0  0  0  0  0  0  0  0  0
  152.2909  140.4012  158.8334 H   0  0  0  0  0  0  0  0  0  0  0  0
  153.8249  141.3385  160.5429 H   0  0  0  0  0  0  0  0  0  0  0  0
  153.6590  143.7352  161.1898 H   0  0  0  0  0  0  0  0  0  0  0  0
  150.4122  144.2675  158.4127 H   0  0  0  0  0  0  0  0  0  0  0  0
  1  2  1  0  0  0  0
  1 22  1  0  0  0  0
  2  3  1  0  0  0  0
  2 23  1  0  0  0  0
  2 24  1  0  0  0  0
  3 11  1  0  0  0  0
  3  4  2  0  0  0  0
  4  5  1  0  0  0  0
  5 10  2  0  0  0  0
  5  6  1  0  0  0  0
  6  7  2  0  0  0  0
  6 25  1  0  0  0  0
  7  8  1  0  0  0  0
  7 26  1  0  0  0  0
  8  9  2  0  0  0  0
  8 27  1  0  0  0  0
  9 10  1  0  0  0  0
  9 28  1  0  0  0  0
 10 11  1  0  0  0  0
 11 12  1  0  0  0  0
 12 13  1  0  0  0  0
 12 29  1  0  0  0  0
 12 30  1  0  0  0  0
 13 14  1  0  0  0  0
 13 15  1  0  0  0  0
 13 31  1  0  0  0  0
 14 32  1  0  0  0  0
 15 21  1  0  0  0  0
 15 16  2  0  0  0  0
 16 17  1  0  0  0  0
 16 33  1  0  0  0  0
 17 18  2  0  0  0  0
 17 34  1  0  0  0  0
 18 19  1  0  0  0  0
 18 35  1  0  0  0  0
 19 20  1  0  0  0  0
 19 21  2  0  0  0  0
 21 36  1  0  0  0  0
M  END
> <s_m_source_file>
AV-unprocessed.smi

> <i_m_source_file_index>
1919

> <i_lp_mmshare_version>
43012

> <i_f3d_flags>
0

> <s_epik_input>
W2NIXTFbY0hdW2NIXVtjSF1jKGMxMiluKGMobjIpW0NIMl1bT0hdKVtDSDJdW0NASF0oW09IXSljM1tjSF1bY0hdW2NIXWMoRilbY0hdMw==

> <s_epik_cmdline>
J2VwaWtfcHl0aG9uJywgJy1waCcsICc3LjAnLCAnLXRuJywgJzgnLCAnLW1hJywgJzIwMCcsICctbWV0YWxfYmluZGluZycsICctaW1hZScsICc8aW5maWxlLm1hZT4nLCAnLW9tYWUnLCAnPG91dGZpbGUubWFlPic=

> <r_epik_Ionization_Penalty>
0.0634732

> <r_epik_Ionization_Penalty_Charging>
0

> <r_epik_Ionization_Penalty_Neutral>
0.0634732

> <r_epik_State_Penalty>
0.0551572

> <r_epik_Charging_Adjusted_Penalty>
0.0551572

> <i_epik_Tot_Q>
0

> <i_epik_Tot_abs_Q>
0

> <r_epik_Metal_State_Penalty>
5.78034e-05

> <b_epik_Metal_Only>
0

> <s_lp_Force_Field>
OPLS_2005

> <r_lp_Energy>
10.9146

> <b_lp_Chiralities_Consistent>
1

> <s_lp_Variant>
AV-unprocessed.smi:1919-1

> <Gold.Version>
5.8.1

> <Gold.Id.Protein>
6NUR|6NUR_protein|mol2

> <Gold.PLP.Fitness>
54.2030

> <Gold.PLP.PLP>
-49.8054

> <Gold.PLP.part.hbond>
-2.0000

> <Gold.PLP.part.metal>
0.0000

> <Gold.PLP.part.buried>
-3.0737

> <Gold.PLP.part.nonpolar>
-45.3072

> <Gold.PLP.part.repulsive>
0.2188

> <Gold.PLP.ligand.clash>
0.0000

> <Gold.PLP.ligand.torsion>
0.7374

> <Gold.PLP.Chemscore.Hbond>
1.9440

> <Gold.PLP.Chemscore.CHOScore>
0.0000

> <Gold.PLP.Chemscore.Metal>
0.0000

> <Gold.Chemscore.Hbonds>
donor molecule, donor type, donor heavy atom, donor atom, acceptor molecule, acceptor atom, score
      L1  H    14    32       P1  8028  0.94
      P1  H  7997  8009       L1     1  1.00

> <Gold.PLP.Chemscore.Internal.Correction>
0.0404

> <Gold.Rescore>
     Score         DG    S(hbond)    S(metal)    S(lipo)     H(rot)  DE(clash)    DE(int)     intcor
     18.28     -19.11       1.92        0.00     121.71       2.75       0.12       0.71       ----

> <Gold.Chemscore.Fitness>
18.2802

> <Gold.Chemscore.DG>
-19.1065

> <Gold.Chemscore.ZeroCoef>
-5.4800

> <Gold.Chemscore.Hbond>
1.9240

> <Gold.Chemscore.Metal>
0.0000

> <Gold.Chemscore.Lipo>
121.7127

> <Gold.Chemscore.Internal_Hbond>
0.0000

> <Gold.Chemscore.DEClash>
0.1174

> <Gold.Chemscore.DEInternal>
0.7089

> <Gold.Chemscore.Rot>
2.7500

> <Gold.Chemscore.Internal.Correction>
   9.000000E+99

> <Gold.Chemscore.Hbonds>
donor molecule, donor type, donor heavy atom, donor atom, acceptor molecule, acceptor atom, score
      L1  H    14    32       P1  8028  0.91
      P1  H  7997  8009       L1     1  0.35

> <Gold.Chemscore.Hbond.Weighted>
-6.4261

> <Gold.Chemscore.Metal.Weighted>
-0.0000

> <Gold.Chemscore.Lipo.Weighted>
-14.2404

> <Gold.Chemscore.Internal_Hbond.Weighted>
0.0000

> <Gold.Chemscore.DEClash.Weighted>
0.1174

> <Gold.Chemscore.DEInternal.Weighted>
0.7089

> <Gold.Chemscore.Rot.Weighted>
7.0399

> <Gold.Chemscore.Internal.Correction.Weighted>
   9.000000E+99

> <Gold.Protein.RotatedTorsions>
[ 6907 6896 6895 6894 ] final   99.80 input  -60.11 | X-H torsion
[ 7974 7965 7964 7962 ] final   18.99 input  175.53 | X-H torsion
[ 8008 7997 7996 7995 ] final -133.45 input   59.86 | X-H torsion
[ 10167 10162 10161 10158 ] final  -12.55 input  -65.29 | X-H torsion
[ 10718 10713 10712 10709 ] final   63.58 input   66.30 | X-H torsion
[ 10763 10752 10751 10750 ] final  -77.03 input  -60.55 | X-H torsion
[ 11005 11000 10999 10996 ] final   39.73 input  -57.11 | X-H torsion

> <Gold.Protein.ActiveResidues>
 VAL166  LYS551  ARG553  GLY616  TRP617  ASP618  TYR619  PRO620  LYS621  CYS622 
 ASP623  PHE694  ASN695  SER759  ASP760  ASP761  ALA762  ILE779  LEU786  VAL792 
 PHE793  MET794  SER795  GLU796  ALA797  LYS798  CYS799  TRP800  GLU811  SER814 

> <Gold.Protein.RotatedAtoms>
  152.5385  134.0373  159.8051 H   0  0  0  0  0  0  0  0  0  0  0  0  # atno 6907 bound_to 6896
  151.0535  133.5596  159.2647 H   0  0  0  0  0  0  0  0  0  0  0  0  # atno 6908 bound_to 6896
  151.2522  135.0633  159.9120 H   0  0  0  0  0  0  0  0  0  0  0  0  # atno 6909 bound_to 6896
  146.2165  139.8377  142.8647 H   0  0  0  0  0  0  0  0  0  0  0  0  # atno 7974 bound_to 7965
  155.3457  140.0474  157.3045 H   0  0  0  0  0  0  0  0  0  0  0  0  # atno 8008 bound_to 7997
  154.5254  140.2239  155.8865 H   0  0  0  0  0  0  0  0  0  0  0  0  # atno 8009 bound_to 7997
  156.1733  140.3091  155.9020 H   0  0  0  0  0  0  0  0  0  0  0  0  # atno 8010 bound_to 7997
  140.7163  143.5520  150.9290 H   0  0  0  0  0  0  0  0  0  0  0  0  # atno 10167 bound_to 10162
  157.5981  130.9113  149.9734 H   0  0  0  0  0  0  0  0  0  0  0  0  # atno 10718 bound_to 10713
  154.5076  135.5777  153.6580 H   0  0  0  0  0  0  0  0  0  0  0  0  # atno 10763 bound_to 10752
  152.9891  135.6151  154.2920 H   0  0  0  0  0  0  0  0  0  0  0  0  # atno 10764 bound_to 10752
  154.2833  135.2850  155.2667 H   0  0  0  0  0  0  0  0  0  0  0  0  # atno 10765 bound_to 10752
  140.1999  134.3883  155.8101 H   0  0  0  0  0  0  0  0  0  0  0  0  # atno 11005 bound_to 11000
  145.2931  141.0173  143.3651 LP  0  0  0  0  0  0  0  0  0  0  0  0  # atno 17320 bound_to 7965
  144.9062  139.4586  143.6609 LP  0  0  0  0  0  0  0  0  0  0  0  0  # atno 17321 bound_to 7965
  139.9245  143.6566  152.3090 LP  0  0  0  0  0  0  0  0  0  0  0  0  # atno 17342 bound_to 10162
  139.6995  144.7637  151.1298 LP  0  0  0  0  0  0  0  0  0  0  0  0  # atno 17343 bound_to 10162
  156.1048  130.3653  150.0154 LP  0  0  0  0  0  0  0  0  0  0  0  0  # atno 17370 bound_to 10713
  156.8263  130.9376  151.3639 LP  0  0  0  0  0  0  0  0  0  0  0  0  # atno 17371 bound_to 10713
  141.2227  133.7089  156.8240 LP  0  0  0  0  0  0  0  0  0  0  0  0  # atno 17394 bound_to 11000
  140.2066  134.8858  157.3228 LP  0  0  0  0  0  0  0  0  0  0  0  0  # atno 17395 bound_to 11000

$$$$
