AV-unprocessed.smi:3101|AV-procd|sdf|11810|dock10
  -GOLD-   2272017183D 1   1.00000     0.00000
 Structure written by MMmdl.
 28 29  0  0  0  0  0  0  0  0  1 V2000
  149.5203  138.6272  157.2621 C   0  0  0  0  0  0  0  0  0  0  0  0
  150.2428  138.7761  155.9108 C   0  0  2  0  0  0  0  0  0  0  0  0
  151.3435  137.7631  155.6701 C   0  0  0  0  0  0  0  0  0  0  0  0
  152.0742  138.3975  154.4925 C   0  0  0  0  0  0  0  0  0  0  0  0
  151.9888  139.8049  154.7014 O   0  0  0  0  0  0  0  0  0  0  0  0
  150.9479  140.1210  155.6280 C   0  0  2  0  0  0  0  0  0  0  0  0
  151.6014  140.7977  156.8450 C   0  0  0  0  0  0  0  0  0  0  0  0
  152.5094  140.2283  157.4517 O   0  0  0  0  0  0  0  0  0  0  0  0
  151.1256  142.0170  157.1579 N   0  0  0  0  0  0  0  0  0  0  0  0
  151.5232  142.8667  158.2234 C   0  0  0  0  0  0  0  0  0  0  0  0
  151.3475  144.2529  158.0018 C   0  0  0  0  0  0  0  0  0  0  0  0
  151.6770  145.1865  158.9217 N   0  0  0  0  0  0  0  0  0  0  0  0
  152.1912  144.7328  160.0847 C   0  0  0  0  0  0  0  0  0  0  0  0
  152.3730  143.3561  160.3235 C   0  0  0  0  0  0  0  0  0  0  0  0
  152.0410  142.4284  159.3996 N   0  0  0  0  0  0  0  0  0  0  0  0
  150.2125  138.6610  158.1039 H   0  0  0  0  0  0  0  0  0  0  0  0
  148.9945  137.6736  157.3142 H   0  0  0  0  0  0  0  0  0  0  0  0
  148.7832  139.4184  157.4003 H   0  0  0  0  0  0  0  0  0  0  0  0
  149.4931  138.6392  155.1295 H   0  0  0  0  0  0  0  0  0  0  0  0
  152.0047  137.6918  156.5346 H   0  0  0  0  0  0  0  0  0  0  0  0
  150.9663  136.7651  155.4456 H   0  0  0  0  0  0  0  0  0  0  0  0
  153.1104  138.0677  154.4145 H   0  0  0  0  0  0  0  0  0  0  0  0
  151.5691  138.1531  153.5572 H   0  0  0  0  0  0  0  0  0  0  0  0
  150.2495  140.8143  155.1562 H   0  0  0  0  0  0  0  0  0  0  0  0
  150.3899  142.3745  156.5662 H   0  0  0  0  0  0  0  0  0  0  0  0
  150.9363  144.6214  157.0730 H   0  0  0  0  0  0  0  0  0  0  0  0
  152.4579  145.4701  160.8273 H   0  0  0  0  0  0  0  0  0  0  0  0
  152.7845  142.9990  161.2559 H   0  0  0  0  0  0  0  0  0  0  0  0
  1  2  1  0  0  0  0
  1 16  1  0  0  0  0
  1 17  1  0  0  0  0
  1 18  1  0  0  0  0
  2  6  1  0  0  0  0
  2  3  1  0  0  0  0
  2 19  1  0  0  0  0
  3  4  1  0  0  0  0
  3 20  1  0  0  0  0
  3 21  1  0  0  0  0
  4  5  1  0  0  0  0
  4 22  1  0  0  0  0
  4 23  1  0  0  0  0
  5  6  1  0  0  0  0
  6  7  1  0  0  0  0
  6 24  1  0  0  0  0
  7  8  2  0  0  0  0
  7  9  1  0  0  0  0
  9 10  1  0  0  0  0
  9 25  1  0  0  0  0
 10 15  1  0  0  0  0
 10 11  2  0  0  0  0
 11 12  1  0  0  0  0
 11 26  1  0  0  0  0
 12 13  2  0  0  0  0
 13 14  1  0  0  0  0
 13 27  1  0  0  0  0
 14 15  2  0  0  0  0
 14 28  1  0  0  0  0
M  END
> <s_m_source_file>
AV-unprocessed.smi

> <i_m_source_file_index>
3101

> <i_lp_mmshare_version>
43012

> <i_f3d_flags>
0

> <s_epik_input>
W0NIM11bQ0BASF0xW0NIMl1bQ0gyXU9bQ0BIXTFDKD1PKVtOSF1jMltjSF1uW2NIXVtjSF1uMg==

> <s_epik_cmdline>
J2VwaWtfcHl0aG9uJywgJy1waCcsICc3LjAnLCAnLXRuJywgJzgnLCAnLW1hJywgJzIwMCcsICctbWV0YWxfYmluZGluZycsICctaW1hZScsICc8aW5maWxlLm1hZT4nLCAnLW9tYWUnLCAnPG91dGZpbGUubWFlPic=

> <r_lp_tautomer_probability>
1

> <r_epik_Ionization_Penalty>
2.83174e-06

> <r_epik_Ionization_Penalty_Charging>
0

> <r_epik_Ionization_Penalty_Neutral>
2.83174e-06

> <r_epik_State_Penalty>
-0

> <r_epik_Charging_Adjusted_Penalty>
0

> <i_epik_Tot_Q>
0

> <i_epik_Tot_abs_Q>
0

> <r_epik_Metal_State_Penalty>
-0

> <b_epik_Metal_Only>
0

> <s_lp_Force_Field>
OPLS_2005

> <r_lp_Energy>
27.4183

> <b_lp_Chiralities_Consistent>
1

> <s_lp_Variant>
AV-unprocessed.smi:3101-3

> <Gold.Version>
5.8.1

> <Gold.Id.Protein>
6NUR|6NUR_protein|mol2

> <Gold.PLP.Fitness>
36.8142

> <Gold.PLP.PLP>
-28.4809

> <Gold.PLP.part.hbond>
-1.9604

> <Gold.PLP.part.metal>
0.0000

> <Gold.PLP.part.buried>
-5.3900

> <Gold.PLP.part.nonpolar>
-20.7334

> <Gold.PLP.part.repulsive>
0.2181

> <Gold.PLP.ligand.clash>
0.0000

> <Gold.PLP.ligand.torsion>
0.1827

> <Gold.PLP.Chemscore.Hbond>
1.8960

> <Gold.PLP.Chemscore.CHOScore>
1.0000

> <Gold.PLP.Chemscore.Metal>
0.0000

> <Gold.Chemscore.Hbonds>
donor molecule, donor type, donor heavy atom, donor atom, acceptor molecule, acceptor atom, score
      P1  H  7989  7998       L1     5  0.90
      P1  H  7997  8008       L1     8  0.99
      L1  C    11    26       P1  8028  1.00

> <Gold.PLP.Chemscore.Internal.Correction>
0.0109

> <Gold.Rescore>
     Score         DG    S(hbond)    S(metal)    S(lipo)     H(rot)  DE(clash)    DE(int)     intcor
     14.97     -16.39       1.85        0.00      62.47       1.00       0.12       1.30       ----

> <Gold.Chemscore.Fitness>
14.9680

> <Gold.Chemscore.DG>
-16.3934

> <Gold.Chemscore.ZeroCoef>
-5.4800

> <Gold.Chemscore.Hbond>
1.8455

> <Gold.Chemscore.Metal>
0.0000

> <Gold.Chemscore.Lipo>
62.4739

> <Gold.Chemscore.Internal_Hbond>
0.0000

> <Gold.Chemscore.DEClash>
0.1218

> <Gold.Chemscore.DEInternal>
1.3036

> <Gold.Chemscore.Rot>
1.0000

> <Gold.Chemscore.Internal.Correction>
   9.000000E+99

> <Gold.Chemscore.Hbonds>
donor molecule, donor type, donor heavy atom, donor atom, acceptor molecule, acceptor atom, score
      P1  H  7989  7998       L1     5  0.26
      P1  H  7997  8008       L1     8  0.86

> <Gold.Chemscore.Hbond.Weighted>
-6.1639

> <Gold.Chemscore.Metal.Weighted>
-0.0000

> <Gold.Chemscore.Lipo.Weighted>
-7.3094

> <Gold.Chemscore.Internal_Hbond.Weighted>
0.0000

> <Gold.Chemscore.DEClash.Weighted>
0.1218

> <Gold.Chemscore.DEInternal.Weighted>
1.3036

> <Gold.Chemscore.Rot.Weighted>
2.5600

> <Gold.Chemscore.Internal.Correction.Weighted>
   9.000000E+99

> <Gold.Protein.RotatedTorsions>
[ 6907 6896 6895 6894 ] final  -73.87 input  -60.11 | X-H torsion
[ 7974 7965 7964 7962 ] final    5.05 input  175.53 | X-H torsion
[ 8008 7997 7996 7995 ] final  -60.98 input   59.86 | X-H torsion
[ 10167 10162 10161 10158 ] final  157.05 input  -65.29 | X-H torsion
[ 10718 10713 10712 10709 ] final  155.25 input   66.30 | X-H torsion
[ 10763 10752 10751 10750 ] final -124.44 input  -60.55 | X-H torsion
[ 11005 11000 10999 10996 ] final -128.50 input  -57.11 | X-H torsion

> <Gold.Protein.ActiveResidues>
 VAL166  LYS551  ARG553  GLY616  TRP617  ASP618  TYR619  PRO620  LYS621  CYS622 
 ASP623  PHE694  ASN695  SER759  ASP760  ASP761  ALA762  ILE779  LEU786  VAL792 
 PHE793  MET794  SER795  GLU796  ALA797  LYS798  CYS799  TRP800  GLU811  SER814 

> <Gold.Protein.RotatedAtoms>
  150.7114  134.4953  159.5535 H   0  0  0  0  0  0  0  0  0  0  0  0  # atno 6907 bound_to 6896
  152.2562  134.8078  160.0447 H   0  0  0  0  0  0  0  0  0  0  0  0  # atno 6908 bound_to 6896
  151.8808  133.3460  159.3802 H   0  0  0  0  0  0  0  0  0  0  0  0  # atno 6909 bound_to 6896
  146.2442  140.0442  142.8380 H   0  0  0  0  0  0  0  0  0  0  0  0  # atno 7974 bound_to 7965
  154.4425  140.1027  156.6359 H   0  0  0  0  0  0  0  0  0  0  0  0  # atno 8008 bound_to 7997
  155.5554  140.3486  155.4460 H   0  0  0  0  0  0  0  0  0  0  0  0  # atno 8009 bound_to 7997
  156.0499  140.1301  157.0051 H   0  0  0  0  0  0  0  0  0  0  0  0  # atno 8010 bound_to 7997
  139.4822  144.4953  151.8249 H   0  0  0  0  0  0  0  0  0  0  0  0  # atno 10167 bound_to 10162
  157.2209  131.0718  151.1913 H   0  0  0  0  0  0  0  0  0  0  0  0  # atno 10718 bound_to 10713
  154.8723  135.4063  154.3106 H   0  0  0  0  0  0  0  0  0  0  0  0  # atno 10763 bound_to 10752
  153.3950  135.7016  153.6472 H   0  0  0  0  0  0  0  0  0  0  0  0  # atno 10764 bound_to 10752
  153.5239  135.3681  155.2616 H   0  0  0  0  0  0  0  0  0  0  0  0  # atno 10765 bound_to 10752
  140.9510  134.1065  157.4061 H   0  0  0  0  0  0  0  0  0  0  0  0  # atno 11005 bound_to 11000
  145.1042  140.9365  143.4694 LP  0  0  0  0  0  0  0  0  0  0  0  0  # atno 17320 bound_to 7965
  145.0641  139.3082  143.5865 LP  0  0  0  0  0  0  0  0  0  0  0  0  # atno 17321 bound_to 7965
  140.4441  144.1946  150.5893 LP  0  0  0  0  0  0  0  0  0  0  0  0  # atno 17342 bound_to 10162
  140.4653  143.2433  151.9164 LP  0  0  0  0  0  0  0  0  0  0  0  0  # atno 17343 bound_to 10162
  157.3577  130.7115  149.6481 LP  0  0  0  0  0  0  0  0  0  0  0  0  # atno 17370 bound_to 10713
  155.9682  130.4234  150.4562 LP  0  0  0  0  0  0  0  0  0  0  0  0  # atno 17371 bound_to 10713
  139.8847  135.0066  156.6390 LP  0  0  0  0  0  0  0  0  0  0  0  0  # atno 17394 bound_to 11000
  140.7602  133.8824  155.8412 LP  0  0  0  0  0  0  0  0  0  0  0  0  # atno 17395 bound_to 11000

$$$$
