AV-unprocessed.smi:1428|AV-procd|sdf|5815|dock7
  -GOLD-   22720 5473D 1   1.00000     0.00000
 Structure written by MMmdl.
 44 45  0  0  0  0  0  0  0  0  2 V2000
  151.5354  145.2954  159.3209 C   0  0  0  0  0  0  0  0  0  0  0  0
  151.0394  144.2479  158.4945 O   0  0  0  0  0  0  0  0  0  0  0  0
  151.5140  142.9659  158.6985 C   0  0  0  0  0  0  0  0  0  0  0  0
  152.4574  142.7709  159.6538 N   0  0  0  0  0  0  0  0  0  0  0  0
  152.9179  141.5193  159.8561 C   0  0  0  0  0  0  0  0  0  0  0  0
  152.4619  140.4041  159.1301 C   0  0  0  0  0  0  0  0  0  0  0  0
  151.4839  140.6036  158.1384 C   0  0  0  0  0  0  0  0  0  0  0  0
  151.0028  141.9144  157.9025 C   0  0  0  0  0  0  0  0  0  0  0  0
  150.0070  142.2276  156.9372 N   0  0  0  0  0  0  0  0  0  0  0  0
  149.4381  141.4176  156.0289 C   0  0  0  0  0  0  0  0  0  0  0  0
  149.6709  140.2165  155.8977 O   0  0  0  0  0  0  0  0  0  0  0  0
  148.5837  142.0943  155.2480 N   0  0  0  0  0  0  0  0  0  0  0  0
  147.8147  141.5241  154.1423 C   0  0  2  0  0  0  0  0  0  0  0  0
  146.8266  142.5457  153.5441 C   0  0  0  0  0  0  0  0  0  0  0  0
  145.6654  142.8521  154.5055 C   0  0  0  0  0  0  0  0  0  0  0  0
  144.9528  141.6067  154.8975 N   0  3  2  0  0  0  0  0  0  0  0  0
  143.7386  141.8629  155.7142 C   0  0  0  0  0  0  0  0  0  0  0  0
  142.8784  140.6113  155.9168 C   0  0  0  0  0  0  0  0  0  0  0  0
  142.5575  139.9170  154.8227 N   0  0  0  0  0  0  0  0  0  0  0  0
  142.4947  140.2828  157.0381 O   0  0  0  0  0  0  0  0  0  0  0  0
  145.8710  140.6306  155.5381 C   0  0  0  0  0  0  0  0  0  0  0  0
  147.0468  140.2751  154.6090 C   0  0  0  0  0  0  0  0  0  0  0  0
  151.0567  146.2333  159.0396 H   0  0  0  0  0  0  0  0  0  0  0  0
  152.6117  145.4239  159.1985 H   0  0  0  0  0  0  0  0  0  0  0  0
  151.3129  145.1136  160.3733 H   0  0  0  0  0  0  0  0  0  0  0  0
  153.6674  141.4027  160.6249 H   0  0  0  0  0  0  0  0  0  0  0  0
  152.8503  139.4170  159.3323 H   0  0  0  0  0  0  0  0  0  0  0  0
  151.1149  139.7496  157.5919 H   0  0  0  0  0  0  0  0  0  0  0  0
  149.7673  143.2062  156.8720 H   0  0  0  0  0  0  0  0  0  0  0  0
  148.4541  143.0779  155.4348 H   0  0  0  0  0  0  0  0  0  0  0  0
  148.5196  141.2187  153.3667 H   0  0  0  0  0  0  0  0  0  0  0  0
  147.3411  143.4682  153.2735 H   0  0  0  0  0  0  0  0  0  0  0  0
  146.4210  142.1463  152.6135 H   0  0  0  0  0  0  0  0  0  0  0  0
  146.0364  143.3586  155.3977 H   0  0  0  0  0  0  0  0  0  0  0  0
  144.9759  143.5424  154.0191 H   0  0  0  0  0  0  0  0  0  0  0  0
  144.0305  142.2026  156.7090 H   0  0  0  0  0  0  0  0  0  0  0  0
  143.1498  142.6669  155.2686 H   0  0  0  0  0  0  0  0  0  0  0  0
  141.9951  139.0813  154.8974 H   0  0  0  0  0  0  0  0  0  0  0  0
  142.8824  140.2287  153.9183 H   0  0  0  0  0  0  0  0  0  0  0  0
  146.2393  141.0398  156.4801 H   0  0  0  0  0  0  0  0  0  0  0  0
  145.3251  139.7187  155.7829 H   0  0  0  0  0  0  0  0  0  0  0  0
  146.6612  139.7471  153.7356 H   0  0  0  0  0  0  0  0  0  0  0  0
  147.7226  139.5793  155.1079 H   0  0  0  0  0  0  0  0  0  0  0  0
  144.6280  141.1733  154.0444 H   0  0  0  0  0  0  0  0  0  0  0  0
  1  2  1  0  0  0  0
  1 23  1  0  0  0  0
  1 24  1  0  0  0  0
  1 25  1  0  0  0  0
  2  3  1  0  0  0  0
  3  8  1  0  0  0  0
  3  4  2  0  0  0  0
  4  5  1  0  0  0  0
  5  6  2  0  0  0  0
  5 26  1  0  0  0  0
  6  7  1  0  0  0  0
  6 27  1  0  0  0  0
  7  8  2  0  0  0  0
  7 28  1  0  0  0  0
  8  9  1  0  0  0  0
  9 10  1  0  0  0  0
  9 29  1  0  0  0  0
 10 11  2  0  0  0  0
 10 12  1  0  0  0  0
 12 13  1  0  0  0  0
 12 30  1  0  0  0  0
 13 22  1  0  0  0  0
 13 14  1  0  0  0  0
 13 31  1  0  0  0  0
 14 15  1  0  0  0  0
 14 32  1  0  0  0  0
 14 33  1  0  0  0  0
 15 16  1  0  0  0  0
 15 34  1  0  0  0  0
 15 35  1  0  0  0  0
 16 17  1  0  0  0  0
 16 21  1  0  0  0  0
 16 44  1  0  0  0  0
 17 18  1  0  0  0  0
 17 36  1  0  0  0  0
 17 37  1  0  0  0  0
 18 19  1  0  0  0  0
 18 20  2  0  0  0  0
 19 38  1  0  0  0  0
 19 39  1  0  0  0  0
 21 22  1  0  0  0  0
 21 40  1  0  0  0  0
 21 41  1  0  0  0  0
 22 42  1  0  0  0  0
 22 43  1  0  0  0  0
M  CHG  1  16   1
M  END
> <s_m_source_file>
AV-unprocessed.smi

> <i_m_source_file_index>
1428

> <i_lp_mmshare_version>
43012

> <i_f3d_flags>
0

> <s_epik_input>
W0NIM11PYzFuW2NIXVtjSF1bY0hdYzFbTkhdQyg9TylbTkhdW0NIXTJbQ0gyXVtDSDJdTihbQ0gyXVtDSDJdMilbQ0gyXUMoPU8pW05IMl0=

> <s_epik_cmdline>
J2VwaWtfcHl0aG9uJywgJy1waCcsICc3LjAnLCAnLXRuJywgJzgnLCAnLW1hJywgJzIwMCcsICctbWV0YWxfYmluZGluZycsICctaW1hZScsICc8aW5maWxlLm1hZT4nLCAnLW9tYWUnLCAnPG91dGZpbGUubWFlPic=

> <r_lp_tautomer_probability>
1

> <r_epik_Ionization_Penalty>
0.838963

> <r_epik_Ionization_Penalty_Charging>
0.838844

> <r_epik_Ionization_Penalty_Neutral>
0.000119189

> <r_epik_State_Penalty>
0.8734

> <r_epik_Charging_Adjusted_Penalty>
1.71224

> <i_epik_Tot_Q>
1

> <i_epik_Tot_abs_Q>
1

> <r_epik_Metal_State_Penalty>
0.890706

> <b_epik_Metal_Only>
0

> <s_lp_Force_Field>
OPLS_2005

> <r_lp_Energy>
14.3057

> <b_lp_Chiralities_Consistent>
1

> <s_lp_Variant>
AV-unprocessed.smi:1428-3

> <Gold.Version>
5.8.1

> <Gold.Id.Protein>
6NUR|6NUR_protein|mol2

> <Gold.PLP.Fitness>
49.2398

> <Gold.PLP.PLP>
-34.8748

> <Gold.PLP.part.hbond>
-4.0000

> <Gold.PLP.part.metal>
0.0000

> <Gold.PLP.part.buried>
-8.1573

> <Gold.PLP.part.nonpolar>
-24.0923

> <Gold.PLP.part.repulsive>
0.4000

> <Gold.PLP.ligand.clash>
0.0000

> <Gold.PLP.ligand.torsion>
0.1678

> <Gold.PLP.Chemscore.Hbond>
4.8882

> <Gold.PLP.Chemscore.CHOScore>
0.0000

> <Gold.PLP.Chemscore.Metal>
0.0000

> <Gold.Chemscore.Hbonds>
donor molecule, donor type, donor heavy atom, donor atom, acceptor molecule, acceptor atom, score
      L1  H     9    29       P1  8028  0.71
      L1  H    12    30       P1  8028  1.00
      L1  H    16    44       P1 10175  2.00
      L1  H    19    39       P1 10175  1.00

> <Gold.PLP.Chemscore.Internal.Correction>
0.0361

> <Gold.Rescore>
     Score         DG    S(hbond)    S(metal)    S(lipo)     H(rot)  DE(clash)    DE(int)     intcor
     17.17     -20.19       3.92        0.00      64.84       2.33       0.07       2.95       ----

> <Gold.Chemscore.Fitness>
17.1710

> <Gold.Chemscore.DG>
-20.1858

> <Gold.Chemscore.ZeroCoef>
-5.4800

> <Gold.Chemscore.Hbond>
3.9153

> <Gold.Chemscore.Metal>
0.0000

> <Gold.Chemscore.Lipo>
64.8361

> <Gold.Chemscore.Internal_Hbond>
0.0000

> <Gold.Chemscore.DEClash>
0.0657

> <Gold.Chemscore.DEInternal>
2.9490

> <Gold.Chemscore.Rot>
2.3271

> <Gold.Chemscore.Internal.Correction>
   9.000000E+99

> <Gold.Chemscore.Hbonds>
donor molecule, donor type, donor heavy atom, donor atom, acceptor molecule, acceptor atom, score
      L1  H     9    29       P1  8028  0.67
      L1  H    12    30       P1  8028  0.99
      L1  H    16    44       P1 10175  0.70
      L1  H    19    39       P1 10175  0.98

> <Gold.Chemscore.Hbond.Weighted>
-13.0773

> <Gold.Chemscore.Metal.Weighted>
-0.0000

> <Gold.Chemscore.Lipo.Weighted>
-7.5858

> <Gold.Chemscore.Internal_Hbond.Weighted>
0.0000

> <Gold.Chemscore.DEClash.Weighted>
0.0657

> <Gold.Chemscore.DEInternal.Weighted>
2.9490

> <Gold.Chemscore.Rot.Weighted>
5.9573

> <Gold.Chemscore.Internal.Correction.Weighted>
   9.000000E+99

> <Gold.Protein.RotatedTorsions>
[ 6907 6896 6895 6894 ] final -157.77 input  -60.11 | X-H torsion
[ 7974 7965 7964 7962 ] final -154.32 input  175.53 | X-H torsion
[ 8008 7997 7996 7995 ] final   35.40 input   59.86 | X-H torsion
[ 10167 10162 10161 10158 ] final  -34.26 input  -65.29 | X-H torsion
[ 10718 10713 10712 10709 ] final   71.49 input   66.30 | X-H torsion
[ 10763 10752 10751 10750 ] final   60.08 input  -60.55 | X-H torsion
[ 11005 11000 10999 10996 ] final  -65.80 input  -57.11 | X-H torsion

> <Gold.Protein.ActiveResidues>
 VAL166  LYS551  ARG553  GLY616  TRP617  ASP618  TYR619  PRO620  LYS621  CYS622 
 ASP623  PHE694  ASN695  SER759  ASP760  ASP761  ALA762  ILE779  LEU786  VAL792 
 PHE793  MET794  SER795  GLU796  ALA797  LYS798  CYS799  TRP800  GLU811  SER814 

> <Gold.Protein.RotatedAtoms>
  151.3079  133.4093  159.2644 H   0  0  0  0  0  0  0  0  0  0  0  0  # atno 6907 bound_to 6896
  151.0139  134.9418  159.8033 H   0  0  0  0  0  0  0  0  0  0  0  0  # atno 6908 bound_to 6896
  152.5307  134.3043  159.9142 H   0  0  0  0  0  0  0  0  0  0  0  0  # atno 6909 bound_to 6896
  144.7695  140.4404  143.5917 H   0  0  0  0  0  0  0  0  0  0  0  0  # atno 7974 bound_to 7965
  155.1705  140.3291  155.4393 H   0  0  0  0  0  0  0  0  0  0  0  0  # atno 8008 bound_to 7997
  156.2512  140.1944  156.6759 H   0  0  0  0  0  0  0  0  0  0  0  0  # atno 8009 bound_to 7997
  154.6341  140.0578  156.9753 H   0  0  0  0  0  0  0  0  0  0  0  0  # atno 8010 bound_to 7997
  140.7189  143.3560  151.2058 H   0  0  0  0  0  0  0  0  0  0  0  0  # atno 10167 bound_to 10162
  157.6454  130.9531  150.0797 H   0  0  0  0  0  0  0  0  0  0  0  0  # atno 10718 bound_to 10713
  152.9911  135.5549  154.5816 H   0  0  0  0  0  0  0  0  0  0  0  0  # atno 10763 bound_to 10752
  154.5196  135.2807  155.1276 H   0  0  0  0  0  0  0  0  0  0  0  0  # atno 10764 bound_to 10752
  154.2635  135.6376  153.5336 H   0  0  0  0  0  0  0  0  0  0  0  0  # atno 10765 bound_to 10752
  141.1464  133.6688  156.6041 H   0  0  0  0  0  0  0  0  0  0  0  0  # atno 11005 bound_to 11000
  145.6367  139.1544  143.2938 LP  0  0  0  0  0  0  0  0  0  0  0  0  # atno 17320 bound_to 7965
  146.1830  140.6467  142.9180 LP  0  0  0  0  0  0  0  0  0  0  0  0  # atno 17321 bound_to 7965
  139.7102  143.9389  152.2944 LP  0  0  0  0  0  0  0  0  0  0  0  0  # atno 17342 bound_to 10162
  139.9112  144.6855  150.8560 LP  0  0  0  0  0  0  0  0  0  0  0  0  # atno 17343 bound_to 10162
  156.1777  130.3649  149.9078 LP  0  0  0  0  0  0  0  0  0  0  0  0  # atno 17370 bound_to 10713
  156.7038  130.8943  151.3602 LP  0  0  0  0  0  0  0  0  0  0  0  0  # atno 17371 bound_to 10713
  140.3665  134.7642  157.4570 LP  0  0  0  0  0  0  0  0  0  0  0  0  # atno 17394 bound_to 11000
  140.0744  134.5818  155.8607 LP  0  0  0  0  0  0  0  0  0  0  0  0  # atno 17395 bound_to 11000

$$$$
