AV-unprocessed.smi:37|AV-procd|sdf|319|dock9
  -GOLD-   2262016143D 1   1.00000     0.00000
 Structure written by MMmdl.
 43 44  0  0  0  0  0  0  0  0  2 V2000
  153.3954  141.8972  160.3905 C   0  0  0  0  0  0  0  0  0  0  0  0
  152.1921  141.1976  159.7439 C   0  0  0  0  0  0  0  0  0  0  0  0
  152.5807  139.8806  159.0759 C   0  0  0  0  0  0  0  0  0  0  0  0
  153.2201  139.0191  159.6800 O   0  0  0  0  0  0  0  0  0  0  0  0
  152.1581  139.8004  157.8043 O   0  0  0  0  0  0  0  0  0  0  0  0
  151.8519  138.5337  157.2460 C   0  0  0  0  0  0  0  0  0  0  0  0
  150.4063  138.1626  157.5923 C   0  0  2  0  0  0  0  0  0  0  0  0
  150.3851  137.0678  158.5101 O   0  0  0  0  0  0  0  0  0  0  0  0
  149.5793  136.0420  158.0131 C   0  0  1  0  0  0  0  0  0  0  0  0
  148.8364  135.3677  159.1431 N   0  0  0  0  0  0  0  0  0  0  0  0
  148.2703  136.1009  160.1732 C   0  0  0  0  0  0  0  0  0  0  0  0
  147.6071  135.4939  161.1787 C   0  0  0  0  0  0  0  0  0  0  0  0
  147.0636  136.2310  162.1626 F   0  0  0  0  0  0  0  0  0  0  0  0
  147.4825  134.0373  161.1884 C   0  0  0  0  0  0  0  0  0  0  0  0
  146.8793  133.4893  162.1095 O   0  0  0  0  0  0  0  0  0  0  0  0
  148.0494  133.3419  160.1600 N   0  5  0  0  0  0  0  0  0  0  0  0
  148.7198  133.9518  159.1391 C   0  0  0  0  0  0  0  0  0  0  0  0
  149.2324  133.3350  158.2048 O   0  0  0  0  0  0  0  0  0  0  0  0
  148.6462  136.6862  156.9861 C   0  0  1  0  0  0  0  0  0  0  0  0
  147.1108  137.6276  157.8593 Br  0  0  0  0  0  0  0  0  0  0  0  0
  149.6037  137.6930  156.3735 C   0  0  1  0  0  0  0  0  0  0  0  0
  148.9378  138.7729  155.7317 O   0  0  0  0  0  0  0  0  0  0  0  0
  149.6105  139.5825  154.8943 C   0  0  0  0  0  0  0  0  0  0  0  0
  150.7952  139.4717  154.5786 O   0  0  0  0  0  0  0  0  0  0  0  0
  148.7364  140.6976  154.3253 C   0  0  0  0  0  0  0  0  0  0  0  0
  147.3189  140.6822  154.9135 C   0  0  0  0  0  0  0  0  0  0  0  0
  153.0945  142.8477  160.8315 H   0  0  0  0  0  0  0  0  0  0  0  0
  154.1745  142.1059  159.6564 H   0  0  0  0  0  0  0  0  0  0  0  0
  153.8335  141.2902  161.1837 H   0  0  0  0  0  0  0  0  0  0  0  0
  151.4272  140.9994  160.4952 H   0  0  0  0  0  0  0  0  0  0  0  0
  151.7409  141.8520  158.9976 H   0  0  0  0  0  0  0  0  0  0  0  0
  151.9702  138.5906  156.1629 H   0  0  0  0  0  0  0  0  0  0  0  0
  152.5393  137.7702  157.6131 H   0  0  0  0  0  0  0  0  0  0  0  0
  149.8969  139.0047  158.0637 H   0  0  0  0  0  0  0  0  0  0  0  0
  150.2307  135.2799  157.5807 H   0  0  0  0  0  0  0  0  0  0  0  0
  148.3450  137.1779  160.1804 H   0  0  0  0  0  0  0  0  0  0  0  0
  148.2564  135.9555  156.2769 H   0  0  0  0  0  0  0  0  0  0  0  0
  150.2781  137.1788  155.6863 H   0  0  0  0  0  0  0  0  0  0  0  0
  149.2116  141.6573  154.5305 H   0  0  0  0  0  0  0  0  0  0  0  0
  148.6928  140.5917  153.2411 H   0  0  0  0  0  0  0  0  0  0  0  0
  146.7311  141.5108  154.5189 H   0  0  0  0  0  0  0  0  0  0  0  0
  147.3388  140.7791  155.9996 H   0  0  0  0  0  0  0  0  0  0  0  0
  146.7931  139.7593  154.6668 H   0  0  0  0  0  0  0  0  0  0  0  0
  1  2  1  0  0  0  0
  1 27  1  0  0  0  0
  1 28  1  0  0  0  0
  1 29  1  0  0  0  0
  2  3  1  0  0  0  0
  2 30  1  0  0  0  0
  2 31  1  0  0  0  0
  3  4  2  0  0  0  0
  3  5  1  0  0  0  0
  5  6  1  0  0  0  0
  6  7  1  0  0  0  0
  6 32  1  0  0  0  0
  6 33  1  0  0  0  0
  7 21  1  0  0  0  0
  7  8  1  0  0  0  0
  7 34  1  0  0  0  0
  8  9  1  0  0  0  0
  9 10  1  0  0  0  0
  9 19  1  0  0  0  0
  9 35  1  0  0  0  0
 10 17  1  0  0  0  0
 10 11  1  0  0  0  0
 11 12  2  0  0  0  0
 11 36  1  0  0  0  0
 12 13  1  0  0  0  0
 12 14  1  0  0  0  0
 14 15  2  0  0  0  0
 14 16  1  0  0  0  0
 16 17  1  0  0  0  0
 17 18  2  0  0  0  0
 19 20  1  0  0  0  0
 19 21  1  0  0  0  0
 19 37  1  0  0  0  0
 21 22  1  0  0  0  0
 21 38  1  0  0  0  0
 22 23  1  0  0  0  0
 23 24  2  0  0  0  0
 23 25  1  0  0  0  0
 25 26  1  0  0  0  0
 25 39  1  0  0  0  0
 25 40  1  0  0  0  0
 26 41  1  0  0  0  0
 26 42  1  0  0  0  0
 26 43  1  0  0  0  0
M  CHG  1  16  -1
M  END
> <s_m_source_file>
AV-unprocessed.smi

> <i_m_source_file_index>
37

> <i_lp_mmshare_version>
43012

> <i_f3d_flags>
0

> <s_epik_input>
W0NIM11bQ0gyXUMoPU8pT1tDSDJdW0NAQEhdMU9bQ0BASF0objJbY0hdYyhGKWMoPU8pW25IXWMyPU8pW0NAQEhdKEJyKVtDQEhdMU9DKD1PKVtDSDJdW0NIM10=

> <s_epik_cmdline>
J2VwaWtfcHl0aG9uJywgJy1waCcsICc3LjAnLCAnLXRuJywgJzgnLCAnLW1hJywgJzIwMCcsICctbWV0YWxfYmluZGluZycsICctaW1hZScsICc8aW5maWxlLm1hZT4nLCAnLW9tYWUnLCAnPG91dGZpbGUubWFlPic=

> <r_epik_Ionization_Penalty>
1.08158

> <r_epik_Ionization_Penalty_Charging>
9.05154e-09

> <r_epik_Ionization_Penalty_Neutral>
1.08158

> <r_epik_State_Penalty>
1.13706

> <r_epik_Charging_Adjusted_Penalty>
1.13706

> <i_epik_Tot_Q>
-1

> <i_epik_Tot_abs_Q>
1

> <r_epik_Metal_State_Penalty>
0.00343535

> <b_epik_Metal_Only>
0

> <s_epik_Chemistry_Notes>
This compound has an ester and may undergo hydrolysis at high or low pH. This compound contains an acetal/aminal-like group ( X-CH(R)-Y where X, Y are N, S, or O) that may be acid/base labile, releasing an aldehyde.

> <s_lp_Force_Field>
OPLS_2005

> <r_lp_Energy>
34.8687

> <b_lp_Chiralities_Consistent>
1

> <s_lp_Variant>
AV-unprocessed.smi:37-17

> <Gold.Version>
5.8.1

> <Gold.Id.Protein>
6NUR|6NUR_protein|mol2

> <Gold.PLP.Fitness>
37.6542

> <Gold.PLP.PLP>
-35.7423

> <Gold.PLP.part.hbond>
-2.0000

> <Gold.PLP.part.metal>
0.0000

> <Gold.PLP.part.buried>
-4.1310

> <Gold.PLP.part.nonpolar>
-28.8799

> <Gold.PLP.part.repulsive>
0.0747

> <Gold.PLP.ligand.clash>
0.0000

> <Gold.PLP.ligand.torsion>
1.9243

> <Gold.PLP.Chemscore.Hbond>
1.8500

> <Gold.PLP.Chemscore.CHOScore>
0.0000

> <Gold.PLP.Chemscore.Metal>
0.0000

> <Gold.Chemscore.Hbonds>
donor molecule, donor type, donor heavy atom, donor atom, acceptor molecule, acceptor atom, score
      P1  H  7989  7998       L1    24  1.00

> <Gold.PLP.Chemscore.Internal.Correction>
0.2105

> <Gold.Rescore>
     Score         DG    S(hbond)    S(metal)    S(lipo)     H(rot)  DE(clash)    DE(int)     intcor
      4.31      -7.16       0.98        0.00      57.77       3.27       0.00       2.85       ----

> <Gold.Chemscore.Fitness>
4.3066

> <Gold.Chemscore.DG>
-7.1630

> <Gold.Chemscore.ZeroCoef>
-5.4800

> <Gold.Chemscore.Hbond>
0.9841

> <Gold.Chemscore.Metal>
0.0000

> <Gold.Chemscore.Lipo>
57.7730

> <Gold.Chemscore.Internal_Hbond>
0.0000

> <Gold.Chemscore.DEClash>
0.0048

> <Gold.Chemscore.DEInternal>
2.8516

> <Gold.Chemscore.Rot>
3.2669

> <Gold.Chemscore.Internal.Correction>
   9.000000E+99

> <Gold.Chemscore.Hbonds>
donor molecule, donor type, donor heavy atom, donor atom, acceptor molecule, acceptor atom, score
      P1  H  7989  7998       L1    24  0.97

> <Gold.Chemscore.Hbond.Weighted>
-3.2869

> <Gold.Chemscore.Metal.Weighted>
-0.0000

> <Gold.Chemscore.Lipo.Weighted>
-6.7594

> <Gold.Chemscore.Internal_Hbond.Weighted>
0.0000

> <Gold.Chemscore.DEClash.Weighted>
0.0048

> <Gold.Chemscore.DEInternal.Weighted>
2.8516

> <Gold.Chemscore.Rot.Weighted>
8.3634

> <Gold.Chemscore.Internal.Correction.Weighted>
   9.000000E+99

> <Gold.Protein.RotatedTorsions>
[ 6907 6896 6895 6894 ] final  131.41 input  -60.11 | X-H torsion
[ 7974 7965 7964 7962 ] final   78.58 input  175.53 | X-H torsion
[ 8008 7997 7996 7995 ] final  -96.59 input   59.86 | X-H torsion
[ 10167 10162 10161 10158 ] final -144.92 input  -65.29 | X-H torsion
[ 10718 10713 10712 10709 ] final   47.56 input   66.30 | X-H torsion
[ 10763 10752 10751 10750 ] final  103.13 input  -60.55 | X-H torsion
[ 11005 11000 10999 10996 ] final   47.64 input  -57.11 | X-H torsion

> <Gold.Protein.ActiveResidues>
 VAL166  LYS551  ARG553  GLY616  TRP617  ASP618  TYR619  PRO620  LYS621  CYS622 
 ASP623  PHE694  ASN695  SER759  ASP760  ASP761  ALA762  ILE779  LEU786  VAL792 
 PHE793  MET794  SER795  GLU796  ALA797  LYS798  CYS799  TRP800  GLU811  SER814 

> <Gold.Protein.RotatedAtoms>
  152.3429  133.6088  159.5888 H   0  0  0  0  0  0  0  0  0  0  0  0  # atno 6907 bound_to 6896
  150.7489  133.9694  159.3550 H   0  0  0  0  0  0  0  0  0  0  0  0  # atno 6908 bound_to 6896
  151.7556  135.0823  160.0389 H   0  0  0  0  0  0  0  0  0  0  0  0  # atno 6909 bound_to 6896
  145.6754  139.2508  143.1845 H   0  0  0  0  0  0  0  0  0  0  0  0  # atno 7974 bound_to 7965
  154.7764  140.0470  157.1093 H   0  0  0  0  0  0  0  0  0  0  0  0  # atno 8008 bound_to 7997
  154.9757  140.3095  155.4948 H   0  0  0  0  0  0  0  0  0  0  0  0  # atno 8009 bound_to 7997
  156.2929  140.2245  156.4853 H   0  0  0  0  0  0  0  0  0  0  0  0  # atno 8010 bound_to 7997
  139.7854  143.8042  152.2644 H   0  0  0  0  0  0  0  0  0  0  0  0  # atno 10167 bound_to 10162
  157.4597  130.8189  149.7873 H   0  0  0  0  0  0  0  0  0  0  0  0  # atno 10718 bound_to 10713
  153.3486  135.3987  155.1628 H   0  0  0  0  0  0  0  0  0  0  0  0  # atno 10763 bound_to 10752
  154.8658  135.3651  154.5251 H   0  0  0  0  0  0  0  0  0  0  0  0  # atno 10764 bound_to 10752
  153.5701  135.7079  153.5568 H   0  0  0  0  0  0  0  0  0  0  0  0  # atno 10765 bound_to 10752
  140.1261  134.4766  155.8558 H   0  0  0  0  0  0  0  0  0  0  0  0  # atno 11005 bound_to 11000
  146.1010  140.7544  142.9549 LP  0  0  0  0  0  0  0  0  0  0  0  0  # atno 17320 bound_to 7965
  144.7043  140.3787  143.7130 LP  0  0  0  0  0  0  0  0  0  0  0  0  # atno 17321 bound_to 7965
  139.8117  144.7333  150.9688 LP  0  0  0  0  0  0  0  0  0  0  0  0  # atno 17342 bound_to 10162
  140.7819  143.4244  151.0791 LP  0  0  0  0  0  0  0  0  0  0  0  0  # atno 17343 bound_to 10162
  156.0023  130.3873  150.2560 LP  0  0  0  0  0  0  0  0  0  0  0  0  # atno 17370 bound_to 10713
  157.0736  131.0124  151.3181 LP  0  0  0  0  0  0  0  0  0  0  0  0  # atno 17371 bound_to 10713
  141.2161  133.6778  156.6981 LP  0  0  0  0  0  0  0  0  0  0  0  0  # atno 17394 bound_to 11000
  140.2902  134.8247  157.4010 LP  0  0  0  0  0  0  0  0  0  0  0  0  # atno 17395 bound_to 11000

$$$$
