AV-unprocessed.smi:1660|AV-procd|sdf|6652|dock4
  -GOLD-   22720 7363D 1   1.00000     0.00000
 Structure written by MMmdl.
 42 43  0  0  0  0  0  0  0  0  1 V2000
  154.2545  140.7135  160.9315 C   0  0  0  0  0  0  0  0  0  0  0  0
  154.0230  142.0373  160.4622 O   0  0  0  0  0  0  0  0  0  0  0  0
  153.0626  142.2294  159.4901 C   0  0  0  0  0  0  0  0  0  0  0  0
  152.8341  143.5369  159.0179 C   0  0  0  0  0  0  0  0  0  0  0  0
  151.8556  143.7426  158.0267 C   0  0  0  0  0  0  0  0  0  0  0  0
  151.1391  142.6273  157.5305 C   0  0  0  0  0  0  0  0  0  0  0  0
  150.1174  142.7033  156.5447 N   0  0  0  0  0  0  0  0  0  0  0  0
  149.6848  141.7427  155.7096 C   0  0  0  0  0  0  0  0  0  0  0  0
  150.1004  140.5846  155.6778 O   0  0  0  0  0  0  0  0  0  0  0  0
  148.7117  142.1967  154.9087 N   0  0  0  0  0  0  0  0  0  0  0  0
  148.0364  141.3871  153.9030 C   0  0  0  0  0  0  0  0  0  0  0  0
  146.5106  141.4258  154.1058 C   0  0  0  0  0  0  0  0  0  0  0  0
  145.9238  142.8488  154.1240 C   0  0  0  0  0  0  0  0  0  0  0  0
  146.1885  143.6158  153.1967 O   0  0  0  0  0  0  0  0  0  0  0  0
  145.1288  143.2172  155.1571 N   0  0  0  0  0  0  0  0  0  0  0  0
  144.4516  144.5151  155.2249 C   0  0  0  0  0  0  0  0  0  0  0  0
  142.9345  144.2716  155.1301 C   0  0  0  0  0  0  0  0  0  0  0  0
  142.5214  143.4005  156.1810 O   0  0  0  0  0  0  0  0  0  0  0  0
  143.1909  142.1416  156.1640 C   0  0  0  0  0  0  0  0  0  0  0  0
  144.7102  142.3632  156.2728 C   0  0  0  0  0  0  0  0  0  0  0  0
  151.4346  141.3621  158.0791 C   0  0  0  0  0  0  0  0  0  0  0  0
  152.3711  141.1579  159.0293 N   0  0  0  0  0  0  0  0  0  0  0  0
  155.0350  140.7324  161.6917 H   0  0  0  0  0  0  0  0  0  0  0  0
  154.5919  140.0583  160.1269 H   0  0  0  0  0  0  0  0  0  0  0  0
  153.3589  140.2894  161.3879 H   0  0  0  0  0  0  0  0  0  0  0  0
  153.3970  144.3700  159.4126 H   0  0  0  0  0  0  0  0  0  0  0  0
  151.6687  144.7474  157.6819 H   0  0  0  0  0  0  0  0  0  0  0  0
  149.6221  143.5821  156.5039 H   0  0  0  0  0  0  0  0  0  0  0  0
  148.4210  143.1592  154.9987 H   0  0  0  0  0  0  0  0  0  0  0  0
  148.2987  141.7628  152.9121 H   0  0  0  0  0  0  0  0  0  0  0  0
  148.4001  140.3597  153.9682 H   0  0  0  0  0  0  0  0  0  0  0  0
  146.0330  140.8615  153.3036 H   0  0  0  0  0  0  0  0  0  0  0  0
  146.2599  140.9327  155.0459 H   0  0  0  0  0  0  0  0  0  0  0  0
  144.6967  145.0046  156.1685 H   0  0  0  0  0  0  0  0  0  0  0  0
  144.7652  145.2023  154.4378 H   0  0  0  0  0  0  0  0  0  0  0  0
  142.3942  145.2142  155.2188 H   0  0  0  0  0  0  0  0  0  0  0  0
  142.6701  143.8405  154.1629 H   0  0  0  0  0  0  0  0  0  0  0  0
  142.8353  141.5415  157.0015 H   0  0  0  0  0  0  0  0  0  0  0  0
  142.9414  141.5980  155.2512 H   0  0  0  0  0  0  0  0  0  0  0  0
  145.2211  141.4027  156.3108 H   0  0  0  0  0  0  0  0  0  0  0  0
  144.9474  142.8609  157.2142 H   0  0  0  0  0  0  0  0  0  0  0  0
  150.9061  140.4821  157.7427 H   0  0  0  0  0  0  0  0  0  0  0  0
  1  2  1  0  0  0  0
  1 23  1  0  0  0  0
  1 24  1  0  0  0  0
  1 25  1  0  0  0  0
  2  3  1  0  0  0  0
  3 22  1  0  0  0  0
  3  4  2  0  0  0  0
  4  5  1  0  0  0  0
  4 26  1  0  0  0  0
  5  6  2  0  0  0  0
  5 27  1  0  0  0  0
  6  7  1  0  0  0  0
  6 21  1  0  0  0  0
  7  8  1  0  0  0  0
  7 28  1  0  0  0  0
  8  9  2  0  0  0  0
  8 10  1  0  0  0  0
 10 11  1  0  0  0  0
 10 29  1  0  0  0  0
 11 12  1  0  0  0  0
 11 30  1  0  0  0  0
 11 31  1  0  0  0  0
 12 13  1  0  0  0  0
 12 32  1  0  0  0  0
 12 33  1  0  0  0  0
 13 14  2  0  0  0  0
 13 15  1  0  0  0  0
 15 20  1  0  0  0  0
 15 16  1  0  0  0  0
 16 17  1  0  0  0  0
 16 34  1  0  0  0  0
 16 35  1  0  0  0  0
 17 18  1  0  0  0  0
 17 36  1  0  0  0  0
 17 37  1  0  0  0  0
 18 19  1  0  0  0  0
 19 20  1  0  0  0  0
 19 38  1  0  0  0  0
 19 39  1  0  0  0  0
 20 40  1  0  0  0  0
 20 41  1  0  0  0  0
 21 22  2  0  0  0  0
 21 42  1  0  0  0  0
M  END
> <s_m_source_file>
AV-unprocessed.smi

> <i_m_source_file_index>
1660

> <i_lp_mmshare_version>
43012

> <i_f3d_flags>
0

> <s_epik_input>
W0NIM11PYzFbY0hdW2NIXWMoW2NIXW4xKVtOSF1DKD1PKVtOSF1bQ0gyXVtDSDJdQyg9TylOMltDSDJdW0NIMl1PW0NIMl1bQ0gyXTI=

> <s_epik_cmdline>
J2VwaWtfcHl0aG9uJywgJy1waCcsICc3LjAnLCAnLXRuJywgJzgnLCAnLW1hJywgJzIwMCcsICctbWV0YWxfYmluZGluZycsICctaW1hZScsICc8aW5maWxlLm1hZT4nLCAnLW9tYWUnLCAnPG91dGZpbGUubWFlPic=

> <r_lp_tautomer_probability>
1

> <r_epik_Ionization_Penalty>
8.54597e-05

> <r_epik_Ionization_Penalty_Charging>
0

> <r_epik_Ionization_Penalty_Neutral>
8.54597e-05

> <r_epik_State_Penalty>
-0

> <r_epik_Charging_Adjusted_Penalty>
0

> <i_epik_Tot_Q>
0

> <i_epik_Tot_abs_Q>
0

> <r_epik_Metal_State_Penalty>
-0

> <b_epik_Metal_Only>
0

> <s_lp_Force_Field>
OPLS_2005

> <r_lp_Energy>
25.5639

> <b_lp_Chiralities_Consistent>
1

> <s_lp_Variant>
AV-unprocessed.smi:1660-1

> <Gold.Version>
5.8.1

> <Gold.Id.Protein>
6NUR|6NUR_protein|mol2

> <Gold.PLP.Fitness>
44.3427

> <Gold.PLP.PLP>
-38.9997

> <Gold.PLP.part.hbond>
-2.9854

> <Gold.PLP.part.metal>
0.0000

> <Gold.PLP.part.buried>
-4.0411

> <Gold.PLP.part.nonpolar>
-33.0804

> <Gold.PLP.part.repulsive>
0.5952

> <Gold.PLP.ligand.clash>
0.0000

> <Gold.PLP.ligand.torsion>
0.2175

> <Gold.PLP.Chemscore.Hbond>
1.9120

> <Gold.PLP.Chemscore.CHOScore>
0.0000

> <Gold.PLP.Chemscore.Metal>
0.0000

> <Gold.Chemscore.Hbonds>
donor molecule, donor type, donor heavy atom, donor atom, acceptor molecule, acceptor atom, score
      L1  H     7    28       P1  8028  1.00
      L1  H    10    29       P1  8028  0.90

> <Gold.PLP.Chemscore.Internal.Correction>
0.0421

> <Gold.Rescore>
     Score         DG    S(hbond)    S(metal)    S(lipo)     H(rot)  DE(clash)    DE(int)     intcor
     13.84     -15.64       1.92        0.00      73.14       1.88       0.34       1.45       ----

> <Gold.Chemscore.Fitness>
13.8433

> <Gold.Chemscore.DG>
-15.6396

> <Gold.Chemscore.ZeroCoef>
-5.4800

> <Gold.Chemscore.Hbond>
1.9227

> <Gold.Chemscore.Metal>
0.0000

> <Gold.Chemscore.Lipo>
73.1425

> <Gold.Chemscore.Internal_Hbond>
0.0000

> <Gold.Chemscore.DEClash>
0.3448

> <Gold.Chemscore.DEInternal>
1.4515

> <Gold.Chemscore.Rot>
1.8828

> <Gold.Chemscore.Internal.Correction>
   9.000000E+99

> <Gold.Chemscore.Hbonds>
donor molecule, donor type, donor heavy atom, donor atom, acceptor molecule, acceptor atom, score
      L1  H     7    28       P1  8028  0.94
      L1  H    10    29       P1  8028  0.88

> <Gold.Chemscore.Hbond.Weighted>
-6.4219

> <Gold.Chemscore.Metal.Weighted>
-0.0000

> <Gold.Chemscore.Lipo.Weighted>
-8.5577

> <Gold.Chemscore.Internal_Hbond.Weighted>
0.0000

> <Gold.Chemscore.DEClash.Weighted>
0.3448

> <Gold.Chemscore.DEInternal.Weighted>
1.4515

> <Gold.Chemscore.Rot.Weighted>
4.8200

> <Gold.Chemscore.Internal.Correction.Weighted>
   9.000000E+99

> <Gold.Protein.RotatedTorsions>
[ 6907 6896 6895 6894 ] final  -50.41 input  -60.11 | X-H torsion
[ 7974 7965 7964 7962 ] final  -29.24 input  175.53 | X-H torsion
[ 8008 7997 7996 7995 ] final  -24.78 input   59.86 | X-H torsion
[ 10167 10162 10161 10158 ] final -123.37 input  -65.29 | X-H torsion
[ 10718 10713 10712 10709 ] final  -60.78 input   66.30 | X-H torsion
[ 10763 10752 10751 10750 ] final   38.88 input  -60.55 | X-H torsion
[ 11005 11000 10999 10996 ] final -172.92 input  -57.11 | X-H torsion

> <Gold.Protein.ActiveResidues>
 VAL166  LYS551  ARG553  GLY616  TRP617  ASP618  TYR619  PRO620  LYS621  CYS622 
 ASP623  PHE694  ASN695  SER759  ASP760  ASP761  ALA762  ILE779  LEU786  VAL792 
 PHE793  MET794  SER795  GLU796  ALA797  LYS798  CYS799  TRP800  GLU811  SER814 

> <Gold.Protein.RotatedAtoms>
  150.8709  134.8083  159.7153 H   0  0  0  0  0  0  0  0  0  0  0  0  # atno 6907 bound_to 6896
  152.4714  134.4948  159.9716 H   0  0  0  0  0  0  0  0  0  0  0  0  # atno 6908 bound_to 6896
  151.5036  133.3461  159.2908 H   0  0  0  0  0  0  0  0  0  0  0  0  # atno 6909 bound_to 6896
  146.1231  140.5386  142.8726 H   0  0  0  0  0  0  0  0  0  0  0  0  # atno 7974 bound_to 7965
  154.4511  140.1944  156.0517 H   0  0  0  0  0  0  0  0  0  0  0  0  # atno 8008 bound_to 7997
  156.0649  140.3292  155.7479 H   0  0  0  0  0  0  0  0  0  0  0  0  # atno 8009 bound_to 7997
  155.5354  140.0581  157.2871 H   0  0  0  0  0  0  0  0  0  0  0  0  # atno 8010 bound_to 7997
  140.0042  143.5509  152.2291 H   0  0  0  0  0  0  0  0  0  0  0  0  # atno 10167 bound_to 10162
  156.0967  130.4192  150.0902 H   0  0  0  0  0  0  0  0  0  0  0  0  # atno 10718 bound_to 10713
  152.9986  135.6236  154.2376 H   0  0  0  0  0  0  0  0  0  0  0  0  # atno 10763 bound_to 10752
  154.2117  135.2799  155.2957 H   0  0  0  0  0  0  0  0  0  0  0  0  # atno 10764 bound_to 10752
  154.5601  135.5708  153.7058 H   0  0  0  0  0  0  0  0  0  0  0  0  # atno 10765 bound_to 10752
  140.4916  134.5979  157.4956 H   0  0  0  0  0  0  0  0  0  0  0  0  # atno 11005 bound_to 11000
  144.7616  140.5435  143.6731 LP  0  0  0  0  0  0  0  0  0  0  0  0  # atno 17320 bound_to 7965
  145.5423  139.1475  143.3440 LP  0  0  0  0  0  0  0  0  0  0  0  0  # atno 17321 bound_to 7965
  139.6250  144.7635  151.2658 LP  0  0  0  0  0  0  0  0  0  0  0  0  # atno 17342 bound_to 10162
  140.7407  143.6580  150.8189 LP  0  0  0  0  0  0  0  0  0  0  0  0  # atno 17343 bound_to 10162
  156.8899  130.9585  151.3589 LP  0  0  0  0  0  0  0  0  0  0  0  0  # atno 17370 bound_to 10713
  157.6129  130.8596  149.8981 LP  0  0  0  0  0  0  0  0  0  0  0  0  # atno 17371 bound_to 10713
  139.9766  134.7206  155.9939 LP  0  0  0  0  0  0  0  0  0  0  0  0  # atno 17394 bound_to 11000
  141.1481  133.6552  156.3929 LP  0  0  0  0  0  0  0  0  0  0  0  0  # atno 17395 bound_to 11000

$$$$
