AV-unprocessed.smi:163|AV-procd|sdf|1381|dock9
  -GOLD-   2262019113D 1   1.00000     0.00000
 Structure written by MMmdl.
 48 51  0  0  0  0  0  0  0  0  1 V2000
  153.0536  142.7912  159.9002 N   0  0  0  0  0  0  0  0  0  0  0  0
  152.3620  141.9367  159.5383 C   0  0  0  0  0  0  0  0  0  0  0  0
  151.4793  140.8519  159.0776 C   0  0  0  0  0  0  0  0  0  0  0  0
  151.9370  140.2030  157.7646 C   0  0  0  0  0  0  0  0  0  0  0  0
  153.0945  139.7914  157.6752 O   0  0  0  0  0  0  0  0  0  0  0  0
  151.0508  140.1033  156.7463 N   0  0  0  0  0  0  0  0  0  0  0  0
  151.3119  139.4531  155.4566 C   0  0  0  0  0  0  0  0  0  0  0  0
  150.4335  138.1935  155.3446 C   0  0  0  0  0  0  0  0  0  0  0  0
  149.0234  138.5243  155.5619 N   0  0  0  0  0  0  0  0  0  0  0  0
  148.1334  137.5665  155.1949 C   0  0  0  0  0  0  0  0  0  0  0  0
  148.0812  136.3938  155.8823 N   0  0  0  0  0  0  0  0  0  0  0  0
  147.2147  135.4399  155.5291 C   0  0  0  0  0  0  0  0  0  0  0  0
  146.3200  135.4503  154.5394 N   0  0  0  0  0  0  0  0  0  0  0  0
  146.3580  136.6275  153.8519 C   0  0  0  0  0  0  0  0  0  0  0  0
  147.2255  137.7272  154.1092 C   0  0  0  0  0  0  0  0  0  0  0  0
  146.9632  138.7535  153.2090 N   0  0  0  0  0  0  0  0  0  0  0  0
  146.0070  138.2832  152.4563 C   0  0  0  0  0  0  0  0  0  0  0  0
  145.5759  137.0161  152.7779 N   0  0  0  0  0  0  0  0  0  0  0  0
  144.5313  136.2548  152.1095 C   0  0  0  0  0  0  0  0  0  0  0  0
  145.0152  135.4803  150.8572 C   0  0  2  0  0  0  0  0  0  0  0  0
  145.5044  136.4024  149.9004 O   0  0  0  0  0  0  0  0  0  0  0  0
  143.9405  134.6061  150.2082 C   0  0  0  0  0  0  0  0  0  0  0  0
  144.2290  133.2300  150.7889 C   0  0  0  0  0  0  0  0  0  0  0  0
  145.6451  133.1924  150.7852 O   0  0  0  0  0  0  0  0  0  0  0  0
  146.1202  134.4638  151.2123 C   0  0  0  0  0  0  0  0  0  0  0  0
  148.7346  139.3059  156.7679 C   0  0  0  0  0  0  0  0  0  0  0  0
  149.6531  140.5392  156.8531 C   0  0  0  0  0  0  0  0  0  0  0  0
  151.4437  140.1042  159.8703 H   0  0  0  0  0  0  0  0  0  0  0  0
  150.4811  141.2744  158.9584 H   0  0  0  0  0  0  0  0  0  0  0  0
  151.0662  140.1485  154.6528 H   0  0  0  0  0  0  0  0  0  0  0  0
  152.3560  139.1861  155.3033 H   0  0  0  0  0  0  0  0  0  0  0  0
  150.5929  137.7327  154.3712 H   0  0  0  0  0  0  0  0  0  0  0  0
  150.7396  137.4592  156.0909 H   0  0  0  0  0  0  0  0  0  0  0  0
  147.2427  134.5395  156.1250 H   0  0  0  0  0  0  0  0  0  0  0  0
  145.5815  138.8541  151.6434 H   0  0  0  0  0  0  0  0  0  0  0  0
  144.1015  135.5629  152.8352 H   0  0  0  0  0  0  0  0  0  0  0  0
  143.7301  136.9428  151.8365 H   0  0  0  0  0  0  0  0  0  0  0  0
  145.6923  135.9329  149.1018 H   0  0  0  0  0  0  0  0  0  0  0  0
  142.9177  134.9334  150.3890 H   0  0  0  0  0  0  0  0  0  0  0  0
  144.0795  134.5624  149.1265 H   0  0  0  0  0  0  0  0  0  0  0  0
  143.8559  133.1469  151.8111 H   0  0  0  0  0  0  0  0  0  0  0  0
  143.8020  132.4215  150.1951 H   0  0  0  0  0  0  0  0  0  0  0  0
  147.0767  134.6840  150.7361 H   0  0  0  0  0  0  0  0  0  0  0  0
  146.2951  134.4257  152.2885 H   0  0  0  0  0  0  0  0  0  0  0  0
  147.6926  139.6289  156.7633 H   0  0  0  0  0  0  0  0  0  0  0  0
  148.8752  138.6767  157.6483 H   0  0  0  0  0  0  0  0  0  0  0  0
  149.4473  141.0893  157.7721 H   0  0  0  0  0  0  0  0  0  0  0  0
  149.4311  141.2276  156.0364 H   0  0  0  0  0  0  0  0  0  0  0  0
  1  2  3  0  0  0  0
  2  3  1  0  0  0  0
  3  4  1  0  0  0  0
  3 28  1  0  0  0  0
  3 29  1  0  0  0  0
  4  5  2  0  0  0  0
  4  6  1  0  0  0  0
  6 27  1  0  0  0  0
  6  7  1  0  0  0  0
  7  8  1  0  0  0  0
  7 30  1  0  0  0  0
  7 31  1  0  0  0  0
  8  9  1  0  0  0  0
  8 32  1  0  0  0  0
  8 33  1  0  0  0  0
  9 10  1  0  0  0  0
  9 26  1  0  0  0  0
 10 15  1  0  0  0  0
 10 11  2  0  0  0  0
 11 12  1  0  0  0  0
 12 13  2  0  0  0  0
 12 34  1  0  0  0  0
 13 14  1  0  0  0  0
 14 18  1  0  0  0  0
 14 15  2  0  0  0  0
 15 16  1  0  0  0  0
 16 17  2  0  0  0  0
 17 18  1  0  0  0  0
 17 35  1  0  0  0  0
 18 19  1  0  0  0  0
 19 20  1  0  0  0  0
 19 36  1  0  0  0  0
 19 37  1  0  0  0  0
 20 25  1  0  0  0  0
 20 21  1  0  0  0  0
 20 22  1  0  0  0  0
 21 38  1  0  0  0  0
 22 23  1  0  0  0  0
 22 39  1  0  0  0  0
 22 40  1  0  0  0  0
 23 24  1  0  0  0  0
 23 41  1  0  0  0  0
 23 42  1  0  0  0  0
 24 25  1  0  0  0  0
 25 43  1  0  0  0  0
 25 44  1  0  0  0  0
 26 27  1  0  0  0  0
 26 45  1  0  0  0  0
 26 46  1  0  0  0  0
 27 47  1  0  0  0  0
 27 48  1  0  0  0  0
M  END
> <s_m_source_file>
AV-unprocessed.smi

> <i_m_source_file_index>
163

> <i_lp_mmshare_version>
43012

> <i_f3d_flags>
0

> <s_epik_input>
TiNDW0NIMl1DKD1PKU4xW0NIMl1bQ0gyXU4oW0NIMl1bQ0gyXTEpYyhuW2NIXW4yKWMoYzIzKW5bY0hdbjNbQ0gyXVtDQEBdNChbT0hdKVtDSDJdW0NIMl1PW0NIMl00

> <s_epik_cmdline>
J2VwaWtfcHl0aG9uJywgJy1waCcsICc3LjAnLCAnLXRuJywgJzgnLCAnLW1hJywgJzIwMCcsICctbWV0YWxfYmluZGluZycsICctaW1hZScsICc8aW5maWxlLm1hZT4nLCAnLW9tYWUnLCAnPG91dGZpbGUubWFlPic=

> <r_lp_tautomer_probability>
1

> <r_epik_Ionization_Penalty>
0.000981096

> <r_epik_Ionization_Penalty_Charging>
0

> <r_epik_Ionization_Penalty_Neutral>
0.000981096

> <r_epik_State_Penalty>
0.000482875

> <r_epik_Charging_Adjusted_Penalty>
0.000482875

> <i_epik_Tot_Q>
0

> <i_epik_Tot_abs_Q>
0

> <r_epik_Metal_State_Penalty>
-0

> <b_epik_Metal_Only>
0

> <s_lp_Force_Field>
OPLS_2005

> <r_lp_Energy>
51.4692

> <b_lp_Chiralities_Consistent>
1

> <s_lp_Variant>
AV-unprocessed.smi:163-2

> <Gold.Version>
5.8.1

> <Gold.Id.Protein>
6NUR|6NUR_protein|mol2

> <Gold.PLP.Fitness>
42.0027

> <Gold.PLP.PLP>
-31.6887

> <Gold.PLP.part.hbond>
-2.9441

> <Gold.PLP.part.metal>
0.0000

> <Gold.PLP.part.buried>
-2.9504

> <Gold.PLP.part.nonpolar>
-27.2264

> <Gold.PLP.part.repulsive>
0.5634

> <Gold.PLP.ligand.clash>
0.0000

> <Gold.PLP.ligand.torsion>
0.6586

> <Gold.PLP.Chemscore.Hbond>
2.0000

> <Gold.PLP.Chemscore.CHOScore>
1.7124

> <Gold.PLP.Chemscore.Metal>
0.0000

> <Gold.Chemscore.Hbonds>
donor molecule, donor type, donor heavy atom, donor atom, acceptor molecule, acceptor atom, score
      L1  H    21    38       P1  7921  1.00
      P1  H  7997  8008       L1     5  1.00
      L1  C    17    35       P1 10171  1.00
      L1  C    17    35       P1 10175  0.53

> <Gold.PLP.Chemscore.Internal.Correction>
0.4938

> <Gold.Rescore>
     Score         DG    S(hbond)    S(metal)    S(lipo)     H(rot)  DE(clash)    DE(int)     intcor
     10.66     -11.55       2.00        0.00      54.54       2.72       0.13       0.76       ----

> <Gold.Chemscore.Fitness>
10.6634

> <Gold.Chemscore.DG>
-11.5543

> <Gold.Chemscore.ZeroCoef>
-5.4800

> <Gold.Chemscore.Hbond>
1.9953

> <Gold.Chemscore.Metal>
0.0000

> <Gold.Chemscore.Lipo>
54.5381

> <Gold.Chemscore.Internal_Hbond>
0.0000

> <Gold.Chemscore.DEClash>
0.1342

> <Gold.Chemscore.DEInternal>
0.7567

> <Gold.Chemscore.Rot>
2.7230

> <Gold.Chemscore.Internal.Correction>
   9.000000E+99

> <Gold.Chemscore.Hbonds>
donor molecule, donor type, donor heavy atom, donor atom, acceptor molecule, acceptor atom, score
      L1  H    21    38       P1  7921  1.00
      P1  H  7997  8008       L1     5  0.96

> <Gold.Chemscore.Hbond.Weighted>
-6.6643

> <Gold.Chemscore.Metal.Weighted>
-0.0000

> <Gold.Chemscore.Lipo.Weighted>
-6.3810

> <Gold.Chemscore.Internal_Hbond.Weighted>
0.0000

> <Gold.Chemscore.DEClash.Weighted>
0.1342

> <Gold.Chemscore.DEInternal.Weighted>
0.7567

> <Gold.Chemscore.Rot.Weighted>
6.9709

> <Gold.Chemscore.Internal.Correction.Weighted>
   9.000000E+99

> <Gold.Protein.RotatedTorsions>
[ 6907 6896 6895 6894 ] final  -54.38 input  -60.11 | X-H torsion
[ 7974 7965 7964 7962 ] final   21.41 input  175.53 | X-H torsion
[ 8008 7997 7996 7995 ] final  -59.63 input   59.86 | X-H torsion
[ 10167 10162 10161 10158 ] final -174.11 input  -65.29 | X-H torsion
[ 10718 10713 10712 10709 ] final   40.04 input   66.30 | X-H torsion
[ 10763 10752 10751 10750 ] final  123.30 input  -60.55 | X-H torsion
[ 11005 11000 10999 10996 ] final   23.49 input  -57.11 | X-H torsion

> <Gold.Protein.ActiveResidues>
 VAL166  LYS551  ARG553  GLY616  TRP617  ASP618  TYR619  PRO620  LYS621  CYS622 
 ASP623  PHE694  ASN695  SER759  ASP760  ASP761  ALA762  ILE779  LEU786  VAL792 
 PHE793  MET794  SER795  GLU796  ALA797  LYS798  CYS799  TRP800  GLU811  SER814 

> <Gold.Protein.RotatedAtoms>
  150.8343  134.7609  159.6879 H   0  0  0  0  0  0  0  0  0  0  0  0  # atno 6907 bound_to 6896
  152.4442  134.5525  159.9881 H   0  0  0  0  0  0  0  0  0  0  0  0  # atno 6908 bound_to 6896
  151.5679  133.3356  159.3019 H   0  0  0  0  0  0  0  0  0  0  0  0  # atno 6909 bound_to 6896
  146.2072  139.8031  142.8716 H   0  0  0  0  0  0  0  0  0  0  0  0  # atno 7974 bound_to 7965
  154.4361  140.1057  156.6147 H   0  0  0  0  0  0  0  0  0  0  0  0  # atno 8008 bound_to 7997
  155.5772  140.3490  155.4512 H   0  0  0  0  0  0  0  0  0  0  0  0  # atno 8009 bound_to 7997
  156.0345  140.1268  157.0211 H   0  0  0  0  0  0  0  0  0  0  0  0  # atno 8010 bound_to 7997
  139.5651  144.1774  152.1300 H   0  0  0  0  0  0  0  0  0  0  0  0  # atno 10167 bound_to 10162
  157.3775  130.7735  149.7167 H   0  0  0  0  0  0  0  0  0  0  0  0  # atno 10718 bound_to 10713
  153.6434  135.3375  155.3078 H   0  0  0  0  0  0  0  0  0  0  0  0  # atno 10763 bound_to 10752
  154.8554  135.4324  154.1980 H   0  0  0  0  0  0  0  0  0  0  0  0  # atno 10764 bound_to 10752
  153.2905  135.7016  153.7372 H   0  0  0  0  0  0  0  0  0  0  0  0  # atno 10765 bound_to 10752
  140.3691  134.2042  155.7668 H   0  0  0  0  0  0  0  0  0  0  0  0  # atno 11005 bound_to 11000
  145.3275  141.0259  143.3465 LP  0  0  0  0  0  0  0  0  0  0  0  0  # atno 17320 bound_to 7965
  144.8822  139.4888  143.6717 LP  0  0  0  0  0  0  0  0  0  0  0  0  # atno 17321 bound_to 7965
  140.1296  144.5300  150.6811 LP  0  0  0  0  0  0  0  0  0  0  0  0  # atno 17342 bound_to 10162
  140.6934  143.2389  151.5067 LP  0  0  0  0  0  0  0  0  0  0  0  0  # atno 17343 bound_to 10162
  155.9768  130.4070  150.3751 LP  0  0  0  0  0  0  0  0  0  0  0  0  # atno 17370 bound_to 10713
  157.1851  131.0401  151.2729 LP  0  0  0  0  0  0  0  0  0  0  0  0  # atno 17371 bound_to 10713
  141.1960  133.8092  157.0690 LP  0  0  0  0  0  0  0  0  0  0  0  0  # atno 17394 bound_to 11000
  140.0566  134.9777  157.1231 LP  0  0  0  0  0  0  0  0  0  0  0  0  # atno 17395 bound_to 11000

$$$$
