AV-unprocessed.smi:115|AV-procd|sdf|1126|dock5
  -GOLD-   2262018253D 1   1.00000     0.00000
 Structure written by MMmdl.
 55 57  0  0  0  0  0  0  0  0  1 V2000
  153.4974  129.6008  153.3842 C   0  0  0  0  0  0  0  0  0  0  0  0
  152.1765  129.9036  153.7979 O   0  0  0  0  0  0  0  0  0  0  0  0
  152.0140  131.2679  154.1521 C   0  0  0  0  0  0  0  0  0  0  0  0
  150.5386  131.6678  153.9466 C   0  0  1  0  0  0  0  0  0  0  0  0
  149.5502  130.8686  154.8132 C   0  0  0  0  0  0  0  0  0  0  0  0
  150.3021  133.1181  154.0412 N   0  0  0  0  0  0  0  0  0  0  0  0
  149.4107  133.8137  153.2250 C   0  0  0  0  0  0  0  0  0  0  0  0
  148.5881  133.1656  152.1562 C   0  0  0  0  0  0  0  0  0  0  0  0
  149.4523  135.1274  153.5811 C   0  0  0  0  0  0  0  0  0  0  0  0
  150.3704  135.2776  154.6535 C   0  0  0  0  0  0  0  0  0  0  0  0
  150.7631  136.5331  155.3438 C   0  0  0  0  0  0  0  0  0  0  0  0
  150.6144  136.7160  156.5528 O   0  0  0  0  0  0  0  0  0  0  0  0
  151.3968  137.6165  154.4509 C   0  0  0  0  0  0  0  0  0  0  0  0
  150.8482  138.9453  154.6917 N   0  0  0  0  0  0  0  0  0  0  0  0
  151.5275  139.7906  155.6045 C   0  0  0  0  0  0  0  0  0  0  0  0
  152.5572  139.4381  156.1825 O   0  0  0  0  0  0  0  0  0  0  0  0
  150.8980  141.0906  155.8092 C   0  0  0  0  0  0  0  0  0  0  0  0
  151.4553  141.9725  156.6562 F   0  0  0  0  0  0  0  0  0  0  0  0
  149.7578  141.4231  155.1664 C   0  0  0  0  0  0  0  0  0  0  0  0
  149.1140  140.5747  154.2810 N   0  0  0  0  0  0  0  0  0  0  0  0
  147.8258  140.9763  153.5969 C   0  0  1  0  0  0  0  0  0  0  0  0
  146.6839  140.0519  154.0337 C   0  0  0  0  0  0  0  0  0  0  0  0
  146.0931  140.8181  155.1968 C   0  0  0  0  0  0  0  0  0  0  0  0
  146.2715  142.2604  154.7362 C   0  0  0  0  0  0  0  0  0  0  0  0
  147.4844  142.2757  153.9866 O   0  0  0  0  0  0  0  0  0  0  0  0
  149.6461  139.2918  154.0290 C   0  0  0  0  0  0  0  0  0  0  0  0
  149.0700  138.5059  153.2730 O   0  0  0  0  0  0  0  0  0  0  0  0
  150.8639  134.0267  154.9522 C   0  0  0  0  0  0  0  0  0  0  0  0
  151.8304  133.6061  156.0253 C   0  0  0  0  0  0  0  0  0  0  0  0
  153.5654  128.5451  153.1218 H   0  0  0  0  0  0  0  0  0  0  0  0
  154.2153  129.7959  154.1818 H   0  0  0  0  0  0  0  0  0  0  0  0
  153.7801  130.1843  152.5072 H   0  0  0  0  0  0  0  0  0  0  0  0
  152.3344  131.4091  155.1830 H   0  0  0  0  0  0  0  0  0  0  0  0
  152.6572  131.8800  153.5176 H   0  0  0  0  0  0  0  0  0  0  0  0
  150.3285  131.3782  152.9188 H   0  0  0  0  0  0  0  0  0  0  0  0
  149.6677  129.7976  154.6475 H   0  0  0  0  0  0  0  0  0  0  0  0
  148.5207  131.1251  154.5618 H   0  0  0  0  0  0  0  0  0  0  0  0
  149.6808  131.0485  155.8783 H   0  0  0  0  0  0  0  0  0  0  0  0
  147.8944  133.8810  151.7144 H   0  0  0  0  0  0  0  0  0  0  0  0
  147.9989  132.3415  152.5590 H   0  0  0  0  0  0  0  0  0  0  0  0
  149.2206  132.7809  151.3558 H   0  0  0  0  0  0  0  0  0  0  0  0
  148.8771  135.9089  153.1065 H   0  0  0  0  0  0  0  0  0  0  0  0
  152.4766  137.6605  154.5992 H   0  0  0  0  0  0  0  0  0  0  0  0
  151.2592  137.3848  153.3935 H   0  0  0  0  0  0  0  0  0  0  0  0
  149.3372  142.3967  155.3682 H   0  0  0  0  0  0  0  0  0  0  0  0
  148.0317  140.9545  152.5255 H   0  0  0  0  0  0  0  0  0  0  0  0
  145.9635  139.9799  153.2180 H   0  0  0  0  0  0  0  0  0  0  0  0
  147.0305  139.0501  154.2897 H   0  0  0  0  0  0  0  0  0  0  0  0
  145.0532  140.5592  155.3971 H   0  0  0  0  0  0  0  0  0  0  0  0
  146.6714  140.6344  156.1030 H   0  0  0  0  0  0  0  0  0  0  0  0
  145.4521  142.5512  154.0779 H   0  0  0  0  0  0  0  0  0  0  0  0
  146.3064  142.9650  155.5672 H   0  0  0  0  0  0  0  0  0  0  0  0
  151.7558  134.2437  156.9043 H   0  0  0  0  0  0  0  0  0  0  0  0
  152.8569  133.6534  155.6620 H   0  0  0  0  0  0  0  0  0  0  0  0
  151.6408  132.6005  156.3881 H   0  0  0  0  0  0  0  0  0  0  0  0
  1  2  1  0  0  0  0
  1 30  1  0  0  0  0
  1 31  1  0  0  0  0
  1 32  1  0  0  0  0
  2  3  1  0  0  0  0
  3  4  1  0  0  0  0
  3 33  1  0  0  0  0
  3 34  1  0  0  0  0
  4  5  1  0  0  0  0
  4  6  1  0  0  0  0
  4 35  1  0  0  0  0
  5 36  1  0  0  0  0
  5 37  1  0  0  0  0
  5 38  1  0  0  0  0
  6 28  1  0  0  0  0
  6  7  1  0  0  0  0
  7  8  1  0  0  0  0
  7  9  2  0  0  0  0
  8 39  1  0  0  0  0
  8 40  1  0  0  0  0
  8 41  1  0  0  0  0
  9 10  1  0  0  0  0
  9 42  1  0  0  0  0
 10 11  1  0  0  0  0
 10 28  2  0  0  0  0
 11 12  2  0  0  0  0
 11 13  1  0  0  0  0
 13 14  1  0  0  0  0
 13 43  1  0  0  0  0
 13 44  1  0  0  0  0
 14 26  1  0  0  0  0
 14 15  1  0  0  0  0
 15 16  2  0  0  0  0
 15 17  1  0  0  0  0
 17 18  1  0  0  0  0
 17 19  2  0  0  0  0
 19 20  1  0  0  0  0
 19 45  1  0  0  0  0
 20 21  1  0  0  0  0
 20 26  1  0  0  0  0
 21 25  1  0  0  0  0
 21 22  1  0  0  0  0
 21 46  1  0  0  0  0
 22 23  1  0  0  0  0
 22 47  1  0  0  0  0
 22 48  1  0  0  0  0
 23 24  1  0  0  0  0
 23 49  1  0  0  0  0
 23 50  1  0  0  0  0
 24 25  1  0  0  0  0
 24 51  1  0  0  0  0
 24 52  1  0  0  0  0
 26 27  2  0  0  0  0
 28 29  1  0  0  0  0
 29 53  1  0  0  0  0
 29 54  1  0  0  0  0
 29 55  1  0  0  0  0
M  END
> <s_m_source_file>
AV-unprocessed.smi

> <i_m_source_file_index>
115

> <i_lp_mmshare_version>
43012

> <i_f3d_flags>
0

> <s_epik_input>
W0NIM11PW0NIMl1bQ0BIXShbQ0gzXSluMWMoW0NIM10pW2NIXWMoYzFbQ0gzXSlDKD1PKVtDSDJdbjJjKD1PKWMoRilbY0hdbihjMj1PKVtDQEBIXTNbQ0gyXVtDSDJdW0NIMl1PMw==

> <s_epik_cmdline>
J2VwaWtfcHl0aG9uJywgJy1waCcsICc3LjAnLCAnLXRuJywgJzgnLCAnLW1hJywgJzIwMCcsICctbWV0YWxfYmluZGluZycsICctaW1hZScsICc8aW5maWxlLm1hZT4nLCAnLW9tYWUnLCAnPG91dGZpbGUubWFlPic=

> <r_lp_tautomer_probability>
1

> <r_epik_Ionization_Penalty>
5.02611e-09

> <r_epik_Ionization_Penalty_Charging>
5.01743e-09

> <r_epik_Ionization_Penalty_Neutral>
8.68114e-12

> <r_epik_State_Penalty>
-0

> <r_epik_Charging_Adjusted_Penalty>
5.01743e-09

> <i_epik_Tot_Q>
0

> <i_epik_Tot_abs_Q>
0

> <r_epik_Metal_State_Penalty>
-0

> <b_epik_Metal_Only>
0

> <s_epik_Chemistry_Notes>
This compound contains an acetal/aminal-like group ( X-CH(R)-Y where X, Y are N, S, or O) that may be acid/base labile, releasing an aldehyde.

> <s_lp_Force_Field>
OPLS_2005

> <r_lp_Energy>
46.6669

> <b_lp_Chiralities_Consistent>
1

> <s_lp_Variant>
AV-unprocessed.smi:115-4

> <Gold.Version>
5.8.1

> <Gold.Id.Protein>
6NUR|6NUR_protein|mol2

> <Gold.PLP.Fitness>
45.0966

> <Gold.PLP.PLP>
-43.6944

> <Gold.PLP.part.hbond>
-1.0000

> <Gold.PLP.part.metal>
0.0000

> <Gold.PLP.part.buried>
-3.3077

> <Gold.PLP.part.nonpolar>
-41.3982

> <Gold.PLP.part.repulsive>
2.3947

> <Gold.PLP.ligand.clash>
0.0000

> <Gold.PLP.ligand.torsion>
2.4709

> <Gold.PLP.Chemscore.Hbond>
1.0000

> <Gold.PLP.Chemscore.CHOScore>
1.0000

> <Gold.PLP.Chemscore.Metal>
0.0000

> <Gold.Chemscore.Hbonds>
donor molecule, donor type, donor heavy atom, donor atom, acceptor molecule, acceptor atom, score
      P1  H  7997  8008       L1    16  0.84
      L1  C    19    45       P1  8028  1.00

> <Gold.PLP.Chemscore.Internal.Correction>
0.3439

> <Gold.Rescore>
     Score         DG    S(hbond)    S(metal)    S(lipo)     H(rot)  DE(clash)    DE(int)     intcor
      6.30     -12.29       0.87        0.00      81.30       2.19       1.62       4.37       ----

> <Gold.Chemscore.Fitness>
6.2992

> <Gold.Chemscore.DG>
-12.2941

> <Gold.Chemscore.ZeroCoef>
-5.4800

> <Gold.Chemscore.Hbond>
0.8736

> <Gold.Chemscore.Metal>
0.0000

> <Gold.Chemscore.Lipo>
81.3023

> <Gold.Chemscore.Internal_Hbond>
0.0000

> <Gold.Chemscore.DEClash>
1.6210

> <Gold.Chemscore.DEInternal>
4.3738

> <Gold.Chemscore.Rot>
2.1938

> <Gold.Chemscore.Internal.Correction>
   9.000000E+99

> <Gold.Chemscore.Hbonds>
donor molecule, donor type, donor heavy atom, donor atom, acceptor molecule, acceptor atom, score
      P1  H  7997  8008       L1    16  0.79

> <Gold.Chemscore.Hbond.Weighted>
-2.9177

> <Gold.Chemscore.Metal.Weighted>
-0.0000

> <Gold.Chemscore.Lipo.Weighted>
-9.5124

> <Gold.Chemscore.Internal_Hbond.Weighted>
0.0000

> <Gold.Chemscore.DEClash.Weighted>
1.6210

> <Gold.Chemscore.DEInternal.Weighted>
4.3738

> <Gold.Chemscore.Rot.Weighted>
5.6160

> <Gold.Chemscore.Internal.Correction.Weighted>
   9.000000E+99

> <Gold.Protein.RotatedTorsions>
[ 6907 6896 6895 6894 ] final  100.63 input  -60.11 | X-H torsion
[ 7974 7965 7964 7962 ] final  156.78 input  175.53 | X-H torsion
[ 8008 7997 7996 7995 ] final  -68.51 input   59.86 | X-H torsion
[ 10167 10162 10161 10158 ] final   80.63 input  -65.29 | X-H torsion
[ 10718 10713 10712 10709 ] final  -97.97 input   66.30 | X-H torsion
[ 10763 10752 10751 10750 ] final  -35.05 input  -60.55 | X-H torsion
[ 11005 11000 10999 10996 ] final -130.29 input  -57.11 | X-H torsion

> <Gold.Protein.ActiveResidues>
 VAL166  LYS551  ARG553  GLY616  TRP617  ASP618  TYR619  PRO620  LYS621  CYS622 
 ASP623  PHE694  ASN695  SER759  ASP760  ASP761  ALA762  ILE779  LEU786  VAL792 
 PHE793  MET794  SER795  GLU796  ALA797  LYS798  CYS799  TRP800  GLU811  SER814 

> <Gold.Protein.RotatedAtoms>
  152.5368  134.0248  159.7997 H   0  0  0  0  0  0  0  0  0  0  0  0  # atno 6907 bound_to 6896
  151.0428  133.5683  159.2656 H   0  0  0  0  0  0  0  0  0  0  0  0  # atno 6908 bound_to 6896
  151.2646  135.0672  159.9165 H   0  0  0  0  0  0  0  0  0  0  0  0  # atno 6909 bound_to 6896
  144.7942  139.7250  143.6208 H   0  0  0  0  0  0  0  0  0  0  0  0  # atno 7974 bound_to 7965
  154.4873  140.0871  156.7514 H   0  0  0  0  0  0  0  0  0  0  0  0  # atno 8008 bound_to 7997
  155.4319  140.3450  155.4263 H   0  0  0  0  0  0  0  0  0  0  0  0  # atno 8009 bound_to 7997
  156.1279  140.1493  156.9097 H   0  0  0  0  0  0  0  0  0  0  0  0  # atno 8010 bound_to 7997
  139.9477  144.6047  150.8190 H   0  0  0  0  0  0  0  0  0  0  0  0  # atno 10167 bound_to 10162
  156.0096  130.5217  150.6454 H   0  0  0  0  0  0  0  0  0  0  0  0  # atno 10718 bound_to 10713
  153.8568  135.6844  153.4787 H   0  0  0  0  0  0  0  0  0  0  0  0  # atno 10763 bound_to 10752
  153.1365  135.4675  154.9428 H   0  0  0  0  0  0  0  0  0  0  0  0  # atno 10764 bound_to 10752
  154.7777  135.3258  154.8005 H   0  0  0  0  0  0  0  0  0  0  0  0  # atno 10765 bound_to 10752
  140.9358  134.1258  157.4194 H   0  0  0  0  0  0  0  0  0  0  0  0  # atno 11005 bound_to 11000
  146.2205  139.5627  142.9621 LP  0  0  0  0  0  0  0  0  0  0  0  0  # atno 17320 bound_to 7965
  145.5715  141.0393  143.2172 LP  0  0  0  0  0  0  0  0  0  0  0  0  # atno 17321 bound_to 7965
  140.7592  143.3124  151.2814 LP  0  0  0  0  0  0  0  0  0  0  0  0  # atno 17342 bound_to 10162
  139.6653  144.0116  152.2719 LP  0  0  0  0  0  0  0  0  0  0  0  0  # atno 17343 bound_to 10162
  157.4226  131.0839  151.1117 LP  0  0  0  0  0  0  0  0  0  0  0  0  # atno 17370 bound_to 10713
  157.1714  130.6269  149.5642 LP  0  0  0  0  0  0  0  0  0  0  0  0  # atno 17371 bound_to 10713
  139.8807  135.0020  156.6103 LP  0  0  0  0  0  0  0  0  0  0  0  0  # atno 17394 bound_to 11000
  140.7801  133.8667  155.8560 LP  0  0  0  0  0  0  0  0  0  0  0  0  # atno 17395 bound_to 11000

$$$$
