AV-unprocessed.smi:2353|AV-procd|sdf|9382|dock2
  -GOLD-   2272013 13D 1   1.00000     0.00000
 Structure written by MMmdl.
 46 48  0  0  0  0  0  0  0  0  2 V2000
  147.5058  132.5185  160.0986 C   0  0  0  0  0  0  0  0  0  0  0  0
  147.4100  133.8056  160.8916 C   0  0  0  0  0  0  0  0  0  0  0  0
  147.0898  133.7741  162.2625 C   0  0  0  0  0  0  0  0  0  0  0  0
  147.0084  134.9738  162.9921 C   0  0  0  0  0  0  0  0  0  0  0  0
  147.2448  136.2105  162.3570 C   0  0  0  0  0  0  0  0  0  0  0  0
  147.1502  137.4949  163.1593 C   0  0  0  0  0  0  0  0  0  0  0  0
  147.5648  136.2569  160.9802 C   0  0  0  0  0  0  0  0  0  0  0  0
  147.7818  137.4994  160.4206 O   0  0  0  0  0  0  0  0  0  0  0  0
  147.7832  137.6172  159.0043 C   0  0  0  0  0  0  0  0  0  0  0  0
  149.0899  138.3004  158.5676 C   0  0  2  0  0  0  0  0  0  0  0  0
  149.1694  138.1911  157.1591 O   0  0  0  0  0  0  0  0  0  0  0  0
  150.3318  137.6029  159.1660 C   0  0  0  0  0  0  0  0  0  0  0  0
  151.4739  138.5181  159.2790 N   0  0  0  0  0  0  0  0  0  0  0  0
  151.2036  139.8081  158.8583 N   0  0  0  0  0  0  0  0  0  0  0  0
  152.1103  140.7298  158.9174 C   0  0  0  0  0  0  0  0  0  0  0  0
  151.8752  142.1015  158.4985 N   0  0  0  0  0  0  0  0  0  0  0  0
  152.5016  143.2639  158.8796 C   0  0  0  0  0  0  0  0  0  0  0  0
  151.8897  144.2745  158.1827 C   0  0  0  0  0  0  0  0  0  0  0  0
  150.9213  143.6891  157.4102 N   0  3  0  0  0  0  0  0  0  0  0  0
  150.9109  142.3653  157.6020 C   0  0  0  0  0  0  0  0  0  0  0  0
  153.4363  140.4087  159.4229 C   0  0  0  0  0  0  0  0  0  0  0  0
  153.6903  139.1467  159.8311 C   0  0  0  0  0  0  0  0  0  0  0  0
  152.6730  138.0981  159.7802 C   0  0  0  0  0  0  0  0  0  0  0  0
  152.8743  136.9444  160.1581 O   0  0  0  0  0  0  0  0  0  0  0  0
  147.6466  135.0407  160.2549 C   0  0  0  0  0  0  0  0  0  0  0  0
  147.1268  131.6704  160.6699 H   0  0  0  0  0  0  0  0  0  0  0  0
  148.5439  132.3159  159.8345 H   0  0  0  0  0  0  0  0  0  0  0  0
  146.9255  132.5941  159.1787 H   0  0  0  0  0  0  0  0  0  0  0  0
  146.9068  132.8326  162.7596 H   0  0  0  0  0  0  0  0  0  0  0  0
  146.7630  134.9400  164.0435 H   0  0  0  0  0  0  0  0  0  0  0  0
  146.3505  138.1249  162.7687 H   0  0  0  0  0  0  0  0  0  0  0  0
  148.0865  138.0503  163.0984 H   0  0  0  0  0  0  0  0  0  0  0  0
  146.9426  137.2953  164.2110 H   0  0  0  0  0  0  0  0  0  0  0  0
  147.7401  136.6130  158.5798 H   0  0  0  0  0  0  0  0  0  0  0  0
  146.9149  138.1715  158.6428 H   0  0  0  0  0  0  0  0  0  0  0  0
  149.0649  139.3511  158.8598 H   0  0  0  0  0  0  0  0  0  0  0  0
  148.8093  138.9765  156.7764 H   0  0  0  0  0  0  0  0  0  0  0  0
  150.0982  137.2152  160.1593 H   0  0  0  0  0  0  0  0  0  0  0  0
  150.5967  136.7202  158.5803 H   0  0  0  0  0  0  0  0  0  0  0  0
  153.3109  143.3039  159.5930 H   0  0  0  0  0  0  0  0  0  0  0  0
  152.0669  145.3402  158.1789 H   0  0  0  0  0  0  0  0  0  0  0  0
  150.2499  141.6645  157.1223 H   0  0  0  0  0  0  0  0  0  0  0  0
  154.2153  141.1525  159.4788 H   0  0  0  0  0  0  0  0  0  0  0  0
  154.6729  138.9027  160.2079 H   0  0  0  0  0  0  0  0  0  0  0  0
  147.8921  135.0294  159.2038 H   0  0  0  0  0  0  0  0  0  0  0  0
  150.3000  144.1854  156.7836 H   0  0  0  0  0  0  0  0  0  0  0  0
  1  2  1  0  0  0  0
  1 26  1  0  0  0  0
  1 27  1  0  0  0  0
  1 28  1  0  0  0  0
  2 25  1  0  0  0  0
  2  3  2  0  0  0  0
  3  4  1  0  0  0  0
  3 29  1  0  0  0  0
  4  5  2  0  0  0  0
  4 30  1  0  0  0  0
  5  6  1  0  0  0  0
  5  7  1  0  0  0  0
  6 31  1  0  0  0  0
  6 32  1  0  0  0  0
  6 33  1  0  0  0  0
  7  8  1  0  0  0  0
  7 25  2  0  0  0  0
  8  9  1  0  0  0  0
  9 10  1  0  0  0  0
  9 34  1  0  0  0  0
  9 35  1  0  0  0  0
 10 11  1  0  0  0  0
 10 12  1  0  0  0  0
 10 36  1  0  0  0  0
 11 37  1  0  0  0  0
 12 13  1  0  0  0  0
 12 38  1  0  0  0  0
 12 39  1  0  0  0  0
 13 23  1  0  0  0  0
 13 14  1  0  0  0  0
 14 15  2  0  0  0  0
 15 16  1  0  0  0  0
 15 21  1  0  0  0  0
 16 20  1  0  0  0  0
 16 17  1  0  0  0  0
 17 18  2  0  0  0  0
 17 40  1  0  0  0  0
 18 19  1  0  0  0  0
 18 41  1  0  0  0  0
 19 20  2  0  0  0  0
 19 46  1  0  0  0  0
 20 42  1  0  0  0  0
 21 22  2  0  0  0  0
 21 43  1  0  0  0  0
 22 23  1  0  0  0  0
 22 44  1  0  0  0  0
 23 24  2  0  0  0  0
 25 45  1  0  0  0  0
M  CHG  1  19   1
M  END
> <s_m_source_file>
AV-unprocessed.smi

> <i_m_source_file_index>
2353

> <i_lp_mmshare_version>
43012

> <i_f3d_flags>
0

> <s_epik_input>
W0NIM11jMVtjSF1bY0hdYyhbQ0gzXSljKFtjSF0xKU9bQ0gyXVtDQEhdKFtPSF0pW0NIMl1uMm5jKFtjSF1bY0hdYzI9TyktbjNbY0hdW2NIXW5bY0hdMw==

> <s_epik_cmdline>
J2VwaWtfcHl0aG9uJywgJy1waCcsICc3LjAnLCAnLXRuJywgJzgnLCAnLW1hJywgJzIwMCcsICctbWV0YWxfYmluZGluZycsICctaW1hZScsICc8aW5maWxlLm1hZT4nLCAnLW9tYWUnLCAnPG91dGZpbGUubWFlPic=

> <r_lp_tautomer_probability>
1

> <r_epik_Ionization_Penalty>
1.66053

> <r_epik_Ionization_Penalty_Charging>
2.43903e-09

> <r_epik_Ionization_Penalty_Neutral>
1.66053

> <r_epik_State_Penalty>
1.76336

> <r_epik_Charging_Adjusted_Penalty>
1.76336

> <i_epik_Tot_Q>
1

> <i_epik_Tot_abs_Q>
1

> <r_epik_Metal_State_Penalty>
1.79856

> <b_epik_Metal_Only>
0

> <s_lp_Force_Field>
OPLS_2005

> <r_lp_Energy>
37.6947

> <b_lp_Chiralities_Consistent>
1

> <s_lp_Variant>
AV-unprocessed.smi:2353-3

> <Gold.Version>
5.8.1

> <Gold.Id.Protein>
6NUR|6NUR_protein|mol2

> <Gold.PLP.Fitness>
62.1032

> <Gold.PLP.PLP>
-51.2550

> <Gold.PLP.part.hbond>
-3.9800

> <Gold.PLP.part.metal>
0.0000

> <Gold.PLP.part.buried>
-5.3442

> <Gold.PLP.part.nonpolar>
-43.1811

> <Gold.PLP.part.repulsive>
0.0000

> <Gold.PLP.ligand.clash>
0.0000

> <Gold.PLP.ligand.torsion>
1.1656

> <Gold.PLP.Chemscore.Hbond>
4.3698

> <Gold.PLP.Chemscore.CHOScore>
0.0000

> <Gold.PLP.Chemscore.Metal>
0.0000

> <Gold.Chemscore.Hbonds>
donor molecule, donor type, donor heavy atom, donor atom, acceptor molecule, acceptor atom, score
      L1  H    19    46       P1  8028  2.00
      P1  H  6896  6907       L1    24  0.88
      P1  H  6931  6943       L1     8  0.48
      P1  H  6934  6947       L1     8  0.80

> <Gold.PLP.Chemscore.Internal.Correction>
0.0700

> <Gold.Rescore>
     Score         DG    S(hbond)    S(metal)    S(lipo)     H(rot)  DE(clash)    DE(int)     intcor
     19.14     -20.55       2.59        0.00     113.05       2.65       0.13       1.28       ----

> <Gold.Chemscore.Fitness>
19.1391

> <Gold.Chemscore.DG>
-20.5520

> <Gold.Chemscore.ZeroCoef>
-5.4800

> <Gold.Chemscore.Hbond>
2.5865

> <Gold.Chemscore.Metal>
0.0000

> <Gold.Chemscore.Lipo>
113.0470

> <Gold.Chemscore.Internal_Hbond>
0.0000

> <Gold.Chemscore.DEClash>
0.1335

> <Gold.Chemscore.DEInternal>
1.2794

> <Gold.Chemscore.Rot>
2.6537

> <Gold.Chemscore.Internal.Correction>
   9.000000E+99

> <Gold.Chemscore.Hbonds>
donor molecule, donor type, donor heavy atom, donor atom, acceptor molecule, acceptor atom, score
      L1  H    19    46       P1  8028  0.98
      P1  H  6896  6907       L1    24  0.86
      P1  H  6931  6943       L1     8  0.09
      P1  H  6934  6947       L1     8  0.28

> <Gold.Chemscore.Hbond.Weighted>
-8.6390

> <Gold.Chemscore.Metal.Weighted>
-0.0000

> <Gold.Chemscore.Lipo.Weighted>
-13.2265

> <Gold.Chemscore.Internal_Hbond.Weighted>
0.0000

> <Gold.Chemscore.DEClash.Weighted>
0.1335

> <Gold.Chemscore.DEInternal.Weighted>
1.2794

> <Gold.Chemscore.Rot.Weighted>
6.7935

> <Gold.Chemscore.Internal.Correction.Weighted>
   9.000000E+99

> <Gold.Protein.RotatedTorsions>
[ 6907 6896 6895 6894 ] final   32.25 input  -60.11 | X-H torsion
[ 7974 7965 7964 7962 ] final   47.67 input  175.53 | X-H torsion
[ 8008 7997 7996 7995 ] final -134.42 input   59.86 | X-H torsion
[ 10167 10162 10161 10158 ] final -177.45 input  -65.29 | X-H torsion
[ 10718 10713 10712 10709 ] final   53.39 input   66.30 | X-H torsion
[ 10763 10752 10751 10750 ] final  -45.74 input  -60.55 | X-H torsion
[ 11005 11000 10999 10996 ] final  122.59 input  -57.11 | X-H torsion

> <Gold.Protein.ActiveResidues>
 VAL166  LYS551  ARG553  GLY616  TRP617  ASP618  TYR619  PRO620  LYS621  CYS622 
 ASP623  PHE694  ASN695  SER759  ASP760  ASP761  ALA762  ILE779  LEU786  VAL792 
 PHE793  MET794  SER795  GLU796  ALA797  LYS798  CYS799  TRP800  GLU811  SER814 

> <Gold.Protein.RotatedAtoms>
  152.0719  134.9528  160.0574 H   0  0  0  0  0  0  0  0  0  0  0  0  # atno 6907 bound_to 6896
  152.0851  133.4167  159.4527 H   0  0  0  0  0  0  0  0  0  0  0  0  # atno 6908 bound_to 6896
  150.6836  134.2857  159.4689 H   0  0  0  0  0  0  0  0  0  0  0  0  # atno 6909 bound_to 6896
  146.0276  139.4725  142.9858 H   0  0  0  0  0  0  0  0  0  0  0  0  # atno 7974 bound_to 7965
  155.3617  140.0483  157.3046 H   0  0  0  0  0  0  0  0  0  0  0  0  # atno 8008 bound_to 7997
  154.5174  140.2213  155.9003 H   0  0  0  0  0  0  0  0  0  0  0  0  # atno 8009 bound_to 7997
  156.1652  140.3108  155.8882 H   0  0  0  0  0  0  0  0  0  0  0  0  # atno 8010 bound_to 7997
  139.5480  144.2185  152.1024 H   0  0  0  0  0  0  0  0  0  0  0  0  # atno 10167 bound_to 10162
  157.5162  130.8534  149.8499 H   0  0  0  0  0  0  0  0  0  0  0  0  # atno 10718 bound_to 10713
  154.0335  135.6653  153.4783 H   0  0  0  0  0  0  0  0  0  0  0  0  # atno 10763 bound_to 10752
  153.0531  135.5072  154.7911 H   0  0  0  0  0  0  0  0  0  0  0  0  # atno 10764 bound_to 10752
  154.6863  135.3053  154.9507 H   0  0  0  0  0  0  0  0  0  0  0  0  # atno 10765 bound_to 10752
  139.9275  134.9641  156.8132 H   0  0  0  0  0  0  0  0  0  0  0  0  # atno 11005 bound_to 11000
  145.7093  141.0111  143.1462 LP  0  0  0  0  0  0  0  0  0  0  0  0  # atno 17320 bound_to 7965
  144.7016  139.8738  143.7442 LP  0  0  0  0  0  0  0  0  0  0  0  0  # atno 17321 bound_to 7965
  140.1675  144.4967  150.6598 LP  0  0  0  0  0  0  0  0  0  0  0  0  # atno 17342 bound_to 10162
  140.6734  143.2295  151.5569 LP  0  0  0  0  0  0  0  0  0  0  0  0  # atno 17343 bound_to 10162
  156.0322  130.3761  150.1657 LP  0  0  0  0  0  0  0  0  0  0  0  0  # atno 17370 bound_to 10713
  156.9846  130.9874  151.3429 LP  0  0  0  0  0  0  0  0  0  0  0  0  # atno 17371 bound_to 10713
  140.6295  133.9919  155.7655 LP  0  0  0  0  0  0  0  0  0  0  0  0  # atno 17394 bound_to 11000
  141.0842  134.0016  157.3339 LP  0  0  0  0  0  0  0  0  0  0  0  0  # atno 17395 bound_to 11000

$$$$
