AV-unprocessed.smi:1410|AV-procd|sdf|5732|dock3
  -GOLD-   22720 5363D 1   1.00000     0.00000
 Structure written by MMmdl.
 40 41  0  0  0  0  0  0  0  0  2 V2000
  152.6194  129.0568  154.8153 N   0  0  0  0  0  0  0  0  0  0  0  0
  151.3801  129.5456  154.9062 C   0  0  0  0  0  0  0  0  0  0  0  0
  150.4590  129.1358  154.2029 O   0  0  0  0  0  0  0  0  0  0  0  0
  151.1365  130.6508  155.9411 C   0  0  0  0  0  0  0  0  0  0  0  0
  150.8056  131.9729  155.3617 N   0  0  0  0  0  0  0  0  0  0  0  0
  150.7642  132.9719  156.4345 C   0  0  0  0  0  0  0  0  0  0  0  0
  150.5564  134.3817  155.8548 C   0  0  0  0  0  0  0  0  0  0  0  0
  149.2600  134.4568  155.0367 C   0  0  0  0  0  0  0  0  0  0  0  0
  149.1443  135.7693  154.4081 N   0  0  0  0  0  0  0  0  0  0  0  0
  149.1296  136.9396  155.0619 C   0  0  0  0  0  0  0  0  0  0  0  0
  149.2043  137.0341  156.2868 O   0  0  0  0  0  0  0  0  0  0  0  0
  149.0034  137.9716  154.2094 N   0  0  0  0  0  0  0  0  0  0  0  0
  148.9643  139.3628  154.4998 C   0  0  0  0  0  0  0  0  0  0  0  0
  149.8087  139.8391  155.5275 C   0  0  0  0  0  0  0  0  0  0  0  0
  149.7932  141.2084  155.8627 C   0  0  0  0  0  0  0  0  0  0  0  0
  148.9668  142.0517  155.2076 N   0  3  0  0  0  0  0  0  0  0  0  0
  148.1321  141.6417  154.2287 C   0  0  0  0  0  0  0  0  0  0  0  0
  148.1032  140.2840  153.8499 C   0  0  0  0  0  0  0  0  0  0  0  0
  149.2721  133.3390  153.9811 C   0  0  0  0  0  0  0  0  0  0  0  0
  149.5333  131.9655  154.6243 C   0  0  0  0  0  0  0  0  0  0  0  0
  152.8208  128.3263  154.1480 H   0  0  0  0  0  0  0  0  0  0  0  0
  153.3494  129.4155  155.4134 H   0  0  0  0  0  0  0  0  0  0  0  0
  150.3477  130.3440  156.6311 H   0  0  0  0  0  0  0  0  0  0  0  0
  152.0485  130.7351  156.5340 H   0  0  0  0  0  0  0  0  0  0  0  0
  149.9703  132.7347  157.1455 H   0  0  0  0  0  0  0  0  0  0  0  0
  151.7025  132.9566  156.9909 H   0  0  0  0  0  0  0  0  0  0  0  0
  150.5304  135.1121  156.6643 H   0  0  0  0  0  0  0  0  0  0  0  0
  151.4106  134.6442  155.2281 H   0  0  0  0  0  0  0  0  0  0  0  0
  148.4168  134.3031  155.7130 H   0  0  0  0  0  0  0  0  0  0  0  0
  149.0709  135.7831  153.4012 H   0  0  0  0  0  0  0  0  0  0  0  0
  148.8685  137.7278  153.2391 H   0  0  0  0  0  0  0  0  0  0  0  0
  150.4688  139.1644  156.0534 H   0  0  0  0  0  0  0  0  0  0  0  0
  150.4110  141.6502  156.6309 H   0  0  0  0  0  0  0  0  0  0  0  0
  147.5111  142.4056  153.7838 H   0  0  0  0  0  0  0  0  0  0  0  0
  147.4133  139.9766  153.0790 H   0  0  0  0  0  0  0  0  0  0  0  0
  148.3221  133.3162  153.4460 H   0  0  0  0  0  0  0  0  0  0  0  0
  150.0419  133.5395  153.2341 H   0  0  0  0  0  0  0  0  0  0  0  0
  149.5470  131.2201  153.8290 H   0  0  0  0  0  0  0  0  0  0  0  0
  148.7126  131.6983  155.2925 H   0  0  0  0  0  0  0  0  0  0  0  0
  148.9699  143.0389  155.4661 H   0  0  0  0  0  0  0  0  0  0  0  0
  1  2  1  0  0  0  0
  1 21  1  0  0  0  0
  1 22  1  0  0  0  0
  2  3  2  0  0  0  0
  2  4  1  0  0  0  0
  4  5  1  0  0  0  0
  4 23  1  0  0  0  0
  4 24  1  0  0  0  0
  5 20  1  0  0  0  0
  5  6  1  0  0  0  0
  6  7  1  0  0  0  0
  6 25  1  0  0  0  0
  6 26  1  0  0  0  0
  7  8  1  0  0  0  0
  7 27  1  0  0  0  0
  7 28  1  0  0  0  0
  8  9  1  0  0  0  0
  8 19  1  0  0  0  0
  8 29  1  0  0  0  0
  9 10  1  0  0  0  0
  9 30  1  0  0  0  0
 10 11  2  0  0  0  0
 10 12  1  0  0  0  0
 12 13  1  0  0  0  0
 12 31  1  0  0  0  0
 13 18  1  0  0  0  0
 13 14  2  0  0  0  0
 14 15  1  0  0  0  0
 14 32  1  0  0  0  0
 15 16  2  0  0  0  0
 15 33  1  0  0  0  0
 16 17  1  0  0  0  0
 16 40  1  0  0  0  0
 17 18  2  0  0  0  0
 17 34  1  0  0  0  0
 18 35  1  0  0  0  0
 19 20  1  0  0  0  0
 19 36  1  0  0  0  0
 19 37  1  0  0  0  0
 20 38  1  0  0  0  0
 20 39  1  0  0  0  0
M  CHG  1  16   1
M  END
> <s_m_source_file>
AV-unprocessed.smi

> <i_m_source_file_index>
1410

> <i_lp_mmshare_version>
43012

> <i_f3d_flags>
0

> <s_epik_input>
W05IMl1DKD1PKVtDSDJdTjFbQ0gyXVtDSDJdW0NIXShbQ0gyXVtDSDJdMSlbTkhdQyg9TylbTkhdYzJbY0hdW2NIXW5bY0hdW2NIXTI=

> <s_epik_cmdline>
J2VwaWtfcHl0aG9uJywgJy1waCcsICc3LjAnLCAnLXRuJywgJzgnLCAnLW1hJywgJzIwMCcsICctbWV0YWxfYmluZGluZycsICctaW1hZScsICc8aW5maWxlLm1hZT4nLCAnLW9tYWUnLCAnPG91dGZpbGUubWFlPic=

> <r_epik_Ionization_Penalty>
1.15133

> <r_epik_Ionization_Penalty_Charging>
0.995513

> <r_epik_Ionization_Penalty_Neutral>
0.155816

> <r_epik_State_Penalty>
1.22158

> <r_epik_Charging_Adjusted_Penalty>
2.2171

> <i_epik_Tot_Q>
1

> <i_epik_Tot_abs_Q>
1

> <r_epik_Metal_State_Penalty>
1.3359

> <b_epik_Metal_Only>
0

> <s_lp_Force_Field>
OPLS_2005

> <r_lp_Energy>
21.9587

> <b_lp_Chiralities_Consistent>
1

> <s_lp_Variant>
AV-unprocessed.smi:1410-4

> <Gold.Version>
5.8.1

> <Gold.Id.Protein>
6NUR|6NUR_protein|mol2

> <Gold.PLP.Fitness>
46.3756

> <Gold.PLP.PLP>
-33.0282

> <Gold.PLP.part.hbond>
-4.0000

> <Gold.PLP.part.metal>
0.0000

> <Gold.PLP.part.buried>
-1.1692

> <Gold.PLP.part.nonpolar>
-26.9205

> <Gold.PLP.part.repulsive>
0.4466

> <Gold.PLP.ligand.clash>
0.0000

> <Gold.PLP.ligand.torsion>
0.3623

> <Gold.PLP.Chemscore.Hbond>
4.6886

> <Gold.PLP.Chemscore.CHOScore>
0.0000

> <Gold.PLP.Chemscore.Metal>
0.0000

> <Gold.Chemscore.Hbonds>
donor molecule, donor type, donor heavy atom, donor atom, acceptor molecule, acceptor atom, score
      L1  H     9    30       P1  7948  1.00
      L1  H    12    31       P1  7948  0.91
      L1  H    16    40       P1  8028  2.00

> <Gold.PLP.Chemscore.Internal.Correction>
0.0062

> <Gold.Rescore>
     Score         DG    S(hbond)    S(metal)    S(lipo)     H(rot)  DE(clash)    DE(int)     intcor
     17.98     -19.73       3.58        0.00      62.74       1.96       0.01       1.74       ----

> <Gold.Chemscore.Fitness>
17.9810

> <Gold.Chemscore.DG>
-19.7349

> <Gold.Chemscore.ZeroCoef>
-5.4800

> <Gold.Chemscore.Hbond>
3.5763

> <Gold.Chemscore.Metal>
0.0000

> <Gold.Chemscore.Lipo>
62.7381

> <Gold.Chemscore.Internal_Hbond>
0.0000

> <Gold.Chemscore.DEClash>
0.0126

> <Gold.Chemscore.DEInternal>
1.7412

> <Gold.Chemscore.Rot>
1.9650

> <Gold.Chemscore.Internal.Correction>
   9.000000E+99

> <Gold.Chemscore.Hbonds>
donor molecule, donor type, donor heavy atom, donor atom, acceptor molecule, acceptor atom, score
      L1  H     9    30       P1  7948  0.80
      L1  H    12    31       P1  7948  0.85
      L1  H    16    40       P1  8028  1.00

> <Gold.Chemscore.Hbond.Weighted>
-11.9448

> <Gold.Chemscore.Metal.Weighted>
-0.0000

> <Gold.Chemscore.Lipo.Weighted>
-7.3404

> <Gold.Chemscore.Internal_Hbond.Weighted>
0.0000

> <Gold.Chemscore.DEClash.Weighted>
0.0126

> <Gold.Chemscore.DEInternal.Weighted>
1.7412

> <Gold.Chemscore.Rot.Weighted>
5.0303

> <Gold.Chemscore.Internal.Correction.Weighted>
   9.000000E+99

> <Gold.Protein.RotatedTorsions>
[ 6907 6896 6895 6894 ] final  138.21 input  -60.11 | X-H torsion
[ 7974 7965 7964 7962 ] final  -94.35 input  175.53 | X-H torsion
[ 8008 7997 7996 7995 ] final  157.59 input   59.86 | X-H torsion
[ 10167 10162 10161 10158 ] final   35.93 input  -65.29 | X-H torsion
[ 10718 10713 10712 10709 ] final  136.70 input   66.30 | X-H torsion
[ 10763 10752 10751 10750 ] final   77.22 input  -60.55 | X-H torsion
[ 11005 11000 10999 10996 ] final   22.62 input  -57.11 | X-H torsion

> <Gold.Protein.ActiveResidues>
 VAL166  LYS551  ARG553  GLY616  TRP617  ASP618  TYR619  PRO620  LYS621  CYS622 
 ASP623  PHE694  ASN695  SER759  ASP760  ASP761  ALA762  ILE779  LEU786  VAL792 
 PHE793  MET794  SER795  GLU796  ALA797  LYS798  CYS799  TRP800  GLU811  SER814 

> <Gold.Protein.RotatedAtoms>
  152.2692  133.5367  159.5428 H   0  0  0  0  0  0  0  0  0  0  0  0  # atno 6907 bound_to 6896
  150.7153  134.0721  159.3877 H   0  0  0  0  0  0  0  0  0  0  0  0  # atno 6908 bound_to 6896
  151.8637  135.0515  160.0523 H   0  0  0  0  0  0  0  0  0  0  0  0  # atno 6909 bound_to 6896
  145.3744  140.9509  143.2429 H   0  0  0  0  0  0  0  0  0  0  0  0  # atno 7974 bound_to 7965
  156.2354  140.1881  156.7132 H   0  0  0  0  0  0  0  0  0  0  0  0  # atno 8008 bound_to 7997
  154.6098  140.0623  156.9506 H   0  0  0  0  0  0  0  0  0  0  0  0  # atno 8009 bound_to 7997
  155.2035  140.3294  155.4342 H   0  0  0  0  0  0  0  0  0  0  0  0  # atno 8010 bound_to 7997
  140.4176  144.1505  150.6145 H   0  0  0  0  0  0  0  0  0  0  0  0  # atno 10167 bound_to 10162
  157.4439  131.1060  151.0112 H   0  0  0  0  0  0  0  0  0  0  0  0  # atno 10718 bound_to 10713
  153.0782  135.4922  154.8448 H   0  0  0  0  0  0  0  0  0  0  0  0  # atno 10763 bound_to 10752
  154.7116  135.3021  154.9191 H   0  0  0  0  0  0  0  0  0  0  0  0  # atno 10764 bound_to 10752
  153.9883  135.6781  153.4806 H   0  0  0  0  0  0  0  0  0  0  0  0  # atno 10765 bound_to 10752
  140.3785  134.1946  155.7664 H   0  0  0  0  0  0  0  0  0  0  0  0  # atno 11005 bound_to 11000
  144.8553  139.5260  143.6837 LP  0  0  0  0  0  0  0  0  0  0  0  0  # atno 17320 bound_to 7965
  146.2870  139.7033  142.9188 LP  0  0  0  0  0  0  0  0  0  0  0  0  # atno 17321 bound_to 7965
  140.4569  143.2464  151.9272 LP  0  0  0  0  0  0  0  0  0  0  0  0  # atno 17342 bound_to 10162
  139.4782  144.5506  151.8391 LP  0  0  0  0  0  0  0  0  0  0  0  0  # atno 17343 bound_to 10162
  157.0966  130.5964  149.5451 LP  0  0  0  0  0  0  0  0  0  0  0  0  # atno 17370 bound_to 10713
  155.9959  130.5027  150.7478 LP  0  0  0  0  0  0  0  0  0  0  0  0  # atno 17371 bound_to 10713
  141.1931  133.8158  157.0812 LP  0  0  0  0  0  0  0  0  0  0  0  0  # atno 17394 bound_to 11000
  140.0496  134.9812  157.1113 LP  0  0  0  0  0  0  0  0  0  0  0  0  # atno 17395 bound_to 11000

$$$$
