AV-unprocessed.smi:2083|AV-procd|sdf|8491|dock3
  -GOLD-   2272011203D 1   1.00000     0.00000
 Structure written by MMmdl.
 45 46  0  0  0  0  0  0  0  0  2 V2000
  150.7386  142.0348  156.6149 C   0  0  0  0  0  0  0  0  0  0  0  0
  150.4801  140.9280  155.6511 C   0  0  0  0  0  0  0  0  0  0  0  0
  149.3535  140.4983  155.0081 C   0  0  0  0  0  0  0  0  0  0  0  0
  149.8231  139.4005  154.2395 C   0  0  0  0  0  0  0  0  0  0  0  0
  148.9403  138.6625  153.4101 N   0  0  0  0  0  0  0  0  0  0  0  0
  147.6090  138.8070  153.3005 C   0  0  0  0  0  0  0  0  0  0  0  0
  146.9284  139.6143  153.9339 O   0  0  0  0  0  0  0  0  0  0  0  0
  147.0961  137.9470  152.4079 N   0  0  0  0  0  0  0  0  0  0  0  0
  145.6873  137.8590  152.0320 C   0  0  0  0  0  0  0  0  0  0  0  0
  144.9471  136.7131  152.7690 C   0  0  1  0  0  0  0  0  0  0  0  0
  143.4121  136.8359  152.7084 C   0  0  0  0  0  0  0  0  0  0  0  0
  145.3768  135.3560  152.3203 N   0  3  1  0  0  0  0  0  0  0  0  0
  145.6116  134.3674  153.4078 C   0  0  0  0  0  0  0  0  0  0  0  0
  146.2871  133.1045  152.8521 C   0  0  0  0  0  0  0  0  0  0  0  0
  145.4459  132.4862  151.7271 C   0  0  0  0  0  0  0  0  0  0  0  0
  145.1701  133.5269  150.6278 C   0  0  1  0  0  0  0  0  0  0  0  0
  144.3012  132.9409  149.5059 C   0  0  0  0  0  0  0  0  0  0  0  0
  144.5293  134.7912  151.2361 C   0  0  0  0  0  0  0  0  0  0  0  0
  151.1188  139.1788  154.3993 N   0  0  0  0  0  0  0  0  0  0  0  0
  151.5465  140.1566  155.3053 O   0  0  0  0  0  0  0  0  0  0  0  0
  149.8372  142.6249  156.7821 H   0  0  0  0  0  0  0  0  0  0  0  0
  151.5142  142.7018  156.2382 H   0  0  0  0  0  0  0  0  0  0  0  0
  151.0678  141.6410  157.5765 H   0  0  0  0  0  0  0  0  0  0  0  0
  148.3563  140.9064  155.0781 H   0  0  0  0  0  0  0  0  0  0  0  0
  149.3712  137.9543  152.8348 H   0  0  0  0  0  0  0  0  0  0  0  0
  147.7313  137.3186  151.9377 H   0  0  0  0  0  0  0  0  0  0  0  0
  145.1969  138.8174  152.2067 H   0  0  0  0  0  0  0  0  0  0  0  0
  145.6563  137.6968  150.9548 H   0  0  0  0  0  0  0  0  0  0  0  0
  145.2030  136.7870  153.8270 H   0  0  0  0  0  0  0  0  0  0  0  0
  143.0643  137.7249  153.2344 H   0  0  0  0  0  0  0  0  0  0  0  0
  142.9300  135.9790  153.1803 H   0  0  0  0  0  0  0  0  0  0  0  0
  143.0478  136.9024  151.6833 H   0  0  0  0  0  0  0  0  0  0  0  0
  146.2427  134.7955  154.1861 H   0  0  0  0  0  0  0  0  0  0  0  0
  144.6660  134.0940  153.8775 H   0  0  0  0  0  0  0  0  0  0  0  0
  147.2802  133.3535  152.4756 H   0  0  0  0  0  0  0  0  0  0  0  0
  146.4320  132.3769  153.6512 H   0  0  0  0  0  0  0  0  0  0  0  0
  145.9633  131.6220  151.3089 H   0  0  0  0  0  0  0  0  0  0  0  0
  144.5041  132.1172  152.1358 H   0  0  0  0  0  0  0  0  0  0  0  0
  146.1263  133.8132  150.1864 H   0  0  0  0  0  0  0  0  0  0  0  0
  143.3242  132.6327  149.8796 H   0  0  0  0  0  0  0  0  0  0  0  0
  144.7758  132.0677  149.0571 H   0  0  0  0  0  0  0  0  0  0  0  0
  144.1386  133.6702  148.7117 H   0  0  0  0  0  0  0  0  0  0  0  0
  143.5374  134.5573  151.6251 H   0  0  0  0  0  0  0  0  0  0  0  0
  144.3942  135.5358  150.4506 H   0  0  0  0  0  0  0  0  0  0  0  0
  146.2795  135.5041  151.8918 H   0  0  0  0  0  0  0  0  0  0  0  0
  1  2  1  0  0  0  0
  1 21  1  0  0  0  0
  1 22  1  0  0  0  0
  1 23  1  0  0  0  0
  2 20  1  0  0  0  0
  2  3  2  0  0  0  0
  3  4  1  0  0  0  0
  3 24  1  0  0  0  0
  4  5  1  0  0  0  0
  4 19  2  0  0  0  0
  5  6  1  0  0  0  0
  5 25  1  0  0  0  0
  6  7  2  0  0  0  0
  6  8  1  0  0  0  0
  8  9  1  0  0  0  0
  8 26  1  0  0  0  0
  9 10  1  0  0  0  0
  9 27  1  0  0  0  0
  9 28  1  0  0  0  0
 10 11  1  0  0  0  0
 10 12  1  0  0  0  0
 10 29  1  0  0  0  0
 11 30  1  0  0  0  0
 11 31  1  0  0  0  0
 11 32  1  0  0  0  0
 12 18  1  0  0  0  0
 12 13  1  0  0  0  0
 12 45  1  0  0  0  0
 13 14  1  0  0  0  0
 13 33  1  0  0  0  0
 13 34  1  0  0  0  0
 14 15  1  0  0  0  0
 14 35  1  0  0  0  0
 14 36  1  0  0  0  0
 15 16  1  0  0  0  0
 15 37  1  0  0  0  0
 15 38  1  0  0  0  0
 16 17  1  0  0  0  0
 16 18  1  0  0  0  0
 16 39  1  0  0  0  0
 17 40  1  0  0  0  0
 17 41  1  0  0  0  0
 17 42  1  0  0  0  0
 18 43  1  0  0  0  0
 18 44  1  0  0  0  0
 19 20  1  0  0  0  0
M  CHG  1  12   1
M  END
> <s_m_source_file>
AV-unprocessed.smi

> <i_m_source_file_index>
2083

> <i_lp_mmshare_version>
43012

> <i_f3d_flags>
0

> <s_epik_input>
W0NIM11jMVtjSF1jKG5vMSlbTkhdQyg9TylbTkhdW0NIMl1bQ0BIXShbQ0gzXSlOMltDSDJdW0NIMl1bQ0gyXVtDQEBIXShbQ0gzXSlbQ0gyXTI=

> <s_epik_cmdline>
J2VwaWtfcHl0aG9uJywgJy1waCcsICc3LjAnLCAnLXRuJywgJzgnLCAnLW1hJywgJzIwMCcsICctbWV0YWxfYmluZGluZycsICctaW1hZScsICc8aW5maWxlLm1hZT4nLCAnLW9tYWUnLCAnPG91dGZpbGUubWFlPic=

> <r_epik_Ionization_Penalty>
0.00216453

> <r_epik_Ionization_Penalty_Charging>
0.00212879

> <r_epik_Ionization_Penalty_Neutral>
3.57418e-05

> <r_epik_State_Penalty>
0.00146033

> <r_epik_Charging_Adjusted_Penalty>
0.00358912

> <i_epik_Tot_Q>
1

> <i_epik_Tot_abs_Q>
1

> <r_epik_Metal_State_Penalty>
0.0215827

> <b_epik_Metal_Only>
0

> <s_lp_Force_Field>
OPLS_2005

> <r_lp_Energy>
17.3533

> <b_lp_Chiralities_Consistent>
1

> <s_lp_Variant>
AV-unprocessed.smi:2083-2

> <Gold.Version>
5.8.1

> <Gold.Id.Protein>
6NUR|6NUR_protein|mol2

> <Gold.PLP.Fitness>
36.8983

> <Gold.PLP.PLP>
-33.4966

> <Gold.PLP.part.hbond>
-5.0000

> <Gold.PLP.part.metal>
0.0000

> <Gold.PLP.part.buried>
-0.8159

> <Gold.PLP.part.nonpolar>
-27.8498

> <Gold.PLP.part.repulsive>
0.4654

> <Gold.PLP.ligand.clash>
0.0000

> <Gold.PLP.ligand.torsion>
1.1661

> <Gold.PLP.Chemscore.Hbond>
1.8640

> <Gold.PLP.Chemscore.CHOScore>
0.0000

> <Gold.PLP.Chemscore.Metal>
0.0000

> <Gold.Chemscore.Hbonds>
donor molecule, donor type, donor heavy atom, donor atom, acceptor molecule, acceptor atom, score
      L1  H     5    25       P1  7948  0.86
      L1  H     8    26       P1  7948  1.00

> <Gold.PLP.Chemscore.Internal.Correction>
0.1419

> <Gold.Rescore>
     Score         DG    S(hbond)    S(metal)    S(lipo)     H(rot)  DE(clash)    DE(int)     intcor
     12.98     -15.70       1.88        0.00      67.61       1.55       0.39       2.34       ----

> <Gold.Chemscore.Fitness>
12.9751

> <Gold.Chemscore.DG>
-15.7024

> <Gold.Chemscore.ZeroCoef>
-5.4800

> <Gold.Chemscore.Hbond>
1.8782

> <Gold.Chemscore.Metal>
0.0000

> <Gold.Chemscore.Lipo>
67.6116

> <Gold.Chemscore.Internal_Hbond>
0.0000

> <Gold.Chemscore.DEClash>
0.3879

> <Gold.Chemscore.DEInternal>
2.3393

> <Gold.Chemscore.Rot>
1.5474

> <Gold.Chemscore.Internal.Correction>
   9.000000E+99

> <Gold.Chemscore.Hbonds>
donor molecule, donor type, donor heavy atom, donor atom, acceptor molecule, acceptor atom, score
      L1  H     5    25       P1  7948  0.75
      L1  H     8    26       P1  7948  0.97

> <Gold.Chemscore.Hbond.Weighted>
-6.2730

> <Gold.Chemscore.Metal.Weighted>
-0.0000

> <Gold.Chemscore.Lipo.Weighted>
-7.9106

> <Gold.Chemscore.Internal_Hbond.Weighted>
0.0000

> <Gold.Chemscore.DEClash.Weighted>
0.3879

> <Gold.Chemscore.DEInternal.Weighted>
2.3393

> <Gold.Chemscore.Rot.Weighted>
3.9612

> <Gold.Chemscore.Internal.Correction.Weighted>
   9.000000E+99

> <Gold.Protein.RotatedTorsions>
[ 6907 6896 6895 6894 ] final   48.04 input  -60.11 | X-H torsion
[ 7974 7965 7964 7962 ] final   75.07 input  175.53 | X-H torsion
[ 8008 7997 7996 7995 ] final  -44.39 input   59.86 | X-H torsion
[ 10167 10162 10161 10158 ] final  101.18 input  -65.29 | X-H torsion
[ 10718 10713 10712 10709 ] final  114.96 input   66.30 | X-H torsion
[ 10763 10752 10751 10750 ] final  -38.90 input  -60.55 | X-H torsion
[ 11005 11000 10999 10996 ] final  -59.21 input  -57.11 | X-H torsion

> <Gold.Protein.ActiveResidues>
 VAL166  LYS551  ARG553  GLY616  TRP617  ASP618  TYR619  PRO620  LYS621  CYS622 
 ASP623  PHE694  ASN695  SER759  ASP760  ASP761  ALA762  ILE779  LEU786  VAL792 
 PHE793  MET794  SER795  GLU796  ALA797  LYS798  CYS799  TRP800  GLU811  SER814 

> <Gold.Protein.RotatedAtoms>
  152.2749  134.7892  160.0407 H   0  0  0  0  0  0  0  0  0  0  0  0  # atno 6907 bound_to 6896
  151.8492  133.3431  159.3676 H   0  0  0  0  0  0  0  0  0  0  0  0  # atno 6908 bound_to 6896
  150.7166  134.5244  159.5714 H   0  0  0  0  0  0  0  0  0  0  0  0  # atno 6909 bound_to 6896
  145.7203  139.2646  143.1600 H   0  0  0  0  0  0  0  0  0  0  0  0  # atno 7974 bound_to 7965
  154.3997  140.1423  156.3675 H   0  0  0  0  0  0  0  0  0  0  0  0  # atno 8008 bound_to 7997
  155.8123  140.3472  155.5444 H   0  0  0  0  0  0  0  0  0  0  0  0  # atno 8009 bound_to 7997
  155.8373  140.0921  157.1746 H   0  0  0  0  0  0  0  0  0  0  0  0  # atno 8010 bound_to 7997
  139.7461  144.6998  151.0503 H   0  0  0  0  0  0  0  0  0  0  0  0  # atno 10167 bound_to 10162
  157.6250  131.1006  150.7261 H   0  0  0  0  0  0  0  0  0  0  0  0  # atno 10718 bound_to 10713
  153.9206  135.6783  153.4748 H   0  0  0  0  0  0  0  0  0  0  0  0  # atno 10763 bound_to 10752
  153.1031  135.4818  154.8899 H   0  0  0  0  0  0  0  0  0  0  0  0  # atno 10764 bound_to 10752
  154.7480  135.3177  154.8566 H   0  0  0  0  0  0  0  0  0  0  0  0  # atno 10765 bound_to 10752
  141.1239  133.6615  156.5037 H   0  0  0  0  0  0  0  0  0  0  0  0  # atno 11005 bound_to 11000
  146.0632  140.7948  142.9724 LP  0  0  0  0  0  0  0  0  0  0  0  0  # atno 17320 bound_to 7965
  144.6918  140.3229  143.7229 LP  0  0  0  0  0  0  0  0  0  0  0  0  # atno 17321 bound_to 7965
  140.7792  143.4866  150.9948 LP  0  0  0  0  0  0  0  0  0  0  0  0  # atno 17342 bound_to 10162
  139.8554  143.7384  152.3176 LP  0  0  0  0  0  0  0  0  0  0  0  0  # atno 17343 bound_to 10162
  156.7611  130.4799  149.5437 LP  0  0  0  0  0  0  0  0  0  0  0  0  # atno 17370 bound_to 10713
  156.1417  130.6249  151.0477 LP  0  0  0  0  0  0  0  0  0  0  0  0  # atno 17371 bound_to 10713
  140.4425  134.7002  157.4999 LP  0  0  0  0  0  0  0  0  0  0  0  0  # atno 17394 bound_to 11000
  140.0219  134.6534  155.9227 LP  0  0  0  0  0  0  0  0  0  0  0  0  # atno 17395 bound_to 11000

$$$$
