AV-unprocessed.smi:2253|AV-procd|sdf|9118|dock1
  -GOLD-   2272012323D 1   1.00000     0.00000
 Structure written by MMmdl.
 52 54  0  0  0  0  0  0  0  0  3 V2000
  151.1631  144.0451  158.5020 C   0  0  0  0  0  0  0  0  0  0  0  0
  150.3864  143.1145  157.6546 N   0  3  2  0  0  0  0  0  0  0  0  0
  149.7436  142.0336  158.4434 C   0  0  0  0  0  0  0  0  0  0  0  0
  148.8791  141.1282  157.5454 C   0  0  0  0  0  0  0  0  0  0  0  0
  149.7014  140.5010  156.3934 C   0  0  2  0  0  0  0  0  0  0  0  0
  150.7023  139.4892  156.8821 N   0  3  2  0  0  0  0  0  0  0  0  0
  151.6900  139.0032  155.8754 C   0  0  0  0  0  0  0  0  0  0  0  0
  151.0414  138.0608  154.8443 C   0  0  0  0  0  0  0  0  0  0  0  0
  150.4005  136.8509  155.5453 C   0  0  2  0  0  0  0  0  0  0  0  0
  149.7230  136.0037  154.5675 N   0  0  0  0  0  0  0  0  0  0  0  0
  149.3603  134.7289  154.7765 C   0  0  0  0  0  0  0  0  0  0  0  0
  149.5423  134.1462  155.8444 O   0  0  0  0  0  0  0  0  0  0  0  0
  148.7862  134.2027  153.6804 N   0  0  0  0  0  0  0  0  0  0  0  0
  148.2815  132.8904  153.4556 C   0  0  0  0  0  0  0  0  0  0  0  0
  148.8456  131.7019  153.9825 C   0  0  0  0  0  0  0  0  0  0  0  0
  148.2372  130.4693  153.6714 C   0  0  0  0  0  0  0  0  0  0  0  0
  147.1394  130.3550  152.8951 N   0  0  0  0  0  0  0  0  0  0  0  0
  146.6032  131.4881  152.3953 C   0  0  0  0  0  0  0  0  0  0  0  0
  147.1333  132.7700  152.6440 C   0  0  0  0  0  0  0  0  0  0  0  0
  146.5450  133.8672  152.1085 F   0  0  0  0  0  0  0  0  0  0  0  0
  149.4261  137.3295  156.6393 C   0  0  0  0  0  0  0  0  0  0  0  0
  150.1123  138.3215  157.6002 C   0  0  0  0  0  0  0  0  0  0  0  0
  150.3226  141.6852  155.6123 C   0  0  0  0  0  0  0  0  0  0  0  0
  151.1822  142.5868  156.5182 C   0  0  0  0  0  0  0  0  0  0  0  0
  152.0005  143.5344  158.9798 H   0  0  0  0  0  0  0  0  0  0  0  0
  150.5329  144.4728  159.2824 H   0  0  0  0  0  0  0  0  0  0  0  0
  151.5592  144.8685  157.9067 H   0  0  0  0  0  0  0  0  0  0  0  0
  150.5076  141.4443  158.9530 H   0  0  0  0  0  0  0  0  0  0  0  0
  149.1186  142.4777  159.2193 H   0  0  0  0  0  0  0  0  0  0  0  0
  148.3654  140.3806  158.1461 H   0  0  0  0  0  0  0  0  0  0  0  0
  148.0775  141.7316  157.1166 H   0  0  0  0  0  0  0  0  0  0  0  0
  149.0128  139.9943  155.7176 H   0  0  0  0  0  0  0  0  0  0  0  0
  152.2209  139.8179  155.3876 H   0  0  0  0  0  0  0  0  0  0  0  0
  152.4690  138.4555  156.4081 H   0  0  0  0  0  0  0  0  0  0  0  0
  150.2954  138.6014  154.2603 H   0  0  0  0  0  0  0  0  0  0  0  0
  151.7970  137.7192  154.1358 H   0  0  0  0  0  0  0  0  0  0  0  0
  151.1995  136.2738  156.0155 H   0  0  0  0  0  0  0  0  0  0  0  0
  149.5362  136.4081  153.6613 H   0  0  0  0  0  0  0  0  0  0  0  0
  148.7075  134.8231  152.8879 H   0  0  0  0  0  0  0  0  0  0  0  0
  149.7212  131.6976  154.6110 H   0  0  0  0  0  0  0  0  0  0  0  0
  148.6466  129.5477  154.0582 H   0  0  0  0  0  0  0  0  0  0  0  0
  145.7256  131.3699  151.7773 H   0  0  0  0  0  0  0  0  0  0  0  0
  148.5477  137.7897  156.1860 H   0  0  0  0  0  0  0  0  0  0  0  0
  149.0568  136.4754  157.2082 H   0  0  0  0  0  0  0  0  0  0  0  0
  150.9204  137.8041  158.1196 H   0  0  0  0  0  0  0  0  0  0  0  0
  149.4256  138.6243  158.3868 H   0  0  0  0  0  0  0  0  0  0  0  0
  150.8842  141.3565  154.7394 H   0  0  0  0  0  0  0  0  0  0  0  0
  149.5145  142.2897  155.1972 H   0  0  0  0  0  0  0  0  0  0  0  0
  151.5734  143.4211  155.9344 H   0  0  0  0  0  0  0  0  0  0  0  0
  152.0439  142.0355  156.8972 H   0  0  0  0  0  0  0  0  0  0  0  0
  151.2525  139.9817  157.5712 H   0  0  0  0  0  0  0  0  0  0  0  0
  149.6366  143.6586  157.2508 H   0  0  0  0  0  0  0  0  0  0  0  0
  1  2  1  0  0  0  0
  1 25  1  0  0  0  0
  1 26  1  0  0  0  0
  1 27  1  0  0  0  0
  2 24  1  0  0  0  0
  2  3  1  0  0  0  0
  2 52  1  0  0  0  0
  3  4  1  0  0  0  0
  3 28  1  0  0  0  0
  3 29  1  0  0  0  0
  4  5  1  0  0  0  0
  4 30  1  0  0  0  0
  4 31  1  0  0  0  0
  5  6  1  0  0  0  0
  5 23  1  0  0  0  0
  5 32  1  0  0  0  0
  6 22  1  0  0  0  0
  6  7  1  0  0  0  0
  6 51  1  0  0  0  0
  7  8  1  0  0  0  0
  7 33  1  0  0  0  0
  7 34  1  0  0  0  0
  8  9  1  0  0  0  0
  8 35  1  0  0  0  0
  8 36  1  0  0  0  0
  9 10  1  0  0  0  0
  9 21  1  0  0  0  0
  9 37  1  0  0  0  0
 10 11  1  0  0  0  0
 10 38  1  0  0  0  0
 11 12  2  0  0  0  0
 11 13  1  0  0  0  0
 13 14  1  0  0  0  0
 13 39  1  0  0  0  0
 14 19  1  0  0  0  0
 14 15  2  0  0  0  0
 15 16  1  0  0  0  0
 15 40  1  0  0  0  0
 16 17  2  0  0  0  0
 16 41  1  0  0  0  0
 17 18  1  0  0  0  0
 18 19  2  0  0  0  0
 18 42  1  0  0  0  0
 19 20  1  0  0  0  0
 21 22  1  0  0  0  0
 21 43  1  0  0  0  0
 21 44  1  0  0  0  0
 22 45  1  0  0  0  0
 22 46  1  0  0  0  0
 23 24  1  0  0  0  0
 23 47  1  0  0  0  0
 23 48  1  0  0  0  0
 24 49  1  0  0  0  0
 24 50  1  0  0  0  0
M  CHG  1   2   1
M  CHG  1   6   1
M  END
> <s_m_source_file>
AV-unprocessed.smi

> <i_m_source_file_index>
2253

> <i_lp_mmshare_version>
43012

> <i_f3d_flags>
0

> <s_epik_input>
W0NIM11OMVtDSDJdW0NIMl1bQ0hdKFtDSDJdW0NIMl0xKU4yW0NIMl1bQ0gyXVtDSF0oW0NIMl1bQ0gyXTIpW05IXUMoPU8pW05IXWMzW2NIXVtjSF1uW2NIXWMzRg==

> <s_epik_cmdline>
J2VwaWtfcHl0aG9uJywgJy1waCcsICc3LjAnLCAnLXRuJywgJzgnLCAnLW1hJywgJzIwMCcsICctbWV0YWxfYmluZGluZycsICctaW1hZScsICc8aW5maWxlLm1hZT4nLCAnLW9tYWUnLCAnPG91dGZpbGUubWFlPic=

> <r_epik_Ionization_Penalty>
0.183544

> <r_epik_Ionization_Penalty_Charging>
0.180787

> <r_epik_Ionization_Penalty_Neutral>
0.00275649

> <r_epik_State_Penalty>
0.153592

> <r_epik_Charging_Adjusted_Penalty>
0.334379

> <i_epik_Tot_Q>
2

> <i_epik_Tot_abs_Q>
2

> <r_epik_Metal_State_Penalty>
0.153693

> <b_epik_Metal_Only>
0

> <s_lp_Force_Field>
OPLS_2005

> <r_lp_Energy>
53.0851

> <b_lp_Chiralities_Consistent>
1

> <s_lp_Variant>
AV-unprocessed.smi:2253-4

> <Gold.Version>
5.8.1

> <Gold.Id.Protein>
6NUR|6NUR_protein|mol2

> <Gold.PLP.Fitness>
45.1263

> <Gold.PLP.PLP>
-34.1295

> <Gold.PLP.part.hbond>
-3.0000

> <Gold.PLP.part.metal>
0.0000

> <Gold.PLP.part.buried>
-4.6277

> <Gold.PLP.part.nonpolar>
-26.5149

> <Gold.PLP.part.repulsive>
0.2370

> <Gold.PLP.ligand.clash>
0.0000

> <Gold.PLP.ligand.torsion>
0.5268

> <Gold.PLP.Chemscore.Hbond>
4.0000

> <Gold.PLP.Chemscore.CHOScore>
0.0000

> <Gold.PLP.Chemscore.Metal>
0.0000

> <Gold.Chemscore.Hbonds>
donor molecule, donor type, donor heavy atom, donor atom, acceptor molecule, acceptor atom, score
      L1  H     2    52       P1  8028  1.93
      L1  H    10    38       P1  7948  1.00
      L1  H    13    39       P1  7948  0.95

> <Gold.PLP.Chemscore.Internal.Correction>
0.0504

> <Gold.Rescore>
     Score         DG    S(hbond)    S(metal)    S(lipo)     H(rot)  DE(clash)    DE(int)     intcor
     19.58     -20.82       2.60        0.00      84.44       1.26       0.76       0.48       ----

> <Gold.Chemscore.Fitness>
19.5844

> <Gold.Chemscore.DG>
-20.8211

> <Gold.Chemscore.ZeroCoef>
-5.4800

> <Gold.Chemscore.Hbond>
2.5979

> <Gold.Chemscore.Metal>
0.0000

> <Gold.Chemscore.Lipo>
84.4387

> <Gold.Chemscore.Internal_Hbond>
0.0000

> <Gold.Chemscore.DEClash>
0.7595

> <Gold.Chemscore.DEInternal>
0.4773

> <Gold.Chemscore.Rot>
1.2559

> <Gold.Chemscore.Internal.Correction>
   9.000000E+99

> <Gold.Chemscore.Hbonds>
donor molecule, donor type, donor heavy atom, donor atom, acceptor molecule, acceptor atom, score
      L1  H     2    52       P1  8028  0.71
      L1  H    10    38       P1  7948  0.62
      L1  H    13    39       P1  7948  0.21

> <Gold.Chemscore.Hbond.Weighted>
-8.6769

> <Gold.Chemscore.Metal.Weighted>
-0.0000

> <Gold.Chemscore.Lipo.Weighted>
-9.8793

> <Gold.Chemscore.Internal_Hbond.Weighted>
0.0000

> <Gold.Chemscore.DEClash.Weighted>
0.7595

> <Gold.Chemscore.DEInternal.Weighted>
0.4773

> <Gold.Chemscore.Rot.Weighted>
3.2151

> <Gold.Chemscore.Internal.Correction.Weighted>
   9.000000E+99

> <Gold.Protein.RotatedTorsions>
[ 6907 6896 6895 6894 ] final  -30.19 input  -60.11 | X-H torsion
[ 7974 7965 7964 7962 ] final  170.84 input  175.53 | X-H torsion
[ 8008 7997 7996 7995 ] final  175.19 input   59.86 | X-H torsion
[ 10167 10162 10161 10158 ] final    6.80 input  -65.29 | X-H torsion
[ 10718 10713 10712 10709 ] final -130.48 input   66.30 | X-H torsion
[ 10763 10752 10751 10750 ] final -138.07 input  -60.55 | X-H torsion
[ 11005 11000 10999 10996 ] final  -52.18 input  -57.11 | X-H torsion

> <Gold.Protein.ActiveResidues>
 VAL166  LYS551  ARG553  GLY616  TRP617  ASP618  TYR619  PRO620  LYS621  CYS622 
 ASP623  PHE694  ASN695  SER759  ASP760  ASP761  ALA762  ILE779  LEU786  VAL792 
 PHE793  MET794  SER795  GLU796  ALA797  LYS798  CYS799  TRP800  GLU811  SER814 

> <Gold.Protein.RotatedAtoms>
  151.1090  135.0015  159.8484 H   0  0  0  0  0  0  0  0  0  0  0  0  # atno 6907 bound_to 6896
  152.5442  134.1859  159.8664 H   0  0  0  0  0  0  0  0  0  0  0  0  # atno 6908 bound_to 6896
  151.1908  133.4624  159.2628 H   0  0  0  0  0  0  0  0  0  0  0  0  # atno 6909 bound_to 6896
  144.7312  139.9262  143.6422 H   0  0  0  0  0  0  0  0  0  0  0  0  # atno 7974 bound_to 7965
  156.0896  140.1415  156.9608 H   0  0  0  0  0  0  0  0  0  0  0  0  # atno 8008 bound_to 7997
  154.4634  140.0935  156.7002 H   0  0  0  0  0  0  0  0  0  0  0  0  # atno 8009 bound_to 7997
  155.4941  140.3449  155.4362 H   0  0  0  0  0  0  0  0  0  0  0  0  # atno 8010 bound_to 7997
  140.6407  143.7780  150.7424 H   0  0  0  0  0  0  0  0  0  0  0  0  # atno 10167 bound_to 10162
  156.2148  130.6941  151.0691 H   0  0  0  0  0  0  0  0  0  0  0  0  # atno 10718 bound_to 10713
  154.8646  135.3623  154.5326 H   0  0  0  0  0  0  0  0  0  0  0  0  # atno 10763 bound_to 10752
  153.5951  135.7014  153.5412 H   0  0  0  0  0  0  0  0  0  0  0  0  # atno 10764 bound_to 10752
  153.3339  135.4116  155.1479 H   0  0  0  0  0  0  0  0  0  0  0  0  # atno 10765 bound_to 10752
  141.0911  133.6632  156.3986 H   0  0  0  0  0  0  0  0  0  0  0  0  # atno 11005 bound_to 11000
  146.0892  139.3881  143.0416 LP  0  0  0  0  0  0  0  0  0  0  0  0  # atno 17320 bound_to 7965
  145.7734  140.9887  143.1137 LP  0  0  0  0  0  0  0  0  0  0  0  0  # atno 17321 bound_to 7965
  140.1411  143.4440  152.2193 LP  0  0  0  0  0  0  0  0  0  0  0  0  # atno 17342 bound_to 10162
  139.5617  144.7409  151.4137 LP  0  0  0  0  0  0  0  0  0  0  0  0  # atno 17343 bound_to 10162
  157.7057  131.0757  150.6673 LP  0  0  0  0  0  0  0  0  0  0  0  0  # atno 17370 bound_to 10713
  156.6734  130.4546  149.5650 LP  0  0  0  0  0  0  0  0  0  0  0  0  # atno 17371 bound_to 10713
  140.5251  134.6267  157.5331 LP  0  0  0  0  0  0  0  0  0  0  0  0  # atno 17394 bound_to 11000
  139.9737  134.7251  155.9992 LP  0  0  0  0  0  0  0  0  0  0  0  0  # atno 17395 bound_to 11000

$$$$
