AV-unprocessed.smi:153|AV-procd|sdf|1259|dock2
  -GOLD-   2262018503D 1   1.00000     0.00000
 Structure written by MMmdl.
 59 62  0  0  0  0  0  0  0  0  1 V2000
  146.5960  132.1609  151.5855 C   0  0  0  0  0  0  0  0  0  0  0  0
  147.7411  132.3845  152.5861 C   0  0  1  0  0  0  0  0  0  0  0  0
  148.8771  131.6254  152.1905 O   0  0  0  0  0  0  0  0  0  0  0  0
  150.0212  132.2275  152.7676 C   0  0  0  0  0  0  0  0  0  0  0  0
  149.7600  133.7071  152.5322 C   0  0  0  0  0  0  0  0  0  0  0  0
  148.2503  133.8421  152.7586 C   0  0  1  0  0  0  0  0  0  0  0  0
  147.7324  134.7112  151.7644 O   0  0  0  0  0  0  0  0  0  0  0  0
  147.8699  134.4054  154.1532 C   0  0  0  0  0  0  0  0  0  0  0  0
  148.3693  135.7485  154.4092 N   0  0  0  0  0  0  0  0  0  0  0  0
  149.5947  136.0848  154.9322 C   0  0  0  0  0  0  0  0  0  0  0  0
  149.8003  137.3634  155.0757 N   0  0  0  0  0  0  0  0  0  0  0  0
  148.6386  137.9679  154.6037 C   0  0  0  0  0  0  0  0  0  0  0  0
  148.1811  139.3188  154.4762 C   0  0  0  0  0  0  0  0  0  0  0  0
  148.8713  140.4310  154.8743 N   0  0  0  0  0  0  0  0  0  0  0  0
  148.5371  141.7179  154.2662 C   0  0  0  0  0  0  0  0  0  0  0  0
  149.5267  140.4696  156.1811 C   0  0  0  0  0  0  0  0  0  0  0  0
  151.0508  140.7145  156.0864 C   0  0  2  0  0  0  0  0  0  0  0  0
  151.6023  139.9783  155.0138 O   0  0  0  0  0  0  0  0  0  0  0  0
  151.8183  140.3849  157.3863 C   0  0  0  0  0  0  0  0  0  0  0  0
  152.1124  141.5059  158.2830 N   0  0  0  0  0  0  0  0  0  0  0  0
  152.5966  141.0247  159.5727 C   0  0  0  0  0  0  0  0  0  0  0  0
  152.9186  142.1797  160.5360 C   0  0  0  0  0  0  0  0  0  0  0  0
  151.7632  142.9936  160.7049 O   0  0  0  0  0  0  0  0  0  0  0  0
  151.2827  143.5245  159.4746 C   0  0  0  0  0  0  0  0  0  0  0  0
  150.9588  142.3745  158.5052 C   0  0  0  0  0  0  0  0  0  0  0  0
  146.9507  139.4907  153.9188 N   0  0  0  0  0  0  0  0  0  0  0  0
  146.2125  138.4466  153.5362 C   0  0  0  0  0  0  0  0  0  0  0  0
  146.5025  137.1492  153.6168 N   0  0  0  0  0  0  0  0  0  0  0  0
  147.7367  136.9547  154.1606 C   0  0  0  0  0  0  0  0  0  0  0  0
  145.7118  132.7346  151.8645 H   0  0  0  0  0  0  0  0  0  0  0  0
  146.3110  131.1091  151.5548 H   0  0  0  0  0  0  0  0  0  0  0  0
  146.8851  132.4517  150.5750 H   0  0  0  0  0  0  0  0  0  0  0  0
  147.4303  131.9909  153.5554 H   0  0  0  0  0  0  0  0  0  0  0  0
  150.0667  131.9997  153.8339 H   0  0  0  0  0  0  0  0  0  0  0  0
  150.9409  131.8805  152.2963 H   0  0  0  0  0  0  0  0  0  0  0  0
  150.3744  134.3444  153.1660 H   0  0  0  0  0  0  0  0  0  0  0  0
  150.0174  133.9402  151.4972 H   0  0  0  0  0  0  0  0  0  0  0  0
  148.4210  135.2991  151.4943 H   0  0  0  0  0  0  0  0  0  0  0  0
  146.7849  134.4216  154.2660 H   0  0  0  0  0  0  0  0  0  0  0  0
  148.2457  133.7484  154.9385 H   0  0  0  0  0  0  0  0  0  0  0  0
  150.3335  135.3483  155.2137 H   0  0  0  0  0  0  0  0  0  0  0  0
  148.6697  141.6826  153.1844 H   0  0  0  0  0  0  0  0  0  0  0  0
  149.1781  142.5125  154.6483 H   0  0  0  0  0  0  0  0  0  0  0  0
  147.5034  141.9902  154.4832 H   0  0  0  0  0  0  0  0  0  0  0  0
  149.0442  141.2239  156.7984 H   0  0  0  0  0  0  0  0  0  0  0  0
  149.3372  139.5367  156.7132 H   0  0  0  0  0  0  0  0  0  0  0  0
  151.2459  141.7647  155.8673 H   0  0  0  0  0  0  0  0  0  0  0  0
  151.1392  139.1575  154.9462 H   0  0  0  0  0  0  0  0  0  0  0  0
  151.3103  139.5876  157.9313 H   0  0  0  0  0  0  0  0  0  0  0  0
  152.7704  139.9540  157.0736 H   0  0  0  0  0  0  0  0  0  0  0  0
  151.8495  140.3731  160.0287 H   0  0  0  0  0  0  0  0  0  0  0  0
  153.4923  140.4190  159.4293 H   0  0  0  0  0  0  0  0  0  0  0  0
  153.2256  141.7902  161.5069 H   0  0  0  0  0  0  0  0  0  0  0  0
  153.7448  142.7820  160.1551 H   0  0  0  0  0  0  0  0  0  0  0  0
  150.3909  144.1209  159.6670 H   0  0  0  0  0  0  0  0  0  0  0  0
  152.0288  144.1935  159.0429 H   0  0  0  0  0  0  0  0  0  0  0  0
  150.6212  142.8038  157.5631 H   0  0  0  0  0  0  0  0  0  0  0  0
  150.1267  141.7908  158.9018 H   0  0  0  0  0  0  0  0  0  0  0  0
  145.2495  138.6860  153.1098 H   0  0  0  0  0  0  0  0  0  0  0  0
  1  2  1  0  0  0  0
  1 30  1  0  0  0  0
  1 31  1  0  0  0  0
  1 32  1  0  0  0  0
  2  6  1  0  0  0  0
  2  3  1  0  0  0  0
  2 33  1  0  0  0  0
  3  4  1  0  0  0  0
  4  5  1  0  0  0  0
  4 34  1  0  0  0  0
  4 35  1  0  0  0  0
  5  6  1  0  0  0  0
  5 36  1  0  0  0  0
  5 37  1  0  0  0  0
  6  7  1  0  0  0  0
  6  8  1  0  0  0  0
  7 38  1  0  0  0  0
  8  9  1  0  0  0  0
  8 39  1  0  0  0  0
  8 40  1  0  0  0  0
  9 29  1  0  0  0  0
  9 10  1  0  0  0  0
 10 11  2  0  0  0  0
 10 41  1  0  0  0  0
 11 12  1  0  0  0  0
 12 29  2  0  0  0  0
 12 13  1  0  0  0  0
 13 14  1  0  0  0  0
 13 26  2  0  0  0  0
 14 15  1  0  0  0  0
 14 16  1  0  0  0  0
 15 42  1  0  0  0  0
 15 43  1  0  0  0  0
 15 44  1  0  0  0  0
 16 17  1  0  0  0  0
 16 45  1  0  0  0  0
 16 46  1  0  0  0  0
 17 18  1  0  0  0  0
 17 19  1  0  0  0  0
 17 47  1  0  0  0  0
 18 48  1  0  0  0  0
 19 20  1  0  0  0  0
 19 49  1  0  0  0  0
 19 50  1  0  0  0  0
 20 25  1  0  0  0  0
 20 21  1  0  0  0  0
 21 22  1  0  0  0  0
 21 51  1  0  0  0  0
 21 52  1  0  0  0  0
 22 23  1  0  0  0  0
 22 53  1  0  0  0  0
 22 54  1  0  0  0  0
 23 24  1  0  0  0  0
 24 25  1  0  0  0  0
 24 55  1  0  0  0  0
 24 56  1  0  0  0  0
 25 57  1  0  0  0  0
 25 58  1  0  0  0  0
 26 27  1  0  0  0  0
 27 28  2  0  0  0  0
 27 59  1  0  0  0  0
 28 29  1  0  0  0  0
M  END
> <s_m_source_file>
AV-unprocessed.smi

> <i_m_source_file_index>
153

> <i_lp_mmshare_version>
43012

> <i_f3d_flags>
0

> <s_epik_input>
W0NIMl0xW0NIMl1PW0NAQEhdKFtDSDNdKVtDQEBdMShbT0hdKVtDSDJdbihbY0hdbjIpYyhjMjMpbltjSF1uYzNOKFtDSDNdKVtDSDJdW0NASF0oW09IXSlbQ0gyXU40W0NIMl1bQ0gyXU9bQ0gyXVtDSDJdNA==

> <s_epik_cmdline>
J2VwaWtfcHl0aG9uJywgJy1waCcsICc3LjAnLCAnLXRuJywgJzgnLCAnLW1hJywgJzIwMCcsICctbWV0YWxfYmluZGluZycsICctaW1hZScsICc8aW5maWxlLm1hZT4nLCAnLW9tYWUnLCAnPG91dGZpbGUubWFlPic=

> <r_lp_tautomer_probability>
1

> <r_epik_Ionization_Penalty>
0.424123

> <r_epik_Ionization_Penalty_Charging>
0

> <r_epik_Ionization_Penalty_Neutral>
0.424123

> <r_epik_State_Penalty>
0.421495

> <r_epik_Charging_Adjusted_Penalty>
0.421495

> <i_epik_Tot_Q>
0

> <i_epik_Tot_abs_Q>
0

> <r_epik_Metal_State_Penalty>
0.421223

> <b_epik_Metal_Only>
0

> <s_lp_Force_Field>
OPLS_2005

> <r_lp_Energy>
57.6451

> <b_lp_Chiralities_Consistent>
1

> <s_lp_Variant>
AV-unprocessed.smi:153-10

> <Gold.Version>
5.8.1

> <Gold.Id.Protein>
6NUR|6NUR_protein|mol2

> <Gold.PLP.Fitness>
45.2923

> <Gold.PLP.PLP>
-39.0784

> <Gold.PLP.part.hbond>
-2.0000

> <Gold.PLP.part.metal>
0.0000

> <Gold.PLP.part.buried>
-4.0586

> <Gold.PLP.part.nonpolar>
-33.0245

> <Gold.PLP.part.repulsive>
0.4598

> <Gold.PLP.ligand.clash>
0.0000

> <Gold.PLP.ligand.torsion>
1.7919

> <Gold.PLP.Chemscore.Hbond>
2.0000

> <Gold.PLP.Chemscore.CHOScore>
1.0000

> <Gold.PLP.Chemscore.Metal>
0.0000

> <Gold.Chemscore.Hbonds>
donor molecule, donor type, donor heavy atom, donor atom, acceptor molecule, acceptor atom, score
      P1  H  7989  7998       L1    18  1.00
      L1  C    27    59       P1 10175  1.00

> <Gold.PLP.Chemscore.Internal.Correction>
0.7978

> <Gold.Rescore>
     Score         DG    S(hbond)    S(metal)    S(lipo)     H(rot)  DE(clash)    DE(int)     intcor
     11.83     -13.67       1.93        0.00      91.88       3.52       0.01       1.84       ----

> <Gold.Chemscore.Fitness>
11.8255

> <Gold.Chemscore.DG>
-13.6731

> <Gold.Chemscore.ZeroCoef>
-5.4800

> <Gold.Chemscore.Hbond>
1.9303

> <Gold.Chemscore.Metal>
0.0000

> <Gold.Chemscore.Lipo>
91.8756

> <Gold.Chemscore.Internal_Hbond>
0.0000

> <Gold.Chemscore.DEClash>
0.0106

> <Gold.Chemscore.DEInternal>
1.8370

> <Gold.Chemscore.Rot>
3.5170

> <Gold.Chemscore.Internal.Correction>
   9.000000E+99

> <Gold.Chemscore.Hbonds>
donor molecule, donor type, donor heavy atom, donor atom, acceptor molecule, acceptor atom, score
      P1  H  7989  7998       L1    18  0.73

> <Gold.Chemscore.Hbond.Weighted>
-6.4472

> <Gold.Chemscore.Metal.Weighted>
-0.0000

> <Gold.Chemscore.Lipo.Weighted>
-10.7494

> <Gold.Chemscore.Internal_Hbond.Weighted>
0.0000

> <Gold.Chemscore.DEClash.Weighted>
0.0106

> <Gold.Chemscore.DEInternal.Weighted>
1.8370

> <Gold.Chemscore.Rot.Weighted>
9.0036

> <Gold.Chemscore.Internal.Correction.Weighted>
   9.000000E+99

> <Gold.Protein.RotatedTorsions>
[ 6907 6896 6895 6894 ] final  158.77 input  -60.11 | X-H torsion
[ 7974 7965 7964 7962 ] final  104.56 input  175.53 | X-H torsion
[ 8008 7997 7996 7995 ] final  -12.80 input   59.86 | X-H torsion
[ 10167 10162 10161 10158 ] final   21.05 input  -65.29 | X-H torsion
[ 10718 10713 10712 10709 ] final   49.15 input   66.30 | X-H torsion
[ 10763 10752 10751 10750 ] final   28.02 input  -60.55 | X-H torsion
[ 11005 11000 10999 10996 ] final   60.91 input  -57.11 | X-H torsion

> <Gold.Protein.ActiveResidues>
 VAL166  LYS551  ARG553  GLY616  TRP617  ASP618  TYR619  PRO620  LYS621  CYS622 
 ASP623  PHE694  ASN695  SER759  ASP760  ASP761  ALA762  ILE779  LEU786  VAL792 
 PHE793  MET794  SER795  GLU796  ALA797  LYS798  CYS799  TRP800  GLU811  SER814 

> <Gold.Protein.RotatedAtoms>
  151.9955  133.3806  159.4160 H   0  0  0  0  0  0  0  0  0  0  0  0  # atno 6907 bound_to 6896
  150.6916  134.3891  159.5077 H   0  0  0  0  0  0  0  0  0  0  0  0  # atno 6908 bound_to 6896
  152.1630  134.8896  160.0591 H   0  0  0  0  0  0  0  0  0  0  0  0  # atno 6909 bound_to 6896
  145.3312  139.2486  143.3660 H   0  0  0  0  0  0  0  0  0  0  0  0  # atno 7974 bound_to 7965
  154.5346  140.2266  155.8745 H   0  0  0  0  0  0  0  0  0  0  0  0  # atno 8008 bound_to 7997
  156.1798  140.3103  155.9091 H   0  0  0  0  0  0  0  0  0  0  0  0  # atno 8009 bound_to 7997
  155.3381  140.0449  157.3035 H   0  0  0  0  0  0  0  0  0  0  0  0  # atno 8010 bound_to 7997
  140.5456  143.9600  150.6546 H   0  0  0  0  0  0  0  0  0  0  0  0  # atno 10167 bound_to 10162
  157.4758  130.8284  149.8038 H   0  0  0  0  0  0  0  0  0  0  0  0  # atno 10718 bound_to 10713
  153.0518  135.6523  154.0675 H   0  0  0  0  0  0  0  0  0  0  0  0  # atno 10763 bound_to 10752
  154.0361  135.2907  155.3363 H   0  0  0  0  0  0  0  0  0  0  0  0  # atno 10764 bound_to 10752
  154.6811  135.5319  153.8331 H   0  0  0  0  0  0  0  0  0  0  0  0  # atno 10765 bound_to 10752
  140.0198  134.6170  155.9656 H   0  0  0  0  0  0  0  0  0  0  0  0  # atno 11005 bound_to 11000
  146.3045  140.3890  142.8692 LP  0  0  0  0  0  0  0  0  0  0  0  0  # atno 17320 bound_to 7965
  144.8863  140.7466  143.5955 LP  0  0  0  0  0  0  0  0  0  0  0  0  # atno 17321 bound_to 7965
  140.3012  143.3259  152.0970 LP  0  0  0  0  0  0  0  0  0  0  0  0  # atno 17342 bound_to 10162
  139.5006  144.6695  151.6276 LP  0  0  0  0  0  0  0  0  0  0  0  0  # atno 17343 bound_to 10162
  156.0096  130.3839  150.2311 LP  0  0  0  0  0  0  0  0  0  0  0  0  # atno 17370 bound_to 10713
  157.0495  131.0058  151.3258 LP  0  0  0  0  0  0  0  0  0  0  0  0  # atno 17371 bound_to 10713
  141.1766  133.6541  156.4855 LP  0  0  0  0  0  0  0  0  0  0  0  0  # atno 17394 bound_to 11000
  140.4407  134.7018  157.4990 LP  0  0  0  0  0  0  0  0  0  0  0  0  # atno 17395 bound_to 11000

$$$$
