AV-unprocessed.smi:573|AV-procd|sdf|2968|dock3
  -GOLD-   2262023473D 1   1.00000     0.00000
 Structure written by MMmdl.
 45 47  0  0  0  0  0  0  0  0  2 V2000
  146.7932  138.8847  154.6097 C   0  0  0  0  0  0  0  0  0  0  0  0
  147.6156  139.2905  153.3800 C   0  0  1  0  0  0  0  0  0  0  0  0
  148.8130  138.5407  153.4124 O   0  0  0  0  0  0  0  0  0  0  0  0
  146.8587  138.9997  152.0701 C   0  0  0  0  0  0  0  0  0  0  0  0
  146.5258  137.5899  151.9193 N   0  0  0  0  0  0  0  0  0  0  0  0
  145.2498  137.1466  152.2870 C   0  0  0  0  0  0  0  0  0  0  0  0
  144.1432  137.9225  152.4373 N   0  3  0  0  0  0  0  0  0  0  0  0
  143.0816  137.1037  152.8307 C   0  0  0  0  0  0  0  0  0  0  0  0
  141.7558  137.4140  153.1171 C   0  0  0  0  0  0  0  0  0  0  0  0
  140.9232  136.3427  153.5014 C   0  0  0  0  0  0  0  0  0  0  0  0
  141.4157  135.0247  153.5920 C   0  0  0  0  0  0  0  0  0  0  0  0
  142.7613  134.7189  153.2998 C   0  0  0  0  0  0  0  0  0  0  0  0
  143.5797  135.7808  152.9147 C   0  0  0  0  0  0  0  0  0  0  0  0
  144.9330  135.8546  152.5570 N   0  0  0  0  0  0  0  0  0  0  0  0
  145.7642  134.6425  152.5462 C   0  0  0  0  0  0  0  0  0  0  0  0
  145.1361  133.5209  151.7031 C   0  0  2  0  0  0  0  0  0  0  0  0
  146.0991  132.3341  151.5113 C   0  0  0  0  0  0  0  0  0  0  0  0
  145.4595  131.2623  150.6216 C   0  0  0  0  0  0  0  0  0  0  0  0
  144.9736  131.8977  149.3144 C   0  0  0  0  0  0  0  0  0  0  0  0
  144.0749  133.1095  149.6094 C   0  0  0  0  0  0  0  0  0  0  0  0
  144.7726  134.0444  150.4266 O   0  0  0  0  0  0  0  0  0  0  0  0
  145.8614  139.4484  154.6600 H   0  0  0  0  0  0  0  0  0  0  0  0
  147.3425  139.0765  155.5322 H   0  0  0  0  0  0  0  0  0  0  0  0
  146.5389  137.8242  154.5867 H   0  0  0  0  0  0  0  0  0  0  0  0
  147.8575  140.3519  153.4527 H   0  0  0  0  0  0  0  0  0  0  0  0
  148.7878  137.9061  152.7126 H   0  0  0  0  0  0  0  0  0  0  0  0
  145.9763  139.6334  151.9715 H   0  0  0  0  0  0  0  0  0  0  0  0
  147.5023  139.2506  151.2266 H   0  0  0  0  0  0  0  0  0  0  0  0
  147.2829  136.9218  151.8922 H   0  0  0  0  0  0  0  0  0  0  0  0
  141.3763  138.4234  153.0526 H   0  0  0  0  0  0  0  0  0  0  0  0
  139.8861  136.5365  153.7344 H   0  0  0  0  0  0  0  0  0  0  0  0
  140.7478  134.2307  153.8934 H   0  0  0  0  0  0  0  0  0  0  0  0
  143.1270  133.7061  153.3803 H   0  0  0  0  0  0  0  0  0  0  0  0
  146.7630  134.8935  152.1894 H   0  0  0  0  0  0  0  0  0  0  0  0
  145.8817  134.3154  153.5798 H   0  0  0  0  0  0  0  0  0  0  0  0
  144.2330  133.1745  152.2094 H   0  0  0  0  0  0  0  0  0  0  0  0
  147.0257  132.6827  151.0529 H   0  0  0  0  0  0  0  0  0  0  0  0
  146.3693  131.9045  152.4763 H   0  0  0  0  0  0  0  0  0  0  0  0
  146.1724  130.4636  150.4150 H   0  0  0  0  0  0  0  0  0  0  0  0
  144.6177  130.8055  151.1437 H   0  0  0  0  0  0  0  0  0  0  0  0
  145.8314  132.2168  148.7209 H   0  0  0  0  0  0  0  0  0  0  0  0
  144.4340  131.1633  148.7157 H   0  0  0  0  0  0  0  0  0  0  0  0
  143.7900  133.6003  148.6787 H   0  0  0  0  0  0  0  0  0  0  0  0
  143.1510  132.7999  150.1006 H   0  0  0  0  0  0  0  0  0  0  0  0
  144.1194  138.9234  152.2907 H   0  0  0  0  0  0  0  0  0  0  0  0
  1  2  1  0  0  0  0
  1 22  1  0  0  0  0
  1 23  1  0  0  0  0
  1 24  1  0  0  0  0
  2  3  1  0  0  0  0
  2  4  1  0  0  0  0
  2 25  1  0  0  0  0
  3 26  1  0  0  0  0
  4  5  1  0  0  0  0
  4 27  1  0  0  0  0
  4 28  1  0  0  0  0
  5  6  1  0  0  0  0
  5 29  1  0  0  0  0
  6 14  1  0  0  0  0
  6  7  2  0  0  0  0
  7  8  1  0  0  0  0
  7 45  1  0  0  0  0
  8 13  2  0  0  0  0
  8  9  1  0  0  0  0
  9 10  2  0  0  0  0
  9 30  1  0  0  0  0
 10 11  1  0  0  0  0
 10 31  1  0  0  0  0
 11 12  2  0  0  0  0
 11 32  1  0  0  0  0
 12 13  1  0  0  0  0
 12 33  1  0  0  0  0
 13 14  1  0  0  0  0
 14 15  1  0  0  0  0
 15 16  1  0  0  0  0
 15 34  1  0  0  0  0
 15 35  1  0  0  0  0
 16 21  1  0  0  0  0
 16 17  1  0  0  0  0
 16 36  1  0  0  0  0
 17 18  1  0  0  0  0
 17 37  1  0  0  0  0
 17 38  1  0  0  0  0
 18 19  1  0  0  0  0
 18 39  1  0  0  0  0
 18 40  1  0  0  0  0
 19 20  1  0  0  0  0
 19 41  1  0  0  0  0
 19 42  1  0  0  0  0
 20 21  1  0  0  0  0
 20 43  1  0  0  0  0
 20 44  1  0  0  0  0
M  CHG  1   7   1
M  END
> <s_m_source_file>
AV-unprocessed.smi

> <i_m_source_file_index>
573

> <i_lp_mmshare_version>
43012

> <i_f3d_flags>
0

> <s_epik_input>
W0NIM11bQ0BIXShbT0hdKVtDSDJdW05IXWMobjEpbihjKGMxMilbY0hdW2NIXVtjSF1bY0hdMilbQ0gyXVtDQEBIXTNbQ0gyXVtDSDJdW0NIMl1bQ0gyXU8z

> <s_epik_cmdline>
J2VwaWtfcHl0aG9uJywgJy1waCcsICc3LjAnLCAnLXRuJywgJzgnLCAnLW1hJywgJzIwMCcsICctbWV0YWxfYmluZGluZycsICctaW1hZScsICc8aW5maWxlLm1hZT4nLCAnLW9tYWUnLCAnPG91dGZpbGUubWFlPic=

> <r_epik_Ionization_Penalty>
0.0692245

> <r_epik_Ionization_Penalty_Charging>
0.0692223

> <r_epik_Ionization_Penalty_Neutral>
2.1869e-06

> <r_epik_State_Penalty>
0.0606215

> <r_epik_Charging_Adjusted_Penalty>
0.129844

> <i_epik_Tot_Q>
1

> <i_epik_Tot_abs_Q>
1

> <r_epik_Metal_State_Penalty>
2.77811

> <b_epik_Metal_Only>
0

> <s_lp_Force_Field>
OPLS_2005

> <r_lp_Energy>
22.2685

> <b_lp_Chiralities_Consistent>
1

> <s_lp_Variant>
AV-unprocessed.smi:573-2

> <Gold.Version>
5.8.1

> <Gold.Id.Protein>
6NUR|6NUR_protein|mol2

> <Gold.PLP.Fitness>
55.5659

> <Gold.PLP.PLP>
-41.0620

> <Gold.PLP.part.hbond>
-4.9588

> <Gold.PLP.part.metal>
0.0000

> <Gold.PLP.part.buried>
-3.9940

> <Gold.PLP.part.nonpolar>
-33.1976

> <Gold.PLP.part.repulsive>
0.8468

> <Gold.PLP.ligand.clash>
0.0000

> <Gold.PLP.ligand.torsion>
0.2663

> <Gold.PLP.Chemscore.Hbond>
5.0000

> <Gold.PLP.Chemscore.CHOScore>
0.0000

> <Gold.PLP.Chemscore.Metal>
0.0000

> <Gold.Chemscore.Hbonds>
donor molecule, donor type, donor heavy atom, donor atom, acceptor molecule, acceptor atom, score
      L1  H     3    26       P1  7948  1.00
      L1  H     5    29       P1  7948  2.00
      L1  H     7    45       P1 10175  2.00

> <Gold.PLP.Chemscore.Internal.Correction>
0.0365

> <Gold.Rescore>
     Score         DG    S(hbond)    S(metal)    S(lipo)     H(rot)  DE(clash)    DE(int)     intcor
     19.87     -21.25       2.98        0.00      95.09       2.07       0.04       1.34       ----

> <Gold.Chemscore.Fitness>
19.8705

> <Gold.Chemscore.DG>
-21.2455

> <Gold.Chemscore.ZeroCoef>
-5.4800

> <Gold.Chemscore.Hbond>
2.9758

> <Gold.Chemscore.Metal>
0.0000

> <Gold.Chemscore.Lipo>
95.0890

> <Gold.Chemscore.Internal_Hbond>
0.0000

> <Gold.Chemscore.DEClash>
0.0398

> <Gold.Chemscore.DEInternal>
1.3352

> <Gold.Chemscore.Rot>
2.0699

> <Gold.Chemscore.Internal.Correction>
   9.000000E+99

> <Gold.Chemscore.Hbonds>
donor molecule, donor type, donor heavy atom, donor atom, acceptor molecule, acceptor atom, score
      L1  H     3    26       P1  7948  0.99
      L1  H     5    29       P1  7948  1.00
      L1  H     7    45       P1 10175  0.98

> <Gold.Chemscore.Hbond.Weighted>
-9.9392

> <Gold.Chemscore.Metal.Weighted>
-0.0000

> <Gold.Chemscore.Lipo.Weighted>
-11.1254

> <Gold.Chemscore.Internal_Hbond.Weighted>
0.0000

> <Gold.Chemscore.DEClash.Weighted>
0.0398

> <Gold.Chemscore.DEInternal.Weighted>
1.3352

> <Gold.Chemscore.Rot.Weighted>
5.2991

> <Gold.Chemscore.Internal.Correction.Weighted>
   9.000000E+99

> <Gold.Protein.RotatedTorsions>
[ 6907 6896 6895 6894 ] final -169.80 input  -60.11 | X-H torsion
[ 7974 7965 7964 7962 ] final   38.21 input  175.53 | X-H torsion
[ 8008 7997 7996 7995 ] final   74.95 input   59.86 | X-H torsion
[ 10167 10162 10161 10158 ] final   41.88 input  -65.29 | X-H torsion
[ 10718 10713 10712 10709 ] final  -77.07 input   66.30 | X-H torsion
[ 10763 10752 10751 10750 ] final  101.27 input  -60.55 | X-H torsion
[ 11005 11000 10999 10996 ] final  -50.79 input  -57.11 | X-H torsion

> <Gold.Protein.ActiveResidues>
 VAL166  LYS551  ARG553  GLY616  TRP617  ASP618  TYR619  PRO620  LYS621  CYS622 
 ASP623  PHE694  ASN695  SER759  ASP760  ASP761  ALA762  ILE779  LEU786  VAL792 
 PHE793  MET794  SER795  GLU796  ALA797  LYS798  CYS799  TRP800  GLU811  SER814 

> <Gold.Protein.RotatedAtoms>
  151.4975  133.3511  159.2863 H   0  0  0  0  0  0  0  0  0  0  0  0  # atno 6907 bound_to 6896
  150.8795  134.8185  159.7225 H   0  0  0  0  0  0  0  0  0  0  0  0  # atno 6908 bound_to 6896
  152.4753  134.4870  159.9735 H   0  0  0  0  0  0  0  0  0  0  0  0  # atno 6909 bound_to 6896
  146.1079  139.5799  142.9371 H   0  0  0  0  0  0  0  0  0  0  0  0  # atno 7974 bound_to 7965
  155.8058  140.3475  155.5429 H   0  0  0  0  0  0  0  0  0  0  0  0  # atno 8008 bound_to 7997
  155.8491  140.0953  157.1706 H   0  0  0  0  0  0  0  0  0  0  0  0  # atno 8009 bound_to 7997
  154.4007  140.1380  156.3810 H   0  0  0  0  0  0  0  0  0  0  0  0  # atno 8010 bound_to 7997
  140.3599  144.2241  150.6139 H   0  0  0  0  0  0  0  0  0  0  0  0  # atno 10167 bound_to 10162
  156.0156  130.4481  150.3289 H   0  0  0  0  0  0  0  0  0  0  0  0  # atno 10718 bound_to 10713
  153.3246  135.4050  155.1445 H   0  0  0  0  0  0  0  0  0  0  0  0  # atno 10763 bound_to 10752
  154.8609  135.3596  154.5551 H   0  0  0  0  0  0  0  0  0  0  0  0  # atno 10764 bound_to 10752
  153.5986  135.7071  153.5452 H   0  0  0  0  0  0  0  0  0  0  0  0  # atno 10765 bound_to 10752
  141.0835  133.6648  156.3782 H   0  0  0  0  0  0  0  0  0  0  0  0  # atno 11005 bound_to 11000
  145.5724  141.0392  143.2167 LP  0  0  0  0  0  0  0  0  0  0  0  0  # atno 17320 bound_to 7965
  144.7486  139.7253  143.7282 LP  0  0  0  0  0  0  0  0  0  0  0  0  # atno 17321 bound_to 7965
  140.5137  143.2284  151.8496 LP  0  0  0  0  0  0  0  0  0  0  0  0  # atno 17342 bound_to 10162
  139.4815  144.4920  151.9173 LP  0  0  0  0  0  0  0  0  0  0  0  0  # atno 17343 bound_to 10162
  157.1387  131.0291  151.2937 LP  0  0  0  0  0  0  0  0  0  0  0  0  # atno 17370 bound_to 10713
  157.4490  130.7587  149.7134 LP  0  0  0  0  0  0  0  0  0  0  0  0  # atno 17371 bound_to 10713
  140.5415  134.6116  157.5381 LP  0  0  0  0  0  0  0  0  0  0  0  0  # atno 17394 bound_to 11000
  139.9651  134.7386  156.0155 LP  0  0  0  0  0  0  0  0  0  0  0  0  # atno 17395 bound_to 11000

$$$$
