AV-unprocessed.smi:467|AV-procd|sdf|2650|dock6
  -GOLD-   2262023 63D 1   1.00000     0.00000
 Structure written by MMmdl.
 46 48  0  0  0  0  0  0  0  0  3 V2000
  152.3647  144.3634  160.2988 C   0  0  0  0  0  0  0  0  0  0  0  0
  152.0293  143.2748  159.2935 C   0  0  0  0  0  0  0  0  0  0  0  0
  151.1414  143.5820  158.2380 C   0  0  0  0  0  0  0  0  0  0  0  0
  150.8566  142.5668  157.3326 C   0  0  0  0  0  0  0  0  0  0  0  0
  150.0370  142.5551  156.2024 N   0  3  0  0  0  0  0  0  0  0  0  0
  150.0758  141.3224  155.6257 C   0  0  0  0  0  0  0  0  0  0  0  0
  150.9087  140.5453  156.3707 N   0  0  0  0  0  0  0  0  0  0  0  0
  151.2966  139.1397  156.1795 C   0  0  0  0  0  0  0  0  0  0  0  0
  150.4639  138.4338  155.0912 C   0  0  1  0  0  0  0  0  0  0  0  0
  150.7421  139.0116  153.8298 O   0  0  0  0  0  0  0  0  0  0  0  0
  150.7701  136.9243  155.0231 C   0  0  0  0  0  0  0  0  0  0  0  0
  149.5682  136.1123  154.7011 N   0  3  0  0  0  0  0  0  0  0  0  0
  149.7996  134.6590  154.8797 C   0  0  0  0  0  0  0  0  0  0  0  0
  148.5465  133.8596  154.4828 C   0  0  0  0  0  0  0  0  0  0  0  0
  147.4335  134.3045  155.2478 O   0  0  0  0  0  0  0  0  0  0  0  0
  147.1442  135.6774  155.0164 C   0  0  0  0  0  0  0  0  0  0  0  0
  148.3497  136.5360  155.4355 C   0  0  0  0  0  0  0  0  0  0  0  0
  151.4186  141.2801  157.4489 C   0  0  0  0  0  0  0  0  0  0  0  0
  152.2936  140.9607  158.4852 C   0  0  0  0  0  0  0  0  0  0  0  0
  152.5970  141.9802  159.4160 C   0  0  0  0  0  0  0  0  0  0  0  0
  153.5500  141.6604  160.5553 C   0  0  0  0  0  0  0  0  0  0  0  0
  151.8898  145.3091  160.0361 H   0  0  0  0  0  0  0  0  0  0  0  0
  153.4410  144.5323  160.3386 H   0  0  0  0  0  0  0  0  0  0  0  0
  152.0201  144.0830  161.2945 H   0  0  0  0  0  0  0  0  0  0  0  0
  150.7047  144.5651  158.1390 H   0  0  0  0  0  0  0  0  0  0  0  0
  149.5427  141.0176  154.7367 H   0  0  0  0  0  0  0  0  0  0  0  0
  152.3643  139.0818  155.9665 H   0  0  0  0  0  0  0  0  0  0  0  0
  151.1512  138.6384  157.1375 H   0  0  0  0  0  0  0  0  0  0  0  0
  149.4089  138.5965  155.3098 H   0  0  0  0  0  0  0  0  0  0  0  0
  149.9340  139.0856  153.3451 H   0  0  0  0  0  0  0  0  0  0  0  0
  151.5405  136.7604  154.2675 H   0  0  0  0  0  0  0  0  0  0  0  0
  151.1942  136.5755  155.9661 H   0  0  0  0  0  0  0  0  0  0  0  0
  150.6441  134.3402  154.2676 H   0  0  0  0  0  0  0  0  0  0  0  0
  150.0606  134.4546  155.9195 H   0  0  0  0  0  0  0  0  0  0  0  0
  148.3370  133.9658  153.4171 H   0  0  0  0  0  0  0  0  0  0  0  0
  148.7026  132.7972  154.6721 H   0  0  0  0  0  0  0  0  0  0  0  0
  146.8967  135.8388  153.9659 H   0  0  0  0  0  0  0  0  0  0  0  0
  146.2646  135.9554  155.5973 H   0  0  0  0  0  0  0  0  0  0  0  0
  148.5166  136.4401  156.5096 H   0  0  0  0  0  0  0  0  0  0  0  0
  148.1286  137.5846  155.2401 H   0  0  0  0  0  0  0  0  0  0  0  0
  152.7304  139.9782  158.5809 H   0  0  0  0  0  0  0  0  0  0  0  0
  153.8466  140.6111  160.5454 H   0  0  0  0  0  0  0  0  0  0  0  0
  153.0804  141.8632  161.5182 H   0  0  0  0  0  0  0  0  0  0  0  0
  154.4549  142.2640  160.4765 H   0  0  0  0  0  0  0  0  0  0  0  0
  149.3854  136.2501  153.7169 H   0  0  0  0  0  0  0  0  0  0  0  0
  149.4906  143.3302  155.8485 H   0  0  0  0  0  0  0  0  0  0  0  0
  1  2  1  0  0  0  0
  1 22  1  0  0  0  0
  1 23  1  0  0  0  0
  1 24  1  0  0  0  0
  2 20  1  0  0  0  0
  2  3  2  0  0  0  0
  3  4  1  0  0  0  0
  3 25  1  0  0  0  0
  4 18  2  0  0  0  0
  4  5  1  0  0  0  0
  5  6  2  0  0  0  0
  5 46  1  0  0  0  0
  6  7  1  0  0  0  0
  6 26  1  0  0  0  0
  7  8  1  0  0  0  0
  7 18  1  0  0  0  0
  8  9  1  0  0  0  0
  8 27  1  0  0  0  0
  8 28  1  0  0  0  0
  9 10  1  0  0  0  0
  9 11  1  0  0  0  0
  9 29  1  0  0  0  0
 10 30  1  0  0  0  0
 11 12  1  0  0  0  0
 11 31  1  0  0  0  0
 11 32  1  0  0  0  0
 12 17  1  0  0  0  0
 12 13  1  0  0  0  0
 12 45  1  0  0  0  0
 13 14  1  0  0  0  0
 13 33  1  0  0  0  0
 13 34  1  0  0  0  0
 14 15  1  0  0  0  0
 14 35  1  0  0  0  0
 14 36  1  0  0  0  0
 15 16  1  0  0  0  0
 16 17  1  0  0  0  0
 16 37  1  0  0  0  0
 16 38  1  0  0  0  0
 17 39  1  0  0  0  0
 17 40  1  0  0  0  0
 18 19  1  0  0  0  0
 19 20  2  0  0  0  0
 19 41  1  0  0  0  0
 20 21  1  0  0  0  0
 21 42  1  0  0  0  0
 21 43  1  0  0  0  0
 21 44  1  0  0  0  0
M  CHG  1   5   1
M  CHG  1  12   1
M  END
> <s_m_source_file>
AV-unprocessed.smi

> <i_m_source_file_index>
467

> <i_lp_mmshare_version>
43012

> <i_f3d_flags>
0

> <s_epik_input>
W0NIM11jKFtjSF0xKWMoW0NIM10pW2NIXWMoYzEyKW4oW2NIXW4yKVtDSDJdW0NASF0oW09IXSlbQ0gyXU4zW0NIMl1bQ0gyXU9bQ0gyXVtDSDJdMw==

> <s_epik_cmdline>
J2VwaWtfcHl0aG9uJywgJy1waCcsICc3LjAnLCAnLXRuJywgJzgnLCAnLW1hJywgJzIwMCcsICctbWV0YWxfYmluZGluZycsICctaW1hZScsICc8aW5maWxlLm1hZT4nLCAnLW9tYWUnLCAnPG91dGZpbGUubWFlPic=

> <r_epik_Ionization_Penalty>
1.88533

> <r_epik_Ionization_Penalty_Charging>
1.88531

> <r_epik_Ionization_Penalty_Neutral>
1.42224e-05

> <r_epik_State_Penalty>
1.94609

> <r_epik_Charging_Adjusted_Penalty>
3.8314

> <i_epik_Tot_Q>
2

> <i_epik_Tot_abs_Q>
2

> <r_epik_Metal_State_Penalty>
5.95915

> <b_epik_Metal_Only>
0

> <s_lp_Force_Field>
OPLS_2005

> <r_lp_Energy>
30.7546

> <b_lp_Chiralities_Consistent>
1

> <s_lp_Variant>
AV-unprocessed.smi:467-8

> <Gold.Version>
5.8.1

> <Gold.Id.Protein>
6NUR|6NUR_protein|mol2

> <Gold.PLP.Fitness>
55.2682

> <Gold.PLP.PLP>
-41.1142

> <Gold.PLP.part.hbond>
-3.9448

> <Gold.PLP.part.metal>
0.0000

> <Gold.PLP.part.buried>
-2.1837

> <Gold.PLP.part.nonpolar>
-35.4170

> <Gold.PLP.part.repulsive>
0.2160

> <Gold.PLP.ligand.clash>
0.0000

> <Gold.PLP.ligand.torsion>
0.6752

> <Gold.PLP.Chemscore.Hbond>
5.1576

> <Gold.PLP.Chemscore.CHOScore>
0.0000

> <Gold.PLP.Chemscore.Metal>
0.0000

> <Gold.Chemscore.Hbonds>
donor molecule, donor type, donor heavy atom, donor atom, acceptor molecule, acceptor atom, score
      L1  H     5    46       P1  8028  1.98
      L1  H    10    30       P1  7957  0.04
      L1  H    12    45       P1  7948  2.00
      P1  H  7989  7998       L1    10  0.89

> <Gold.PLP.Chemscore.Internal.Correction>
0.0316

> <Gold.Rescore>
     Score         DG    S(hbond)    S(metal)    S(lipo)     H(rot)  DE(clash)    DE(int)     intcor
     19.65     -22.67       2.86        0.00     112.44       2.16       1.48       1.54       ----

> <Gold.Chemscore.Fitness>
19.6485

> <Gold.Chemscore.DG>
-22.6697

> <Gold.Chemscore.ZeroCoef>
-5.4800

> <Gold.Chemscore.Hbond>
2.8628

> <Gold.Chemscore.Metal>
0.0000

> <Gold.Chemscore.Lipo>
112.4405

> <Gold.Chemscore.Internal_Hbond>
0.0000

> <Gold.Chemscore.DEClash>
1.4817

> <Gold.Chemscore.DEInternal>
1.5394

> <Gold.Chemscore.Rot>
2.1592

> <Gold.Chemscore.Internal.Correction>
   9.000000E+99

> <Gold.Chemscore.Hbonds>
donor molecule, donor type, donor heavy atom, donor atom, acceptor molecule, acceptor atom, score
      L1  H     5    46       P1  8028  0.92
      L1  H    10    30       P1  7957  0.06
      L1  H    12    45       P1  7948  0.78
      P1  H  7989  7998       L1    10  0.29

> <Gold.Chemscore.Hbond.Weighted>
-9.5617

> <Gold.Chemscore.Metal.Weighted>
-0.0000

> <Gold.Chemscore.Lipo.Weighted>
-13.1555

> <Gold.Chemscore.Internal_Hbond.Weighted>
0.0000

> <Gold.Chemscore.DEClash.Weighted>
1.4817

> <Gold.Chemscore.DEInternal.Weighted>
1.5394

> <Gold.Chemscore.Rot.Weighted>
5.5275

> <Gold.Chemscore.Internal.Correction.Weighted>
   9.000000E+99

> <Gold.Protein.RotatedTorsions>
[ 6907 6896 6895 6894 ] final -179.90 input  -60.11 | X-H torsion
[ 7974 7965 7964 7962 ] final   15.85 input  175.53 | X-H torsion
[ 8008 7997 7996 7995 ] final  164.28 input   59.86 | X-H torsion
[ 10167 10162 10161 10158 ] final   83.36 input  -65.29 | X-H torsion
[ 10718 10713 10712 10709 ] final  -30.50 input   66.30 | X-H torsion
[ 10763 10752 10751 10750 ] final -126.60 input  -60.55 | X-H torsion
[ 11005 11000 10999 10996 ] final    1.95 input  -57.11 | X-H torsion

> <Gold.Protein.ActiveResidues>
 VAL166  LYS551  ARG553  GLY616  TRP617  ASP618  TYR619  PRO620  LYS621  CYS622 
 ASP623  PHE694  ASN695  SER759  ASP760  ASP761  ALA762  ILE779  LEU786  VAL792 
 PHE793  MET794  SER795  GLU796  ALA797  LYS798  CYS799  TRP800  GLU811  SER814 

> <Gold.Protein.RotatedAtoms>
  151.6609  133.3317  159.3173 H   0  0  0  0  0  0  0  0  0  0  0  0  # atno 6907 bound_to 6896
  150.7914  134.6944  159.6524 H   0  0  0  0  0  0  0  0  0  0  0  0  # atno 6908 bound_to 6896
  152.3994  134.6315  160.0128 H   0  0  0  0  0  0  0  0  0  0  0  0  # atno 6909 bound_to 6896
  146.2267  139.8834  142.8567 H   0  0  0  0  0  0  0  0  0  0  0  0  # atno 7974 bound_to 7965
  156.1892  140.1701  156.8125 H   0  0  0  0  0  0  0  0  0  0  0  0  # atno 8008 bound_to 7997
  154.5451  140.0729  156.8607 H   0  0  0  0  0  0  0  0  0  0  0  0  # atno 8009 bound_to 7997
  155.3138  140.3369  155.4245 H   0  0  0  0  0  0  0  0  0  0  0  0  # atno 8010 bound_to 7997
  139.9192  144.6223  150.8457 H   0  0  0  0  0  0  0  0  0  0  0  0  # atno 10167 bound_to 10162
  156.3990  130.4387  149.7337 H   0  0  0  0  0  0  0  0  0  0  0  0  # atno 10718 bound_to 10713
  154.8747  135.3990  154.3458 H   0  0  0  0  0  0  0  0  0  0  0  0  # atno 10763 bound_to 10752
  153.4251  135.7024  153.6273 H   0  0  0  0  0  0  0  0  0  0  0  0  # atno 10764 bound_to 10752
  153.4919  135.3746  155.2466 H   0  0  0  0  0  0  0  0  0  0  0  0  # atno 10765 bound_to 10752
  140.6097  133.9759  155.8171 H   0  0  0  0  0  0  0  0  0  0  0  0  # atno 11005 bound_to 11000
  145.2489  141.0037  143.3892 LP  0  0  0  0  0  0  0  0  0  0  0  0  # atno 17320 bound_to 7965
  144.9390  139.4210  143.6458 LP  0  0  0  0  0  0  0  0  0  0  0  0  # atno 17321 bound_to 7965
  140.7666  143.3309  151.2413 LP  0  0  0  0  0  0  0  0  0  0  0  0  # atno 17342 bound_to 10162
  139.6876  143.9747  152.2842 LP  0  0  0  0  0  0  0  0  0  0  0  0  # atno 17343 bound_to 10162
  156.4360  130.7838  151.2859 LP  0  0  0  0  0  0  0  0  0  0  0  0  # atno 17370 bound_to 10713
  157.7503  131.0139  150.3443 LP  0  0  0  0  0  0  0  0  0  0  0  0  # atno 17371 bound_to 10713
  141.0816  134.0053  157.3377 LP  0  0  0  0  0  0  0  0  0  0  0  0  # atno 17394 bound_to 11000
  139.9197  135.0199  156.8018 LP  0  0  0  0  0  0  0  0  0  0  0  0  # atno 17395 bound_to 11000

$$$$
