AV-unprocessed.smi:218|AV-procd|sdf|1675|dock2
  -GOLD-   2262020103D 1   1.00000     0.00000
 Structure written by MMmdl.
 54 57  0  0  0  0  0  0  0  0  1 V2000
  152.9897  142.8246  159.4317 C   0  0  0  0  0  0  0  0  0  0  0  0
  152.2132  143.7549  158.4920 C   0  0  0  0  0  0  0  0  0  0  0  0
  151.9618  145.1237  159.1480 C   0  0  0  0  0  0  0  0  0  0  0  0
  150.9730  143.1079  158.1989 O   0  0  0  0  0  0  0  0  0  0  0  0
  150.9419  142.0190  157.3489 C   0  0  0  0  0  0  0  0  0  0  0  0
  149.9915  142.0118  156.3077 C   0  0  0  0  0  0  0  0  0  0  0  0
  149.9472  140.9077  155.4298 C   0  0  0  0  0  0  0  0  0  0  0  0
  148.9426  140.8432  154.2951 C   0  0  0  0  0  0  0  0  0  0  0  0
  148.9302  139.5669  153.5918 N   0  0  0  0  0  0  0  0  0  0  0  0
  148.3260  138.4945  154.1460 C   0  0  0  0  0  0  0  0  0  0  0  0
  148.9318  137.7826  155.1312 N   0  0  0  0  0  0  0  0  0  0  0  0
  148.3185  136.7191  155.6573 C   0  0  0  0  0  0  0  0  0  0  0  0
  147.1226  136.2118  155.3525 N   0  0  0  0  0  0  0  0  0  0  0  0
  146.5011  136.9269  154.3687 C   0  0  0  0  0  0  0  0  0  0  0  0
  147.0417  138.0711  153.7160 C   0  0  0  0  0  0  0  0  0  0  0  0
  146.1518  138.5322  152.7568 N   0  0  0  0  0  0  0  0  0  0  0  0
  145.1475  137.7028  152.8362 C   0  0  0  0  0  0  0  0  0  0  0  0
  145.2558  136.7205  153.7988 N   0  0  0  0  0  0  0  0  0  0  0  0
  144.2710  135.6177  154.0849 C   0  0  1  0  0  0  0  0  0  0  0  0
  143.0331  136.1771  154.4030 O   0  0  0  0  0  0  0  0  0  0  0  0
  142.2388  136.2580  153.2279 C   0  0  2  0  0  0  0  0  0  0  0  0
  140.7674  136.5513  153.5706 C   0  0  0  0  0  0  0  0  0  0  0  0
  140.1873  135.4481  154.2341 O   0  0  0  0  0  0  0  0  0  0  0  0
  142.5499  134.9207  152.5450 C   0  0  2  0  0  0  0  0  0  0  0  0
  141.7719  133.8755  153.1054 O   0  0  0  0  0  0  0  0  0  0  0  0
  144.0466  134.7580  152.8204 C   0  0  2  0  0  0  0  0  0  0  0  0
  144.4336  133.4061  152.9853 O   0  0  0  0  0  0  0  0  0  0  0  0
  150.8512  139.8470  155.6387 C   0  0  0  0  0  0  0  0  0  0  0  0
  151.7623  139.9420  156.7080 C   0  0  0  0  0  0  0  0  0  0  0  0
  151.8132  140.9985  157.5461 N   0  0  0  0  0  0  0  0  0  0  0  0
  144.6981  135.0839  154.9346 H   0  0  0  0  0  0  0  0  0  0  0  0
  142.6306  137.0726  152.6150 H   0  0  0  0  0  0  0  0  0  0  0  0
  142.3432  134.9581  151.4748 H   0  0  0  0  0  0  0  0  0  0  0  0
  144.6018  135.1793  151.9817 H   0  0  0  0  0  0  0  0  0  0  0  0
  153.9588  143.2502  159.6940 H   0  0  0  0  0  0  0  0  0  0  0  0
  153.1694  141.8575  158.9615 H   0  0  0  0  0  0  0  0  0  0  0  0
  152.4400  142.6477  160.3566 H   0  0  0  0  0  0  0  0  0  0  0  0
  152.8155  143.8779  157.5907 H   0  0  0  0  0  0  0  0  0  0  0  0
  152.9025  145.6083  159.4102 H   0  0  0  0  0  0  0  0  0  0  0  0
  151.3753  145.0200  160.0612 H   0  0  0  0  0  0  0  0  0  0  0  0
  151.4225  145.7987  158.4842 H   0  0  0  0  0  0  0  0  0  0  0  0
  149.3098  142.8417  156.1921 H   0  0  0  0  0  0  0  0  0  0  0  0
  147.9458  141.0421  154.6916 H   0  0  0  0  0  0  0  0  0  0  0  0
  149.1740  141.6421  153.5893 H   0  0  0  0  0  0  0  0  0  0  0  0
  149.3733  139.5531  152.6843 H   0  0  0  0  0  0  0  0  0  0  0  0
  148.8622  136.2005  156.4331 H   0  0  0  0  0  0  0  0  0  0  0  0
  144.2878  137.7888  152.1874 H   0  0  0  0  0  0  0  0  0  0  0  0
  140.6665  137.4448  154.1872 H   0  0  0  0  0  0  0  0  0  0  0  0
  140.2054  136.7349  152.6547 H   0  0  0  0  0  0  0  0  0  0  0  0
  140.4907  135.4453  155.1292 H   0  0  0  0  0  0  0  0  0  0  0  0
  142.3044  133.4145  153.7359 H   0  0  0  0  0  0  0  0  0  0  0  0
  143.8453  132.9977  153.6020 H   0  0  0  0  0  0  0  0  0  0  0  0
  150.8498  138.9790  154.9959 H   0  0  0  0  0  0  0  0  0  0  0  0
  152.4689  139.1472  156.8959 H   0  0  0  0  0  0  0  0  0  0  0  0
  1  2  1  0  0  0  0
  1 35  1  0  0  0  0
  1 36  1  0  0  0  0
  1 37  1  0  0  0  0
  2  3  1  0  0  0  0
  2  4  1  0  0  0  0
  2 38  1  0  0  0  0
  3 39  1  0  0  0  0
  3 40  1  0  0  0  0
  3 41  1  0  0  0  0
  4  5  1  0  0  0  0
  5 30  1  0  0  0  0
  5  6  2  0  0  0  0
  6  7  1  0  0  0  0
  6 42  1  0  0  0  0
  7  8  1  0  0  0  0
  7 28  2  0  0  0  0
  8  9  1  0  0  0  0
  8 43  1  0  0  0  0
  8 44  1  0  0  0  0
  9 10  1  0  0  0  0
  9 45  1  0  0  0  0
 10 15  1  0  0  0  0
 10 11  2  0  0  0  0
 11 12  1  0  0  0  0
 12 13  2  0  0  0  0
 12 46  1  0  0  0  0
 13 14  1  0  0  0  0
 14 18  1  0  0  0  0
 14 15  2  0  0  0  0
 15 16  1  0  0  0  0
 16 17  2  0  0  0  0
 17 18  1  0  0  0  0
 17 47  1  0  0  0  0
 18 19  1  0  0  0  0
 19 31  1  0  0  0  0
 19 26  1  0  0  0  0
 19 20  1  0  0  0  0
 20 21  1  0  0  0  0
 21 32  1  0  0  0  0
 21 22  1  0  0  0  0
 21 24  1  0  0  0  0
 22 23  1  0  0  0  0
 22 48  1  0  0  0  0
 22 49  1  0  0  0  0
 23 50  1  0  0  0  0
 24 33  1  0  0  0  0
 24 25  1  0  0  0  0
 24 26  1  0  0  0  0
 25 51  1  0  0  0  0
 26 34  1  0  0  0  0
 26 27  1  0  0  0  0
 27 52  1  0  0  0  0
 28 29  1  0  0  0  0
 28 53  1  0  0  0  0
 29 30  2  0  0  0  0
 29 54  1  0  0  0  0
M  END
> <s_m_source_file>
AV-unprocessed.smi

> <i_m_source_file_index>
218

> <i_lp_mmshare_version>
43012

> <i_f3d_flags>
0

> <s_epik_input>
W0NIM11bQ0hdKFtDSDNdKU9jMVtjSF1jKFtjSF1bY0hdbjEpW0NIMl1bTkhdYyhuW2NIXW4yKWMoYzIzKW5bY0hdbjNbQ0BASF00T1tDQEhdKFtDSDJdW09IXSlbQ0BASF0oW09IXSlbQ0BIXTRbT0hd

> <s_epik_cmdline>
J2VwaWtfcHl0aG9uJywgJy1waCcsICc3LjAnLCAnLXRuJywgJzgnLCAnLW1hJywgJzIwMCcsICctbWV0YWxfYmluZGluZycsICctaW1hZScsICc8aW5maWxlLm1hZT4nLCAnLW9tYWUnLCAnPG91dGZpbGUubWFlPic=

> <r_lp_tautomer_probability>
1

> <r_epik_Ionization_Penalty>
0.00457014

> <r_epik_Ionization_Penalty_Charging>
0

> <r_epik_Ionization_Penalty_Neutral>
0.00457014

> <r_epik_State_Penalty>
-0

> <r_epik_Charging_Adjusted_Penalty>
0

> <i_epik_Tot_Q>
0

> <i_epik_Tot_abs_Q>
0

> <r_epik_Metal_State_Penalty>
-0

> <b_epik_Metal_Only>
0

> <s_epik_Chemistry_Notes>
This compound contains an acetal/aminal-like group ( X-CH(R)-Y where X, Y are N, S, or O) that may be acid/base labile, releasing an aldehyde.

> <s_lp_Force_Field>
OPLS_2005

> <r_lp_Energy>
43.0364

> <b_lp_Chiralities_Consistent>
1

> <s_lp_Variant>
AV-unprocessed.smi:218-14

> <Gold.Version>
5.8.1

> <Gold.Id.Protein>
6NUR|6NUR_protein|mol2

> <Gold.PLP.Fitness>
56.6857

> <Gold.PLP.PLP>
-44.5809

> <Gold.PLP.part.hbond>
-4.5944

> <Gold.PLP.part.metal>
0.0000

> <Gold.PLP.part.buried>
-4.3416

> <Gold.PLP.part.nonpolar>
-36.4596

> <Gold.PLP.part.repulsive>
0.7266

> <Gold.PLP.ligand.clash>
0.0000

> <Gold.PLP.ligand.torsion>
1.1541

> <Gold.PLP.Chemscore.Hbond>
3.5110

> <Gold.PLP.Chemscore.CHOScore>
1.2311

> <Gold.PLP.Chemscore.Metal>
0.0000

> <Gold.Chemscore.Hbonds>
donor molecule, donor type, donor heavy atom, donor atom, acceptor molecule, acceptor atom, score
      L1  H     9    45       P1  7957  1.00
      L1  H    23    50       P1 11000  0.67
      L1  H    25    51       P1 10957  0.96
      L1  H    27    52       P1 10957  0.89
      L1  C    17    47       P1 10171  0.99
      L1  C    17    47       P1 10175  0.22

> <Gold.PLP.Chemscore.Internal.Correction>
0.1866

> <Gold.Rescore>
     Score         DG    S(hbond)    S(metal)    S(lipo)     H(rot)  DE(clash)    DE(int)     intcor
     13.52     -16.45       3.73        0.00      94.52       4.90       0.00       2.93       ----

> <Gold.Chemscore.Fitness>
13.5154

> <Gold.Chemscore.DG>
-16.4512

> <Gold.Chemscore.ZeroCoef>
-5.4800

> <Gold.Chemscore.Hbond>
3.7319

> <Gold.Chemscore.Metal>
0.0000

> <Gold.Chemscore.Lipo>
94.5153

> <Gold.Chemscore.Internal_Hbond>
0.0000

> <Gold.Chemscore.DEClash>
0.0009

> <Gold.Chemscore.DEInternal>
2.9349

> <Gold.Chemscore.Rot>
4.9029

> <Gold.Chemscore.Internal.Correction>
   9.000000E+99

> <Gold.Chemscore.Hbonds>
donor molecule, donor type, donor heavy atom, donor atom, acceptor molecule, acceptor atom, score
      L1  H     9    45       P1  7957  0.97
      L1  H    23    50       P1 11000  0.63
      L1  H    25    51       P1 10957  0.90
      L1  H    27    52       P1 10957  0.77

> <Gold.Chemscore.Hbond.Weighted>
-12.4645

> <Gold.Chemscore.Metal.Weighted>
-0.0000

> <Gold.Chemscore.Lipo.Weighted>
-11.0583

> <Gold.Chemscore.Internal_Hbond.Weighted>
0.0000

> <Gold.Chemscore.DEClash.Weighted>
0.0009

> <Gold.Chemscore.DEInternal.Weighted>
2.9349

> <Gold.Chemscore.Rot.Weighted>
12.5515

> <Gold.Chemscore.Internal.Correction.Weighted>
   9.000000E+99

> <Gold.Protein.RotatedTorsions>
[ 6907 6896 6895 6894 ] final   64.51 input  -60.11 | X-H torsion
[ 7974 7965 7964 7962 ] final   92.85 input  175.53 | X-H torsion
[ 8008 7997 7996 7995 ] final  -70.59 input   59.86 | X-H torsion
[ 10167 10162 10161 10158 ] final -170.50 input  -65.29 | X-H torsion
[ 10718 10713 10712 10709 ] final   13.55 input   66.30 | X-H torsion
[ 10763 10752 10751 10750 ] final -137.11 input  -60.55 | X-H torsion
[ 11005 11000 10999 10996 ] final -131.95 input  -57.11 | X-H torsion

> <Gold.Protein.ActiveResidues>
 VAL166  LYS551  ARG553  GLY616  TRP617  ASP618  TYR619  PRO620  LYS621  CYS622 
 ASP623  PHE694  ASN695  SER759  ASP760  ASP761  ALA762  ILE779  LEU786  VAL792 
 PHE793  MET794  SER795  GLU796  ALA797  LYS798  CYS799  TRP800  GLU811  SER814 

> <Gold.Protein.RotatedAtoms>
  152.4337  134.5727  159.9925 H   0  0  0  0  0  0  0  0  0  0  0  0  # atno 6907 bound_to 6896
  151.5844  133.3368  159.3023 H   0  0  0  0  0  0  0  0  0  0  0  0  # atno 6908 bound_to 6896
  150.8233  134.7487  159.6856 H   0  0  0  0  0  0  0  0  0  0  0  0  # atno 6909 bound_to 6896
  145.4868  139.2277  143.2852 H   0  0  0  0  0  0  0  0  0  0  0  0  # atno 7974 bound_to 7965
  154.5023  140.0831  156.7824 H   0  0  0  0  0  0  0  0  0  0  0  0  # atno 8008 bound_to 7997
  155.3973  140.3435  155.4236 H   0  0  0  0  0  0  0  0  0  0  0  0  # atno 8009 bound_to 7997
  156.1472  140.1547  156.8815 H   0  0  0  0  0  0  0  0  0  0  0  0  # atno 8010 bound_to 7997
  139.5858  144.1322  152.1573 H   0  0  0  0  0  0  0  0  0  0  0  0  # atno 10167 bound_to 10162
  157.0263  130.6175  149.5728 H   0  0  0  0  0  0  0  0  0  0  0  0  # atno 10718 bound_to 10713
  154.8669  135.3652  154.5170 H   0  0  0  0  0  0  0  0  0  0  0  0  # atno 10763 bound_to 10752
  153.5802  135.7018  153.5471 H   0  0  0  0  0  0  0  0  0  0  0  0  # atno 10764 bound_to 10752
  153.3464  135.4084  155.1574 H   0  0  0  0  0  0  0  0  0  0  0  0  # atno 10765 bound_to 10752
  140.9213  134.1440  157.4311 H   0  0  0  0  0  0  0  0  0  0  0  0  # atno 11005 bound_to 11000
  146.2308  140.5659  142.8976 LP  0  0  0  0  0  0  0  0  0  0  0  0  # atno 17320 bound_to 7965
  144.7857  140.5931  143.6575 LP  0  0  0  0  0  0  0  0  0  0  0  0  # atno 17321 bound_to 7965
  140.0885  144.5640  150.7071 LP  0  0  0  0  0  0  0  0  0  0  0  0  # atno 17342 bound_to 10162
  140.7130  143.2520  151.4523 LP  0  0  0  0  0  0  0  0  0  0  0  0  # atno 17343 bound_to 10162
  156.0085  130.5174  150.7910 LP  0  0  0  0  0  0  0  0  0  0  0  0  # atno 17370 bound_to 10713
  157.5212  131.0931  151.0076 LP  0  0  0  0  0  0  0  0  0  0  0  0  # atno 17371 bound_to 10713
  139.8776  134.9972  156.5836 LP  0  0  0  0  0  0  0  0  0  0  0  0  # atno 17394 bound_to 11000
  140.7984  133.8525  155.8705 LP  0  0  0  0  0  0  0  0  0  0  0  0  # atno 17395 bound_to 11000

$$$$
