AV-unprocessed.smi:2128|AV-procd|sdf|8681|dock8
  -GOLD-   2272011433D 1   1.00000     0.00000
 Structure written by MMmdl.
 50 52  0  0  0  0  0  0  0  0  1 V2000
  153.3149  129.2037  166.5445 O   0  0  0  0  0  0  0  0  0  0  0  0
  153.6868  129.6266  165.4520 C   0  0  0  0  0  0  0  0  0  0  0  0
  154.0193  131.1216  165.2925 C   0  0  0  0  0  0  0  0  0  0  0  0
  154.2969  131.5727  163.9205 N   0  0  0  0  0  0  0  0  0  0  0  0
  154.3686  132.9723  163.7078 C   0  0  0  0  0  0  0  0  0  0  0  0
  154.2483  133.8851  164.7858 C   0  0  0  0  0  0  0  0  0  0  0  0
  154.3207  135.2689  164.5354 C   0  0  0  0  0  0  0  0  0  0  0  0
  154.5192  135.7167  163.2097 C   0  0  0  0  0  0  0  0  0  0  0  0
  154.5888  137.0834  162.8269 N   0  0  0  0  0  0  0  0  0  0  0  0
  154.0778  137.6700  161.7311 C   0  0  0  0  0  0  0  0  0  0  0  0
  153.4328  137.0962  160.8537 O   0  0  0  0  0  0  0  0  0  0  0  0
  154.3350  138.9862  161.7232 N   0  0  0  0  0  0  0  0  0  0  0  0
  153.8758  139.9357  160.7122 C   0  0  0  0  0  0  0  0  0  0  0  0
  154.3071  141.3797  161.0364 C   0  0  0  0  0  0  0  0  0  0  0  0
  153.3561  142.4436  160.5082 C   0  0  0  0  0  0  0  0  0  0  0  0
  153.1974  142.6634  159.1883 C   0  0  0  0  0  0  0  0  0  0  0  0
  152.2520  143.6968  158.6024 C   0  0  0  0  0  0  0  0  0  0  0  0
  151.2383  144.2157  159.6358 C   0  0  0  0  0  0  0  0  0  0  0  0
  151.9150  144.4968  160.9830 C   0  0  0  0  0  0  0  0  0  0  0  0
  152.5748  143.2296  161.5555 C   0  0  0  0  0  0  0  0  0  0  0  0
  154.6150  134.7395  162.2007 C   0  0  0  0  0  0  0  0  0  0  0  0
  154.5484  133.4132  162.4377 N   0  0  0  0  0  0  0  0  0  0  0  0
  153.9124  130.7109  162.7989 C   0  0  0  0  0  0  0  0  0  0  0  0
  154.2738  129.2460  163.0800 C   0  0  0  0  0  0  0  0  0  0  0  0
  153.7986  128.8169  164.3878 N   0  0  0  0  0  0  0  0  0  0  0  0
  153.1932  131.7013  165.7077 H   0  0  0  0  0  0  0  0  0  0  0  0
  154.8949  131.3106  165.9137 H   0  0  0  0  0  0  0  0  0  0  0  0
  154.1049  133.5535  165.8027 H   0  0  0  0  0  0  0  0  0  0  0  0
  154.2095  135.9540  165.3614 H   0  0  0  0  0  0  0  0  0  0  0  0
  155.0205  137.6996  163.4998 H   0  0  0  0  0  0  0  0  0  0  0  0
  154.8718  139.3672  162.4888 H   0  0  0  0  0  0  0  0  0  0  0  0
  154.3095  139.6387  159.7573 H   0  0  0  0  0  0  0  0  0  0  0  0
  152.7949  139.8743  160.5780 H   0  0  0  0  0  0  0  0  0  0  0  0
  154.4002  141.4877  162.1180 H   0  0  0  0  0  0  0  0  0  0  0  0
  155.3005  141.5698  160.6287 H   0  0  0  0  0  0  0  0  0  0  0  0
  153.7791  142.0964  158.4760 H   0  0  0  0  0  0  0  0  0  0  0  0
  152.8534  144.5212  158.2183 H   0  0  0  0  0  0  0  0  0  0  0  0
  151.7259  143.2631  157.7518 H   0  0  0  0  0  0  0  0  0  0  0  0
  150.7497  145.1152  159.2602 H   0  0  0  0  0  0  0  0  0  0  0  0
  150.4517  143.4737  159.7790 H   0  0  0  0  0  0  0  0  0  0  0  0
  152.6727  145.2702  160.8484 H   0  0  0  0  0  0  0  0  0  0  0  0
  151.1920  144.8943  161.6955 H   0  0  0  0  0  0  0  0  0  0  0  0
  151.8139  142.5688  161.9720 H   0  0  0  0  0  0  0  0  0  0  0  0
  153.2290  143.5111  162.3801 H   0  0  0  0  0  0  0  0  0  0  0  0
  154.7544  135.0279  161.1690 H   0  0  0  0  0  0  0  0  0  0  0  0
  152.8385  130.8075  162.6301 H   0  0  0  0  0  0  0  0  0  0  0  0
  154.4138  131.0127  161.8782 H   0  0  0  0  0  0  0  0  0  0  0  0
  153.8544  128.5964  162.3114 H   0  0  0  0  0  0  0  0  0  0  0  0
  155.3565  129.1158  163.0506 H   0  0  0  0  0  0  0  0  0  0  0  0
  153.5658  127.8409  164.5007 H   0  0  0  0  0  0  0  0  0  0  0  0
  1  2  2  0  0  0  0
  2 25  1  0  0  0  0
  2  3  1  0  0  0  0
  3  4  1  0  0  0  0
  3 26  1  0  0  0  0
  3 27  1  0  0  0  0
  4  5  1  0  0  0  0
  4 23  1  0  0  0  0
  5 22  1  0  0  0  0
  5  6  2  0  0  0  0
  6  7  1  0  0  0  0
  6 28  1  0  0  0  0
  7  8  2  0  0  0  0
  7 29  1  0  0  0  0
  8  9  1  0  0  0  0
  8 21  1  0  0  0  0
  9 10  1  0  0  0  0
  9 30  1  0  0  0  0
 10 11  2  0  0  0  0
 10 12  1  0  0  0  0
 12 13  1  0  0  0  0
 12 31  1  0  0  0  0
 13 14  1  0  0  0  0
 13 32  1  0  0  0  0
 13 33  1  0  0  0  0
 14 15  1  0  0  0  0
 14 34  1  0  0  0  0
 14 35  1  0  0  0  0
 15 20  1  0  0  0  0
 15 16  2  0  0  0  0
 16 17  1  0  0  0  0
 16 36  1  0  0  0  0
 17 18  1  0  0  0  0
 17 37  1  0  0  0  0
 17 38  1  0  0  0  0
 18 19  1  0  0  0  0
 18 39  1  0  0  0  0
 18 40  1  0  0  0  0
 19 20  1  0  0  0  0
 19 41  1  0  0  0  0
 19 42  1  0  0  0  0
 20 43  1  0  0  0  0
 20 44  1  0  0  0  0
 21 22  2  0  0  0  0
 21 45  1  0  0  0  0
 23 24  1  0  0  0  0
 23 46  1  0  0  0  0
 23 47  1  0  0  0  0
 24 25  1  0  0  0  0
 24 48  1  0  0  0  0
 24 49  1  0  0  0  0
 25 50  1  0  0  0  0
M  END
> <s_m_source_file>
AV-unprocessed.smi

> <i_m_source_file_index>
2128

> <i_lp_mmshare_version>
43012

> <i_f3d_flags>
0

> <s_epik_input>
Tz1DMVtDSDJdTihbQ0gyXVtDSDJdW05IXTEpYzJbY0hdW2NIXWMoW2NIXW4yKVtOSF1DKD1PKVtOSF1bQ0gyXVtDSDJdQzM9W0NIXVtDSDJdW0NIMl1bQ0gyXVtDSDJdMw==

> <s_epik_cmdline>
J2VwaWtfcHl0aG9uJywgJy1waCcsICc3LjAnLCAnLXRuJywgJzgnLCAnLW1hJywgJzIwMCcsICctbWV0YWxfYmluZGluZycsICctaW1hZScsICc8aW5maWxlLm1hZT4nLCAnLW9tYWUnLCAnPG91dGZpbGUubWFlPic=

> <r_lp_tautomer_probability>
1

> <r_epik_Ionization_Penalty>
0.0211825

> <r_epik_Ionization_Penalty_Charging>
0

> <r_epik_Ionization_Penalty_Neutral>
0.0211825

> <r_epik_State_Penalty>
0.0169697

> <r_epik_Charging_Adjusted_Penalty>
0.0169697

> <i_epik_Tot_Q>
0

> <i_epik_Tot_abs_Q>
0

> <r_epik_Metal_State_Penalty>
0.0163833

> <b_epik_Metal_Only>
0

> <s_lp_Force_Field>
OPLS_2005

> <r_lp_Energy>
24.085

> <b_lp_Chiralities_Consistent>
1

> <s_lp_Variant>
AV-unprocessed.smi:2128-1

> <Gold.Version>
5.8.1

> <Gold.Id.Protein>
6NUR|6NUR_protein|mol2

> <Gold.PLP.Fitness>
45.8070

> <Gold.PLP.PLP>
-46.9204

> <Gold.PLP.part.hbond>
0.0000

> <Gold.PLP.part.metal>
0.0000

> <Gold.PLP.part.buried>
-4.9295

> <Gold.PLP.part.nonpolar>
-41.9562

> <Gold.PLP.part.repulsive>
0.0613

> <Gold.PLP.ligand.clash>
0.0000

> <Gold.PLP.ligand.torsion>
0.6492

> <Gold.PLP.Chemscore.Hbond>
0.0000

> <Gold.PLP.Chemscore.CHOScore>
0.0000

> <Gold.PLP.Chemscore.Metal>
0.0000

> <Gold.PLP.Chemscore.Internal.Correction>
0.1849

> <Gold.Rescore>
     Score         DG    S(hbond)    S(metal)    S(lipo)     H(rot)  DE(clash)    DE(int)     intcor
     16.10     -17.96       0.00        0.00     137.52       1.41       0.07       1.79       ----

> <Gold.Chemscore.Fitness>
16.1032

> <Gold.Chemscore.DG>
-17.9637

> <Gold.Chemscore.ZeroCoef>
-5.4800

> <Gold.Chemscore.Hbond>
0.0000

> <Gold.Chemscore.Metal>
0.0000

> <Gold.Chemscore.Lipo>
137.5203

> <Gold.Chemscore.Internal_Hbond>
0.0000

> <Gold.Chemscore.DEClash>
0.0691

> <Gold.Chemscore.DEInternal>
1.7914

> <Gold.Chemscore.Rot>
1.4087

> <Gold.Chemscore.Internal.Correction>
   9.000000E+99

> <Gold.Chemscore.Hbond.Weighted>
-0.0000

> <Gold.Chemscore.Metal.Weighted>
-0.0000

> <Gold.Chemscore.Lipo.Weighted>
-16.0899

> <Gold.Chemscore.Internal_Hbond.Weighted>
0.0000

> <Gold.Chemscore.DEClash.Weighted>
0.0691

> <Gold.Chemscore.DEInternal.Weighted>
1.7914

> <Gold.Chemscore.Rot.Weighted>
3.6061

> <Gold.Chemscore.Internal.Correction.Weighted>
   9.000000E+99

> <Gold.Protein.RotatedTorsions>
[ 6907 6896 6895 6894 ] final -155.79 input  -60.11 | X-H torsion
[ 7974 7965 7964 7962 ] final   17.07 input  175.53 | X-H torsion
[ 8008 7997 7996 7995 ] final  -14.08 input   59.86 | X-H torsion
[ 10167 10162 10161 10158 ] final   25.55 input  -65.29 | X-H torsion
[ 10718 10713 10712 10709 ] final   30.57 input   66.30 | X-H torsion
[ 10763 10752 10751 10750 ] final -173.95 input  -60.55 | X-H torsion
[ 11005 11000 10999 10996 ] final  -38.84 input  -57.11 | X-H torsion

> <Gold.Protein.ActiveResidues>
 VAL166  LYS551  ARG553  GLY616  TRP617  ASP618  TYR619  PRO620  LYS621  CYS622 
 ASP623  PHE694  ASN695  SER759  ASP760  ASP761  ALA762  ILE779  LEU786  VAL792 
 PHE793  MET794  SER795  GLU796  ALA797  LYS798  CYS799  TRP800  GLU811  SER814 

> <Gold.Protein.RotatedAtoms>
  151.2779  133.4224  159.2624 H   0  0  0  0  0  0  0  0  0  0  0  0  # atno 6907 bound_to 6896
  151.0387  134.9592  159.8160 H   0  0  0  0  0  0  0  0  0  0  0  0  # atno 6908 bound_to 6896
  152.5361  134.2737  159.9034 H   0  0  0  0  0  0  0  0  0  0  0  0  # atno 6909 bound_to 6896
  146.2230  139.8655  142.8597 H   0  0  0  0  0  0  0  0  0  0  0  0  # atno 7974 bound_to 7965
  154.5239  140.2232  155.8925 H   0  0  0  0  0  0  0  0  0  0  0  0  # atno 8008 bound_to 7997
  156.1692  140.3125  155.8908 H   0  0  0  0  0  0  0  0  0  0  0  0  # atno 8009 bound_to 7997
  155.3593  140.0460  157.3037 H   0  0  0  0  0  0  0  0  0  0  0  0  # atno 8010 bound_to 7997
  140.5096  144.0181  150.6367 H   0  0  0  0  0  0  0  0  0  0  0  0  # atno 10167 bound_to 10162
  157.2613  130.7163  149.6455 H   0  0  0  0  0  0  0  0  0  0  0  0  # atno 10718 bound_to 10713
  154.6019  135.2855  155.0526 H   0  0  0  0  0  0  0  0  0  0  0  0  # atno 10763 bound_to 10752
  154.1788  135.6460  153.5032 H   0  0  0  0  0  0  0  0  0  0  0  0  # atno 10764 bound_to 10752
  153.0160  135.5418  154.6741 H   0  0  0  0  0  0  0  0  0  0  0  0  # atno 10765 bound_to 10752
  141.0058  133.6932  156.2107 H   0  0  0  0  0  0  0  0  0  0  0  0  # atno 11005 bound_to 11000
  145.2661  141.0093  143.3799 LP  0  0  0  0  0  0  0  0  0  0  0  0  # atno 17320 bound_to 7965
  144.9260  139.4354  143.6518 LP  0  0  0  0  0  0  0  0  0  0  0  0  # atno 17321 bound_to 7965
  140.3500  143.2968  152.0497 LP  0  0  0  0  0  0  0  0  0  0  0  0  # atno 17342 bound_to 10162
  139.4892  144.6380  151.6935 LP  0  0  0  0  0  0  0  0  0  0  0  0  # atno 17343 bound_to 10162
  155.9664  130.4396  150.5267 LP  0  0  0  0  0  0  0  0  0  0  0  0  # atno 17370 bound_to 10713
  157.3172  131.0675  151.1958 LP  0  0  0  0  0  0  0  0  0  0  0  0  # atno 17371 bound_to 10713
  140.6815  134.4762  157.5589 LP  0  0  0  0  0  0  0  0  0  0  0  0  # atno 17394 bound_to 11000
  139.9062  134.8443  156.1696 LP  0  0  0  0  0  0  0  0  0  0  0  0  # atno 17395 bound_to 11000

$$$$
