AV-unprocessed.smi:932|AV-procd|sdf|4199|dock3
  -GOLD-   22720 2103D 1   1.00000     0.00000
 Structure written by MMmdl.
 44 45  0  0  0  0  0  0  0  0  2 V2000
  151.0522  140.8509  155.5973 O   0  0  0  0  0  0  0  0  0  0  0  0
  150.2158  141.7516  155.6322 C   0  0  0  0  0  0  0  0  0  0  0  0
  149.0851  141.7383  154.9054 N   0  0  0  0  0  0  0  0  0  0  0  0
  148.6938  140.6898  153.9682 C   0  0  0  0  0  0  0  0  0  0  0  0
  147.8801  139.5752  154.6528 C   0  0  0  0  0  0  0  0  0  0  0  0
  146.9341  138.9180  153.7460 N   0  0  0  0  0  0  0  0  0  0  0  0
  146.0641  137.9008  154.0452 C   0  0  0  0  0  0  0  0  0  0  0  0
  145.3772  137.6229  152.8918 C   0  0  0  0  0  0  0  0  0  0  0  0
  145.8605  138.4771  151.9370 N   0  3  0  0  0  0  0  0  0  0  0  0
  146.8099  139.2613  152.4575 C   0  0  0  0  0  0  0  0  0  0  0  0
  150.3740  142.8353  156.4134 N   0  0  0  0  0  0  0  0  0  0  0  0
  151.4793  143.1609  157.3203 C   0  0  0  0  0  0  0  0  0  0  0  0
  151.7392  141.9164  158.2020 C   0  0  0  0  0  0  0  0  0  0  0  0
  153.0231  141.9686  159.0547 C   0  0  0  0  0  0  0  0  0  0  0  0
  152.8177  142.2894  160.5479 C   0  0  0  0  0  0  0  0  0  0  0  0
  151.8221  143.4127  160.8893 C   0  0  0  0  0  0  0  0  0  0  0  0
  152.2035  144.8308  160.4287 C   0  0  0  0  0  0  0  0  0  0  0  0
  152.2888  145.0702  158.9088 C   0  0  0  0  0  0  0  0  0  0  0  0
  151.1375  144.4701  158.0765 C   0  0  0  0  0  0  0  0  0  0  0  0
  148.4497  142.5163  155.0090 H   0  0  0  0  0  0  0  0  0  0  0  0
  148.1479  141.1054  153.1193 H   0  0  0  0  0  0  0  0  0  0  0  0
  149.6088  140.2628  153.5573 H   0  0  0  0  0  0  0  0  0  0  0  0
  148.5485  138.8070  155.0436 H   0  0  0  0  0  0  0  0  0  0  0  0
  147.3211  139.9703  155.5022 H   0  0  0  0  0  0  0  0  0  0  0  0
  145.9951  137.4676  155.0325 H   0  0  0  0  0  0  0  0  0  0  0  0
  144.6007  136.9009  152.6848 H   0  0  0  0  0  0  0  0  0  0  0  0
  147.3600  140.0280  151.9415 H   0  0  0  0  0  0  0  0  0  0  0  0
  149.6174  143.5042  156.4008 H   0  0  0  0  0  0  0  0  0  0  0  0
  152.3829  143.3252  156.7311 H   0  0  0  0  0  0  0  0  0  0  0  0
  150.8695  141.6810  158.8156 H   0  0  0  0  0  0  0  0  0  0  0  0
  151.8435  141.0622  157.5306 H   0  0  0  0  0  0  0  0  0  0  0  0
  153.5034  140.9906  159.0052 H   0  0  0  0  0  0  0  0  0  0  0  0
  153.7534  142.6421  158.6098 H   0  0  0  0  0  0  0  0  0  0  0  0
  152.4637  141.3817  161.0384 H   0  0  0  0  0  0  0  0  0  0  0  0
  153.7848  142.5078  161.0020 H   0  0  0  0  0  0  0  0  0  0  0  0
  150.8238  143.1555  160.5389 H   0  0  0  0  0  0  0  0  0  0  0  0
  151.7272  143.4408  161.9754 H   0  0  0  0  0  0  0  0  0  0  0  0
  151.4581  145.5161  160.8341 H   0  0  0  0  0  0  0  0  0  0  0  0
  153.1485  145.1216  160.8891 H   0  0  0  0  0  0  0  0  0  0  0  0
  152.2879  146.1506  158.7593 H   0  0  0  0  0  0  0  0  0  0  0  0
  153.2533  144.7512  158.5184 H   0  0  0  0  0  0  0  0  0  0  0  0
  150.8673  145.2206  157.3322 H   0  0  0  0  0  0  0  0  0  0  0  0
  150.2390  144.3481  158.6818 H   0  0  0  0  0  0  0  0  0  0  0  0
  145.5444  138.5142  150.9759 H   0  0  0  0  0  0  0  0  0  0  0  0
  1  2  2  0  0  0  0
  2  3  1  0  0  0  0
  2 11  1  0  0  0  0
  3  4  1  0  0  0  0
  3 20  1  0  0  0  0
  4  5  1  0  0  0  0
  4 21  1  0  0  0  0
  4 22  1  0  0  0  0
  5  6  1  0  0  0  0
  5 23  1  0  0  0  0
  5 24  1  0  0  0  0
  6 10  1  0  0  0  0
  6  7  1  0  0  0  0
  7  8  2  0  0  0  0
  7 25  1  0  0  0  0
  8  9  1  0  0  0  0
  8 26  1  0  0  0  0
  9 10  2  0  0  0  0
  9 44  1  0  0  0  0
 10 27  1  0  0  0  0
 11 12  1  0  0  0  0
 11 28  1  0  0  0  0
 12 19  1  0  0  0  0
 12 13  1  0  0  0  0
 12 29  1  0  0  0  0
 13 14  1  0  0  0  0
 13 30  1  0  0  0  0
 13 31  1  0  0  0  0
 14 15  1  0  0  0  0
 14 32  1  0  0  0  0
 14 33  1  0  0  0  0
 15 16  1  0  0  0  0
 15 34  1  0  0  0  0
 15 35  1  0  0  0  0
 16 17  1  0  0  0  0
 16 36  1  0  0  0  0
 16 37  1  0  0  0  0
 17 18  1  0  0  0  0
 17 38  1  0  0  0  0
 17 39  1  0  0  0  0
 18 19  1  0  0  0  0
 18 40  1  0  0  0  0
 18 41  1  0  0  0  0
 19 42  1  0  0  0  0
 19 43  1  0  0  0  0
M  CHG  1   9   1
M  END
> <s_m_source_file>
AV-unprocessed.smi

> <i_m_source_file_index>
932

> <i_lp_mmshare_version>
43012

> <i_f3d_flags>
0

> <s_epik_input>
W2NIXTFuW2NIXVtjSF1uMVtDSDJdW0NIMl1bTkhdQyg9TylbTkhdW0NIXTJbQ0gyXVtDSDJdW0NIMl1bQ0gyXVtDSDJdW0NIMl1bQ0gyXTI=

> <s_epik_cmdline>
J2VwaWtfcHl0aG9uJywgJy1waCcsICc3LjAnLCAnLXRuJywgJzgnLCAnLW1hJywgJzIwMCcsICctbWV0YWxfYmluZGluZycsICctaW1hZScsICc8aW5maWxlLm1hZT4nLCAnLW9tYWUnLCAnPG91dGZpbGUubWFlPic=

> <r_lp_tautomer_probability>
1

> <r_epik_Ionization_Penalty>
0.254654

> <r_epik_Ionization_Penalty_Charging>
0

> <r_epik_Ionization_Penalty_Neutral>
0.254654

> <r_epik_State_Penalty>
0.246077

> <r_epik_Charging_Adjusted_Penalty>
0.246077

> <i_epik_Tot_Q>
1

> <i_epik_Tot_abs_Q>
1

> <r_epik_Metal_State_Penalty>
0.536041

> <b_epik_Metal_Only>
0

> <s_lp_Force_Field>
OPLS_2005

> <r_lp_Energy>
30.2565

> <b_lp_Chiralities_Consistent>
1

> <s_lp_Variant>
AV-unprocessed.smi:932-1

> <Gold.Version>
5.8.1

> <Gold.Id.Protein>
6NUR|6NUR_protein|mol2

> <Gold.PLP.Fitness>
51.3730

> <Gold.PLP.PLP>
-41.6231

> <Gold.PLP.part.hbond>
-4.8054

> <Gold.PLP.part.metal>
0.0000

> <Gold.PLP.part.buried>
-4.3108

> <Gold.PLP.part.nonpolar>
-32.9878

> <Gold.PLP.part.repulsive>
0.3675

> <Gold.PLP.ligand.clash>
0.0000

> <Gold.PLP.ligand.torsion>
0.4295

> <Gold.PLP.Chemscore.Hbond>
2.5250

> <Gold.PLP.Chemscore.CHOScore>
1.0000

> <Gold.PLP.Chemscore.Metal>
0.0000

> <Gold.Chemscore.Hbonds>
donor molecule, donor type, donor heavy atom, donor atom, acceptor molecule, acceptor atom, score
      L1  H     3    20       P1  8028  0.17
      L1  H     9    44       P1 10171  0.88
      L1  H    11    28       P1  8028  0.98
      P1  H  7989  7998       L1     1  0.50
      L1  C    10    27       P1  7957  1.00

> <Gold.PLP.Chemscore.Internal.Correction>
0.0340

> <Gold.Rescore>
     Score         DG    S(hbond)    S(metal)    S(lipo)     H(rot)  DE(clash)    DE(int)     intcor
     18.99     -21.06       2.34        0.00     107.83       1.90       0.35       1.73       ----

> <Gold.Chemscore.Fitness>
18.9878

> <Gold.Chemscore.DG>
-21.0620

> <Gold.Chemscore.ZeroCoef>
-5.4800

> <Gold.Chemscore.Hbond>
2.3428

> <Gold.Chemscore.Metal>
0.0000

> <Gold.Chemscore.Lipo>
107.8315

> <Gold.Chemscore.Internal_Hbond>
0.0000

> <Gold.Chemscore.DEClash>
0.3486

> <Gold.Chemscore.DEInternal>
1.7256

> <Gold.Chemscore.Rot>
1.8982

> <Gold.Chemscore.Internal.Correction>
   9.000000E+99

> <Gold.Chemscore.Hbonds>
donor molecule, donor type, donor heavy atom, donor atom, acceptor molecule, acceptor atom, score
      L1  H     3    20       P1  8028  0.16
      L1  H     9    44       P1 10171  0.81
      L1  H    11    28       P1  8028  0.92
      P1  H  7989  7998       L1     1  0.15

> <Gold.Chemscore.Hbond.Weighted>
-7.8251

> <Gold.Chemscore.Metal.Weighted>
-0.0000

> <Gold.Chemscore.Lipo.Weighted>
-12.6163

> <Gold.Chemscore.Internal_Hbond.Weighted>
0.0000

> <Gold.Chemscore.DEClash.Weighted>
0.3486

> <Gold.Chemscore.DEInternal.Weighted>
1.7256

> <Gold.Chemscore.Rot.Weighted>
4.8594

> <Gold.Chemscore.Internal.Correction.Weighted>
   9.000000E+99

> <Gold.Protein.RotatedTorsions>
[ 6907 6896 6895 6894 ] final  -82.35 input  -60.11 | X-H torsion
[ 7974 7965 7964 7962 ] final  123.49 input  175.53 | X-H torsion
[ 8008 7997 7996 7995 ] final  -56.78 input   59.86 | X-H torsion
[ 10167 10162 10161 10158 ] final  -63.71 input  -65.29 | X-H torsion
[ 10718 10713 10712 10709 ] final  139.19 input   66.30 | X-H torsion
[ 10763 10752 10751 10750 ] final -104.60 input  -60.55 | X-H torsion
[ 11005 11000 10999 10996 ] final  -92.51 input  -57.11 | X-H torsion

> <Gold.Protein.ActiveResidues>
 VAL166  LYS551  ARG553  GLY616  TRP617  ASP618  TYR619  PRO620  LYS621  CYS622 
 ASP623  PHE694  ASN695  SER759  ASP760  ASP761  ALA762  ILE779  LEU786  VAL792 
 PHE793  MET794  SER795  GLU796  ALA797  LYS798  CYS799  TRP800  GLU811  SER814 

> <Gold.Protein.RotatedAtoms>
  150.6898  134.3678  159.4978 H   0  0  0  0  0  0  0  0  0  0  0  0  # atno 6907 bound_to 6896
  152.1498  134.8994  160.0558 H   0  0  0  0  0  0  0  0  0  0  0  0  # atno 6908 bound_to 6896
  152.0096  133.3821  159.4251 H   0  0  0  0  0  0  0  0  0  0  0  0  # atno 6909 bound_to 6896
  145.0953  139.3557  143.4839 H   0  0  0  0  0  0  0  0  0  0  0  0  # atno 7974 bound_to 7965
  154.4243  140.1122  156.5692 H   0  0  0  0  0  0  0  0  0  0  0  0  # atno 8008 bound_to 7997
  155.6230  140.3495  155.4639 H   0  0  0  0  0  0  0  0  0  0  0  0  # atno 8009 bound_to 7997
  156.0009  140.1199  157.0538 H   0  0  0  0  0  0  0  0  0  0  0  0  # atno 8010 bound_to 7997
  140.5852  143.2333  151.6258 H   0  0  0  0  0  0  0  0  0  0  0  0  # atno 10167 bound_to 10162
  157.4171  131.1034  151.0393 H   0  0  0  0  0  0  0  0  0  0  0  0  # atno 10718 bound_to 10713
  154.7889  135.4780  154.0008 H   0  0  0  0  0  0  0  0  0  0  0  0  # atno 10763 bound_to 10752
  153.1601  135.6807  153.8761 H   0  0  0  0  0  0  0  0  0  0  0  0  # atno 10764 bound_to 10752
  153.8378  135.3183  155.3402 H   0  0  0  0  0  0  0  0  0  0  0  0  # atno 10765 bound_to 10752
  141.1520  133.7826  157.0030 H   0  0  0  0  0  0  0  0  0  0  0  0  # atno 11005 bound_to 11000
  146.3531  140.0806  142.8618 LP  0  0  0  0  0  0  0  0  0  0  0  0  # atno 17320 bound_to 7965
  145.1018  140.9350  143.4708 LP  0  0  0  0  0  0  0  0  0  0  0  0  # atno 17321 bound_to 7965
  139.5193  144.3257  152.0871 LP  0  0  0  0  0  0  0  0  0  0  0  0  # atno 17342 bound_to 10162
  140.2413  144.4266  150.6259 LP  0  0  0  0  0  0  0  0  0  0  0  0  # atno 17343 bound_to 10162
  157.1337  130.6113  149.5536 LP  0  0  0  0  0  0  0  0  0  0  0  0  # atno 17370 bound_to 10713
  155.9868  130.4905  150.7098 LP  0  0  0  0  0  0  0  0  0  0  0  0  # atno 17371 bound_to 10713
  140.0927  134.9582  157.1802 LP  0  0  0  0  0  0  0  0  0  0  0  0  # atno 17394 bound_to 11000
  140.3423  134.2690  155.7210 LP  0  0  0  0  0  0  0  0  0  0  0  0  # atno 17395 bound_to 11000

$$$$
