AV-unprocessed.smi:101|AV-procd|sdf|933|dock2
  -GOLD-   2262017453D 1   1.00000     0.00000
 Structure written by MMmdl.
 43 45  0  0  0  0  0  0  0  0  2 V2000
  148.9277  134.4061  156.4089 C   0  0  0  0  0  0  0  0  0  0  0  0
  150.0452  135.3985  156.1378 C   0  0  0  0  0  0  0  0  0  0  0  0
  149.8486  136.5298  155.4246 C   0  0  0  0  0  0  0  0  0  0  0  0
  150.8713  137.4316  155.1740 N   0  0  0  0  0  0  0  0  0  0  0  0
  150.6431  138.7161  154.3910 C   0  0  2  0  0  0  0  0  0  0  0  0
  151.1653  139.8067  155.0896 O   0  0  0  0  0  0  0  0  0  0  0  0
  150.1413  140.4080  155.8698 C   0  0  1  0  0  0  0  0  0  0  0  0
  150.5398  141.8486  156.2133 C   0  0  0  0  0  0  0  0  0  0  0  0
  151.0839  141.8877  157.5225 O   0  0  0  0  0  0  0  0  0  0  0  0
  151.3492  143.0690  158.1119 C   0  0  0  0  0  0  0  0  0  0  0  0
  151.2926  144.1522  157.5259 O   0  0  0  0  0  0  0  0  0  0  0  0
  151.7199  142.9278  159.5497 C   0  0  0  0  0  0  0  0  0  0  0  0
  151.3487  143.9410  160.4644 C   0  0  0  0  0  0  0  0  0  0  0  0
  151.6884  143.8363  161.8272 C   0  0  0  0  0  0  0  0  0  0  0  0
  152.4034  142.7174  162.2924 C   0  0  0  0  0  0  0  0  0  0  0  0
  152.7772  141.7021  161.3929 C   0  0  0  0  0  0  0  0  0  0  0  0
  152.4378  141.8042  160.0296 C   0  0  0  0  0  0  0  0  0  0  0  0
  148.9028  140.2912  154.9791 C   0  0  2  0  0  0  0  0  0  0  0  0
  147.7371  140.1877  155.7728 O   0  0  0  0  0  0  0  0  0  0  0  0
  149.1354  138.9988  154.1965 C   0  0  1  0  0  0  0  0  0  0  0  0
  148.8172  139.1968  152.8338 O   0  0  0  0  0  0  0  0  0  0  0  0
  152.1558  137.1951  155.7333 C   0  0  0  0  0  0  0  0  0  0  0  0
  153.0300  138.0422  155.5503 O   0  0  0  0  0  0  0  0  0  0  0  0
  152.3661  136.0523  156.4459 N   0  5  0  0  0  0  0  0  0  0  0  0
  151.3861  135.1316  156.6704 C   0  0  0  0  0  0  0  0  0  0  0  0
  151.5929  134.0970  157.3039 O   0  0  0  0  0  0  0  0  0  0  0  0
  147.9862  134.7380  155.9701 H   0  0  0  0  0  0  0  0  0  0  0  0
  148.7763  134.2856  157.4820 H   0  0  0  0  0  0  0  0  0  0  0  0
  149.1737  133.4327  155.9838 H   0  0  0  0  0  0  0  0  0  0  0  0
  148.8547  136.7232  155.0531 H   0  0  0  0  0  0  0  0  0  0  0  0
  151.2002  138.5737  153.4632 H   0  0  0  0  0  0  0  0  0  0  0  0
  150.0106  139.8248  156.7827 H   0  0  0  0  0  0  0  0  0  0  0  0
  151.2899  142.2064  155.5072 H   0  0  0  0  0  0  0  0  0  0  0  0
  149.6746  142.5086  156.1344 H   0  0  0  0  0  0  0  0  0  0  0  0
  150.8003  144.8100  160.1305 H   0  0  0  0  0  0  0  0  0  0  0  0
  151.3998  144.6164  162.5163 H   0  0  0  0  0  0  0  0  0  0  0  0
  152.6646  142.6384  163.3374 H   0  0  0  0  0  0  0  0  0  0  0  0
  153.3254  140.8421  161.7487 H   0  0  0  0  0  0  0  0  0  0  0  0
  152.7396  141.0064  159.3665 H   0  0  0  0  0  0  0  0  0  0  0  0
  148.8320  141.1513  154.3110 H   0  0  0  0  0  0  0  0  0  0  0  0
  147.9047  140.6073  156.6028 H   0  0  0  0  0  0  0  0  0  0  0  0
  148.5413  138.1746  154.5952 H   0  0  0  0  0  0  0  0  0  0  0  0
  148.8887  138.3677  152.3866 H   0  0  0  0  0  0  0  0  0  0  0  0
  1  2  1  0  0  0  0
  1 27  1  0  0  0  0
  1 28  1  0  0  0  0
  1 29  1  0  0  0  0
  2 25  1  0  0  0  0
  2  3  2  0  0  0  0
  3  4  1  0  0  0  0
  3 30  1  0  0  0  0
  4  5  1  0  0  0  0
  4 22  1  0  0  0  0
  5 20  1  0  0  0  0
  5  6  1  0  0  0  0
  5 31  1  0  0  0  0
  6  7  1  0  0  0  0
  7  8  1  0  0  0  0
  7 18  1  0  0  0  0
  7 32  1  0  0  0  0
  8  9  1  0  0  0  0
  8 33  1  0  0  0  0
  8 34  1  0  0  0  0
  9 10  1  0  0  0  0
 10 11  2  0  0  0  0
 10 12  1  0  0  0  0
 12 17  1  0  0  0  0
 12 13  2  0  0  0  0
 13 14  1  0  0  0  0
 13 35  1  0  0  0  0
 14 15  2  0  0  0  0
 14 36  1  0  0  0  0
 15 16  1  0  0  0  0
 15 37  1  0  0  0  0
 16 17  2  0  0  0  0
 16 38  1  0  0  0  0
 17 39  1  0  0  0  0
 18 19  1  0  0  0  0
 18 20  1  0  0  0  0
 18 40  1  0  0  0  0
 19 41  1  0  0  0  0
 20 21  1  0  0  0  0
 20 42  1  0  0  0  0
 21 43  1  0  0  0  0
 22 23  2  0  0  0  0
 22 24  1  0  0  0  0
 24 25  1  0  0  0  0
 25 26  2  0  0  0  0
M  CHG  1  24  -1
M  END
> <s_m_source_file>
AV-unprocessed.smi

> <i_m_source_file_index>
101

> <i_lp_mmshare_version>
43012

> <i_f3d_flags>
0

> <s_epik_input>
Tz1jMVtuSF1jKD1PKW4oW2NIXWMxW0NIM10pW0NAQEhdMk9bQ0BIXShbQ0BASF0oW09IXSlbQ0BIXTJbT0hdKVtDSDJdT0MoPU8pYzNbY0hdW2NIXVtjSF1bY0hdW2NIXTM=

> <s_epik_cmdline>
J2VwaWtfcHl0aG9uJywgJy1waCcsICc3LjAnLCAnLXRuJywgJzgnLCAnLW1hJywgJzIwMCcsICctbWV0YWxfYmluZGluZycsICctaW1hZScsICc8aW5maWxlLm1hZT4nLCAnLW9tYWUnLCAnPG91dGZpbGUubWFlPic=

> <r_lp_tautomer_probability>
0.999537

> <r_epik_Ionization_Penalty>
3.21006

> <r_epik_Ionization_Penalty_Charging>
5.75142e-08

> <r_epik_Ionization_Penalty_Neutral>
3.21006

> <r_epik_State_Penalty>
3.20925

> <r_epik_Charging_Adjusted_Penalty>
3.20925

> <i_epik_Tot_Q>
-1

> <i_epik_Tot_abs_Q>
1

> <r_epik_Metal_State_Penalty>
0.119957

> <b_epik_Metal_Only>
1

> <s_epik_Chemistry_Notes>
This compound has an ester and may undergo hydrolysis at high or low pH. This compound contains an acetal/aminal-like group ( X-CH(R)-Y where X, Y are N, S, or O) that may be acid/base labile, releasing an aldehyde.

> <s_lp_Force_Field>
OPLS_2005

> <r_lp_Energy>
40.7876

> <b_lp_Chiralities_Consistent>
1

> <s_lp_Variant>
AV-unprocessed.smi:101-21

> <Gold.Version>
5.8.1

> <Gold.Id.Protein>
6NUR|6NUR_protein|mol2

> <Gold.PLP.Fitness>
56.6464

> <Gold.PLP.PLP>
-47.6116

> <Gold.PLP.part.hbond>
-3.7915

> <Gold.PLP.part.metal>
0.0000

> <Gold.PLP.part.buried>
-5.1724

> <Gold.PLP.part.nonpolar>
-39.0961

> <Gold.PLP.part.repulsive>
0.2539

> <Gold.PLP.ligand.clash>
0.0000

> <Gold.PLP.ligand.torsion>
1.3378

> <Gold.PLP.Chemscore.Hbond>
3.8502

> <Gold.PLP.Chemscore.CHOScore>
0.0000

> <Gold.PLP.Chemscore.Metal>
0.0000

> <Gold.Chemscore.Hbonds>
donor molecule, donor type, donor heavy atom, donor atom, acceptor molecule, acceptor atom, score
      L1  H    21    43       P1  7948  0.67
      P1  H  6896  6908       L1    26  0.23
      P1  H  7989  7998       L1     6  0.80
      P1  H 10752 10763       L1    24  1.50

> <Gold.PLP.Chemscore.Internal.Correction>
0.1597

> <Gold.Rescore>
     Score         DG    S(hbond)    S(metal)    S(lipo)     H(rot)  DE(clash)    DE(int)     intcor
     12.18     -16.40       2.26        0.00     100.14       3.27       1.80       2.41       ----

> <Gold.Chemscore.Fitness>
12.1848

> <Gold.Chemscore.DG>
-16.3989

> <Gold.Chemscore.ZeroCoef>
-5.4800

> <Gold.Chemscore.Hbond>
2.2642

> <Gold.Chemscore.Metal>
0.0000

> <Gold.Chemscore.Lipo>
100.1407

> <Gold.Chemscore.Internal_Hbond>
0.0000

> <Gold.Chemscore.DEClash>
1.7999

> <Gold.Chemscore.DEInternal>
2.4142

> <Gold.Chemscore.Rot>
3.2656

> <Gold.Chemscore.Internal.Correction>
   9.000000E+99

> <Gold.Chemscore.Hbonds>
donor molecule, donor type, donor heavy atom, donor atom, acceptor molecule, acceptor atom, score
      L1  H    21    43       P1  7948  0.66
      P1  H  6896  6908       L1    26  0.22
      P1  H  7989  7998       L1     6  0.10
      P1  H 10752 10763       L1    24  0.06

> <Gold.Chemscore.Hbond.Weighted>
-7.5623

> <Gold.Chemscore.Metal.Weighted>
-0.0000

> <Gold.Chemscore.Lipo.Weighted>
-11.7165

> <Gold.Chemscore.Internal_Hbond.Weighted>
0.0000

> <Gold.Chemscore.DEClash.Weighted>
1.7999

> <Gold.Chemscore.DEInternal.Weighted>
2.4142

> <Gold.Chemscore.Rot.Weighted>
8.3598

> <Gold.Chemscore.Internal.Correction.Weighted>
   9.000000E+99

> <Gold.Protein.RotatedTorsions>
[ 6907 6896 6895 6894 ] final   74.25 input  -60.11 | X-H torsion
[ 7974 7965 7964 7962 ] final -162.98 input  175.53 | X-H torsion
[ 8008 7997 7996 7995 ] final -108.49 input   59.86 | X-H torsion
[ 10167 10162 10161 10158 ] final  -12.04 input  -65.29 | X-H torsion
[ 10718 10713 10712 10709 ] final   57.41 input   66.30 | X-H torsion
[ 10763 10752 10751 10750 ] final  117.32 input  -60.55 | X-H torsion
[ 11005 11000 10999 10996 ] final  -10.73 input  -57.11 | X-H torsion

> <Gold.Protein.ActiveResidues>
 VAL166  LYS551  ARG553  GLY616  TRP617  ASP618  TYR619  PRO620  LYS621  CYS622 
 ASP623  PHE694  ASN695  SER759  ASP760  ASP761  ALA762  ILE779  LEU786  VAL792 
 PHE793  MET794  SER795  GLU796  ALA797  LYS798  CYS799  TRP800  GLU811  SER814 

> <Gold.Protein.RotatedAtoms>
  152.4966  134.4299  159.9508 H   0  0  0  0  0  0  0  0  0  0  0  0  # atno 6907 bound_to 6896
  151.4277  133.3673  159.2772 H   0  0  0  0  0  0  0  0  0  0  0  0  # atno 6908 bound_to 6896
  150.9177  134.8617  159.7527 H   0  0  0  0  0  0  0  0  0  0  0  0  # atno 6909 bound_to 6896
  144.7340  140.3174  143.6177 H   0  0  0  0  0  0  0  0  0  0  0  0  # atno 7974 bound_to 7965
  154.9451  140.0402  157.2116 H   0  0  0  0  0  0  0  0  0  0  0  0  # atno 8008 bound_to 7997
  154.8032  140.2855  155.5884 H   0  0  0  0  0  0  0  0  0  0  0  0  # atno 8009 bound_to 7997
  156.2964  140.2551  156.2905 H   0  0  0  0  0  0  0  0  0  0  0  0  # atno 8010 bound_to 7997
  140.7152  143.5574  150.9233 H   0  0  0  0  0  0  0  0  0  0  0  0  # atno 10167 bound_to 10162
  157.5512  130.8767  149.8966 H   0  0  0  0  0  0  0  0  0  0  0  0  # atno 10718 bound_to 10713
  153.5506  135.3540  155.2757 H   0  0  0  0  0  0  0  0  0  0  0  0  # atno 10763 bound_to 10752
  154.8707  135.4113  154.2941 H   0  0  0  0  0  0  0  0  0  0  0  0  # atno 10764 bound_to 10752
  153.3667  135.7062  153.6738 H   0  0  0  0  0  0  0  0  0  0  0  0  # atno 10765 bound_to 10752
  140.7479  133.8617  155.9020 H   0  0  0  0  0  0  0  0  0  0  0  0  # atno 11005 bound_to 11000
  145.7603  139.1822  143.2271 LP  0  0  0  0  0  0  0  0  0  0  0  0  # atno 17320 bound_to 7965
  146.0991  140.7565  142.9558 LP  0  0  0  0  0  0  0  0  0  0  0  0  # atno 17321 bound_to 7965
  139.9299  143.6505  152.3078 LP  0  0  0  0  0  0  0  0  0  0  0  0  # atno 17342 bound_to 10162
  139.6952  144.7642  151.1368 LP  0  0  0  0  0  0  0  0  0  0  0  0  # atno 17343 bound_to 10162
  156.0578  130.3705  150.1050 LP  0  0  0  0  0  0  0  0  0  0  0  0  # atno 17370 bound_to 10713
  156.9222  130.9687  151.3546 LP  0  0  0  0  0  0  0  0  0  0  0  0  # atno 17371 bound_to 10713
  140.9778  134.1446  157.4521 LP  0  0  0  0  0  0  0  0  0  0  0  0  # atno 17394 bound_to 11000
  139.8793  135.0000  156.5987 LP  0  0  0  0  0  0  0  0  0  0  0  0  # atno 17395 bound_to 11000

$$$$
