AV-unprocessed.smi:1879|AV-procd|sdf|7632|dock3
  -GOLD-   22720 9353D 1   1.00000     0.00000
 Structure written by MMmdl.
 46 48  0  0  0  0  0  0  0  0  1 V2000
  150.7820  141.0718  156.9143 O   0  0  0  0  0  0  0  0  0  0  0  0
  150.2003  142.1122  156.6056 C   0  0  0  0  0  0  0  0  0  0  0  0
  149.2164  142.2083  155.6959 N   0  0  0  0  0  0  0  0  0  0  0  0
  148.6340  141.1648  154.9224 C   0  0  0  0  0  0  0  0  0  0  0  0
  149.3767  140.0147  154.5593 C   0  0  0  0  0  0  0  0  0  0  0  0
  148.7854  139.0430  153.7342 C   0  0  0  0  0  0  0  0  0  0  0  0
  147.4729  139.2629  153.2851 C   0  0  0  0  0  0  0  0  0  0  0  0
  146.7575  140.3579  153.6098 N   0  0  0  0  0  0  0  0  0  0  0  0
  147.3081  141.2980  154.4175 C   0  0  0  0  0  0  0  0  0  0  0  0
  146.5020  142.4162  154.7345 N   0  0  0  0  0  0  0  0  0  0  0  0
  145.9682  143.2681  153.6771 C   0  0  0  0  0  0  0  0  0  0  0  0
  144.8759  144.0950  154.3489 C   0  0  0  0  0  0  0  0  0  0  0  0
  144.2905  143.1061  155.3520 C   0  0  0  0  0  0  0  0  0  0  0  0
  145.4998  142.2711  155.7866 C   0  0  0  0  0  0  0  0  0  0  0  0
  150.4633  143.3029  157.1624 N   0  0  0  0  0  0  0  0  0  0  0  0
  151.4664  143.5476  158.1944 C   0  0  2  0  0  0  0  0  0  0  0  0
  151.4831  142.3963  159.2200 C   0  0  0  0  0  0  0  0  0  0  0  0
  152.4901  142.6636  160.3524 C   0  0  0  0  0  0  0  0  0  0  0  0
  152.2518  144.0213  161.0402 C   0  0  2  0  0  0  0  0  0  0  0  0
  151.0600  143.9774  161.7997 O   0  0  0  0  0  0  0  0  0  0  0  0
  152.1843  145.1713  160.0174 C   0  0  0  0  0  0  0  0  0  0  0  0
  151.1765  144.8904  158.8891 C   0  0  0  0  0  0  0  0  0  0  0  0
  148.7623  143.1069  155.6218 H   0  0  0  0  0  0  0  0  0  0  0  0
  150.3976  139.8742  154.8804 H   0  0  0  0  0  0  0  0  0  0  0  0
  149.3304  138.1576  153.4421 H   0  0  0  0  0  0  0  0  0  0  0  0
  146.9860  138.5443  152.6426 H   0  0  0  0  0  0  0  0  0  0  0  0
  146.7449  143.8983  153.2433 H   0  0  0  0  0  0  0  0  0  0  0  0
  145.5281  142.6667  152.8806 H   0  0  0  0  0  0  0  0  0  0  0  0
  145.3185  144.9425  154.8745 H   0  0  0  0  0  0  0  0  0  0  0  0
  144.1379  144.4782  153.6438 H   0  0  0  0  0  0  0  0  0  0  0  0
  143.7893  143.5933  156.1887 H   0  0  0  0  0  0  0  0  0  0  0  0
  143.5633  142.4653  154.8520 H   0  0  0  0  0  0  0  0  0  0  0  0
  145.2250  141.2287  155.9537 H   0  0  0  0  0  0  0  0  0  0  0  0
  145.9077  142.6670  156.7166 H   0  0  0  0  0  0  0  0  0  0  0  0
  149.9306  144.1014  156.8497 H   0  0  0  0  0  0  0  0  0  0  0  0
  152.4498  143.6160  157.7250 H   0  0  0  0  0  0  0  0  0  0  0  0
  150.4863  142.2627  159.6427 H   0  0  0  0  0  0  0  0  0  0  0  0
  151.7348  141.4565  158.7270 H   0  0  0  0  0  0  0  0  0  0  0  0
  152.4535  141.8563  161.0848 H   0  0  0  0  0  0  0  0  0  0  0  0
  153.4983  142.6492  159.9364 H   0  0  0  0  0  0  0  0  0  0  0  0
  153.0660  144.2136  161.7395 H   0  0  0  0  0  0  0  0  0  0  0  0
  150.4216  144.5407  161.3898 H   0  0  0  0  0  0  0  0  0  0  0  0
  151.9367  146.1086  160.5164 H   0  0  0  0  0  0  0  0  0  0  0  0
  153.1728  145.3137  159.5788 H   0  0  0  0  0  0  0  0  0  0  0  0
  151.2100  145.7017  158.1607 H   0  0  0  0  0  0  0  0  0  0  0  0
  150.1648  144.8858  159.2973 H   0  0  0  0  0  0  0  0  0  0  0  0
  1  2  2  0  0  0  0
  2  3  1  0  0  0  0
  2 15  1  0  0  0  0
  3  4  1  0  0  0  0
  3 23  1  0  0  0  0
  4  9  1  0  0  0  0
  4  5  2  0  0  0  0
  5  6  1  0  0  0  0
  5 24  1  0  0  0  0
  6  7  2  0  0  0  0
  6 25  1  0  0  0  0
  7  8  1  0  0  0  0
  7 26  1  0  0  0  0
  8  9  2  0  0  0  0
  9 10  1  0  0  0  0
 10 14  1  0  0  0  0
 10 11  1  0  0  0  0
 11 12  1  0  0  0  0
 11 27  1  0  0  0  0
 11 28  1  0  0  0  0
 12 13  1  0  0  0  0
 12 29  1  0  0  0  0
 12 30  1  0  0  0  0
 13 14  1  0  0  0  0
 13 31  1  0  0  0  0
 13 32  1  0  0  0  0
 14 33  1  0  0  0  0
 14 34  1  0  0  0  0
 15 16  1  0  0  0  0
 15 35  1  0  0  0  0
 16 22  1  0  0  0  0
 16 17  1  0  0  0  0
 16 36  1  0  0  0  0
 17 18  1  0  0  0  0
 17 37  1  0  0  0  0
 17 38  1  0  0  0  0
 18 19  1  0  0  0  0
 18 39  1  0  0  0  0
 18 40  1  0  0  0  0
 19 20  1  0  0  0  0
 19 21  1  0  0  0  0
 19 41  1  0  0  0  0
 20 42  1  0  0  0  0
 21 22  1  0  0  0  0
 21 43  1  0  0  0  0
 21 44  1  0  0  0  0
 22 45  1  0  0  0  0
 22 46  1  0  0  0  0
M  END
> <s_m_source_file>
AV-unprocessed.smi

> <i_m_source_file_index>
1879

> <i_lp_mmshare_version>
43012

> <i_f3d_flags>
0

> <s_epik_input>
W0NIMl0xW0NIMl1bQ0BIXShbT0hdKVtDSDJdW0NIMl1bQ0BIXTFbTkhdQyg9TylbTkhdYzJbY0hdW2NIXVtjSF1uYzJOM1tDSDJdW0NIMl1bQ0gyXVtDSDJdMw==

> <s_epik_cmdline>
J2VwaWtfcHl0aG9uJywgJy1waCcsICc3LjAnLCAnLXRuJywgJzgnLCAnLW1hJywgJzIwMCcsICctbWV0YWxfYmluZGluZycsICctaW1hZScsICc8aW5maWxlLm1hZT4nLCAnLW9tYWUnLCAnPG91dGZpbGUubWFlPic=

> <r_lp_tautomer_probability>
1

> <r_epik_Ionization_Penalty>
0.104121

> <r_epik_Ionization_Penalty_Charging>
0

> <r_epik_Ionization_Penalty_Neutral>
0.104121

> <r_epik_State_Penalty>
0.0934704

> <r_epik_Charging_Adjusted_Penalty>
0.0934704

> <i_epik_Tot_Q>
0

> <i_epik_Tot_abs_Q>
0

> <r_epik_Metal_State_Penalty>
0.0794466

> <b_epik_Metal_Only>
0

> <s_lp_Force_Field>
OPLS_2005

> <r_lp_Energy>
39.1778

> <b_lp_Chiralities_Consistent>
1

> <s_lp_Variant>
AV-unprocessed.smi:1879-2

> <Gold.Version>
5.8.1

> <Gold.Id.Protein>
6NUR|6NUR_protein|mol2

> <Gold.PLP.Fitness>
51.4051

> <Gold.PLP.PLP>
-46.5582

> <Gold.PLP.part.hbond>
-4.8735

> <Gold.PLP.part.metal>
0.0000

> <Gold.PLP.part.buried>
-6.0489

> <Gold.PLP.part.nonpolar>
-36.9151

> <Gold.PLP.part.repulsive>
0.5052

> <Gold.PLP.ligand.clash>
0.0027

> <Gold.PLP.ligand.torsion>
0.7114

> <Gold.PLP.Chemscore.Hbond>
1.9760

> <Gold.PLP.Chemscore.CHOScore>
0.0000

> <Gold.PLP.Chemscore.Metal>
0.0000

> <Gold.Chemscore.Hbonds>
donor molecule, donor type, donor heavy atom, donor atom, acceptor molecule, acceptor atom, score
      L1  H     3    23       P1  8028  0.99
      L1  H    15    35       P1  8028  0.94

> <Gold.PLP.Chemscore.Internal.Correction>
0.3444

> <Gold.Rescore>
     Score         DG    S(hbond)    S(metal)    S(lipo)     H(rot)  DE(clash)    DE(int)     intcor
     15.19     -19.03       1.80        0.00     101.10       1.67       0.19       3.65       ----

> <Gold.Chemscore.Fitness>
15.1938

> <Gold.Chemscore.DG>
-19.0349

> <Gold.Chemscore.ZeroCoef>
-5.4800

> <Gold.Chemscore.Hbond>
1.7987

> <Gold.Chemscore.Metal>
0.0000

> <Gold.Chemscore.Lipo>
101.0970

> <Gold.Chemscore.Internal_Hbond>
0.0000

> <Gold.Chemscore.DEClash>
0.1921

> <Gold.Chemscore.DEInternal>
3.6490

> <Gold.Chemscore.Rot>
1.6723

> <Gold.Chemscore.Internal.Correction>
   9.000000E+99

> <Gold.Chemscore.Hbonds>
donor molecule, donor type, donor heavy atom, donor atom, acceptor molecule, acceptor atom, score
      L1  H     3    23       P1  8028  0.92
      L1  H    15    35       P1  8028  0.87
      P1  H  6933  6945       L1    20  0.01

> <Gold.Chemscore.Hbond.Weighted>
-6.0078

> <Gold.Chemscore.Metal.Weighted>
-0.0000

> <Gold.Chemscore.Lipo.Weighted>
-11.8283

> <Gold.Chemscore.Internal_Hbond.Weighted>
0.0000

> <Gold.Chemscore.DEClash.Weighted>
0.1921

> <Gold.Chemscore.DEInternal.Weighted>
3.6490

> <Gold.Chemscore.Rot.Weighted>
4.2812

> <Gold.Chemscore.Internal.Correction.Weighted>
   9.000000E+99

> <Gold.Protein.RotatedTorsions>
[ 6907 6896 6895 6894 ] final   95.91 input  -60.11 | X-H torsion
[ 7974 7965 7964 7962 ] final  -18.17 input  175.53 | X-H torsion
[ 8008 7997 7996 7995 ] final   33.87 input   59.86 | X-H torsion
[ 10167 10162 10161 10158 ] final -158.13 input  -65.29 | X-H torsion
[ 10718 10713 10712 10709 ] final  -44.97 input   66.30 | X-H torsion
[ 10763 10752 10751 10750 ] final  157.78 input  -60.55 | X-H torsion
[ 11005 11000 10999 10996 ] final  132.39 input  -57.11 | X-H torsion

> <Gold.Protein.ActiveResidues>
 VAL166  LYS551  ARG553  GLY616  TRP617  ASP618  TYR619  PRO620  LYS621  CYS622 
 ASP623  PHE694  ASN695  SER759  ASP760  ASP761  ALA762  ILE779  LEU786  VAL792 
 PHE793  MET794  SER795  GLU796  ALA797  LYS798  CYS799  TRP800  GLU811  SER814 

> <Gold.Protein.RotatedAtoms>
  152.5440  134.0967  159.8300 H   0  0  0  0  0  0  0  0  0  0  0  0  # atno 6907 bound_to 6896
  151.1050  133.5208  159.2615 H   0  0  0  0  0  0  0  0  0  0  0  0  # atno 6908 bound_to 6896
  151.1948  135.0427  159.8902 H   0  0  0  0  0  0  0  0  0  0  0  0  # atno 6909 bound_to 6896
  146.1905  140.3883  142.8460 H   0  0  0  0  0  0  0  0  0  0  0  0  # atno 7974 bound_to 7965
  155.1456  140.3270  155.4442 H   0  0  0  0  0  0  0  0  0  0  0  0  # atno 8008 bound_to 7997
  156.2591  140.1986  156.6519 H   0  0  0  0  0  0  0  0  0  0  0  0  # atno 8009 bound_to 7997
  154.6510  140.0558  156.9942 H   0  0  0  0  0  0  0  0  0  0  0  0  # atno 8010 bound_to 7997
  139.6716  143.9736  152.2287 H   0  0  0  0  0  0  0  0  0  0  0  0  # atno 10167 bound_to 10162
  156.2332  130.4174  149.8850 H   0  0  0  0  0  0  0  0  0  0  0  0  # atno 10718 bound_to 10713
  154.2056  135.2788  155.2976 H   0  0  0  0  0  0  0  0  0  0  0  0  # atno 10763 bound_to 10752
  154.5819  135.5586  153.7197 H   0  0  0  0  0  0  0  0  0  0  0  0  # atno 10764 bound_to 10752
  153.0077  135.6347  154.2195 H   0  0  0  0  0  0  0  0  0  0  0  0  # atno 10765 bound_to 10752
  139.9787  134.9555  156.9575 H   0  0  0  0  0  0  0  0  0  0  0  0  # atno 11005 bound_to 11000
  144.8478  140.6955  143.6188 LP  0  0  0  0  0  0  0  0  0  0  0  0  # atno 17320 bound_to 7965
  145.3807  139.1637  143.4282 LP  0  0  0  0  0  0  0  0  0  0  0  0  # atno 17321 bound_to 7965
  139.9501  144.6626  150.8180 LP  0  0  0  0  0  0  0  0  0  0  0  0  # atno 17342 bound_to 10162
  140.7620  143.3188  151.2671 LP  0  0  0  0  0  0  0  0  0  0  0  0  # atno 17343 bound_to 10162
  156.6457  130.8723  151.3522 LP  0  0  0  0  0  0  0  0  0  0  0  0  # atno 17370 bound_to 10713
  157.7142  130.9477  150.1196 LP  0  0  0  0  0  0  0  0  0  0  0  0  # atno 17371 bound_to 10713
  140.5141  134.0973  155.7277 LP  0  0  0  0  0  0  0  0  0  0  0  0  # atno 17394 bound_to 11000
  141.1461  133.9052  157.2211 LP  0  0  0  0  0  0  0  0  0  0  0  0  # atno 17395 bound_to 11000

$$$$
