AV-unprocessed.smi:2310|AV-procd|sdf|9256|dock5
  -GOLD-   2272012473D 1   1.00000     0.00000
 Structure written by MMmdl.
 45 46  0  0  0  0  0  0  0  0  1 V2000
  144.2050  135.2775  150.7458 C   0  0  0  0  0  0  0  0  0  0  0  0
  145.5644  135.8606  151.1583 C   0  0  0  0  0  0  0  0  0  0  0  0
  145.4769  136.9025  152.2893 C   0  0  1  0  0  0  0  0  0  0  0  0
  144.7354  136.3377  153.5109 C   0  0  0  0  0  0  0  0  0  0  0  0
  143.2723  136.4627  153.4127 C   0  0  0  0  0  0  0  0  0  0  0  0
  142.1222  136.5612  153.3365 N   0  0  0  0  0  0  0  0  0  0  0  0
  146.8171  137.3363  152.6870 N   0  0  0  0  0  0  0  0  0  0  0  0
  147.0993  138.3229  153.5509 C   0  0  0  0  0  0  0  0  0  0  0  0
  146.2413  139.0064  154.1088 O   0  0  0  0  0  0  0  0  0  0  0  0
  148.4271  138.4707  153.6999 N   0  0  0  0  0  0  0  0  0  0  0  0
  149.1287  139.4010  154.5178 C   0  0  0  0  0  0  0  0  0  0  0  0
  148.4857  140.4771  155.1765 C   0  0  0  0  0  0  0  0  0  0  0  0
  149.2447  141.3415  155.9864 C   0  0  0  0  0  0  0  0  0  0  0  0
  150.6249  141.1020  156.1286 C   0  0  0  0  0  0  0  0  0  0  0  0
  151.3815  141.9625  156.9385 N   0  0  0  0  0  0  0  0  0  0  0  0
  151.2908  143.3744  156.6043 C   0  0  0  0  0  0  0  0  0  0  0  0
  151.8572  144.1167  157.8170 C   0  0  0  0  0  0  0  0  0  0  0  0
  151.7173  143.1295  158.9823 C   0  0  0  0  0  0  0  0  0  0  0  0
  151.1019  141.8719  158.3621 C   0  0  0  0  0  0  0  0  0  0  0  0
  151.2472  140.0682  155.5160 N   0  0  0  0  0  0  0  0  0  0  0  0
  150.5210  139.2375  154.7361 C   0  0  0  0  0  0  0  0  0  0  0  0
  151.3289  138.1133  154.1069 C   0  0  0  0  0  0  0  0  0  0  0  0
  144.3294  134.5087  149.9830 H   0  0  0  0  0  0  0  0  0  0  0  0
  143.5463  136.0435  150.3360 H   0  0  0  0  0  0  0  0  0  0  0  0
  143.6992  134.8215  151.5972 H   0  0  0  0  0  0  0  0  0  0  0  0
  146.2085  135.0412  151.4796 H   0  0  0  0  0  0  0  0  0  0  0  0
  146.0491  136.3010  150.2861 H   0  0  0  0  0  0  0  0  0  0  0  0
  144.8959  137.7490  151.9188 H   0  0  0  0  0  0  0  0  0  0  0  0
  144.9595  135.2775  153.6303 H   0  0  0  0  0  0  0  0  0  0  0  0
  145.0582  136.8382  154.4243 H   0  0  0  0  0  0  0  0  0  0  0  0
  147.5922  136.8389  152.2735 H   0  0  0  0  0  0  0  0  0  0  0  0
  149.0066  137.8974  153.1046 H   0  0  0  0  0  0  0  0  0  0  0  0
  147.4240  140.6481  155.0898 H   0  0  0  0  0  0  0  0  0  0  0  0
  148.7708  142.1689  156.4941 H   0  0  0  0  0  0  0  0  0  0  0  0
  151.8520  143.6001  155.6971 H   0  0  0  0  0  0  0  0  0  0  0  0
  150.2523  143.6659  156.4401 H   0  0  0  0  0  0  0  0  0  0  0  0
  152.9096  144.3545  157.6570 H   0  0  0  0  0  0  0  0  0  0  0  0
  151.3287  145.0530  157.9984 H   0  0  0  0  0  0  0  0  0  0  0  0
  152.6997  142.9062  159.4002 H   0  0  0  0  0  0  0  0  0  0  0  0
  151.0958  143.5233  159.7870 H   0  0  0  0  0  0  0  0  0  0  0  0
  150.0259  141.8538  158.5411 H   0  0  0  0  0  0  0  0  0  0  0  0
  151.5290  140.9639  158.7890 H   0  0  0  0  0  0  0  0  0  0  0  0
  150.7471  137.4810  153.4379 H   0  0  0  0  0  0  0  0  0  0  0  0
  151.7484  137.4765  154.8860 H   0  0  0  0  0  0  0  0  0  0  0  0
  152.1560  138.5281  153.5296 H   0  0  0  0  0  0  0  0  0  0  0  0
  1  2  1  0  0  0  0
  1 23  1  0  0  0  0
  1 24  1  0  0  0  0
  1 25  1  0  0  0  0
  2  3  1  0  0  0  0
  2 26  1  0  0  0  0
  2 27  1  0  0  0  0
  3  4  1  0  0  0  0
  3  7  1  0  0  0  0
  3 28  1  0  0  0  0
  4  5  1  0  0  0  0
  4 29  1  0  0  0  0
  4 30  1  0  0  0  0
  5  6  3  0  0  0  0
  7  8  1  0  0  0  0
  7 31  1  0  0  0  0
  8  9  2  0  0  0  0
  8 10  1  0  0  0  0
 10 11  1  0  0  0  0
 10 32  1  0  0  0  0
 11 21  1  0  0  0  0
 11 12  2  0  0  0  0
 12 13  1  0  0  0  0
 12 33  1  0  0  0  0
 13 14  2  0  0  0  0
 13 34  1  0  0  0  0
 14 15  1  0  0  0  0
 14 20  1  0  0  0  0
 15 19  1  0  0  0  0
 15 16  1  0  0  0  0
 16 17  1  0  0  0  0
 16 35  1  0  0  0  0
 16 36  1  0  0  0  0
 17 18  1  0  0  0  0
 17 37  1  0  0  0  0
 17 38  1  0  0  0  0
 18 19  1  0  0  0  0
 18 39  1  0  0  0  0
 18 40  1  0  0  0  0
 19 41  1  0  0  0  0
 19 42  1  0  0  0  0
 20 21  2  0  0  0  0
 21 22  1  0  0  0  0
 22 43  1  0  0  0  0
 22 44  1  0  0  0  0
 22 45  1  0  0  0  0
M  END
> <s_m_source_file>
AV-unprocessed.smi

> <i_m_source_file_index>
2310

> <i_lp_mmshare_version>
43012

> <i_f3d_flags>
0

> <s_epik_input>
TiNDW0NIMl1bQ0BASF0oW0NIMl1bQ0gzXSlbTkhdQyg9TylbTkhdYzFbY0hdW2NIXWMobmMxW0NIM10pTjJbQ0gyXVtDSDJdW0NIMl1bQ0gyXTI=

> <s_epik_cmdline>
J2VwaWtfcHl0aG9uJywgJy1waCcsICc3LjAnLCAnLXRuJywgJzgnLCAnLW1hJywgJzIwMCcsICctbWV0YWxfYmluZGluZycsICctaW1hZScsICc8aW5maWxlLm1hZT4nLCAnLW9tYWUnLCAnPG91dGZpbGUubWFlPic=

> <r_lp_tautomer_probability>
1

> <r_epik_Ionization_Penalty>
0.281354

> <r_epik_Ionization_Penalty_Charging>
0

> <r_epik_Ionization_Penalty_Neutral>
0.281354

> <r_epik_State_Penalty>
0.273364

> <r_epik_Charging_Adjusted_Penalty>
0.273364

> <i_epik_Tot_Q>
0

> <i_epik_Tot_abs_Q>
0

> <r_epik_Metal_State_Penalty>
0.18752

> <b_epik_Metal_Only>
0

> <s_lp_Force_Field>
OPLS_2005

> <r_lp_Energy>
36.0303

> <b_lp_Chiralities_Consistent>
1

> <s_lp_Variant>
AV-unprocessed.smi:2310-2

> <Gold.Version>
5.8.1

> <Gold.Id.Protein>
6NUR|6NUR_protein|mol2

> <Gold.PLP.Fitness>
40.9347

> <Gold.PLP.PLP>
-36.3222

> <Gold.PLP.part.hbond>
-3.4122

> <Gold.PLP.part.metal>
0.0000

> <Gold.PLP.part.buried>
-3.7652

> <Gold.PLP.part.nonpolar>
-31.2022

> <Gold.PLP.part.repulsive>
0.4775

> <Gold.PLP.ligand.clash>
0.0000

> <Gold.PLP.ligand.torsion>
0.4715

> <Gold.PLP.Chemscore.Hbond>
1.8151

> <Gold.PLP.Chemscore.CHOScore>
0.0000

> <Gold.PLP.Chemscore.Metal>
0.0000

> <Gold.Chemscore.Hbonds>
donor molecule, donor type, donor heavy atom, donor atom, acceptor molecule, acceptor atom, score
      L1  H     7    31       P1  7948  1.00
      L1  H    10    32       P1  7948  0.83

> <Gold.PLP.Chemscore.Internal.Correction>
0.1103

> <Gold.Rescore>
     Score         DG    S(hbond)    S(metal)    S(lipo)     H(rot)  DE(clash)    DE(int)     intcor
     14.51     -18.75       1.95        0.00      94.05       1.65       1.40       2.85       ----

> <Gold.Chemscore.Fitness>
14.5117

> <Gold.Chemscore.DG>
-18.7542

> <Gold.Chemscore.ZeroCoef>
-5.4800

> <Gold.Chemscore.Hbond>
1.9455

> <Gold.Chemscore.Metal>
0.0000

> <Gold.Chemscore.Lipo>
94.0494

> <Gold.Chemscore.Internal_Hbond>
0.0000

> <Gold.Chemscore.DEClash>
1.3970

> <Gold.Chemscore.DEInternal>
2.8454

> <Gold.Chemscore.Rot>
1.6514

> <Gold.Chemscore.Internal.Correction>
   9.000000E+99

> <Gold.Chemscore.Hbonds>
donor molecule, donor type, donor heavy atom, donor atom, acceptor molecule, acceptor atom, score
      L1  H     7    31       P1  7948  0.93
      L1  H    10    32       P1  7948  0.78

> <Gold.Chemscore.Hbond.Weighted>
-6.4980

> <Gold.Chemscore.Metal.Weighted>
-0.0000

> <Gold.Chemscore.Lipo.Weighted>
-11.0038

> <Gold.Chemscore.Internal_Hbond.Weighted>
0.0000

> <Gold.Chemscore.DEClash.Weighted>
1.3970

> <Gold.Chemscore.DEInternal.Weighted>
2.8454

> <Gold.Chemscore.Rot.Weighted>
4.2276

> <Gold.Chemscore.Internal.Correction.Weighted>
   9.000000E+99

> <Gold.Protein.RotatedTorsions>
[ 6907 6896 6895 6894 ] final  151.64 input  -60.11 | X-H torsion
[ 7974 7965 7964 7962 ] final -153.02 input  175.53 | X-H torsion
[ 8008 7997 7996 7995 ] final   59.87 input   59.86 | X-H torsion
[ 10167 10162 10161 10158 ] final  158.29 input  -65.29 | X-H torsion
[ 10718 10713 10712 10709 ] final  -79.94 input   66.30 | X-H torsion
[ 10763 10752 10751 10750 ] final -145.36 input  -60.55 | X-H torsion
[ 11005 11000 10999 10996 ] final   81.70 input  -57.11 | X-H torsion

> <Gold.Protein.ActiveResidues>
 VAL166  LYS551  ARG553  GLY616  TRP617  ASP618  TYR619  PRO620  LYS621  CYS622 
 ASP623  PHE694  ASN695  SER759  ASP760  ASP761  ALA762  ILE779  LEU786  VAL792 
 PHE793  MET794  SER795  GLU796  ALA797  LYS798  CYS799  TRP800  GLU811  SER814 

> <Gold.Protein.RotatedAtoms>
  152.0978  133.4234  159.4573 H   0  0  0  0  0  0  0  0  0  0  0  0  # atno 6907 bound_to 6896
  150.6863  134.2796  159.4631 H   0  0  0  0  0  0  0  0  0  0  0  0  # atno 6908 bound_to 6896
  152.0653  134.9568  160.0625 H   0  0  0  0  0  0  0  0  0  0  0  0  # atno 6909 bound_to 6896
  144.7763  140.4583  143.5871 H   0  0  0  0  0  0  0  0  0  0  0  0  # atno 7974 bound_to 7965
  155.5732  140.3490  155.4520 H   0  0  0  0  0  0  0  0  0  0  0  0  # atno 8008 bound_to 7997
  156.0429  140.1300  157.0161 H   0  0  0  0  0  0  0  0  0  0  0  0  # atno 8009 bound_to 7997
  154.4399  140.1020  156.6248 H   0  0  0  0  0  0  0  0  0  0  0  0  # atno 8010 bound_to 7997
  139.4826  144.4838  151.8406 H   0  0  0  0  0  0  0  0  0  0  0  0  # atno 10167 bound_to 10162
  156.0081  130.4560  150.3725 H   0  0  0  0  0  0  0  0  0  0  0  0  # atno 10718 bound_to 10713
  154.8387  135.3415  154.6492 H   0  0  0  0  0  0  0  0  0  0  0  0  # atno 10763 bound_to 10752
  153.7105  135.6964  153.5043 H   0  0  0  0  0  0  0  0  0  0  0  0  # atno 10764 bound_to 10752
  153.2455  135.4370  155.0697 H   0  0  0  0  0  0  0  0  0  0  0  0  # atno 10765 bound_to 10752
  139.9089  134.8016  156.2076 H   0  0  0  0  0  0  0  0  0  0  0  0  # atno 11005 bound_to 11000
  145.6177  139.1520  143.3040 LP  0  0  0  0  0  0  0  0  0  0  0  0  # atno 17320 bound_to 7965
  146.1944  140.6289  142.9131 LP  0  0  0  0  0  0  0  0  0  0  0  0  # atno 17321 bound_to 7965
  140.4317  144.2107  150.5888 LP  0  0  0  0  0  0  0  0  0  0  0  0  # atno 17342 bound_to 10162
  140.4773  143.2391  151.9005 LP  0  0  0  0  0  0  0  0  0  0  0  0  # atno 17343 bound_to 10162
  157.1809  131.0392  151.2749 LP  0  0  0  0  0  0  0  0  0  0  0  0  # atno 17370 bound_to 10713
  157.4146  130.7404  149.6866 LP  0  0  0  0  0  0  0  0  0  0  0  0  # atno 17371 bound_to 10713
  141.0485  133.6900  156.1728 LP  0  0  0  0  0  0  0  0  0  0  0  0  # atno 17394 bound_to 11000
  140.6846  134.4730  157.5589 LP  0  0  0  0  0  0  0  0  0  0  0  0  # atno 17395 bound_to 11000

$$$$
