AV-unprocessed.smi:321|AV-procd|sdf|2334|dock9
  -GOLD-   2262022243D 1   1.00000     0.00000
 Structure written by MMmdl.
 49 50  0  0  0  0  0  0  0  0  1 V2000
  152.4344  142.2555  159.7363 C   0  0  0  0  0  0  0  0  0  0  0  0
  152.1186  141.8302  158.2976 C   0  0  0  0  0  0  0  0  0  0  0  0
  151.8650  140.0045  158.1554 S   0  0  0  0  0  0  0  0  0  0  0  0
  153.1310  139.3223  158.4667 O   0  0  0  0  0  0  0  0  0  0  0  0
  150.6437  139.6520  158.8954 O   0  0  0  0  0  0  0  0  0  0  0  0
  151.5374  139.7527  156.4636 N   0  0  0  0  0  0  0  0  0  0  0  0
  152.4776  138.9841  155.6208 C   0  0  0  0  0  0  0  0  0  0  0  0
  151.9572  137.5684  155.3145 C   0  0  0  0  0  0  0  0  0  0  0  0
  150.5317  137.6027  154.7367 C   0  0  0  0  0  0  0  0  0  0  0  0
  150.0166  136.2519  154.5360 N   0  0  0  0  0  0  0  0  0  0  0  0
  149.8064  135.3458  155.5081 C   0  0  0  0  0  0  0  0  0  0  0  0
  150.0300  135.5791  156.6970 O   0  0  0  0  0  0  0  0  0  0  0  0
  149.2796  134.0301  155.0502 C   0  0  0  0  0  0  0  0  0  0  0  0
  149.7622  132.8429  155.7352 C   0  0  0  0  0  0  0  0  0  0  0  0
  149.2966  131.6389  155.3371 C   0  0  0  0  0  0  0  0  0  0  0  0
  148.3296  131.5034  154.2467 C   0  0  0  0  0  0  0  0  0  0  0  0
  147.8892  130.4172  153.8718 O   0  0  0  0  0  0  0  0  0  0  0  0
  147.9585  132.6934  153.6841 N   0  0  0  0  0  0  0  0  0  0  0  0
  146.9872  132.7480  152.5852 C   0  0  0  0  0  0  0  0  0  0  0  0
  146.6024  134.1944  152.2330 C   0  0  0  0  0  0  0  0  0  0  0  0
  145.9614  134.2299  150.9686 O   0  0  0  0  0  0  0  0  0  0  0  0
  145.8270  135.5463  150.4633 C   0  0  0  0  0  0  0  0  0  0  0  0
  148.4262  133.9355  154.0821 N   0  0  0  0  0  0  0  0  0  0  0  0
  149.6125  138.3710  155.6967 C   0  0  0  0  0  0  0  0  0  0  0  0
  150.1476  139.7874  155.9692 C   0  0  0  0  0  0  0  0  0  0  0  0
  152.6093  143.3297  159.7927 H   0  0  0  0  0  0  0  0  0  0  0  0
  153.3246  141.7530  160.1134 H   0  0  0  0  0  0  0  0  0  0  0  0
  151.6082  142.0194  160.4071 H   0  0  0  0  0  0  0  0  0  0  0  0
  151.1956  142.3134  157.9769 H   0  0  0  0  0  0  0  0  0  0  0  0
  152.8977  142.1424  157.6070 H   0  0  0  0  0  0  0  0  0  0  0  0
  152.6166  139.5266  154.6850 H   0  0  0  0  0  0  0  0  0  0  0  0
  153.4589  138.9320  156.0909 H   0  0  0  0  0  0  0  0  0  0  0  0
  152.6340  137.0844  154.6096 H   0  0  0  0  0  0  0  0  0  0  0  0
  151.9815  136.9584  156.2166 H   0  0  0  0  0  0  0  0  0  0  0  0
  150.5443  138.1269  153.7789 H   0  0  0  0  0  0  0  0  0  0  0  0
  149.8071  135.9801  153.5861 H   0  0  0  0  0  0  0  0  0  0  0  0
  150.4753  132.9127  156.5437 H   0  0  0  0  0  0  0  0  0  0  0  0
  149.6470  130.7483  155.8378 H   0  0  0  0  0  0  0  0  0  0  0  0
  147.4242  132.2734  151.7049 H   0  0  0  0  0  0  0  0  0  0  0  0
  146.0928  132.1640  152.8080 H   0  0  0  0  0  0  0  0  0  0  0  0
  145.9530  134.6144  153.0030 H   0  0  0  0  0  0  0  0  0  0  0  0
  147.5027  134.8098  152.1983 H   0  0  0  0  0  0  0  0  0  0  0  0
  145.3239  135.5179  149.4968 H   0  0  0  0  0  0  0  0  0  0  0  0
  146.8015  136.0155  150.3221 H   0  0  0  0  0  0  0  0  0  0  0  0
  145.2324  136.1677  151.1341 H   0  0  0  0  0  0  0  0  0  0  0  0
  148.6081  138.4374  155.2770 H   0  0  0  0  0  0  0  0  0  0  0  0
  149.5165  137.8242  156.6345 H   0  0  0  0  0  0  0  0  0  0  0  0
  149.5050  140.3058  156.6807 H   0  0  0  0  0  0  0  0  0  0  0  0
  150.1230  140.3719  155.0489 H   0  0  0  0  0  0  0  0  0  0  0  0
  1  2  1  0  0  0  0
  1 26  1  0  0  0  0
  1 27  1  0  0  0  0
  1 28  1  0  0  0  0
  2  3  1  0  0  0  0
  2 29  1  0  0  0  0
  2 30  1  0  0  0  0
  3  4  2  0  0  0  0
  3  5  2  0  0  0  0
  3  6  1  0  0  0  0
  6 25  1  0  0  0  0
  6  7  1  0  0  0  0
  7  8  1  0  0  0  0
  7 31  1  0  0  0  0
  7 32  1  0  0  0  0
  8  9  1  0  0  0  0
  8 33  1  0  0  0  0
  8 34  1  0  0  0  0
  9 10  1  0  0  0  0
  9 24  1  0  0  0  0
  9 35  1  0  0  0  0
 10 11  1  0  0  0  0
 10 36  1  0  0  0  0
 11 12  2  0  0  0  0
 11 13  1  0  0  0  0
 13 23  2  0  0  0  0
 13 14  1  0  0  0  0
 14 15  2  0  0  0  0
 14 37  1  0  0  0  0
 15 16  1  0  0  0  0
 15 38  1  0  0  0  0
 16 17  2  0  0  0  0
 16 18  1  0  0  0  0
 18 19  1  0  0  0  0
 18 23  1  0  0  0  0
 19 20  1  0  0  0  0
 19 39  1  0  0  0  0
 19 40  1  0  0  0  0
 20 21  1  0  0  0  0
 20 41  1  0  0  0  0
 20 42  1  0  0  0  0
 21 22  1  0  0  0  0
 22 43  1  0  0  0  0
 22 44  1  0  0  0  0
 22 45  1  0  0  0  0
 24 25  1  0  0  0  0
 24 46  1  0  0  0  0
 24 47  1  0  0  0  0
 25 48  1  0  0  0  0
 25 49  1  0  0  0  0
M  END
> <s_m_source_file>
AV-unprocessed.smi

> <i_m_source_file_index>
321

> <i_lp_mmshare_version>
43012

> <i_f3d_flags>
0

> <s_epik_input>
W0NIM11bQ0gyXVMoPU8pKD1PKU4xW0NIMl1bQ0gyXVtDSF0oW0NIMl1bQ0gyXTEpW05IXUMoPU8pYzJbY0hdW2NIXWMoPU8pbihuMilbQ0gyXVtDSDJdT1tDSDNd

> <s_epik_cmdline>
J2VwaWtfcHl0aG9uJywgJy1waCcsICc3LjAnLCAnLXRuJywgJzgnLCAnLW1hJywgJzIwMCcsICctbWV0YWxfYmluZGluZycsICctaW1hZScsICc8aW5maWxlLm1hZT4nLCAnLW9tYWUnLCAnPG91dGZpbGUubWFlPic=

> <r_lp_tautomer_probability>
1

> <r_epik_Ionization_Penalty>
1.38514e-06

> <r_epik_Ionization_Penalty_Charging>
6.369e-09

> <r_epik_Ionization_Penalty_Neutral>
1.37877e-06

> <r_epik_State_Penalty>
-0

> <r_epik_Charging_Adjusted_Penalty>
6.369e-09

> <i_epik_Tot_Q>
0

> <i_epik_Tot_abs_Q>
0

> <r_epik_Metal_State_Penalty>
-0

> <b_epik_Metal_Only>
0

> <s_lp_Force_Field>
OPLS_2005

> <r_lp_Energy>
23.8323

> <b_lp_Chiralities_Consistent>
1

> <s_lp_Variant>
AV-unprocessed.smi:321-1

> <Gold.Version>
5.8.1

> <Gold.Id.Protein>
6NUR|6NUR_protein|mol2

> <Gold.PLP.Fitness>
46.8620

> <Gold.PLP.PLP>
-42.1368

> <Gold.PLP.part.hbond>
-2.8382

> <Gold.PLP.part.metal>
0.0000

> <Gold.PLP.part.buried>
-5.4830

> <Gold.PLP.part.nonpolar>
-35.5927

> <Gold.PLP.part.repulsive>
1.3767

> <Gold.PLP.ligand.clash>
0.0000

> <Gold.PLP.ligand.torsion>
1.7510

> <Gold.PLP.Chemscore.Hbond>
2.0000

> <Gold.PLP.Chemscore.CHOScore>
0.0000

> <Gold.PLP.Chemscore.Metal>
0.0000

> <Gold.Chemscore.Hbonds>
donor molecule, donor type, donor heavy atom, donor atom, acceptor molecule, acceptor atom, score
      L1  H    10    36       P1  7948  0.80
      P1  H  7997  8008       L1     4  0.60

> <Gold.PLP.Chemscore.Internal.Correction>
2.2272

> <Gold.Rescore>
     Score         DG    S(hbond)    S(metal)    S(lipo)     H(rot)  DE(clash)    DE(int)     intcor
     12.73     -15.79       1.75        0.00      78.67       1.86       0.03       3.03       ----

> <Gold.Chemscore.Fitness>
12.7268

> <Gold.Chemscore.DG>
-15.7881

> <Gold.Chemscore.ZeroCoef>
-5.4800

> <Gold.Chemscore.Hbond>
1.7534

> <Gold.Chemscore.Metal>
0.0000

> <Gold.Chemscore.Lipo>
78.6727

> <Gold.Chemscore.Internal_Hbond>
0.0000

> <Gold.Chemscore.DEClash>
0.0314

> <Gold.Chemscore.DEInternal>
3.0299

> <Gold.Chemscore.Rot>
1.8567

> <Gold.Chemscore.Internal.Correction>
   9.000000E+99

> <Gold.Chemscore.Hbonds>
donor molecule, donor type, donor heavy atom, donor atom, acceptor molecule, acceptor atom, score
      L1  H    10    36       P1  7948  0.12
      P1  H  7997  8008       L1     4  0.47

> <Gold.Chemscore.Hbond.Weighted>
-5.8564

> <Gold.Chemscore.Metal.Weighted>
-0.0000

> <Gold.Chemscore.Lipo.Weighted>
-9.2047

> <Gold.Chemscore.Internal_Hbond.Weighted>
0.0000

> <Gold.Chemscore.DEClash.Weighted>
0.0314

> <Gold.Chemscore.DEInternal.Weighted>
3.0299

> <Gold.Chemscore.Rot.Weighted>
4.7530

> <Gold.Chemscore.Internal.Correction.Weighted>
   9.000000E+99

> <Gold.Protein.RotatedTorsions>
[ 6907 6896 6895 6894 ] final  -33.24 input  -60.11 | X-H torsion
[ 7974 7965 7964 7962 ] final   16.78 input  175.53 | X-H torsion
[ 8008 7997 7996 7995 ] final  -98.81 input   59.86 | X-H torsion
[ 10167 10162 10161 10158 ] final   74.29 input  -65.29 | X-H torsion
[ 10718 10713 10712 10709 ] final   15.93 input   66.30 | X-H torsion
[ 10763 10752 10751 10750 ] final   33.95 input  -60.55 | X-H torsion
[ 11005 11000 10999 10996 ] final  -45.19 input  -57.11 | X-H torsion

> <Gold.Protein.ActiveResidues>
 VAL166  LYS551  ARG553  GLY616  TRP617  ASP618  TYR619  PRO620  LYS621  CYS622 
 ASP623  PHE694  ASN695  SER759  ASP760  ASP761  ALA762  ILE779  LEU786  VAL792 
 PHE793  MET794  SER795  GLU796  ALA797  LYS798  CYS799  TRP800  GLU811  SER814 

> <Gold.Protein.RotatedAtoms>
  151.0682  134.9781  159.8294 H   0  0  0  0  0  0  0  0  0  0  0  0  # atno 6907 bound_to 6896
  152.5405  134.2332  159.8843 H   0  0  0  0  0  0  0  0  0  0  0  0  # atno 6908 bound_to 6896
  151.2356  133.4384  159.2639 H   0  0  0  0  0  0  0  0  0  0  0  0  # atno 6909 bound_to 6896
  146.2239  139.8698  142.8589 H   0  0  0  0  0  0  0  0  0  0  0  0  # atno 7974 bound_to 7965
  154.8062  140.0452  157.1309 H   0  0  0  0  0  0  0  0  0  0  0  0  # atno 8008 bound_to 7997
  154.9421  140.3054  155.5096 H   0  0  0  0  0  0  0  0  0  0  0  0  # atno 8009 bound_to 7997
  156.2967  140.2303  156.4491 H   0  0  0  0  0  0  0  0  0  0  0  0  # atno 8010 bound_to 7997
  140.0153  144.5583  150.7626 H   0  0  0  0  0  0  0  0  0  0  0  0  # atno 10167 bound_to 10162
  157.0606  130.6307  149.5785 H   0  0  0  0  0  0  0  0  0  0  0  0  # atno 10718 bound_to 10713
  153.0187  135.6373  154.1591 H   0  0  0  0  0  0  0  0  0  0  0  0  # atno 10763 bound_to 10752
  154.1328  135.2839  155.3182 H   0  0  0  0  0  0  0  0  0  0  0  0  # atno 10764 bound_to 10752
  154.6182  135.5534  153.7608 H   0  0  0  0  0  0  0  0  0  0  0  0  # atno 10765 bound_to 10752
  141.0500  133.6746  156.2979 H   0  0  0  0  0  0  0  0  0  0  0  0  # atno 11005 bound_to 11000
  145.2620  141.0080  143.3821 LP  0  0  0  0  0  0  0  0  0  0  0  0  # atno 17320 bound_to 7965
  144.9291  139.4320  143.6504 LP  0  0  0  0  0  0  0  0  0  0  0  0  # atno 17321 bound_to 7965
  140.7365  143.2754  151.3759 LP  0  0  0  0  0  0  0  0  0  0  0  0  # atno 17342 bound_to 10162
  139.6177  144.0969  152.2361 LP  0  0  0  0  0  0  0  0  0  0  0  0  # atno 17343 bound_to 10162
  155.9979  130.5052  150.7553 LP  0  0  0  0  0  0  0  0  0  0  0  0  # atno 17370 bound_to 10713
  157.4957  131.0914  151.0374 LP  0  0  0  0  0  0  0  0  0  0  0  0  # atno 17371 bound_to 10713
  140.6074  134.5493  157.5528 LP  0  0  0  0  0  0  0  0  0  0  0  0  # atno 17394 bound_to 11000
  139.9342  134.7906  156.0847 LP  0  0  0  0  0  0  0  0  0  0  0  0  # atno 17395 bound_to 11000

$$$$
