AV-unprocessed.smi:2123|AV-procd|sdf|8649|dock10
  -GOLD-   2272011393D 1   1.00000     0.00000
 Structure written by MMmdl.
 47 48  0  0  0  0  0  0  0  0  1 V2000
  149.2679  131.5486  154.4678 C   0  0  0  0  0  0  0  0  0  0  0  0
  150.2970  132.6378  155.4857 S   0  0  0  0  0  0  0  0  0  0  0  0
  149.1697  134.0484  155.6439 C   0  0  0  0  0  0  0  0  0  0  0  0
  149.6988  135.0814  156.6532 C   0  0  0  0  0  0  0  0  0  0  0  0
  150.5923  136.1536  156.0209 C   0  0  0  0  0  0  0  0  0  0  0  0
  151.7573  135.9034  155.7095 O   0  0  0  0  0  0  0  0  0  0  0  0
  150.0242  137.3554  155.8373 N   0  0  0  0  0  0  0  0  0  0  0  0
  150.6833  138.5204  155.2574 C   0  0  0  0  0  0  0  0  0  0  0  0
  150.8567  139.6525  156.2539 C   0  0  0  0  0  0  0  0  0  0  0  0
  150.5688  140.9836  155.8957 C   0  0  0  0  0  0  0  0  0  0  0  0
  150.7466  142.0011  156.8526 C   0  0  0  0  0  0  0  0  0  0  0  0
  151.2036  141.6597  158.1483 C   0  0  0  0  0  0  0  0  0  0  0  0
  151.3965  142.6633  159.1227 N   0  0  0  0  0  0  0  0  0  0  0  0
  151.3479  144.0596  158.6938 C   0  0  0  0  0  0  0  0  0  0  0  0
  151.2337  145.0071  159.9037 C   0  0  1  0  0  0  0  0  0  0  0  0
  149.8287  145.0323  160.5322 C   0  0  0  0  0  0  0  0  0  0  0  0
  152.2497  144.7074  160.8633 O   0  0  0  0  0  0  0  0  0  0  0  0
  152.2585  143.3558  161.3215 C   0  0  2  0  0  0  0  0  0  0  0  0
  153.3979  143.2071  162.3352 C   0  0  0  0  0  0  0  0  0  0  0  0
  152.4269  142.4044  160.1230 C   0  0  0  0  0  0  0  0  0  0  0  0
  151.4806  140.3756  158.4860 N   0  0  0  0  0  0  0  0  0  0  0  0
  151.3102  139.4042  157.5648 C   0  0  0  0  0  0  0  0  0  0  0  0
  149.7964  130.6185  154.2589 H   0  0  0  0  0  0  0  0  0  0  0  0
  149.0252  132.0297  153.5203 H   0  0  0  0  0  0  0  0  0  0  0  0
  148.3384  131.3105  154.9853 H   0  0  0  0  0  0  0  0  0  0  0  0
  149.0462  134.5033  154.6601 H   0  0  0  0  0  0  0  0  0  0  0  0
  148.1921  133.6776  155.9544 H   0  0  0  0  0  0  0  0  0  0  0  0
  148.8580  135.5746  157.1431 H   0  0  0  0  0  0  0  0  0  0  0  0
  150.2666  134.5761  157.4352 H   0  0  0  0  0  0  0  0  0  0  0  0
  149.0620  137.4711  156.1207 H   0  0  0  0  0  0  0  0  0  0  0  0
  151.6553  138.2489  154.8417 H   0  0  0  0  0  0  0  0  0  0  0  0
  150.0824  138.8686  154.4169 H   0  0  0  0  0  0  0  0  0  0  0  0
  150.2223  141.2263  154.9020 H   0  0  0  0  0  0  0  0  0  0  0  0
  150.5483  143.0261  156.5773 H   0  0  0  0  0  0  0  0  0  0  0  0
  152.2581  144.2844  158.1361 H   0  0  0  0  0  0  0  0  0  0  0  0
  150.5073  144.2278  158.0191 H   0  0  0  0  0  0  0  0  0  0  0  0
  151.4379  146.0185  159.5516 H   0  0  0  0  0  0  0  0  0  0  0  0
  149.0921  145.3941  159.8147 H   0  0  0  0  0  0  0  0  0  0  0  0
  149.8013  145.6969  161.3959 H   0  0  0  0  0  0  0  0  0  0  0  0
  149.5024  144.0450  160.8579 H   0  0  0  0  0  0  0  0  0  0  0  0
  151.3222  143.1353  161.8345 H   0  0  0  0  0  0  0  0  0  0  0  0
  153.4423  142.1919  162.7303 H   0  0  0  0  0  0  0  0  0  0  0  0
  153.2600  143.8852  163.1778 H   0  0  0  0  0  0  0  0  0  0  0  0
  154.3626  143.4325  161.8800 H   0  0  0  0  0  0  0  0  0  0  0  0
  152.3987  141.3757  160.4789 H   0  0  0  0  0  0  0  0  0  0  0  0
  153.4043  142.5511  159.6612 H   0  0  0  0  0  0  0  0  0  0  0  0
  151.5466  138.4005  157.8855 H   0  0  0  0  0  0  0  0  0  0  0  0
  1  2  1  0  0  0  0
  1 23  1  0  0  0  0
  1 24  1  0  0  0  0
  1 25  1  0  0  0  0
  2  3  1  0  0  0  0
  3  4  1  0  0  0  0
  3 26  1  0  0  0  0
  3 27  1  0  0  0  0
  4  5  1  0  0  0  0
  4 28  1  0  0  0  0
  4 29  1  0  0  0  0
  5  6  2  0  0  0  0
  5  7  1  0  0  0  0
  7  8  1  0  0  0  0
  7 30  1  0  0  0  0
  8  9  1  0  0  0  0
  8 31  1  0  0  0  0
  8 32  1  0  0  0  0
  9 22  1  0  0  0  0
  9 10  2  0  0  0  0
 10 11  1  0  0  0  0
 10 33  1  0  0  0  0
 11 12  2  0  0  0  0
 11 34  1  0  0  0  0
 12 13  1  0  0  0  0
 12 21  1  0  0  0  0
 13 20  1  0  0  0  0
 13 14  1  0  0  0  0
 14 15  1  0  0  0  0
 14 35  1  0  0  0  0
 14 36  1  0  0  0  0
 15 16  1  0  0  0  0
 15 17  1  0  0  0  0
 15 37  1  0  0  0  0
 16 38  1  0  0  0  0
 16 39  1  0  0  0  0
 16 40  1  0  0  0  0
 17 18  1  0  0  0  0
 18 19  1  0  0  0  0
 18 20  1  0  0  0  0
 18 41  1  0  0  0  0
 19 42  1  0  0  0  0
 19 43  1  0  0  0  0
 19 44  1  0  0  0  0
 20 45  1  0  0  0  0
 20 46  1  0  0  0  0
 21 22  2  0  0  0  0
 22 47  1  0  0  0  0
M  END
> <s_m_source_file>
AV-unprocessed.smi

> <i_m_source_file_index>
2123

> <i_lp_mmshare_version>
43012

> <i_f3d_flags>
0

> <s_epik_input>
W0NIM11TW0NIMl1bQ0gyXUMoPU8pW05IXVtDSDJdYzFbY0hdW2NIXWMobltjSF0xKU4yW0NIMl1bQ0BASF0oW0NIM10pT1tDQEBIXShbQ0gzXSlbQ0gyXTI=

> <s_epik_cmdline>
J2VwaWtfcHl0aG9uJywgJy1waCcsICc3LjAnLCAnLXRuJywgJzgnLCAnLW1hJywgJzIwMCcsICctbWV0YWxfYmluZGluZycsICctaW1hZScsICc8aW5maWxlLm1hZT4nLCAnLW9tYWUnLCAnPG91dGZpbGUubWFlPic=

> <r_lp_tautomer_probability>
1

> <r_epik_Ionization_Penalty>
0.00642497

> <r_epik_Ionization_Penalty_Charging>
0

> <r_epik_Ionization_Penalty_Neutral>
0.00642497

> <r_epik_State_Penalty>
0.0047515

> <r_epik_Charging_Adjusted_Penalty>
0.0047515

> <i_epik_Tot_Q>
0

> <i_epik_Tot_abs_Q>
0

> <r_epik_Metal_State_Penalty>
-0

> <b_epik_Metal_Only>
0

> <s_lp_Force_Field>
OPLS_2005

> <r_lp_Energy>
17.9077

> <b_lp_Chiralities_Consistent>
1

> <s_lp_Variant>
AV-unprocessed.smi:2123-3

> <Gold.Version>
5.8.1

> <Gold.Id.Protein>
6NUR|6NUR_protein|mol2

> <Gold.PLP.Fitness>
45.7363

> <Gold.PLP.PLP>
-44.5346

> <Gold.PLP.part.hbond>
-1.0000

> <Gold.PLP.part.metal>
0.0000

> <Gold.PLP.part.buried>
-6.1513

> <Gold.PLP.part.nonpolar>
-37.9389

> <Gold.PLP.part.repulsive>
0.2712

> <Gold.PLP.ligand.clash>
0.0000

> <Gold.PLP.ligand.torsion>
1.1288

> <Gold.PLP.Chemscore.Hbond>
1.0000

> <Gold.PLP.Chemscore.CHOScore>
0.0000

> <Gold.PLP.Chemscore.Metal>
0.0000

> <Gold.Chemscore.Hbonds>
donor molecule, donor type, donor heavy atom, donor atom, acceptor molecule, acceptor atom, score
      P1  H 10752 10765       L1     6  1.00

> <Gold.PLP.Chemscore.Internal.Correction>
0.4594

> <Gold.Rescore>
     Score         DG    S(hbond)    S(metal)    S(lipo)     H(rot)  DE(clash)    DE(int)     intcor
     16.90     -18.15       1.00        0.00     117.09       1.70       0.13       1.12       ----

> <Gold.Chemscore.Fitness>
16.9044

> <Gold.Chemscore.DG>
-18.1496

> <Gold.Chemscore.ZeroCoef>
-5.4800

> <Gold.Chemscore.Hbond>
0.9983

> <Gold.Chemscore.Metal>
0.0000

> <Gold.Chemscore.Lipo>
117.0941

> <Gold.Chemscore.Internal_Hbond>
0.0000

> <Gold.Chemscore.DEClash>
0.1265

> <Gold.Chemscore.DEInternal>
1.1187

> <Gold.Chemscore.Rot>
1.7049

> <Gold.Chemscore.Internal.Correction>
   9.000000E+99

> <Gold.Chemscore.Hbonds>
donor molecule, donor type, donor heavy atom, donor atom, acceptor molecule, acceptor atom, score
      P1  H 10752 10765       L1     6  0.96

> <Gold.Chemscore.Hbond.Weighted>
-3.3342

> <Gold.Chemscore.Metal.Weighted>
-0.0000

> <Gold.Chemscore.Lipo.Weighted>
-13.7000

> <Gold.Chemscore.Internal_Hbond.Weighted>
0.0000

> <Gold.Chemscore.DEClash.Weighted>
0.1265

> <Gold.Chemscore.DEInternal.Weighted>
1.1187

> <Gold.Chemscore.Rot.Weighted>
4.3647

> <Gold.Chemscore.Internal.Correction.Weighted>
   9.000000E+99

> <Gold.Protein.RotatedTorsions>
[ 6907 6896 6895 6894 ] final  171.94 input  -60.11 | X-H torsion
[ 7974 7965 7964 7962 ] final  -19.29 input  175.53 | X-H torsion
[ 8008 7997 7996 7995 ] final   -8.24 input   59.86 | X-H torsion
[ 10167 10162 10161 10158 ] final  110.54 input  -65.29 | X-H torsion
[ 10718 10713 10712 10709 ] final    2.89 input   66.30 | X-H torsion
[ 10763 10752 10751 10750 ] final -160.12 input  -60.55 | X-H torsion
[ 11005 11000 10999 10996 ] final -114.55 input  -57.11 | X-H torsion

> <Gold.Protein.ActiveResidues>
 VAL166  LYS551  ARG553  GLY616  TRP617  ASP618  TYR619  PRO620  LYS621  CYS622 
 ASP623  PHE694  ASN695  SER759  ASP760  ASP761  ALA762  ILE779  LEU786  VAL792 
 PHE793  MET794  SER795  GLU796  ALA797  LYS798  CYS799  TRP800  GLU811  SER814 

> <Gold.Protein.RotatedAtoms>
  151.7922  133.3360  159.3501 H   0  0  0  0  0  0  0  0  0  0  0  0  # atno 6907 bound_to 6896
  150.7388  134.5832  159.5959 H   0  0  0  0  0  0  0  0  0  0  0  0  # atno 6908 bound_to 6896
  152.3202  134.7391  160.0367 H   0  0  0  0  0  0  0  0  0  0  0  0  # atno 6909 bound_to 6896
  146.1849  140.4041  142.8480 H   0  0  0  0  0  0  0  0  0  0  0  0  # atno 7974 bound_to 7965
  154.5760  140.2386  155.8122 H   0  0  0  0  0  0  0  0  0  0  0  0  # atno 8008 bound_to 7997
  156.2143  140.3017  155.9761 H   0  0  0  0  0  0  0  0  0  0  0  0  # atno 8009 bound_to 7997
  155.2626  140.0415  157.2989 H   0  0  0  0  0  0  0  0  0  0  0  0  # atno 8010 bound_to 7997
  139.6680  144.7126  151.1740 H   0  0  0  0  0  0  0  0  0  0  0  0  # atno 10167 bound_to 10162
  156.8697  130.5615  149.5658 H   0  0  0  0  0  0  0  0  0  0  0  0  # atno 10718 bound_to 10713
  154.7417  135.3070  154.8716 H   0  0  0  0  0  0  0  0  0  0  0  0  # atno 10763 bound_to 10752
  153.9528  135.6762  153.4748 H   0  0  0  0  0  0  0  0  0  0  0  0  # atno 10764 bound_to 10752
  153.1016  135.4909  154.8801 H   0  0  0  0  0  0  0  0  0  0  0  0  # atno 10765 bound_to 10752
  141.0545  133.9635  157.2778 H   0  0  0  0  0  0  0  0  0  0  0  0  # atno 11005 bound_to 11000
  144.8379  140.6811  143.6248 LP  0  0  0  0  0  0  0  0  0  0  0  0  # atno 17320 bound_to 7965
  145.3968  139.1605  143.4199 LP  0  0  0  0  0  0  0  0  0  0  0  0  # atno 17321 bound_to 7965
  140.7607  143.5888  150.8817 LP  0  0  0  0  0  0  0  0  0  0  0  0  # atno 17342 bound_to 10162
  139.9551  143.6227  152.3018 LP  0  0  0  0  0  0  0  0  0  0  0  0  # atno 17343 bound_to 10162
  156.0733  130.5761  150.9425 LP  0  0  0  0  0  0  0  0  0  0  0  0  # atno 17370 bound_to 10713
  157.6203  131.0930  150.8635 LP  0  0  0  0  0  0  0  0  0  0  0  0  # atno 17371 bound_to 10713
  139.9378  135.0194  156.8612 LP  0  0  0  0  0  0  0  0  0  0  0  0  # atno 17394 bound_to 11000
  140.5991  134.0189  155.7530 LP  0  0  0  0  0  0  0  0  0  0  0  0  # atno 17395 bound_to 11000

$$$$
