AV-unprocessed.smi:3303|AV-procd|sdf|12675|dock3
  -GOLD-   2272019 13D 1   1.00000     0.00000
 Structure written by MMmdl.
 44 45  0  0  0  0  0  0  0  0  2 V2000
  151.1465  145.4107  158.5927 C   0  0  0  0  0  0  0  0  0  0  0  0
  151.1269  144.0582  159.3246 C   0  0  2  0  0  0  0  0  0  0  0  0
  152.2050  144.0433  160.4280 C   0  0  0  0  0  0  0  0  0  0  0  0
  152.2058  142.7637  161.1368 N   0  0  0  0  0  0  0  0  0  0  0  0
  153.0858  142.8244  162.2972 C   0  0  0  0  0  0  0  0  0  0  0  0
  152.4981  141.6204  160.2593 C   0  0  2  0  0  0  0  0  0  0  0  0
  153.9333  141.5986  159.6852 C   0  0  0  0  0  0  0  0  0  0  0  0
  151.4195  141.5591  159.1588 C   0  0  0  0  0  0  0  0  0  0  0  0
  151.3165  142.8696  158.3572 C   0  0  1  0  0  0  0  0  0  0  0  0
  150.1840  142.7813  157.4083 N   0  3  0  0  0  0  0  0  0  0  0  0
  150.4023  141.8743  156.2641 C   0  0  0  0  0  0  0  0  0  0  0  0
  150.1874  140.4111  156.6739 C   0  0  0  0  0  0  0  0  0  0  0  0
  150.9401  139.4479  155.7760 C   0  0  0  0  0  0  0  0  0  0  0  0
  152.3301  139.5864  155.5748 C   0  0  0  0  0  0  0  0  0  0  0  0
  152.9818  138.6601  154.7376 C   0  0  0  0  0  0  0  0  0  0  0  0
  152.2225  137.6374  154.1373 C   0  0  0  0  0  0  0  0  0  0  0  0
  150.8398  137.5841  154.4037 C   0  0  0  0  0  0  0  0  0  0  0  0
  150.2053  138.4660  155.2068 N   0  0  0  0  0  0  0  0  0  0  0  0
  152.0919  145.5642  158.0711 H   0  0  0  0  0  0  0  0  0  0  0  0
  151.0183  146.2357  159.2941 H   0  0  0  0  0  0  0  0  0  0  0  0
  150.3447  145.4835  157.8578 H   0  0  0  0  0  0  0  0  0  0  0  0
  150.1547  143.9550  159.8100 H   0  0  0  0  0  0  0  0  0  0  0  0
  153.1909  144.2527  160.0124 H   0  0  0  0  0  0  0  0  0  0  0  0
  151.9938  144.8415  161.1411 H   0  0  0  0  0  0  0  0  0  0  0  0
  153.0881  141.8731  162.8300 H   0  0  0  0  0  0  0  0  0  0  0  0
  152.7407  143.5908  162.9920 H   0  0  0  0  0  0  0  0  0  0  0  0
  154.1110  143.0673  162.0168 H   0  0  0  0  0  0  0  0  0  0  0  0
  152.3864  140.7207  160.8661 H   0  0  0  0  0  0  0  0  0  0  0  0
  154.0723  140.7288  159.0429 H   0  0  0  0  0  0  0  0  0  0  0  0
  154.6838  141.5259  160.4717 H   0  0  0  0  0  0  0  0  0  0  0  0
  154.1634  142.4788  159.0860 H   0  0  0  0  0  0  0  0  0  0  0  0
  151.6213  140.7237  158.4869 H   0  0  0  0  0  0  0  0  0  0  0  0
  150.4563  141.3441  159.6249 H   0  0  0  0  0  0  0  0  0  0  0  0
  152.2455  143.0152  157.8036 H   0  0  0  0  0  0  0  0  0  0  0  0
  149.3647  142.4752  157.9134 H   0  0  0  0  0  0  0  0  0  0  0  0
  149.7124  142.1371  155.4611 H   0  0  0  0  0  0  0  0  0  0  0  0
  151.4146  142.0166  155.8830 H   0  0  0  0  0  0  0  0  0  0  0  0
  150.5105  140.2590  157.7051 H   0  0  0  0  0  0  0  0  0  0  0  0
  149.1242  140.1682  156.6470 H   0  0  0  0  0  0  0  0  0  0  0  0
  152.8865  140.3815  156.0494 H   0  0  0  0  0  0  0  0  0  0  0  0
  154.0449  138.7322  154.5598 H   0  0  0  0  0  0  0  0  0  0  0  0
  152.6890  136.9108  153.4885 H   0  0  0  0  0  0  0  0  0  0  0  0
  150.2275  136.8120  153.9614 H   0  0  0  0  0  0  0  0  0  0  0  0
  150.0084  143.7076  157.0461 H   0  0  0  0  0  0  0  0  0  0  0  0
  1  2  1  0  0  0  0
  1 19  1  0  0  0  0
  1 20  1  0  0  0  0
  1 21  1  0  0  0  0
  2  9  1  0  0  0  0
  2  3  1  0  0  0  0
  2 22  1  0  0  0  0
  3  4  1  0  0  0  0
  3 23  1  0  0  0  0
  3 24  1  0  0  0  0
  4  5  1  0  0  0  0
  4  6  1  0  0  0  0
  5 25  1  0  0  0  0
  5 26  1  0  0  0  0
  5 27  1  0  0  0  0
  6  7  1  0  0  0  0
  6  8  1  0  0  0  0
  6 28  1  0  0  0  0
  7 29  1  0  0  0  0
  7 30  1  0  0  0  0
  7 31  1  0  0  0  0
  8  9  1  0  0  0  0
  8 32  1  0  0  0  0
  8 33  1  0  0  0  0
  9 10  1  0  0  0  0
  9 34  1  0  0  0  0
 10 11  1  0  0  0  0
 10 35  1  0  0  0  0
 10 44  1  0  0  0  0
 11 12  1  0  0  0  0
 11 36  1  0  0  0  0
 11 37  1  0  0  0  0
 12 13  1  0  0  0  0
 12 38  1  0  0  0  0
 12 39  1  0  0  0  0
 13 18  1  0  0  0  0
 13 14  2  0  0  0  0
 14 15  1  0  0  0  0
 14 40  1  0  0  0  0
 15 16  2  0  0  0  0
 15 41  1  0  0  0  0
 16 17  1  0  0  0  0
 16 42  1  0  0  0  0
 17 18  2  0  0  0  0
 17 43  1  0  0  0  0
M  CHG  1  10   1
M  END
> <s_m_source_file>
AV-unprocessed.smi

> <i_m_source_file_index>
3303

> <i_lp_mmshare_version>
43012

> <i_f3d_flags>
0

> <s_epik_input>
W0NIM11bQ0BASF0xW0NIMl1OKFtDSDNdKVtDQEBIXShbQ0gzXSlbQ0gyXVtDQEhdMVtOSF1bQ0gyXVtDSDJdYzJbY0hdW2NIXVtjSF1bY0hdbjI=

> <s_epik_cmdline>
J2VwaWtfcHl0aG9uJywgJy1waCcsICc3LjAnLCAnLXRuJywgJzgnLCAnLW1hJywgJzIwMCcsICctbWV0YWxfYmluZGluZycsICctaW1hZScsICc8aW5maWxlLm1hZT4nLCAnLW9tYWUnLCAnPG91dGZpbGUubWFlPic=

> <r_epik_Ionization_Penalty>
1.37325

> <r_epik_Ionization_Penalty_Charging>
0.000251572

> <r_epik_Ionization_Penalty_Neutral>
1.373

> <r_epik_State_Penalty>
1.46343

> <r_epik_Charging_Adjusted_Penalty>
1.46368

> <i_epik_Tot_Q>
1

> <i_epik_Tot_abs_Q>
1

> <r_epik_Metal_State_Penalty>
1.46331

> <b_epik_Metal_Only>
0

> <s_lp_Force_Field>
OPLS_2005

> <r_lp_Energy>
23.1884

> <b_lp_Chiralities_Consistent>
1

> <s_lp_Variant>
AV-unprocessed.smi:3303-19

> <Gold.Version>
5.8.1

> <Gold.Id.Protein>
6NUR|6NUR_protein|mol2

> <Gold.PLP.Fitness>
47.2277

> <Gold.PLP.PLP>
-39.5654

> <Gold.PLP.part.hbond>
-1.0009

> <Gold.PLP.part.metal>
0.0000

> <Gold.PLP.part.buried>
-1.9337

> <Gold.PLP.part.nonpolar>
-36.5034

> <Gold.PLP.part.repulsive>
0.1849

> <Gold.PLP.ligand.clash>
0.0000

> <Gold.PLP.ligand.torsion>
0.3290

> <Gold.PLP.Chemscore.Hbond>
1.7280

> <Gold.PLP.Chemscore.CHOScore>
1.0421

> <Gold.PLP.Chemscore.Metal>
0.0000

> <Gold.Chemscore.Hbonds>
donor molecule, donor type, donor heavy atom, donor atom, acceptor molecule, acceptor atom, score
      L1  H    10    44       P1  8028  1.68
      L1  C    17    43       P1  7948  0.93
      L1  C    17    43       P1  7949  0.07

> <Gold.PLP.Chemscore.Internal.Correction>
0.0100

> <Gold.Rescore>
     Score         DG    S(hbond)    S(metal)    S(lipo)     H(rot)  DE(clash)    DE(int)     intcor
     17.98     -20.18       0.61        0.00     137.29       1.33       1.83       0.37       ----

> <Gold.Chemscore.Fitness>
17.9805

> <Gold.Chemscore.DG>
-20.1813

> <Gold.Chemscore.ZeroCoef>
-5.4800

> <Gold.Chemscore.Hbond>
0.6115

> <Gold.Chemscore.Metal>
0.0000

> <Gold.Chemscore.Lipo>
137.2917

> <Gold.Chemscore.Internal_Hbond>
0.0000

> <Gold.Chemscore.DEClash>
1.8270

> <Gold.Chemscore.DEInternal>
0.3738

> <Gold.Chemscore.Rot>
1.3298

> <Gold.Chemscore.Internal.Correction>
   9.000000E+99

> <Gold.Chemscore.Hbonds>
donor molecule, donor type, donor heavy atom, donor atom, acceptor molecule, acceptor atom, score
      L1  H    10    44       P1  8028  0.77

> <Gold.Chemscore.Hbond.Weighted>
-2.0425

> <Gold.Chemscore.Metal.Weighted>
-0.0000

> <Gold.Chemscore.Lipo.Weighted>
-16.0631

> <Gold.Chemscore.Internal_Hbond.Weighted>
0.0000

> <Gold.Chemscore.DEClash.Weighted>
1.8270

> <Gold.Chemscore.DEInternal.Weighted>
0.3738

> <Gold.Chemscore.Rot.Weighted>
3.4043

> <Gold.Chemscore.Internal.Correction.Weighted>
   9.000000E+99

> <Gold.Protein.RotatedTorsions>
[ 6907 6896 6895 6894 ] final -167.37 input  -60.11 | X-H torsion
[ 7974 7965 7964 7962 ] final   27.25 input  175.53 | X-H torsion
[ 8008 7997 7996 7995 ] final  167.10 input   59.86 | X-H torsion
[ 10167 10162 10161 10158 ] final  178.33 input  -65.29 | X-H torsion
[ 10718 10713 10712 10709 ] final -118.85 input   66.30 | X-H torsion
[ 10763 10752 10751 10750 ] final -104.92 input  -60.55 | X-H torsion
[ 11005 11000 10999 10996 ] final   74.33 input  -57.11 | X-H torsion

> <Gold.Protein.ActiveResidues>
 VAL166  LYS551  ARG553  GLY616  TRP617  ASP618  TYR619  PRO620  LYS621  CYS622 
 ASP623  PHE694  ASN695  SER759  ASP760  ASP761  ALA762  ILE779  LEU786  VAL792 
 PHE793  MET794  SER795  GLU796  ALA797  LYS798  CYS799  TRP800  GLU811  SER814 

> <Gold.Protein.RotatedAtoms>
  151.4585  133.3599  159.2805 H   0  0  0  0  0  0  0  0  0  0  0  0  # atno 6907 bound_to 6896
  150.9041  134.8457  159.7391 H   0  0  0  0  0  0  0  0  0  0  0  0  # atno 6908 bound_to 6896
  152.4896  134.4509  159.9626 H   0  0  0  0  0  0  0  0  0  0  0  0  # atno 6909 bound_to 6896
  146.1794  139.7217  142.8911 H   0  0  0  0  0  0  0  0  0  0  0  0  # atno 7974 bound_to 7965
  156.1663  140.1626  156.8526 H   0  0  0  0  0  0  0  0  0  0  0  0  # atno 8008 bound_to 7997
  154.5211  140.0778  156.8207 H   0  0  0  0  0  0  0  0  0  0  0  0  # atno 8009 bound_to 7997
  155.3605  140.3395  155.4243 H   0  0  0  0  0  0  0  0  0  0  0  0  # atno 8010 bound_to 7997
  139.5290  144.2692  152.0642 H   0  0  0  0  0  0  0  0  0  0  0  0  # atno 10167 bound_to 10162
  156.1137  130.6269  150.9343 H   0  0  0  0  0  0  0  0  0  0  0  0  # atno 10718 bound_to 10713
  154.7911  135.4768  154.0055 H   0  0  0  0  0  0  0  0  0  0  0  0  # atno 10763 bound_to 10752
  153.1633  135.6812  153.8718 H   0  0  0  0  0  0  0  0  0  0  0  0  # atno 10764 bound_to 10752
  153.8325  135.3190  155.3398 H   0  0  0  0  0  0  0  0  0  0  0  0  # atno 10765 bound_to 10752
  139.9396  134.7423  156.1134 H   0  0  0  0  0  0  0  0  0  0  0  0  # atno 11005 bound_to 11000
  145.4119  141.0397  143.3012 LP  0  0  0  0  0  0  0  0  0  0  0  0  # atno 17320 bound_to 7965
  144.8290  139.5661  143.6952 LP  0  0  0  0  0  0  0  0  0  0  0  0  # atno 17321 bound_to 7965
  140.2153  144.4522  150.6367 LP  0  0  0  0  0  0  0  0  0  0  0  0  # atno 17342 bound_to 10162
  140.6454  143.2212  151.6197 LP  0  0  0  0  0  0  0  0  0  0  0  0  # atno 17343 bound_to 10162
  157.6319  131.0920  150.8423 LP  0  0  0  0  0  0  0  0  0  0  0  0  # atno 17370 bound_to 10713
  156.8530  130.5087  149.5310 LP  0  0  0  0  0  0  0  0  0  0  0  0  # atno 17371 bound_to 10713
  141.1025  133.6672  156.2788 LP  0  0  0  0  0  0  0  0  0  0  0  0  # atno 17394 bound_to 11000
  140.5985  134.5579  157.5513 LP  0  0  0  0  0  0  0  0  0  0  0  0  # atno 17395 bound_to 11000

$$$$
