AV-unprocessed.smi:1144|AV-procd|sdf|4879|dock3
  -GOLD-   22720 3453D 1   1.00000     0.00000
 Structure written by MMmdl.
 35 36  0  0  0  0  0  0  0  0  2 V2000
  147.0698  142.2021  157.3501 C   0  0  0  0  0  0  0  0  0  0  0  0
  148.1172  142.0911  156.3128 N   0  3  2  0  0  0  0  0  0  0  0  0
  147.6071  141.5182  155.0464 C   0  0  0  0  0  0  0  0  0  0  0  0
  148.7309  141.4551  153.9994 C   0  0  0  0  0  0  0  0  0  0  0  0
  149.8213  140.7050  154.5204 O   0  0  0  0  0  0  0  0  0  0  0  0
  150.3887  141.3046  155.6819 C   0  0  2  0  0  0  0  0  0  0  0  0
  151.6006  140.4670  156.1122 C   0  0  0  0  0  0  0  0  0  0  0  0
  151.5172  140.0812  157.5128 N   0  0  0  0  0  0  0  0  0  0  0  0
  151.9984  140.8507  158.5546 C   0  0  0  0  0  0  0  0  0  0  0  0
  152.8053  140.2190  159.4095 N   0  0  0  0  0  0  0  0  0  0  0  0
  153.2885  140.9405  160.4441 C   0  0  0  0  0  0  0  0  0  0  0  0
  152.9618  142.2998  160.6186 C   0  0  0  0  0  0  0  0  0  0  0  0
  152.1012  142.8662  159.6517 C   0  0  0  0  0  0  0  0  0  0  0  0
  151.6657  144.3227  159.7090 C   0  0  0  0  0  0  0  0  0  0  0  0
  152.0700  144.9113  160.8354 F   0  0  0  0  0  0  0  0  0  0  0  0
  152.1831  144.9864  158.6753 F   0  0  0  0  0  0  0  0  0  0  0  0
  150.3360  144.3970  159.6459 F   0  0  0  0  0  0  0  0  0  0  0  0
  151.6221  142.1326  158.6203 N   0  0  0  0  0  0  0  0  0  0  0  0
  149.3115  141.3523  156.7838 C   0  0  0  0  0  0  0  0  0  0  0  0
  146.6859  141.2192  157.6269 H   0  0  0  0  0  0  0  0  0  0  0  0
  146.2360  142.8064  156.9911 H   0  0  0  0  0  0  0  0  0  0  0  0
  147.4660  142.6796  158.2469 H   0  0  0  0  0  0  0  0  0  0  0  0
  147.2116  140.5176  155.2289 H   0  0  0  0  0  0  0  0  0  0  0  0
  146.7828  142.1259  154.6713 H   0  0  0  0  0  0  0  0  0  0  0  0
  148.3712  140.9723  153.0908 H   0  0  0  0  0  0  0  0  0  0  0  0
  149.0613  142.4565  153.7184 H   0  0  0  0  0  0  0  0  0  0  0  0
  150.7176  142.3199  155.4505 H   0  0  0  0  0  0  0  0  0  0  0  0
  151.6530  139.5596  155.5093 H   0  0  0  0  0  0  0  0  0  0  0  0
  152.5240  141.0214  155.9397 H   0  0  0  0  0  0  0  0  0  0  0  0
  150.9705  139.2678  157.7556 H   0  0  0  0  0  0  0  0  0  0  0  0
  153.9397  140.4295  161.1378 H   0  0  0  0  0  0  0  0  0  0  0  0
  153.3533  142.8679  161.4493 H   0  0  0  0  0  0  0  0  0  0  0  0
  149.7122  141.8382  157.6745 H   0  0  0  0  0  0  0  0  0  0  0  0
  149.0236  140.3400  157.0729 H   0  0  0  0  0  0  0  0  0  0  0  0
  148.4204  143.0318  156.1045 H   0  0  0  0  0  0  0  0  0  0  0  0
  1  2  1  0  0  0  0
  1 20  1  0  0  0  0
  1 21  1  0  0  0  0
  1 22  1  0  0  0  0
  2 19  1  0  0  0  0
  2  3  1  0  0  0  0
  2 35  1  0  0  0  0
  3  4  1  0  0  0  0
  3 23  1  0  0  0  0
  3 24  1  0  0  0  0
  4  5  1  0  0  0  0
  4 25  1  0  0  0  0
  4 26  1  0  0  0  0
  5  6  1  0  0  0  0
  6  7  1  0  0  0  0
  6 19  1  0  0  0  0
  6 27  1  0  0  0  0
  7  8  1  0  0  0  0
  7 28  1  0  0  0  0
  7 29  1  0  0  0  0
  8  9  1  0  0  0  0
  8 30  1  0  0  0  0
  9 18  1  0  0  0  0
  9 10  2  0  0  0  0
 10 11  1  0  0  0  0
 11 12  2  0  0  0  0
 11 31  1  0  0  0  0
 12 13  1  0  0  0  0
 12 32  1  0  0  0  0
 13 14  1  0  0  0  0
 13 18  2  0  0  0  0
 14 15  1  0  0  0  0
 14 16  1  0  0  0  0
 14 17  1  0  0  0  0
 19 33  1  0  0  0  0
 19 34  1  0  0  0  0
M  CHG  1   2   1
M  END
> <s_m_source_file>
AV-unprocessed.smi

> <i_m_source_file_index>
1144

> <i_lp_mmshare_version>
43012

> <i_f3d_flags>
0

> <s_epik_input>
W0NIM11OMVtDSDJdW0NIMl1PW0NASF0oW0NIMl0xKVtDSDJdW05IXWMybltjSF1bY0hdYyhuMilDKEYpKEYpRg==

> <s_epik_cmdline>
J2VwaWtfcHl0aG9uJywgJy1waCcsICc3LjAnLCAnLXRuJywgJzgnLCAnLW1hJywgJzIwMCcsICctbWV0YWxfYmluZGluZycsICctaW1hZScsICc8aW5maWxlLm1hZT4nLCAnLW9tYWUnLCAnPG91dGZpbGUubWFlPic=

> <r_lp_tautomer_probability>
1

> <r_epik_Ionization_Penalty>
0.178506

> <r_epik_Ionization_Penalty_Charging>
0.178504

> <r_epik_Ionization_Penalty_Neutral>
2.47225e-06

> <r_epik_State_Penalty>
0.167974

> <r_epik_Charging_Adjusted_Penalty>
0.346478

> <i_epik_Tot_Q>
1

> <i_epik_Tot_abs_Q>
1

> <r_epik_Metal_State_Penalty>
0.167974

> <b_epik_Metal_Only>
0

> <s_lp_Force_Field>
OPLS_2005

> <r_lp_Energy>
9.23753

> <b_lp_Chiralities_Consistent>
1

> <s_lp_Variant>
AV-unprocessed.smi:1144-4

> <Gold.Version>
5.8.1

> <Gold.Id.Protein>
6NUR|6NUR_protein|mol2

> <Gold.PLP.Fitness>
43.9700

> <Gold.PLP.PLP>
-43.6117

> <Gold.PLP.part.hbond>
-2.0000

> <Gold.PLP.part.metal>
0.0000

> <Gold.PLP.part.buried>
-5.2030

> <Gold.PLP.part.nonpolar>
-35.8226

> <Gold.PLP.part.repulsive>
0.2105

> <Gold.PLP.ligand.clash>
3.6389

> <Gold.PLP.ligand.torsion>
1.5091

> <Gold.PLP.Chemscore.Hbond>
2.3361

> <Gold.PLP.Chemscore.CHOScore>
0.0000

> <Gold.PLP.Chemscore.Metal>
0.0000

> <Gold.Chemscore.Hbonds>
donor molecule, donor type, donor heavy atom, donor atom, acceptor molecule, acceptor atom, score
      L1  H     2    35       P1  8028  2.00
      P1  H  7989  7998       L1     5  0.39

> <Gold.PLP.Chemscore.Internal.Correction>
0.0072

> <Gold.Rescore>
     Score         DG    S(hbond)    S(metal)    S(lipo)     H(rot)  DE(clash)    DE(int)     intcor
     12.35     -14.42       0.95        0.00      78.47       1.34       0.62       1.45       ----

> <Gold.Chemscore.Fitness>
12.3478

> <Gold.Chemscore.DG>
-14.4243

> <Gold.Chemscore.ZeroCoef>
-5.4800

> <Gold.Chemscore.Hbond>
0.9546

> <Gold.Chemscore.Metal>
0.0000

> <Gold.Chemscore.Lipo>
78.4693

> <Gold.Chemscore.Internal_Hbond>
0.0000

> <Gold.Chemscore.DEClash>
0.6236

> <Gold.Chemscore.DEInternal>
1.4528

> <Gold.Chemscore.Rot>
1.3379

> <Gold.Chemscore.Internal.Correction>
   9.000000E+99

> <Gold.Chemscore.Hbonds>
donor molecule, donor type, donor heavy atom, donor atom, acceptor molecule, acceptor atom, score
      L1  H     2    35       P1  8028  0.91
      P1  H  7989  7998       L1     5  0.02

> <Gold.Chemscore.Hbond.Weighted>
-3.1883

> <Gold.Chemscore.Metal.Weighted>
-0.0000

> <Gold.Chemscore.Lipo.Weighted>
-9.1809

> <Gold.Chemscore.Internal_Hbond.Weighted>
0.0000

> <Gold.Chemscore.DEClash.Weighted>
0.6236

> <Gold.Chemscore.DEInternal.Weighted>
1.4528

> <Gold.Chemscore.Rot.Weighted>
3.4250

> <Gold.Chemscore.Internal.Correction.Weighted>
   9.000000E+99

> <Gold.Protein.RotatedTorsions>
[ 6907 6896 6895 6894 ] final -137.56 input  -60.11 | X-H torsion
[ 7974 7965 7964 7962 ] final   91.89 input  175.53 | X-H torsion
[ 8008 7997 7996 7995 ] final  118.93 input   59.86 | X-H torsion
[ 10167 10162 10161 10158 ] final -123.07 input  -65.29 | X-H torsion
[ 10718 10713 10712 10709 ] final  -52.25 input   66.30 | X-H torsion
[ 10763 10752 10751 10750 ] final  -23.52 input  -60.55 | X-H torsion
[ 11005 11000 10999 10996 ] final -154.40 input  -57.11 | X-H torsion

> <Gold.Protein.ActiveResidues>
 VAL166  LYS551  ARG553  GLY616  TRP617  ASP618  TYR619  PRO620  LYS621  CYS622 
 ASP623  PHE694  ASN695  SER759  ASP760  ASP761  ALA762  ILE779  LEU786  VAL792 
 PHE793  MET794  SER795  GLU796  ALA797  LYS798  CYS799  TRP800  GLU811  SER814 

> <Gold.Protein.RotatedAtoms>
  151.0240  133.5851  159.2667 H   0  0  0  0  0  0  0  0  0  0  0  0  # atno 6907 bound_to 6896
  151.2957  135.0754  159.9230 H   0  0  0  0  0  0  0  0  0  0  0  0  # atno 6908 bound_to 6896
  152.5329  133.9930  159.7914 H   0  0  0  0  0  0  0  0  0  0  0  0  # atno 6909 bound_to 6896
  145.4996  139.2276  143.2784 H   0  0  0  0  0  0  0  0  0  0  0  0  # atno 7974 bound_to 7965
  156.2571  140.2864  156.0912 H   0  0  0  0  0  0  0  0  0  0  0  0  # atno 8008 bound_to 7997
  155.1461  140.0396  157.2827 H   0  0  0  0  0  0  0  0  0  0  0  0  # atno 8009 bound_to 7997
  154.6494  140.2541  155.7237 H   0  0  0  0  0  0  0  0  0  0  0  0  # atno 8010 bound_to 7997
  140.0075  143.5476  152.2277 H   0  0  0  0  0  0  0  0  0  0  0  0  # atno 10167 bound_to 10162
  156.1638  130.4149  149.9752 H   0  0  0  0  0  0  0  0  0  0  0  0  # atno 10718 bound_to 10713
  153.6691  135.6972  153.5153 H   0  0  0  0  0  0  0  0  0  0  0  0  # atno 10763 bound_to 10752
  153.2572  135.4256  155.0857 H   0  0  0  0  0  0  0  0  0  0  0  0  # atno 10764 bound_to 10752
  154.8431  135.3546  154.6235 H   0  0  0  0  0  0  0  0  0  0  0  0  # atno 10765 bound_to 10752
  140.6977  134.3971  157.5213 H   0  0  0  0  0  0  0  0  0  0  0  0  # atno 11005 bound_to 11000
  146.2234  140.5796  142.9007 LP  0  0  0  0  0  0  0  0  0  0  0  0  # atno 17320 bound_to 7965
  144.7787  140.5795  143.6620 LP  0  0  0  0  0  0  0  0  0  0  0  0  # atno 17321 bound_to 7965
  139.6228  144.7632  151.2703 LP  0  0  0  0  0  0  0  0  0  0  0  0  # atno 17342 bound_to 10162
  140.7394  143.6617  150.8158 LP  0  0  0  0  0  0  0  0  0  0  0  0  # atno 17343 bound_to 10162
  156.7573  130.9138  151.3640 LP  0  0  0  0  0  0  0  0  0  0  0  0  # atno 17370 bound_to 10713
  157.6752  130.9088  150.0134 LP  0  0  0  0  0  0  0  0  0  0  0  0  # atno 17371 bound_to 10713
  139.8905  134.8802  156.2365 LP  0  0  0  0  0  0  0  0  0  0  0  0  # atno 17394 bound_to 11000
  141.0189  133.7052  156.1235 LP  0  0  0  0  0  0  0  0  0  0  0  0  # atno 17395 bound_to 11000

$$$$
