AV-unprocessed.smi:2784|AV-procd|sdf|10737|dock5
  -GOLD-   2272015173D 1   1.00000     0.00000
 Structure written by MMmdl.
 31 32  0  0  0  0  0  0  0  0  1 V2000
  153.5221  141.2468  160.4185 C   0  0  0  0  0  0  0  0  0  0  0  0
  152.8602  141.6077  159.2172 O   0  0  0  0  0  0  0  0  0  0  0  0
  151.9225  142.6637  159.3776 C   0  0  1  0  0  0  0  0  0  0  0  0
  152.5054  143.8302  160.1868 C   0  0  0  0  0  0  0  0  0  0  0  0
  151.8171  145.0670  159.6209 C   0  0  0  0  0  0  0  0  0  0  0  0
  151.7233  144.7792  158.1236 C   0  0  0  0  0  0  0  0  0  0  0  0
  151.5483  143.2549  157.9988 C   0  0  2  0  0  0  0  0  0  0  0  0
  150.1714  142.9341  157.6307 N   0  0  0  0  0  0  0  0  0  0  0  0
  149.6514  141.6989  157.5773 C   0  0  0  0  0  0  0  0  0  0  0  0
  150.3271  140.6966  157.8311 O   0  0  0  0  0  0  0  0  0  0  0  0
  148.3271  141.7498  157.1717 N   0  0  0  0  0  0  0  0  0  0  0  0
  148.0246  141.3895  155.9623 C   0  0  0  0  0  0  0  0  0  0  0  0
  148.7926  140.9543  154.8852 N   0  0  0  0  0  0  0  0  0  0  0  0
  147.9538  140.7193  153.8320 C   0  0  0  0  0  0  0  0  0  0  0  0
  146.7131  140.9933  154.2243 C   0  0  0  0  0  0  0  0  0  0  0  0
  146.7250  141.4057  155.5232 O   0  0  0  0  0  0  0  0  0  0  0  0
  154.2120  140.4267  160.2207 H   0  0  0  0  0  0  0  0  0  0  0  0
  152.8107  140.9109  161.1739 H   0  0  0  0  0  0  0  0  0  0  0  0
  154.0993  142.0775  160.8258 H   0  0  0  0  0  0  0  0  0  0  0  0
  151.0223  142.2976  159.8763 H   0  0  0  0  0  0  0  0  0  0  0  0
  152.3501  143.7172  161.2599 H   0  0  0  0  0  0  0  0  0  0  0  0
  153.5796  143.9048  160.0115 H   0  0  0  0  0  0  0  0  0  0  0  0
  150.8155  145.1576  160.0434 H   0  0  0  0  0  0  0  0  0  0  0  0
  152.3586  145.9876  159.8394 H   0  0  0  0  0  0  0  0  0  0  0  0
  150.9276  145.3499  157.6432 H   0  0  0  0  0  0  0  0  0  0  0  0
  152.6592  145.0719  157.6456 H   0  0  0  0  0  0  0  0  0  0  0  0
  152.2227  142.8893  157.2217 H   0  0  0  0  0  0  0  0  0  0  0  0
  149.5682  143.7104  157.4000 H   0  0  0  0  0  0  0  0  0  0  0  0
  149.7935  140.8241  154.8435 H   0  0  0  0  0  0  0  0  0  0  0  0
  148.3459  140.3719  152.8876 H   0  0  0  0  0  0  0  0  0  0  0  0
  145.7584  140.9490  153.7213 H   0  0  0  0  0  0  0  0  0  0  0  0
  1  2  1  0  0  0  0
  1 17  1  0  0  0  0
  1 18  1  0  0  0  0
  1 19  1  0  0  0  0
  2  3  1  0  0  0  0
  3  7  1  0  0  0  0
  3  4  1  0  0  0  0
  3 20  1  0  0  0  0
  4  5  1  0  0  0  0
  4 21  1  0  0  0  0
  4 22  1  0  0  0  0
  5  6  1  0  0  0  0
  5 23  1  0  0  0  0
  5 24  1  0  0  0  0
  6  7  1  0  0  0  0
  6 25  1  0  0  0  0
  6 26  1  0  0  0  0
  7  8  1  0  0  0  0
  7 27  1  0  0  0  0
  8 28  1  0  0  0  0
  8  9  1  0  0  0  0
  9 11  1  0  0  0  0
  9 10  2  0  0  0  0
 11 12  2  0  0  0  0
 12 16  1  0  0  0  0
 12 13  1  0  0  0  0
 13 29  1  0  0  0  0
 13 14  1  0  0  0  0
 14 30  1  0  0  0  0
 14 15  2  0  0  0  0
 15 31  1  0  0  0  0
 15 16  1  0  0  0  0
M  END
> <s_m_source_file>
AV-unprocessed.smi

> <i_m_source_file_index>
2784

> <i_lp_mmshare_version>
43012

> <i_f3d_flags>
0

> <s_epik_input>
W0NIM11PW0NAQEhdMVtDSDJdW0NIMl1bQ0gyXVtDQEhdMVtOSF1DKD1PKVtOSF1jMm5bY0hdW2NIXW8y

> <s_epik_cmdline>
J2VwaWtfcHl0aG9uJywgJy1waCcsICc3LjAnLCAnLXRuJywgJzgnLCAnLW1hJywgJzIwMCcsICctbWV0YWxfYmluZGluZycsICctaW1hZScsICc8aW5maWxlLm1hZT4nLCAnLW9tYWUnLCAnPG91dGZpbGUubWFlPic=

> <r_lp_tautomer_probability>
0.107061

> <r_epik_Ionization_Penalty>
1.29244

> <r_epik_Ionization_Penalty_Charging>
1.29208

> <r_epik_Ionization_Penalty_Neutral>
0.000359742

> <r_epik_State_Penalty>
2.59896

> <r_epik_Charging_Adjusted_Penalty>
3.89105

> <i_epik_Tot_Q>
0

> <i_epik_Tot_abs_Q>
0

> <r_epik_Metal_State_Penalty>
3.62496

> <b_epik_Metal_Only>
0

> <s_lp_Force_Field>
OPLS_2005

> <r_lp_Energy>
42.837

> <b_lp_Chiralities_Consistent>
1

> <s_lp_Variant>
AV-unprocessed.smi:2784-12

> <Gold.Version>
5.8.1

> <Gold.Id.Protein>
6NUR|6NUR_protein|mol2

> <Gold.PLP.Fitness>
38.2869

> <Gold.PLP.PLP>
-31.7914

> <Gold.PLP.part.hbond>
-1.0000

> <Gold.PLP.part.metal>
0.0000

> <Gold.PLP.part.buried>
-4.5776

> <Gold.PLP.part.nonpolar>
-26.7608

> <Gold.PLP.part.repulsive>
0.5940

> <Gold.PLP.ligand.clash>
0.0000

> <Gold.PLP.ligand.torsion>
0.8326

> <Gold.PLP.Chemscore.Hbond>
0.7200

> <Gold.PLP.Chemscore.CHOScore>
1.9985

> <Gold.PLP.Chemscore.Metal>
0.0000

> <Gold.Chemscore.Hbonds>
donor molecule, donor type, donor heavy atom, donor atom, acceptor molecule, acceptor atom, score
      L1  H     8    28       P1  8028  0.64
      L1  C    14    30       P1  7957  1.00
      L1  C    15    31       P1 10175  1.00

> <Gold.PLP.Chemscore.Internal.Correction>
0.0052

> <Gold.Rescore>
     Score         DG    S(hbond)    S(metal)    S(lipo)     H(rot)  DE(clash)    DE(int)     intcor
     11.33     -14.99       0.88        0.00      85.02       1.32       0.34       3.32       ----

> <Gold.Chemscore.Fitness>
11.3273

> <Gold.Chemscore.DG>
-14.9883

> <Gold.Chemscore.ZeroCoef>
-5.4800

> <Gold.Chemscore.Hbond>
0.8829

> <Gold.Chemscore.Metal>
0.0000

> <Gold.Chemscore.Lipo>
85.0228

> <Gold.Chemscore.Internal_Hbond>
0.0000

> <Gold.Chemscore.DEClash>
0.3447

> <Gold.Chemscore.DEInternal>
3.3163

> <Gold.Chemscore.Rot>
1.3235

> <Gold.Chemscore.Internal.Correction>
   9.000000E+99

> <Gold.Chemscore.Hbonds>
donor molecule, donor type, donor heavy atom, donor atom, acceptor molecule, acceptor atom, score
      L1  H     8    28       P1  8028  0.41

> <Gold.Chemscore.Hbond.Weighted>
-2.9488

> <Gold.Chemscore.Metal.Weighted>
-0.0000

> <Gold.Chemscore.Lipo.Weighted>
-9.9477

> <Gold.Chemscore.Internal_Hbond.Weighted>
0.0000

> <Gold.Chemscore.DEClash.Weighted>
0.3447

> <Gold.Chemscore.DEInternal.Weighted>
3.3163

> <Gold.Chemscore.Rot.Weighted>
3.3882

> <Gold.Chemscore.Internal.Correction.Weighted>
   9.000000E+99

> <Gold.Protein.RotatedTorsions>
[ 6907 6896 6895 6894 ] final  -80.89 input  -60.11 | X-H torsion
[ 7974 7965 7964 7962 ] final  -77.20 input  175.53 | X-H torsion
[ 8008 7997 7996 7995 ] final   56.85 input   59.86 | X-H torsion
[ 10167 10162 10161 10158 ] final   16.75 input  -65.29 | X-H torsion
[ 10718 10713 10712 10709 ] final -113.50 input   66.30 | X-H torsion
[ 10763 10752 10751 10750 ] final  169.94 input  -60.55 | X-H torsion
[ 11005 11000 10999 10996 ] final  158.24 input  -57.11 | X-H torsion

> <Gold.Protein.ActiveResidues>
 VAL166  LYS551  ARG553  GLY616  TRP617  ASP618  TYR619  PRO620  LYS621  CYS622 
 ASP623  PHE694  ASN695  SER759  ASP760  ASP761  ALA762  ILE779  LEU786  VAL792 
 PHE793  MET794  SER795  GLU796  ALA797  LYS798  CYS799  TRP800  GLU811  SER814 

> <Gold.Protein.RotatedAtoms>
  150.6921  134.3901  159.5072 H   0  0  0  0  0  0  0  0  0  0  0  0  # atno 6907 bound_to 6896
  152.1690  134.8847  160.0545 H   0  0  0  0  0  0  0  0  0  0  0  0  # atno 6908 bound_to 6896
  151.9880  133.3746  159.4170 H   0  0  0  0  0  0  0  0  0  0  0  0  # atno 6909 bound_to 6896
  145.6028  140.9405  143.1231 H   0  0  0  0  0  0  0  0  0  0  0  0  # atno 7974 bound_to 7965
  155.5242  140.3480  155.4413 H   0  0  0  0  0  0  0  0  0  0  0  0  # atno 8008 bound_to 7997
  156.0763  140.1375  156.9794 H   0  0  0  0  0  0  0  0  0  0  0  0  # atno 8009 bound_to 7997
  154.4555  140.0955  156.6720 H   0  0  0  0  0  0  0  0  0  0  0  0  # atno 8010 bound_to 7997
  140.5775  143.9045  150.6762 H   0  0  0  0  0  0  0  0  0  0  0  0  # atno 10167 bound_to 10162
  156.0771  130.5976  150.8650 H   0  0  0  0  0  0  0  0  0  0  0  0  # atno 10718 bound_to 10713
  154.3904  135.2754  155.2158 H   0  0  0  0  0  0  0  0  0  0  0  0  # atno 10763 bound_to 10752
  154.4227  135.5996  153.6023 H   0  0  0  0  0  0  0  0  0  0  0  0  # atno 10764 bound_to 10752
  152.9832  135.5976  154.4158 H   0  0  0  0  0  0  0  0  0  0  0  0  # atno 10765 bound_to 10752
  140.1846  134.8451  157.2842 H   0  0  0  0  0  0  0  0  0  0  0  0  # atno 11005 bound_to 11000
  144.7302  139.7748  143.7350 LP  0  0  0  0  0  0  0  0  0  0  0  0  # atno 17320 bound_to 7965
  146.1563  139.4662  143.0016 LP  0  0  0  0  0  0  0  0  0  0  0  0  # atno 17321 bound_to 7965
  140.2536  143.3575  152.1384 LP  0  0  0  0  0  0  0  0  0  0  0  0  # atno 17342 bound_to 10162
  139.5151  144.6957  151.5636 LP  0  0  0  0  0  0  0  0  0  0  0  0  # atno 17343 bound_to 10162
  157.5871  131.0945  150.9179 LP  0  0  0  0  0  0  0  0  0  0  0  0  # atno 17370 bound_to 10713
  156.9363  130.5368  149.5279 LP  0  0  0  0  0  0  0  0  0  0  0  0  # atno 17371 bound_to 10713
  140.2228  134.4002  155.7557 LP  0  0  0  0  0  0  0  0  0  0  0  0  # atno 17394 bound_to 11000
  141.2224  133.7175  156.8518 LP  0  0  0  0  0  0  0  0  0  0  0  0  # atno 17395 bound_to 11000

$$$$
