AV-unprocessed.smi:311|AV-procd|sdf|2300|dock3
  -GOLD-   2262022203D 1   1.00000     0.00000
 Structure written by MMmdl.
 44 46  0  0  0  0  0  0  0  0  2 V2000
  148.2416  138.5038  157.7172 C   0  0  0  0  0  0  0  0  0  0  0  0
  149.5300  138.0215  158.3201 C   0  0  0  0  0  0  0  0  0  0  0  0
  149.5268  137.4831  159.5278 N   0  0  0  0  0  0  0  0  0  0  0  0
  150.8561  137.1468  159.8013 O   0  0  0  0  0  0  0  0  0  0  0  0
  151.6164  137.4978  158.7335 C   0  0  0  0  0  0  0  0  0  0  0  0
  153.0794  137.2263  158.8371 C   0  0  0  0  0  0  0  0  0  0  0  0
  150.8383  138.0589  157.7578 C   0  0  0  0  0  0  0  0  0  0  0  0
  151.2513  138.5963  156.4111 C   0  0  0  0  0  0  0  0  0  0  0  0
  151.3952  140.1169  156.4761 C   0  0  0  0  0  0  0  0  0  0  0  0
  151.1504  140.8022  155.4839 O   0  0  0  0  0  0  0  0  0  0  0  0
  151.8043  140.6309  157.6472 N   0  0  0  0  0  0  0  0  0  0  0  0
  151.9854  142.0524  157.9322 C   0  0  1  0  0  0  0  0  0  0  0  0
  150.6579  142.8342  157.9447 C   0  0  0  0  0  0  0  0  0  0  0  0
  150.7889  143.8003  159.1268 C   0  0  0  0  0  0  0  0  0  0  0  0
  151.5993  143.0386  160.0841 N   0  3  2  0  0  0  0  0  0  0  0  0
  152.1446  143.7399  161.2642 C   0  0  0  0  0  0  0  0  0  0  0  0
  152.7960  142.6945  162.1958 C   0  0  0  0  0  0  0  0  0  0  0  0
  153.8145  141.7994  161.4535 C   0  0  0  0  0  0  0  0  0  0  0  0
  153.2175  141.1999  160.1616 C   0  0  0  0  0  0  0  0  0  0  0  0
  152.6363  142.3393  159.3058 C   0  0  1  0  0  0  0  0  0  0  0  0
  148.3578  139.5027  157.2964 H   0  0  0  0  0  0  0  0  0  0  0  0
  147.4412  138.5489  158.4568 H   0  0  0  0  0  0  0  0  0  0  0  0
  147.9157  137.8416  156.9151 H   0  0  0  0  0  0  0  0  0  0  0  0
  153.5034  136.9954  157.8599 H   0  0  0  0  0  0  0  0  0  0  0  0
  153.2743  136.3798  159.4960 H   0  0  0  0  0  0  0  0  0  0  0  0
  153.6037  138.0945  159.2364 H   0  0  0  0  0  0  0  0  0  0  0  0
  152.1981  138.1678  156.0805 H   0  0  0  0  0  0  0  0  0  0  0  0
  150.5203  138.3386  155.6435 H   0  0  0  0  0  0  0  0  0  0  0  0
  151.9801  139.9869  158.4049 H   0  0  0  0  0  0  0  0  0  0  0  0
  152.6189  142.4893  157.1573 H   0  0  0  0  0  0  0  0  0  0  0  0
  150.4659  143.3511  157.0039 H   0  0  0  0  0  0  0  0  0  0  0  0
  149.8206  142.1578  158.1245 H   0  0  0  0  0  0  0  0  0  0  0  0
  151.3231  144.7037  158.8277 H   0  0  0  0  0  0  0  0  0  0  0  0
  149.8241  144.0890  159.5452 H   0  0  0  0  0  0  0  0  0  0  0  0
  152.8710  144.4923  160.9533 H   0  0  0  0  0  0  0  0  0  0  0  0
  151.3412  144.2604  161.7867 H   0  0  0  0  0  0  0  0  0  0  0  0
  153.2794  143.1926  163.0368 H   0  0  0  0  0  0  0  0  0  0  0  0
  152.0157  142.0631  162.6226 H   0  0  0  0  0  0  0  0  0  0  0  0
  154.6943  142.3925  161.2007 H   0  0  0  0  0  0  0  0  0  0  0  0
  154.1615  141.0021  162.1114 H   0  0  0  0  0  0  0  0  0  0  0  0
  153.9921  140.6635  159.6126 H   0  0  0  0  0  0  0  0  0  0  0  0
  152.4411  140.4747  160.4091 H   0  0  0  0  0  0  0  0  0  0  0  0
  153.4396  143.0547  159.1161 H   0  0  0  0  0  0  0  0  0  0  0  0
  150.9861  142.3187  160.4389 H   0  0  0  0  0  0  0  0  0  0  0  0
  1  2  1  0  0  0  0
  1 21  1  0  0  0  0
  1 22  1  0  0  0  0
  1 23  1  0  0  0  0
  2  7  1  0  0  0  0
  2  3  2  0  0  0  0
  3  4  1  0  0  0  0
  4  5  1  0  0  0  0
  5  6  1  0  0  0  0
  5  7  2  0  0  0  0
  6 24  1  0  0  0  0
  6 25  1  0  0  0  0
  6 26  1  0  0  0  0
  7  8  1  0  0  0  0
  8  9  1  0  0  0  0
  8 27  1  0  0  0  0
  8 28  1  0  0  0  0
  9 10  2  0  0  0  0
  9 11  1  0  0  0  0
 11 12  1  0  0  0  0
 11 29  1  0  0  0  0
 12 20  1  0  0  0  0
 12 13  1  0  0  0  0
 12 30  1  0  0  0  0
 13 14  1  0  0  0  0
 13 31  1  0  0  0  0
 13 32  1  0  0  0  0
 14 15  1  0  0  0  0
 14 33  1  0  0  0  0
 14 34  1  0  0  0  0
 15 20  1  0  0  0  0
 15 16  1  0  0  0  0
 15 44  1  0  0  0  0
 16 17  1  0  0  0  0
 16 35  1  0  0  0  0
 16 36  1  0  0  0  0
 17 18  1  0  0  0  0
 17 37  1  0  0  0  0
 17 38  1  0  0  0  0
 18 19  1  0  0  0  0
 18 39  1  0  0  0  0
 18 40  1  0  0  0  0
 19 20  1  0  0  0  0
 19 41  1  0  0  0  0
 19 42  1  0  0  0  0
 20 43  1  0  0  0  0
M  CHG  1  15   1
M  END
> <s_m_source_file>
AV-unprocessed.smi

> <i_m_source_file_index>
311

> <i_lp_mmshare_version>
43012

> <i_f3d_flags>
0

> <s_epik_input>
W0NIM11jMW5vYyhbQ0gzXSljMVtDSDJdQyg9TylbTkhdW0NASF0oW0NIMl1bQ0gyXTIpW0NAQEhdKE4yMylbQ0gyXVtDSDJdW0NIMl1bQ0gyXTM=

> <s_epik_cmdline>
J2VwaWtfcHl0aG9uJywgJy1waCcsICc3LjAnLCAnLXRuJywgJzgnLCAnLW1hJywgJzIwMCcsICctbWV0YWxfYmluZGluZycsICctaW1hZScsICc8aW5maWxlLm1hZT4nLCAnLW9tYWUnLCAnPG91dGZpbGUubWFlPic=

> <r_epik_Ionization_Penalty>
0.00173669

> <r_epik_Ionization_Penalty_Charging>
0.0017366

> <r_epik_Ionization_Penalty_Neutral>
9.2145e-08

> <r_epik_State_Penalty>
0.00117499

> <r_epik_Charging_Adjusted_Penalty>
0.00291159

> <i_epik_Tot_Q>
1

> <i_epik_Tot_abs_Q>
1

> <r_epik_Metal_State_Penalty>
-0

> <b_epik_Metal_Only>
0

> <s_lp_Force_Field>
OPLS_2005

> <r_lp_Energy>
35.4626

> <b_lp_Chiralities_Consistent>
1

> <s_lp_Variant>
AV-unprocessed.smi:311-4

> <Gold.Version>
5.8.1

> <Gold.Id.Protein>
6NUR|6NUR_protein|mol2

> <Gold.PLP.Fitness>
39.9741

> <Gold.PLP.PLP>
-36.2833

> <Gold.PLP.part.hbond>
-3.0507

> <Gold.PLP.part.metal>
0.0000

> <Gold.PLP.part.buried>
-6.0484

> <Gold.PLP.part.nonpolar>
-26.9530

> <Gold.PLP.part.repulsive>
0.2147

> <Gold.PLP.ligand.clash>
0.0117

> <Gold.PLP.ligand.torsion>
0.7291

> <Gold.PLP.Chemscore.Hbond>
1.7200

> <Gold.PLP.Chemscore.CHOScore>
0.0000

> <Gold.PLP.Chemscore.Metal>
0.0000

> <Gold.Chemscore.Hbonds>
donor molecule, donor type, donor heavy atom, donor atom, acceptor molecule, acceptor atom, score
      P1  H  6896  6907       L1     4  0.94
      P1  H  7989  7998       L1    10  0.76

> <Gold.PLP.Chemscore.Internal.Correction>
0.0006

> <Gold.Rescore>
     Score         DG    S(hbond)    S(metal)    S(lipo)     H(rot)  DE(clash)    DE(int)     intcor
     17.06     -17.91       1.37        0.00      96.89       1.36       0.08       0.77       ----

> <Gold.Chemscore.Fitness>
17.0634

> <Gold.Chemscore.DG>
-17.9102

> <Gold.Chemscore.ZeroCoef>
-5.4800

> <Gold.Chemscore.Hbond>
1.3673

> <Gold.Chemscore.Metal>
0.0000

> <Gold.Chemscore.Lipo>
96.8935

> <Gold.Chemscore.Internal_Hbond>
0.0000

> <Gold.Chemscore.DEClash>
0.0797

> <Gold.Chemscore.DEInternal>
0.7670

> <Gold.Chemscore.Rot>
1.3567

> <Gold.Chemscore.Internal.Correction>
   9.000000E+99

> <Gold.Chemscore.Hbonds>
donor molecule, donor type, donor heavy atom, donor atom, acceptor molecule, acceptor atom, score
      P1  H  6896  6907       L1     4  0.22
      P1  H  7989  7998       L1    10  0.70

> <Gold.Chemscore.Hbond.Weighted>
-4.5667

> <Gold.Chemscore.Metal.Weighted>
-0.0000

> <Gold.Chemscore.Lipo.Weighted>
-11.3365

> <Gold.Chemscore.Internal_Hbond.Weighted>
0.0000

> <Gold.Chemscore.DEClash.Weighted>
0.0797

> <Gold.Chemscore.DEInternal.Weighted>
0.7670

> <Gold.Chemscore.Rot.Weighted>
3.4731

> <Gold.Chemscore.Internal.Correction.Weighted>
   9.000000E+99

> <Gold.Protein.RotatedTorsions>
[ 6907 6896 6895 6894 ] final  -16.73 input  -60.11 | X-H torsion
[ 7974 7965 7964 7962 ] final  -49.87 input  175.53 | X-H torsion
[ 8008 7997 7996 7995 ] final   97.13 input   59.86 | X-H torsion
[ 10167 10162 10161 10158 ] final  -15.44 input  -65.29 | X-H torsion
[ 10718 10713 10712 10709 ] final  -65.53 input   66.30 | X-H torsion
[ 10763 10752 10751 10750 ] final  -12.58 input  -60.55 | X-H torsion
[ 11005 11000 10999 10996 ] final  -27.58 input  -57.11 | X-H torsion

> <Gold.Protein.ActiveResidues>
 VAL166  LYS551  ARG553  GLY616  TRP617  ASP618  TYR619  PRO620  LYS621  CYS622 
 ASP623  PHE694  ASN695  SER759  ASP760  ASP761  ALA762  ILE779  LEU786  VAL792 
 PHE793  MET794  SER795  GLU796  ALA797  LYS798  CYS799  TRP800  GLU811  SER814 

> <Gold.Protein.RotatedAtoms>
  151.3041  135.0777  159.9248 H   0  0  0  0  0  0  0  0  0  0  0  0  # atno 6907 bound_to 6896
  152.5291  133.9803  159.7813 H   0  0  0  0  0  0  0  0  0  0  0  0  # atno 6908 bound_to 6896
  151.0094  133.5928  159.2715 H   0  0  0  0  0  0  0  0  0  0  0  0  # atno 6909 bound_to 6896
  145.9359  140.7707  142.9576 H   0  0  0  0  0  0  0  0  0  0  0  0  # atno 7974 bound_to 7965
  156.0869  140.3263  155.7765 H   0  0  0  0  0  0  0  0  0  0  0  0  # atno 8008 bound_to 7997
  155.5061  140.0573  157.2948 H   0  0  0  0  0  0  0  0  0  0  0  0  # atno 8009 bound_to 7997
  154.4614  140.1968  156.0250 H   0  0  0  0  0  0  0  0  0  0  0  0  # atno 8010 bound_to 7997
  140.7218  143.5218  150.9624 H   0  0  0  0  0  0  0  0  0  0  0  0  # atno 10167 bound_to 10162
  156.0664  130.4248  150.1577 H   0  0  0  0  0  0  0  0  0  0  0  0  # atno 10718 bound_to 10713
  153.5005  135.7017  153.5834 H   0  0  0  0  0  0  0  0  0  0  0  0  # atno 10763 bound_to 10752
  153.3968  135.3882  155.1960 H   0  0  0  0  0  0  0  0  0  0  0  0  # atno 10764 bound_to 10752
  154.8711  135.3871  154.4475 H   0  0  0  0  0  0  0  0  0  0  0  0  # atno 10765 bound_to 10752
  140.9132  133.7447  156.0698 H   0  0  0  0  0  0  0  0  0  0  0  0  # atno 11005 bound_to 11000
  144.6771  140.2202  143.7367 LP  0  0  0  0  0  0  0  0  0  0  0  0  # atno 17320 bound_to 7965
  145.8364  139.2109  143.1853 LP  0  0  0  0  0  0  0  0  0  0  0  0  # atno 17321 bound_to 7965
  139.8936  143.6923  152.3142 LP  0  0  0  0  0  0  0  0  0  0  0  0  # atno 17342 bound_to 10162
  139.7247  144.7595  151.0897 LP  0  0  0  0  0  0  0  0  0  0  0  0  # atno 17343 bound_to 10162
  156.9636  130.9812  151.3474 LP  0  0  0  0  0  0  0  0  0  0  0  0  # atno 17370 bound_to 10713
  157.5709  130.8309  149.8390 LP  0  0  0  0  0  0  0  0  0  0  0  0  # atno 17371 bound_to 10713
  140.8084  134.3428  157.5419 LP  0  0  0  0  0  0  0  0  0  0  0  0  # atno 17394 bound_to 11000
  139.8761  134.9239  156.3337 LP  0  0  0  0  0  0  0  0  0  0  0  0  # atno 17395 bound_to 11000

$$$$
