AV-unprocessed.smi:1799|AV-procd|sdf|7261|dock1
  -GOLD-   22720 8513D 1   1.00000     0.00000
 Structure written by MMmdl.
 41 42  0  0  0  0  0  0  0  0  2 V2000
  146.7877  137.5162  154.0201 C   0  0  0  0  0  0  0  0  0  0  0  0
  147.6553  138.7731  153.7898 C   0  0  0  0  0  0  0  0  0  0  0  0
  147.0980  139.4670  152.5315 C   0  0  0  0  0  0  0  0  0  0  0  0
  147.5645  139.7764  154.9667 C   0  0  0  0  0  0  0  0  0  0  0  0
  148.4199  139.4213  156.1987 C   0  0  0  0  0  0  0  0  0  0  0  0
  147.8549  138.3536  157.0216 N   0  0  0  0  0  0  0  0  0  0  0  0
  148.1882  138.0910  158.2939 C   0  0  0  0  0  0  0  0  0  0  0  0
  149.0300  138.7345  158.9201 O   0  0  0  0  0  0  0  0  0  0  0  0
  147.4848  137.0517  158.7764 N   0  0  0  0  0  0  0  0  0  0  0  0
  147.5123  136.5046  160.0866 C   0  0  0  0  0  0  0  0  0  0  0  0
  147.8813  137.1983  161.1749 N   0  0  0  0  0  0  0  0  0  0  0  0
  147.8102  136.4300  162.3295 N   0  0  0  0  0  0  0  0  0  0  0  0
  147.3905  135.1889  162.0673 C   0  0  0  0  0  0  0  0  0  0  0  0
  147.0418  134.8371  160.3833 S   0  0  0  0  0  0  0  0  0  0  0  0
  149.8654  139.1178  155.7719 C   0  0  0  0  0  0  0  0  0  0  0  0
  150.0119  138.1049  154.6063 C   0  0  0  0  0  0  0  0  0  0  0  0
  151.4358  138.2424  154.0325 C   0  0  0  0  0  0  0  0  0  0  0  0
  149.8668  136.6413  155.0786 C   0  0  0  0  0  0  0  0  0  0  0  0
  149.0715  138.4173  153.4927 N   0  3  0  0  0  0  0  0  0  0  0  0
  145.7310  137.7806  154.0736 H   0  0  0  0  0  0  0  0  0  0  0  0
  147.0110  136.9921  154.9433 H   0  0  0  0  0  0  0  0  0  0  0  0
  146.9001  136.8019  153.2036 H   0  0  0  0  0  0  0  0  0  0  0  0
  146.0622  139.7780  152.6744 H   0  0  0  0  0  0  0  0  0  0  0  0
  147.1238  138.8054  151.6646 H   0  0  0  0  0  0  0  0  0  0  0  0
  147.6722  140.3585  152.2758 H   0  0  0  0  0  0  0  0  0  0  0  0
  147.9106  140.7501  154.6163 H   0  0  0  0  0  0  0  0  0  0  0  0
  146.5227  139.9341  155.2487 H   0  0  0  0  0  0  0  0  0  0  0  0
  148.4582  140.3047  156.8390 H   0  0  0  0  0  0  0  0  0  0  0  0
  147.1596  137.7651  156.5862 H   0  0  0  0  0  0  0  0  0  0  0  0
  146.8409  136.6090  158.1378 H   0  0  0  0  0  0  0  0  0  0  0  0
  147.2853  134.4759  162.8715 H   0  0  0  0  0  0  0  0  0  0  0  0
  150.3074  140.0663  155.4624 H   0  0  0  0  0  0  0  0  0  0  0  0
  150.4534  138.7960  156.6329 H   0  0  0  0  0  0  0  0  0  0  0  0
  152.1939  138.0466  154.7922 H   0  0  0  0  0  0  0  0  0  0  0  0
  151.6171  139.2452  153.6435 H   0  0  0  0  0  0  0  0  0  0  0  0
  151.6060  137.5426  153.2130 H   0  0  0  0  0  0  0  0  0  0  0  0
  150.6680  136.3762  155.7694 H   0  0  0  0  0  0  0  0  0  0  0  0
  149.9229  135.9467  154.2396 H   0  0  0  0  0  0  0  0  0  0  0  0
  148.9398  136.4398  155.6046 H   0  0  0  0  0  0  0  0  0  0  0  0
  149.0870  137.6581  152.8267 H   0  0  0  0  0  0  0  0  0  0  0  0
  149.4600  139.2305  153.0367 H   0  0  0  0  0  0  0  0  0  0  0  0
  1  2  1  0  0  0  0
  1 20  1  0  0  0  0
  1 21  1  0  0  0  0
  1 22  1  0  0  0  0
  2 19  1  0  0  0  0
  2  3  1  0  0  0  0
  2  4  1  0  0  0  0
  3 23  1  0  0  0  0
  3 24  1  0  0  0  0
  3 25  1  0  0  0  0
  4  5  1  0  0  0  0
  4 26  1  0  0  0  0
  4 27  1  0  0  0  0
  5  6  1  0  0  0  0
  5 15  1  0  0  0  0
  5 28  1  0  0  0  0
  6  7  1  0  0  0  0
  6 29  1  0  0  0  0
  7  8  2  0  0  0  0
  7  9  1  0  0  0  0
  9 10  1  0  0  0  0
  9 30  1  0  0  0  0
 10 14  1  0  0  0  0
 10 11  2  0  0  0  0
 11 12  1  0  0  0  0
 12 13  2  0  0  0  0
 13 14  1  0  0  0  0
 13 31  1  0  0  0  0
 15 16  1  0  0  0  0
 15 32  1  0  0  0  0
 15 33  1  0  0  0  0
 16 17  1  0  0  0  0
 16 18  1  0  0  0  0
 16 19  1  0  0  0  0
 17 34  1  0  0  0  0
 17 35  1  0  0  0  0
 17 36  1  0  0  0  0
 18 37  1  0  0  0  0
 18 38  1  0  0  0  0
 18 39  1  0  0  0  0
 19 40  1  0  0  0  0
 19 41  1  0  0  0  0
M  CHG  1  19   1
M  END
> <s_m_source_file>
AV-unprocessed.smi

> <i_m_source_file_index>
1799

> <i_lp_mmshare_version>
43012

> <i_f3d_flags>
0

> <s_epik_input>
W0NIM11DMShbQ0gzXSlbQ0gyXVtDSF0oW0NIMl1DKFtDSDNdKShbQ0gzXSlbTkhdMSlbTkhdQyg9TylbTkhdYzJubltjSF1zMg==

> <s_epik_cmdline>
J2VwaWtfcHl0aG9uJywgJy1waCcsICc3LjAnLCAnLXRuJywgJzgnLCAnLW1hJywgJzIwMCcsICctbWV0YWxfYmluZGluZycsICctaW1hZScsICc8aW5maWxlLm1hZT4nLCAnLW9tYWUnLCAnPG91dGZpbGUubWFlPic=

> <r_lp_tautomer_probability>
1

> <r_epik_Ionization_Penalty>
0.000698711

> <r_epik_Ionization_Penalty_Charging>
0.000101406

> <r_epik_Ionization_Penalty_Neutral>
0.000597305

> <r_epik_State_Penalty>
-0

> <r_epik_Charging_Adjusted_Penalty>
0.000101406

> <i_epik_Tot_Q>
1

> <i_epik_Tot_abs_Q>
1

> <r_epik_Metal_State_Penalty>
0.237927

> <b_epik_Metal_Only>
0

> <s_lp_Force_Field>
OPLS_2005

> <r_lp_Energy>
25.55

> <b_lp_Chiralities_Consistent>
1

> <s_lp_Variant>
AV-unprocessed.smi:1799-1

> <Gold.Version>
5.8.1

> <Gold.Id.Protein>
6NUR|6NUR_protein|mol2

> <Gold.PLP.Fitness>
34.2357

> <Gold.PLP.PLP>
-22.4717

> <Gold.PLP.part.hbond>
-6.2175

> <Gold.PLP.part.metal>
0.0000

> <Gold.PLP.part.buried>
-0.9744

> <Gold.PLP.part.nonpolar>
-15.3529

> <Gold.PLP.part.repulsive>
0.1973

> <Gold.PLP.ligand.clash>
0.0000

> <Gold.PLP.ligand.torsion>
0.3212

> <Gold.PLP.Chemscore.Hbond>
4.1291

> <Gold.PLP.Chemscore.CHOScore>
0.0000

> <Gold.PLP.Chemscore.Metal>
0.0000

> <Gold.Chemscore.Hbonds>
donor molecule, donor type, donor heavy atom, donor atom, acceptor molecule, acceptor atom, score
      L1  H    19    40       P1  7948  2.00
      L1  H    19    41       P1  7957  0.76
      P1  H  6931  6943       L1    11  0.54
      P1  H  6934  6947       L1    11  0.77

> <Gold.PLP.Chemscore.Internal.Correction>
0.0190

> <Gold.Rescore>
     Score         DG    S(hbond)    S(metal)    S(lipo)     H(rot)  DE(clash)    DE(int)     intcor
     16.98     -18.80       2.75        0.00      57.06       1.00       0.35       1.47       ----

> <Gold.Chemscore.Fitness>
16.9807

> <Gold.Chemscore.DG>
-18.7976

> <Gold.Chemscore.ZeroCoef>
-5.4800

> <Gold.Chemscore.Hbond>
2.7548

> <Gold.Chemscore.Metal>
0.0000

> <Gold.Chemscore.Lipo>
57.0648

> <Gold.Chemscore.Internal_Hbond>
0.0000

> <Gold.Chemscore.DEClash>
0.3468

> <Gold.Chemscore.DEInternal>
1.4701

> <Gold.Chemscore.Rot>
1.0000

> <Gold.Chemscore.Internal.Correction>
   9.000000E+99

> <Gold.Chemscore.Hbonds>
donor molecule, donor type, donor heavy atom, donor atom, acceptor molecule, acceptor atom, score
      L1  H    19    40       P1  7948  1.00
      L1  H    19    41       P1  7957  0.71
      P1  H  6931  6943       L1    11  0.03
      P1  H  6934  6947       L1    11  0.45

> <Gold.Chemscore.Hbond.Weighted>
-9.2010

> <Gold.Chemscore.Metal.Weighted>
-0.0000

> <Gold.Chemscore.Lipo.Weighted>
-6.6766

> <Gold.Chemscore.Internal_Hbond.Weighted>
0.0000

> <Gold.Chemscore.DEClash.Weighted>
0.3468

> <Gold.Chemscore.DEInternal.Weighted>
1.4701

> <Gold.Chemscore.Rot.Weighted>
2.5600

> <Gold.Chemscore.Internal.Correction.Weighted>
   9.000000E+99

> <Gold.Protein.RotatedTorsions>
[ 6907 6896 6895 6894 ] final  157.39 input  -60.11 | X-H torsion
[ 7974 7965 7964 7962 ] final -175.95 input  175.53 | X-H torsion
[ 8008 7997 7996 7995 ] final -135.31 input   59.86 | X-H torsion
[ 10167 10162 10161 10158 ] final   69.73 input  -65.29 | X-H torsion
[ 10718 10713 10712 10709 ] final -165.70 input   66.30 | X-H torsion
[ 10763 10752 10751 10750 ] final -163.63 input  -60.55 | X-H torsion
[ 11005 11000 10999 10996 ] final  -52.17 input  -57.11 | X-H torsion

> <Gold.Protein.ActiveResidues>
 VAL166  LYS551  ARG553  GLY616  TRP617  ASP618  TYR619  PRO620  LYS621  CYS622 
 ASP623  PHE694  ASN695  SER759  ASP760  ASP761  ALA762  ILE779  LEU786  VAL792 
 PHE793  MET794  SER795  GLU796  ALA797  LYS798  CYS799  TRP800  GLU811  SER814 

> <Gold.Protein.RotatedAtoms>
  152.0158  133.3879  159.4237 H   0  0  0  0  0  0  0  0  0  0  0  0  # atno 6907 bound_to 6896
  150.6895  134.3681  159.4989 H   0  0  0  0  0  0  0  0  0  0  0  0  # atno 6908 bound_to 6896
  152.1448  134.9034  160.0602 H   0  0  0  0  0  0  0  0  0  0  0  0  # atno 6909 bound_to 6896
  144.7127  140.1244  143.6403 H   0  0  0  0  0  0  0  0  0  0  0  0  # atno 7974 bound_to 7965
  155.3766  140.0491  157.3044 H   0  0  0  0  0  0  0  0  0  0  0  0  # atno 8008 bound_to 7997
  154.5103  140.2189  155.9131 H   0  0  0  0  0  0  0  0  0  0  0  0  # atno 8009 bound_to 7997
  156.1575  140.3123  155.8756 H   0  0  0  0  0  0  0  0  0  0  0  0  # atno 8010 bound_to 7997
  140.0646  144.5204  150.7270 H   0  0  0  0  0  0  0  0  0  0  0  0  # atno 10167 bound_to 10162
  156.6572  130.9031  151.3023 H   0  0  0  0  0  0  0  0  0  0  0  0  # atno 10718 bound_to 10713
  154.7104  135.3005  154.9205 H   0  0  0  0  0  0  0  0  0  0  0  0  # atno 10763 bound_to 10752
  154.0109  135.6695  153.4769 H   0  0  0  0  0  0  0  0  0  0  0  0  # atno 10764 bound_to 10752
  153.0751  135.5039  154.8300 H   0  0  0  0  0  0  0  0  0  0  0  0  # atno 10765 bound_to 10752
  141.0910  133.6633  156.3985 H   0  0  0  0  0  0  0  0  0  0  0  0  # atno 11005 bound_to 11000
  145.9342  139.2626  143.1307 LP  0  0  0  0  0  0  0  0  0  0  0  0  # atno 17320 bound_to 7965
  145.9491  140.8922  143.0268 LP  0  0  0  0  0  0  0  0  0  0  0  0  # atno 17321 bound_to 7965
  140.7155  143.2541  151.4447 LP  0  0  0  0  0  0  0  0  0  0  0  0  # atno 17342 bound_to 10162
  139.5873  144.1577  152.2044 LP  0  0  0  0  0  0  0  0  0  0  0  0  # atno 17343 bound_to 10162
  157.7121  130.9453  150.1127 LP  0  0  0  0  0  0  0  0  0  0  0  0  # atno 17370 bound_to 10713
  156.2038  130.3662  149.8754 LP  0  0  0  0  0  0  0  0  0  0  0  0  # atno 17371 bound_to 10713
  140.5251  134.6266  157.5331 LP  0  0  0  0  0  0  0  0  0  0  0  0  # atno 17394 bound_to 11000
  139.9736  134.7252  155.9993 LP  0  0  0  0  0  0  0  0  0  0  0  0  # atno 17395 bound_to 11000

$$$$
