AV-unprocessed.smi:2822|AV-procd|sdf|10867|dock3
  -GOLD-   2272015313D 1   1.00000     0.00000
 Structure written by MMmdl.
 41 43  0  0  0  0  0  0  0  0  3 V2000
  146.4443  131.4813  148.7060 Cl  0  0  0  0  0  0  0  0  0  0  0  0
  145.3461  132.2182  149.8196 C   0  0  0  0  0  0  0  0  0  0  0  0
  144.0997  132.6835  149.3520 C   0  0  0  0  0  0  0  0  0  0  0  0
  143.2302  133.2612  150.2076 N   0  3  0  0  0  0  0  0  0  0  0  0
  143.4969  133.4207  151.5211 C   0  0  0  0  0  0  0  0  0  0  0  0
  144.7262  132.9755  152.0484 C   0  0  0  0  0  0  0  0  0  0  0  0
  145.6741  132.3630  151.1905 C   0  0  0  0  0  0  0  0  0  0  0  0
  146.9178  131.9027  151.6505 N   0  0  0  0  0  0  0  0  0  0  0  0
  147.2496  131.9086  153.0674 C   0  0  0  0  0  0  0  0  0  0  0  0
  148.2014  133.0614  153.4187 C   0  0  1  0  0  0  0  0  0  0  0  0
  147.4490  134.2539  154.0379 C   0  0  0  0  0  0  0  0  0  0  0  0
  148.3973  135.3218  154.4321 N   0  3  1  0  0  0  0  0  0  0  0  0
  147.7099  136.5098  154.9991 C   0  0  0  0  0  0  0  0  0  0  0  0
  148.7119  137.6336  155.3094 C   0  0  0  0  0  0  0  0  0  0  0  0
  149.8183  137.1355  156.2480 C   0  0  0  0  0  0  0  0  0  0  0  0
  150.4926  135.8921  155.6528 C   0  0  0  0  0  0  0  0  0  0  0  0
  149.4589  134.7942  155.3321 C   0  0  2  0  0  0  0  0  0  0  0  0
  150.1287  133.5630  154.6910 C   0  0  0  0  0  0  0  0  0  0  0  0
  149.1452  132.5865  154.3728 O   0  0  0  0  0  0  0  0  0  0  0  0
  143.7744  132.6110  148.3245 H   0  0  0  0  0  0  0  0  0  0  0  0
  142.7245  133.8970  152.1073 H   0  0  0  0  0  0  0  0  0  0  0  0
  144.9211  133.1142  153.1014 H   0  0  0  0  0  0  0  0  0  0  0  0
  147.5094  131.3792  151.0199 H   0  0  0  0  0  0  0  0  0  0  0  0
  146.3264  132.0172  153.6380 H   0  0  0  0  0  0  0  0  0  0  0  0
  147.6958  130.9534  153.3471 H   0  0  0  0  0  0  0  0  0  0  0  0
  148.7194  133.3879  152.5143 H   0  0  0  0  0  0  0  0  0  0  0  0
  146.7311  134.6533  153.3203 H   0  0  0  0  0  0  0  0  0  0  0  0
  146.8816  133.9290  154.9117 H   0  0  0  0  0  0  0  0  0  0  0  0
  146.9631  136.8723  154.2916 H   0  0  0  0  0  0  0  0  0  0  0  0
  147.1754  136.2245  155.9065 H   0  0  0  0  0  0  0  0  0  0  0  0
  149.1540  137.9985  154.3812 H   0  0  0  0  0  0  0  0  0  0  0  0
  148.1944  138.4810  155.7602 H   0  0  0  0  0  0  0  0  0  0  0  0
  150.5555  137.9218  156.4133 H   0  0  0  0  0  0  0  0  0  0  0  0
  149.3940  136.8946  157.2237 H   0  0  0  0  0  0  0  0  0  0  0  0
  151.0307  136.1707  154.7455 H   0  0  0  0  0  0  0  0  0  0  0  0
  151.2401  135.5111  156.3497 H   0  0  0  0  0  0  0  0  0  0  0  0
  148.9852  134.4788  156.2636 H   0  0  0  0  0  0  0  0  0  0  0  0
  150.6847  133.8388  153.7931 H   0  0  0  0  0  0  0  0  0  0  0  0
  150.8456  133.1216  155.3840 H   0  0  0  0  0  0  0  0  0  0  0  0
  148.8587  135.6282  153.5875 H   0  0  0  0  0  0  0  0  0  0  0  0
  142.3346  133.5908  149.8463 H   0  0  0  0  0  0  0  0  0  0  0  0
  1  2  1  0  0  0  0
  2  7  1  0  0  0  0
  2  3  2  0  0  0  0
  3  4  1  0  0  0  0
  3 20  1  0  0  0  0
  4  5  2  0  0  0  0
  4 41  1  0  0  0  0
  5  6  1  0  0  0  0
  5 21  1  0  0  0  0
  6  7  2  0  0  0  0
  6 22  1  0  0  0  0
  7  8  1  0  0  0  0
  8  9  1  0  0  0  0
  8 23  1  0  0  0  0
  9 10  1  0  0  0  0
  9 24  1  0  0  0  0
  9 25  1  0  0  0  0
 10 19  1  0  0  0  0
 10 11  1  0  0  0  0
 10 26  1  0  0  0  0
 11 12  1  0  0  0  0
 11 27  1  0  0  0  0
 11 28  1  0  0  0  0
 12 17  1  0  0  0  0
 12 13  1  0  0  0  0
 12 40  1  0  0  0  0
 13 14  1  0  0  0  0
 13 29  1  0  0  0  0
 13 30  1  0  0  0  0
 14 15  1  0  0  0  0
 14 31  1  0  0  0  0
 14 32  1  0  0  0  0
 15 16  1  0  0  0  0
 15 33  1  0  0  0  0
 15 34  1  0  0  0  0
 16 17  1  0  0  0  0
 16 35  1  0  0  0  0
 16 36  1  0  0  0  0
 17 18  1  0  0  0  0
 17 37  1  0  0  0  0
 18 19  1  0  0  0  0
 18 38  1  0  0  0  0
 18 39  1  0  0  0  0
M  CHG  1   4   1
M  CHG  1  12   1
M  END
> <s_m_source_file>
AV-unprocessed.smi

> <i_m_source_file_index>
2822

> <i_lp_mmshare_version>
43012

> <i_f3d_flags>
0

> <s_epik_input>
Q2xjMVtjSF1uW2NIXVtjSF1jMVtOSF1bQ0gyXVtDQEhdKFtDSDJdMilPW0NIMl1bQ0BASF0oTjIzKVtDSDJdW0NIMl1bQ0gyXVtDSDJdMw==

> <s_epik_cmdline>
J2VwaWtfcHl0aG9uJywgJy1waCcsICc3LjAnLCAnLXRuJywgJzgnLCAnLW1hJywgJzIwMCcsICctbWV0YWxfYmluZGluZycsICctaW1hZScsICc8aW5maWxlLm1hZT4nLCAnLW9tYWUnLCAnPG91dGZpbGUubWFlPic=

> <r_lp_tautomer_probability>
1

> <r_epik_Ionization_Penalty>
0.254999

> <r_epik_Ionization_Penalty_Charging>
0.254956

> <r_epik_Ionization_Penalty_Neutral>
4.33524e-05

> <r_epik_State_Penalty>
0.230978

> <r_epik_Charging_Adjusted_Penalty>
0.485934

> <i_epik_Tot_Q>
2

> <i_epik_Tot_abs_Q>
2

> <r_epik_Metal_State_Penalty>
3.47007

> <b_epik_Metal_Only>
0

> <s_lp_Force_Field>
OPLS_2005

> <r_lp_Energy>
36.8988

> <b_lp_Chiralities_Consistent>
1

> <s_lp_Variant>
AV-unprocessed.smi:2822-8

> <Gold.Version>
5.8.1

> <Gold.Id.Protein>
6NUR|6NUR_protein|mol2

> <Gold.PLP.Fitness>
46.1620

> <Gold.PLP.PLP>
-32.4972

> <Gold.PLP.part.hbond>
-3.0000

> <Gold.PLP.part.metal>
0.0000

> <Gold.PLP.part.buried>
-4.3422

> <Gold.PLP.part.nonpolar>
-24.9512

> <Gold.PLP.part.repulsive>
0.1206

> <Gold.PLP.ligand.clash>
0.0000

> <Gold.PLP.ligand.torsion>
0.6683

> <Gold.PLP.Chemscore.Hbond>
5.0000

> <Gold.PLP.Chemscore.CHOScore>
0.0000

> <Gold.PLP.Chemscore.Metal>
0.0000

> <Gold.Chemscore.Hbonds>
donor molecule, donor type, donor heavy atom, donor atom, acceptor molecule, acceptor atom, score
      L1  H     4    41       P1 10186  2.00
      L1  H     8    23       P1 10747  1.00
      L1  H    12    40       P1  7948  2.00

> <Gold.PLP.Chemscore.Internal.Correction>
0.0015

> <Gold.Rescore>
     Score         DG    S(hbond)    S(metal)    S(lipo)     H(rot)  DE(clash)    DE(int)     intcor
     22.04     -22.67       2.92        0.00      89.81       1.20       0.06       0.57       ----

> <Gold.Chemscore.Fitness>
22.0417

> <Gold.Chemscore.DG>
-22.6729

> <Gold.Chemscore.ZeroCoef>
-5.4800

> <Gold.Chemscore.Hbond>
2.9183

> <Gold.Chemscore.Metal>
0.0000

> <Gold.Chemscore.Lipo>
89.8132

> <Gold.Chemscore.Internal_Hbond>
0.0000

> <Gold.Chemscore.DEClash>
0.0586

> <Gold.Chemscore.DEInternal>
0.5726

> <Gold.Chemscore.Rot>
1.1962

> <Gold.Chemscore.Internal.Correction>
   9.000000E+99

> <Gold.Chemscore.Hbonds>
donor molecule, donor type, donor heavy atom, donor atom, acceptor molecule, acceptor atom, score
      L1  H     4    41       P1 10186  0.98
      L1  H     8    23       P1 10747  0.99
      L1  H    12    40       P1  7948  0.92

> <Gold.Chemscore.Hbond.Weighted>
-9.7470

> <Gold.Chemscore.Metal.Weighted>
-0.0000

> <Gold.Chemscore.Lipo.Weighted>
-10.5081

> <Gold.Chemscore.Internal_Hbond.Weighted>
0.0000

> <Gold.Chemscore.DEClash.Weighted>
0.0586

> <Gold.Chemscore.DEInternal.Weighted>
0.5726

> <Gold.Chemscore.Rot.Weighted>
3.0623

> <Gold.Chemscore.Internal.Correction.Weighted>
   9.000000E+99

> <Gold.Protein.RotatedTorsions>
[ 6907 6896 6895 6894 ] final -169.05 input  -60.11 | X-H torsion
[ 7974 7965 7964 7962 ] final  144.20 input  175.53 | X-H torsion
[ 8008 7997 7996 7995 ] final  -10.24 input   59.86 | X-H torsion
[ 10167 10162 10161 10158 ] final -118.59 input  -65.29 | X-H torsion
[ 10718 10713 10712 10709 ] final  169.69 input   66.30 | X-H torsion
[ 10763 10752 10751 10750 ] final  177.12 input  -60.55 | X-H torsion
[ 11005 11000 10999 10996 ] final -103.11 input  -57.11 | X-H torsion

> <Gold.Protein.ActiveResidues>
 VAL166  LYS551  ARG553  GLY616  TRP617  ASP618  TYR619  PRO620  LYS621  CYS622 
 ASP623  PHE694  ASN695  SER759  ASP760  ASP761  ALA762  ILE779  LEU786  VAL792 
 PHE793  MET794  SER795  GLU796  ALA797  LYS798  CYS799  TRP800  GLU811  SER814 

> <Gold.Protein.RotatedAtoms>
  151.4854  133.3537  159.2844 H   0  0  0  0  0  0  0  0  0  0  0  0  # atno 6907 bound_to 6896
  150.8870  134.8270  159.7277 H   0  0  0  0  0  0  0  0  0  0  0  0  # atno 6908 bound_to 6896
  152.4799  134.4759  159.9702 H   0  0  0  0  0  0  0  0  0  0  0  0  # atno 6909 bound_to 6896
  144.8856  139.5634  143.5822 H   0  0  0  0  0  0  0  0  0  0  0  0  # atno 7974 bound_to 7965
  154.5572  140.2334  155.8391 H   0  0  0  0  0  0  0  0  0  0  0  0  # atno 8008 bound_to 7997
  156.1999  140.3055  155.9464 H   0  0  0  0  0  0  0  0  0  0  0  0  # atno 8009 bound_to 7997
  155.2957  140.0429  157.3016 H   0  0  0  0  0  0  0  0  0  0  0  0  # atno 8010 bound_to 7997
  140.0558  143.5015  152.2058 H   0  0  0  0  0  0  0  0  0  0  0  0  # atno 10167 bound_to 10162
  157.0190  131.0226  151.2780 H   0  0  0  0  0  0  0  0  0  0  0  0  # atno 10718 bound_to 10713
  154.4902  135.2778  155.1503 H   0  0  0  0  0  0  0  0  0  0  0  0  # atno 10763 bound_to 10752
  154.3177  135.6216  153.5497 H   0  0  0  0  0  0  0  0  0  0  0  0  # atno 10764 bound_to 10752
  152.9887  135.5735  154.5321 H   0  0  0  0  0  0  0  0  0  0  0  0  # atno 10765 bound_to 10752
  141.1160  133.8613  157.1444 H   0  0  0  0  0  0  0  0  0  0  0  0  # atno 11005 bound_to 11000
  146.3022  139.7464  142.9083 LP  0  0  0  0  0  0  0  0  0  0  0  0  # atno 17320 bound_to 7965
  145.3875  141.0367  143.3143 LP  0  0  0  0  0  0  0  0  0  0  0  0  # atno 17321 bound_to 7965
  139.5924  144.7555  151.3368 LP  0  0  0  0  0  0  0  0  0  0  0  0  # atno 17342 bound_to 10162
  140.7195  143.7174  150.7722 LP  0  0  0  0  0  0  0  0  0  0  0  0  # atno 17343 bound_to 10162
  157.5264  130.8030  149.7867 LP  0  0  0  0  0  0  0  0  0  0  0  0  # atno 17370 bound_to 10713
  156.0109  130.3834  150.2269 LP  0  0  0  0  0  0  0  0  0  0  0  0  # atno 17371 bound_to 10713
  140.0083  134.9999  157.0340 LP  0  0  0  0  0  0  0  0  0  0  0  0  # atno 17394 bound_to 11000
  140.4644  134.1451  155.7195 LP  0  0  0  0  0  0  0  0  0  0  0  0  # atno 17395 bound_to 11000

$$$$
