AV-unprocessed.smi:479|AV-procd|sdf|2674|dock7
  -GOLD-   2262023 93D 1   1.00000     0.00000
 Structure written by MMmdl.
 46 48  0  0  0  0  0  0  0  0  2 V2000
  147.4195  137.2073  163.6100 C   0  0  0  0  0  0  0  0  0  0  0  0
  147.8907  137.2232  162.2708 O   0  0  0  0  0  0  0  0  0  0  0  0
  147.7621  136.0777  161.5123 C   0  0  0  0  0  0  0  0  0  0  0  0
  147.1290  134.8963  161.9762 C   0  0  0  0  0  0  0  0  0  0  0  0
  147.0315  133.7508  161.1529 C   0  0  0  0  0  0  0  0  0  0  0  0
  146.3689  132.4985  161.6186 C   0  0  0  0  0  0  0  0  0  0  0  0
  146.9555  131.1646  161.1592 C   0  0  0  0  0  0  0  0  0  0  0  0
  145.3802  132.4865  162.3512 O   0  0  0  0  0  0  0  0  0  0  0  0
  147.5801  133.7991  159.8543 C   0  0  0  0  0  0  0  0  0  0  0  0
  148.2080  134.9657  159.3849 C   0  0  0  0  0  0  0  0  0  0  0  0
  148.2994  136.1156  160.2062 C   0  0  0  0  0  0  0  0  0  0  0  0
  148.8876  137.2978  159.8048 O   0  0  0  0  0  0  0  0  0  0  0  0
  149.5497  137.3356  158.5466 C   0  0  0  0  0  0  0  0  0  0  0  0
  149.5435  138.7710  157.9885 C   0  0  2  0  0  0  0  0  0  0  0  0
  149.0292  138.7683  156.6739 O   0  0  0  0  0  0  0  0  0  0  0  0
  150.9023  139.5003  158.0279 C   0  0  0  0  0  0  0  0  0  0  0  0
  150.7735  140.9478  157.7968 N   0  0  0  0  0  0  0  0  0  0  0  0
  150.0094  141.6084  156.8847 C   0  0  0  0  0  0  0  0  0  0  0  0
  150.2084  142.9424  157.0675 N   0  3  0  0  0  0  0  0  0  0  0  0
  151.1206  143.1400  158.1056 C   0  0  0  0  0  0  0  0  0  0  0  0
  151.6303  144.3124  158.6554 C   0  0  0  0  0  0  0  0  0  0  0  0
  152.5507  144.1677  159.7140 C   0  0  0  0  0  0  0  0  0  0  0  0
  152.9351  142.8953  160.1826 C   0  0  0  0  0  0  0  0  0  0  0  0
  152.4162  141.7145  159.6132 C   0  0  0  0  0  0  0  0  0  0  0  0
  151.4981  141.8627  158.5733 C   0  0  0  0  0  0  0  0  0  0  0  0
  147.5864  138.1861  164.0597 H   0  0  0  0  0  0  0  0  0  0  0  0
  147.9538  136.4724  164.2133 H   0  0  0  0  0  0  0  0  0  0  0  0
  146.3487  137.0038  163.6527 H   0  0  0  0  0  0  0  0  0  0  0  0
  146.7154  134.8655  162.9714 H   0  0  0  0  0  0  0  0  0  0  0  0
  146.9303  131.0899  160.0719 H   0  0  0  0  0  0  0  0  0  0  0  0
  146.3814  130.3341  161.5708 H   0  0  0  0  0  0  0  0  0  0  0  0
  147.9873  131.0645  161.4959 H   0  0  0  0  0  0  0  0  0  0  0  0
  147.5257  132.9398  159.2013 H   0  0  0  0  0  0  0  0  0  0  0  0
  148.6131  134.9496  158.3848 H   0  0  0  0  0  0  0  0  0  0  0  0
  150.5711  136.9620  158.6355 H   0  0  0  0  0  0  0  0  0  0  0  0
  149.0242  136.6906  157.8406 H   0  0  0  0  0  0  0  0  0  0  0  0
  148.8339  139.3469  158.5838 H   0  0  0  0  0  0  0  0  0  0  0  0
  148.4806  138.0064  156.5656 H   0  0  0  0  0  0  0  0  0  0  0  0
  151.4084  139.3200  158.9749 H   0  0  0  0  0  0  0  0  0  0  0  0
  151.5607  139.1062  157.2527 H   0  0  0  0  0  0  0  0  0  0  0  0
  149.3536  141.1552  156.1553 H   0  0  0  0  0  0  0  0  0  0  0  0
  151.3385  145.2887  158.2966 H   0  0  0  0  0  0  0  0  0  0  0  0
  152.9711  145.0498  160.1749 H   0  0  0  0  0  0  0  0  0  0  0  0
  153.6421  142.8214  160.9962 H   0  0  0  0  0  0  0  0  0  0  0  0
  152.7206  140.7489  159.9874 H   0  0  0  0  0  0  0  0  0  0  0  0
  149.7539  143.6636  156.5219 H   0  0  0  0  0  0  0  0  0  0  0  0
  1  2  1  0  0  0  0
  1 26  1  0  0  0  0
  1 27  1  0  0  0  0
  1 28  1  0  0  0  0
  2  3  1  0  0  0  0
  3 11  1  0  0  0  0
  3  4  2  0  0  0  0
  4  5  1  0  0  0  0
  4 29  1  0  0  0  0
  5  6  1  0  0  0  0
  5  9  2  0  0  0  0
  6  7  1  0  0  0  0
  6  8  2  0  0  0  0
  7 30  1  0  0  0  0
  7 31  1  0  0  0  0
  7 32  1  0  0  0  0
  9 10  1  0  0  0  0
  9 33  1  0  0  0  0
 10 11  2  0  0  0  0
 10 34  1  0  0  0  0
 11 12  1  0  0  0  0
 12 13  1  0  0  0  0
 13 14  1  0  0  0  0
 13 35  1  0  0  0  0
 13 36  1  0  0  0  0
 14 15  1  0  0  0  0
 14 16  1  0  0  0  0
 14 37  1  0  0  0  0
 15 38  1  0  0  0  0
 16 17  1  0  0  0  0
 16 39  1  0  0  0  0
 16 40  1  0  0  0  0
 17 25  1  0  0  0  0
 17 18  1  0  0  0  0
 18 19  2  0  0  0  0
 18 41  1  0  0  0  0
 19 20  1  0  0  0  0
 19 46  1  0  0  0  0
 20 25  2  0  0  0  0
 20 21  1  0  0  0  0
 21 22  2  0  0  0  0
 21 42  1  0  0  0  0
 22 23  1  0  0  0  0
 22 43  1  0  0  0  0
 23 24  2  0  0  0  0
 23 44  1  0  0  0  0
 24 25  1  0  0  0  0
 24 45  1  0  0  0  0
M  CHG  1  19   1
M  END
> <s_m_source_file>
AV-unprocessed.smi

> <i_m_source_file_index>
479

> <i_lp_mmshare_version>
43012

> <i_f3d_flags>
0

> <s_epik_input>
W0NIM11PYzFbY0hdYyhDKD1PKVtDSDNdKVtjSF1bY0hdYzFPW0NIMl1bQ0BIXShbT0hdKVtDSDJdbihbY0hdbjIpYyhjMjMpW2NIXVtjSF1bY0hdW2NIXTM=

> <s_epik_cmdline>
J2VwaWtfcHl0aG9uJywgJy1waCcsICc3LjAnLCAnLXRuJywgJzgnLCAnLW1hJywgJzIwMCcsICctbWV0YWxfYmluZGluZycsICctaW1hZScsICc8aW5maWxlLm1hZT4nLCAnLW9tYWUnLCAnPG91dGZpbGUubWFlPic=

> <r_lp_tautomer_probability>
0.99995

> <r_epik_Ionization_Penalty>
1.37698

> <r_epik_Ionization_Penalty_Charging>
1.37698

> <r_epik_Ionization_Penalty_Neutral>
2.3993e-06

> <r_epik_State_Penalty>
1.45717

> <r_epik_Charging_Adjusted_Penalty>
2.83415

> <i_epik_Tot_Q>
1

> <i_epik_Tot_abs_Q>
1

> <r_epik_Metal_State_Penalty>
5.49703

> <b_epik_Metal_Only>
0

> <s_lp_Force_Field>
OPLS_2005

> <r_lp_Energy>
30.5916

> <b_lp_Chiralities_Consistent>
1

> <s_lp_Variant>
AV-unprocessed.smi:479-3

> <Gold.Version>
5.8.1

> <Gold.Id.Protein>
6NUR|6NUR_protein|mol2

> <Gold.PLP.Fitness>
57.1649

> <Gold.PLP.PLP>
-50.1169

> <Gold.PLP.part.hbond>
-3.7663

> <Gold.PLP.part.metal>
0.0000

> <Gold.PLP.part.buried>
-4.2279

> <Gold.PLP.part.nonpolar>
-41.8705

> <Gold.PLP.part.repulsive>
0.1377

> <Gold.PLP.ligand.clash>
0.0000

> <Gold.PLP.ligand.torsion>
1.7028

> <Gold.PLP.Chemscore.Hbond>
3.4400

> <Gold.PLP.Chemscore.CHOScore>
0.0000

> <Gold.PLP.Chemscore.Metal>
0.0000

> <Gold.Chemscore.Hbonds>
donor molecule, donor type, donor heavy atom, donor atom, acceptor molecule, acceptor atom, score
      L1  H    19    46       P1  8028  2.00
      P1  H  6931  6943       L1     2  0.98
      P1  H  6934  6947       L1     2  0.12

> <Gold.PLP.Chemscore.Internal.Correction>
0.1336

> <Gold.Rescore>
     Score         DG    S(hbond)    S(metal)    S(lipo)     H(rot)  DE(clash)    DE(int)     intcor
     17.61     -19.92       2.05        0.00     125.10       2.75       0.08       2.24       ----

> <Gold.Chemscore.Fitness>
17.6086

> <Gold.Chemscore.DG>
-19.9216

> <Gold.Chemscore.ZeroCoef>
-5.4800

> <Gold.Chemscore.Hbond>
2.0484

> <Gold.Chemscore.Metal>
0.0000

> <Gold.Chemscore.Lipo>
125.0993

> <Gold.Chemscore.Internal_Hbond>
0.0000

> <Gold.Chemscore.DEClash>
0.0778

> <Gold.Chemscore.DEInternal>
2.2352

> <Gold.Chemscore.Rot>
2.7487

> <Gold.Chemscore.Internal.Correction>
   9.000000E+99

> <Gold.Chemscore.Hbonds>
donor molecule, donor type, donor heavy atom, donor atom, acceptor molecule, acceptor atom, score
      L1  H    19    46       P1  8028  0.99
      P1  H  6931  6943       L1     2  0.82
      P1  H  6934  6947       L1     2  0.07

> <Gold.Chemscore.Hbond.Weighted>
-6.8418

> <Gold.Chemscore.Metal.Weighted>
-0.0000

> <Gold.Chemscore.Lipo.Weighted>
-14.6366

> <Gold.Chemscore.Internal_Hbond.Weighted>
0.0000

> <Gold.Chemscore.DEClash.Weighted>
0.0778

> <Gold.Chemscore.DEInternal.Weighted>
2.2352

> <Gold.Chemscore.Rot.Weighted>
7.0368

> <Gold.Chemscore.Internal.Correction.Weighted>
   9.000000E+99

> <Gold.Protein.RotatedTorsions>
[ 6907 6896 6895 6894 ] final  159.49 input  -60.11 | X-H torsion
[ 7974 7965 7964 7962 ] final   77.99 input  175.53 | X-H torsion
[ 8008 7997 7996 7995 ] final -118.50 input   59.86 | X-H torsion
[ 10167 10162 10161 10158 ] final  -32.11 input  -65.29 | X-H torsion
[ 10718 10713 10712 10709 ] final -131.05 input   66.30 | X-H torsion
[ 10763 10752 10751 10750 ] final  172.41 input  -60.55 | X-H torsion
[ 11005 11000 10999 10996 ] final -109.55 input  -57.11 | X-H torsion

> <Gold.Protein.ActiveResidues>
 VAL166  LYS551  ARG553  GLY616  TRP617  ASP618  TYR619  PRO620  LYS621  CYS622 
 ASP623  PHE694  ASN695  SER759  ASP760  ASP761  ALA762  ILE779  LEU786  VAL792 
 PHE793  MET794  SER795  GLU796  ALA797  LYS798  CYS799  TRP800  GLU811  SER814 

> <Gold.Protein.RotatedAtoms>
  151.9847  133.3770  159.4120 H   0  0  0  0  0  0  0  0  0  0  0  0  # atno 6907 bound_to 6896
  150.6930  134.4001  159.5124 H   0  0  0  0  0  0  0  0  0  0  0  0  # atno 6908 bound_to 6896
  152.1725  134.8822  160.0584 H   0  0  0  0  0  0  0  0  0  0  0  0  # atno 6909 bound_to 6896
  145.6829  139.2529  143.1804 H   0  0  0  0  0  0  0  0  0  0  0  0  # atno 7974 bound_to 7965
  155.1006  140.0396  157.2696 H   0  0  0  0  0  0  0  0  0  0  0  0  # atno 8008 bound_to 7997
  154.6761  140.2623  155.6931 H   0  0  0  0  0  0  0  0  0  0  0  0  # atno 8009 bound_to 7997
  156.2677  140.2788  156.1288 H   0  0  0  0  0  0  0  0  0  0  0  0  # atno 8010 bound_to 7997
  140.7226  143.3720  151.1761 H   0  0  0  0  0  0  0  0  0  0  0  0  # atno 10167 bound_to 10162
  156.2205  130.6975  151.0751 H   0  0  0  0  0  0  0  0  0  0  0  0  # atno 10718 bound_to 10713
  154.4257  135.2758  155.1946 H   0  0  0  0  0  0  0  0  0  0  0  0  # atno 10763 bound_to 10752
  154.3873  135.6074  153.5827 H   0  0  0  0  0  0  0  0  0  0  0  0  # atno 10764 bound_to 10752
  152.9834  135.5895  154.4560 H   0  0  0  0  0  0  0  0  0  0  0  0  # atno 10765 bound_to 10752
  141.0841  133.9169  157.2224 H   0  0  0  0  0  0  0  0  0  0  0  0  # atno 11005 bound_to 11000
  146.0949  140.7613  142.9577 LP  0  0  0  0  0  0  0  0  0  0  0  0  # atno 17320 bound_to 7965
  144.7020  140.3695  143.7148 LP  0  0  0  0  0  0  0  0  0  0  0  0  # atno 17321 bound_to 7965
  139.7293  143.9098  152.3014 LP  0  0  0  0  0  0  0  0  0  0  0  0  # atno 17342 bound_to 10162
  139.8882  144.6980  150.8800 LP  0  0  0  0  0  0  0  0  0  0  0  0  # atno 17343 bound_to 10162
  157.7085  131.0745  150.6584 LP  0  0  0  0  0  0  0  0  0  0  0  0  # atno 17370 bound_to 10713
  156.6646  130.4522  149.5676 LP  0  0  0  0  0  0  0  0  0  0  0  0  # atno 17371 bound_to 10713
  139.9658  135.0142  156.9382 LP  0  0  0  0  0  0  0  0  0  0  0  0  # atno 17394 bound_to 11000
  140.5402  134.0728  155.7339 LP  0  0  0  0  0  0  0  0  0  0  0  0  # atno 17395 bound_to 11000

$$$$
