AV-unprocessed.smi:2108|AV-procd|sdf|8605|dock5
  -GOLD-   2272011343D 1   1.00000     0.00000
 Structure written by MMmdl.
 34 35  0  0  0  0  0  0  0  0  2 V2000
  153.9174  136.3386  157.6967 O   0  0  0  0  0  0  0  0  0  0  0  0
  153.0874  137.4577  158.1720 S   0  0  0  0  0  0  0  0  0  0  0  0
  152.0939  137.1772  159.2216 O   0  0  0  0  0  0  0  0  0  0  0  0
  153.9446  138.8099  158.4236 N   0  5  0  0  0  0  0  0  0  0  0  0
  153.5834  139.6738  159.5336 C   0  0  0  0  0  0  0  0  0  0  0  0
  152.9802  140.9900  158.9978 C   0  0  0  0  0  0  0  0  0  0  0  0
  152.7720  142.0613  160.0637 C   0  0  0  0  0  0  0  0  0  0  0  0
  152.2019  143.3108  159.7276 C   0  0  0  0  0  0  0  0  0  0  0  0
  152.0209  144.2663  160.7459 C   0  0  0  0  0  0  0  0  0  0  0  0
  152.4082  143.9401  162.0596 C   0  0  0  0  0  0  0  0  0  0  0  0
  152.9613  142.6664  162.2975 C   0  0  0  0  0  0  0  0  0  0  0  0
  153.1388  141.7426  161.3294 N   0  0  0  0  0  0  0  0  0  0  0  0
  152.1828  138.0179  156.7989 N   0  0  0  0  0  0  0  0  0  0  0  0
  152.8715  138.0593  155.4927 C   0  0  0  0  0  0  0  0  0  0  0  0
  151.8818  138.3415  154.3513 C   0  0  0  0  0  0  0  0  0  0  0  0
  151.1499  139.5273  154.6200 O   0  0  0  0  0  0  0  0  0  0  0  0
  150.3733  139.3964  155.8002 C   0  0  0  0  0  0  0  0  0  0  0  0
  151.2871  139.1672  157.0149 C   0  0  0  0  0  0  0  0  0  0  0  0
  152.8589  139.1937  160.1922 H   0  0  0  0  0  0  0  0  0  0  0  0
  154.4483  139.9051  160.1564 H   0  0  0  0  0  0  0  0  0  0  0  0
  153.6227  141.3988  158.2165 H   0  0  0  0  0  0  0  0  0  0  0  0
  152.0201  140.7870  158.5204 H   0  0  0  0  0  0  0  0  0  0  0  0
  151.9147  143.5327  158.7101 H   0  0  0  0  0  0  0  0  0  0  0  0
  151.5921  145.2321  160.5235 H   0  0  0  0  0  0  0  0  0  0  0  0
  152.2836  144.6481  162.8656 H   0  0  0  0  0  0  0  0  0  0  0  0
  153.2676  142.3813  163.2929 H   0  0  0  0  0  0  0  0  0  0  0  0
  153.6359  138.8365  155.5237 H   0  0  0  0  0  0  0  0  0  0  0  0
  153.3856  137.1181  155.3014 H   0  0  0  0  0  0  0  0  0  0  0  0
  152.4216  138.4667  153.4125 H   0  0  0  0  0  0  0  0  0  0  0  0
  151.2001  137.5006  154.2138 H   0  0  0  0  0  0  0  0  0  0  0  0
  149.7886  140.3056  155.9402 H   0  0  0  0  0  0  0  0  0  0  0  0
  149.6610  138.5768  155.6915 H   0  0  0  0  0  0  0  0  0  0  0  0
  150.6754  139.0008  157.9012 H   0  0  0  0  0  0  0  0  0  0  0  0
  151.8929  140.0541  157.2043 H   0  0  0  0  0  0  0  0  0  0  0  0
  1  2  2  0  0  0  0
  2  3  2  0  0  0  0
  2  4  1  0  0  0  0
  2 13  1  0  0  0  0
  4  5  1  0  0  0  0
  5  6  1  0  0  0  0
  5 19  1  0  0  0  0
  5 20  1  0  0  0  0
  6  7  1  0  0  0  0
  6 21  1  0  0  0  0
  6 22  1  0  0  0  0
  7 12  1  0  0  0  0
  7  8  2  0  0  0  0
  8  9  1  0  0  0  0
  8 23  1  0  0  0  0
  9 10  2  0  0  0  0
  9 24  1  0  0  0  0
 10 11  1  0  0  0  0
 10 25  1  0  0  0  0
 11 12  2  0  0  0  0
 11 26  1  0  0  0  0
 13 18  1  0  0  0  0
 13 14  1  0  0  0  0
 14 15  1  0  0  0  0
 14 27  1  0  0  0  0
 14 28  1  0  0  0  0
 15 16  1  0  0  0  0
 15 29  1  0  0  0  0
 15 30  1  0  0  0  0
 16 17  1  0  0  0  0
 17 18  1  0  0  0  0
 17 31  1  0  0  0  0
 17 32  1  0  0  0  0
 18 33  1  0  0  0  0
 18 34  1  0  0  0  0
M  CHG  1   4  -1
M  END
> <s_m_source_file>
AV-unprocessed.smi

> <i_m_source_file_index>
2108

> <i_lp_mmshare_version>
43012

> <i_f3d_flags>
0

> <s_epik_input>
W0NIMl0xW0NIMl1PW0NIMl1bQ0gyXU4xUyg9TykoPU8pW05IXVtDSDJdW0NIMl1jMltjSF1bY0hdW2NIXVtjSF1uMg==

> <s_epik_cmdline>
J2VwaWtfcHl0aG9uJywgJy1waCcsICc3LjAnLCAnLXRuJywgJzgnLCAnLW1hJywgJzIwMCcsICctbWV0YWxfYmluZGluZycsICctaW1hZScsICc8aW5maWxlLm1hZT4nLCAnLW9tYWUnLCAnPG91dGZpbGUubWFlPic=

> <r_epik_Ionization_Penalty>
1.27779

> <r_epik_Ionization_Penalty_Charging>
1.20871

> <r_epik_Ionization_Penalty_Neutral>
0.0690773

> <r_epik_State_Penalty>
1.64557

> <r_epik_Charging_Adjusted_Penalty>
2.85428

> <i_epik_Tot_Q>
-1

> <i_epik_Tot_abs_Q>
1

> <r_epik_Metal_State_Penalty>
0.643506

> <b_epik_Metal_Only>
0

> <s_lp_Force_Field>
OPLS_2005

> <r_lp_Energy>
7.47044

> <b_lp_Chiralities_Consistent>
1

> <s_lp_Variant>
AV-unprocessed.smi:2108-2

> <Gold.Version>
5.8.1

> <Gold.Id.Protein>
6NUR|6NUR_protein|mol2

> <Gold.PLP.Fitness>
46.1990

> <Gold.PLP.PLP>
-35.7622

> <Gold.PLP.part.hbond>
-2.6463

> <Gold.PLP.part.metal>
0.0000

> <Gold.PLP.part.buried>
-5.9998

> <Gold.PLP.part.nonpolar>
-27.1489

> <Gold.PLP.part.repulsive>
0.0888

> <Gold.PLP.ligand.clash>
0.0000

> <Gold.PLP.ligand.torsion>
0.9216

> <Gold.PLP.Chemscore.Hbond>
3.5850

> <Gold.PLP.Chemscore.CHOScore>
0.0000

> <Gold.PLP.Chemscore.Metal>
0.0000

> <Gold.Chemscore.Hbonds>
donor molecule, donor type, donor heavy atom, donor atom, acceptor molecule, acceptor atom, score
      P1  H  6896  6909       L1     3  0.54
      P1  H  7989  7998       L1    16  1.00
      P1  H  7997  8009       L1     4  2.00

> <Gold.PLP.Chemscore.Internal.Correction>
1.5250

> <Gold.Rescore>
     Score         DG    S(hbond)    S(metal)    S(lipo)     H(rot)  DE(clash)    DE(int)     intcor
     19.97     -21.09       2.36        0.00     100.25       1.56       0.14       0.97       ----

> <Gold.Chemscore.Fitness>
19.9746

> <Gold.Chemscore.DG>
-21.0858

> <Gold.Chemscore.ZeroCoef>
-5.4800

> <Gold.Chemscore.Hbond>
2.3588

> <Gold.Chemscore.Metal>
0.0000

> <Gold.Chemscore.Lipo>
100.2456

> <Gold.Chemscore.Internal_Hbond>
0.0000

> <Gold.Chemscore.DEClash>
0.1381

> <Gold.Chemscore.DEInternal>
0.9731

> <Gold.Chemscore.Rot>
1.5630

> <Gold.Chemscore.Internal.Correction>
   9.000000E+99

> <Gold.Chemscore.Hbonds>
donor molecule, donor type, donor heavy atom, donor atom, acceptor molecule, acceptor atom, score
      P1  H  6896  6909       L1     3  0.52
      P1  H  7989  7998       L1    16  0.78
      P1  H  7997  8009       L1     4  0.45

> <Gold.Chemscore.Hbond.Weighted>
-7.8784

> <Gold.Chemscore.Metal.Weighted>
-0.0000

> <Gold.Chemscore.Lipo.Weighted>
-11.7287

> <Gold.Chemscore.Internal_Hbond.Weighted>
0.0000

> <Gold.Chemscore.DEClash.Weighted>
0.1381

> <Gold.Chemscore.DEInternal.Weighted>
0.9731

> <Gold.Chemscore.Rot.Weighted>
4.0013

> <Gold.Chemscore.Internal.Correction.Weighted>
   9.000000E+99

> <Gold.Protein.RotatedTorsions>
[ 6907 6896 6895 6894 ] final  135.15 input  -60.11 | X-H torsion
[ 7974 7965 7964 7962 ] final   26.38 input  175.53 | X-H torsion
[ 8008 7997 7996 7995 ] final  144.88 input   59.86 | X-H torsion
[ 10167 10162 10161 10158 ] final -130.40 input  -65.29 | X-H torsion
[ 10718 10713 10712 10709 ] final -133.73 input   66.30 | X-H torsion
[ 10763 10752 10751 10750 ] final   43.29 input  -60.55 | X-H torsion
[ 11005 11000 10999 10996 ] final  128.64 input  -57.11 | X-H torsion

> <Gold.Protein.ActiveResidues>
 VAL166  LYS551  ARG553  GLY616  TRP617  ASP618  TYR619  PRO620  LYS621  CYS622 
 ASP623  PHE694  ASN695  SER759  ASP760  ASP761  ALA762  ILE779  LEU786  VAL792 
 PHE793  MET794  SER795  GLU796  ALA797  LYS798  CYS799  TRP800  GLU811  SER814 

> <Gold.Protein.RotatedAtoms>
  152.3036  133.5680  159.5634 H   0  0  0  0  0  0  0  0  0  0  0  0  # atno 6907 bound_to 6896
  150.7289  134.0255  159.3725 H   0  0  0  0  0  0  0  0  0  0  0  0  # atno 6908 bound_to 6896
  151.8153  135.0668  160.0469 H   0  0  0  0  0  0  0  0  0  0  0  0  # atno 6909 bound_to 6896
  146.1840  139.7336  142.8880 H   0  0  0  0  0  0  0  0  0  0  0  0  # atno 7974 bound_to 7965
  156.2897  140.2224  156.5124 H   0  0  0  0  0  0  0  0  0  0  0  0  # atno 8008 bound_to 7997
  154.7597  140.0474  157.0985 H   0  0  0  0  0  0  0  0  0  0  0  0  # atno 8009 bound_to 7997
  155.0006  140.3101  155.4872 H   0  0  0  0  0  0  0  0  0  0  0  0  # atno 8010 bound_to 7997
  139.9297  143.6286  152.2533 H   0  0  0  0  0  0  0  0  0  0  0  0  # atno 10167 bound_to 10162
  156.2480  130.7136  151.1024 H   0  0  0  0  0  0  0  0  0  0  0  0  # atno 10718 bound_to 10713
  152.9864  135.6106  154.3088 H   0  0  0  0  0  0  0  0  0  0  0  0  # atno 10763 bound_to 10752
  154.2805  135.2777  155.2701 H   0  0  0  0  0  0  0  0  0  0  0  0  # atno 10764 bound_to 10752
  154.5042  135.5858  153.6611 H   0  0  0  0  0  0  0  0  0  0  0  0  # atno 10765 bound_to 10752
  139.9571  134.9610  156.9031 H   0  0  0  0  0  0  0  0  0  0  0  0  # atno 11005 bound_to 11000
  145.3993  141.0383  143.3080 LP  0  0  0  0  0  0  0  0  0  0  0  0  # atno 17320 bound_to 7965
  144.8365  139.5542  143.6920 LP  0  0  0  0  0  0  0  0  0  0  0  0  # atno 17321 bound_to 7965
  139.6792  144.7656  151.1640 LP  0  0  0  0  0  0  0  0  0  0  0  0  # atno 17342 bound_to 10162
  140.7640  143.5750  150.8955 LP  0  0  0  0  0  0  0  0  0  0  0  0  # atno 17343 bound_to 10162
  157.7203  131.0685  150.6163 LP  0  0  0  0  0  0  0  0  0  0  0  0  # atno 17370 bound_to 10713
  156.6241  130.4414  149.5811 LP  0  0  0  0  0  0  0  0  0  0  0  0  # atno 17371 bound_to 10713
  140.5583  134.0559  155.7391 LP  0  0  0  0  0  0  0  0  0  0  0  0  # atno 17394 bound_to 11000
  141.1244  133.9407  157.2664 LP  0  0  0  0  0  0  0  0  0  0  0  0  # atno 17395 bound_to 11000

$$$$
