AV-unprocessed.smi:1324|AV-procd|sdf|5471|dock2
  -GOLD-   22720 5 43D 1   1.00000     0.00000
 Structure written by MMmdl.
 42 43  0  0  0  0  0  0  0  0  2 V2000
  143.6974  140.3494  155.9214 C   0  0  0  0  0  0  0  0  0  0  0  0
  145.0965  140.6825  155.4496 C   0  0  0  0  0  0  0  0  0  0  0  0
  145.2918  141.7557  154.7825 N   0  0  0  0  0  0  0  0  0  0  0  0
  146.5894  142.0718  154.3458 C   0  0  0  0  0  0  0  0  0  0  0  0
  146.7295  143.3674  153.5660 C   0  0  0  0  0  0  0  0  0  0  0  0
  147.6451  141.2527  154.6192 C   0  0  0  0  0  0  0  0  0  0  0  0
  149.0767  141.5520  154.1728 C   0  0  0  0  0  0  0  0  0  0  0  0
  150.1647  141.4274  155.2428 C   0  0  0  0  0  0  0  0  0  0  0  0
  150.9689  140.4951  155.2203 O   0  0  0  0  0  0  0  0  0  0  0  0
  150.1750  142.3867  156.1815 N   0  0  0  0  0  0  0  0  0  0  0  0
  151.1180  142.4770  157.2947 C   0  0  0  0  0  0  0  0  0  0  0  0
  151.0445  141.1753  158.1266 C   0  0  0  0  0  0  0  0  0  0  0  0
  151.6587  141.2056  159.5378 C   0  0  0  0  0  0  0  0  0  0  0  0
  152.9260  142.0594  159.6985 C   0  0  0  0  0  0  0  0  0  0  0  0
  152.6100  143.5363  159.9871 C   0  0  0  0  0  0  0  0  0  0  0  0
  152.1026  144.3338  158.7770 C   0  0  0  0  0  0  0  0  0  0  0  0
  150.8438  143.7671  158.0949 C   0  0  0  0  0  0  0  0  0  0  0  0
  147.3759  140.0209  155.3822 C   0  0  0  0  0  0  0  0  0  0  0  0
  148.2894  139.2375  155.6392 O   0  0  0  0  0  0  0  0  0  0  0  0
  146.0920  139.7906  155.7796 N   0  5  0  0  0  0  0  0  0  0  0  0
  142.9553  140.9708  155.4185 H   0  0  0  0  0  0  0  0  0  0  0  0
  143.6145  140.5157  156.9956 H   0  0  0  0  0  0  0  0  0  0  0  0
  143.4624  139.3049  155.7131 H   0  0  0  0  0  0  0  0  0  0  0  0
  147.3404  144.0809  154.1196 H   0  0  0  0  0  0  0  0  0  0  0  0
  145.7568  143.8270  153.3861 H   0  0  0  0  0  0  0  0  0  0  0  0
  147.1967  143.1857  152.5979 H   0  0  0  0  0  0  0  0  0  0  0  0
  149.3346  140.8741  153.3593 H   0  0  0  0  0  0  0  0  0  0  0  0
  149.1349  142.5475  153.7308 H   0  0  0  0  0  0  0  0  0  0  0  0
  149.4745  143.1114  156.1201 H   0  0  0  0  0  0  0  0  0  0  0  0
  152.1203  142.5607  156.8703 H   0  0  0  0  0  0  0  0  0  0  0  0
  150.0049  140.8594  158.2262 H   0  0  0  0  0  0  0  0  0  0  0  0
  151.5322  140.3843  157.5553 H   0  0  0  0  0  0  0  0  0  0  0  0
  150.9063  141.5401  160.2530 H   0  0  0  0  0  0  0  0  0  0  0  0
  151.8858  140.1782  159.8249 H   0  0  0  0  0  0  0  0  0  0  0  0
  153.4866  141.6701  160.5492 H   0  0  0  0  0  0  0  0  0  0  0  0
  153.5845  141.9553  158.8353 H   0  0  0  0  0  0  0  0  0  0  0  0
  151.8897  143.6078  160.8029 H   0  0  0  0  0  0  0  0  0  0  0  0
  153.5164  144.0190  160.3534 H   0  0  0  0  0  0  0  0  0  0  0  0
  151.8878  145.3501  159.1091 H   0  0  0  0  0  0  0  0  0  0  0  0
  152.9034  144.4308  158.0429 H   0  0  0  0  0  0  0  0  0  0  0  0
  150.4828  144.5368  157.4110 H   0  0  0  0  0  0  0  0  0  0  0  0
  150.0420  143.6144  158.8183 H   0  0  0  0  0  0  0  0  0  0  0  0
  1  2  1  0  0  0  0
  1 21  1  0  0  0  0
  1 22  1  0  0  0  0
  1 23  1  0  0  0  0
  2 20  1  0  0  0  0
  2  3  2  0  0  0  0
  3  4  1  0  0  0  0
  4  5  1  0  0  0  0
  4  6  2  0  0  0  0
  5 24  1  0  0  0  0
  5 25  1  0  0  0  0
  5 26  1  0  0  0  0
  6  7  1  0  0  0  0
  6 18  1  0  0  0  0
  7  8  1  0  0  0  0
  7 27  1  0  0  0  0
  7 28  1  0  0  0  0
  8  9  2  0  0  0  0
  8 10  1  0  0  0  0
 10 11  1  0  0  0  0
 10 29  1  0  0  0  0
 11 17  1  0  0  0  0
 11 12  1  0  0  0  0
 11 30  1  0  0  0  0
 12 13  1  0  0  0  0
 12 31  1  0  0  0  0
 12 32  1  0  0  0  0
 13 14  1  0  0  0  0
 13 33  1  0  0  0  0
 13 34  1  0  0  0  0
 14 15  1  0  0  0  0
 14 35  1  0  0  0  0
 14 36  1  0  0  0  0
 15 16  1  0  0  0  0
 15 37  1  0  0  0  0
 15 38  1  0  0  0  0
 16 17  1  0  0  0  0
 16 39  1  0  0  0  0
 16 40  1  0  0  0  0
 17 41  1  0  0  0  0
 17 42  1  0  0  0  0
 18 19  2  0  0  0  0
 18 20  1  0  0  0  0
M  CHG  1  20  -1
M  END
> <s_m_source_file>
AV-unprocessed.smi

> <i_m_source_file_index>
1324

> <i_lp_mmshare_version>
43012

> <i_f3d_flags>
0

> <s_epik_input>
W0NIM11jMW5jKFtDSDNdKWMoYyg9TylbbkhdMSlbQ0gyXUMoPU8pW05IXVtDSF0yW0NIMl1bQ0gyXVtDSDJdW0NIMl1bQ0gyXVtDSDJdMg==

> <s_epik_cmdline>
J2VwaWtfcHl0aG9uJywgJy1waCcsICc3LjAnLCAnLXRuJywgJzgnLCAnLW1hJywgJzIwMCcsICctbWV0YWxfYmluZGluZycsICctaW1hZScsICc8aW5maWxlLm1hZT4nLCAnLW9tYWUnLCAnPG91dGZpbGUubWFlPic=

> <r_lp_tautomer_probability>
0.839158

> <r_epik_Ionization_Penalty>
6.62804

> <r_epik_Ionization_Penalty_Charging>
7.40585e-08

> <r_epik_Ionization_Penalty_Neutral>
6.62804

> <r_epik_State_Penalty>
4.44437

> <r_epik_Charging_Adjusted_Penalty>
4.44437

> <i_epik_Tot_Q>
-1

> <i_epik_Tot_abs_Q>
1

> <r_epik_Metal_State_Penalty>
0.804717

> <b_epik_Metal_Only>
1

> <s_lp_Force_Field>
OPLS_2005

> <r_lp_Energy>
20.4911

> <b_lp_Chiralities_Consistent>
1

> <s_lp_Variant>
AV-unprocessed.smi:1324-3

> <Gold.Version>
5.8.1

> <Gold.Id.Protein>
6NUR|6NUR_protein|mol2

> <Gold.PLP.Fitness>
42.6588

> <Gold.PLP.PLP>
-37.4326

> <Gold.PLP.part.hbond>
-2.0000

> <Gold.PLP.part.metal>
0.0000

> <Gold.PLP.part.buried>
-3.5093

> <Gold.PLP.part.nonpolar>
-31.2586

> <Gold.PLP.part.repulsive>
0.2909

> <Gold.PLP.ligand.clash>
0.0000

> <Gold.PLP.ligand.torsion>
0.2527

> <Gold.PLP.Chemscore.Hbond>
1.9040

> <Gold.PLP.Chemscore.CHOScore>
0.0000

> <Gold.PLP.Chemscore.Metal>
0.0000

> <Gold.Chemscore.Hbonds>
donor molecule, donor type, donor heavy atom, donor atom, acceptor molecule, acceptor atom, score
      L1  H    10    29       P1  8028  1.00
      P1  H  7989  7998       L1     9  0.74

> <Gold.PLP.Chemscore.Internal.Correction>
0.0196

> <Gold.Rescore>
     Score         DG    S(hbond)    S(metal)    S(lipo)     H(rot)  DE(clash)    DE(int)     intcor
     15.31     -16.47       0.98        0.00      97.54       1.45       0.17       0.99       ----

> <Gold.Chemscore.Fitness>
15.3057

> <Gold.Chemscore.DG>
-16.4653

> <Gold.Chemscore.ZeroCoef>
-5.4800

> <Gold.Chemscore.Hbond>
0.9798

> <Gold.Chemscore.Metal>
0.0000

> <Gold.Chemscore.Lipo>
97.5374

> <Gold.Chemscore.Internal_Hbond>
0.0000

> <Gold.Chemscore.DEClash>
0.1686

> <Gold.Chemscore.DEInternal>
0.9910

> <Gold.Chemscore.Rot>
1.4450

> <Gold.Chemscore.Internal.Correction>
   9.000000E+99

> <Gold.Chemscore.Hbonds>
donor molecule, donor type, donor heavy atom, donor atom, acceptor molecule, acceptor atom, score
      L1  H    10    29       P1  8028  0.98
      P1  H  7989  7998       L1     9  0.09

> <Gold.Chemscore.Hbond.Weighted>
-3.2726

> <Gold.Chemscore.Metal.Weighted>
-0.0000

> <Gold.Chemscore.Lipo.Weighted>
-11.4119

> <Gold.Chemscore.Internal_Hbond.Weighted>
0.0000

> <Gold.Chemscore.DEClash.Weighted>
0.1686

> <Gold.Chemscore.DEInternal.Weighted>
0.9910

> <Gold.Chemscore.Rot.Weighted>
3.6992

> <Gold.Chemscore.Internal.Correction.Weighted>
   9.000000E+99

> <Gold.Protein.RotatedTorsions>
[ 6907 6896 6895 6894 ] final -157.60 input  -60.11 | X-H torsion
[ 7974 7965 7964 7962 ] final  -90.27 input  175.53 | X-H torsion
[ 8008 7997 7996 7995 ] final   93.65 input   59.86 | X-H torsion
[ 10167 10162 10161 10158 ] final  -28.71 input  -65.29 | X-H torsion
[ 10718 10713 10712 10709 ] final  132.97 input   66.30 | X-H torsion
[ 10763 10752 10751 10750 ] final -168.90 input  -60.55 | X-H torsion
[ 11005 11000 10999 10996 ] final   40.65 input  -57.11 | X-H torsion

> <Gold.Protein.ActiveResidues>
 VAL166  LYS551  ARG553  GLY616  TRP617  ASP618  TYR619  PRO620  LYS621  CYS622 
 ASP623  PHE694  ASN695  SER759  ASP760  ASP761  ALA762  ILE779  LEU786  VAL792 
 PHE793  MET794  SER795  GLU796  ALA797  LYS798  CYS799  TRP800  GLU811  SER814 

> <Gold.Protein.RotatedAtoms>
  151.3054  133.4104  159.2642 H   0  0  0  0  0  0  0  0  0  0  0  0  # atno 6907 bound_to 6896
  151.0160  134.9433  159.8043 H   0  0  0  0  0  0  0  0  0  0  0  0  # atno 6908 bound_to 6896
  152.5312  134.3018  159.9133 H   0  0  0  0  0  0  0  0  0  0  0  0  # atno 6909 bound_to 6896
  145.4287  140.9555  143.2140 H   0  0  0  0  0  0  0  0  0  0  0  0  # atno 7974 bound_to 7965
  156.0491  140.3310  155.7331 H   0  0  0  0  0  0  0  0  0  0  0  0  # atno 8008 bound_to 7997
  155.5628  140.0620  157.2842 H   0  0  0  0  0  0  0  0  0  0  0  0  # atno 8009 bound_to 7997
  154.4427  140.1874  156.0788 H   0  0  0  0  0  0  0  0  0  0  0  0  # atno 8010 bound_to 7997
  140.7267  143.3987  151.1302 H   0  0  0  0  0  0  0  0  0  0  0  0  # atno 10167 bound_to 10162
  157.4819  131.1086  150.9671 H   0  0  0  0  0  0  0  0  0  0  0  0  # atno 10718 bound_to 10713
  154.6580  135.2921  154.9903 H   0  0  0  0  0  0  0  0  0  0  0  0  # atno 10763 bound_to 10752
  154.0973  135.6582  153.4866 H   0  0  0  0  0  0  0  0  0  0  0  0  # atno 10764 bound_to 10752
  153.0413  135.5234  154.7518 H   0  0  0  0  0  0  0  0  0  0  0  0  # atno 10765 bound_to 10752
  140.1911  134.3986  155.8146 H   0  0  0  0  0  0  0  0  0  0  0  0  # atno 11005 bound_to 11000
  144.8197  139.5814  143.6992 LP  0  0  0  0  0  0  0  0  0  0  0  0  # atno 17320 bound_to 7965
  146.2618  139.6428  142.9356 LP  0  0  0  0  0  0  0  0  0  0  0  0  # atno 17321 bound_to 7965
  139.7604  143.8644  152.3099 LP  0  0  0  0  0  0  0  0  0  0  0  0  # atno 17342 bound_to 10162
  139.8528  144.7156  150.9193 LP  0  0  0  0  0  0  0  0  0  0  0  0  # atno 17343 bound_to 10162
  157.0401  130.5746  149.5355 LP  0  0  0  0  0  0  0  0  0  0  0  0  # atno 17370 bound_to 10713
  156.0126  130.5218  150.8036 LP  0  0  0  0  0  0  0  0  0  0  0  0  # atno 17371 bound_to 10713
  141.2226  133.7047  156.8096 LP  0  0  0  0  0  0  0  0  0  0  0  0  # atno 17394 bound_to 11000
  140.2159  134.8793  157.3325 LP  0  0  0  0  0  0  0  0  0  0  0  0  # atno 17395 bound_to 11000

$$$$
