AV-unprocessed.smi:1817|AV-procd|sdf|7371|dock7
  -GOLD-   22720 9 33D 1   1.00000     0.00000
 Structure written by MMmdl.
 43 44  0  0  0  0  0  0  0  0  2 V2000
  151.5189  139.5170  157.2007 C   0  0  0  0  0  0  0  0  0  0  0  0
  150.5659  138.3470  156.9174 C   0  0  0  0  0  0  0  0  0  0  0  0
  150.8065  137.7500  155.6016 N   0  0  0  0  0  0  0  0  0  0  0  0
  149.9036  136.6565  155.2381 C   0  0  0  0  0  0  0  0  0  0  0  0
  148.4607  137.1408  154.9834 C   0  0  0  0  0  0  0  0  0  0  0  0
  148.4103  138.1835  153.9191 N   0  3  0  0  0  0  0  0  0  0  0  0
  147.0339  138.6840  153.5851 C   0  0  1  0  0  0  0  0  0  0  0  0
  147.1138  139.9750  152.7354 C   0  0  0  0  0  0  0  0  0  0  0  0
  146.1531  137.6166  152.8749 C   0  0  0  0  0  0  0  0  0  0  0  0
  144.7349  137.9684  152.8382 N   0  0  0  0  0  0  0  0  0  0  0  0
  143.7260  137.1891  153.2557 C   0  0  0  0  0  0  0  0  0  0  0  0
  143.8858  136.0512  153.6960 O   0  0  0  0  0  0  0  0  0  0  0  0
  142.5446  137.8131  153.1223 N   0  0  0  0  0  0  0  0  0  0  0  0
  141.2551  137.3171  153.4386 C   0  0  0  0  0  0  0  0  0  0  0  0
  141.1749  136.1949  154.1626 N   0  0  0  0  0  0  0  0  0  0  0  0
  139.8577  135.8223  154.4015 N   0  0  0  0  0  0  0  0  0  0  0  0
  138.9952  136.6805  153.8485 C   0  0  0  0  0  0  0  0  0  0  0  0
  139.7056  138.0299  152.9805 S   0  0  0  0  0  0  0  0  0  0  0  0
  149.3596  139.2790  154.2651 C   0  0  0  0  0  0  0  0  0  0  0  0
  150.7808  138.7375  154.5239 C   0  0  0  0  0  0  0  0  0  0  0  0
  151.2313  140.0274  158.1202 H   0  0  0  0  0  0  0  0  0  0  0  0
  151.4949  140.2520  156.3958 H   0  0  0  0  0  0  0  0  0  0  0  0
  152.5489  139.1849  157.3274 H   0  0  0  0  0  0  0  0  0  0  0  0
  150.6318  137.6080  157.7151 H   0  0  0  0  0  0  0  0  0  0  0  0
  149.5457  138.7326  156.9375 H   0  0  0  0  0  0  0  0  0  0  0  0
  150.2879  136.1805  154.3347 H   0  0  0  0  0  0  0  0  0  0  0  0
  149.9132  135.8835  156.0058 H   0  0  0  0  0  0  0  0  0  0  0  0
  147.8953  136.2612  154.6794 H   0  0  0  0  0  0  0  0  0  0  0  0
  148.0013  137.5141  155.8995 H   0  0  0  0  0  0  0  0  0  0  0  0
  146.5395  138.9297  154.5266 H   0  0  0  0  0  0  0  0  0  0  0  0
  146.1258  140.3707  152.5035 H   0  0  0  0  0  0  0  0  0  0  0  0
  147.6242  139.7921  151.7893 H   0  0  0  0  0  0  0  0  0  0  0  0
  147.6302  140.7876  153.2420 H   0  0  0  0  0  0  0  0  0  0  0  0
  146.5335  137.4164  151.8717 H   0  0  0  0  0  0  0  0  0  0  0  0
  146.1852  136.6700  153.4128 H   0  0  0  0  0  0  0  0  0  0  0  0
  144.5059  138.8880  152.4897 H   0  0  0  0  0  0  0  0  0  0  0  0
  142.5669  138.7516  152.7514 H   0  0  0  0  0  0  0  0  0  0  0  0
  137.9328  136.5170  153.9531 H   0  0  0  0  0  0  0  0  0  0  0  0
  149.4385  139.9952  153.4506 H   0  0  0  0  0  0  0  0  0  0  0  0
  148.9905  139.8353  155.1275 H   0  0  0  0  0  0  0  0  0  0  0  0
  151.4597  139.5569  154.7630 H   0  0  0  0  0  0  0  0  0  0  0  0
  151.1683  138.2759  153.6146 H   0  0  0  0  0  0  0  0  0  0  0  0
  148.7658  137.7421  153.0830 H   0  0  0  0  0  0  0  0  0  0  0  0
  1  2  1  0  0  0  0
  1 21  1  0  0  0  0
  1 22  1  0  0  0  0
  1 23  1  0  0  0  0
  2  3  1  0  0  0  0
  2 24  1  0  0  0  0
  2 25  1  0  0  0  0
  3 20  1  0  0  0  0
  3  4  1  0  0  0  0
  4  5  1  0  0  0  0
  4 26  1  0  0  0  0
  4 27  1  0  0  0  0
  5  6  1  0  0  0  0
  5 28  1  0  0  0  0
  5 29  1  0  0  0  0
  6  7  1  0  0  0  0
  6 19  1  0  0  0  0
  6 43  1  0  0  0  0
  7  8  1  0  0  0  0
  7  9  1  0  0  0  0
  7 30  1  0  0  0  0
  8 31  1  0  0  0  0
  8 32  1  0  0  0  0
  8 33  1  0  0  0  0
  9 10  1  0  0  0  0
  9 34  1  0  0  0  0
  9 35  1  0  0  0  0
 10 11  1  0  0  0  0
 10 36  1  0  0  0  0
 11 12  2  0  0  0  0
 11 13  1  0  0  0  0
 13 14  1  0  0  0  0
 13 37  1  0  0  0  0
 14 18  1  0  0  0  0
 14 15  2  0  0  0  0
 15 16  1  0  0  0  0
 16 17  2  0  0  0  0
 17 18  1  0  0  0  0
 17 38  1  0  0  0  0
 19 20  1  0  0  0  0
 19 39  1  0  0  0  0
 19 40  1  0  0  0  0
 20 41  1  0  0  0  0
 20 42  1  0  0  0  0
M  CHG  1   6   1
M  END
> <s_m_source_file>
AV-unprocessed.smi

> <i_m_source_file_index>
1817

> <i_lp_mmshare_version>
43012

> <i_f3d_flags>
0

> <s_epik_input>
W0NIM11bQ0gyXU4xW0NIMl1bQ0gyXU4oW0NIMl1bQ0gyXTEpW0NASF0oW0NIM10pW0NIMl1bTkhdQyg9TylbTkhdYzJubltjSF1zMg==

> <s_epik_cmdline>
J2VwaWtfcHl0aG9uJywgJy1waCcsICc3LjAnLCAnLXRuJywgJzgnLCAnLW1hJywgJzIwMCcsICctbWV0YWxfYmluZGluZycsICctaW1hZScsICc8aW5maWxlLm1hZT4nLCAnLW9tYWUnLCAnPG91dGZpbGUubWFlPic=

> <r_epik_Ionization_Penalty>
0.153808

> <r_epik_Ionization_Penalty_Charging>
0.148467

> <r_epik_Ionization_Penalty_Neutral>
0.00534086

> <r_epik_State_Penalty>
0.974087

> <r_epik_Charging_Adjusted_Penalty>
1.12255

> <i_epik_Tot_Q>
1

> <i_epik_Tot_abs_Q>
1

> <r_epik_Metal_State_Penalty>
1.30894

> <b_epik_Metal_Only>
0

> <s_lp_Force_Field>
OPLS_2005

> <r_lp_Energy>
21.4774

> <b_lp_Chiralities_Consistent>
1

> <s_lp_Variant>
AV-unprocessed.smi:1817-4

> <Gold.Version>
5.8.1

> <Gold.Id.Protein>
6NUR|6NUR_protein|mol2

> <Gold.PLP.Fitness>
43.3176

> <Gold.PLP.PLP>
-29.0344

> <Gold.PLP.part.hbond>
-4.8420

> <Gold.PLP.part.metal>
0.0000

> <Gold.PLP.part.buried>
-3.7774

> <Gold.PLP.part.nonpolar>
-21.7023

> <Gold.PLP.part.repulsive>
0.3146

> <Gold.PLP.ligand.clash>
0.0000

> <Gold.PLP.ligand.torsion>
0.3535

> <Gold.PLP.Chemscore.Hbond>
4.9760

> <Gold.PLP.Chemscore.CHOScore>
0.0000

> <Gold.PLP.Chemscore.Metal>
0.0000

> <Gold.Chemscore.Hbonds>
donor molecule, donor type, donor heavy atom, donor atom, acceptor molecule, acceptor atom, score
      L1  H     6    43       P1  7948  2.00
      L1  H    10    36       P1 10175  1.00
      L1  H    13    37       P1 10175  0.98
      P1  H 11000 11005       L1    16  1.00

> <Gold.PLP.Chemscore.Internal.Correction>
0.0622

> <Gold.Rescore>
     Score         DG    S(hbond)    S(metal)    S(lipo)     H(rot)  DE(clash)    DE(int)     intcor
     18.16     -20.65       3.79        0.00      63.32       1.92       0.64       1.85       ----

> <Gold.Chemscore.Fitness>
18.1582

> <Gold.Chemscore.DG>
-20.6464

> <Gold.Chemscore.ZeroCoef>
-5.4800

> <Gold.Chemscore.Hbond>
3.7941

> <Gold.Chemscore.Metal>
0.0000

> <Gold.Chemscore.Lipo>
63.3171

> <Gold.Chemscore.Internal_Hbond>
0.0000

> <Gold.Chemscore.DEClash>
0.6393

> <Gold.Chemscore.DEInternal>
1.8489

> <Gold.Chemscore.Rot>
1.9196

> <Gold.Chemscore.Internal.Correction>
   9.000000E+99

> <Gold.Chemscore.Hbonds>
donor molecule, donor type, donor heavy atom, donor atom, acceptor molecule, acceptor atom, score
      L1  H     6    43       P1  7948  0.97
      L1  H    10    36       P1 10175  0.99
      L1  H    13    37       P1 10175  0.90
      P1  H 11000 11005       L1    16  0.44

> <Gold.Chemscore.Hbond.Weighted>
-12.6724

> <Gold.Chemscore.Metal.Weighted>
-0.0000

> <Gold.Chemscore.Lipo.Weighted>
-7.4081

> <Gold.Chemscore.Internal_Hbond.Weighted>
0.0000

> <Gold.Chemscore.DEClash.Weighted>
0.6393

> <Gold.Chemscore.DEInternal.Weighted>
1.8489

> <Gold.Chemscore.Rot.Weighted>
4.9141

> <Gold.Chemscore.Internal.Correction.Weighted>
   9.000000E+99

> <Gold.Protein.RotatedTorsions>
[ 6907 6896 6895 6894 ] final   35.09 input  -60.11 | X-H torsion
[ 7974 7965 7964 7962 ] final  170.31 input  175.53 | X-H torsion
[ 8008 7997 7996 7995 ] final -128.66 input   59.86 | X-H torsion
[ 10167 10162 10161 10158 ] final  148.99 input  -65.29 | X-H torsion
[ 10718 10713 10712 10709 ] final   53.19 input   66.30 | X-H torsion
[ 10763 10752 10751 10750 ] final   33.08 input  -60.55 | X-H torsion
[ 11005 11000 10999 10996 ] final   68.95 input  -57.11 | X-H torsion

> <Gold.Protein.ActiveResidues>
 VAL166  LYS551  ARG553  GLY616  TRP617  ASP618  TYR619  PRO620  LYS621  CYS622 
 ASP623  PHE694  ASN695  SER759  ASP760  ASP761  ALA762  ILE779  LEU786  VAL792 
 PHE793  MET794  SER795  GLU796  ALA797  LYS798  CYS799  TRP800  GLU811  SER814 

> <Gold.Protein.RotatedAtoms>
  152.1113  134.9272  160.0566 H   0  0  0  0  0  0  0  0  0  0  0  0  # atno 6907 bound_to 6896
  152.0449  133.3988  159.4360 H   0  0  0  0  0  0  0  0  0  0  0  0  # atno 6908 bound_to 6896
  150.6843  134.3294  159.4864 H   0  0  0  0  0  0  0  0  0  0  0  0  # atno 6909 bound_to 6896
  144.7328  139.9183  143.6419 H   0  0  0  0  0  0  0  0  0  0  0  0  # atno 7974 bound_to 7965
  155.2664  140.0438  157.3002 H   0  0  0  0  0  0  0  0  0  0  0  0  # atno 8008 bound_to 7997
  154.5680  140.2365  155.8204 H   0  0  0  0  0  0  0  0  0  0  0  0  # atno 8009 bound_to 7997
  156.2100  140.3001  155.9719 H   0  0  0  0  0  0  0  0  0  0  0  0  # atno 8010 bound_to 7997
  139.4867  144.5637  151.7185 H   0  0  0  0  0  0  0  0  0  0  0  0  # atno 10167 bound_to 10162
  157.5144  130.8522  149.8476 H   0  0  0  0  0  0  0  0  0  0  0  0  # atno 10718 bound_to 10713
  153.0230  135.6396  154.1455 H   0  0  0  0  0  0  0  0  0  0  0  0  # atno 10763 bound_to 10752
  154.1188  135.2848  155.3215 H   0  0  0  0  0  0  0  0  0  0  0  0  # atno 10764 bound_to 10752
  154.6278  135.5503  153.7709 H   0  0  0  0  0  0  0  0  0  0  0  0  # atno 10765 bound_to 10752
  139.9682  134.6945  156.0502 H   0  0  0  0  0  0  0  0  0  0  0  0  # atno 11005 bound_to 11000
  146.0949  139.3940  143.0383 LP  0  0  0  0  0  0  0  0  0  0  0  0  # atno 17320 bound_to 7965
  145.7660  140.9916  143.1175 LP  0  0  0  0  0  0  0  0  0  0  0  0  # atno 17321 bound_to 7965
  140.5211  144.0878  150.6023 LP  0  0  0  0  0  0  0  0  0  0  0  0  # atno 17342 bound_to 10162
  140.3836  143.2789  152.0142 LP  0  0  0  0  0  0  0  0  0  0  0  0  # atno 17343 bound_to 10162
  156.0310  130.3764  150.1687 LP  0  0  0  0  0  0  0  0  0  0  0  0  # atno 17370 bound_to 10713
  156.9876  130.9883  151.3422 LP  0  0  0  0  0  0  0  0  0  0  0  0  # atno 17371 bound_to 10713
  141.1361  133.6575  156.3599 LP  0  0  0  0  0  0  0  0  0  0  0  0  # atno 17394 bound_to 11000
  140.5351  134.6174  157.5362 LP  0  0  0  0  0  0  0  0  0  0  0  0  # atno 17395 bound_to 11000

$$$$
