AV-unprocessed.smi:248|AV-procd|sdf|1897|dock7
  -GOLD-   2262020563D 1   1.00000     0.00000
 Structure written by MMmdl.
 62 65  0  0  0  0  0  0  0  0  1 V2000
  152.3955  144.0919  161.4833 C   0  0  0  0  0  0  0  0  0  0  0  0
  152.8595  142.6285  161.4275 C   0  0  0  0  0  0  0  0  0  0  0  0
  153.8727  142.3459  162.5504 C   0  0  0  0  0  0  0  0  0  0  0  0
  153.3868  142.2835  160.0146 C   0  0  0  0  0  0  0  0  0  0  0  0
  152.3317  141.8266  159.0954 N   0  0  0  0  0  0  0  0  0  0  0  0
  151.2220  142.7735  158.9165 C   0  0  0  0  0  0  0  0  0  0  0  0
  150.4530  142.5511  157.6108 C   0  0  0  0  0  0  0  0  0  0  0  0
  150.1214  141.1398  157.4792 N   0  0  0  0  0  0  0  0  0  0  0  0
  149.2037  140.9000  156.5138 C   0  0  0  0  0  0  0  0  0  0  0  0
  149.5109  141.1359  155.2110 N   0  0  0  0  0  0  0  0  0  0  0  0
  148.6071  140.8879  154.2582 C   0  0  0  0  0  0  0  0  0  0  0  0
  147.3684  140.4067  154.3868 N   0  0  0  0  0  0  0  0  0  0  0  0
  147.0630  140.1641  155.6946 C   0  0  0  0  0  0  0  0  0  0  0  0
  147.9131  140.3903  156.8118 C   0  0  0  0  0  0  0  0  0  0  0  0
  147.2615  140.0429  157.9875 N   0  0  0  0  0  0  0  0  0  0  0  0
  146.0905  139.6288  157.5866 C   0  0  0  0  0  0  0  0  0  0  0  0
  145.8934  139.6439  156.2228 N   0  0  0  0  0  0  0  0  0  0  0  0
  144.6901  139.2417  155.5061 C   0  0  0  0  0  0  0  0  0  0  0  0
  144.4474  137.7050  155.3583 C   0  0  0  0  0  0  0  0  0  0  0  0
  143.2873  137.6021  154.3227 C   0  0  0  0  0  0  0  0  0  0  0  0
  143.5759  138.0667  153.0226 O   0  0  0  0  0  0  0  0  0  0  0  0
  145.7375  136.9945  154.8626 C   0  0  0  0  0  0  0  0  0  0  0  0
  145.7039  135.4616  155.0058 C   0  0  0  0  0  0  0  0  0  0  0  0
  145.4108  135.1061  156.3507 O   0  0  0  0  0  0  0  0  0  0  0  0
  144.1280  135.5507  156.7717 C   0  0  0  0  0  0  0  0  0  0  0  0
  144.0613  137.0895  156.7318 C   0  0  0  0  0  0  0  0  0  0  0  0
  151.2622  140.2130  157.4894 C   0  0  2  0  0  0  0  0  0  0  0  0
  150.7920  138.7696  157.7817 C   0  0  0  0  0  0  0  0  0  0  0  0
  152.3970  140.6300  158.4567 C   0  0  0  0  0  0  0  0  0  0  0  0
  153.3480  139.8604  158.6030 O   0  0  0  0  0  0  0  0  0  0  0  0
  153.2268  144.7771  161.3136 H   0  0  0  0  0  0  0  0  0  0  0  0
  151.9601  144.3307  162.4539 H   0  0  0  0  0  0  0  0  0  0  0  0
  151.6374  144.2945  160.7261 H   0  0  0  0  0  0  0  0  0  0  0  0
  151.9827  142.0080  161.6169 H   0  0  0  0  0  0  0  0  0  0  0  0
  154.8033  142.8912  162.3895 H   0  0  0  0  0  0  0  0  0  0  0  0
  154.1123  141.2850  162.6187 H   0  0  0  0  0  0  0  0  0  0  0  0
  153.4761  142.6454  163.5209 H   0  0  0  0  0  0  0  0  0  0  0  0
  153.8757  143.1607  159.5890 H   0  0  0  0  0  0  0  0  0  0  0  0
  154.1829  141.5414  160.0932 H   0  0  0  0  0  0  0  0  0  0  0  0
  150.5418  142.6521  159.7606 H   0  0  0  0  0  0  0  0  0  0  0  0
  151.5760  143.8044  158.9488 H   0  0  0  0  0  0  0  0  0  0  0  0
  149.5500  143.1641  157.6035 H   0  0  0  0  0  0  0  0  0  0  0  0
  151.0645  142.8683  156.7638 H   0  0  0  0  0  0  0  0  0  0  0  0
  148.9230  141.1033  153.2480 H   0  0  0  0  0  0  0  0  0  0  0  0
  145.3354  139.2891  158.2807 H   0  0  0  0  0  0  0  0  0  0  0  0
  143.8407  139.7033  156.0119 H   0  0  0  0  0  0  0  0  0  0  0  0
  144.7307  139.7062  154.5197 H   0  0  0  0  0  0  0  0  0  0  0  0
  142.9632  136.5652  154.2272 H   0  0  0  0  0  0  0  0  0  0  0  0
  142.4204  138.1611  154.6771 H   0  0  0  0  0  0  0  0  0  0  0  0
  143.5291  139.0106  153.0230 H   0  0  0  0  0  0  0  0  0  0  0  0
  145.9543  137.2729  153.8309 H   0  0  0  0  0  0  0  0  0  0  0  0
  146.5925  137.3245  155.4495 H   0  0  0  0  0  0  0  0  0  0  0  0
  144.9937  134.9963  154.3239 H   0  0  0  0  0  0  0  0  0  0  0  0
  146.6809  135.0512  154.7497 H   0  0  0  0  0  0  0  0  0  0  0  0
  143.3477  135.0859  156.1712 H   0  0  0  0  0  0  0  0  0  0  0  0
  143.9663  135.2066  157.7932 H   0  0  0  0  0  0  0  0  0  0  0  0
  144.7500  137.4361  157.4997 H   0  0  0  0  0  0  0  0  0  0  0  0
  143.0723  137.4313  157.0386 H   0  0  0  0  0  0  0  0  0  0  0  0
  151.7100  140.2238  156.4943 H   0  0  0  0  0  0  0  0  0  0  0  0
  151.6269  138.0686  157.8077 H   0  0  0  0  0  0  0  0  0  0  0  0
  150.1085  138.4021  157.0162 H   0  0  0  0  0  0  0  0  0  0  0  0
  150.2792  138.7091  158.7426 H   0  0  0  0  0  0  0  0  0  0  0  0
  1  2  1  0  0  0  0
  1 31  1  0  0  0  0
  1 32  1  0  0  0  0
  1 33  1  0  0  0  0
  2  3  1  0  0  0  0
  2  4  1  0  0  0  0
  2 34  1  0  0  0  0
  3 35  1  0  0  0  0
  3 36  1  0  0  0  0
  3 37  1  0  0  0  0
  4  5  1  0  0  0  0
  4 38  1  0  0  0  0
  4 39  1  0  0  0  0
  5 29  1  0  0  0  0
  5  6  1  0  0  0  0
  6  7  1  0  0  0  0
  6 40  1  0  0  0  0
  6 41  1  0  0  0  0
  7  8  1  0  0  0  0
  7 42  1  0  0  0  0
  7 43  1  0  0  0  0
  8  9  1  0  0  0  0
  8 27  1  0  0  0  0
  9 14  1  0  0  0  0
  9 10  2  0  0  0  0
 10 11  1  0  0  0  0
 11 12  2  0  0  0  0
 11 44  1  0  0  0  0
 12 13  1  0  0  0  0
 13 17  1  0  0  0  0
 13 14  2  0  0  0  0
 14 15  1  0  0  0  0
 15 16  2  0  0  0  0
 16 17  1  0  0  0  0
 16 45  1  0  0  0  0
 17 18  1  0  0  0  0
 18 19  1  0  0  0  0
 18 46  1  0  0  0  0
 18 47  1  0  0  0  0
 19 26  1  0  0  0  0
 19 20  1  0  0  0  0
 19 22  1  0  0  0  0
 20 21  1  0  0  0  0
 20 48  1  0  0  0  0
 20 49  1  0  0  0  0
 21 50  1  0  0  0  0
 22 23  1  0  0  0  0
 22 51  1  0  0  0  0
 22 52  1  0  0  0  0
 23 24  1  0  0  0  0
 23 53  1  0  0  0  0
 23 54  1  0  0  0  0
 24 25  1  0  0  0  0
 25 26  1  0  0  0  0
 25 55  1  0  0  0  0
 25 56  1  0  0  0  0
 26 57  1  0  0  0  0
 26 58  1  0  0  0  0
 27 28  1  0  0  0  0
 27 29  1  0  0  0  0
 27 59  1  0  0  0  0
 28 60  1  0  0  0  0
 28 61  1  0  0  0  0
 28 62  1  0  0  0  0
 29 30  2  0  0  0  0
M  END
> <s_m_source_file>
AV-unprocessed.smi

> <i_m_source_file_index>
248

> <i_lp_mmshare_version>
43012

> <i_f3d_flags>
0

> <s_epik_input>
W0NIM11bQ0hdKFtDSDNdKVtDSDJdTjFbQ0gyXVtDSDJdTihbQ0BASF0oW0NIM10pQzE9TyljKG5bY0hdbjIpYyhjMjMpbltjSF1uM1tDSDJdQzQoW0NIMl1bT0hdKVtDSDJdW0NIMl1PW0NIMl1bQ0gyXTQ=

> <s_epik_cmdline>
J2VwaWtfcHl0aG9uJywgJy1waCcsICc3LjAnLCAnLXRuJywgJzgnLCAnLW1hJywgJzIwMCcsICctbWV0YWxfYmluZGluZycsICctaW1hZScsICc8aW5maWxlLm1hZT4nLCAnLW9tYWUnLCAnPG91dGZpbGUubWFlPic=

> <r_lp_tautomer_probability>
1

> <r_epik_Ionization_Penalty>
0.000593973

> <r_epik_Ionization_Penalty_Charging>
0

> <r_epik_Ionization_Penalty_Neutral>
0.000593973

> <r_epik_State_Penalty>
0.000283267

> <r_epik_Charging_Adjusted_Penalty>
0.000283267

> <i_epik_Tot_Q>
0

> <i_epik_Tot_abs_Q>
0

> <r_epik_Metal_State_Penalty>
-0

> <b_epik_Metal_Only>
0

> <s_lp_Force_Field>
OPLS_2005

> <r_lp_Energy>
47.3368

> <b_lp_Chiralities_Consistent>
1

> <s_lp_Variant>
AV-unprocessed.smi:248-2

> <Gold.Version>
5.8.1

> <Gold.Id.Protein>
6NUR|6NUR_protein|mol2

> <Gold.PLP.Fitness>
46.8082

> <Gold.PLP.PLP>
-39.0694

> <Gold.PLP.part.hbond>
-3.6026

> <Gold.PLP.part.metal>
0.0000

> <Gold.PLP.part.buried>
-4.5320

> <Gold.PLP.part.nonpolar>
-29.7102

> <Gold.PLP.part.repulsive>
0.2940

> <Gold.PLP.ligand.clash>
0.0000

> <Gold.PLP.ligand.torsion>
0.8218

> <Gold.PLP.Chemscore.Hbond>
2.0000

> <Gold.PLP.Chemscore.CHOScore>
1.0000

> <Gold.PLP.Chemscore.Metal>
0.0000

> <Gold.Chemscore.Hbonds>
donor molecule, donor type, donor heavy atom, donor atom, acceptor molecule, acceptor atom, score
      L1  H    21    50       P1 10175  1.00
      P1  H  7997  8009       L1    30  1.00
      L1  C    11    44       P1  7957  1.00

> <Gold.PLP.Chemscore.Internal.Correction>
0.3823

> <Gold.Rescore>
     Score         DG    S(hbond)    S(metal)    S(lipo)     H(rot)  DE(clash)    DE(int)     intcor
     13.14     -13.94       1.92        0.00      77.67       2.75       0.00       0.79       ----

> <Gold.Chemscore.Fitness>
13.1446

> <Gold.Chemscore.DG>
-13.9360

> <Gold.Chemscore.ZeroCoef>
-5.4800

> <Gold.Chemscore.Hbond>
1.9206

> <Gold.Chemscore.Metal>
0.0000

> <Gold.Chemscore.Lipo>
77.6689

> <Gold.Chemscore.Internal_Hbond>
0.0000

> <Gold.Chemscore.DEClash>
0.0000

> <Gold.Chemscore.DEInternal>
0.7914

> <Gold.Chemscore.Rot>
2.7523

> <Gold.Chemscore.Internal.Correction>
   9.000000E+99

> <Gold.Chemscore.Hbonds>
donor molecule, donor type, donor heavy atom, donor atom, acceptor molecule, acceptor atom, score
      L1  H    21    50       P1 10175  0.93
      P1  H  7997  8009       L1    30  0.78

> <Gold.Chemscore.Hbond.Weighted>
-6.4147

> <Gold.Chemscore.Metal.Weighted>
-0.0000

> <Gold.Chemscore.Lipo.Weighted>
-9.0873

> <Gold.Chemscore.Internal_Hbond.Weighted>
0.0000

> <Gold.Chemscore.DEClash.Weighted>
0.0000

> <Gold.Chemscore.DEInternal.Weighted>
0.7914

> <Gold.Chemscore.Rot.Weighted>
7.0459

> <Gold.Chemscore.Internal.Correction.Weighted>
   9.000000E+99

> <Gold.Protein.RotatedTorsions>
[ 6907 6896 6895 6894 ] final  -54.95 input  -60.11 | X-H torsion
[ 7974 7965 7964 7962 ] final -144.83 input  175.53 | X-H torsion
[ 8008 7997 7996 7995 ] final  146.90 input   59.86 | X-H torsion
[ 10167 10162 10161 10158 ] final   34.34 input  -65.29 | X-H torsion
[ 10718 10713 10712 10709 ] final  -68.54 input   66.30 | X-H torsion
[ 10763 10752 10751 10750 ] final  164.80 input  -60.55 | X-H torsion
[ 11005 11000 10999 10996 ] final  -40.85 input  -57.11 | X-H torsion

> <Gold.Protein.ActiveResidues>
 VAL166  LYS551  ARG553  GLY616  TRP617  ASP618  TYR619  PRO620  LYS621  CYS622 
 ASP623  PHE694  ASN695  SER759  ASP760  ASP761  ALA762  ILE779  LEU786  VAL792 
 PHE793  MET794  SER795  GLU796  ALA797  LYS798  CYS799  TRP800  GLU811  SER814 

> <Gold.Protein.RotatedAtoms>
  150.8293  134.7539  159.6839 H   0  0  0  0  0  0  0  0  0  0  0  0  # atno 6907 bound_to 6896
  152.4400  134.5606  159.9903 H   0  0  0  0  0  0  0  0  0  0  0  0  # atno 6908 bound_to 6896
  151.5771  133.3345  159.3037 H   0  0  0  0  0  0  0  0  0  0  0  0  # atno 6909 bound_to 6896
  144.8270  140.5661  143.5540 H   0  0  0  0  0  0  0  0  0  0  0  0  # atno 7974 bound_to 7965
  156.2841  140.2170  156.5452 H   0  0  0  0  0  0  0  0  0  0  0  0  # atno 8008 bound_to 7997
  154.7337  140.0493  157.0771 H   0  0  0  0  0  0  0  0  0  0  0  0  # atno 8009 bound_to 7997
  155.0321  140.3136  155.4758 H   0  0  0  0  0  0  0  0  0  0  0  0  # atno 8010 bound_to 7997
  140.4324  144.1306  150.6161 H   0  0  0  0  0  0  0  0  0  0  0  0  # atno 10167 bound_to 10162
  156.0500  130.4296  150.2015 H   0  0  0  0  0  0  0  0  0  0  0  0  # atno 10718 bound_to 10713
  154.3144  135.2757  155.2550 H   0  0  0  0  0  0  0  0  0  0  0  0  # atno 10763 bound_to 10752
  154.4931  135.5828  153.6478 H   0  0  0  0  0  0  0  0  0  0  0  0  # atno 10764 bound_to 10752
  152.9884  135.6139  154.3324 H   0  0  0  0  0  0  0  0  0  0  0  0  # atno 10765 bound_to 10752
  141.0204  133.6865  156.2377 H   0  0  0  0  0  0  0  0  0  0  0  0  # atno 11005 bound_to 11000
  145.4978  139.1485  143.3674 LP  0  0  0  0  0  0  0  0  0  0  0  0  # atno 17320 bound_to 7965
  146.2575  140.5118  142.8867 LP  0  0  0  0  0  0  0  0  0  0  0  0  # atno 17321 bound_to 7965
  140.4412  143.2525  151.9470 LP  0  0  0  0  0  0  0  0  0  0  0  0  # atno 17342 bound_to 10162
  139.4785  144.5652  151.8176 LP  0  0  0  0  0  0  0  0  0  0  0  0  # atno 17343 bound_to 10162
  157.0100  130.9948  151.3368 LP  0  0  0  0  0  0  0  0  0  0  0  0  # atno 17370 bound_to 10713
  157.5416  130.8124  149.8036 LP  0  0  0  0  0  0  0  0  0  0  0  0  # atno 17371 bound_to 10713
  140.6583  134.4995  157.5582 LP  0  0  0  0  0  0  0  0  0  0  0  0  # atno 17394 bound_to 11000
  139.9142  134.8280  156.1422 LP  0  0  0  0  0  0  0  0  0  0  0  0  # atno 17395 bound_to 11000

$$$$
