AV-unprocessed.smi:1601|AV-procd|sdf|6431|dock9
  -GOLD-   22720 7 73D 1   1.00000     0.00000
 Structure written by MMmdl.
 41 42  0  0  0  0  0  0  0  0  1 V2000
  148.0191  140.9191  156.2320 C   0  0  0  0  0  0  0  0  0  0  0  0
  149.5417  140.6375  156.1513 C   0  0  2  0  0  0  0  0  0  0  0  0
  150.2633  141.9178  155.6471 C   0  0  0  0  0  0  0  0  0  0  0  0
  150.6569  142.8006  156.7394 N   0  0  0  0  0  0  0  0  0  0  0  0
  151.4080  142.4313  157.7874 C   0  0  0  0  0  0  0  0  0  0  0  0
  151.8299  141.2846  157.9418 O   0  0  0  0  0  0  0  0  0  0  0  0
  151.7237  143.5227  158.8237 C   0  0  2  0  0  0  0  0  0  0  0  0
  152.6635  144.5837  158.2094 C   0  0  0  0  0  0  0  0  0  0  0  0
  152.2398  142.9418  160.0682 N   0  0  0  0  0  0  0  0  0  0  0  0
  153.2544  142.0147  160.2368 C   0  0  0  0  0  0  0  0  0  0  0  0
  153.3291  141.7112  161.5657 C   0  0  0  0  0  0  0  0  0  0  0  0
  152.2856  142.4822  162.1447 C   0  0  0  0  0  0  0  0  0  0  0  0
  151.6260  143.1962  161.2487 N   0  0  0  0  0  0  0  0  0  0  0  0
  149.8564  139.4317  155.3495 N   0  0  0  0  0  0  0  0  0  0  0  0
  151.2987  139.2163  155.1854 C   0  0  0  0  0  0  0  0  0  0  0  0
  151.6264  137.9465  154.3803 C   0  0  0  0  0  0  0  0  0  0  0  0
  151.0315  136.8169  155.0033 O   0  0  0  0  0  0  0  0  0  0  0  0
  149.6208  136.9487  155.1096 C   0  0  0  0  0  0  0  0  0  0  0  0
  149.2793  138.2097  155.9219 C   0  0  0  0  0  0  0  0  0  0  0  0
  147.7896  141.8333  156.7781 H   0  0  0  0  0  0  0  0  0  0  0  0
  147.4804  140.1339  156.7603 H   0  0  0  0  0  0  0  0  0  0  0  0
  147.5840  141.0159  155.2367 H   0  0  0  0  0  0  0  0  0  0  0  0
  149.8868  140.4610  157.1714 H   0  0  0  0  0  0  0  0  0  0  0  0
  151.1836  141.6776  155.1165 H   0  0  0  0  0  0  0  0  0  0  0  0
  149.6198  142.4560  154.9489 H   0  0  0  0  0  0  0  0  0  0  0  0
  150.3474  143.7602  156.6874 H   0  0  0  0  0  0  0  0  0  0  0  0
  150.7888  144.0241  159.0801 H   0  0  0  0  0  0  0  0  0  0  0  0
  152.2900  144.9335  157.2461 H   0  0  0  0  0  0  0  0  0  0  0  0
  153.6681  144.1889  158.0508 H   0  0  0  0  0  0  0  0  0  0  0  0
  152.7471  145.4593  158.8541 H   0  0  0  0  0  0  0  0  0  0  0  0
  153.8405  141.6489  159.4065 H   0  0  0  0  0  0  0  0  0  0  0  0
  154.0164  141.0324  162.0482 H   0  0  0  0  0  0  0  0  0  0  0  0
  151.9821  142.5359  163.1799 H   0  0  0  0  0  0  0  0  0  0  0  0
  151.7558  140.0501  154.6563 H   0  0  0  0  0  0  0  0  0  0  0  0
  151.7779  139.1574  156.1637 H   0  0  0  0  0  0  0  0  0  0  0  0
  151.2691  138.0367  153.3531 H   0  0  0  0  0  0  0  0  0  0  0  0
  152.7051  137.7980  154.3312 H   0  0  0  0  0  0  0  0  0  0  0  0
  149.1746  136.9954  154.1149 H   0  0  0  0  0  0  0  0  0  0  0  0
  149.2172  136.0629  155.6001 H   0  0  0  0  0  0  0  0  0  0  0  0
  149.6262  138.0830  156.9486 H   0  0  0  0  0  0  0  0  0  0  0  0
  148.1937  138.2781  155.9607 H   0  0  0  0  0  0  0  0  0  0  0  0
  1  2  1  0  0  0  0
  1 20  1  0  0  0  0
  1 21  1  0  0  0  0
  1 22  1  0  0  0  0
  2  3  1  0  0  0  0
  2 14  1  0  0  0  0
  2 23  1  0  0  0  0
  3  4  1  0  0  0  0
  3 24  1  0  0  0  0
  3 25  1  0  0  0  0
  4  5  1  0  0  0  0
  4 26  1  0  0  0  0
  5  6  2  0  0  0  0
  5  7  1  0  0  0  0
  7  8  1  0  0  0  0
  7  9  1  0  0  0  0
  7 27  1  0  0  0  0
  8 28  1  0  0  0  0
  8 29  1  0  0  0  0
  8 30  1  0  0  0  0
  9 13  1  0  0  0  0
  9 10  1  0  0  0  0
 10 11  2  0  0  0  0
 10 31  1  0  0  0  0
 11 12  1  0  0  0  0
 11 32  1  0  0  0  0
 12 13  2  0  0  0  0
 12 33  1  0  0  0  0
 14 19  1  0  0  0  0
 14 15  1  0  0  0  0
 15 16  1  0  0  0  0
 15 34  1  0  0  0  0
 15 35  1  0  0  0  0
 16 17  1  0  0  0  0
 16 36  1  0  0  0  0
 16 37  1  0  0  0  0
 17 18  1  0  0  0  0
 18 19  1  0  0  0  0
 18 38  1  0  0  0  0
 18 39  1  0  0  0  0
 19 40  1  0  0  0  0
 19 41  1  0  0  0  0
M  END
> <s_m_source_file>
AV-unprocessed.smi

> <i_m_source_file_index>
1601

> <i_lp_mmshare_version>
43012

> <i_f3d_flags>
0

> <s_epik_input>
W0NIMl0xW0NIMl1PW0NIMl1bQ0gyXU4xW0NASF0oW0NIM10pW0NIMl1bTkhdQyg9TylbQ0BIXShbQ0gzXSluMltjSF1bY0hdW2NIXW4y

> <s_epik_cmdline>
J2VwaWtfcHl0aG9uJywgJy1waCcsICc3LjAnLCAnLXRuJywgJzgnLCAnLW1hJywgJzIwMCcsICctbWV0YWxfYmluZGluZycsICctaW1hZScsICc8aW5maWxlLm1hZT4nLCAnLW9tYWUnLCAnPG91dGZpbGUubWFlPic=

> <r_lp_tautomer_probability>
1

> <r_epik_Ionization_Penalty>
0.203323

> <r_epik_Ionization_Penalty_Charging>
0

> <r_epik_Ionization_Penalty_Neutral>
0.203323

> <r_epik_State_Penalty>
0.193192

> <r_epik_Charging_Adjusted_Penalty>
0.193192

> <i_epik_Tot_Q>
0

> <i_epik_Tot_abs_Q>
0

> <r_epik_Metal_State_Penalty>
0.193187

> <b_epik_Metal_Only>
0

> <s_lp_Force_Field>
OPLS_2005

> <r_lp_Energy>
34.8704

> <b_lp_Chiralities_Consistent>
1

> <s_lp_Variant>
AV-unprocessed.smi:1601-1

> <Gold.Version>
5.8.1

> <Gold.Id.Protein>
6NUR|6NUR_protein|mol2

> <Gold.PLP.Fitness>
46.5576

> <Gold.PLP.PLP>
-43.0987

> <Gold.PLP.part.hbond>
-2.6437

> <Gold.PLP.part.metal>
0.0000

> <Gold.PLP.part.buried>
-5.7229

> <Gold.PLP.part.nonpolar>
-34.8839

> <Gold.PLP.part.repulsive>
0.3040

> <Gold.PLP.ligand.clash>
0.0000

> <Gold.PLP.ligand.torsion>
0.8992

> <Gold.PLP.Chemscore.Hbond>
1.6910

> <Gold.PLP.Chemscore.CHOScore>
0.0000

> <Gold.PLP.Chemscore.Metal>
0.0000

> <Gold.Chemscore.Hbonds>
donor molecule, donor type, donor heavy atom, donor atom, acceptor molecule, acceptor atom, score
      L1  H     4    26       P1  8028  0.70
      P1  H 10752 10765       L1    17  0.12

> <Gold.PLP.Chemscore.Internal.Correction>
0.1844

> <Gold.Rescore>
     Score         DG    S(hbond)    S(metal)    S(lipo)     H(rot)  DE(clash)    DE(int)     intcor
     12.01     -15.32       0.91        0.00      97.26       1.79       0.12       3.19       ----

> <Gold.Chemscore.Fitness>
12.0083

> <Gold.Chemscore.DG>
-15.3164

> <Gold.Chemscore.ZeroCoef>
-5.4800

> <Gold.Chemscore.Hbond>
0.9077

> <Gold.Chemscore.Metal>
0.0000

> <Gold.Chemscore.Lipo>
97.2645

> <Gold.Chemscore.Internal_Hbond>
0.0000

> <Gold.Chemscore.DEClash>
0.1154

> <Gold.Chemscore.DEInternal>
3.1928

> <Gold.Chemscore.Rot>
1.7872

> <Gold.Chemscore.Internal.Correction>
   9.000000E+99

> <Gold.Chemscore.Hbonds>
donor molecule, donor type, donor heavy atom, donor atom, acceptor molecule, acceptor atom, score
      L1  H     4    26       P1  8028  0.66
      P1  H 10752 10765       L1    17  0.01

> <Gold.Chemscore.Hbond.Weighted>
-3.0317

> <Gold.Chemscore.Metal.Weighted>
-0.0000

> <Gold.Chemscore.Lipo.Weighted>
-11.3799

> <Gold.Chemscore.Internal_Hbond.Weighted>
0.0000

> <Gold.Chemscore.DEClash.Weighted>
0.1154

> <Gold.Chemscore.DEInternal.Weighted>
3.1928

> <Gold.Chemscore.Rot.Weighted>
4.5752

> <Gold.Chemscore.Internal.Correction.Weighted>
   9.000000E+99

> <Gold.Protein.RotatedTorsions>
[ 6907 6896 6895 6894 ] final  165.87 input  -60.11 | X-H torsion
[ 7974 7965 7964 7962 ] final  -67.48 input  175.53 | X-H torsion
[ 8008 7997 7996 7995 ] final -123.97 input   59.86 | X-H torsion
[ 10167 10162 10161 10158 ] final -112.29 input  -65.29 | X-H torsion
[ 10718 10713 10712 10709 ] final  -80.64 input   66.30 | X-H torsion
[ 10763 10752 10751 10750 ] final -164.16 input  -60.55 | X-H torsion
[ 11005 11000 10999 10996 ] final   95.42 input  -57.11 | X-H torsion

> <Gold.Protein.ActiveResidues>
 VAL166  LYS551  ARG553  GLY616  TRP617  ASP618  TYR619  PRO620  LYS621  CYS622 
 ASP623  PHE694  ASN695  SER759  ASP760  ASP761  ALA762  ILE779  LEU786  VAL792 
 PHE793  MET794  SER795  GLU796  ALA797  LYS798  CYS799  TRP800  GLU811  SER814 

> <Gold.Protein.RotatedAtoms>
  151.8877  133.3509  159.3787 H   0  0  0  0  0  0  0  0  0  0  0  0  # atno 6907 bound_to 6896
  150.7111  134.4955  159.5545 H   0  0  0  0  0  0  0  0  0  0  0  0  # atno 6908 bound_to 6896
  152.2519  134.8124  160.0495 H   0  0  0  0  0  0  0  0  0  0  0  0  # atno 6909 bound_to 6896
  145.7286  140.9007  143.0592 H   0  0  0  0  0  0  0  0  0  0  0  0  # atno 7974 bound_to 7965
  155.1892  140.0412  157.2897 H   0  0  0  0  0  0  0  0  0  0  0  0  # atno 8008 bound_to 7997
  154.6150  140.2486  155.7593 H   0  0  0  0  0  0  0  0  0  0  0  0  # atno 8009 bound_to 7997
  156.2401  140.2907  156.0431 H   0  0  0  0  0  0  0  0  0  0  0  0  # atno 8010 bound_to 7997
  140.1243  143.4416  152.1670 H   0  0  0  0  0  0  0  0  0  0  0  0  # atno 10167 bound_to 10162
  156.0066  130.4580  150.3832 H   0  0  0  0  0  0  0  0  0  0  0  0  # atno 10718 bound_to 10713
  154.7055  135.2996  154.9277 H   0  0  0  0  0  0  0  0  0  0  0  0  # atno 10763 bound_to 10752
  154.0195  135.6684  153.4775 H   0  0  0  0  0  0  0  0  0  0  0  0  # atno 10764 bound_to 10752
  153.0714  135.5059  154.8223 H   0  0  0  0  0  0  0  0  0  0  0  0  # atno 10765 bound_to 10752
  139.8789  134.8898  156.4008 H   0  0  0  0  0  0  0  0  0  0  0  0  # atno 11005 bound_to 11000
  144.6898  139.9300  143.7471 LP  0  0  0  0  0  0  0  0  0  0  0  0  # atno 17320 bound_to 7965
  146.0559  139.3556  143.0611 LP  0  0  0  0  0  0  0  0  0  0  0  0  # atno 17321 bound_to 7965
  139.5552  144.7367  151.4315 LP  0  0  0  0  0  0  0  0  0  0  0  0  # atno 17342 bound_to 10162
  140.6854  143.7986  150.7179 LP  0  0  0  0  0  0  0  0  0  0  0  0  # atno 17343 bound_to 10162
  157.1910  131.0415  151.2700 LP  0  0  0  0  0  0  0  0  0  0  0  0  # atno 17370 bound_to 10713
  157.4061  130.7359  149.6803 LP  0  0  0  0  0  0  0  0  0  0  0  0  # atno 17371 bound_to 10713
  140.9268  133.7607  155.9975 LP  0  0  0  0  0  0  0  0  0  0  0  0  # atno 17394 bound_to 11000
  140.8376  134.3104  157.5325 LP  0  0  0  0  0  0  0  0  0  0  0  0  # atno 17395 bound_to 11000

$$$$
