AV-unprocessed.smi:221|AV-procd|sdf|1687|dock7
  -GOLD-   2262020123D 1   1.00000     0.00000
 Structure written by MMmdl.
 50 53  0  0  0  0  0  0  0  0  1 V2000
  150.9117  138.1390  153.1704 N   0  0  0  0  0  0  0  0  0  0  0  0
  151.2726  138.3471  154.4406 C   0  0  0  0  0  0  0  0  0  0  0  0
  151.8715  137.4915  155.0889 O   0  0  0  0  0  0  0  0  0  0  0  0
  150.9019  139.6996  155.0840 C   0  0  1  0  0  0  0  0  0  0  0  0
  149.4237  140.1033  154.9785 C   0  0  0  0  0  0  0  0  0  0  0  0
  149.2726  141.1963  156.0431 C   0  0  1  0  0  0  0  0  0  0  0  0
  148.1946  140.9686  156.7942 F   0  0  0  0  0  0  0  0  0  0  0  0
  150.5596  141.1296  156.8832 C   0  0  0  0  0  0  0  0  0  0  0  0
  151.2529  139.9048  156.4958 N   0  0  0  0  0  0  0  0  0  0  0  0
  151.0661  138.9152  157.4079 C   0  0  0  0  0  0  0  0  0  0  0  0
  149.9363  138.1586  157.4069 N   0  0  0  0  0  0  0  0  0  0  0  0
  149.7664  137.2054  158.3279 C   0  0  0  0  0  0  0  0  0  0  0  0
  150.5827  136.8521  159.3234 N   0  0  0  0  0  0  0  0  0  0  0  0
  151.7145  137.6130  159.3292 C   0  0  0  0  0  0  0  0  0  0  0  0
  152.0309  138.6570  158.4161 C   0  0  0  0  0  0  0  0  0  0  0  0
  153.2671  139.2081  158.7283 N   0  0  0  0  0  0  0  0  0  0  0  0
  153.6621  138.5257  159.7684 C   0  0  0  0  0  0  0  0  0  0  0  0
  152.7934  137.5459  160.1932 N   0  0  0  0  0  0  0  0  0  0  0  0
  152.9893  136.6485  161.3179 C   0  0  0  0  0  0  0  0  0  0  0  0
  154.4060  136.0238  161.3536 C   0  0  2  0  0  0  0  0  0  0  0  0
  154.7539  135.2669  160.0486 C   0  0  0  0  0  0  0  0  0  0  0  0
  153.7694  134.3046  159.7307 O   0  0  0  0  0  0  0  0  0  0  0  0
  154.6152  135.1480  162.6150 C   0  0  2  0  0  0  0  0  0  0  0  0
  153.6917  133.9463  162.7164 C   0  0  0  0  0  0  0  0  0  0  0  0
  153.7887  133.5880  164.1951 C   0  0  0  0  0  0  0  0  0  0  0  0
  153.9940  134.8199  164.8769 O   0  0  0  0  0  0  0  0  0  0  0  0
  154.3012  135.8487  163.9413 C   0  0  0  0  0  0  0  0  0  0  0  0
  151.4832  140.4395  154.5308 H   0  0  0  0  0  0  0  0  0  0  0  0
  149.1493  142.1832  155.5964 H   0  0  0  0  0  0  0  0  0  0  0  0
  151.1399  137.2638  152.7218 H   0  0  0  0  0  0  0  0  0  0  0  0
  150.4127  138.8566  152.6649 H   0  0  0  0  0  0  0  0  0  0  0  0
  149.1658  140.4628  153.9819 H   0  0  0  0  0  0  0  0  0  0  0  0
  148.7694  139.2590  155.2012 H   0  0  0  0  0  0  0  0  0  0  0  0
  151.2088  141.9730  156.6447 H   0  0  0  0  0  0  0  0  0  0  0  0
  150.3485  141.1897  157.9532 H   0  0  0  0  0  0  0  0  0  0  0  0
  148.8438  136.6485  158.2587 H   0  0  0  0  0  0  0  0  0  0  0  0
  154.6068  138.7165  160.2571 H   0  0  0  0  0  0  0  0  0  0  0  0
  152.7980  137.2206  162.2256 H   0  0  0  0  0  0  0  0  0  0  0  0
  152.2281  135.8684  161.2822 H   0  0  0  0  0  0  0  0  0  0  0  0
  155.1121  136.8529  161.4223 H   0  0  0  0  0  0  0  0  0  0  0  0
  154.8529  135.9558  159.2100 H   0  0  0  0  0  0  0  0  0  0  0  0
  155.7163  134.7632  160.1361 H   0  0  0  0  0  0  0  0  0  0  0  0
  154.1221  133.7152  159.0816 H   0  0  0  0  0  0  0  0  0  0  0  0
  155.6457  134.7900  162.6464 H   0  0  0  0  0  0  0  0  0  0  0  0
  152.6678  134.2288  162.4668 H   0  0  0  0  0  0  0  0  0  0  0  0
  153.9856  133.1188  162.0701 H   0  0  0  0  0  0  0  0  0  0  0  0
  152.8991  133.0731  164.5582 H   0  0  0  0  0  0  0  0  0  0  0  0
  154.6508  132.9445  164.3746 H   0  0  0  0  0  0  0  0  0  0  0  0
  155.1297  136.4633  164.2946 H   0  0  0  0  0  0  0  0  0  0  0  0
  153.4243  136.4900  163.8423 H   0  0  0  0  0  0  0  0  0  0  0  0
  1  2  1  0  0  0  0
  1 30  1  0  0  0  0
  1 31  1  0  0  0  0
  2  3  2  0  0  0  0
  2  4  1  0  0  0  0
  4 28  1  0  0  0  0
  4  9  1  0  0  0  0
  4  5  1  0  0  0  0
  5  6  1  0  0  0  0
  5 32  1  0  0  0  0
  5 33  1  0  0  0  0
  6 29  1  0  0  0  0
  6  7  1  0  0  0  0
  6  8  1  0  0  0  0
  8  9  1  0  0  0  0
  8 34  1  0  0  0  0
  8 35  1  0  0  0  0
  9 10  1  0  0  0  0
 10 15  1  0  0  0  0
 10 11  2  0  0  0  0
 11 12  1  0  0  0  0
 12 13  2  0  0  0  0
 12 36  1  0  0  0  0
 13 14  1  0  0  0  0
 14 18  1  0  0  0  0
 14 15  2  0  0  0  0
 15 16  1  0  0  0  0
 16 17  2  0  0  0  0
 17 18  1  0  0  0  0
 17 37  1  0  0  0  0
 18 19  1  0  0  0  0
 19 20  1  0  0  0  0
 19 38  1  0  0  0  0
 19 39  1  0  0  0  0
 20 21  1  0  0  0  0
 20 23  1  0  0  0  0
 20 40  1  0  0  0  0
 21 22  1  0  0  0  0
 21 41  1  0  0  0  0
 21 42  1  0  0  0  0
 22 43  1  0  0  0  0
 23 27  1  0  0  0  0
 23 24  1  0  0  0  0
 23 44  1  0  0  0  0
 24 25  1  0  0  0  0
 24 45  1  0  0  0  0
 24 46  1  0  0  0  0
 25 26  1  0  0  0  0
 25 47  1  0  0  0  0
 25 48  1  0  0  0  0
 26 27  1  0  0  0  0
 27 49  1  0  0  0  0
 27 50  1  0  0  0  0
M  END
> <s_m_source_file>
AV-unprocessed.smi

> <i_m_source_file_index>
221

> <i_lp_mmshare_version>
43012

> <i_f3d_flags>
0

> <s_epik_input>
W05IMl1DKD1PKVtDQEBIXTFbQ0gyXVtDQEBIXShGKVtDSDJdTjFjKG5bY0hdbjIpYyhjMjMpbltjSF1uM1tDSDJdW0NASF0oW0NIMl1bT0hdKVtDQEBIXTRbQ0gyXVtDSDJdT1tDSDJdNA==

> <s_epik_cmdline>
J2VwaWtfcHl0aG9uJywgJy1waCcsICc3LjAnLCAnLXRuJywgJzgnLCAnLW1hJywgJzIwMCcsICctbWV0YWxfYmluZGluZycsICctaW1hZScsICc8aW5maWxlLm1hZT4nLCAnLW9tYWUnLCAnPG91dGZpbGUubWFlPic=

> <r_lp_tautomer_probability>
1

> <r_epik_Ionization_Penalty>
0.000818822

> <r_epik_Ionization_Penalty_Charging>
0

> <r_epik_Ionization_Penalty_Neutral>
0.000818822

> <r_epik_State_Penalty>
0.000440551

> <r_epik_Charging_Adjusted_Penalty>
0.000440551

> <i_epik_Tot_Q>
0

> <i_epik_Tot_abs_Q>
0

> <r_epik_Metal_State_Penalty>
-0

> <b_epik_Metal_Only>
0

> <s_lp_Force_Field>
OPLS_2005

> <r_lp_Energy>
55.6777

> <b_lp_Chiralities_Consistent>
1

> <s_lp_Variant>
AV-unprocessed.smi:221-2

> <Gold.Version>
5.8.1

> <Gold.Id.Protein>
6NUR|6NUR_protein|mol2

> <Gold.PLP.Fitness>
48.8214

> <Gold.PLP.PLP>
-34.4136

> <Gold.PLP.part.hbond>
-6.6926

> <Gold.PLP.part.metal>
0.0000

> <Gold.PLP.part.buried>
-0.7320

> <Gold.PLP.part.nonpolar>
-26.0036

> <Gold.PLP.part.repulsive>
0.2993

> <Gold.PLP.ligand.clash>
0.0000

> <Gold.PLP.ligand.torsion>
0.8775

> <Gold.PLP.Chemscore.Hbond>
5.3293

> <Gold.PLP.Chemscore.CHOScore>
0.0000

> <Gold.PLP.Chemscore.Metal>
0.0000

> <Gold.Chemscore.Hbonds>
donor molecule, donor type, donor heavy atom, donor atom, acceptor molecule, acceptor atom, score
      L1  H     1    30       P1  7949  1.00
      L1  H     1    31       P1  7957  0.94
      P1  H  6896  6908       L1    13  1.00
      P1  H  6896  6909       L1    22  0.13
      P1  H  7997  8010       L1    16  0.18
      P1  H 10752 10763       L1     3  0.42

> <Gold.PLP.Chemscore.Internal.Correction>
0.1750

> <Gold.Rescore>
     Score         DG    S(hbond)    S(metal)    S(lipo)     H(rot)  DE(clash)    DE(int)     intcor
     11.93     -15.71       3.90        0.00      57.61       3.72       1.67       2.11       ----

> <Gold.Chemscore.Fitness>
11.9287

> <Gold.Chemscore.DG>
-15.7090

> <Gold.Chemscore.ZeroCoef>
-5.4800

> <Gold.Chemscore.Hbond>
3.8958

> <Gold.Chemscore.Metal>
0.0000

> <Gold.Chemscore.Lipo>
57.6126

> <Gold.Chemscore.Internal_Hbond>
0.0000

> <Gold.Chemscore.DEClash>
1.6713

> <Gold.Chemscore.DEInternal>
2.1090

> <Gold.Chemscore.Rot>
3.7202

> <Gold.Chemscore.Internal.Correction>
   9.000000E+99

> <Gold.Chemscore.Hbonds>
donor molecule, donor type, donor heavy atom, donor atom, acceptor molecule, acceptor atom, score
      L1  H     1    30       P1  7949  0.45
      L1  H     1    31       P1  7957  0.23
      P1  H  6896  6908       L1    13  0.45
      P1  H  6896  6909       L1    22  0.10
      P1  H  7997  8010       L1    16  0.18
      P1  H 10752 10763       L1     3  0.42

> <Gold.Chemscore.Hbond.Weighted>
-13.0120

> <Gold.Chemscore.Metal.Weighted>
-0.0000

> <Gold.Chemscore.Lipo.Weighted>
-6.7407

> <Gold.Chemscore.Internal_Hbond.Weighted>
0.0000

> <Gold.Chemscore.DEClash.Weighted>
1.6713

> <Gold.Chemscore.DEInternal.Weighted>
2.1090

> <Gold.Chemscore.Rot.Weighted>
9.5237

> <Gold.Chemscore.Internal.Correction.Weighted>
   9.000000E+99

> <Gold.Protein.RotatedTorsions>
[ 6907 6896 6895 6894 ] final -142.49 input  -60.11 | X-H torsion
[ 7974 7965 7964 7962 ] final  -57.53 input  175.53 | X-H torsion
[ 8008 7997 7996 7995 ] final   44.42 input   59.86 | X-H torsion
[ 10167 10162 10161 10158 ] final  -22.37 input  -65.29 | X-H torsion
[ 10718 10713 10712 10709 ] final   55.15 input   66.30 | X-H torsion
[ 10763 10752 10751 10750 ] final   48.79 input  -60.55 | X-H torsion
[ 11005 11000 10999 10996 ] final -107.17 input  -57.11 | X-H torsion

> <Gold.Protein.ActiveResidues>
 VAL166  LYS551  ARG553  GLY616  TRP617  ASP618  TYR619  PRO620  LYS621  CYS622 
 ASP623  PHE694  ASN695  SER759  ASP760  ASP761  ALA762  ILE779  LEU786  VAL792 
 PHE793  MET794  SER795  GLU796  ALA797  LYS798  CYS799  TRP800  GLU811  SER814 

> <Gold.Protein.RotatedAtoms>
  151.0878  133.5340  159.2616 H   0  0  0  0  0  0  0  0  0  0  0  0  # atno 6907 bound_to 6896
  151.2218  135.0521  159.8963 H   0  0  0  0  0  0  0  0  0  0  0  0  # atno 6908 bound_to 6896
  152.5431  134.0679  159.8234 H   0  0  0  0  0  0  0  0  0  0  0  0  # atno 6909 bound_to 6896
  145.8499  140.8359  142.9991 H   0  0  0  0  0  0  0  0  0  0  0  0  # atno 7974 bound_to 7965
  155.3190  140.3395  155.4241 H   0  0  0  0  0  0  0  0  0  0  0  0  # atno 8008 bound_to 7997
  156.1918  140.1700  156.8113 H   0  0  0  0  0  0  0  0  0  0  0  0  # atno 8009 bound_to 7997
  154.5451  140.0717  156.8560 H   0  0  0  0  0  0  0  0  0  0  0  0  # atno 8010 bound_to 7997
  140.7285  143.4541  151.0474 H   0  0  0  0  0  0  0  0  0  0  0  0  # atno 10167 bound_to 10162
  157.5320  130.8637  149.8700 H   0  0  0  0  0  0  0  0  0  0  0  0  # atno 10718 bound_to 10713
  152.9790  135.5933  154.3983 H   0  0  0  0  0  0  0  0  0  0  0  0  # atno 10763 bound_to 10752
  154.3631  135.2767  155.2310 H   0  0  0  0  0  0  0  0  0  0  0  0  # atno 10764 bound_to 10752
  154.4299  135.6039  153.6117 H   0  0  0  0  0  0  0  0  0  0  0  0  # atno 10765 bound_to 10752
  141.0967  133.8957  157.1944 H   0  0  0  0  0  0  0  0  0  0  0  0  # atno 11005 bound_to 11000
  144.6729  140.0938  143.7464 LP  0  0  0  0  0  0  0  0  0  0  0  0  # atno 17320 bound_to 7965
  145.9369  139.2643  143.1292 LP  0  0  0  0  0  0  0  0  0  0  0  0  # atno 17321 bound_to 7965
  139.8219  143.7808  152.3177 LP  0  0  0  0  0  0  0  0  0  0  0  0  # atno 17342 bound_to 10162
  139.7893  144.7416  150.9977 LP  0  0  0  0  0  0  0  0  0  0  0  0  # atno 17343 bound_to 10162
  156.0429  130.3734  150.1389 LP  0  0  0  0  0  0  0  0  0  0  0  0  # atno 17370 bound_to 10713
  156.9573  130.9794  151.3486 LP  0  0  0  0  0  0  0  0  0  0  0  0  # atno 17371 bound_to 10713
  139.9806  135.0099  156.9741 LP  0  0  0  0  0  0  0  0  0  0  0  0  # atno 17394 bound_to 11000
  140.5121  134.0991  155.7273 LP  0  0  0  0  0  0  0  0  0  0  0  0  # atno 17395 bound_to 11000

$$$$
