AV-unprocessed.smi:44|AV-procd|sdf|400|dock1
  -GOLD-   2262016253D 1   1.00000     0.00000
 Structure written by MMmdl.
 29 31  0  0  0  0  0  0  0  0  3 V2000
  152.8301  140.2073  158.7001 O   0  0  0  0  0  0  0  0  0  0  0  0
  152.4511  140.0202  157.5459 C   0  0  0  0  0  0  0  0  0  0  0  0
  153.0197  139.2163  156.5904 N   0  5  0  0  0  0  0  0  0  0  0  0
  152.4790  139.1008  155.3144 C   0  0  0  0  0  0  0  0  0  0  0  0
  151.4314  139.6871  154.8532 N   0  0  0  0  0  0  0  0  0  0  0  0
  150.7763  140.5337  155.7600 C   0  0  0  0  0  0  0  0  0  0  0  0
  151.2230  140.7235  157.0471 C   0  0  0  0  0  0  0  0  0  0  0  0
  150.3937  141.5979  157.6970 N   0  3  0  0  0  0  0  0  0  0  0  0
  149.4810  141.8994  156.7734 C   0  0  0  0  0  0  0  0  0  0  0  0
  149.6481  141.2885  155.5623 N   0  0  0  0  0  0  0  0  0  0  0  0
  148.7901  141.4317  154.3495 C   0  0  2  0  0  0  0  0  0  0  0  0
  147.4239  142.0145  154.7289 C   0  0  0  0  0  0  0  0  0  0  0  0
  146.4885  141.1627  153.8991 C   0  0  0  0  0  0  0  0  0  0  0  0
  147.1978  139.8104  153.9413 C   0  0  1  0  0  0  0  0  0  0  0  0
  146.7877  138.8399  152.8249 C   0  0  0  0  0  0  0  0  0  0  0  0
  147.0299  139.4224  151.5624 O   0  0  0  0  0  0  0  0  0  0  0  0
  148.5714  140.1610  153.8075 O   0  0  0  0  0  0  0  0  0  0  0  0
  150.4574  141.9339  158.6494 H   0  0  0  0  0  0  0  0  0  0  0  0
  149.3619  142.0511  153.6573 H   0  0  0  0  0  0  0  0  0  0  0  0
  147.0561  139.3452  154.9183 H   0  0  0  0  0  0  0  0  0  0  0  0
  153.0590  138.4202  154.6861 H   0  0  0  0  0  0  0  0  0  0  0  0
  148.6682  142.5759  156.9649 H   0  0  0  0  0  0  0  0  0  0  0  0
  147.2284  141.8693  155.7927 H   0  0  0  0  0  0  0  0  0  0  0  0
  147.3711  143.0787  154.4982 H   0  0  0  0  0  0  0  0  0  0  0  0
  145.4758  141.1258  154.3012 H   0  0  0  0  0  0  0  0  0  0  0  0
  146.4395  141.5426  152.8775 H   0  0  0  0  0  0  0  0  0  0  0  0
  147.3303  137.8976  152.9048 H   0  0  0  0  0  0  0  0  0  0  0  0
  145.7248  138.6091  152.8995 H   0  0  0  0  0  0  0  0  0  0  0  0
  147.9108  139.7646  151.5533 H   0  0  0  0  0  0  0  0  0  0  0  0
  1  2  2  0  0  0  0
  2  7  1  0  0  0  0
  2  3  1  0  0  0  0
  3  4  1  0  0  0  0
  4 21  1  0  0  0  0
  4  5  2  0  0  0  0
  5  6  1  0  0  0  0
  6 10  1  0  0  0  0
  6  7  2  0  0  0  0
  7  8  1  0  0  0  0
  8  9  2  0  0  0  0
  8 18  1  0  0  0  0
  9 10  1  0  0  0  0
  9 22  1  0  0  0  0
 10 11  1  0  0  0  0
 11 19  1  0  0  0  0
 11 17  1  0  0  0  0
 11 12  1  0  0  0  0
 12 13  1  0  0  0  0
 12 23  1  0  0  0  0
 12 24  1  0  0  0  0
 13 14  1  0  0  0  0
 13 25  1  0  0  0  0
 13 26  1  0  0  0  0
 14 20  1  0  0  0  0
 14 15  1  0  0  0  0
 14 17  1  0  0  0  0
 15 16  1  0  0  0  0
 15 27  1  0  0  0  0
 15 28  1  0  0  0  0
 16 29  1  0  0  0  0
M  CHG  1   3  -1
M  CHG  1   8   1
M  END
> <s_m_source_file>
AV-unprocessed.smi

> <i_m_source_file_index>
44

> <i_lp_mmshare_version>
43012

> <i_f3d_flags>
0

> <s_epik_input>
bjFbY0hdW25IXWMoPU8pYyhjMTIpbltjSF1uMltDQEhdM1tDSDJdW0NIMl1bQ0BIXShPMylbQ0gyXVtPSF0=

> <s_epik_cmdline>
J2VwaWtfcHl0aG9uJywgJy1waCcsICc3LjAnLCAnLXRuJywgJzgnLCAnLW1hJywgJzIwMCcsICctbWV0YWxfYmluZGluZycsICctaW1hZScsICc8aW5maWxlLm1hZT4nLCAnLW9tYWUnLCAnPG91dGZpbGUubWFlPic=

> <r_lp_tautomer_probability>
0.144281

> <r_epik_Ionization_Penalty>
5.63685

> <r_epik_Ionization_Penalty_Charging>
5.58669

> <r_epik_Ionization_Penalty_Neutral>
0.0501585

> <r_epik_State_Penalty>
1.20809

> <r_epik_Charging_Adjusted_Penalty>
6.79478

> <i_epik_Tot_Q>
0

> <i_epik_Tot_abs_Q>
2

> <r_epik_Metal_State_Penalty>
1.52487

> <b_epik_Metal_Only>
0

> <s_epik_Chemistry_Notes>
This compound contains an acetal/aminal-like group ( X-CH(R)-Y where X, Y are N, S, or O) that may be acid/base labile, releasing an aldehyde.

> <s_lp_Force_Field>
OPLS_2005

> <r_lp_Energy>
45.8443

> <b_lp_Chiralities_Consistent>
1

> <s_lp_Variant>
AV-unprocessed.smi:44-6

> <Gold.Version>
5.8.1

> <Gold.Id.Protein>
6NUR|6NUR_protein|mol2

> <Gold.PLP.Fitness>
40.6060

> <Gold.PLP.PLP>
-27.5559

> <Gold.PLP.part.hbond>
-3.0936

> <Gold.PLP.part.metal>
0.0000

> <Gold.PLP.part.buried>
-2.0447

> <Gold.PLP.part.nonpolar>
-23.7878

> <Gold.PLP.part.repulsive>
2.0487

> <Gold.PLP.ligand.clash>
0.0000

> <Gold.PLP.ligand.torsion>
0.4424

> <Gold.PLP.Chemscore.Hbond>
4.0000

> <Gold.PLP.Chemscore.CHOScore>
0.6414

> <Gold.PLP.Chemscore.Metal>
0.0000

> <Gold.Chemscore.Hbonds>
donor molecule, donor type, donor heavy atom, donor atom, acceptor molecule, acceptor atom, score
      L1  H    16    29       P1  7957  1.00
      P1  H  7989  7998       L1     5  0.95
      P1  H  7997  8009       L1     3  1.90
      L1  C     9    22       P1  8028  0.66

> <Gold.PLP.Chemscore.Internal.Correction>
0.0107

> <Gold.Rescore>
     Score         DG    S(hbond)    S(metal)    S(lipo)     H(rot)  DE(clash)    DE(int)     intcor
      8.81      -9.39       1.91        0.00      28.67       2.27       0.29       0.29       ----

> <Gold.Chemscore.Fitness>
8.8100

> <Gold.Chemscore.DG>
-9.3908

> <Gold.Chemscore.ZeroCoef>
-5.4800

> <Gold.Chemscore.Hbond>
1.9079

> <Gold.Chemscore.Metal>
0.0000

> <Gold.Chemscore.Lipo>
28.6733

> <Gold.Chemscore.Internal_Hbond>
0.0000

> <Gold.Chemscore.DEClash>
0.2932

> <Gold.Chemscore.DEInternal>
0.2876

> <Gold.Chemscore.Rot>
2.2720

> <Gold.Chemscore.Internal.Correction>
   9.000000E+99

> <Gold.Chemscore.Hbonds>
donor molecule, donor type, donor heavy atom, donor atom, acceptor molecule, acceptor atom, score
      L1  H    16    29       P1  7957  1.00
      P1  H  7989  7998       L1     5  0.21
      P1  H  7997  8009       L1     3  0.05

> <Gold.Chemscore.Hbond.Weighted>
-6.3724

> <Gold.Chemscore.Metal.Weighted>
-0.0000

> <Gold.Chemscore.Lipo.Weighted>
-3.3548

> <Gold.Chemscore.Internal_Hbond.Weighted>
0.0000

> <Gold.Chemscore.DEClash.Weighted>
0.2932

> <Gold.Chemscore.DEInternal.Weighted>
0.2876

> <Gold.Chemscore.Rot.Weighted>
5.8164

> <Gold.Chemscore.Internal.Correction.Weighted>
   9.000000E+99

> <Gold.Protein.RotatedTorsions>
[ 6907 6896 6895 6894 ] final  120.23 input  -60.11 | X-H torsion
[ 7974 7965 7964 7962 ] final -130.53 input  175.53 | X-H torsion
[ 8008 7997 7996 7995 ] final -154.34 input   59.86 | X-H torsion
[ 10167 10162 10161 10158 ] final   12.46 input  -65.29 | X-H torsion
[ 10718 10713 10712 10709 ] final  -47.78 input   66.30 | X-H torsion
[ 10763 10752 10751 10750 ] final -129.61 input  -60.55 | X-H torsion
[ 11005 11000 10999 10996 ] final   60.35 input  -57.11 | X-H torsion

> <Gold.Protein.ActiveResidues>
 VAL166  LYS551  ARG553  GLY616  TRP617  ASP618  TYR619  PRO620  LYS621  CYS622 
 ASP623  PHE694  ASN695  SER759  ASP760  ASP761  ALA762  ILE779  LEU786  VAL792 
 PHE793  MET794  SER795  GLU796  ALA797  LYS798  CYS799  TRP800  GLU811  SER814 

> <Gold.Protein.RotatedAtoms>
  152.4414  133.7454  159.6664 H   0  0  0  0  0  0  0  0  0  0  0  0  # atno 6907 bound_to 6896
  150.8305  133.8089  159.3107 H   0  0  0  0  0  0  0  0  0  0  0  0  # atno 6908 bound_to 6896
  151.5744  135.1063  160.0054 H   0  0  0  0  0  0  0  0  0  0  0  0  # atno 6909 bound_to 6896
  144.9466  140.7298  143.4814 H   0  0  0  0  0  0  0  0  0  0  0  0  # atno 7974 bound_to 7965
  155.6848  140.0748  157.2471 H   0  0  0  0  0  0  0  0  0  0  0  0  # atno 8008 bound_to 7997
  154.4099  140.1675  156.2074 H   0  0  0  0  0  0  0  0  0  0  0  0  # atno 8009 bound_to 7997
  155.9503  140.3378  155.6405 H   0  0  0  0  0  0  0  0  0  0  0  0  # atno 8010 bound_to 7997
  140.6066  143.8494  150.7020 H   0  0  0  0  0  0  0  0  0  0  0  0  # atno 10167 bound_to 10162
  156.2051  130.4158  149.9189 H   0  0  0  0  0  0  0  0  0  0  0  0  # atno 10718 bound_to 10713
  154.8757  135.3890  154.3948 H   0  0  0  0  0  0  0  0  0  0  0  0  # atno 10763 bound_to 10752
  153.4679  135.7029  153.6016 H   0  0  0  0  0  0  0  0  0  0  0  0  # atno 10764 bound_to 10752
  153.4486  135.3839  155.2238 H   0  0  0  0  0  0  0  0  0  0  0  0  # atno 10765 bound_to 10752
  140.0238  134.6113  155.9602 H   0  0  0  0  0  0  0  0  0  0  0  0  # atno 11005 bound_to 11000
  145.2909  139.1884  143.4741 LP  0  0  0  0  0  0  0  0  0  0  0  0  # atno 17320 bound_to 7965
  146.3306  140.2885  142.8614 LP  0  0  0  0  0  0  0  0  0  0  0  0  # atno 17321 bound_to 7965
  140.2053  143.3926  152.1760 LP  0  0  0  0  0  0  0  0  0  0  0  0  # atno 17342 bound_to 10162
  139.5330  144.7179  151.4991 LP  0  0  0  0  0  0  0  0  0  0  0  0  # atno 17343 bound_to 10162
  156.6886  130.8886  151.3585 LP  0  0  0  0  0  0  0  0  0  0  0  0  # atno 17370 bound_to 10713
  157.7007  130.9330  150.0778 LP  0  0  0  0  0  0  0  0  0  0  0  0  # atno 17371 bound_to 10713
  141.1790  133.6544  156.4944 LP  0  0  0  0  0  0  0  0  0  0  0  0  # atno 17394 bound_to 11000
  140.4341  134.7075  157.4957 LP  0  0  0  0  0  0  0  0  0  0  0  0  # atno 17395 bound_to 11000

$$$$
