AV-unprocessed.smi:1460|AV-procd|sdf|5928|dock2
  -GOLD-   22720 6 13D 1   1.00000     0.00000
 Structure written by MMmdl.
 41 42  0  0  0  0  0  0  0  0  1 V2000
  153.1788  142.0640  161.2993 C   0  0  0  0  0  0  0  0  0  0  0  0
  153.9267  142.4329  160.0074 C   0  0  2  0  0  0  0  0  0  0  0  0
  154.0124  143.9567  159.7671 C   0  0  0  0  0  0  0  0  0  0  0  0
  152.7348  144.5520  159.4196 N   0  0  0  0  0  0  0  0  0  0  0  0
  151.5757  144.5887  160.1658 C   0  0  0  0  0  0  0  0  0  0  0  0
  150.6366  145.2480  159.4256 C   0  0  0  0  0  0  0  0  0  0  0  0
  151.3229  145.5744  158.2226 C   0  0  0  0  0  0  0  0  0  0  0  0
  152.5773  145.1535  158.2205 N   0  0  0  0  0  0  0  0  0  0  0  0
  153.2705  141.7850  158.8755 N   0  0  0  0  0  0  0  0  0  0  0  0
  153.8899  141.2985  157.7886 C   0  0  0  0  0  0  0  0  0  0  0  0
  155.1096  141.3475  157.6270 O   0  0  0  0  0  0  0  0  0  0  0  0
  152.9919  140.6617  156.7200 C   0  0  0  0  0  0  0  0  0  0  0  0
  153.5074  139.2574  156.3282 C   0  0  0  0  0  0  0  0  0  0  0  0
  152.6843  138.6699  155.1678 C   0  0  0  0  0  0  0  0  0  0  0  0
  152.7391  139.6018  154.0289 N   0  0  0  0  0  0  0  0  0  0  0  0
  153.4513  139.4321  152.8863 C   0  0  0  0  0  0  0  0  0  0  0  0
  154.1313  138.2845  152.8015 N   0  0  0  0  0  0  0  0  0  0  0  0
  153.4715  140.2470  151.9654 O   0  0  0  0  0  0  0  0  0  0  0  0
  152.0826  140.8747  154.3521 C   0  0  0  0  0  0  0  0  0  0  0  0
  152.8723  141.5719  155.4749 C   0  0  0  0  0  0  0  0  0  0  0  0
  153.6853  142.4564  162.1812 H   0  0  0  0  0  0  0  0  0  0  0  0
  153.1156  140.9820  161.4198 H   0  0  0  0  0  0  0  0  0  0  0  0
  152.1622  142.4588  161.2955 H   0  0  0  0  0  0  0  0  0  0  0  0
  154.9399  142.0362  160.0957 H   0  0  0  0  0  0  0  0  0  0  0  0
  154.3934  144.4633  160.6552 H   0  0  0  0  0  0  0  0  0  0  0  0
  154.7175  144.1697  158.9620 H   0  0  0  0  0  0  0  0  0  0  0  0
  151.5174  144.1502  161.1511 H   0  0  0  0  0  0  0  0  0  0  0  0
  149.6149  145.4626  159.7005 H   0  0  0  0  0  0  0  0  0  0  0  0
  150.9488  146.0994  157.3561 H   0  0  0  0  0  0  0  0  0  0  0  0
  152.2656  141.7005  158.9218 H   0  0  0  0  0  0  0  0  0  0  0  0
  151.9903  140.5418  157.1372 H   0  0  0  0  0  0  0  0  0  0  0  0
  154.5571  139.3060  156.0334 H   0  0  0  0  0  0  0  0  0  0  0  0
  153.4586  138.5883  157.1881 H   0  0  0  0  0  0  0  0  0  0  0  0
  153.0388  137.6659  154.9357 H   0  0  0  0  0  0  0  0  0  0  0  0
  151.6453  138.5433  155.4758 H   0  0  0  0  0  0  0  0  0  0  0  0
  154.6816  138.0847  151.9793 H   0  0  0  0  0  0  0  0  0  0  0  0
  154.0872  137.6205  153.5607 H   0  0  0  0  0  0  0  0  0  0  0  0
  151.9997  141.5368  153.4890 H   0  0  0  0  0  0  0  0  0  0  0  0
  151.0583  140.6830  154.6750 H   0  0  0  0  0  0  0  0  0  0  0  0
  152.3818  142.5086  155.7423 H   0  0  0  0  0  0  0  0  0  0  0  0
  153.8621  141.8382  155.1002 H   0  0  0  0  0  0  0  0  0  0  0  0
  1  2  1  0  0  0  0
  1 21  1  0  0  0  0
  1 22  1  0  0  0  0
  1 23  1  0  0  0  0
  2  3  1  0  0  0  0
  2  9  1  0  0  0  0
  2 24  1  0  0  0  0
  3  4  1  0  0  0  0
  3 25  1  0  0  0  0
  3 26  1  0  0  0  0
  4  8  1  0  0  0  0
  4  5  1  0  0  0  0
  5  6  2  0  0  0  0
  5 27  1  0  0  0  0
  6  7  1  0  0  0  0
  6 28  1  0  0  0  0
  7  8  2  0  0  0  0
  7 29  1  0  0  0  0
  9 10  1  0  0  0  0
  9 30  1  0  0  0  0
 10 11  2  0  0  0  0
 10 12  1  0  0  0  0
 12 20  1  0  0  0  0
 12 13  1  0  0  0  0
 12 31  1  0  0  0  0
 13 14  1  0  0  0  0
 13 32  1  0  0  0  0
 13 33  1  0  0  0  0
 14 15  1  0  0  0  0
 14 34  1  0  0  0  0
 14 35  1  0  0  0  0
 15 16  1  0  0  0  0
 15 19  1  0  0  0  0
 16 17  1  0  0  0  0
 16 18  2  0  0  0  0
 17 36  1  0  0  0  0
 17 37  1  0  0  0  0
 19 20  1  0  0  0  0
 19 38  1  0  0  0  0
 19 39  1  0  0  0  0
 20 40  1  0  0  0  0
 20 41  1  0  0  0  0
M  END
> <s_m_source_file>
AV-unprocessed.smi

> <i_m_source_file_index>
1460

> <i_lp_mmshare_version>
43012

> <i_f3d_flags>
0

> <s_epik_input>
bjFbY0hdW2NIXVtjSF1uMVtDSDJdW0NAQEhdKFtDSDNdKVtOSF1DKD1PKVtDSF0yW0NIMl1bQ0gyXU4oQyg9TylbTkgyXSlbQ0gyXVtDSDJdMg==

> <s_epik_cmdline>
J2VwaWtfcHl0aG9uJywgJy1waCcsICc3LjAnLCAnLXRuJywgJzgnLCAnLW1hJywgJzIwMCcsICctbWV0YWxfYmluZGluZycsICctaW1hZScsICc8aW5maWxlLm1hZT4nLCAnLW9tYWUnLCAnPG91dGZpbGUubWFlPic=

> <r_lp_tautomer_probability>
1

> <r_epik_Ionization_Penalty>
0.000387527

> <r_epik_Ionization_Penalty_Charging>
0

> <r_epik_Ionization_Penalty_Neutral>
0.000387527

> <r_epik_State_Penalty>
-0

> <r_epik_Charging_Adjusted_Penalty>
0

> <i_epik_Tot_Q>
0

> <i_epik_Tot_abs_Q>
0

> <r_epik_Metal_State_Penalty>
-0

> <b_epik_Metal_Only>
0

> <s_lp_Force_Field>
OPLS_2005

> <r_lp_Energy>
26.2675

> <b_lp_Chiralities_Consistent>
1

> <s_lp_Variant>
AV-unprocessed.smi:1460-1

> <Gold.Version>
5.8.1

> <Gold.Id.Protein>
6NUR|6NUR_protein|mol2

> <Gold.PLP.Fitness>
42.1553

> <Gold.PLP.PLP>
-34.3959

> <Gold.PLP.part.hbond>
-2.0000

> <Gold.PLP.part.metal>
0.0000

> <Gold.PLP.part.buried>
-5.7026

> <Gold.PLP.part.nonpolar>
-27.3035

> <Gold.PLP.part.repulsive>
0.4253

> <Gold.PLP.ligand.clash>
0.0000

> <Gold.PLP.ligand.torsion>
0.6578

> <Gold.PLP.Chemscore.Hbond>
2.0000

> <Gold.PLP.Chemscore.CHOScore>
1.0000

> <Gold.PLP.Chemscore.Metal>
0.0000

> <Gold.PLP.Chemscore.Internal.Correction>
0.0750

> <Gold.Rescore>
     Score         DG    S(hbond)    S(metal)    S(lipo)     H(rot)  DE(clash)    DE(int)     intcor
     15.96     -17.02       1.98        0.00      82.00       1.82       0.32       0.74       ----

> <Gold.Chemscore.Fitness>
15.9596

> <Gold.Chemscore.DG>
-17.0159

> <Gold.Chemscore.ZeroCoef>
-5.4800

> <Gold.Chemscore.Hbond>
1.9767

> <Gold.Chemscore.Metal>
0.0000

> <Gold.Chemscore.Lipo>
82.0029

> <Gold.Chemscore.Internal_Hbond>
0.0000

> <Gold.Chemscore.DEClash>
0.3185

> <Gold.Chemscore.DEInternal>
0.7378

> <Gold.Chemscore.Rot>
1.8206

> <Gold.Chemscore.Internal.Correction>
   9.000000E+99

> <Gold.Chemscore.Hbond.Weighted>
-6.6023

> <Gold.Chemscore.Metal.Weighted>
-0.0000

> <Gold.Chemscore.Lipo.Weighted>
-9.5943

> <Gold.Chemscore.Internal_Hbond.Weighted>
0.0000

> <Gold.Chemscore.DEClash.Weighted>
0.3185

> <Gold.Chemscore.DEInternal.Weighted>
0.7378

> <Gold.Chemscore.Rot.Weighted>
4.6607

> <Gold.Chemscore.Internal.Correction.Weighted>
   9.000000E+99

> <Gold.Protein.RotatedTorsions>
[ 6907 6896 6895 6894 ] final   47.40 input  -60.11 | X-H torsion
[ 7974 7965 7964 7962 ] final   44.20 input  175.53 | X-H torsion
[ 8008 7997 7996 7995 ] final  -66.48 input   59.86 | X-H torsion
[ 10167 10162 10161 10158 ] final  146.70 input  -65.29 | X-H torsion
[ 10718 10713 10712 10709 ] final -124.48 input   66.30 | X-H torsion
[ 10763 10752 10751 10750 ] final  150.99 input  -60.55 | X-H torsion
[ 11005 11000 10999 10996 ] final -155.29 input  -57.11 | X-H torsion

> <Gold.Protein.ActiveResidues>
 VAL166  LYS551  ARG553  GLY616  TRP617  ASP618  TYR619  PRO620  LYS621  CYS622 
 ASP623  PHE694  ASN695  SER759  ASP760  ASP761  ALA762  ILE779  LEU786  VAL792 
 PHE793  MET794  SER795  GLU796  ALA797  LYS798  CYS799  TRP800  GLU811  SER814 

> <Gold.Protein.RotatedAtoms>
  152.2676  134.7968  160.0419 H   0  0  0  0  0  0  0  0  0  0  0  0  # atno 6907 bound_to 6896
  151.8592  133.3449  159.3706 H   0  0  0  0  0  0  0  0  0  0  0  0  # atno 6908 bound_to 6896
  150.7139  134.5151  159.5670 H   0  0  0  0  0  0  0  0  0  0  0  0  # atno 6909 bound_to 6896
  146.0589  139.5101  142.9670 H   0  0  0  0  0  0  0  0  0  0  0  0  # atno 7974 bound_to 7965
  154.4737  140.0912  156.7209 H   0  0  0  0  0  0  0  0  0  0  0  0  # atno 8008 bound_to 7997
  155.4654  140.3462  155.4300 H   0  0  0  0  0  0  0  0  0  0  0  0  # atno 8009 bound_to 7997
  156.1081  140.1440  156.9364 H   0  0  0  0  0  0  0  0  0  0  0  0  # atno 8010 bound_to 7997
  139.4902  144.5810  151.6871 H   0  0  0  0  0  0  0  0  0  0  0  0  # atno 10167 bound_to 10162
  156.1591  130.6589  151.0024 H   0  0  0  0  0  0  0  0  0  0  0  0  # atno 10718 bound_to 10713
  154.0964  135.2849  155.3261 H   0  0  0  0  0  0  0  0  0  0  0  0  # atno 10763 bound_to 10752
  154.6585  135.5343  153.7992 H   0  0  0  0  0  0  0  0  0  0  0  0  # atno 10764 bound_to 10752
  153.0394  135.6528  154.1130 H   0  0  0  0  0  0  0  0  0  0  0  0  # atno 10765 bound_to 10752
  140.6880  134.4072  157.5221 H   0  0  0  0  0  0  0  0  0  0  0  0  # atno 11005 bound_to 11000
  145.6594  141.0244  143.1717 LP  0  0  0  0  0  0  0  0  0  0  0  0  # atno 17320 bound_to 7965
  144.7164  139.8183  143.7397 LP  0  0  0  0  0  0  0  0  0  0  0  0  # atno 17321 bound_to 7965
  140.5416  144.0570  150.6091 LP  0  0  0  0  0  0  0  0  0  0  0  0  # atno 17342 bound_to 10162
  140.3594  143.2917  152.0401 LP  0  0  0  0  0  0  0  0  0  0  0  0  # atno 17343 bound_to 10162
  157.6718  131.0859  150.7592 LP  0  0  0  0  0  0  0  0  0  0  0  0  # atno 17370 bound_to 10713
  156.7656  130.4812  149.5428 LP  0  0  0  0  0  0  0  0  0  0  0  0  # atno 17371 bound_to 10713
  139.8932  134.8737  156.2236 LP  0  0  0  0  0  0  0  0  0  0  0  0  # atno 17394 bound_to 11000
  141.0264  133.7013  156.1355 LP  0  0  0  0  0  0  0  0  0  0  0  0  # atno 17395 bound_to 11000

$$$$
