AV-unprocessed.smi:3161|AV-procd|sdf|12060|dock6
  -GOLD-   2272017483D 1   1.00000     0.00000
 Structure written by MMmdl.
 40 41  0  0  0  0  0  0  0  0  1 V2000
  150.6847  136.4090  155.3374 C   0  0  0  0  0  0  0  0  0  0  0  0
  150.6588  137.9053  155.2168 C   0  0  0  0  0  0  0  0  0  0  0  0
  150.2699  138.6857  154.0915 C   0  0  0  0  0  0  0  0  0  0  0  0
  150.3588  139.9869  154.3126 N   0  0  0  0  0  0  0  0  0  0  0  0
  150.8243  140.0853  155.5766 N   0  0  0  0  0  0  0  0  0  0  0  0
  151.0243  141.3928  156.1806 C   0  0  0  0  0  0  0  0  0  0  0  0
  149.8568  141.8632  157.0854 C   0  0  1  0  0  0  0  0  0  0  0  0
  148.8540  140.7203  157.2996 C   0  0  0  0  0  0  0  0  0  0  0  0
  150.3016  142.3462  158.3989 N   0  0  0  0  0  0  0  0  0  0  0  0
  151.2127  143.4896  158.3905 C   0  0  0  0  0  0  0  0  0  0  0  0
  152.2722  143.3673  159.4953 C   0  0  2  0  0  0  0  0  0  0  0  0
  152.8995  141.9593  159.5647 C   0  0  0  0  0  0  0  0  0  0  0  0
  153.8761  141.8621  160.7421 C   0  0  0  0  0  0  0  0  0  0  0  0
  153.1748  142.2990  162.0324 C   0  0  0  0  0  0  0  0  0  0  0  0
  152.5251  143.6790  161.8452 C   0  0  0  0  0  0  0  0  0  0  0  0
  151.6303  143.6486  160.7372 O   0  0  0  0  0  0  0  0  0  0  0  0
  150.9953  138.8432  156.1514 C   0  0  0  0  0  0  0  0  0  0  0  0
  150.0711  135.9305  154.5736 H   0  0  0  0  0  0  0  0  0  0  0  0
  150.3095  136.0756  156.3052 H   0  0  0  0  0  0  0  0  0  0  0  0
  151.6957  136.0155  155.2306 H   0  0  0  0  0  0  0  0  0  0  0  0
  149.9224  138.3461  153.1270 H   0  0  0  0  0  0  0  0  0  0  0  0
  151.9424  141.3273  156.7660 H   0  0  0  0  0  0  0  0  0  0  0  0
  151.2194  142.1241  155.3949 H   0  0  0  0  0  0  0  0  0  0  0  0
  149.3116  142.6614  156.5804 H   0  0  0  0  0  0  0  0  0  0  0  0
  148.4432  140.3751  156.3505 H   0  0  0  0  0  0  0  0  0  0  0  0
  148.0154  141.0415  157.9183 H   0  0  0  0  0  0  0  0  0  0  0  0
  149.3226  139.8659  157.7897 H   0  0  0  0  0  0  0  0  0  0  0  0
  149.4887  142.5717  158.9635 H   0  0  0  0  0  0  0  0  0  0  0  0
  151.7264  143.5413  157.4324 H   0  0  0  0  0  0  0  0  0  0  0  0
  150.6610  144.4234  158.5056 H   0  0  0  0  0  0  0  0  0  0  0  0
  153.0487  144.1167  159.3285 H   0  0  0  0  0  0  0  0  0  0  0  0
  152.1143  141.2108  159.6796 H   0  0  0  0  0  0  0  0  0  0  0  0
  153.4192  141.7264  158.6349 H   0  0  0  0  0  0  0  0  0  0  0  0
  154.2560  140.8448  160.8396 H   0  0  0  0  0  0  0  0  0  0  0  0
  154.7383  142.5040  160.5573 H   0  0  0  0  0  0  0  0  0  0  0  0
  152.4092  141.5695  162.2990 H   0  0  0  0  0  0  0  0  0  0  0  0
  153.8857  142.3238  162.8588 H   0  0  0  0  0  0  0  0  0  0  0  0
  151.9676  143.9550  162.7402 H   0  0  0  0  0  0  0  0  0  0  0  0
  153.2832  144.4485  161.6930 H   0  0  0  0  0  0  0  0  0  0  0  0
  151.3459  138.7309  157.1669 H   0  0  0  0  0  0  0  0  0  0  0  0
  1  2  1  0  0  0  0
  1 18  1  0  0  0  0
  1 19  1  0  0  0  0
  1 20  1  0  0  0  0
  2 17  2  0  0  0  0
  2  3  1  0  0  0  0
  3  4  2  0  0  0  0
  3 21  1  0  0  0  0
  4  5  1  0  0  0  0
  5  6  1  0  0  0  0
  5 17  1  0  0  0  0
  6  7  1  0  0  0  0
  6 22  1  0  0  0  0
  6 23  1  0  0  0  0
  7  8  1  0  0  0  0
  7  9  1  0  0  0  0
  7 24  1  0  0  0  0
  8 25  1  0  0  0  0
  8 26  1  0  0  0  0
  8 27  1  0  0  0  0
  9 10  1  0  0  0  0
  9 28  1  0  0  0  0
 10 11  1  0  0  0  0
 10 29  1  0  0  0  0
 10 30  1  0  0  0  0
 11 16  1  0  0  0  0
 11 12  1  0  0  0  0
 11 31  1  0  0  0  0
 12 13  1  0  0  0  0
 12 32  1  0  0  0  0
 12 33  1  0  0  0  0
 13 14  1  0  0  0  0
 13 34  1  0  0  0  0
 13 35  1  0  0  0  0
 14 15  1  0  0  0  0
 14 36  1  0  0  0  0
 14 37  1  0  0  0  0
 15 16  1  0  0  0  0
 15 38  1  0  0  0  0
 15 39  1  0  0  0  0
 17 40  1  0  0  0  0
M  END
> <s_m_source_file>
AV-unprocessed.smi

> <i_m_source_file_index>
3161

> <i_lp_mmshare_version>
43012

> <i_f3d_flags>
0

> <s_epik_input>
W0NIM11jMVtjSF1ubihbY0hdMSlbQ0gyXVtDQEhdKFtDSDNdKVtOSF1bQ0gyXVtDQEBIXTJbQ0gyXVtDSDJdW0NIMl1bQ0gyXU8y

> <s_epik_cmdline>
J2VwaWtfcHl0aG9uJywgJy1waCcsICc3LjAnLCAnLXRuJywgJzgnLCAnLW1hJywgJzIwMCcsICctbWV0YWxfYmluZGluZycsICctaW1hZScsICc8aW5maWxlLm1hZT4nLCAnLW9tYWUnLCAnPG91dGZpbGUubWFlPic=

> <r_lp_tautomer_probability>
1

> <r_epik_Ionization_Penalty>
2.51986

> <r_epik_Ionization_Penalty_Charging>
0

> <r_epik_Ionization_Penalty_Neutral>
2.51986

> <r_epik_State_Penalty>
2.68614

> <r_epik_Charging_Adjusted_Penalty>
2.68614

> <i_epik_Tot_Q>
0

> <i_epik_Tot_abs_Q>
0

> <r_epik_Metal_State_Penalty>
2.68606

> <b_epik_Metal_Only>
0

> <s_lp_Force_Field>
OPLS_2005

> <r_lp_Energy>
14.6841

> <b_lp_Chiralities_Consistent>
1

> <s_lp_Variant>
AV-unprocessed.smi:3161-6

> <Gold.Version>
5.8.1

> <Gold.Id.Protein>
6NUR|6NUR_protein|mol2

> <Gold.PLP.Fitness>
44.8643

> <Gold.PLP.PLP>
-39.8502

> <Gold.PLP.part.hbond>
-1.0000

> <Gold.PLP.part.metal>
0.0000

> <Gold.PLP.part.buried>
-5.7368

> <Gold.PLP.part.nonpolar>
-33.1948

> <Gold.PLP.part.repulsive>
0.2329

> <Gold.PLP.ligand.clash>
0.0000

> <Gold.PLP.ligand.torsion>
1.3547

> <Gold.PLP.Chemscore.Hbond>
1.0000

> <Gold.PLP.Chemscore.CHOScore>
1.5581

> <Gold.PLP.Chemscore.Metal>
0.0000

> <Gold.Chemscore.Hbonds>
donor molecule, donor type, donor heavy atom, donor atom, acceptor molecule, acceptor atom, score
      P1  H  7989  7998       L1     4  0.95
      L1  C     3    21       P1  7948  0.82
      L1  C     3    21       P1  7957  0.69

> <Gold.PLP.Chemscore.Internal.Correction>
0.0492

> <Gold.Rescore>
     Score         DG    S(hbond)    S(metal)    S(lipo)     H(rot)  DE(clash)    DE(int)     intcor
     15.08     -17.26       0.94        0.00     106.81       1.50       0.00       2.18       ----

> <Gold.Chemscore.Fitness>
15.0755

> <Gold.Chemscore.DG>
-17.2575

> <Gold.Chemscore.ZeroCoef>
-5.4800

> <Gold.Chemscore.Hbond>
0.9367

> <Gold.Chemscore.Metal>
0.0000

> <Gold.Chemscore.Lipo>
106.8087

> <Gold.Chemscore.Internal_Hbond>
0.0000

> <Gold.Chemscore.DEClash>
0.0009

> <Gold.Chemscore.DEInternal>
2.1811

> <Gold.Chemscore.Rot>
1.5030

> <Gold.Chemscore.Internal.Correction>
   9.000000E+99

> <Gold.Chemscore.Hbonds>
donor molecule, donor type, donor heavy atom, donor atom, acceptor molecule, acceptor atom, score
      P1  H  7989  7998       L1     4  0.20

> <Gold.Chemscore.Hbond.Weighted>
-3.1286

> <Gold.Chemscore.Metal.Weighted>
-0.0000

> <Gold.Chemscore.Lipo.Weighted>
-12.4966

> <Gold.Chemscore.Internal_Hbond.Weighted>
0.0000

> <Gold.Chemscore.DEClash.Weighted>
0.0009

> <Gold.Chemscore.DEInternal.Weighted>
2.1811

> <Gold.Chemscore.Rot.Weighted>
3.8477

> <Gold.Chemscore.Internal.Correction.Weighted>
   9.000000E+99

> <Gold.Protein.RotatedTorsions>
[ 6907 6896 6895 6894 ] final  133.31 input  -60.11 | X-H torsion
[ 7974 7965 7964 7962 ] final  175.59 input  175.53 | X-H torsion
[ 8008 7997 7996 7995 ] final -148.19 input   59.86 | X-H torsion
[ 10167 10162 10161 10158 ] final   14.08 input  -65.29 | X-H torsion
[ 10718 10713 10712 10709 ] final -144.29 input   66.30 | X-H torsion
[ 10763 10752 10751 10750 ] final   15.89 input  -60.55 | X-H torsion
[ 11005 11000 10999 10996 ] final  -52.78 input  -57.11 | X-H torsion

> <Gold.Protein.ActiveResidues>
 VAL166  LYS551  ARG553  GLY616  TRP617  ASP618  TYR619  PRO620  LYS621  CYS622 
 ASP623  PHE694  ASN695  SER759  ASP760  ASP761  ALA762  ILE779  LEU786  VAL792 
 PHE793  MET794  SER795  GLU796  ALA797  LYS798  CYS799  TRP800  GLU811  SER814 

> <Gold.Protein.RotatedAtoms>
  152.3233  133.5877  159.5759 H   0  0  0  0  0  0  0  0  0  0  0  0  # atno 6907 bound_to 6896
  150.7383  133.9978  159.3637 H   0  0  0  0  0  0  0  0  0  0  0  0  # atno 6908 bound_to 6896
  151.7861  135.0749  160.0431 H   0  0  0  0  0  0  0  0  0  0  0  0  # atno 6909 bound_to 6896
  144.7199  139.9970  143.6440 H   0  0  0  0  0  0  0  0  0  0  0  0  # atno 7974 bound_to 7965
  155.5877  140.0649  157.2767 H   0  0  0  0  0  0  0  0  0  0  0  0  # atno 8008 bound_to 7997
  154.4314  140.1841  156.1089 H   0  0  0  0  0  0  0  0  0  0  0  0  # atno 8009 bound_to 7997
  156.0256  140.3312  155.7089 H   0  0  0  0  0  0  0  0  0  0  0  0  # atno 8010 bound_to 7997
  140.5960  143.8701  150.6918 H   0  0  0  0  0  0  0  0  0  0  0  0  # atno 10167 bound_to 10162
  156.3683  130.7774  151.1952 H   0  0  0  0  0  0  0  0  0  0  0  0  # atno 10718 bound_to 10713
  153.1482  135.6773  153.8922 H   0  0  0  0  0  0  0  0  0  0  0  0  # atno 10763 bound_to 10752
  153.8357  135.3112  155.3423 H   0  0  0  0  0  0  0  0  0  0  0  0  # atno 10764 bound_to 10752
  154.7842  135.4872  153.9994 H   0  0  0  0  0  0  0  0  0  0  0  0  # atno 10765 bound_to 10752
  141.0942  133.6627  156.4075 H   0  0  0  0  0  0  0  0  0  0  0  0  # atno 11005 bound_to 11000
  146.0366  139.3383  143.0723 LP  0  0  0  0  0  0  0  0  0  0  0  0  # atno 17320 bound_to 7965
  145.8386  140.9592  143.0811 LP  0  0  0  0  0  0  0  0  0  0  0  0  # atno 17321 bound_to 7965
  140.2235  143.3790  152.1623 LP  0  0  0  0  0  0  0  0  0  0  0  0  # atno 17342 bound_to 10162
  139.5258  144.7101  151.5234 LP  0  0  0  0  0  0  0  0  0  0  0  0  # atno 17343 bound_to 10162
  157.7481  131.0380  150.4481 LP  0  0  0  0  0  0  0  0  0  0  0  0  # atno 17370 bound_to 10713
  156.4703  130.4051  149.6522 LP  0  0  0  0  0  0  0  0  0  0  0  0  # atno 17371 bound_to 10713
  140.5179  134.6332  157.5308 LP  0  0  0  0  0  0  0  0  0  0  0  0  # atno 17394 bound_to 11000
  139.9775  134.7191  155.9922 LP  0  0  0  0  0  0  0  0  0  0  0  0  # atno 17395 bound_to 11000

$$$$
