AV-unprocessed.smi:1873|AV-procd|sdf|7608|dock9
  -GOLD-   22720 9323D 1   1.00000     0.00000
 Structure written by MMmdl.
 36 38  0  0  0  0  0  0  0  0  1 V2000
  149.4330  140.0469  154.0659 O   0  0  0  0  0  0  0  0  0  0  0  0
  149.1038  140.8764  155.1637 C   0  0  1  0  0  0  0  0  0  0  0  0
  150.2574  141.8611  155.4388 C   0  0  0  0  0  0  0  0  0  0  0  0
  151.1040  141.4337  156.5381 N   0  0  0  0  0  0  0  0  0  0  0  0
  151.7871  140.2771  156.6371 C   0  0  0  0  0  0  0  0  0  0  0  0
  152.5053  140.0860  157.7401 N   0  0  0  0  0  0  0  0  0  0  0  0
  152.2604  141.2558  158.4387 C   0  0  0  0  0  0  0  0  0  0  0  0
  152.7291  141.6860  159.7008 C   0  0  0  0  0  0  0  0  0  0  0  0
  152.3391  142.9388  160.2186 C   0  0  0  0  0  0  0  0  0  0  0  0
  151.4771  143.7793  159.4845 C   0  0  0  0  0  0  0  0  0  0  0  0
  150.9967  143.3724  158.2248 C   0  0  0  0  0  0  0  0  0  0  0  0
  151.3880  142.1215  157.7123 C   0  0  0  0  0  0  0  0  0  0  0  0
  147.7884  141.6093  154.9510 C   0  0  0  0  0  0  0  0  0  0  0  0
  147.4280  142.0595  153.6641 C   0  0  0  0  0  0  0  0  0  0  0  0
  146.2069  142.7318  153.4638 C   0  0  0  0  0  0  0  0  0  0  0  0
  145.3311  142.9687  154.5426 C   0  0  0  0  0  0  0  0  0  0  0  0
  144.1463  143.6185  154.2786 O   0  0  0  0  0  0  0  0  0  0  0  0
  144.1540  144.9611  154.0628 C   0  0  0  0  0  0  0  0  0  0  0  0
  144.6539  145.2240  152.8312 F   0  0  0  0  0  0  0  0  0  0  0  0
  142.8923  145.4554  154.1058 F   0  0  0  0  0  0  0  0  0  0  0  0
  145.6882  142.5032  155.8308 C   0  0  0  0  0  0  0  0  0  0  0  0
  146.9096  141.8321  156.0323 C   0  0  0  0  0  0  0  0  0  0  0  0
  149.4580  140.5792  153.2855 H   0  0  0  0  0  0  0  0  0  0  0  0
  148.9926  140.2189  156.0272 H   0  0  0  0  0  0  0  0  0  0  0  0
  150.8773  141.9846  154.5494 H   0  0  0  0  0  0  0  0  0  0  0  0
  149.8601  142.8476  155.6814 H   0  0  0  0  0  0  0  0  0  0  0  0
  151.7526  139.5315  155.8560 H   0  0  0  0  0  0  0  0  0  0  0  0
  153.3899  141.0509  160.2720 H   0  0  0  0  0  0  0  0  0  0  0  0
  152.7036  143.2569  161.1844 H   0  0  0  0  0  0  0  0  0  0  0  0
  151.1849  144.7372  159.8892 H   0  0  0  0  0  0  0  0  0  0  0  0
  150.3359  144.0128  157.6598 H   0  0  0  0  0  0  0  0  0  0  0  0
  148.0851  141.8899  152.8237 H   0  0  0  0  0  0  0  0  0  0  0  0
  145.9411  143.0706  152.4730 H   0  0  0  0  0  0  0  0  0  0  0  0
  144.7743  145.4839  154.7912 H   0  0  0  0  0  0  0  0  0  0  0  0
  145.0308  142.6476  156.6750 H   0  0  0  0  0  0  0  0  0  0  0  0
  147.1678  141.4825  157.0212 H   0  0  0  0  0  0  0  0  0  0  0  0
  1  2  1  0  0  0  0
  1 23  1  0  0  0  0
  2  3  1  0  0  0  0
  2 13  1  0  0  0  0
  2 24  1  0  0  0  0
  3  4  1  0  0  0  0
  3 25  1  0  0  0  0
  3 26  1  0  0  0  0
  4 12  1  0  0  0  0
  4  5  1  0  0  0  0
  5  6  2  0  0  0  0
  5 27  1  0  0  0  0
  6  7  1  0  0  0  0
  7 12  2  0  0  0  0
  7  8  1  0  0  0  0
  8  9  2  0  0  0  0
  8 28  1  0  0  0  0
  9 10  1  0  0  0  0
  9 29  1  0  0  0  0
 10 11  2  0  0  0  0
 10 30  1  0  0  0  0
 11 12  1  0  0  0  0
 11 31  1  0  0  0  0
 13 22  1  0  0  0  0
 13 14  2  0  0  0  0
 14 15  1  0  0  0  0
 14 32  1  0  0  0  0
 15 16  2  0  0  0  0
 15 33  1  0  0  0  0
 16 17  1  0  0  0  0
 16 21  1  0  0  0  0
 17 18  1  0  0  0  0
 18 19  1  0  0  0  0
 18 20  1  0  0  0  0
 18 34  1  0  0  0  0
 21 22  2  0  0  0  0
 21 35  1  0  0  0  0
 22 36  1  0  0  0  0
M  END
> <s_m_source_file>
AV-unprocessed.smi

> <i_m_source_file_index>
1873

> <i_lp_mmshare_version>
43012

> <i_f3d_flags>
0

> <s_epik_input>
RltDSF0oRilPYyhbY0hdW2NIXTEpW2NIXVtjSF1jMVtDQEhdKFtPSF0pW0NIMl1uKFtjSF1uMiljKGMyMylbY0hdW2NIXVtjSF1bY0hdMw==

> <s_epik_cmdline>
J2VwaWtfcHl0aG9uJywgJy1waCcsICc3LjAnLCAnLXRuJywgJzgnLCAnLW1hJywgJzIwMCcsICctbWV0YWxfYmluZGluZycsICctaW1hZScsICc8aW5maWxlLm1hZT4nLCAnLW9tYWUnLCAnPG91dGZpbGUubWFlPic=

> <r_lp_tautomer_probability>
1

> <r_epik_Ionization_Penalty>
0.0696507

> <r_epik_Ionization_Penalty_Charging>
0

> <r_epik_Ionization_Penalty_Neutral>
0.0696507

> <r_epik_State_Penalty>
0.0610247

> <r_epik_Charging_Adjusted_Penalty>
0.0610247

> <i_epik_Tot_Q>
0

> <i_epik_Tot_abs_Q>
0

> <r_epik_Metal_State_Penalty>
6.42746e-05

> <b_epik_Metal_Only>
0

> <s_lp_Force_Field>
OPLS_2005

> <r_lp_Energy>
11.6076

> <b_lp_Chiralities_Consistent>
1

> <s_lp_Variant>
AV-unprocessed.smi:1873-2

> <Gold.Version>
5.8.1

> <Gold.Id.Protein>
6NUR|6NUR_protein|mol2

> <Gold.PLP.Fitness>
48.2619

> <Gold.PLP.PLP>
-47.4360

> <Gold.PLP.part.hbond>
-2.0000

> <Gold.PLP.part.metal>
0.0000

> <Gold.PLP.part.buried>
-7.2295

> <Gold.PLP.part.nonpolar>
-37.5052

> <Gold.PLP.part.repulsive>
0.1656

> <Gold.PLP.ligand.clash>
0.0000

> <Gold.PLP.ligand.torsion>
1.5865

> <Gold.PLP.Chemscore.Hbond>
1.3042

> <Gold.PLP.Chemscore.CHOScore>
0.0000

> <Gold.PLP.Chemscore.Metal>
0.0000

> <Gold.Chemscore.Hbonds>
donor molecule, donor type, donor heavy atom, donor atom, acceptor molecule, acceptor atom, score
      L1  H     1    23       P1  7957  0.37
      P1  H  7997  8008       L1     6  0.64

> <Gold.PLP.Chemscore.Internal.Correction>
0.0863

> <Gold.Rescore>
     Score         DG    S(hbond)    S(metal)    S(lipo)     H(rot)  DE(clash)    DE(int)     intcor
     11.23     -13.08       0.19        0.00     112.07       2.40       0.16       1.69       ----

> <Gold.Chemscore.Fitness>
11.2321

> <Gold.Chemscore.DG>
-13.0774

> <Gold.Chemscore.ZeroCoef>
-5.4800

> <Gold.Chemscore.Hbond>
0.1874

> <Gold.Chemscore.Metal>
0.0000

> <Gold.Chemscore.Lipo>
112.0693

> <Gold.Chemscore.Internal_Hbond>
0.0000

> <Gold.Chemscore.DEClash>
0.1573

> <Gold.Chemscore.DEInternal>
1.6879

> <Gold.Chemscore.Rot>
2.3986

> <Gold.Chemscore.Internal.Correction>
   9.000000E+99

> <Gold.Chemscore.Hbonds>
donor molecule, donor type, donor heavy atom, donor atom, acceptor molecule, acceptor atom, score
      L1  H     1    23       P1  7957  0.37
      P1  H  7997  8008       L1     6  0.10

> <Gold.Chemscore.Hbond.Weighted>
-0.6258

> <Gold.Chemscore.Metal.Weighted>
-0.0000

> <Gold.Chemscore.Lipo.Weighted>
-13.1121

> <Gold.Chemscore.Internal_Hbond.Weighted>
0.0000

> <Gold.Chemscore.DEClash.Weighted>
0.1573

> <Gold.Chemscore.DEInternal.Weighted>
1.6879

> <Gold.Chemscore.Rot.Weighted>
6.1405

> <Gold.Chemscore.Internal.Correction.Weighted>
   9.000000E+99

> <Gold.Protein.RotatedTorsions>
[ 6907 6896 6895 6894 ] final -116.78 input  -60.11 | X-H torsion
[ 7974 7965 7964 7962 ] final  -16.63 input  175.53 | X-H torsion
[ 8008 7997 7996 7995 ] final  -72.50 input   59.86 | X-H torsion
[ 10167 10162 10161 10158 ] final  -85.01 input  -65.29 | X-H torsion
[ 10718 10713 10712 10709 ] final  -71.53 input   66.30 | X-H torsion
[ 10763 10752 10751 10750 ] final  -83.68 input  -60.55 | X-H torsion
[ 11005 11000 10999 10996 ] final   83.47 input  -57.11 | X-H torsion

> <Gold.Protein.ActiveResidues>
 VAL166  LYS551  ARG553  GLY616  TRP617  ASP618  TYR619  PRO620  LYS621  CYS622 
 ASP623  PHE694  ASN695  SER759  ASP760  ASP761  ALA762  ILE779  LEU786  VAL792 
 PHE793  MET794  SER795  GLU796  ALA797  LYS798  CYS799  TRP800  GLU811  SER814 

> <Gold.Protein.RotatedAtoms>
  150.8083  133.8469  159.3194 H   0  0  0  0  0  0  0  0  0  0  0  0  # atno 6907 bound_to 6896
  151.6262  135.1025  160.0121 H   0  0  0  0  0  0  0  0  0  0  0  0  # atno 6908 bound_to 6896
  152.4174  133.7021  159.6486 H   0  0  0  0  0  0  0  0  0  0  0  0  # atno 6909 bound_to 6896
  146.1979  140.3664  142.8434 H   0  0  0  0  0  0  0  0  0  0  0  0  # atno 7974 bound_to 7965
  154.5171  140.0796  156.8102 H   0  0  0  0  0  0  0  0  0  0  0  0  # atno 8008 bound_to 7997
  155.3656  140.3420  155.4223 H   0  0  0  0  0  0  0  0  0  0  0  0  # atno 8009 bound_to 7997
  156.1640  140.1598  156.8551 H   0  0  0  0  0  0  0  0  0  0  0  0  # atno 8010 bound_to 7997
  140.4078  143.2635  151.9058 H   0  0  0  0  0  0  0  0  0  0  0  0  # atno 10167 bound_to 10162
  156.0359  130.4353  150.2458 H   0  0  0  0  0  0  0  0  0  0  0  0  # atno 10718 bound_to 10713
  154.5906  135.5547  153.7274 H   0  0  0  0  0  0  0  0  0  0  0  0  # atno 10763 bound_to 10752
  153.0115  135.6342  154.1855 H   0  0  0  0  0  0  0  0  0  0  0  0  # atno 10764 bound_to 10752
  154.1795  135.2888  155.3036 H   0  0  0  0  0  0  0  0  0  0  0  0  # atno 10765 bound_to 10752
  139.9030  134.8147  156.2314 H   0  0  0  0  0  0  0  0  0  0  0  0  # atno 11005 bound_to 11000
  144.8618  140.7151  143.6102 LP  0  0  0  0  0  0  0  0  0  0  0  0  # atno 17320 bound_to 7965
  145.3584  139.1688  143.4397 LP  0  0  0  0  0  0  0  0  0  0  0  0  # atno 17321 bound_to 7965
  139.4783  144.5568  151.8301 LP  0  0  0  0  0  0  0  0  0  0  0  0  # atno 17342 bound_to 10162
  140.4670  144.1640  150.5913 LP  0  0  0  0  0  0  0  0  0  0  0  0  # atno 17343 bound_to 10162
  157.0557  131.0075  151.3239 LP  0  0  0  0  0  0  0  0  0  0  0  0  # atno 17370 bound_to 10713
  157.5107  130.7937  149.7702 LP  0  0  0  0  0  0  0  0  0  0  0  0  # atno 17371 bound_to 10713
  141.0343  133.6972  156.1485 LP  0  0  0  0  0  0  0  0  0  0  0  0  # atno 17394 bound_to 11000
  140.7050  134.4523  157.5584 LP  0  0  0  0  0  0  0  0  0  0  0  0  # atno 17395 bound_to 11000

$$$$
