AV-unprocessed.smi:1893|AV-procd|sdf|7674|dock5
  -GOLD-   22720 9413D 1   1.00000     0.00000
 Structure written by MMmdl.
 43 44  0  0  0  0  0  0  0  0  2 V2000
  154.5709  141.4254  157.6689 C   0  0  0  0  0  0  0  0  0  0  0  0
  153.5284  142.3060  158.3859 C   0  0  1  0  0  0  0  0  0  0  0  0
  154.2636  143.3487  159.2567 C   0  0  0  0  0  0  0  0  0  0  0  0
  153.2891  144.2766  159.9880 C   0  0  0  0  0  0  0  0  0  0  0  0
  152.3611  144.9443  158.9716 C   0  0  0  0  0  0  0  0  0  0  0  0
  151.6333  143.8854  158.1323 C   0  0  0  0  0  0  0  0  0  0  0  0
  152.5849  142.9766  157.4353 N   0  3  2  0  0  0  0  0  0  0  0  0
  151.8687  142.0446  156.5215 C   0  0  0  0  0  0  0  0  0  0  0  0
  150.7042  142.7455  155.7977 C   0  0  0  0  0  0  0  0  0  0  0  0
  149.5364  141.8779  155.7085 N   0  0  0  0  0  0  0  0  0  0  0  0
  148.8007  141.6902  154.6011 C   0  0  0  0  0  0  0  0  0  0  0  0
  149.0690  142.2217  153.5228 O   0  0  0  0  0  0  0  0  0  0  0  0
  147.5748  140.7740  154.7454 C   0  0  2  0  0  0  0  0  0  0  0  0
  146.9442  140.3973  153.3893 C   0  0  0  0  0  0  0  0  0  0  0  0
  146.6031  141.3730  155.6522 N   0  0  0  0  0  0  0  0  0  0  0  0
  145.8226  142.4435  155.4887 C   0  0  0  0  0  0  0  0  0  0  0  0
  145.0135  142.6813  156.5112 N   0  0  0  0  0  0  0  0  0  0  0  0
  145.3671  141.6452  157.3282 C   0  0  0  0  0  0  0  0  0  0  0  0
  146.3050  140.8241  156.8564 N   0  0  0  0  0  0  0  0  0  0  0  0
  155.2723  140.9953  158.3844 H   0  0  0  0  0  0  0  0  0  0  0  0
  155.1518  142.0042  156.9500 H   0  0  0  0  0  0  0  0  0  0  0  0
  154.1160  140.5886  157.1397 H   0  0  0  0  0  0  0  0  0  0  0  0
  152.9391  141.6661  159.0449 H   0  0  0  0  0  0  0  0  0  0  0  0
  154.8982  142.8456  159.9873 H   0  0  0  0  0  0  0  0  0  0  0  0
  154.9302  143.9463  158.6329 H   0  0  0  0  0  0  0  0  0  0  0  0
  152.7033  143.7071  160.7108 H   0  0  0  0  0  0  0  0  0  0  0  0
  153.8374  145.0316  160.5523 H   0  0  0  0  0  0  0  0  0  0  0  0
  151.6360  145.5745  159.4873 H   0  0  0  0  0  0  0  0  0  0  0  0
  152.9367  145.6022  158.3189 H   0  0  0  0  0  0  0  0  0  0  0  0
  150.9676  143.2979  158.7669 H   0  0  0  0  0  0  0  0  0  0  0  0
  151.0067  144.3911  157.3962 H   0  0  0  0  0  0  0  0  0  0  0  0
  152.5590  141.5940  155.8069 H   0  0  0  0  0  0  0  0  0  0  0  0
  151.4629  141.2042  157.0870 H   0  0  0  0  0  0  0  0  0  0  0  0
  150.4409  143.6738  156.3080 H   0  0  0  0  0  0  0  0  0  0  0  0
  150.9884  143.0239  154.7838 H   0  0  0  0  0  0  0  0  0  0  0  0
  149.2538  141.4014  156.5528 H   0  0  0  0  0  0  0  0  0  0  0  0
  147.9182  139.8477  155.2096 H   0  0  0  0  0  0  0  0  0  0  0  0
  147.6698  139.9049  152.7409 H   0  0  0  0  0  0  0  0  0  0  0  0
  146.5639  141.2698  152.8565 H   0  0  0  0  0  0  0  0  0  0  0  0
  146.1112  139.7077  153.5274 H   0  0  0  0  0  0  0  0  0  0  0  0
  145.8424  143.0588  154.6010 H   0  0  0  0  0  0  0  0  0  0  0  0
  144.9141  141.4865  158.2958 H   0  0  0  0  0  0  0  0  0  0  0  0
  153.1475  143.5722  156.8446 H   0  0  0  0  0  0  0  0  0  0  0  0
  1  2  1  0  0  0  0
  1 20  1  0  0  0  0
  1 21  1  0  0  0  0
  1 22  1  0  0  0  0
  2  7  1  0  0  0  0
  2  3  1  0  0  0  0
  2 23  1  0  0  0  0
  3  4  1  0  0  0  0
  3 24  1  0  0  0  0
  3 25  1  0  0  0  0
  4  5  1  0  0  0  0
  4 26  1  0  0  0  0
  4 27  1  0  0  0  0
  5  6  1  0  0  0  0
  5 28  1  0  0  0  0
  5 29  1  0  0  0  0
  6  7  1  0  0  0  0
  6 30  1  0  0  0  0
  6 31  1  0  0  0  0
  7  8  1  0  0  0  0
  7 43  1  0  0  0  0
  8  9  1  0  0  0  0
  8 32  1  0  0  0  0
  8 33  1  0  0  0  0
  9 10  1  0  0  0  0
  9 34  1  0  0  0  0
  9 35  1  0  0  0  0
 10 11  1  0  0  0  0
 10 36  1  0  0  0  0
 11 12  2  0  0  0  0
 11 13  1  0  0  0  0
 13 14  1  0  0  0  0
 13 15  1  0  0  0  0
 13 37  1  0  0  0  0
 14 38  1  0  0  0  0
 14 39  1  0  0  0  0
 14 40  1  0  0  0  0
 15 19  1  0  0  0  0
 15 16  1  0  0  0  0
 16 17  2  0  0  0  0
 16 41  1  0  0  0  0
 17 18  1  0  0  0  0
 18 19  2  0  0  0  0
 18 42  1  0  0  0  0
M  CHG  1   7   1
M  END
> <s_m_source_file>
AV-unprocessed.smi

> <i_m_source_file_index>
1893

> <i_lp_mmshare_version>
43012

> <i_f3d_flags>
0

> <s_epik_input>
W0NIM11bQ0BASF0xW0NIMl1bQ0gyXVtDSDJdW0NIMl1OMVtDSDJdW0NIMl1bTkhdQyg9TylbQ0BIXShbQ0gzXSluMltjSF1uW2NIXW4y

> <s_epik_cmdline>
J2VwaWtfcHl0aG9uJywgJy1waCcsICc3LjAnLCAnLXRuJywgJzgnLCAnLW1hJywgJzIwMCcsICctbWV0YWxfYmluZGluZycsICctaW1hZScsICc8aW5maWxlLm1hZT4nLCAnLW9tYWUnLCAnPG91dGZpbGUubWFlPic=

> <r_lp_tautomer_probability>
1

> <r_epik_Ionization_Penalty>
0.00266409

> <r_epik_Ionization_Penalty_Charging>
0.00265606

> <r_epik_Ionization_Penalty_Neutral>
8.02794e-06

> <r_epik_State_Penalty>
0.00184955

> <r_epik_Charging_Adjusted_Penalty>
0.00450561

> <i_epik_Tot_Q>
1

> <i_epik_Tot_abs_Q>
1

> <r_epik_Metal_State_Penalty>
-0

> <b_epik_Metal_Only>
0

> <s_lp_Force_Field>
OPLS_2005

> <r_lp_Energy>
24.4169

> <b_lp_Chiralities_Consistent>
1

> <s_lp_Variant>
AV-unprocessed.smi:1893-4

> <Gold.Version>
5.8.1

> <Gold.Id.Protein>
6NUR|6NUR_protein|mol2

> <Gold.PLP.Fitness>
42.6399

> <Gold.PLP.PLP>
-40.1901

> <Gold.PLP.part.hbond>
-2.7712

> <Gold.PLP.part.metal>
0.0000

> <Gold.PLP.part.buried>
-5.0399

> <Gold.PLP.part.nonpolar>
-35.0418

> <Gold.PLP.part.repulsive>
2.9159

> <Gold.PLP.ligand.clash>
0.0000

> <Gold.PLP.ligand.torsion>
0.7200

> <Gold.PLP.Chemscore.Hbond>
1.2480

> <Gold.PLP.Chemscore.CHOScore>
0.0000

> <Gold.PLP.Chemscore.Metal>
0.0000

> <Gold.Chemscore.Hbonds>
donor molecule, donor type, donor heavy atom, donor atom, acceptor molecule, acceptor atom, score
      P1  H  8011  8017       L1    12  0.23

> <Gold.PLP.Chemscore.Internal.Correction>
0.1458

> <Gold.Rescore>
     Score         DG    S(hbond)    S(metal)    S(lipo)     H(rot)  DE(clash)    DE(int)     intcor
     11.22     -13.45       1.25        0.00      87.87       2.54       2.04       0.19       ----

> <Gold.Chemscore.Fitness>
11.2164

> <Gold.Chemscore.DG>
-13.4465

> <Gold.Chemscore.ZeroCoef>
-5.4800

> <Gold.Chemscore.Hbond>
1.2520

> <Gold.Chemscore.Metal>
0.0000

> <Gold.Chemscore.Lipo>
87.8744

> <Gold.Chemscore.Internal_Hbond>
0.0000

> <Gold.Chemscore.DEClash>
2.0436

> <Gold.Chemscore.DEInternal>
0.1865

> <Gold.Chemscore.Rot>
2.5377

> <Gold.Chemscore.Internal.Correction>
   9.000000E+99

> <Gold.Chemscore.Hbonds>
donor molecule, donor type, donor heavy atom, donor atom, acceptor molecule, acceptor atom, score
      P1  H  8011  8017       L1    12  0.23

> <Gold.Chemscore.Hbond.Weighted>
-4.1818

> <Gold.Chemscore.Metal.Weighted>
-0.0000

> <Gold.Chemscore.Lipo.Weighted>
-10.2813

> <Gold.Chemscore.Internal_Hbond.Weighted>
0.0000

> <Gold.Chemscore.DEClash.Weighted>
2.0436

> <Gold.Chemscore.DEInternal.Weighted>
0.1865

> <Gold.Chemscore.Rot.Weighted>
6.4966

> <Gold.Chemscore.Internal.Correction.Weighted>
   9.000000E+99

> <Gold.Protein.RotatedTorsions>
[ 6907 6896 6895 6894 ] final   10.06 input  -60.11 | X-H torsion
[ 7974 7965 7964 7962 ] final  -83.95 input  175.53 | X-H torsion
[ 8008 7997 7996 7995 ] final  122.68 input   59.86 | X-H torsion
[ 10167 10162 10161 10158 ] final  -26.28 input  -65.29 | X-H torsion
[ 10718 10713 10712 10709 ] final  174.96 input   66.30 | X-H torsion
[ 10763 10752 10751 10750 ] final  -32.16 input  -60.55 | X-H torsion
[ 11005 11000 10999 10996 ] final   65.50 input  -57.11 | X-H torsion

> <Gold.Protein.ActiveResidues>
 VAL166  LYS551  ARG553  GLY616  TRP617  ASP618  TYR619  PRO620  LYS621  CYS622 
 ASP623  PHE694  ASN695  SER759  ASP760  ASP761  ALA762  ILE779  LEU786  VAL792 
 PHE793  MET794  SER795  GLU796  ALA797  LYS798  CYS799  TRP800  GLU811  SER814 

> <Gold.Protein.RotatedAtoms>
  151.7321  135.0872  160.0301 H   0  0  0  0  0  0  0  0  0  0  0  0  # atno 6907 bound_to 6896
  152.3534  133.6203  159.5970 H   0  0  0  0  0  0  0  0  0  0  0  0  # atno 6908 bound_to 6896
  150.7555  133.9454  159.3511 H   0  0  0  0  0  0  0  0  0  0  0  0  # atno 6909 bound_to 6896
  145.5131  140.9538  143.1696 H   0  0  0  0  0  0  0  0  0  0  0  0  # atno 7974 bound_to 7965
  156.2737  140.2780  156.1506 H   0  0  0  0  0  0  0  0  0  0  0  0  # atno 8008 bound_to 7997
  155.0857  140.0388  157.2671 H   0  0  0  0  0  0  0  0  0  0  0  0  # atno 8009 bound_to 7997
  154.6929  140.2633  155.6801 H   0  0  0  0  0  0  0  0  0  0  0  0  # atno 8010 bound_to 7997
  140.7283  143.4192  151.0979 H   0  0  0  0  0  0  0  0  0  0  0  0  # atno 10167 bound_to 10162
  156.9420  131.0004  151.2966 H   0  0  0  0  0  0  0  0  0  0  0  0  # atno 10718 bound_to 10713
  153.8092  135.6884  153.4843 H   0  0  0  0  0  0  0  0  0  0  0  0  # atno 10763 bound_to 10752
  153.1639  135.4569  154.9809 H   0  0  0  0  0  0  0  0  0  0  0  0  # atno 10764 bound_to 10752
  154.7974  135.3324  154.7574 H   0  0  0  0  0  0  0  0  0  0  0  0  # atno 10765 bound_to 10752
  139.9890  134.6621  156.0124 H   0  0  0  0  0  0  0  0  0  0  0  0  # atno 11005 bound_to 11000
  144.7716  139.6721  143.7192 LP  0  0  0  0  0  0  0  0  0  0  0  0  # atno 17320 bound_to 7965
  146.2154  139.5540  142.9653 LP  0  0  0  0  0  0  0  0  0  0  0  0  # atno 17321 bound_to 7965
  139.7835  143.8321  152.3141 LP  0  0  0  0  0  0  0  0  0  0  0  0  # atno 17342 bound_to 10162
  139.8280  144.7266  150.9487 LP  0  0  0  0  0  0  0  0  0  0  0  0  # atno 17343 bound_to 10162
  157.5779  130.8356  149.8481 LP  0  0  0  0  0  0  0  0  0  0  0  0  # atno 17370 bound_to 10713
  156.0400  130.3741  150.1459 LP  0  0  0  0  0  0  0  0  0  0  0  0  # atno 17371 bound_to 10713
  141.1550  133.6544  156.4132 LP  0  0  0  0  0  0  0  0  0  0  0  0  # atno 17394 bound_to 11000
  140.4945  134.6544  157.5224 LP  0  0  0  0  0  0  0  0  0  0  0  0  # atno 17395 bound_to 11000

$$$$
