AV-unprocessed.smi:658|AV-procd|sdf|3230|dock5
  -GOLD-   22720 0173D 1   1.00000     0.00000
 Structure written by MMmdl.
 38 38  0  0  0  0  0  0  0  0  2 V2000
  144.0418  136.0446  152.7233 C   0  0  0  0  0  0  0  0  0  0  0  0
  145.4764  135.5141  152.5640 C   0  0  2  0  0  0  0  0  0  0  0  0
  146.4175  136.6144  152.8809 N   0  3  0  0  0  0  0  0  0  0  0  0
  146.0132  137.9494  152.3935 C   0  0  0  0  0  0  0  0  0  0  0  0
  147.1203  138.9799  152.6424 C   0  0  0  0  0  0  0  0  0  0  0  0
  147.3084  139.2900  154.1340 C   0  0  0  0  0  0  0  0  0  0  0  0
  148.7490  140.4058  154.4192 S   0  0  0  0  0  0  0  0  0  0  0  0
  150.0074  139.5954  153.5729 N   0  0  0  0  0  0  0  0  0  0  0  0
  148.5129  141.6864  153.7354 O   0  0  0  0  0  0  0  0  0  0  0  0
  149.0936  140.3660  155.8480 O   0  0  0  0  0  0  0  0  0  0  0  0
  145.7490  134.9513  151.1418 C   0  0  2  0  0  0  0  0  0  0  0  0
  145.2658  135.8790  150.0104 C   0  0  0  0  0  0  0  0  0  0  0  0
  145.1662  133.6245  150.9745 N   0  0  0  0  0  0  0  0  0  0  0  0
  145.8034  132.4101  150.8078 C   0  0  0  0  0  0  0  0  0  0  0  0
  144.8365  131.4583  150.6558 C   0  0  0  0  0  0  0  0  0  0  0  0
  143.6222  132.1946  150.7333 C   0  0  0  0  0  0  0  0  0  0  0  0
  143.8226  133.4902  150.9130 N   0  0  0  0  0  0  0  0  0  0  0  0
  143.3034  135.2482  152.6324 H   0  0  0  0  0  0  0  0  0  0  0  0
  143.8117  136.8030  151.9740 H   0  0  0  0  0  0  0  0  0  0  0  0
  143.8993  136.4959  153.7057 H   0  0  0  0  0  0  0  0  0  0  0  0
  145.6083  134.7126  153.2935 H   0  0  0  0  0  0  0  0  0  0  0  0
  146.5312  136.6535  153.8841 H   0  0  0  0  0  0  0  0  0  0  0  0
  145.7884  137.8868  151.3281 H   0  0  0  0  0  0  0  0  0  0  0  0
  145.0997  138.2664  152.8965 H   0  0  0  0  0  0  0  0  0  0  0  0
  148.0594  138.6075  152.2310 H   0  0  0  0  0  0  0  0  0  0  0  0
  146.8878  139.8998  152.1048 H   0  0  0  0  0  0  0  0  0  0  0  0
  146.4224  139.7942  154.5211 H   0  0  0  0  0  0  0  0  0  0  0  0
  147.4527  138.3837  154.7229 H   0  0  0  0  0  0  0  0  0  0  0  0
  149.7981  139.4514  152.5851 H   0  0  0  0  0  0  0  0  0  0  0  0
  150.3580  138.7736  154.0644 H   0  0  0  0  0  0  0  0  0  0  0  0
  146.8296  134.8478  151.0229 H   0  0  0  0  0  0  0  0  0  0  0  0
  145.8243  136.8144  149.9905 H   0  0  0  0  0  0  0  0  0  0  0  0
  144.2087  136.1248  150.1146 H   0  0  0  0  0  0  0  0  0  0  0  0
  145.4035  135.4095  149.0355 H   0  0  0  0  0  0  0  0  0  0  0  0
  146.8800  132.3231  150.8103 H   0  0  0  0  0  0  0  0  0  0  0  0
  144.9753  130.3972  150.5098 H   0  0  0  0  0  0  0  0  0  0  0  0
  142.6084  131.8292  150.6602 H   0  0  0  0  0  0  0  0  0  0  0  0
  147.3121  136.3944  152.4667 H   0  0  0  0  0  0  0  0  0  0  0  0
  1  2  1  0  0  0  0
  1 18  1  0  0  0  0
  1 19  1  0  0  0  0
  1 20  1  0  0  0  0
  2  3  1  0  0  0  0
  2 11  1  0  0  0  0
  2 21  1  0  0  0  0
  3  4  1  0  0  0  0
  3 22  1  0  0  0  0
  3 38  1  0  0  0  0
  4  5  1  0  0  0  0
  4 23  1  0  0  0  0
  4 24  1  0  0  0  0
  5  6  1  0  0  0  0
  5 25  1  0  0  0  0
  5 26  1  0  0  0  0
  6  7  1  0  0  0  0
  6 27  1  0  0  0  0
  6 28  1  0  0  0  0
  7  8  1  0  0  0  0
  7  9  2  0  0  0  0
  7 10  2  0  0  0  0
  8 29  1  0  0  0  0
  8 30  1  0  0  0  0
 11 12  1  0  0  0  0
 11 13  1  0  0  0  0
 11 31  1  0  0  0  0
 12 32  1  0  0  0  0
 12 33  1  0  0  0  0
 12 34  1  0  0  0  0
 13 17  1  0  0  0  0
 13 14  1  0  0  0  0
 14 15  2  0  0  0  0
 14 35  1  0  0  0  0
 15 16  1  0  0  0  0
 15 36  1  0  0  0  0
 16 17  2  0  0  0  0
 16 37  1  0  0  0  0
M  CHG  1   3   1
M  END
> <s_m_source_file>
AV-unprocessed.smi

> <i_m_source_file_index>
658

> <i_lp_mmshare_version>
43012

> <i_f3d_flags>
0

> <s_epik_input>
bjFbY0hdW2NIXVtjSF1uMVtDQEBIXShbQ0gzXSlbQ0BIXShbQ0gzXSlbTkhdW0NIMl1bQ0gyXVtDSDJdUyg9TykoPU8pW05IMl0=

> <s_epik_cmdline>
J2VwaWtfcHl0aG9uJywgJy1waCcsICc3LjAnLCAnLXRuJywgJzgnLCAnLW1hJywgJzIwMCcsICctbWV0YWxfYmluZGluZycsICctaW1hZScsICc8aW5maWxlLm1hZT4nLCAnLW9tYWUnLCAnPG91dGZpbGUubWFlPic=

> <r_lp_tautomer_probability>
1

> <r_epik_Ionization_Penalty>
0.00535781

> <r_epik_Ionization_Penalty_Charging>
0.00511015

> <r_epik_Ionization_Penalty_Neutral>
0.000247661

> <r_epik_State_Penalty>
-0

> <r_epik_Charging_Adjusted_Penalty>
0.00511015

> <i_epik_Tot_Q>
1

> <i_epik_Tot_abs_Q>
1

> <r_epik_Metal_State_Penalty>
0.149106

> <b_epik_Metal_Only>
0

> <s_lp_Force_Field>
OPLS_2005

> <r_lp_Energy>
8.18413

> <b_lp_Chiralities_Consistent>
1

> <s_lp_Variant>
AV-unprocessed.smi:658-1

> <Gold.Version>
5.8.1

> <Gold.Id.Protein>
6NUR|6NUR_protein|mol2

> <Gold.PLP.Fitness>
45.5312

> <Gold.PLP.PLP>
-28.0367

> <Gold.PLP.part.hbond>
-3.9244

> <Gold.PLP.part.metal>
0.0000

> <Gold.PLP.part.buried>
0.6765

> <Gold.PLP.part.nonpolar>
-24.9159

> <Gold.PLP.part.repulsive>
0.4186

> <Gold.PLP.ligand.clash>
0.0000

> <Gold.PLP.ligand.torsion>
0.7332

> <Gold.PLP.Chemscore.Hbond>
4.4115

> <Gold.PLP.Chemscore.CHOScore>
1.8229

> <Gold.PLP.Chemscore.Metal>
0.0000

> <Gold.Chemscore.Hbonds>
donor molecule, donor type, donor heavy atom, donor atom, acceptor molecule, acceptor atom, score
      L1  H     3    38       P1  7948  2.00
      L1  H     8    29       P1  7957  1.00
      P1  H  7989  7998       L1     8  0.77
      P1  H  8011  8017       L1     9  0.61
      L1  C    14    35       P1 10747  0.80
      L1  C    16    37       P1 10952  0.93

> <Gold.PLP.Chemscore.Internal.Correction>
0.2578

> <Gold.Rescore>
     Score         DG    S(hbond)    S(metal)    S(lipo)     H(rot)  DE(clash)    DE(int)     intcor
     11.65     -14.14       2.59        0.00      68.51       3.13       1.78       0.71       ----

> <Gold.Chemscore.Fitness>
11.6471

> <Gold.Chemscore.DG>
-14.1393

> <Gold.Chemscore.ZeroCoef>
-5.4800

> <Gold.Chemscore.Hbond>
2.5928

> <Gold.Chemscore.Metal>
0.0000

> <Gold.Chemscore.Lipo>
68.5073

> <Gold.Chemscore.Internal_Hbond>
0.0000

> <Gold.Chemscore.DEClash>
1.7843

> <Gold.Chemscore.DEInternal>
0.7079

> <Gold.Chemscore.Rot>
3.1312

> <Gold.Chemscore.Internal.Correction>
   9.000000E+99

> <Gold.Chemscore.Hbonds>
donor molecule, donor type, donor heavy atom, donor atom, acceptor molecule, acceptor atom, score
      L1  H     3    38       P1  7948  1.00
      L1  H     8    29       P1  7957  0.88
      P1  H  7989  7998       L1     8  0.07
      P1  H  8011  8017       L1     9  0.56

> <Gold.Chemscore.Hbond.Weighted>
-8.6599

> <Gold.Chemscore.Metal.Weighted>
-0.0000

> <Gold.Chemscore.Lipo.Weighted>
-8.0154

> <Gold.Chemscore.Internal_Hbond.Weighted>
0.0000

> <Gold.Chemscore.DEClash.Weighted>
1.7843

> <Gold.Chemscore.DEInternal.Weighted>
0.7079

> <Gold.Chemscore.Rot.Weighted>
8.0160

> <Gold.Chemscore.Internal.Correction.Weighted>
   9.000000E+99

> <Gold.Protein.RotatedTorsions>
[ 6907 6896 6895 6894 ] final  148.49 input  -60.11 | X-H torsion
[ 7974 7965 7964 7962 ] final   30.51 input  175.53 | X-H torsion
[ 8008 7997 7996 7995 ] final  -81.03 input   59.86 | X-H torsion
[ 10167 10162 10161 10158 ] final  104.69 input  -65.29 | X-H torsion
[ 10718 10713 10712 10709 ] final    1.59 input   66.30 | X-H torsion
[ 10763 10752 10751 10750 ] final -107.74 input  -60.55 | X-H torsion
[ 11005 11000 10999 10996 ] final   11.38 input  -57.11 | X-H torsion

> <Gold.Protein.ActiveResidues>
 VAL166  LYS551  ARG553  GLY616  TRP617  ASP618  TYR619  PRO620  LYS621  CYS622 
 ASP623  PHE694  ASN695  SER759  ASP760  ASP761  ALA762  ILE779  LEU786  VAL792 
 PHE793  MET794  SER795  GLU796  ALA797  LYS798  CYS799  TRP800  GLU811  SER814 

> <Gold.Protein.RotatedAtoms>
  152.1408  133.4463  159.4765 H   0  0  0  0  0  0  0  0  0  0  0  0  # atno 6907 bound_to 6896
  150.6886  134.2307  159.4442 H   0  0  0  0  0  0  0  0  0  0  0  0  # atno 6908 bound_to 6896
  152.0198  134.9829  160.0621 H   0  0  0  0  0  0  0  0  0  0  0  0  # atno 6909 bound_to 6896
  146.1607  139.6779  142.9035 H   0  0  0  0  0  0  0  0  0  0  0  0  # atno 7974 bound_to 7965
  154.5943  140.0654  156.9281 H   0  0  0  0  0  0  0  0  0  0  0  0  # atno 8008 bound_to 7997
  155.2242  140.3332  155.4293 H   0  0  0  0  0  0  0  0  0  0  0  0  # atno 8009 bound_to 7997
  156.2276  140.1826  156.7307 H   0  0  0  0  0  0  0  0  0  0  0  0  # atno 8010 bound_to 7997
  139.7156  144.7069  151.0956 H   0  0  0  0  0  0  0  0  0  0  0  0  # atno 10167 bound_to 10162
  156.8505  130.5552  149.5670 H   0  0  0  0  0  0  0  0  0  0  0  0  # atno 10718 bound_to 10713
  154.8093  135.4664  154.0475 H   0  0  0  0  0  0  0  0  0  0  0  0  # atno 10763 bound_to 10752
  153.1918  135.6856  153.8349 H   0  0  0  0  0  0  0  0  0  0  0  0  # atno 10764 bound_to 10752
  153.7864  135.3249  155.3350 H   0  0  0  0  0  0  0  0  0  0  0  0  # atno 10765 bound_to 10752
  140.5039  134.0719  155.7800 H   0  0  0  0  0  0  0  0  0  0  0  0  # atno 11005 bound_to 11000
  145.4594  141.0432  143.2760 LP  0  0  0  0  0  0  0  0  0  0  0  0  # atno 17320 bound_to 7965
  144.8023  139.6116  143.7066 LP  0  0  0  0  0  0  0  0  0  0  0  0  # atno 17321 bound_to 7965
  140.7743  143.5234  150.9509 LP  0  0  0  0  0  0  0  0  0  0  0  0  # atno 17342 bound_to 10162
  139.8920  143.6941  152.3144 LP  0  0  0  0  0  0  0  0  0  0  0  0  # atno 17343 bound_to 10162
  156.0831  130.5836  150.9599 LP  0  0  0  0  0  0  0  0  0  0  0  0  # atno 17370 bound_to 10713
  157.6306  131.0921  150.8448 LP  0  0  0  0  0  0  0  0  0  0  0  0  # atno 17371 bound_to 10713
  141.1421  133.9120  157.2301 LP  0  0  0  0  0  0  0  0  0  0  0  0  # atno 17394 bound_to 11000
  139.9697  135.0132  156.9481 LP  0  0  0  0  0  0  0  0  0  0  0  0  # atno 17395 bound_to 11000

$$$$
