AV-unprocessed.smi:160|AV-procd|sdf|1361|dock4
  -GOLD-   2262019 73D 1   1.00000     0.00000
 Structure written by MMmdl.
 28 29  0  0  0  0  0  0  0  0  2 V2000
  154.5054  138.2715  158.1302 N   0  5  0  0  0  0  0  0  0  0  0  0
  154.0736  137.5051  157.1048 C   0  0  0  0  0  0  0  0  0  0  0  0
  154.5236  136.4076  156.7766 O   0  0  0  0  0  0  0  0  0  0  0  0
  152.9254  138.0961  156.3215 C   0  0  0  0  0  0  0  0  0  0  0  0
  152.2387  137.3396  155.4122 N   0  0  0  0  0  0  0  0  0  0  0  0
  151.3622  138.2462  155.0012 C   0  0  0  0  0  0  0  0  0  0  0  0
  151.4773  139.4345  155.6012 N   0  0  0  0  0  0  0  0  0  0  0  0
  150.6965  140.6941  155.3758 C   0  0  2  0  0  0  0  0  0  0  0  0
  150.2450  141.1419  156.6186 O   0  0  0  0  0  0  0  0  0  0  0  0
  148.8924  140.7417  156.8134 C   0  0  1  0  0  0  0  0  0  0  0  0
  148.2181  141.5733  157.9193 C   0  0  0  0  0  0  0  0  0  0  0  0
  148.5450  142.9384  157.7702 O   0  0  0  0  0  0  0  0  0  0  0  0
  148.3042  140.9071  155.4051 C   0  0  1  0  0  0  0  0  0  0  0  0
  147.9377  142.2588  155.1742 O   0  0  0  0  0  0  0  0  0  0  0  0
  149.4502  140.4470  154.5007 C   0  0  1  0  0  0  0  0  0  0  0  0
  149.4867  141.1451  153.2690 O   0  0  0  0  0  0  0  0  0  0  0  0
  152.5202  139.3614  156.4660 N   0  0  0  0  0  0  0  0  0  0  0  0
  151.4142  141.3957  154.9488 H   0  0  0  0  0  0  0  0  0  0  0  0
  148.8601  139.6834  157.0774 H   0  0  0  0  0  0  0  0  0  0  0  0
  147.4156  140.2902  155.2671 H   0  0  0  0  0  0  0  0  0  0  0  0
  149.3438  139.3834  154.2857 H   0  0  0  0  0  0  0  0  0  0  0  0
  155.4359  138.0841  158.5225 H   0  0  0  0  0  0  0  0  0  0  0  0
  150.6188  138.0385  154.2457 H   0  0  0  0  0  0  0  0  0  0  0  0
  147.1354  141.4427  157.9130 H   0  0  0  0  0  0  0  0  0  0  0  0
  148.5797  141.2577  158.8984 H   0  0  0  0  0  0  0  0  0  0  0  0
  148.5808  143.1399  156.8479 H   0  0  0  0  0  0  0  0  0  0  0  0
  148.6371  142.8114  155.4882 H   0  0  0  0  0  0  0  0  0  0  0  0
  149.5695  140.5138  152.5707 H   0  0  0  0  0  0  0  0  0  0  0  0
  1  2  1  0  0  0  0
  1 22  1  0  0  0  0
  2  3  2  0  0  0  0
  2  4  1  0  0  0  0
  4 17  2  0  0  0  0
  4  5  1  0  0  0  0
  5  6  2  0  0  0  0
  6  7  1  0  0  0  0
  6 23  1  0  0  0  0
  7  8  1  0  0  0  0
  7 17  1  0  0  0  0
  8 18  1  0  0  0  0
  8 15  1  0  0  0  0
  8  9  1  0  0  0  0
  9 10  1  0  0  0  0
 10 19  1  0  0  0  0
 10 11  1  0  0  0  0
 10 13  1  0  0  0  0
 11 12  1  0  0  0  0
 11 24  1  0  0  0  0
 11 25  1  0  0  0  0
 12 26  1  0  0  0  0
 13 20  1  0  0  0  0
 13 14  1  0  0  0  0
 13 15  1  0  0  0  0
 14 27  1  0  0  0  0
 15 21  1  0  0  0  0
 15 16  1  0  0  0  0
 16 28  1  0  0  0  0
M  CHG  1   1  -1
M  END
> <s_m_source_file>
AV-unprocessed.smi

> <i_m_source_file_index>
160

> <i_lp_mmshare_version>
43012

> <i_f3d_flags>
0

> <s_epik_input>
W05IMl1DKD1PKWMxbltjSF1uKG4xKVtDQEBIXTJPW0NASF0oW0NIMl1bT0hdKVtDQEBIXShbT0hdKVtDQEhdMltPSF0=

> <s_epik_cmdline>
J2VwaWtfcHl0aG9uJywgJy1waCcsICc3LjAnLCAnLXRuJywgJzgnLCAnLW1hJywgJzIwMCcsICctbWV0YWxfYmluZGluZycsICctaW1hZScsICc8aW5maWxlLm1hZT4nLCAnLW9tYWUnLCAnPG91dGZpbGUubWFlPic=

> <r_lp_tautomer_probability>
1

> <r_epik_Ionization_Penalty>
6.6993

> <r_epik_Ionization_Penalty_Charging>
6.6993

> <r_epik_Ionization_Penalty_Neutral>
6.01698e-06

> <r_epik_State_Penalty>
6.69929

> <r_epik_Charging_Adjusted_Penalty>
13.3986

> <i_epik_Tot_Q>
-1

> <i_epik_Tot_abs_Q>
1

> <r_epik_Metal_State_Penalty>
2.62798

> <b_epik_Metal_Only>
1

> <s_epik_Chemistry_Notes>
This compound contains an acetal/aminal-like group ( X-CH(R)-Y where X, Y are N, S, or O) that may be acid/base labile, releasing an aldehyde.

> <s_lp_Force_Field>
OPLS_2005

> <r_lp_Energy>
44.8838

> <b_lp_Chiralities_Consistent>
1

> <s_lp_Variant>
AV-unprocessed.smi:160-19

> <Gold.Version>
5.8.1

> <Gold.Id.Protein>
6NUR|6NUR_protein|mol2

> <Gold.PLP.Fitness>
44.2081

> <Gold.PLP.PLP>
-25.6386

> <Gold.PLP.part.hbond>
-9.5102

> <Gold.PLP.part.metal>
0.0000

> <Gold.PLP.part.buried>
-2.5035

> <Gold.PLP.part.nonpolar>
-14.5575

> <Gold.PLP.part.repulsive>
0.0994

> <Gold.PLP.ligand.clash>
0.0000

> <Gold.PLP.ligand.torsion>
0.3083

> <Gold.PLP.Chemscore.Hbond>
6.3875

> <Gold.PLP.Chemscore.CHOScore>
0.0000

> <Gold.PLP.Chemscore.Metal>
0.0000

> <Gold.Chemscore.Hbonds>
donor molecule, donor type, donor heavy atom, donor atom, acceptor molecule, acceptor atom, score
      L1  H    12    26       P1  8028  0.77
      L1  H    14    27       P1  8028  0.67
      L1  H    16    28       P1  7957  0.88
      P1  H  7997  8008       L1     1  1.73
      P1  H  8011  8017       L1    16  0.70
      P1  H 10752 10763       L1     3  0.93
      P1  H 10752 10765       L1     5  0.51

> <Gold.PLP.Chemscore.Internal.Correction>
0.0238

> <Gold.Rescore>
     Score         DG    S(hbond)    S(metal)    S(lipo)     H(rot)  DE(clash)    DE(int)     intcor
      8.80      -9.68       3.76        0.00      17.11       4.04       0.65       0.24       ----

> <Gold.Chemscore.Fitness>
8.7955

> <Gold.Chemscore.DG>
-9.6806

> <Gold.Chemscore.ZeroCoef>
-5.4800

> <Gold.Chemscore.Hbond>
3.7551

> <Gold.Chemscore.Metal>
0.0000

> <Gold.Chemscore.Lipo>
17.1070

> <Gold.Chemscore.Internal_Hbond>
0.0000

> <Gold.Chemscore.DEClash>
0.6497

> <Gold.Chemscore.DEInternal>
0.2354

> <Gold.Chemscore.Rot>
4.0403

> <Gold.Chemscore.Internal.Correction>
   9.000000E+99

> <Gold.Chemscore.Hbonds>
donor molecule, donor type, donor heavy atom, donor atom, acceptor molecule, acceptor atom, score
      L1  H    12    26       P1  8028  0.45
      L1  H    14    27       P1  8028  0.68
      L1  H    16    28       P1  7957  0.84
      P1  H  7997  8008       L1     1  0.06
      P1  H  8011  8017       L1    16  0.07
      P1  H 10752 10763       L1     3  0.90
      P1  H 10752 10765       L1     5  0.50

> <Gold.Chemscore.Hbond.Weighted>
-12.5422

> <Gold.Chemscore.Metal.Weighted>
-0.0000

> <Gold.Chemscore.Lipo.Weighted>
-2.0015

> <Gold.Chemscore.Internal_Hbond.Weighted>
0.0000

> <Gold.Chemscore.DEClash.Weighted>
0.6497

> <Gold.Chemscore.DEInternal.Weighted>
0.2354

> <Gold.Chemscore.Rot.Weighted>
10.3431

> <Gold.Chemscore.Internal.Correction.Weighted>
   9.000000E+99

> <Gold.Protein.RotatedTorsions>
[ 6907 6896 6895 6894 ] final  126.72 input  -60.11 | X-H torsion
[ 7974 7965 7964 7962 ] final  140.75 input  175.53 | X-H torsion
[ 8008 7997 7996 7995 ] final  -98.16 input   59.86 | X-H torsion
[ 10167 10162 10161 10158 ] final  -93.16 input  -65.29 | X-H torsion
[ 10718 10713 10712 10709 ] final   78.66 input   66.30 | X-H torsion
[ 10763 10752 10751 10750 ] final  164.35 input  -60.55 | X-H torsion
[ 11005 11000 10999 10996 ] final -104.14 input  -57.11 | X-H torsion

> <Gold.Protein.ActiveResidues>
 VAL166  LYS551  ARG553  GLY616  TRP617  ASP618  TYR619  PRO620  LYS621  CYS622 
 ASP623  PHE694  ASN695  SER759  ASP760  ASP761  ALA762  ILE779  LEU786  VAL792 
 PHE793  MET794  SER795  GLU796  ALA797  LYS798  CYS799  TRP800  GLU811  SER814 

> <Gold.Protein.RotatedAtoms>
  152.3878  133.6636  159.6212 H   0  0  0  0  0  0  0  0  0  0  0  0  # atno 6907 bound_to 6896
  150.7793  133.9005  159.3349 H   0  0  0  0  0  0  0  0  0  0  0  0  # atno 6908 bound_to 6896
  151.6798  135.0965  160.0265 H   0  0  0  0  0  0  0  0  0  0  0  0  # atno 6909 bound_to 6896
  144.9158  139.5232  143.5687 H   0  0  0  0  0  0  0  0  0  0  0  0  # atno 7974 bound_to 7965
  154.7974  140.0457  157.1247 H   0  0  0  0  0  0  0  0  0  0  0  0  # atno 8008 bound_to 7997
  154.9519  140.3066  155.5051 H   0  0  0  0  0  0  0  0  0  0  0  0  # atno 8009 bound_to 7997
  156.2957  140.2286  156.4597 H   0  0  0  0  0  0  0  0  0  0  0  0  # atno 8010 bound_to 7997
  140.3274  143.3014  151.9979 H   0  0  0  0  0  0  0  0  0  0  0  0  # atno 10167 bound_to 10162
  157.6752  130.9878  150.1819 H   0  0  0  0  0  0  0  0  0  0  0  0  # atno 10718 bound_to 10713
  154.3077  135.2758  155.2581 H   0  0  0  0  0  0  0  0  0  0  0  0  # atno 10763 bound_to 10752
  154.4990  135.5813  153.6520 H   0  0  0  0  0  0  0  0  0  0  0  0  # atno 10764 bound_to 10752
  152.9892  135.6153  154.3252 H   0  0  0  0  0  0  0  0  0  0  0  0  # atno 10765 bound_to 10752
  141.1114  133.8699  157.1574 H   0  0  0  0  0  0  0  0  0  0  0  0  # atno 11005 bound_to 11000
  146.3181  139.8000  142.8967 LP  0  0  0  0  0  0  0  0  0  0  0  0  # atno 17320 bound_to 7965
  145.3377  141.0281  143.3410 LP  0  0  0  0  0  0  0  0  0  0  0  0  # atno 17321 bound_to 7965
  139.4862  144.6262  151.7159 LP  0  0  0  0  0  0  0  0  0  0  0  0  # atno 17342 bound_to 10162
  140.5428  144.0552  150.6095 LP  0  0  0  0  0  0  0  0  0  0  0  0  # atno 17343 bound_to 10162
  156.2549  130.3704  149.8192 LP  0  0  0  0  0  0  0  0  0  0  0  0  # atno 17370 bound_to 10713
  156.5954  130.8524  151.3418 LP  0  0  0  0  0  0  0  0  0  0  0  0  # atno 17371 bound_to 10713
  140.0010  135.0028  157.0189 LP  0  0  0  0  0  0  0  0  0  0  0  0  # atno 17394 bound_to 11000
  140.4765  134.1333  155.7210 LP  0  0  0  0  0  0  0  0  0  0  0  0  # atno 17395 bound_to 11000

$$$$
