AV-unprocessed.smi:1978|AV-procd|sdf|8007|dock4
  -GOLD-   2272010193D 1   1.00000     0.00000
 Structure written by MMmdl.
 44 45  0  0  0  0  0  0  0  0  3 V2000
  145.9889  136.4849  162.4603 C   0  0  0  0  0  0  0  0  0  0  0  0
  146.9729  136.1476  161.3927 C   0  0  0  0  0  0  0  0  0  0  0  0
  147.0452  135.1271  160.4875 C   0  0  0  0  0  0  0  0  0  0  0  0
  148.2419  135.4097  159.7738 C   0  0  0  0  0  0  0  0  0  0  0  0
  148.7450  134.6923  158.7573 N   0  5  0  0  0  0  0  0  0  0  0  0
  148.1024  134.6519  157.5680 C   0  0  0  0  0  0  0  0  0  0  0  0
  147.2812  135.4706  157.1489 O   0  0  0  0  0  0  0  0  0  0  0  0
  148.4316  133.5939  156.8155 N   0  0  0  0  0  0  0  0  0  0  0  0
  147.8791  133.2904  155.5003 C   0  0  0  0  0  0  0  0  0  0  0  0
  148.5395  134.1316  154.3740 C   0  0  1  0  0  0  0  0  0  0  0  0
  149.9274  133.5371  154.0236 C   0  0  0  0  0  0  0  0  0  0  0  0
  147.6695  134.2459  153.1511 N   0  3  2  0  0  0  0  0  0  0  0  0
  146.3193  134.8293  153.4220 C   0  0  0  0  0  0  0  0  0  0  0  0
  145.5493  135.1301  152.1252 C   0  0  0  0  0  0  0  0  0  0  0  0
  145.4192  133.8839  151.2485 C   0  0  0  0  0  0  0  0  0  0  0  0
  146.8107  133.2992  150.9894 C   0  0  0  0  0  0  0  0  0  0  0  0
  147.5772  133.0130  152.2981 C   0  0  2  0  0  0  0  0  0  0  0  0
  147.0059  131.7892  153.0485 C   0  0  0  0  0  0  0  0  0  0  0  0
  148.8346  136.5132  160.1978 N   0  0  0  0  0  0  0  0  0  0  0  0
  148.0304  136.9894  161.2401 O   0  0  0  0  0  0  0  0  0  0  0  0
  144.9894  136.5991  162.0406 H   0  0  0  0  0  0  0  0  0  0  0  0
  146.2535  137.4169  162.9603 H   0  0  0  0  0  0  0  0  0  0  0  0
  145.9524  135.6972  163.2126 H   0  0  0  0  0  0  0  0  0  0  0  0
  146.3554  134.3067  160.3586 H   0  0  0  0  0  0  0  0  0  0  0  0
  149.1095  132.9480  157.1929 H   0  0  0  0  0  0  0  0  0  0  0  0
  147.9972  132.2271  155.2839 H   0  0  0  0  0  0  0  0  0  0  0  0
  146.8116  133.4898  155.5822 H   0  0  0  0  0  0  0  0  0  0  0  0
  148.7022  135.1377  154.7632 H   0  0  0  0  0  0  0  0  0  0  0  0
  150.5327  133.3452  154.9089 H   0  0  0  0  0  0  0  0  0  0  0  0
  150.5294  134.2105  153.4162 H   0  0  0  0  0  0  0  0  0  0  0  0
  149.8283  132.5917  153.4893 H   0  0  0  0  0  0  0  0  0  0  0  0
  145.7439  134.1602  154.0622 H   0  0  0  0  0  0  0  0  0  0  0  0
  146.3959  135.7732  153.9557 H   0  0  0  0  0  0  0  0  0  0  0  0
  144.5594  135.5210  152.3625 H   0  0  0  0  0  0  0  0  0  0  0  0
  146.0649  135.9145  151.5696 H   0  0  0  0  0  0  0  0  0  0  0  0
  144.7806  133.1467  151.7356 H   0  0  0  0  0  0  0  0  0  0  0  0
  144.9359  134.1372  150.3044 H   0  0  0  0  0  0  0  0  0  0  0  0
  146.7277  132.3899  150.3929 H   0  0  0  0  0  0  0  0  0  0  0  0
  147.3847  134.0033  150.3852 H   0  0  0  0  0  0  0  0  0  0  0  0
  148.5793  132.7513  151.9627 H   0  0  0  0  0  0  0  0  0  0  0  0
  146.9676  130.9198  152.3920 H   0  0  0  0  0  0  0  0  0  0  0  0
  145.9942  131.9610  153.4146 H   0  0  0  0  0  0  0  0  0  0  0  0
  147.6205  131.5101  153.9036 H   0  0  0  0  0  0  0  0  0  0  0  0
  148.1379  134.9247  152.5681 H   0  0  0  0  0  0  0  0  0  0  0  0
  1  2  1  0  0  0  0
  1 21  1  0  0  0  0
  1 22  1  0  0  0  0
  1 23  1  0  0  0  0
  2 20  1  0  0  0  0
  2  3  2  0  0  0  0
  3  4  1  0  0  0  0
  3 24  1  0  0  0  0
  4  5  1  0  0  0  0
  4 19  2  0  0  0  0
  5  6  1  0  0  0  0
  6  7  2  0  0  0  0
  6  8  1  0  0  0  0
  8  9  1  0  0  0  0
  8 25  1  0  0  0  0
  9 10  1  0  0  0  0
  9 26  1  0  0  0  0
  9 27  1  0  0  0  0
 10 11  1  0  0  0  0
 10 12  1  0  0  0  0
 10 28  1  0  0  0  0
 11 29  1  0  0  0  0
 11 30  1  0  0  0  0
 11 31  1  0  0  0  0
 12 17  1  0  0  0  0
 12 13  1  0  0  0  0
 12 44  1  0  0  0  0
 13 14  1  0  0  0  0
 13 32  1  0  0  0  0
 13 33  1  0  0  0  0
 14 15  1  0  0  0  0
 14 34  1  0  0  0  0
 14 35  1  0  0  0  0
 15 16  1  0  0  0  0
 15 36  1  0  0  0  0
 15 37  1  0  0  0  0
 16 17  1  0  0  0  0
 16 38  1  0  0  0  0
 16 39  1  0  0  0  0
 17 18  1  0  0  0  0
 17 40  1  0  0  0  0
 18 41  1  0  0  0  0
 18 42  1  0  0  0  0
 18 43  1  0  0  0  0
 19 20  1  0  0  0  0
M  CHG  1   5  -1
M  CHG  1  12   1
M  END
> <s_m_source_file>
AV-unprocessed.smi

> <i_m_source_file_index>
1978

> <i_lp_mmshare_version>
43012

> <i_f3d_flags>
0

> <s_epik_input>
W0NIM11jMVtjSF1jKG5vMSlbTkhdQyg9TylbTkhdW0NIMl1bQ0BIXShbQ0gzXSlOMltDSDJdW0NIMl1bQ0gyXVtDSDJdW0NASF0yW0NIM10=

> <s_epik_cmdline>
J2VwaWtfcHl0aG9uJywgJy1waCcsICc3LjAnLCAnLXRuJywgJzgnLCAnLW1hJywgJzIwMCcsICctbWV0YWxfYmluZGluZycsICctaW1hZScsICc8aW5maWxlLm1hZT4nLCAnLW9tYWUnLCAnPG91dGZpbGUubWFlPic=

> <r_epik_Ionization_Penalty>
6.22372

> <r_epik_Ionization_Penalty_Charging>
6.22362

> <r_epik_Ionization_Penalty_Neutral>
9.65074e-05

> <r_epik_State_Penalty>
6.22363

> <r_epik_Charging_Adjusted_Penalty>
12.4472

> <i_epik_Tot_Q>
0

> <i_epik_Tot_abs_Q>
2

> <r_epik_Metal_State_Penalty>
2.16675

> <b_epik_Metal_Only>
1

> <s_lp_Force_Field>
OPLS_2005

> <r_lp_Energy>
15.9266

> <b_lp_Chiralities_Consistent>
1

> <s_lp_Variant>
AV-unprocessed.smi:1978-16

> <Gold.Version>
5.8.1

> <Gold.Id.Protein>
6NUR|6NUR_protein|mol2

> <Gold.PLP.Fitness>
41.0934

> <Gold.PLP.PLP>
-26.5248

> <Gold.PLP.part.hbond>
-4.5494

> <Gold.PLP.part.metal>
0.0000

> <Gold.PLP.part.buried>
-3.3013

> <Gold.PLP.part.nonpolar>
-18.3483

> <Gold.PLP.part.repulsive>
0.0338

> <Gold.PLP.ligand.clash>
0.0000

> <Gold.PLP.ligand.torsion>
1.1608

> <Gold.PLP.Chemscore.Hbond>
5.5824

> <Gold.PLP.Chemscore.CHOScore>
0.0000

> <Gold.PLP.Chemscore.Metal>
0.0000

> <Gold.Chemscore.Hbonds>
donor molecule, donor type, donor heavy atom, donor atom, acceptor molecule, acceptor atom, score
      L1  H    12    44       P1  7948  2.00
      P1  H  6896  6909       L1     5  1.89
      P1  H  6931  6943       L1    20  1.00
      P1  H  6934  6947       L1    20  0.39

> <Gold.PLP.Chemscore.Internal.Correction>
0.1429

> <Gold.Rescore>
     Score         DG    S(hbond)    S(metal)    S(lipo)     H(rot)  DE(clash)    DE(int)     intcor
     13.62     -15.95       2.05        0.00      64.18       1.52       0.15       2.18       ----

> <Gold.Chemscore.Fitness>
13.6188

> <Gold.Chemscore.DG>
-15.9514

> <Gold.Chemscore.ZeroCoef>
-5.4800

> <Gold.Chemscore.Hbond>
2.0514

> <Gold.Chemscore.Metal>
0.0000

> <Gold.Chemscore.Lipo>
64.1752

> <Gold.Chemscore.Internal_Hbond>
0.0000

> <Gold.Chemscore.DEClash>
0.1478

> <Gold.Chemscore.DEInternal>
2.1849

> <Gold.Chemscore.Rot>
1.5190

> <Gold.Chemscore.Internal.Correction>
   9.000000E+99

> <Gold.Chemscore.Hbonds>
donor molecule, donor type, donor heavy atom, donor atom, acceptor molecule, acceptor atom, score
      L1  H    12    44       P1  7948  0.74
      P1  H  6896  6909       L1     5  0.36
      P1  H  6931  6943       L1    20  0.30
      P1  H  6934  6947       L1    20  0.21

> <Gold.Chemscore.Hbond.Weighted>
-6.8516

> <Gold.Chemscore.Metal.Weighted>
-0.0000

> <Gold.Chemscore.Lipo.Weighted>
-7.5085

> <Gold.Chemscore.Internal_Hbond.Weighted>
0.0000

> <Gold.Chemscore.DEClash.Weighted>
0.1478

> <Gold.Chemscore.DEInternal.Weighted>
2.1849

> <Gold.Chemscore.Rot.Weighted>
3.8886

> <Gold.Chemscore.Internal.Correction.Weighted>
   9.000000E+99

> <Gold.Protein.RotatedTorsions>
[ 6907 6896 6895 6894 ] final   25.80 input  -60.11 | X-H torsion
[ 7974 7965 7964 7962 ] final -138.62 input  175.53 | X-H torsion
[ 8008 7997 7996 7995 ] final -132.62 input   59.86 | X-H torsion
[ 10167 10162 10161 10158 ] final -122.79 input  -65.29 | X-H torsion
[ 10718 10713 10712 10709 ] final -167.16 input   66.30 | X-H torsion
[ 10763 10752 10751 10750 ] final   81.10 input  -60.55 | X-H torsion
[ 11005 11000 10999 10996 ] final  161.72 input  -57.11 | X-H torsion

> <Gold.Protein.ActiveResidues>
 VAL166  LYS551  ARG553  GLY616  TRP617  ASP618  TYR619  PRO620  LYS621  CYS622 
 ASP623  PHE694  ASN695  SER759  ASP760  ASP761  ALA762  ILE779  LEU786  VAL792 
 PHE793  MET794  SER795  GLU796  ALA797  LYS798  CYS799  TRP800  GLU811  SER814 

> <Gold.Protein.RotatedAtoms>
  151.9780  135.0043  160.0555 H   0  0  0  0  0  0  0  0  0  0  0  0  # atno 6907 bound_to 6896
  152.1723  133.4647  159.4923 H   0  0  0  0  0  0  0  0  0  0  0  0  # atno 6908 bound_to 6896
  150.6903  134.1855  159.4308 H   0  0  0  0  0  0  0  0  0  0  0  0  # atno 6909 bound_to 6896
  144.8743  140.6414  143.5247 H   0  0  0  0  0  0  0  0  0  0  0  0  # atno 7974 bound_to 7965
  155.3319  140.0467  157.3043 H   0  0  0  0  0  0  0  0  0  0  0  0  # atno 8008 bound_to 7997
  154.5323  140.2261  155.8748 H   0  0  0  0  0  0  0  0  0  0  0  0  # atno 8009 bound_to 7997
  156.1801  140.3076  155.9139 H   0  0  0  0  0  0  0  0  0  0  0  0  # atno 8010 bound_to 7997
  140.0104  143.5447  152.2265 H   0  0  0  0  0  0  0  0  0  0  0  0  # atno 10167 bound_to 10162
  156.6784  130.9112  151.3053 H   0  0  0  0  0  0  0  0  0  0  0  0  # atno 10718 bound_to 10713
  153.1089  135.4778  154.9000 H   0  0  0  0  0  0  0  0  0  0  0  0  # atno 10763 bound_to 10752
  154.7459  135.3094  154.8647 H   0  0  0  0  0  0  0  0  0  0  0  0  # atno 10764 bound_to 10752
  153.9242  135.6851  153.4800 H   0  0  0  0  0  0  0  0  0  0  0  0  # atno 10765 bound_to 10752
  140.2186  134.8213  157.3197 H   0  0  0  0  0  0  0  0  0  0  0  0  # atno 11005 bound_to 11000
  145.4071  139.1587  143.4146 LP  0  0  0  0  0  0  0  0  0  0  0  0  # atno 17320 bound_to 7965
  146.2952  140.4173  142.8724 LP  0  0  0  0  0  0  0  0  0  0  0  0  # atno 17321 bound_to 7965
  139.6209  144.7629  151.2743 LP  0  0  0  0  0  0  0  0  0  0  0  0  # atno 17342 bound_to 10162
  140.7383  143.6651  150.8130 LP  0  0  0  0  0  0  0  0  0  0  0  0  # atno 17343 bound_to 10162
  157.7052  130.9377  150.0909 LP  0  0  0  0  0  0  0  0  0  0  0  0  # atno 17370 bound_to 10713
  156.1886  130.3653  149.8940 LP  0  0  0  0  0  0  0  0  0  0  0  0  # atno 17371 bound_to 10713
  140.1874  134.4414  155.7736 LP  0  0  0  0  0  0  0  0  0  0  0  0  # atno 17394 bound_to 11000
  141.2224  133.7011  156.7969 LP  0  0  0  0  0  0  0  0  0  0  0  0  # atno 17395 bound_to 11000

$$$$
