AV-unprocessed.smi:910|AV-procd|sdf|4121|dock5
  -GOLD-   22720 2 23D 1   1.00000     0.00000
 Structure written by MMmdl.
 46 47  0  0  0  0  0  0  0  0  1 V2000
  145.7496  132.5085  149.5890 C   0  0  0  0  0  0  0  0  0  0  0  0
  146.2970  133.0002  150.9106 C   0  0  0  0  0  0  0  0  0  0  0  0
  147.5512  132.6683  151.3459 N   0  0  0  0  0  0  0  0  0  0  0  0
  147.7514  133.2635  152.5816 C   0  0  0  0  0  0  0  0  0  0  0  0
  148.8060  133.2014  153.3338 N   0  0  0  0  0  0  0  0  0  0  0  0
  148.7803  133.8778  154.5416 C   0  0  0  0  0  0  0  0  0  0  0  0
  148.7130  133.3891  155.6741 O   0  0  0  0  0  0  0  0  0  0  0  0
  148.7605  135.2044  154.3385 N   0  0  0  0  0  0  0  0  0  0  0  0
  148.5714  136.2135  155.3766 C   0  0  0  0  0  0  0  0  0  0  0  0
  148.6849  137.6265  154.7876 C   0  0  0  0  0  0  0  0  0  0  0  0
  149.8439  138.2475  155.3229 O   0  0  0  0  0  0  0  0  0  0  0  0
  150.4510  139.2379  154.5025 C   0  0  1  0  0  0  0  0  0  0  0  0
  149.6004  140.5279  154.4656 C   0  0  0  0  0  0  0  0  0  0  0  0
  149.4875  141.1727  155.8566 C   0  0  0  0  0  0  0  0  0  0  0  0
  150.8762  141.4579  156.4457 C   0  0  0  0  0  0  0  0  0  0  0  0
  151.7403  140.1870  156.4816 C   0  0  0  0  0  0  0  0  0  0  0  0
  151.8504  139.5363  155.0867 C   0  0  1  0  0  0  0  0  0  0  0  0
  152.7457  138.2877  155.1094 C   0  0  0  0  0  0  0  0  0  0  0  0
  146.5998  133.9608  152.8686 O   0  0  0  0  0  0  0  0  0  0  0  0
  145.7342  133.7747  151.8345 C   0  0  0  0  0  0  0  0  0  0  0  0
  144.3716  134.4266  151.8983 C   0  0  0  0  0  0  0  0  0  0  0  0
  144.8492  131.9154  149.7512 H   0  0  0  0  0  0  0  0  0  0  0  0
  146.4808  131.8896  149.0681 H   0  0  0  0  0  0  0  0  0  0  0  0
  145.4952  133.3534  148.9487 H   0  0  0  0  0  0  0  0  0  0  0  0
  148.1869  132.0832  150.8234 H   0  0  0  0  0  0  0  0  0  0  0  0
  148.8120  135.5355  153.3861 H   0  0  0  0  0  0  0  0  0  0  0  0
  147.6142  136.0855  155.8846 H   0  0  0  0  0  0  0  0  0  0  0  0
  149.3431  136.0693  156.1329 H   0  0  0  0  0  0  0  0  0  0  0  0
  148.7644  137.5765  153.7010 H   0  0  0  0  0  0  0  0  0  0  0  0
  147.7824  138.1894  155.0232 H   0  0  0  0  0  0  0  0  0  0  0  0
  150.5678  138.8466  153.4906 H   0  0  0  0  0  0  0  0  0  0  0  0
  150.0633  141.2392  153.7803 H   0  0  0  0  0  0  0  0  0  0  0  0
  148.6070  140.3382  154.0619 H   0  0  0  0  0  0  0  0  0  0  0  0
  148.9148  142.0982  155.7929 H   0  0  0  0  0  0  0  0  0  0  0  0
  148.9332  140.5127  156.5247 H   0  0  0  0  0  0  0  0  0  0  0  0
  151.3756  142.2211  155.8478 H   0  0  0  0  0  0  0  0  0  0  0  0
  150.7749  141.8708  157.4490 H   0  0  0  0  0  0  0  0  0  0  0  0
  152.7334  140.4339  156.8583 H   0  0  0  0  0  0  0  0  0  0  0  0
  151.3130  139.4760  157.1901 H   0  0  0  0  0  0  0  0  0  0  0  0
  152.3327  140.2585  154.4262 H   0  0  0  0  0  0  0  0  0  0  0  0
  152.3460  137.5213  155.7745 H   0  0  0  0  0  0  0  0  0  0  0  0
  153.7503  138.5331  155.4546 H   0  0  0  0  0  0  0  0  0  0  0  0
  152.8367  137.8513  154.1144 H   0  0  0  0  0  0  0  0  0  0  0  0
  144.1862  135.0057  150.9936 H   0  0  0  0  0  0  0  0  0  0  0  0
  144.3065  135.0958  152.7567 H   0  0  0  0  0  0  0  0  0  0  0  0
  143.5942  133.6682  151.9915 H   0  0  0  0  0  0  0  0  0  0  0  0
  1 22  1  0  0  0  0
  1 23  1  0  0  0  0
  1 24  1  0  0  0  0
  1  2  1  0  0  0  0
  2  3  1  0  0  0  0
  2 20  2  0  0  0  0
  3 25  1  0  0  0  0
  3  4  1  0  0  0  0
  4 19  1  0  0  0  0
  4  5  2  0  0  0  0
  5  6  1  0  0  0  0
  6  8  1  0  0  0  0
  6  7  2  0  0  0  0
  8  9  1  0  0  0  0
  8 26  1  0  0  0  0
  9 10  1  0  0  0  0
  9 27  1  0  0  0  0
  9 28  1  0  0  0  0
 10 11  1  0  0  0  0
 10 29  1  0  0  0  0
 10 30  1  0  0  0  0
 11 12  1  0  0  0  0
 12 17  1  0  0  0  0
 12 13  1  0  0  0  0
 12 31  1  0  0  0  0
 13 14  1  0  0  0  0
 13 32  1  0  0  0  0
 13 33  1  0  0  0  0
 14 15  1  0  0  0  0
 14 34  1  0  0  0  0
 14 35  1  0  0  0  0
 15 16  1  0  0  0  0
 15 36  1  0  0  0  0
 15 37  1  0  0  0  0
 16 17  1  0  0  0  0
 16 38  1  0  0  0  0
 16 39  1  0  0  0  0
 17 18  1  0  0  0  0
 17 40  1  0  0  0  0
 18 41  1  0  0  0  0
 18 42  1  0  0  0  0
 18 43  1  0  0  0  0
 19 20  1  0  0  0  0
 20 21  1  0  0  0  0
 21 44  1  0  0  0  0
 21 45  1  0  0  0  0
 21 46  1  0  0  0  0
M  END
> <s_m_source_file>
AV-unprocessed.smi

> <i_m_source_file_index>
910

> <i_lp_mmshare_version>
43012

> <i_f3d_flags>
0

> <s_epik_input>
W0NIM11jMW5jKG9jMVtDSDNdKVtOSF1DKD1PKVtOSF1bQ0gyXVtDSDJdT1tDQEBIXTJbQ0gyXVtDSDJdW0NIMl1bQ0gyXVtDQEhdMltDSDNd

> <s_epik_cmdline>
J2VwaWtfcHl0aG9uJywgJy1waCcsICc3LjAnLCAnLXRuJywgJzgnLCAnLW1hJywgJzIwMCcsICctbWV0YWxfYmluZGluZycsICctaW1hZScsICc8aW5maWxlLm1hZT4nLCAnLW9tYWUnLCAnPG91dGZpbGUubWFlPic=

> <r_lp_tautomer_probability>
0.107061

> <r_epik_Ionization_Penalty>
0.727192

> <r_epik_Ionization_Penalty_Charging>
0.726719

> <r_epik_Ionization_Penalty_Neutral>
0.000473387

> <r_epik_State_Penalty>
2.53712

> <r_epik_Charging_Adjusted_Penalty>
3.26383

> <i_epik_Tot_Q>
0

> <i_epik_Tot_abs_Q>
0

> <r_epik_Metal_State_Penalty>
3.71015

> <b_epik_Metal_Only>
0

> <s_lp_Force_Field>
OPLS_2005

> <r_lp_Energy>
28.3743

> <b_lp_Chiralities_Consistent>
1

> <s_lp_Variant>
AV-unprocessed.smi:910-6

> <Gold.Version>
5.8.1

> <Gold.Id.Protein>
6NUR|6NUR_protein|mol2

> <Gold.PLP.Fitness>
39.8804

> <Gold.PLP.PLP>
-36.4030

> <Gold.PLP.part.hbond>
-1.9658

> <Gold.PLP.part.metal>
0.0000

> <Gold.PLP.part.buried>
-1.2862

> <Gold.PLP.part.nonpolar>
-32.8352

> <Gold.PLP.part.repulsive>
0.4682

> <Gold.PLP.ligand.clash>
0.0000

> <Gold.PLP.ligand.torsion>
1.2778

> <Gold.PLP.Chemscore.Hbond>
2.0000

> <Gold.PLP.Chemscore.CHOScore>
0.0000

> <Gold.PLP.Chemscore.Metal>
0.0000

> <Gold.Chemscore.Hbonds>
donor molecule, donor type, donor heavy atom, donor atom, acceptor molecule, acceptor atom, score
      L1  H     3    25       P1 10747  1.00
      L1  H     8    26       P1  7948  1.00

> <Gold.PLP.Chemscore.Internal.Correction>
0.0330

> <Gold.Rescore>
     Score         DG    S(hbond)    S(metal)    S(lipo)     H(rot)  DE(clash)    DE(int)     intcor
     16.16     -17.46       1.97        0.00      82.48       1.66       0.04       1.26       ----

> <Gold.Chemscore.Fitness>
16.1638

> <Gold.Chemscore.DG>
-17.4620

> <Gold.Chemscore.ZeroCoef>
-5.4800

> <Gold.Chemscore.Hbond>
1.9686

> <Gold.Chemscore.Metal>
0.0000

> <Gold.Chemscore.Lipo>
82.4819

> <Gold.Chemscore.Internal_Hbond>
0.0000

> <Gold.Chemscore.DEClash>
0.0358

> <Gold.Chemscore.DEInternal>
1.2624

> <Gold.Chemscore.Rot>
1.6576

> <Gold.Chemscore.Internal.Correction>
   9.000000E+99

> <Gold.Chemscore.Hbonds>
donor molecule, donor type, donor heavy atom, donor atom, acceptor molecule, acceptor atom, score
      L1  H     3    25       P1 10747  0.95
      L1  H     8    26       P1  7948  0.88

> <Gold.Chemscore.Hbond.Weighted>
-6.5751

> <Gold.Chemscore.Metal.Weighted>
-0.0000

> <Gold.Chemscore.Lipo.Weighted>
-9.6504

> <Gold.Chemscore.Internal_Hbond.Weighted>
0.0000

> <Gold.Chemscore.DEClash.Weighted>
0.0358

> <Gold.Chemscore.DEInternal.Weighted>
1.2624

> <Gold.Chemscore.Rot.Weighted>
4.2436

> <Gold.Chemscore.Internal.Correction.Weighted>
   9.000000E+99

> <Gold.Protein.RotatedTorsions>
[ 6907 6896 6895 6894 ] final  -84.19 input  -60.11 | X-H torsion
[ 7974 7965 7964 7962 ] final  126.29 input  175.53 | X-H torsion
[ 8008 7997 7996 7995 ] final   91.05 input   59.86 | X-H torsion
[ 10167 10162 10161 10158 ] final -157.68 input  -65.29 | X-H torsion
[ 10718 10713 10712 10709 ] final  107.36 input   66.30 | X-H torsion
[ 10763 10752 10751 10750 ] final   -0.44 input  -60.55 | X-H torsion
[ 11005 11000 10999 10996 ] final   98.77 input  -57.11 | X-H torsion

> <Gold.Protein.ActiveResidues>
 VAL166  LYS551  ARG553  GLY616  TRP617  ASP618  TYR619  PRO620  LYS621  CYS622 
 ASP623  PHE694  ASN695  SER759  ASP760  ASP761  ALA762  ILE779  LEU786  VAL792 
 PHE793  MET794  SER795  GLU796  ALA797  LYS798  CYS799  TRP800  GLU811  SER814 

> <Gold.Protein.RotatedAtoms>
  150.6878  134.3397  159.4862 H   0  0  0  0  0  0  0  0  0  0  0  0  # atno 6907 bound_to 6896
  152.1251  134.9174  160.0570 H   0  0  0  0  0  0  0  0  0  0  0  0  # atno 6908 bound_to 6896
  152.0365  133.3924  159.4356 H   0  0  0  0  0  0  0  0  0  0  0  0  # atno 6909 bound_to 6896
  145.0634  139.3787  143.4994 H   0  0  0  0  0  0  0  0  0  0  0  0  # atno 7974 bound_to 7965
  156.0192  140.3342  155.7021 H   0  0  0  0  0  0  0  0  0  0  0  0  # atno 8008 bound_to 7997
  155.6047  140.0659  157.2741 H   0  0  0  0  0  0  0  0  0  0  0  0  # atno 8009 bound_to 7997
  154.4309  140.1804  156.1198 H   0  0  0  0  0  0  0  0  0  0  0  0  # atno 8010 bound_to 7997
  139.6751  143.9677  152.2306 H   0  0  0  0  0  0  0  0  0  0  0  0  # atno 10167 bound_to 10162
  157.6631  131.0871  150.6145 H   0  0  0  0  0  0  0  0  0  0  0  0  # atno 10718 bound_to 10713
  153.3319  135.6975  153.6941 H   0  0  0  0  0  0  0  0  0  0  0  0  # atno 10763 bound_to 10752
  153.5740  135.3511  155.2849 H   0  0  0  0  0  0  0  0  0  0  0  0  # atno 10764 bound_to 10752
  154.8619  135.4279  154.2510 H   0  0  0  0  0  0  0  0  0  0  0  0  # atno 10765 bound_to 10752
  139.8771  134.9064  156.4506 H   0  0  0  0  0  0  0  0  0  0  0  0  # atno 11005 bound_to 11000
  146.3525  140.0344  142.8648 LP  0  0  0  0  0  0  0  0  0  0  0  0  # atno 17320 bound_to 7965
  145.1381  140.9556  143.4505 LP  0  0  0  0  0  0  0  0  0  0  0  0  # atno 17321 bound_to 7965
  139.9452  144.6656  150.8226 LP  0  0  0  0  0  0  0  0  0  0  0  0  # atno 17342 bound_to 10162
  140.7632  143.3218  151.2605 LP  0  0  0  0  0  0  0  0  0  0  0  0  # atno 17343 bound_to 10162
  156.6447  130.4468  149.5740 LP  0  0  0  0  0  0  0  0  0  0  0  0  # atno 17370 bound_to 10713
  156.2183  130.6721  151.1341 LP  0  0  0  0  0  0  0  0  0  0  0  0  # atno 17371 bound_to 10713
  140.8935  133.7831  155.9598 LP  0  0  0  0  0  0  0  0  0  0  0  0  # atno 17394 bound_to 11000
  140.8728  134.2705  157.5182 LP  0  0  0  0  0  0  0  0  0  0  0  0  # atno 17395 bound_to 11000

$$$$
