AV-unprocessed.smi:1694|AV-procd|sdf|6787|dock6
  -GOLD-   22720 7553D 1   1.00000     0.00000
 Structure written by MMmdl.
 34 35  0  0  0  0  0  0  0  0  1 V2000
  151.1276  144.6059  158.1168 C   0  0  0  0  0  0  0  0  0  0  0  0
  151.7537  143.3380  158.6751 C   0  0  0  0  0  0  0  0  0  0  0  0
  152.8235  143.4441  159.5890 C   0  0  0  0  0  0  0  0  0  0  0  0
  153.4043  142.2733  160.1047 C   0  0  0  0  0  0  0  0  0  0  0  0
  152.8874  141.0379  159.6808 C   0  0  0  0  0  0  0  0  0  0  0  0
  151.8645  140.9279  158.8089 N   0  0  0  0  0  0  0  0  0  0  0  0
  151.2867  142.0480  158.3036 C   0  0  0  0  0  0  0  0  0  0  0  0
  150.2112  142.0218  157.3629 N   0  0  0  0  0  0  0  0  0  0  0  0
  150.0867  141.4223  156.1595 C   0  0  0  0  0  0  0  0  0  0  0  0
  151.0074  140.7616  155.6816 O   0  0  0  0  0  0  0  0  0  0  0  0
  148.9178  141.6045  155.5239 N   0  0  0  0  0  0  0  0  0  0  0  0
  148.5678  141.0637  154.2156 C   0  0  2  0  0  0  0  0  0  0  0  0
  147.0732  141.2814  153.9508 C   0  0  0  0  0  0  0  0  0  0  0  0
  146.6729  140.7386  152.5701 C   0  0  0  0  0  0  0  0  0  0  0  0
  147.2294  139.3367  152.2814 C   0  0  0  0  0  0  0  0  0  0  0  0
  146.7299  138.6617  151.3843 O   0  0  0  0  0  0  0  0  0  0  0  0
  148.2780  138.8905  152.9954 N   0  0  0  0  0  0  0  0  0  0  0  0
  148.8988  139.5600  154.1382 C   0  0  0  0  0  0  0  0  0  0  0  0
  151.6176  145.4977  158.5085 H   0  0  0  0  0  0  0  0  0  0  0  0
  150.0718  144.6590  158.3840 H   0  0  0  0  0  0  0  0  0  0  0  0
  151.2121  144.6279  157.0299 H   0  0  0  0  0  0  0  0  0  0  0  0
  153.1976  144.4108  159.8932 H   0  0  0  0  0  0  0  0  0  0  0  0
  154.2251  142.3213  160.8050 H   0  0  0  0  0  0  0  0  0  0  0  0
  153.3053  140.1129  160.0498 H   0  0  0  0  0  0  0  0  0  0  0  0
  149.4101  142.5716  157.6368 H   0  0  0  0  0  0  0  0  0  0  0  0
  148.2142  142.1600  155.9902 H   0  0  0  0  0  0  0  0  0  0  0  0
  149.1300  141.5951  153.4450 H   0  0  0  0  0  0  0  0  0  0  0  0
  146.4815  140.7882  154.7237 H   0  0  0  0  0  0  0  0  0  0  0  0
  146.8317  142.3436  154.0084 H   0  0  0  0  0  0  0  0  0  0  0  0
  145.5867  140.7271  152.4739 H   0  0  0  0  0  0  0  0  0  0  0  0
  147.0472  141.4079  151.7948 H   0  0  0  0  0  0  0  0  0  0  0  0
  148.6421  137.9787  152.7599 H   0  0  0  0  0  0  0  0  0  0  0  0
  149.9779  139.4095  154.0941 H   0  0  0  0  0  0  0  0  0  0  0  0
  148.5492  139.0539  155.0390 H   0  0  0  0  0  0  0  0  0  0  0  0
  1  2  1  0  0  0  0
  1 19  1  0  0  0  0
  1 20  1  0  0  0  0
  1 21  1  0  0  0  0
  2  7  1  0  0  0  0
  2  3  2  0  0  0  0
  3  4  1  0  0  0  0
  3 22  1  0  0  0  0
  4  5  2  0  0  0  0
  4 23  1  0  0  0  0
  5  6  1  0  0  0  0
  5 24  1  0  0  0  0
  6  7  2  0  0  0  0
  7  8  1  0  0  0  0
  8  9  1  0  0  0  0
  8 25  1  0  0  0  0
  9 10  2  0  0  0  0
  9 11  1  0  0  0  0
 11 12  1  0  0  0  0
 11 26  1  0  0  0  0
 12 18  1  0  0  0  0
 12 13  1  0  0  0  0
 12 27  1  0  0  0  0
 13 14  1  0  0  0  0
 13 28  1  0  0  0  0
 13 29  1  0  0  0  0
 14 15  1  0  0  0  0
 14 30  1  0  0  0  0
 14 31  1  0  0  0  0
 15 16  2  0  0  0  0
 15 17  1  0  0  0  0
 17 18  1  0  0  0  0
 17 32  1  0  0  0  0
 18 33  1  0  0  0  0
 18 34  1  0  0  0  0
M  END
> <s_m_source_file>
AV-unprocessed.smi

> <i_m_source_file_index>
1694

> <i_lp_mmshare_version>
43012

> <i_f3d_flags>
0

> <s_epik_input>
W0NIM11jMVtjSF1bY0hdW2NIXW5jMVtOSF1DKD1PKVtOSF1bQ0BASF0yW0NIMl1bQ0gyXUMoPU8pW05IXVtDSDJdMg==

> <s_epik_cmdline>
J2VwaWtfcHl0aG9uJywgJy1waCcsICc3LjAnLCAnLXRuJywgJzgnLCAnLW1hJywgJzIwMCcsICctbWV0YWxfYmluZGluZycsICctaW1hZScsICc8aW5maWxlLm1hZT4nLCAnLW9tYWUnLCAnPG91dGZpbGUubWFlPic=

> <r_lp_tautomer_probability>
1

> <r_epik_Ionization_Penalty>
5.3746e-05

> <r_epik_Ionization_Penalty_Charging>
0

> <r_epik_Ionization_Penalty_Neutral>
5.3746e-05

> <r_epik_State_Penalty>
-0

> <r_epik_Charging_Adjusted_Penalty>
0

> <i_epik_Tot_Q>
0

> <i_epik_Tot_abs_Q>
0

> <r_epik_Metal_State_Penalty>
-0

> <b_epik_Metal_Only>
0

> <s_lp_Force_Field>
OPLS_2005

> <r_lp_Energy>
12.9813

> <b_lp_Chiralities_Consistent>
1

> <s_lp_Variant>
AV-unprocessed.smi:1694-1

> <Gold.Version>
5.8.1

> <Gold.Id.Protein>
6NUR|6NUR_protein|mol2

> <Gold.PLP.Fitness>
42.5580

> <Gold.PLP.PLP>
-36.9341

> <Gold.PLP.part.hbond>
-4.5350

> <Gold.PLP.part.metal>
0.0000

> <Gold.PLP.part.buried>
0.6696

> <Gold.PLP.part.nonpolar>
-33.3132

> <Gold.PLP.part.repulsive>
1.1420

> <Gold.PLP.ligand.clash>
0.0000

> <Gold.PLP.ligand.torsion>
0.6143

> <Gold.PLP.Chemscore.Hbond>
2.2838

> <Gold.PLP.Chemscore.CHOScore>
0.0000

> <Gold.PLP.Chemscore.Metal>
0.0000

> <Gold.Chemscore.Hbonds>
donor molecule, donor type, donor heavy atom, donor atom, acceptor molecule, acceptor atom, score
      L1  H    17    32       P1  7948  1.00
      P1  H  7954  7966       L1    16  0.55
      P1  H  7989  7998       L1    10  0.33

> <Gold.PLP.Chemscore.Internal.Correction>
0.0013

> <Gold.Rescore>
     Score         DG    S(hbond)    S(metal)    S(lipo)     H(rot)  DE(clash)    DE(int)     intcor
     16.87     -20.88       2.34        0.00      86.65       1.00       2.33       1.68       ----

> <Gold.Chemscore.Fitness>
16.8717

> <Gold.Chemscore.DG>
-20.8797

> <Gold.Chemscore.ZeroCoef>
-5.4800

> <Gold.Chemscore.Hbond>
2.3419

> <Gold.Chemscore.Metal>
0.0000

> <Gold.Chemscore.Lipo>
86.6466

> <Gold.Chemscore.Internal_Hbond>
0.0000

> <Gold.Chemscore.DEClash>
2.3330

> <Gold.Chemscore.DEInternal>
1.6750

> <Gold.Chemscore.Rot>
1.0000

> <Gold.Chemscore.Internal.Correction>
   9.000000E+99

> <Gold.Chemscore.Hbonds>
donor molecule, donor type, donor heavy atom, donor atom, acceptor molecule, acceptor atom, score
      L1  H    17    32       P1  7948  0.98
      P1  H  7954  7966       L1    16  0.48
      P1  H  7989  7998       L1    10  0.33

> <Gold.Chemscore.Hbond.Weighted>
-7.8220

> <Gold.Chemscore.Metal.Weighted>
-0.0000

> <Gold.Chemscore.Lipo.Weighted>
-10.1377

> <Gold.Chemscore.Internal_Hbond.Weighted>
0.0000

> <Gold.Chemscore.DEClash.Weighted>
2.3330

> <Gold.Chemscore.DEInternal.Weighted>
1.6750

> <Gold.Chemscore.Rot.Weighted>
2.5600

> <Gold.Chemscore.Internal.Correction.Weighted>
   9.000000E+99

> <Gold.Protein.RotatedTorsions>
[ 6907 6896 6895 6894 ] final   77.22 input  -60.11 | X-H torsion
[ 7974 7965 7964 7962 ] final  -38.60 input  175.53 | X-H torsion
[ 8008 7997 7996 7995 ] final -134.72 input   59.86 | X-H torsion
[ 10167 10162 10161 10158 ] final   39.99 input  -65.29 | X-H torsion
[ 10718 10713 10712 10709 ] final  176.04 input   66.30 | X-H torsion
[ 10763 10752 10751 10750 ] final  175.79 input  -60.55 | X-H torsion
[ 11005 11000 10999 10996 ] final  144.98 input  -57.11 | X-H torsion

> <Gold.Protein.ActiveResidues>
 VAL166  LYS551  ARG553  GLY616  TRP617  ASP618  TYR619  PRO620  LYS621  CYS622 
 ASP623  PHE694  ASN695  SER759  ASP760  ASP761  ALA762  ILE779  LEU786  VAL792 
 PHE793  MET794  SER795  GLU796  ALA797  LYS798  CYS799  TRP800  GLU811  SER814 

> <Gold.Protein.RotatedAtoms>
  152.5108  134.3849  159.9363 H   0  0  0  0  0  0  0  0  0  0  0  0  # atno 6907 bound_to 6896
  151.3807  133.3816  159.2717 H   0  0  0  0  0  0  0  0  0  0  0  0  # atno 6908 bound_to 6896
  150.9507  134.8927  159.7728 H   0  0  0  0  0  0  0  0  0  0  0  0  # atno 6909 bound_to 6896
  146.0472  140.6530  142.9059 H   0  0  0  0  0  0  0  0  0  0  0  0  # atno 7974 bound_to 7965
  155.3668  140.0486  157.3046 H   0  0  0  0  0  0  0  0  0  0  0  0  # atno 8008 bound_to 7997
  154.5150  140.2205  155.9047 H   0  0  0  0  0  0  0  0  0  0  0  0  # atno 8009 bound_to 7997
  156.1626  140.3113  155.8839 H   0  0  0  0  0  0  0  0  0  0  0  0  # atno 8010 bound_to 7997
  140.3786  144.2010  150.6131 H   0  0  0  0  0  0  0  0  0  0  0  0  # atno 10167 bound_to 10162
  156.9259  130.9955  151.2996 H   0  0  0  0  0  0  0  0  0  0  0  0  # atno 10718 bound_to 10713
  154.4724  135.2771  155.1633 H   0  0  0  0  0  0  0  0  0  0  0  0  # atno 10763 bound_to 10752
  154.3376  135.6177  153.5585 H   0  0  0  0  0  0  0  0  0  0  0  0  # atno 10764 bound_to 10752
  152.9865  135.5781  154.5107 H   0  0  0  0  0  0  0  0  0  0  0  0  # atno 10765 bound_to 10752
  140.0675  134.9170  157.1289 H   0  0  0  0  0  0  0  0  0  0  0  0  # atno 11005 bound_to 11000
  144.7104  140.4016  143.7085 LP  0  0  0  0  0  0  0  0  0  0  0  0  # atno 17320 bound_to 7965
  145.6785  139.1613  143.2714 LP  0  0  0  0  0  0  0  0  0  0  0  0  # atno 17321 bound_to 7965
  140.4961  143.2332  151.8748 LP  0  0  0  0  0  0  0  0  0  0  0  0  # atno 17342 bound_to 10162
  139.4797  144.5112  151.8930 LP  0  0  0  0  0  0  0  0  0  0  0  0  # atno 17343 bound_to 10162
  157.5878  130.8422  149.8614 LP  0  0  0  0  0  0  0  0  0  0  0  0  # atno 17370 bound_to 10713
  156.0469  130.3726  150.1295 LP  0  0  0  0  0  0  0  0  0  0  0  0  # atno 17371 bound_to 10713
  140.3677  134.2425  155.7181 LP  0  0  0  0  0  0  0  0  0  0  0  0  # atno 17394 bound_to 11000
  141.1999  133.8001  157.0516 LP  0  0  0  0  0  0  0  0  0  0  0  0  # atno 17395 bound_to 11000

$$$$
