AV-unprocessed.smi:6|AV-procd|sdf|39|dock3
  -GOLD-   2262015153D 1   1.00000     0.00000
 Structure written by MMmdl.
 37 38  0  0  0  0  0  0  0  0  1 V2000
  145.0421  136.5749  151.1463 C   0  0  0  0  0  0  0  0  0  0  0  0
  143.8823  135.5678  151.1126 C   0  0  0  0  0  0  0  0  0  0  0  0
  142.8418  135.8099  152.2168 C   0  0  0  0  0  0  0  0  0  0  0  0
  144.3768  134.1270  151.0992 C   0  0  0  0  0  0  0  0  0  0  0  0
  143.4754  133.1745  150.8346 N   0  0  0  0  0  0  0  0  0  0  0  0
  143.9182  131.8992  150.8271 C   0  0  0  0  0  0  0  0  0  0  0  0
  145.2670  131.5795  151.0828 C   0  0  0  0  0  0  0  0  0  0  0  0
  146.1326  132.6612  151.3457 C   0  0  0  0  0  0  0  0  0  0  0  0
  147.4866  132.4116  151.6076 N   0  0  0  0  0  0  0  0  0  0  0  0
  148.2951  133.4321  152.2628 C   0  0  0  0  0  0  0  0  0  0  0  0
  149.3482  132.8501  153.1925 C   0  0  0  0  0  0  0  0  0  0  0  0
  149.5310  131.5109  153.3162 C   0  0  0  0  0  0  0  0  0  0  0  0
  150.4967  130.9420  154.1314 N   0  0  0  0  0  0  0  0  0  0  0  0
  150.6794  129.5224  154.2617 C   0  0  0  0  0  0  0  0  0  0  0  0
  151.3616  131.7693  154.8775 C   0  0  0  0  0  0  0  0  0  0  0  0
  152.2412  131.3294  155.6185 O   0  0  0  0  0  0  0  0  0  0  0  0
  151.1826  133.1452  154.7412 N   0  0  0  0  0  0  0  0  0  0  0  0
  150.2225  133.7656  153.9356 C   0  0  0  0  0  0  0  0  0  0  0  0
  150.1674  134.9935  153.8965 O   0  0  0  0  0  0  0  0  0  0  0  0
  145.6759  133.9359  151.3526 N   0  0  0  0  0  0  0  0  0  0  0  0
  151.8004  133.7451  155.2686 H   0  0  0  0  0  0  0  0  0  0  0  0
  145.7201  136.4183  150.3068 H   0  0  0  0  0  0  0  0  0  0  0  0
  145.6224  136.4847  152.0652 H   0  0  0  0  0  0  0  0  0  0  0  0
  144.6736  137.5992  151.0868 H   0  0  0  0  0  0  0  0  0  0  0  0
  143.3637  135.7373  150.1671 H   0  0  0  0  0  0  0  0  0  0  0  0
  141.9942  135.1322  152.1104 H   0  0  0  0  0  0  0  0  0  0  0  0
  142.4567  136.8290  152.1758 H   0  0  0  0  0  0  0  0  0  0  0  0
  143.2692  135.6569  153.2081 H   0  0  0  0  0  0  0  0  0  0  0  0
  143.1921  131.1283  150.6160 H   0  0  0  0  0  0  0  0  0  0  0  0
  145.6140  130.5568  151.0758 H   0  0  0  0  0  0  0  0  0  0  0  0
  147.9588  131.7047  151.0629 H   0  0  0  0  0  0  0  0  0  0  0  0
  148.7767  134.0433  151.4986 H   0  0  0  0  0  0  0  0  0  0  0  0
  147.6531  134.0981  152.8409 H   0  0  0  0  0  0  0  0  0  0  0  0
  148.8864  130.8545  152.7486 H   0  0  0  0  0  0  0  0  0  0  0  0
  150.5340  129.2629  155.3123 H   0  0  0  0  0  0  0  0  0  0  0  0
  151.6870  129.2847  153.9142 H   0  0  0  0  0  0  0  0  0  0  0  0
  149.9357  129.0206  153.6417 H   0  0  0  0  0  0  0  0  0  0  0  0
  1  2  1  0  0  0  0
  1 22  1  0  0  0  0
  1 23  1  0  0  0  0
  1 24  1  0  0  0  0
  2  3  1  0  0  0  0
  2  4  1  0  0  0  0
  2 25  1  0  0  0  0
  3 26  1  0  0  0  0
  3 27  1  0  0  0  0
  3 28  1  0  0  0  0
  4 20  1  0  0  0  0
  4  5  2  0  0  0  0
  5  6  1  0  0  0  0
  6  7  2  0  0  0  0
  6 29  1  0  0  0  0
  7  8  1  0  0  0  0
  7 30  1  0  0  0  0
  8  9  1  0  0  0  0
  8 20  2  0  0  0  0
  9 10  1  0  0  0  0
  9 31  1  0  0  0  0
 10 11  1  0  0  0  0
 10 32  1  0  0  0  0
 10 33  1  0  0  0  0
 11 18  1  0  0  0  0
 11 12  2  0  0  0  0
 12 13  1  0  0  0  0
 12 34  1  0  0  0  0
 13 14  1  0  0  0  0
 13 15  1  0  0  0  0
 14 35  1  0  0  0  0
 14 36  1  0  0  0  0
 14 37  1  0  0  0  0
 15 16  2  0  0  0  0
 15 17  1  0  0  0  0
 17 21  1  0  0  0  0
 17 18  1  0  0  0  0
 18 19  2  0  0  0  0
M  END
> <s_m_source_file>
AV-unprocessed.smi

> <i_m_source_file_index>
6

> <i_lp_mmshare_version>
43012

> <i_f3d_flags>
0

> <s_epik_input>
W0NIM11bQ0hdKFtDSDNdKWMxbltjSF1bY0hdYyhuMSlbTkhdW0NIMl1jMltjSF1uKFtDSDNdKWMoPU8pW25IXWMyPU8=

> <s_epik_cmdline>
J2VwaWtfcHl0aG9uJywgJy1waCcsICc3LjAnLCAnLXRuJywgJzgnLCAnLW1hJywgJzIwMCcsICctbWV0YWxfYmluZGluZycsICctaW1hZScsICc8aW5maWxlLm1hZT4nLCAnLW9tYWUnLCAnPG91dGZpbGUubWFlPic=

> <r_lp_tautomer_probability>
0.999537

> <r_epik_Ionization_Penalty>
0.308056

> <r_epik_Ionization_Penalty_Charging>
0.000755917

> <r_epik_Ionization_Penalty_Neutral>
0.3073

> <r_epik_State_Penalty>
0.300752

> <r_epik_Charging_Adjusted_Penalty>
0.301508

> <i_epik_Tot_Q>
0

> <i_epik_Tot_abs_Q>
0

> <r_epik_Metal_State_Penalty>
0.395738

> <b_epik_Metal_Only>
0

> <s_lp_Force_Field>
OPLS_2005

> <r_lp_Energy>
3.35028

> <b_lp_Chiralities_Consistent>
1

> <s_lp_Variant>
AV-unprocessed.smi:6-1

> <Gold.Version>
5.8.1

> <Gold.Id.Protein>
6NUR|6NUR_protein|mol2

> <Gold.PLP.Fitness>
42.6829

> <Gold.PLP.PLP>
-35.0764

> <Gold.PLP.part.hbond>
-1.0000

> <Gold.PLP.part.metal>
0.0000

> <Gold.PLP.part.buried>
-6.5924

> <Gold.PLP.part.nonpolar>
-28.4271

> <Gold.PLP.part.repulsive>
1.3923

> <Gold.PLP.ligand.clash>
0.0000

> <Gold.PLP.ligand.torsion>
0.3853

> <Gold.PLP.Chemscore.Hbond>
1.0000

> <Gold.PLP.Chemscore.CHOScore>
1.7613

> <Gold.PLP.Chemscore.Metal>
0.0000

> <Gold.Chemscore.Hbonds>
donor molecule, donor type, donor heavy atom, donor atom, acceptor molecule, acceptor atom, score
      L1  H     9    31       P1 10747  1.00
      L1  C     6    29       P1 10952  0.56
      L1  C    12    34       P1 10747  0.79

> <Gold.PLP.Chemscore.Internal.Correction>
0.0931

> <Gold.Rescore>
     Score         DG    S(hbond)    S(metal)    S(lipo)     H(rot)  DE(clash)    DE(int)     intcor
     10.62     -11.55       0.99        0.00      59.77       1.65       0.07       0.86       ----

> <Gold.Chemscore.Fitness>
10.6201

> <Gold.Chemscore.DG>
-11.5535

> <Gold.Chemscore.ZeroCoef>
-5.4800

> <Gold.Chemscore.Hbond>
0.9903

> <Gold.Chemscore.Metal>
0.0000

> <Gold.Chemscore.Lipo>
59.7723

> <Gold.Chemscore.Internal_Hbond>
0.0000

> <Gold.Chemscore.DEClash>
0.0728

> <Gold.Chemscore.DEInternal>
0.8606

> <Gold.Chemscore.Rot>
1.6514

> <Gold.Chemscore.Internal.Correction>
   9.000000E+99

> <Gold.Chemscore.Hbonds>
donor molecule, donor type, donor heavy atom, donor atom, acceptor molecule, acceptor atom, score
      L1  H     9    31       P1 10747  0.94

> <Gold.Chemscore.Hbond.Weighted>
-3.3076

> <Gold.Chemscore.Metal.Weighted>
-0.0000

> <Gold.Chemscore.Lipo.Weighted>
-6.9934

> <Gold.Chemscore.Internal_Hbond.Weighted>
0.0000

> <Gold.Chemscore.DEClash.Weighted>
0.0728

> <Gold.Chemscore.DEInternal.Weighted>
0.8606

> <Gold.Chemscore.Rot.Weighted>
4.2275

> <Gold.Chemscore.Internal.Correction.Weighted>
   9.000000E+99

> <Gold.Protein.RotatedTorsions>
[ 6907 6896 6895 6894 ] final  -28.63 input  -60.11 | X-H torsion
[ 7974 7965 7964 7962 ] final -176.48 input  175.53 | X-H torsion
[ 8008 7997 7996 7995 ] final  142.73 input   59.86 | X-H torsion
[ 10167 10162 10161 10158 ] final   25.89 input  -65.29 | X-H torsion
[ 10718 10713 10712 10709 ] final   98.43 input   66.30 | X-H torsion
[ 10763 10752 10751 10750 ] final   11.39 input  -60.55 | X-H torsion
[ 11005 11000 10999 10996 ] final -172.70 input  -57.11 | X-H torsion

> <Gold.Protein.ActiveResidues>
 VAL166  LYS551  ARG553  GLY616  TRP617  ASP618  TYR619  PRO620  LYS621  CYS622 
 ASP623  PHE694  ASN695  SER759  ASP760  ASP761  ALA762  ILE779  LEU786  VAL792 
 PHE793  MET794  SER795  GLU796  ALA797  LYS798  CYS799  TRP800  GLU811  SER814 

> <Gold.Protein.RotatedAtoms>
  151.1302  135.0126  159.8578 H   0  0  0  0  0  0  0  0  0  0  0  0  # atno 6907 bound_to 6896
  152.5450  134.1619  159.8571 H   0  0  0  0  0  0  0  0  0  0  0  0  # atno 6908 bound_to 6896
  151.1685  133.4754  159.2627 H   0  0  0  0  0  0  0  0  0  0  0  0  # atno 6909 bound_to 6896
  144.7127  140.1164  143.6408 H   0  0  0  0  0  0  0  0  0  0  0  0  # atno 7974 bound_to 7965
  156.2944  140.2281  156.4775 H   0  0  0  0  0  0  0  0  0  0  0  0  # atno 8008 bound_to 7997
  154.7881  140.0456  157.1201 H   0  0  0  0  0  0  0  0  0  0  0  0  # atno 8009 bound_to 7997
  154.9677  140.3062  155.5005 H   0  0  0  0  0  0  0  0  0  0  0  0  # atno 8010 bound_to 7997
  140.5068  144.0225  150.6355 H   0  0  0  0  0  0  0  0  0  0  0  0  # atno 10167 bound_to 10162
  157.6895  131.0640  150.4795 H   0  0  0  0  0  0  0  0  0  0  0  0  # atno 10718 bound_to 10713
  153.1932  135.6845  153.8326 H   0  0  0  0  0  0  0  0  0  0  0  0  # atno 10763 bound_to 10752
  153.7618  135.3209  155.3339 H   0  0  0  0  0  0  0  0  0  0  0  0  # atno 10764 bound_to 10752
  154.8129  135.4705  154.0664 H   0  0  0  0  0  0  0  0  0  0  0  0  # atno 10765 bound_to 10752
  140.4940  134.5957  157.4965 H   0  0  0  0  0  0  0  0  0  0  0  0  # atno 11005 bound_to 11000
  145.9409  139.2668  143.1269 LP  0  0  0  0  0  0  0  0  0  0  0  0  # atno 17320 bound_to 7965
  145.9424  140.8969  143.0301 LP  0  0  0  0  0  0  0  0  0  0  0  0  # atno 17321 bound_to 7965
  140.3536  143.2948  152.0460 LP  0  0  0  0  0  0  0  0  0  0  0  0  # atno 17342 bound_to 10162
  139.4886  144.6355  151.6984 LP  0  0  0  0  0  0  0  0  0  0  0  0  # atno 17343 bound_to 10162
  156.5128  130.4143  149.6292 LP  0  0  0  0  0  0  0  0  0  0  0  0  # atno 17370 bound_to 10713
  156.3225  130.7288  151.2203 LP  0  0  0  0  0  0  0  0  0  0  0  0  # atno 17371 bound_to 10713
  139.9752  134.7227  155.9963 LP  0  0  0  0  0  0  0  0  0  0  0  0  # atno 17394 bound_to 11000
  141.1469  133.6554  156.3896 LP  0  0  0  0  0  0  0  0  0  0  0  0  # atno 17395 bound_to 11000

$$$$
