AV-unprocessed.smi:1439|AV-procd|sdf|5869|dock4
  -GOLD-   22720 5543D 1   1.00000     0.00000
 Structure written by MMmdl.
 36 37  0  0  0  0  0  0  0  0  1 V2000
  146.7730  141.2502  152.8470 N   0  0  0  0  0  0  0  0  0  0  0  0
  147.9472  140.8464  153.3397 C   0  0  0  0  0  0  0  0  0  0  0  0
  148.8968  141.6129  153.4864 O   0  0  0  0  0  0  0  0  0  0  0  0
  148.0771  139.3694  153.7172 C   0  0  0  0  0  0  0  0  0  0  0  0
  149.3828  139.1206  154.4161 C   0  0  0  0  0  0  0  0  0  0  0  0
  150.4500  138.3999  153.9354 C   0  0  0  0  0  0  0  0  0  0  0  0
  151.7749  138.3561  155.0664 S   0  0  0  0  0  0  0  0  0  0  0  0
  150.8055  139.3298  156.1736 C   0  0  0  0  0  0  0  0  0  0  0  0
  151.1703  139.7857  157.4648 N   0  0  0  0  0  0  0  0  0  0  0  0
  152.3721  139.7045  158.0619 C   0  0  0  0  0  0  0  0  0  0  0  0
  153.3721  139.2002  157.5513 O   0  0  0  0  0  0  0  0  0  0  0  0
  152.4503  140.2872  159.4765 C   0  0  0  0  0  0  0  0  0  0  0  0
  153.2353  141.6103  159.5366 C   0  0  0  0  0  0  0  0  0  0  0  0
  152.3391  142.8382  159.3192 C   0  0  2  0  0  0  0  0  0  0  0  0
  152.8147  143.7627  158.2027 C   0  0  0  0  0  0  0  0  0  0  0  0
  152.1428  145.0792  158.5492 C   0  0  0  0  0  0  0  0  0  0  0  0
  151.8744  144.9716  160.0544 C   0  0  0  0  0  0  0  0  0  0  0  0
  152.3668  143.6960  160.4492 O   0  0  0  0  0  0  0  0  0  0  0  0
  149.5990  139.6416  155.6973 N   0  0  0  0  0  0  0  0  0  0  0  0
  146.6431  142.2186  152.5925 H   0  0  0  0  0  0  0  0  0  0  0  0
  146.0176  140.5890  152.7378 H   0  0  0  0  0  0  0  0  0  0  0  0
  147.2330  139.0821  154.3461 H   0  0  0  0  0  0  0  0  0  0  0  0
  148.0066  138.7609  152.8148 H   0  0  0  0  0  0  0  0  0  0  0  0
  150.5369  137.8975  152.9832 H   0  0  0  0  0  0  0  0  0  0  0  0
  150.4334  140.2280  157.9945 H   0  0  0  0  0  0  0  0  0  0  0  0
  151.4417  140.4444  159.8619 H   0  0  0  0  0  0  0  0  0  0  0  0
  152.9191  139.5460  160.1247 H   0  0  0  0  0  0  0  0  0  0  0  0
  153.7454  141.7021  160.4966 H   0  0  0  0  0  0  0  0  0  0  0  0
  154.0143  141.6010  158.7727 H   0  0  0  0  0  0  0  0  0  0  0  0
  151.3087  142.5314  159.1303 H   0  0  0  0  0  0  0  0  0  0  0  0
  153.8982  143.8819  158.2465 H   0  0  0  0  0  0  0  0  0  0  0  0
  152.5534  143.3989  157.2085 H   0  0  0  0  0  0  0  0  0  0  0  0
  152.7731  145.9331  158.2993 H   0  0  0  0  0  0  0  0  0  0  0  0
  151.2026  145.1847  158.0067 H   0  0  0  0  0  0  0  0  0  0  0  0
  152.3725  145.7595  160.6198 H   0  0  0  0  0  0  0  0  0  0  0  0
  150.8050  145.0310  160.2599 H   0  0  0  0  0  0  0  0  0  0  0  0
  1  2  1  0  0  0  0
  1 20  1  0  0  0  0
  1 21  1  0  0  0  0
  2  3  2  0  0  0  0
  2  4  1  0  0  0  0
  4  5  1  0  0  0  0
  4 22  1  0  0  0  0
  4 23  1  0  0  0  0
  5 19  1  0  0  0  0
  5  6  2  0  0  0  0
  6  7  1  0  0  0  0
  6 24  1  0  0  0  0
  7  8  1  0  0  0  0
  8  9  1  0  0  0  0
  8 19  2  0  0  0  0
  9 10  1  0  0  0  0
  9 25  1  0  0  0  0
 10 11  2  0  0  0  0
 10 12  1  0  0  0  0
 12 13  1  0  0  0  0
 12 26  1  0  0  0  0
 12 27  1  0  0  0  0
 13 14  1  0  0  0  0
 13 28  1  0  0  0  0
 13 29  1  0  0  0  0
 14 18  1  0  0  0  0
 14 15  1  0  0  0  0
 14 30  1  0  0  0  0
 15 16  1  0  0  0  0
 15 31  1  0  0  0  0
 15 32  1  0  0  0  0
 16 17  1  0  0  0  0
 16 33  1  0  0  0  0
 16 34  1  0  0  0  0
 17 18  1  0  0  0  0
 17 35  1  0  0  0  0
 17 36  1  0  0  0  0
M  END
> <s_m_source_file>
AV-unprocessed.smi

> <i_m_source_file_index>
1439

> <i_lp_mmshare_version>
43012

> <i_f3d_flags>
0

> <s_epik_input>
W05IMl1DKD1PKVtDSDJdYzFbY0hdc2MobjEpW05IXUMoPU8pW0NIMl1bQ0gyXVtDQEBIXTJbQ0gyXVtDSDJdW0NIMl1PMg==

> <s_epik_cmdline>
J2VwaWtfcHl0aG9uJywgJy1waCcsICc3LjAnLCAnLXRuJywgJzgnLCAnLW1hJywgJzIwMCcsICctbWV0YWxfYmluZGluZycsICctaW1hZScsICc8aW5maWxlLm1hZT4nLCAnLW9tYWUnLCAnPG91dGZpbGUubWFlPic=

> <r_lp_tautomer_probability>
1

> <r_epik_Ionization_Penalty>
0.000300833

> <r_epik_Ionization_Penalty_Charging>
0

> <r_epik_Ionization_Penalty_Neutral>
0.000300833

> <r_epik_State_Penalty>
-0

> <r_epik_Charging_Adjusted_Penalty>
0

> <i_epik_Tot_Q>
0

> <i_epik_Tot_abs_Q>
0

> <r_epik_Metal_State_Penalty>
0.167159

> <b_epik_Metal_Only>
0

> <s_lp_Force_Field>
OPLS_2005

> <r_lp_Energy>
15.8288

> <b_lp_Chiralities_Consistent>
1

> <s_lp_Variant>
AV-unprocessed.smi:1439-1

> <Gold.Version>
5.8.1

> <Gold.Id.Protein>
6NUR|6NUR_protein|mol2

> <Gold.PLP.Fitness>
48.6128

> <Gold.PLP.PLP>
-39.0528

> <Gold.PLP.part.hbond>
-2.9654

> <Gold.PLP.part.metal>
0.0000

> <Gold.PLP.part.buried>
-4.3441

> <Gold.PLP.part.nonpolar>
-33.1978

> <Gold.PLP.part.repulsive>
0.3684

> <Gold.PLP.ligand.clash>
0.0000

> <Gold.PLP.ligand.torsion>
1.2020

> <Gold.PLP.Chemscore.Hbond>
2.3728

> <Gold.PLP.Chemscore.CHOScore>
1.5887

> <Gold.PLP.Chemscore.Metal>
0.0000

> <Gold.Chemscore.Hbonds>
donor molecule, donor type, donor heavy atom, donor atom, acceptor molecule, acceptor atom, score
      L1  H     1    21       P1 10175  0.17
      P1  H  7997  8010       L1    11  1.00
      P1  H  8011  8017       L1     3  0.75
      L1  C     6    24       P1  7948  0.53
      L1  C     6    24       P1  7949  0.53

> <Gold.PLP.Chemscore.Internal.Correction>
0.0794

> <Gold.Rescore>
     Score         DG    S(hbond)    S(metal)    S(lipo)     H(rot)  DE(clash)    DE(int)     intcor
     15.01     -17.01       2.10        0.00      94.55       2.56       0.05       1.94       ----

> <Gold.Chemscore.Fitness>
15.0101

> <Gold.Chemscore.DG>
-17.0064

> <Gold.Chemscore.ZeroCoef>
-5.4800

> <Gold.Chemscore.Hbond>
2.1010

> <Gold.Chemscore.Metal>
0.0000

> <Gold.Chemscore.Lipo>
94.5484

> <Gold.Chemscore.Internal_Hbond>
0.0000

> <Gold.Chemscore.DEClash>
0.0544

> <Gold.Chemscore.DEInternal>
1.9418

> <Gold.Chemscore.Rot>
2.5598

> <Gold.Chemscore.Internal.Correction>
   9.000000E+99

> <Gold.Chemscore.Hbonds>
donor molecule, donor type, donor heavy atom, donor atom, acceptor molecule, acceptor atom, score
      L1  H     1    21       P1 10175  0.10
      P1  H  7997  8010       L1    11  0.96
      P1  H  8011  8017       L1     3  0.76

> <Gold.Chemscore.Hbond.Weighted>
-7.0174

> <Gold.Chemscore.Metal.Weighted>
-0.0000

> <Gold.Chemscore.Lipo.Weighted>
-11.0622

> <Gold.Chemscore.Internal_Hbond.Weighted>
0.0000

> <Gold.Chemscore.DEClash.Weighted>
0.0544

> <Gold.Chemscore.DEInternal.Weighted>
1.9418

> <Gold.Chemscore.Rot.Weighted>
6.5532

> <Gold.Chemscore.Internal.Correction.Weighted>
   9.000000E+99

> <Gold.Protein.RotatedTorsions>
[ 6907 6896 6895 6894 ] final  -73.33 input  -60.11 | X-H torsion
[ 7974 7965 7964 7962 ] final   38.52 input  175.53 | X-H torsion
[ 8008 7997 7996 7995 ] final   59.29 input   59.86 | X-H torsion
[ 10167 10162 10161 10158 ] final  -20.81 input  -65.29 | X-H torsion
[ 10718 10713 10712 10709 ] final  121.68 input   66.30 | X-H torsion
[ 10763 10752 10751 10750 ] final  103.26 input  -60.55 | X-H torsion
[ 11005 11000 10999 10996 ] final   57.48 input  -57.11 | X-H torsion

> <Gold.Protein.ActiveResidues>
 VAL166  LYS551  ARG553  GLY616  TRP617  ASP618  TYR619  PRO620  LYS621  CYS622 
 ASP623  PHE694  ASN695  SER759  ASP760  ASP761  ALA762  ILE779  LEU786  VAL792 
 PHE793  MET794  SER795  GLU796  ALA797  LYS798  CYS799  TRP800  GLU811  SER814 

> <Gold.Protein.RotatedAtoms>
  150.7134  134.5032  159.5571 H   0  0  0  0  0  0  0  0  0  0  0  0  # atno 6907 bound_to 6896
  152.2625  134.8016  160.0437 H   0  0  0  0  0  0  0  0  0  0  0  0  # atno 6908 bound_to 6896
  151.8724  133.3443  159.3776 H   0  0  0  0  0  0  0  0  0  0  0  0  # atno 6909 bound_to 6896
  146.1055  139.5762  142.9386 H   0  0  0  0  0  0  0  0  0  0  0  0  # atno 7974 bound_to 7965
  155.5639  140.3488  155.4498 H   0  0  0  0  0  0  0  0  0  0  0  0  # atno 8008 bound_to 7997
  156.0494  140.1314  157.0093 H   0  0  0  0  0  0  0  0  0  0  0  0  # atno 8009 bound_to 7997
  154.4427  140.1008  156.6339 H   0  0  0  0  0  0  0  0  0  0  0  0  # atno 8010 bound_to 7997
  140.7278  143.4687  151.0277 H   0  0  0  0  0  0  0  0  0  0  0  0  # atno 10167 bound_to 10162
  157.5800  131.1076  150.8206 H   0  0  0  0  0  0  0  0  0  0  0  0  # atno 10718 bound_to 10713
  153.3504  135.3982  155.1641 H   0  0  0  0  0  0  0  0  0  0  0  0  # atno 10763 bound_to 10752
  154.8661  135.3655  154.5230 H   0  0  0  0  0  0  0  0  0  0  0  0  # atno 10764 bound_to 10752
  153.5681  135.7079  153.5577 H   0  0  0  0  0  0  0  0  0  0  0  0  # atno 10765 bound_to 10752
  140.0449  134.5820  155.9335 H   0  0  0  0  0  0  0  0  0  0  0  0  # atno 11005 bound_to 11000
  145.5769  141.0387  143.2143 LP  0  0  0  0  0  0  0  0  0  0  0  0  # atno 17320 bound_to 7965
  144.7467  139.7300  143.7289 LP  0  0  0  0  0  0  0  0  0  0  0  0  # atno 17321 bound_to 7965
  139.8378  143.7605  152.3180 LP  0  0  0  0  0  0  0  0  0  0  0  0  # atno 17342 bound_to 10162
  139.7743  144.7466  151.0180 LP  0  0  0  0  0  0  0  0  0  0  0  0  # atno 17343 bound_to 10162
  156.8655  130.5128  149.5300 LP  0  0  0  0  0  0  0  0  0  0  0  0  # atno 17370 bound_to 10713
  156.0845  130.5847  150.9623 LP  0  0  0  0  0  0  0  0  0  0  0  0  # atno 17371 bound_to 10713
  141.1902  133.6567  156.5401 LP  0  0  0  0  0  0  0  0  0  0  0  0  # atno 17394 bound_to 11000
  140.4009  134.7357  157.4779 LP  0  0  0  0  0  0  0  0  0  0  0  0  # atno 17395 bound_to 11000

$$$$
