AV-unprocessed.smi:3348|AV-procd|sdf|12916|dock9
  -GOLD-   2272019333D 1   1.00000     0.00000
 Structure written by MMmdl.
 47 48  0  0  0  0  0  0  0  0  2 V2000
  143.9467  136.2086  152.5256 C   0  0  0  0  0  0  0  0  0  0  0  0
  145.4087  135.8754  152.1873 C   0  0  1  0  0  0  0  0  0  0  0  0
  145.5162  135.2553  150.7788 C   0  0  0  0  0  0  0  0  0  0  0  0
  145.0504  133.8793  150.7275 N   0  0  0  0  0  0  0  0  0  0  0  0
  143.9272  133.3788  150.1027 C   0  0  0  0  0  0  0  0  0  0  0  0
  143.8951  132.0344  150.3388 C   0  0  0  0  0  0  0  0  0  0  0  0
  145.0488  131.8035  151.1386 C   0  0  0  0  0  0  0  0  0  0  0  0
  145.7353  132.9102  151.3730 N   0  0  0  0  0  0  0  0  0  0  0  0
  146.2631  137.0812  152.2802 N   0  3  0  0  0  0  0  0  0  0  0  0
  146.2181  137.7889  153.5763 C   0  0  0  0  0  0  0  0  0  0  0  0
  147.0188  139.0929  153.5117 C   0  0  0  0  0  0  0  0  0  0  0  0
  148.4004  138.7792  153.6082 O   0  0  0  0  0  0  0  0  0  0  0  0
  149.0275  139.2185  154.8077 C   0  0  2  0  0  0  0  0  0  0  0  0
  148.8416  140.7425  154.9740 C   0  0  0  0  0  0  0  0  0  0  0  0
  149.6179  141.2773  156.1862 C   0  0  0  0  0  0  0  0  0  0  0  0
  151.1065  140.9167  156.0908 C   0  0  0  0  0  0  0  0  0  0  0  0
  151.2962  139.4005  155.9353 C   0  0  0  0  0  0  0  0  0  0  0  0
  150.5260  138.8494  154.7184 C   0  0  1  0  0  0  0  0  0  0  0  0
  150.7341  137.3314  154.5877 C   0  0  0  0  0  0  0  0  0  0  0  0
  143.3140  135.3260  152.4292 H   0  0  0  0  0  0  0  0  0  0  0  0
  143.5494  136.9747  151.8589 H   0  0  0  0  0  0  0  0  0  0  0  0
  143.8404  136.5688  153.5488 H   0  0  0  0  0  0  0  0  0  0  0  0
  145.7673  135.1412  152.9104 H   0  0  0  0  0  0  0  0  0  0  0  0
  144.9276  135.8350  150.0663 H   0  0  0  0  0  0  0  0  0  0  0  0
  146.5487  135.2859  150.4274 H   0  0  0  0  0  0  0  0  0  0  0  0
  143.2523  134.0128  149.5462 H   0  0  0  0  0  0  0  0  0  0  0  0
  143.1568  131.3243  149.9968 H   0  0  0  0  0  0  0  0  0  0  0  0
  145.4043  130.8720  151.5540 H   0  0  0  0  0  0  0  0  0  0  0  0
  147.2184  136.7860  152.1360 H   0  0  0  0  0  0  0  0  0  0  0  0
  145.1877  137.9970  153.8651 H   0  0  0  0  0  0  0  0  0  0  0  0
  146.6447  137.1426  154.3444 H   0  0  0  0  0  0  0  0  0  0  0  0
  146.8119  139.5982  152.5684 H   0  0  0  0  0  0  0  0  0  0  0  0
  146.7133  139.7632  154.3168 H   0  0  0  0  0  0  0  0  0  0  0  0
  148.5965  138.7010  155.6672 H   0  0  0  0  0  0  0  0  0  0  0  0
  149.1815  141.2530  154.0720 H   0  0  0  0  0  0  0  0  0  0  0  0
  147.7877  140.9929  155.0913 H   0  0  0  0  0  0  0  0  0  0  0  0
  149.5008  142.3593  156.2560 H   0  0  0  0  0  0  0  0  0  0  0  0
  149.1982  140.8603  157.1026 H   0  0  0  0  0  0  0  0  0  0  0  0
  151.5552  141.4316  155.2403 H   0  0  0  0  0  0  0  0  0  0  0  0
  151.6324  141.2691  156.9787 H   0  0  0  0  0  0  0  0  0  0  0  0
  152.3592  139.1765  155.8376 H   0  0  0  0  0  0  0  0  0  0  0  0
  150.9588  138.8989  156.8435 H   0  0  0  0  0  0  0  0  0  0  0  0
  150.9379  139.3184  153.8233 H   0  0  0  0  0  0  0  0  0  0  0  0
  150.3256  136.7996  155.4474 H   0  0  0  0  0  0  0  0  0  0  0  0
  151.7945  137.0867  154.5188 H   0  0  0  0  0  0  0  0  0  0  0  0
  150.2518  136.9386  153.6924 H   0  0  0  0  0  0  0  0  0  0  0  0
  146.0114  137.7225  151.5415 H   0  0  0  0  0  0  0  0  0  0  0  0
  1  2  1  0  0  0  0
  1 20  1  0  0  0  0
  1 21  1  0  0  0  0
  1 22  1  0  0  0  0
  2  3  1  0  0  0  0
  2  9  1  0  0  0  0
  2 23  1  0  0  0  0
  3  4  1  0  0  0  0
  3 24  1  0  0  0  0
  3 25  1  0  0  0  0
  4  8  1  0  0  0  0
  4  5  1  0  0  0  0
  5  6  2  0  0  0  0
  5 26  1  0  0  0  0
  6  7  1  0  0  0  0
  6 27  1  0  0  0  0
  7  8  2  0  0  0  0
  7 28  1  0  0  0  0
  9 10  1  0  0  0  0
  9 29  1  0  0  0  0
  9 47  1  0  0  0  0
 10 11  1  0  0  0  0
 10 30  1  0  0  0  0
 10 31  1  0  0  0  0
 11 12  1  0  0  0  0
 11 32  1  0  0  0  0
 11 33  1  0  0  0  0
 12 13  1  0  0  0  0
 13 18  1  0  0  0  0
 13 14  1  0  0  0  0
 13 34  1  0  0  0  0
 14 15  1  0  0  0  0
 14 35  1  0  0  0  0
 14 36  1  0  0  0  0
 15 16  1  0  0  0  0
 15 37  1  0  0  0  0
 15 38  1  0  0  0  0
 16 17  1  0  0  0  0
 16 39  1  0  0  0  0
 16 40  1  0  0  0  0
 17 18  1  0  0  0  0
 17 41  1  0  0  0  0
 17 42  1  0  0  0  0
 18 19  1  0  0  0  0
 18 43  1  0  0  0  0
 19 44  1  0  0  0  0
 19 45  1  0  0  0  0
 19 46  1  0  0  0  0
M  CHG  1   9   1
M  END
> <s_m_source_file>
AV-unprocessed.smi

> <i_m_source_file_index>
3348

> <i_lp_mmshare_version>
43012

> <i_f3d_flags>
0

> <s_epik_input>
bjFbY0hdW2NIXVtjSF1uMVtDSDJdW0NAQEhdKFtDSDNdKVtOSF1bQ0gyXVtDSDJdT1tDQEBIXTJbQ0gyXVtDSDJdW0NIMl1bQ0gyXVtDQEhdMltDSDNd

> <s_epik_cmdline>
J2VwaWtfcHl0aG9uJywgJy1waCcsICc3LjAnLCAnLXRuJywgJzgnLCAnLW1hJywgJzIwMCcsICctbWV0YWxfYmluZGluZycsICctaW1hZScsICc8aW5maWxlLm1hZT4nLCAnLW9tYWUnLCAnPG91dGZpbGUubWFlPic=

> <r_lp_tautomer_probability>
1

> <r_epik_Ionization_Penalty>
0.00925088

> <r_epik_Ionization_Penalty_Charging>
0.00924645

> <r_epik_Ionization_Penalty_Neutral>
4.42413e-06

> <r_epik_State_Penalty>
0.0070118

> <r_epik_Charging_Adjusted_Penalty>
0.0162583

> <i_epik_Tot_Q>
1

> <i_epik_Tot_abs_Q>
1

> <r_epik_Metal_State_Penalty>
0.00701222

> <b_epik_Metal_Only>
0

> <s_lp_Force_Field>
OPLS_2005

> <r_lp_Energy>
16.0091

> <b_lp_Chiralities_Consistent>
1

> <s_lp_Variant>
AV-unprocessed.smi:3348-2

> <Gold.Version>
5.8.1

> <Gold.Id.Protein>
6NUR|6NUR_protein|mol2

> <Gold.PLP.Fitness>
44.6074

> <Gold.PLP.PLP>
-36.8171

> <Gold.PLP.part.hbond>
-1.0000

> <Gold.PLP.part.metal>
0.0000

> <Gold.PLP.part.buried>
-6.8930

> <Gold.PLP.part.nonpolar>
-31.4344

> <Gold.PLP.part.repulsive>
1.8204

> <Gold.PLP.ligand.clash>
0.0000

> <Gold.PLP.ligand.torsion>
0.6454

> <Gold.PLP.Chemscore.Hbond>
2.0000

> <Gold.PLP.Chemscore.CHOScore>
1.0000

> <Gold.PLP.Chemscore.Metal>
0.0000

> <Gold.Chemscore.Hbonds>
donor molecule, donor type, donor heavy atom, donor atom, acceptor molecule, acceptor atom, score
      L1  H     9    29       P1  7948  2.00
      L1  C     5    26       P1 10186  1.00

> <Gold.PLP.Chemscore.Internal.Correction>
0.0811

> <Gold.Rescore>
     Score         DG    S(hbond)    S(metal)    S(lipo)     H(rot)  DE(clash)    DE(int)     intcor
     14.87     -15.77       1.00        0.00      99.14       1.82       0.40       0.50       ----

> <Gold.Chemscore.Fitness>
14.8657

> <Gold.Chemscore.DG>
-15.7700

> <Gold.Chemscore.ZeroCoef>
-5.4800

> <Gold.Chemscore.Hbond>
1.0000

> <Gold.Chemscore.Metal>
0.0000

> <Gold.Chemscore.Lipo>
99.1434

> <Gold.Chemscore.Internal_Hbond>
0.0000

> <Gold.Chemscore.DEClash>
0.4026

> <Gold.Chemscore.DEInternal>
0.5017

> <Gold.Chemscore.Rot>
1.8163

> <Gold.Chemscore.Internal.Correction>
   9.000000E+99

> <Gold.Chemscore.Hbonds>
donor molecule, donor type, donor heavy atom, donor atom, acceptor molecule, acceptor atom, score
      L1  H     9    29       P1  7948  1.00

> <Gold.Chemscore.Hbond.Weighted>
-3.3400

> <Gold.Chemscore.Metal.Weighted>
-0.0000

> <Gold.Chemscore.Lipo.Weighted>
-11.5998

> <Gold.Chemscore.Internal_Hbond.Weighted>
0.0000

> <Gold.Chemscore.DEClash.Weighted>
0.4026

> <Gold.Chemscore.DEInternal.Weighted>
0.5017

> <Gold.Chemscore.Rot.Weighted>
4.6497

> <Gold.Chemscore.Internal.Correction.Weighted>
   9.000000E+99

> <Gold.Protein.RotatedTorsions>
[ 6907 6896 6895 6894 ] final  155.11 input  -60.11 | X-H torsion
[ 7974 7965 7964 7962 ] final  -10.88 input  175.53 | X-H torsion
[ 8008 7997 7996 7995 ] final   62.54 input   59.86 | X-H torsion
[ 10167 10162 10161 10158 ] final -140.11 input  -65.29 | X-H torsion
[ 10718 10713 10712 10709 ] final  143.56 input   66.30 | X-H torsion
[ 10763 10752 10751 10750 ] final   55.93 input  -60.55 | X-H torsion
[ 11005 11000 10999 10996 ] final -148.63 input  -57.11 | X-H torsion

> <Gold.Protein.ActiveResidues>
 VAL166  LYS551  ARG553  GLY616  TRP617  ASP618  TYR619  PRO620  LYS621  CYS622 
 ASP623  PHE694  ASN695  SER759  ASP760  ASP761  ALA762  ILE779  LEU786  VAL792 
 PHE793  MET794  SER795  GLU796  ALA797  LYS798  CYS799  TRP800  GLU811  SER814 

> <Gold.Protein.RotatedAtoms>
  152.0489  133.4010  159.4368 H   0  0  0  0  0  0  0  0  0  0  0  0  # atno 6907 bound_to 6896
  150.6871  134.3330  159.4844 H   0  0  0  0  0  0  0  0  0  0  0  0  # atno 6908 bound_to 6896
  152.1138  134.9255  160.0616 H   0  0  0  0  0  0  0  0  0  0  0  0  # atno 6909 bound_to 6896
  146.2206  140.2828  142.8363 H   0  0  0  0  0  0  0  0  0  0  0  0  # atno 7974 bound_to 7965
  155.6160  140.3495  155.4637 H   0  0  0  0  0  0  0  0  0  0  0  0  # atno 8008 bound_to 7997
  156.0117  140.1234  157.0471 H   0  0  0  0  0  0  0  0  0  0  0  0  # atno 8009 bound_to 7997
  154.4283  140.1080  156.5824 H   0  0  0  0  0  0  0  0  0  0  0  0  # atno 8010 bound_to 7997
  139.8313  143.7443  152.2666 H   0  0  0  0  0  0  0  0  0  0  0  0  # atno 10167 bound_to 10162
  157.3675  131.0974  151.0859 H   0  0  0  0  0  0  0  0  0  0  0  0  # atno 10718 bound_to 10713
  152.9824  135.5693  154.5147 H   0  0  0  0  0  0  0  0  0  0  0  0  # atno 10763 bound_to 10752
  154.4645  135.2782  155.1690 H   0  0  0  0  0  0  0  0  0  0  0  0  # atno 10764 bound_to 10752
  154.3264  135.6258  153.5584 H   0  0  0  0  0  0  0  0  0  0  0  0  # atno 10765 bound_to 10752
  140.7593  134.3317  157.5106 H   0  0  0  0  0  0  0  0  0  0  0  0  # atno 11005 bound_to 11000
  144.9184  140.7839  143.5763 LP  0  0  0  0  0  0  0  0  0  0  0  0  # atno 17320 bound_to 7965
  145.2763  139.1935  143.4814 LP  0  0  0  0  0  0  0  0  0  0  0  0  # atno 17321 bound_to 7965
  139.7651  144.7494  151.0306 LP  0  0  0  0  0  0  0  0  0  0  0  0  # atno 17342 bound_to 10162
  140.7806  143.4707  151.0150 LP  0  0  0  0  0  0  0  0  0  0  0  0  # atno 17343 bound_to 10162
  157.1976  130.6380  149.5726 LP  0  0  0  0  0  0  0  0  0  0  0  0  # atno 17370 bound_to 10713
  155.9749  130.4701  150.6420 LP  0  0  0  0  0  0  0  0  0  0  0  0  # atno 17371 bound_to 10713
  139.8773  134.9191  156.3220 LP  0  0  0  0  0  0  0  0  0  0  0  0  # atno 17394 bound_to 11000
  140.9678  133.7346  156.0492 LP  0  0  0  0  0  0  0  0  0  0  0  0  # atno 17395 bound_to 11000

$$$$
