AV-unprocessed.smi:956|AV-procd|sdf|4263|dock7
  -GOLD-   22720 2173D 1   1.00000     0.00000
 Structure written by MMmdl.
 42 43  0  0  0  0  0  0  0  0  1 V2000
  148.3610  134.9700  154.8580 C   0  0  0  0  0  0  0  0  0  0  0  0
  150.1602  134.5479  154.6937 S   0  0  2  0  0  0  0  0  0  0  0  0
  150.3314  133.1085  155.1826 O   0  0  0  0  0  0  0  0  0  0  0  0
  150.7068  135.5742  156.1042 C   0  0  0  0  0  0  0  0  0  0  0  0
  150.7065  135.1556  157.3734 N   0  0  0  0  0  0  0  0  0  0  0  0
  151.1753  136.2308  158.1039 N   0  0  0  0  0  0  0  0  0  0  0  0
  151.4137  137.1790  157.1958 C   0  0  0  0  0  0  0  0  0  0  0  0
  151.1404  136.8365  155.9263 N   0  0  0  0  0  0  0  0  0  0  0  0
  151.2621  137.6438  154.7230 C   0  0  0  0  0  0  0  0  0  0  0  0
  151.7004  139.0608  155.0870 C   0  0  0  0  0  0  0  0  0  0  0  0
  152.8947  139.3556  155.0701 O   0  0  0  0  0  0  0  0  0  0  0  0
  150.7275  139.9044  155.4661 N   0  0  0  0  0  0  0  0  0  0  0  0
  150.9346  141.1944  156.1157 C   0  0  0  0  0  0  0  0  0  0  0  0
  151.6965  141.0318  157.4467 C   0  0  0  0  0  0  0  0  0  0  0  0
  151.4454  142.1388  158.4972 C   0  0  0  0  0  0  0  0  0  0  0  0
  151.2335  143.5094  157.8241 C   0  0  0  0  0  0  0  0  0  0  0  0
  150.9218  144.6002  158.8611 C   0  0  0  0  0  0  0  0  0  0  0  0
  152.0316  144.6917  159.9192 C   0  0  0  0  0  0  0  0  0  0  0  0
  152.2754  143.3299  160.5873 C   0  0  0  0  0  0  0  0  0  0  0  0
  152.5737  142.2395  159.5451 C   0  0  0  0  0  0  0  0  0  0  0  0
  148.2168  135.8805  155.4369 H   0  0  0  0  0  0  0  0  0  0  0  0
  147.8281  134.1594  155.3547 H   0  0  0  0  0  0  0  0  0  0  0  0
  147.9216  135.1198  153.8723 H   0  0  0  0  0  0  0  0  0  0  0  0
  151.7861  138.1563  157.4662 H   0  0  0  0  0  0  0  0  0  0  0  0
  151.9978  137.1815  154.0637 H   0  0  0  0  0  0  0  0  0  0  0  0
  150.3148  137.6629  154.1842 H   0  0  0  0  0  0  0  0  0  0  0  0
  149.7749  139.5734  155.4187 H   0  0  0  0  0  0  0  0  0  0  0  0
  151.4582  141.8953  155.4645 H   0  0  0  0  0  0  0  0  0  0  0  0
  149.9575  141.6382  156.3079 H   0  0  0  0  0  0  0  0  0  0  0  0
  151.4578  140.0591  157.8781 H   0  0  0  0  0  0  0  0  0  0  0  0
  152.7633  141.0000  157.2214 H   0  0  0  0  0  0  0  0  0  0  0  0
  150.5213  141.9071  159.0260 H   0  0  0  0  0  0  0  0  0  0  0  0
  152.1250  143.7858  157.2594 H   0  0  0  0  0  0  0  0  0  0  0  0
  150.4176  143.4534  157.1030 H   0  0  0  0  0  0  0  0  0  0  0  0
  150.8021  145.5631  158.3638 H   0  0  0  0  0  0  0  0  0  0  0  0
  149.9693  144.3818  159.3464 H   0  0  0  0  0  0  0  0  0  0  0  0
  152.9538  145.0382  159.4510 H   0  0  0  0  0  0  0  0  0  0  0  0
  151.7678  145.4344  160.6724 H   0  0  0  0  0  0  0  0  0  0  0  0
  153.1030  143.4054  161.2932 H   0  0  0  0  0  0  0  0  0  0  0  0
  151.3978  143.0466  161.1699 H   0  0  0  0  0  0  0  0  0  0  0  0
  152.7056  141.2881  160.0589 H   0  0  0  0  0  0  0  0  0  0  0  0
  153.5207  142.4556  159.0491 H   0  0  0  0  0  0  0  0  0  0  0  0
  1  2  1  0  0  0  0
  1 21  1  0  0  0  0
  1 22  1  0  0  0  0
  1 23  1  0  0  0  0
  2  3  2  0  0  0  0
  2  4  1  0  0  0  0
  4  8  1  0  0  0  0
  4  5  2  0  0  0  0
  5  6  1  0  0  0  0
  6  7  2  0  0  0  0
  7  8  1  0  0  0  0
  7 24  1  0  0  0  0
  8  9  1  0  0  0  0
  9 10  1  0  0  0  0
  9 25  1  0  0  0  0
  9 26  1  0  0  0  0
 10 11  2  0  0  0  0
 10 12  1  0  0  0  0
 12 13  1  0  0  0  0
 12 27  1  0  0  0  0
 13 14  1  0  0  0  0
 13 28  1  0  0  0  0
 13 29  1  0  0  0  0
 14 15  1  0  0  0  0
 14 30  1  0  0  0  0
 14 31  1  0  0  0  0
 15 20  1  0  0  0  0
 15 16  1  0  0  0  0
 15 32  1  0  0  0  0
 16 17  1  0  0  0  0
 16 33  1  0  0  0  0
 16 34  1  0  0  0  0
 17 18  1  0  0  0  0
 17 35  1  0  0  0  0
 17 36  1  0  0  0  0
 18 19  1  0  0  0  0
 18 37  1  0  0  0  0
 18 38  1  0  0  0  0
 19 20  1  0  0  0  0
 19 39  1  0  0  0  0
 19 40  1  0  0  0  0
 20 41  1  0  0  0  0
 20 42  1  0  0  0  0
M  END
> <s_m_source_file>
AV-unprocessed.smi

> <i_m_source_file_index>
956

> <i_lp_mmshare_version>
43012

> <i_f3d_flags>
0

> <s_epik_input>
W0NIM11bU0BdKD1PKWMxbm5bY0hdbjFbQ0gyXUMoPU8pW05IXVtDSDJdW0NIMl1bQ0hdMltDSDJdW0NIMl1bQ0gyXVtDSDJdW0NIMl0y

> <s_epik_cmdline>
J2VwaWtfcHl0aG9uJywgJy1waCcsICc3LjAnLCAnLXRuJywgJzgnLCAnLW1hJywgJzIwMCcsICctbWV0YWxfYmluZGluZycsICctaW1hZScsICc8aW5maWxlLm1hZT4nLCAnLW9tYWUnLCAnPG91dGZpbGUubWFlPic=

> <r_lp_tautomer_probability>
1

> <r_epik_Ionization_Penalty>
7.32521e-08

> <r_epik_Ionization_Penalty_Charging>
0

> <r_epik_Ionization_Penalty_Neutral>
7.32521e-08

> <r_epik_State_Penalty>
-0

> <r_epik_Charging_Adjusted_Penalty>
0

> <i_epik_Tot_Q>
0

> <i_epik_Tot_abs_Q>
0

> <r_epik_Metal_State_Penalty>
-0

> <b_epik_Metal_Only>
0

> <s_lp_Force_Field>
OPLS_2005

> <r_lp_Energy>
8.17766

> <b_lp_Chiralities_Consistent>
1

> <s_lp_Variant>
AV-unprocessed.smi:956-1

> <Gold.Version>
5.8.1

> <Gold.Id.Protein>
6NUR|6NUR_protein|mol2

> <Gold.PLP.Fitness>
43.2967

> <Gold.PLP.PLP>
-41.7900

> <Gold.PLP.part.hbond>
-3.6493

> <Gold.PLP.part.metal>
0.0000

> <Gold.PLP.part.buried>
-7.2195

> <Gold.PLP.part.nonpolar>
-32.0156

> <Gold.PLP.part.repulsive>
0.1464

> <Gold.PLP.ligand.clash>
0.0000

> <Gold.PLP.ligand.torsion>
1.6254

> <Gold.PLP.Chemscore.Hbond>
1.2013

> <Gold.PLP.Chemscore.CHOScore>
0.0000

> <Gold.PLP.Chemscore.Metal>
0.0000

> <Gold.Chemscore.Hbonds>
donor molecule, donor type, donor heavy atom, donor atom, acceptor molecule, acceptor atom, score
      P1  H  6896  6907       L1     6  0.26
      P1  H  7997  8009       L1    11  1.00

> <Gold.PLP.Chemscore.Internal.Correction>
1.1535

> <Gold.Rescore>
     Score         DG    S(hbond)    S(metal)    S(lipo)     H(rot)  DE(clash)    DE(int)     intcor
     12.30     -13.96       1.00        0.00      93.22       2.26       0.06       1.60       ----

> <Gold.Chemscore.Fitness>
12.2962

> <Gold.Chemscore.DG>
-13.9589

> <Gold.Chemscore.ZeroCoef>
-5.4800

> <Gold.Chemscore.Hbond>
1.0019

> <Gold.Chemscore.Metal>
0.0000

> <Gold.Chemscore.Lipo>
93.2177

> <Gold.Chemscore.Internal_Hbond>
0.0000

> <Gold.Chemscore.DEClash>
0.0601

> <Gold.Chemscore.DEInternal>
1.6026

> <Gold.Chemscore.Rot>
2.2554

> <Gold.Chemscore.Internal.Correction>
   9.000000E+99

> <Gold.Chemscore.Hbonds>
donor molecule, donor type, donor heavy atom, donor atom, acceptor molecule, acceptor atom, score
      P1  H  6896  6907       L1     6  0.02
      P1  H  7997  8009       L1    11  0.98

> <Gold.Chemscore.Hbond.Weighted>
-3.3463

> <Gold.Chemscore.Metal.Weighted>
-0.0000

> <Gold.Chemscore.Lipo.Weighted>
-10.9065

> <Gold.Chemscore.Internal_Hbond.Weighted>
0.0000

> <Gold.Chemscore.DEClash.Weighted>
0.0601

> <Gold.Chemscore.DEInternal.Weighted>
1.6026

> <Gold.Chemscore.Rot.Weighted>
5.7738

> <Gold.Chemscore.Internal.Correction.Weighted>
   9.000000E+99

> <Gold.Protein.RotatedTorsions>
[ 6907 6896 6895 6894 ] final  -16.02 input  -60.11 | X-H torsion
[ 7974 7965 7964 7962 ] final  110.72 input  175.53 | X-H torsion
[ 8008 7997 7996 7995 ] final -149.17 input   59.86 | X-H torsion
[ 10167 10162 10161 10158 ] final   71.82 input  -65.29 | X-H torsion
[ 10718 10713 10712 10709 ] final  -23.14 input   66.30 | X-H torsion
[ 10763 10752 10751 10750 ] final -122.94 input  -60.55 | X-H torsion
[ 11005 11000 10999 10996 ] final  146.04 input  -57.11 | X-H torsion

> <Gold.Protein.ActiveResidues>
 VAL166  LYS551  ARG553  GLY616  TRP617  ASP618  TYR619  PRO620  LYS621  CYS622 
 ASP623  PHE694  ASN695  SER759  ASP760  ASP761  ALA762  ILE779  LEU786  VAL792 
 PHE793  MET794  SER795  GLU796  ALA797  LYS798  CYS799  TRP800  GLU811  SER814 

> <Gold.Protein.RotatedAtoms>
  151.3151  135.0804  159.9285 H   0  0  0  0  0  0  0  0  0  0  0  0  # atno 6907 bound_to 6896
  152.5269  133.9696  159.7766 H   0  0  0  0  0  0  0  0  0  0  0  0  # atno 6908 bound_to 6896
  151.0007  133.6007  159.2725 H   0  0  0  0  0  0  0  0  0  0  0  0  # atno 6909 bound_to 6896
  145.2514  139.2738  143.4065 H   0  0  0  0  0  0  0  0  0  0  0  0  # atno 7974 bound_to 7965
  155.6034  140.0664  157.2726 H   0  0  0  0  0  0  0  0  0  0  0  0  # atno 8008 bound_to 7997
  154.4273  140.1814  156.1244 H   0  0  0  0  0  0  0  0  0  0  0  0  # atno 8009 bound_to 7997
  156.0142  140.3323  155.6975 H   0  0  0  0  0  0  0  0  0  0  0  0  # atno 8010 bound_to 7997
  140.0420  144.5382  150.7427 H   0  0  0  0  0  0  0  0  0  0  0  0  # atno 10167 bound_to 10162
  156.4951  130.4575  149.6733 H   0  0  0  0  0  0  0  0  0  0  0  0  # atno 10718 bound_to 10713
  154.8699  135.4115  154.2862 H   0  0  0  0  0  0  0  0  0  0  0  0  # atno 10763 bound_to 10752
  153.3746  135.7009  153.6617 H   0  0  0  0  0  0  0  0  0  0  0  0  # atno 10764 bound_to 10752
  153.5464  135.3637  155.2712 H   0  0  0  0  0  0  0  0  0  0  0  0  # atno 10765 bound_to 10752
  140.0761  134.9124  157.1424 H   0  0  0  0  0  0  0  0  0  0  0  0  # atno 11005 bound_to 11000
  146.3301  140.2905  142.8615 LP  0  0  0  0  0  0  0  0  0  0  0  0  # atno 17320 bound_to 7965
  144.9500  140.8168  143.5578 LP  0  0  0  0  0  0  0  0  0  0  0  0  # atno 17321 bound_to 7965
  140.7256  143.2632  151.4132 LP  0  0  0  0  0  0  0  0  0  0  0  0  # atno 17342 bound_to 10162
  139.6008  144.1300  152.2195 LP  0  0  0  0  0  0  0  0  0  0  0  0  # atno 17343 bound_to 10162
  156.3388  130.7371  151.2313 LP  0  0  0  0  0  0  0  0  0  0  0  0  # atno 17370 bound_to 10713
  157.7469  131.0409  150.4622 LP  0  0  0  0  0  0  0  0  0  0  0  0  # atno 17371 bound_to 10713
  140.3556  134.2550  155.7193 LP  0  0  0  0  0  0  0  0  0  0  0  0  # atno 17394 bound_to 11000
  141.2030  133.7924  157.0363 LP  0  0  0  0  0  0  0  0  0  0  0  0  # atno 17395 bound_to 11000

$$$$
