AV-unprocessed.smi:794|AV-procd|sdf|3762|dock5
  -GOLD-   22720 1193D 1   1.00000     0.00000
 Structure written by MMmdl.
 41 43  0  0  0  0  0  0  0  0  1 V2000
  147.6791  136.7035  163.3718 C   0  0  0  0  0  0  0  0  0  0  0  0
  147.4450  136.2336  161.9668 C   0  0  0  0  0  0  0  0  0  0  0  0
  148.1133  136.8932  160.9309 N   0  0  0  0  0  0  0  0  0  0  0  0
  147.8233  136.3851  159.7298 C   0  0  0  0  0  0  0  0  0  0  0  0
  148.3586  136.8657  158.5058 N   0  0  0  0  0  0  0  0  0  0  0  0
  149.5991  136.6906  158.0173 C   0  0  0  0  0  0  0  0  0  0  0  0
  150.4943  136.0478  158.5663 O   0  0  0  0  0  0  0  0  0  0  0  0
  149.7435  137.3064  156.8352 N   0  0  0  0  0  0  0  0  0  0  0  0
  150.9586  137.3186  156.0170 C   0  0  2  0  0  0  0  0  0  0  0  0
  152.2000  137.8076  156.8048 C   0  0  2  0  0  0  0  0  0  0  0  0
  151.9096  139.1260  157.5533 C   0  0  0  0  0  0  0  0  0  0  0  0
  151.7891  140.1431  156.4041 C   0  0  0  0  0  0  0  0  0  0  0  0
  152.0696  139.2858  155.1513 C   0  0  1  0  0  0  0  0  0  0  0  0
  153.1100  138.3095  155.6877 C   0  0  0  0  0  0  0  0  0  0  0  0
  150.9020  138.3209  154.8295 C   0  0  2  0  0  0  0  0  0  0  0  0
  149.5376  138.9787  154.5227 C   0  0  0  0  0  0  0  0  0  0  0  0
  149.7261  140.2173  153.8718 O   0  0  0  0  0  0  0  0  0  0  0  0
  146.6917  135.0473  159.7898 S   0  0  0  0  0  0  0  0  0  0  0  0
  146.6358  135.2059  161.5287 C   0  0  0  0  0  0  0  0  0  0  0  0
  145.7760  134.2775  162.3242 C   0  0  0  0  0  0  0  0  0  0  0  0
  147.1119  136.1329  164.1049 H   0  0  0  0  0  0  0  0  0  0  0  0
  147.3944  137.7498  163.4854 H   0  0  0  0  0  0  0  0  0  0  0  0
  148.7324  136.6203  163.6405 H   0  0  0  0  0  0  0  0  0  0  0  0
  147.7222  137.4035  157.9362 H   0  0  0  0  0  0  0  0  0  0  0  0
  148.9511  137.8116  156.4670 H   0  0  0  0  0  0  0  0  0  0  0  0
  151.1659  136.3223  155.6217 H   0  0  0  0  0  0  0  0  0  0  0  0
  152.6402  137.0385  157.4400 H   0  0  0  0  0  0  0  0  0  0  0  0
  151.0202  139.0913  158.1823 H   0  0  0  0  0  0  0  0  0  0  0  0
  152.7490  139.3866  158.1995 H   0  0  0  0  0  0  0  0  0  0  0  0
  150.8194  140.6382  156.3803 H   0  0  0  0  0  0  0  0  0  0  0  0
  152.5458  140.9214  156.5113 H   0  0  0  0  0  0  0  0  0  0  0  0
  152.3997  139.8687  154.2910 H   0  0  0  0  0  0  0  0  0  0  0  0
  154.0167  138.7967  156.0513 H   0  0  0  0  0  0  0  0  0  0  0  0
  153.3878  137.5326  154.9730 H   0  0  0  0  0  0  0  0  0  0  0  0
  151.1830  137.7662  153.9320 H   0  0  0  0  0  0  0  0  0  0  0  0
  148.9543  138.3355  153.8629 H   0  0  0  0  0  0  0  0  0  0  0  0
  148.9408  139.1328  155.4209 H   0  0  0  0  0  0  0  0  0  0  0  0
  149.3576  140.1605  153.0033 H   0  0  0  0  0  0  0  0  0  0  0  0
  145.8088  134.4946  163.3904 H   0  0  0  0  0  0  0  0  0  0  0  0
  146.0979  133.2451  162.1870 H   0  0  0  0  0  0  0  0  0  0  0  0
  144.7362  134.3492  162.0048 H   0  0  0  0  0  0  0  0  0  0  0  0
  1  2  1  0  0  0  0
  1 21  1  0  0  0  0
  1 22  1  0  0  0  0
  1 23  1  0  0  0  0
  2 19  2  0  0  0  0
  2  3  1  0  0  0  0
  3  4  2  0  0  0  0
  4  5  1  0  0  0  0
  4 18  1  0  0  0  0
  5  6  1  0  0  0  0
  5 24  1  0  0  0  0
  6  7  2  0  0  0  0
  6  8  1  0  0  0  0
  8  9  1  0  0  0  0
  8 25  1  0  0  0  0
  9 15  1  0  0  0  0
  9 10  1  0  0  0  0
  9 26  1  0  0  0  0
 10 14  1  0  0  0  0
 10 11  1  0  0  0  0
 10 27  1  0  0  0  0
 11 12  1  0  0  0  0
 11 28  1  0  0  0  0
 11 29  1  0  0  0  0
 12 13  1  0  0  0  0
 12 30  1  0  0  0  0
 12 31  1  0  0  0  0
 13 14  1  0  0  0  0
 13 15  1  0  0  0  0
 13 32  1  0  0  0  0
 14 33  1  0  0  0  0
 14 34  1  0  0  0  0
 15 16  1  0  0  0  0
 15 35  1  0  0  0  0
 16 17  1  0  0  0  0
 16 36  1  0  0  0  0
 16 37  1  0  0  0  0
 17 38  1  0  0  0  0
 18 19  1  0  0  0  0
 19 20  1  0  0  0  0
 20 39  1  0  0  0  0
 20 40  1  0  0  0  0
 20 41  1  0  0  0  0
M  END
> <s_m_source_file>
AV-unprocessed.smi

> <i_m_source_file_index>
794

> <i_lp_mmshare_version>
43012

> <i_f3d_flags>
0

> <s_epik_input>
W0NIM11jMW5jKHNjMVtDSDNdKVtOSF1DKD1PKVtOSF1bQ0BIXShbQ0BASF0yMylbQ0BIXShbQ0gyXVtPSF0pW0NAQEhdKFtDSDJdMylbQ0gyXVtDSDJdMg==

> <s_epik_cmdline>
J2VwaWtfcHl0aG9uJywgJy1waCcsICc3LjAnLCAnLXRuJywgJzgnLCAnLW1hJywgJzIwMCcsICctbWV0YWxfYmluZGluZycsICctaW1hZScsICc8aW5maWxlLm1hZT4nLCAnLW9tYWUnLCAnPG91dGZpbGUubWFlPic=

> <r_lp_tautomer_probability>
0.999

> <r_epik_Ionization_Penalty>
0.000713029

> <r_epik_Ionization_Penalty_Charging>
0

> <r_epik_Ionization_Penalty_Neutral>
0.000713029

> <r_epik_State_Penalty>
0.000177984

> <r_epik_Charging_Adjusted_Penalty>
0.000177984

> <i_epik_Tot_Q>
0

> <i_epik_Tot_abs_Q>
0

> <r_epik_Metal_State_Penalty>
-0

> <b_epik_Metal_Only>
0

> <s_lp_Force_Field>
OPLS_2005

> <r_lp_Energy>
49.8561

> <b_lp_Chiralities_Consistent>
1

> <s_lp_Variant>
AV-unprocessed.smi:794-7

> <Gold.Version>
5.8.1

> <Gold.Id.Protein>
6NUR|6NUR_protein|mol2

> <Gold.PLP.Fitness>
45.2583

> <Gold.PLP.PLP>
-35.0726

> <Gold.PLP.part.hbond>
-5.0000

> <Gold.PLP.part.metal>
0.0000

> <Gold.PLP.part.buried>
-2.6483

> <Gold.PLP.part.nonpolar>
-28.0300

> <Gold.PLP.part.repulsive>
0.1290

> <Gold.PLP.ligand.clash>
0.0000

> <Gold.PLP.ligand.torsion>
1.0654

> <Gold.PLP.Chemscore.Hbond>
4.1022

> <Gold.PLP.Chemscore.CHOScore>
0.0000

> <Gold.PLP.Chemscore.Metal>
0.0000

> <Gold.Chemscore.Hbonds>
donor molecule, donor type, donor heavy atom, donor atom, acceptor molecule, acceptor atom, score
      L1  H    17    38       P1  7957  0.98
      P1  H  6896  6908       L1     7  0.90
      P1  H  6931  6943       L1     3  1.00
      P1  H  6934  6947       L1     3  0.21
      P1  H  7989  7998       L1    17  0.72

> <Gold.PLP.Chemscore.Internal.Correction>
0.0101

> <Gold.Rescore>
     Score         DG    S(hbond)    S(metal)    S(lipo)     H(rot)  DE(clash)    DE(int)     intcor
     19.70     -20.50       3.00        0.00      81.79       1.78       0.06       0.73       ----

> <Gold.Chemscore.Fitness>
19.7020

> <Gold.Chemscore.DG>
-20.4992

> <Gold.Chemscore.ZeroCoef>
-5.4800

> <Gold.Chemscore.Hbond>
2.9958

> <Gold.Chemscore.Metal>
0.0000

> <Gold.Chemscore.Lipo>
81.7890

> <Gold.Chemscore.Internal_Hbond>
0.0000

> <Gold.Chemscore.DEClash>
0.0630

> <Gold.Chemscore.DEInternal>
0.7342

> <Gold.Chemscore.Rot>
1.7798

> <Gold.Chemscore.Internal.Correction>
   9.000000E+99

> <Gold.Chemscore.Hbonds>
donor molecule, donor type, donor heavy atom, donor atom, acceptor molecule, acceptor atom, score
      L1  H    17    38       P1  7957  0.93
      P1  H  6896  6908       L1     7  0.88
      P1  H  6931  6943       L1     3  0.29
      P1  H  6934  6947       L1     3  0.05
      P1  H  7989  7998       L1    17  0.20

> <Gold.Chemscore.Hbond.Weighted>
-10.0061

> <Gold.Chemscore.Metal.Weighted>
-0.0000

> <Gold.Chemscore.Lipo.Weighted>
-9.5693

> <Gold.Chemscore.Internal_Hbond.Weighted>
0.0000

> <Gold.Chemscore.DEClash.Weighted>
0.0630

> <Gold.Chemscore.DEInternal.Weighted>
0.7342

> <Gold.Chemscore.Rot.Weighted>
4.5562

> <Gold.Chemscore.Internal.Correction.Weighted>
   9.000000E+99

> <Gold.Protein.RotatedTorsions>
[ 6907 6896 6895 6894 ] final -163.48 input  -60.11 | X-H torsion
[ 7974 7965 7964 7962 ] final -150.17 input  175.53 | X-H torsion
[ 8008 7997 7996 7995 ] final  -64.77 input   59.86 | X-H torsion
[ 10167 10162 10161 10158 ] final  -69.50 input  -65.29 | X-H torsion
[ 10718 10713 10712 10709 ] final   70.06 input   66.30 | X-H torsion
[ 10763 10752 10751 10750 ] final  -56.68 input  -60.55 | X-H torsion
[ 11005 11000 10999 10996 ] final  -42.30 input  -57.11 | X-H torsion

> <Gold.Protein.ActiveResidues>
 VAL166  LYS551  ARG553  GLY616  TRP617  ASP618  TYR619  PRO620  LYS621  CYS622 
 ASP623  PHE694  ASN695  SER759  ASP760  ASP761  ALA762  ILE779  LEU786  VAL792 
 PHE793  MET794  SER795  GLU796  ALA797  LYS798  CYS799  TRP800  GLU811  SER814 

> <Gold.Protein.RotatedAtoms>
  151.3967  133.3771  159.2727 H   0  0  0  0  0  0  0  0  0  0  0  0  # atno 6907 bound_to 6896
  150.9464  134.8870  159.7655 H   0  0  0  0  0  0  0  0  0  0  0  0  # atno 6908 bound_to 6896
  152.5093  134.3920  159.9439 H   0  0  0  0  0  0  0  0  0  0  0  0  # atno 6909 bound_to 6896
  144.7923  140.4967  143.5764 H   0  0  0  0  0  0  0  0  0  0  0  0  # atno 7974 bound_to 7965
  154.4631  140.0947  156.6947 H   0  0  0  0  0  0  0  0  0  0  0  0  # atno 8008 bound_to 7997
  155.4936  140.3471  155.4340 H   0  0  0  0  0  0  0  0  0  0  0  0  # atno 8009 bound_to 7997
  156.0907  140.1396  156.9584 H   0  0  0  0  0  0  0  0  0  0  0  0  # atno 8010 bound_to 7997
  140.5425  143.2314  151.7062 H   0  0  0  0  0  0  0  0  0  0  0  0  # atno 10167 bound_to 10162
  157.6380  130.9458  150.0599 H   0  0  0  0  0  0  0  0  0  0  0  0  # atno 10718 bound_to 10713
  154.2104  135.6395  153.5113 H   0  0  0  0  0  0  0  0  0  0  0  0  # atno 10763 bound_to 10752
  152.9991  135.5472  154.6221 H   0  0  0  0  0  0  0  0  0  0  0  0  # atno 10764 bound_to 10752
  154.5656  135.2912  155.0850 H   0  0  0  0  0  0  0  0  0  0  0  0  # atno 10765 bound_to 10752
  141.0306  133.6822  156.2576 H   0  0  0  0  0  0  0  0  0  0  0  0  # atno 11005 bound_to 11000
  145.5762  139.1486  143.3261 LP  0  0  0  0  0  0  0  0  0  0  0  0  # atno 17320 bound_to 7965
  146.2179  140.5894  142.9030 LP  0  0  0  0  0  0  0  0  0  0  0  0  # atno 17321 bound_to 7965
  139.4994  144.3946  152.0245 LP  0  0  0  0  0  0  0  0  0  0  0  0  # atno 17342 bound_to 10162
  140.3056  144.3597  150.6048 LP  0  0  0  0  0  0  0  0  0  0  0  0  # atno 17343 bound_to 10162
  156.1635  130.3644  149.9266 LP  0  0  0  0  0  0  0  0  0  0  0  0  # atno 17370 bound_to 10713
  156.7258  130.9024  151.3622 LP  0  0  0  0  0  0  0  0  0  0  0  0  # atno 17371 bound_to 10713
  140.6413  134.5163  157.5570 LP  0  0  0  0  0  0  0  0  0  0  0  0  # atno 17394 bound_to 11000
  139.9205  134.8158  156.1226 LP  0  0  0  0  0  0  0  0  0  0  0  0  # atno 17395 bound_to 11000

$$$$
