AV-unprocessed.smi:34|AV-procd|sdf|236|dock5
  -GOLD-   2262015573D 1   1.00000     0.00000
 Structure written by MMmdl.
 54 58  0  0  0  0  0  0  0  0  2 V2000
  144.7393  132.3664  151.5079 O   0  0  0  0  0  0  0  0  0  0  0  0
  145.6559  132.2232  152.3200 C   0  0  0  0  0  0  0  0  0  0  0  0
  146.1353  133.1343  153.2041 N   0  5  0  0  0  0  0  0  0  0  0  0
  145.8957  134.4413  153.0152 C   0  0  0  0  0  0  0  0  0  0  0  0
  145.0982  134.8518  151.9962 N   0  0  0  0  0  0  0  0  0  0  0  0
  144.8642  136.1553  151.8034 C   0  0  0  0  0  0  0  0  0  0  0  0
  145.3229  137.2024  152.4953 N   0  0  0  0  0  0  0  0  0  0  0  0
  146.1337  136.8047  153.5189 C   0  0  0  0  0  0  0  0  0  0  0  0
  146.4645  135.4543  153.8357 C   0  0  0  0  0  0  0  0  0  0  0  0
  147.3094  135.3987  154.9341 N   0  0  0  0  0  0  0  0  0  0  0  0
  147.4486  136.6883  155.2316 C   0  0  0  0  0  0  0  0  0  0  0  0
  146.7959  137.5795  154.4595 N   0  0  0  0  0  0  0  0  0  0  0  0
  146.8015  139.0691  154.6051 C   0  0  1  0  0  0  0  0  0  0  0  0
  147.6023  139.4289  155.6892 O   0  0  0  0  0  0  0  0  0  0  0  0
  148.3809  140.5851  155.3806 C   0  0  1  0  0  0  0  0  0  0  0  0
  149.8667  140.2038  155.4460 C   0  0  0  0  0  0  0  0  0  0  0  0
  150.5461  141.1033  156.3074 O   0  0  0  0  0  0  0  0  0  0  0  0
  151.6461  140.7006  156.9726 C   0  0  0  0  0  0  0  0  0  0  0  0
  152.3019  139.7025  156.6669 O   0  0  0  0  0  0  0  0  0  0  0  0
  151.9875  141.5893  158.1208 C   0  0  0  0  0  0  0  0  0  0  0  0
  151.5159  142.9229  158.1289 C   0  0  0  0  0  0  0  0  0  0  0  0
  151.8213  143.7856  159.1996 C   0  0  0  0  0  0  0  0  0  0  0  0
  152.6034  143.3255  160.2748 C   0  0  0  0  0  0  0  0  0  0  0  0
  153.0791  142.0014  160.2786 C   0  0  0  0  0  0  0  0  0  0  0  0
  152.7736  141.1366  159.2093 C   0  0  0  0  0  0  0  0  0  0  0  0
  147.9327  141.0465  153.9877 C   0  0  2  0  0  0  0  0  0  0  0  0
  146.9803  141.9725  154.1132 F   0  0  0  0  0  0  0  0  0  0  0  0
  147.3355  139.7993  153.3652 C   0  0  1  0  0  0  0  0  0  0  0  0
  148.3012  139.0737  152.6266 O   0  0  0  0  0  0  0  0  0  0  0  0
  146.4150  130.9231  152.3353 C   0  0  0  0  0  0  0  0  0  0  0  0
  145.9953  129.8575  151.5067 C   0  0  0  0  0  0  0  0  0  0  0  0
  146.6770  128.6250  151.5240 C   0  0  0  0  0  0  0  0  0  0  0  0
  147.7805  128.4413  152.3783 C   0  0  0  0  0  0  0  0  0  0  0  0
  148.1992  129.4901  153.2180 C   0  0  0  0  0  0  0  0  0  0  0  0
  147.5181  130.7231  153.2010 C   0  0  0  0  0  0  0  0  0  0  0  0
  144.2157  136.3936  150.9735 H   0  0  0  0  0  0  0  0  0  0  0  0
  148.0606  137.0045  156.0634 H   0  0  0  0  0  0  0  0  0  0  0  0
  145.7678  139.3355  154.8307 H   0  0  0  0  0  0  0  0  0  0  0  0
  148.1759  141.3524  156.1283 H   0  0  0  0  0  0  0  0  0  0  0  0
  149.9692  139.1916  155.8398 H   0  0  0  0  0  0  0  0  0  0  0  0
  150.3146  140.2149  154.4517 H   0  0  0  0  0  0  0  0  0  0  0  0
  150.9148  143.2990  157.3136 H   0  0  0  0  0  0  0  0  0  0  0  0
  151.4549  144.8016  159.1952 H   0  0  0  0  0  0  0  0  0  0  0  0
  152.8377  143.9873  161.0955 H   0  0  0  0  0  0  0  0  0  0  0  0
  153.6799  141.6472  161.1033 H   0  0  0  0  0  0  0  0  0  0  0  0
  153.1537  140.1262  159.2446 H   0  0  0  0  0  0  0  0  0  0  0  0
  148.7301  141.4954  153.3935 H   0  0  0  0  0  0  0  0  0  0  0  0
  146.5072  140.0309  152.6946 H   0  0  0  0  0  0  0  0  0  0  0  0
  148.4166  139.4936  151.7877 H   0  0  0  0  0  0  0  0  0  0  0  0
  145.1490  129.9817  150.8466 H   0  0  0  0  0  0  0  0  0  0  0  0
  146.3516  127.8201  150.8821 H   0  0  0  0  0  0  0  0  0  0  0  0
  148.3025  127.4961  152.3924 H   0  0  0  0  0  0  0  0  0  0  0  0
  149.0416  129.3491  153.8788 H   0  0  0  0  0  0  0  0  0  0  0  0
  147.8491  131.5116  153.8614 H   0  0  0  0  0  0  0  0  0  0  0  0
  1  2  2  0  0  0  0
  2  3  1  0  0  0  0
  2 30  1  0  0  0  0
  3  4  1  0  0  0  0
  4  9  1  0  0  0  0
  4  5  2  0  0  0  0
  5  6  1  0  0  0  0
  6  7  2  0  0  0  0
  6 36  1  0  0  0  0
  7  8  1  0  0  0  0
  8 12  1  0  0  0  0
  8  9  2  0  0  0  0
  9 10  1  0  0  0  0
 10 11  2  0  0  0  0
 11 12  1  0  0  0  0
 11 37  1  0  0  0  0
 12 13  1  0  0  0  0
 13 28  1  0  0  0  0
 13 14  1  0  0  0  0
 13 38  1  0  0  0  0
 14 15  1  0  0  0  0
 15 16  1  0  0  0  0
 15 26  1  0  0  0  0
 15 39  1  0  0  0  0
 16 17  1  0  0  0  0
 16 40  1  0  0  0  0
 16 41  1  0  0  0  0
 17 18  1  0  0  0  0
 18 19  2  0  0  0  0
 18 20  1  0  0  0  0
 20 25  1  0  0  0  0
 20 21  2  0  0  0  0
 21 22  1  0  0  0  0
 21 42  1  0  0  0  0
 22 23  2  0  0  0  0
 22 43  1  0  0  0  0
 23 24  1  0  0  0  0
 23 44  1  0  0  0  0
 24 25  2  0  0  0  0
 24 45  1  0  0  0  0
 25 46  1  0  0  0  0
 26 27  1  0  0  0  0
 26 28  1  0  0  0  0
 26 47  1  0  0  0  0
 28 29  1  0  0  0  0
 28 48  1  0  0  0  0
 29 49  1  0  0  0  0
 30 35  1  0  0  0  0
 30 31  2  0  0  0  0
 31 32  1  0  0  0  0
 31 50  1  0  0  0  0
 32 33  2  0  0  0  0
 32 51  1  0  0  0  0
 33 34  1  0  0  0  0
 33 52  1  0  0  0  0
 34 35  2  0  0  0  0
 34 53  1  0  0  0  0
 35 54  1  0  0  0  0
M  CHG  1   3  -1
M  END
> <s_m_source_file>
AV-unprocessed.smi

> <i_m_source_file_index>
34

> <i_lp_mmshare_version>
43012

> <i_f3d_flags>
0

> <s_epik_input>
W2NIXTFbY0hdW2NIXVtjSF1bY0hdYzFDKD1PKVtOSF1jKG5bY0hdbjIpYyhjMjMpbltjSF1uM1tDQEBIXTRPW0NASF0oW0NAQEhdKEYpW0NASF00W09IXSlbQ0gyXU9DKD1PKWM1W2NIXVtjSF1bY0hdW2NIXVtjSF01

> <s_epik_cmdline>
J2VwaWtfcHl0aG9uJywgJy1waCcsICc3LjAnLCAnLXRuJywgJzgnLCAnLW1hJywgJzIwMCcsICctbWV0YWxfYmluZGluZycsICctaW1hZScsICc8aW5maWxlLm1hZT4nLCAnLW9tYWUnLCAnPG91dGZpbGUubWFlPic=

> <r_lp_tautomer_probability>
1

> <r_epik_Ionization_Penalty>
4.33227

> <r_epik_Ionization_Penalty_Charging>
3.41027

> <r_epik_Ionization_Penalty_Neutral>
0.922001

> <r_epik_State_Penalty>
3.41358

> <r_epik_Charging_Adjusted_Penalty>
6.82385

> <i_epik_Tot_Q>
-1

> <i_epik_Tot_abs_Q>
1

> <r_epik_Metal_State_Penalty>
0.496292

> <b_epik_Metal_Only>
1

> <s_epik_Chemistry_Notes>
This compound has an ester and may undergo hydrolysis at high or low pH. This compound contains an acetal/aminal-like group ( X-CH(R)-Y where X, Y are N, S, or O) that may be acid/base labile, releasing an aldehyde.

> <s_lp_Force_Field>
OPLS_2005

> <r_lp_Energy>
54.5703

> <b_lp_Chiralities_Consistent>
1

> <s_lp_Variant>
AV-unprocessed.smi:34-22

> <Gold.Version>
5.8.1

> <Gold.Id.Protein>
6NUR|6NUR_protein|mol2

> <Gold.PLP.Fitness>
59.4907

> <Gold.PLP.PLP>
-54.5376

> <Gold.PLP.part.hbond>
-1.3497

> <Gold.PLP.part.metal>
0.0000

> <Gold.PLP.part.buried>
-7.2377

> <Gold.PLP.part.nonpolar>
-45.5596

> <Gold.PLP.part.repulsive>
0.6820

> <Gold.PLP.ligand.clash>
0.0000

> <Gold.PLP.ligand.torsion>
1.4673

> <Gold.PLP.Chemscore.Hbond>
1.4434

> <Gold.PLP.Chemscore.CHOScore>
0.9905

> <Gold.PLP.Chemscore.Metal>
0.0000

> <Gold.Chemscore.Hbonds>
donor molecule, donor type, donor heavy atom, donor atom, acceptor molecule, acceptor atom, score
      L1  H    29    49       P1  7957  0.48
      P1  H  7997  8010       L1    19  0.86
      L1  C     6    36       P1 10171  1.00

> <Gold.PLP.Chemscore.Internal.Correction>
0.5862

> <Gold.Rescore>
     Score         DG    S(hbond)    S(metal)    S(lipo)     H(rot)  DE(clash)    DE(int)     intcor
     16.94     -19.91       1.80        0.00     130.86       2.69       0.02       2.95       ----

> <Gold.Chemscore.Fitness>
16.9369

> <Gold.Chemscore.DG>
-19.9127

> <Gold.Chemscore.ZeroCoef>
-5.4800

> <Gold.Chemscore.Hbond>
1.8022

> <Gold.Chemscore.Metal>
0.0000

> <Gold.Chemscore.Lipo>
130.8634

> <Gold.Chemscore.Internal_Hbond>
0.0000

> <Gold.Chemscore.DEClash>
0.0234

> <Gold.Chemscore.DEInternal>
2.9524

> <Gold.Chemscore.Rot>
2.6944

> <Gold.Chemscore.Internal.Correction>
   9.000000E+99

> <Gold.Chemscore.Hbonds>
donor molecule, donor type, donor heavy atom, donor atom, acceptor molecule, acceptor atom, score
      L1  H    29    49       P1  7957  0.47
      P1  H  7997  8010       L1    19  0.69

> <Gold.Chemscore.Hbond.Weighted>
-6.0193

> <Gold.Chemscore.Metal.Weighted>
-0.0000

> <Gold.Chemscore.Lipo.Weighted>
-15.3110

> <Gold.Chemscore.Internal_Hbond.Weighted>
0.0000

> <Gold.Chemscore.DEClash.Weighted>
0.0234

> <Gold.Chemscore.DEInternal.Weighted>
2.9524

> <Gold.Chemscore.Rot.Weighted>
6.8975

> <Gold.Chemscore.Internal.Correction.Weighted>
   9.000000E+99

> <Gold.Protein.RotatedTorsions>
[ 6907 6896 6895 6894 ] final -152.17 input  -60.11 | X-H torsion
[ 7974 7965 7964 7962 ] final   10.88 input  175.53 | X-H torsion
[ 8008 7997 7996 7995 ] final   66.43 input   59.86 | X-H torsion
[ 10167 10162 10161 10158 ] final   86.33 input  -65.29 | X-H torsion
[ 10718 10713 10712 10709 ] final -124.74 input   66.30 | X-H torsion
[ 10763 10752 10751 10750 ] final   82.85 input  -60.55 | X-H torsion
[ 11005 11000 10999 10996 ] final  166.27 input  -57.11 | X-H torsion

> <Gold.Protein.ActiveResidues>
 VAL166  LYS551  ARG553  GLY616  TRP617  ASP618  TYR619  PRO620  LYS621  CYS622 
 ASP623  PHE694  ASN695  SER759  ASP760  ASP761  ALA762  ILE779  LEU786  VAL792 
 PHE793  MET794  SER795  GLU796  ALA797  LYS798  CYS799  TRP800  GLU811  SER814 

> <Gold.Protein.RotatedAtoms>
  151.2238  133.4488  159.2601 H   0  0  0  0  0  0  0  0  0  0  0  0  # atno 6907 bound_to 6896
  151.0860  134.9887  159.8389 H   0  0  0  0  0  0  0  0  0  0  0  0  # atno 6908 bound_to 6896
  152.5429  134.2174  159.8827 H   0  0  0  0  0  0  0  0  0  0  0  0  # atno 6909 bound_to 6896
  146.2381  139.9568  142.8463 H   0  0  0  0  0  0  0  0  0  0  0  0  # atno 7974 bound_to 7965
  155.6773  140.3497  155.4841 H   0  0  0  0  0  0  0  0  0  0  0  0  # atno 8008 bound_to 7997
  155.9637  140.1142  157.0896 H   0  0  0  0  0  0  0  0  0  0  0  0  # atno 8009 bound_to 7997
  154.4149  140.1170  156.5199 H   0  0  0  0  0  0  0  0  0  0  0  0  # atno 8010 bound_to 7997
  139.8887  144.6398  150.8763 H   0  0  0  0  0  0  0  0  0  0  0  0  # atno 10167 bound_to 10162
  156.1614  130.6604  151.0055 H   0  0  0  0  0  0  0  0  0  0  0  0  # atno 10718 bound_to 10713
  153.1239  135.4713  154.9240 H   0  0  0  0  0  0  0  0  0  0  0  0  # atno 10763 bound_to 10752
  154.7601  135.3129  154.8397 H   0  0  0  0  0  0  0  0  0  0  0  0  # atno 10764 bound_to 10752
  153.8955  135.6880  153.4812 H   0  0  0  0  0  0  0  0  0  0  0  0  # atno 10765 bound_to 10752
  140.2646  134.7875  157.3621 H   0  0  0  0  0  0  0  0  0  0  0  0  # atno 11005 bound_to 11000
  145.1809  140.9766  143.4267 LP  0  0  0  0  0  0  0  0  0  0  0  0  # atno 17320 bound_to 7965
  144.9943  139.3659  143.6199 LP  0  0  0  0  0  0  0  0  0  0  0  0  # atno 17321 bound_to 7965
  140.7731  143.3527  151.1981 LP  0  0  0  0  0  0  0  0  0  0  0  0  # atno 17342 bound_to 10162
  139.7130  143.9346  152.2955 LP  0  0  0  0  0  0  0  0  0  0  0  0  # atno 17343 bound_to 10162
  157.6735  131.0856  150.7552 LP  0  0  0  0  0  0  0  0  0  0  0  0  # atno 17370 bound_to 10713
  156.7615  130.4800  149.5436 LP  0  0  0  0  0  0  0  0  0  0  0  0  # atno 17371 bound_to 10713
  140.1431  134.4946  155.8016 LP  0  0  0  0  0  0  0  0  0  0  0  0  # atno 17394 bound_to 11000
  141.2186  133.6833  156.7246 LP  0  0  0  0  0  0  0  0  0  0  0  0  # atno 17395 bound_to 11000

$$$$
