AV-unprocessed.smi:2104|AV-procd|sdf|8583|dock6
  -GOLD-   2272011313D 1   1.00000     0.00000
 Structure written by MMmdl.
 43 44  0  0  0  0  0  0  0  0  1 V2000
  145.9331  134.4282  162.0569 C   0  0  0  0  0  0  0  0  0  0  0  0
  146.6021  135.5362  161.3179 C   0  0  0  0  0  0  0  0  0  0  0  0
  147.3184  135.5797  160.1549 C   0  0  0  0  0  0  0  0  0  0  0  0
  147.6595  136.9537  160.0406 C   0  0  0  0  0  0  0  0  0  0  0  0
  148.4231  137.4249  158.9422 N   0  0  0  0  0  0  0  0  0  0  0  0
  149.7597  137.5369  158.8617 C   0  0  0  0  0  0  0  0  0  0  0  0
  150.5494  137.2681  159.7674 O   0  0  0  0  0  0  0  0  0  0  0  0
  150.1375  137.9822  157.6544 N   0  0  0  0  0  0  0  0  0  0  0  0
  151.5180  138.1737  157.2219 C   0  0  0  0  0  0  0  0  0  0  0  0
  152.0235  139.5828  157.5634 C   0  0  0  0  0  0  0  0  0  0  0  0
  151.6661  139.8913  158.9018 O   0  0  0  0  0  0  0  0  0  0  0  0
  151.7933  141.2624  159.2504 C   0  0  2  0  0  0  0  0  0  0  0  0
  151.1075  142.1220  158.1672 C   0  0  0  0  0  0  0  0  0  0  0  0
  151.3395  143.6214  158.4043 C   0  0  0  0  0  0  0  0  0  0  0  0
  152.8391  143.9392  158.4825 C   0  0  0  0  0  0  0  0  0  0  0  0
  153.5238  143.0957  159.5684 C   0  0  0  0  0  0  0  0  0  0  0  0
  153.3015  141.5862  159.3451 C   0  0  1  0  0  0  0  0  0  0  0  0
  153.9903  140.7674  160.4492 C   0  0  0  0  0  0  0  0  0  0  0  0
  147.1945  137.6827  161.0437 N   0  0  0  0  0  0  0  0  0  0  0  0
  146.5142  136.7777  161.8673 O   0  0  0  0  0  0  0  0  0  0  0  0
  146.0420  133.4830  161.5250 H   0  0  0  0  0  0  0  0  0  0  0  0
  144.8682  134.6297  162.1737 H   0  0  0  0  0  0  0  0  0  0  0  0
  146.3665  134.3094  163.0501 H   0  0  0  0  0  0  0  0  0  0  0  0
  147.5577  134.7590  159.4950 H   0  0  0  0  0  0  0  0  0  0  0  0
  147.8955  137.6914  158.1244 H   0  0  0  0  0  0  0  0  0  0  0  0
  149.4186  138.1820  156.9747 H   0  0  0  0  0  0  0  0  0  0  0  0
  152.1283  137.4355  157.7425 H   0  0  0  0  0  0  0  0  0  0  0  0
  151.6291  137.9695  156.1558 H   0  0  0  0  0  0  0  0  0  0  0  0
  153.1016  139.6408  157.4109 H   0  0  0  0  0  0  0  0  0  0  0  0
  151.5622  140.3124  156.8965 H   0  0  0  0  0  0  0  0  0  0  0  0
  151.3332  141.4527  160.2223 H   0  0  0  0  0  0  0  0  0  0  0  0
  151.4949  141.8466  157.1853 H   0  0  0  0  0  0  0  0  0  0  0  0
  150.0365  141.9234  158.1395 H   0  0  0  0  0  0  0  0  0  0  0  0
  150.8774  144.2006  157.6044 H   0  0  0  0  0  0  0  0  0  0  0  0
  150.8510  143.9261  159.3308 H   0  0  0  0  0  0  0  0  0  0  0  0
  153.3066  143.7433  157.5167 H   0  0  0  0  0  0  0  0  0  0  0  0
  152.9851  145.0000  158.6879 H   0  0  0  0  0  0  0  0  0  0  0  0
  154.5916  143.3172  159.5807 H   0  0  0  0  0  0  0  0  0  0  0  0
  153.1379  143.3844  160.5471 H   0  0  0  0  0  0  0  0  0  0  0  0
  153.7657  141.3174  158.3947 H   0  0  0  0  0  0  0  0  0  0  0  0
  153.5596  140.9806  161.4278 H   0  0  0  0  0  0  0  0  0  0  0  0
  155.0558  140.9926  160.4981 H   0  0  0  0  0  0  0  0  0  0  0  0
  153.8922  139.6965  160.2691 H   0  0  0  0  0  0  0  0  0  0  0  0
  1  2  1  0  0  0  0
  1 21  1  0  0  0  0
  1 22  1  0  0  0  0
  1 23  1  0  0  0  0
  2 20  1  0  0  0  0
  2  3  2  0  0  0  0
  3  4  1  0  0  0  0
  3 24  1  0  0  0  0
  4  5  1  0  0  0  0
  4 19  2  0  0  0  0
  5  6  1  0  0  0  0
  5 25  1  0  0  0  0
  6  7  2  0  0  0  0
  6  8  1  0  0  0  0
  8  9  1  0  0  0  0
  8 26  1  0  0  0  0
  9 10  1  0  0  0  0
  9 27  1  0  0  0  0
  9 28  1  0  0  0  0
 10 11  1  0  0  0  0
 10 29  1  0  0  0  0
 10 30  1  0  0  0  0
 11 12  1  0  0  0  0
 12 17  1  0  0  0  0
 12 13  1  0  0  0  0
 12 31  1  0  0  0  0
 13 14  1  0  0  0  0
 13 32  1  0  0  0  0
 13 33  1  0  0  0  0
 14 15  1  0  0  0  0
 14 34  1  0  0  0  0
 14 35  1  0  0  0  0
 15 16  1  0  0  0  0
 15 36  1  0  0  0  0
 15 37  1  0  0  0  0
 16 17  1  0  0  0  0
 16 38  1  0  0  0  0
 16 39  1  0  0  0  0
 17 18  1  0  0  0  0
 17 40  1  0  0  0  0
 18 41  1  0  0  0  0
 18 42  1  0  0  0  0
 18 43  1  0  0  0  0
 19 20  1  0  0  0  0
M  END
> <s_m_source_file>
AV-unprocessed.smi

> <i_m_source_file_index>
2104

> <i_lp_mmshare_version>
43012

> <i_f3d_flags>
0

> <s_epik_input>
W0NIM11jMVtjSF1jKG5vMSlbTkhdQyg9TylbTkhdW0NIMl1bQ0gyXU9bQ0BASF0yW0NIMl1bQ0gyXVtDSDJdW0NIMl1bQ0BIXTJbQ0gzXQ==

> <s_epik_cmdline>
J2VwaWtfcHl0aG9uJywgJy1waCcsICc3LjAnLCAnLXRuJywgJzgnLCAnLW1hJywgJzIwMCcsICctbWV0YWxfYmluZGluZycsICctaW1hZScsICc8aW5maWxlLm1hZT4nLCAnLW9tYWUnLCAnPG91dGZpbGUubWFlPic=

> <r_lp_tautomer_probability>
1

> <r_epik_Ionization_Penalty>
2.94418e-05

> <r_epik_Ionization_Penalty_Charging>
0

> <r_epik_Ionization_Penalty_Neutral>
2.94418e-05

> <r_epik_State_Penalty>
-0

> <r_epik_Charging_Adjusted_Penalty>
0

> <i_epik_Tot_Q>
0

> <i_epik_Tot_abs_Q>
0

> <r_epik_Metal_State_Penalty>
0.0104148

> <b_epik_Metal_Only>
0

> <s_lp_Force_Field>
OPLS_2005

> <r_lp_Energy>
8.87971

> <b_lp_Chiralities_Consistent>
1

> <s_lp_Variant>
AV-unprocessed.smi:2104-1

> <Gold.Version>
5.8.1

> <Gold.Id.Protein>
6NUR|6NUR_protein|mol2

> <Gold.PLP.Fitness>
45.7573

> <Gold.PLP.PLP>
-39.6235

> <Gold.PLP.part.hbond>
-3.1443

> <Gold.PLP.part.metal>
0.0000

> <Gold.PLP.part.buried>
-5.8130

> <Gold.PLP.part.nonpolar>
-31.5468

> <Gold.PLP.part.repulsive>
0.2496

> <Gold.PLP.ligand.clash>
0.0000

> <Gold.PLP.ligand.torsion>
1.0970

> <Gold.PLP.Chemscore.Hbond>
2.7665

> <Gold.PLP.Chemscore.CHOScore>
0.0000

> <Gold.PLP.Chemscore.Metal>
0.0000

> <Gold.Chemscore.Hbonds>
donor molecule, donor type, donor heavy atom, donor atom, acceptor molecule, acceptor atom, score
      P1  H  6896  6907       L1     7  0.42
      P1  H  6931  6943       L1    19  0.45
      P1  H  6934  6947       L1    19  0.54

> <Gold.PLP.Chemscore.Internal.Correction>
0.0284

> <Gold.Rescore>
     Score         DG    S(hbond)    S(metal)    S(lipo)     H(rot)  DE(clash)    DE(int)     intcor
     20.01     -21.04       2.59        0.00      97.33       1.75       0.04       1.00       ----

> <Gold.Chemscore.Fitness>
20.0051

> <Gold.Chemscore.DG>
-21.0445

> <Gold.Chemscore.ZeroCoef>
-5.4800

> <Gold.Chemscore.Hbond>
2.5937

> <Gold.Chemscore.Metal>
0.0000

> <Gold.Chemscore.Lipo>
97.3295

> <Gold.Chemscore.Internal_Hbond>
0.0000

> <Gold.Chemscore.DEClash>
0.0428

> <Gold.Chemscore.DEInternal>
0.9966

> <Gold.Chemscore.Rot>
1.7524

> <Gold.Chemscore.Internal.Correction>
   9.000000E+99

> <Gold.Chemscore.Hbonds>
donor molecule, donor type, donor heavy atom, donor atom, acceptor molecule, acceptor atom, score
      P1  H  6896  6907       L1     7  0.40
      P1  H  6931  6943       L1    19  0.08
      P1  H  6934  6947       L1    19  0.52

> <Gold.Chemscore.Hbond.Weighted>
-8.6630

> <Gold.Chemscore.Metal.Weighted>
-0.0000

> <Gold.Chemscore.Lipo.Weighted>
-11.3876

> <Gold.Chemscore.Internal_Hbond.Weighted>
0.0000

> <Gold.Chemscore.DEClash.Weighted>
0.0428

> <Gold.Chemscore.DEInternal.Weighted>
0.9966

> <Gold.Chemscore.Rot.Weighted>
4.4861

> <Gold.Chemscore.Internal.Correction.Weighted>
   9.000000E+99

> <Gold.Protein.RotatedTorsions>
[ 6907 6896 6895 6894 ] final  -12.22 input  -60.11 | X-H torsion
[ 7974 7965 7964 7962 ] final   -9.57 input  175.53 | X-H torsion
[ 8008 7997 7996 7995 ] final -104.00 input   59.86 | X-H torsion
[ 10167 10162 10161 10158 ] final   62.62 input  -65.29 | X-H torsion
[ 10718 10713 10712 10709 ] final  151.03 input   66.30 | X-H torsion
[ 10763 10752 10751 10750 ] final  141.12 input  -60.55 | X-H torsion
[ 11005 11000 10999 10996 ] final   -6.54 input  -57.11 | X-H torsion

> <Gold.Protein.ActiveResidues>
 VAL166  LYS551  ARG553  GLY616  TRP617  ASP618  TYR619  PRO620  LYS621  CYS622 
 ASP623  PHE694  ASN695  SER759  ASP760  ASP761  ALA762  ILE779  LEU786  VAL792 
 PHE793  MET794  SER795  GLU796  ALA797  LYS798  CYS799  TRP800  GLU811  SER814 

> <Gold.Protein.RotatedAtoms>
  151.3739  135.0927  159.9474 H   0  0  0  0  0  0  0  0  0  0  0  0  # atno 6907 bound_to 6896
  152.5127  133.9138  159.7511 H   0  0  0  0  0  0  0  0  0  0  0  0  # atno 6908 bound_to 6896
  150.9557  133.6445  159.2792 H   0  0  0  0  0  0  0  0  0  0  0  0  # atno 6909 bound_to 6896
  146.2248  140.2635  142.8353 H   0  0  0  0  0  0  0  0  0  0  0  0  # atno 7974 bound_to 7965
  154.8790  140.0420  157.1771 H   0  0  0  0  0  0  0  0  0  0  0  0  # atno 8008 bound_to 7997
  154.8659  140.2951  155.5490 H   0  0  0  0  0  0  0  0  0  0  0  0  # atno 8009 bound_to 7997
  156.2999  140.2438  156.3640 H   0  0  0  0  0  0  0  0  0  0  0  0  # atno 8010 bound_to 7997
  140.1420  144.4545  150.6806 H   0  0  0  0  0  0  0  0  0  0  0  0  # atno 10167 bound_to 10162
  157.2759  131.0826  151.1566 H   0  0  0  0  0  0  0  0  0  0  0  0  # atno 10718 bound_to 10713
  153.9339  135.2987  155.3445 H   0  0  0  0  0  0  0  0  0  0  0  0  # atno 10763 bound_to 10752
  154.7512  135.4979  153.9296 H   0  0  0  0  0  0  0  0  0  0  0  0  # atno 10764 bound_to 10752
  153.1077  135.6751  153.9662 H   0  0  0  0  0  0  0  0  0  0  0  0  # atno 10765 bound_to 10752
  140.7031  133.8972  155.8697 H   0  0  0  0  0  0  0  0  0  0  0  0  # atno 11005 bound_to 11000
  144.9321  140.7987  143.5682 LP  0  0  0  0  0  0  0  0  0  0  0  0  # atno 17320 bound_to 7965
  145.2580  139.2004  143.4907 LP  0  0  0  0  0  0  0  0  0  0  0  0  # atno 17321 bound_to 7965
  140.6755  143.2303  151.5518 LP  0  0  0  0  0  0  0  0  0  0  0  0  # atno 17342 bound_to 10162
  139.5467  144.2501  152.1456 LP  0  0  0  0  0  0  0  0  0  0  0  0  # atno 17343 bound_to 10162
  157.3019  130.6847  149.6169 LP  0  0  0  0  0  0  0  0  0  0  0  0  # atno 17370 bound_to 10713
  155.9663  130.4389  150.5237 LP  0  0  0  0  0  0  0  0  0  0  0  0  # atno 17371 bound_to 10713
  141.0147  134.0972  157.4185 LP  0  0  0  0  0  0  0  0  0  0  0  0  # atno 17394 bound_to 11000
  139.8891  135.0103  156.6661 LP  0  0  0  0  0  0  0  0  0  0  0  0  # atno 17395 bound_to 11000

$$$$
