AV-unprocessed.smi:1435|AV-procd|sdf|5858|dock4
  -GOLD-   22720 5533D 1   1.00000     0.00000
 Structure written by MMmdl.
 44 45  0  0  0  0  0  0  0  0  2 V2000
  145.0745  133.5170  156.8962 O   0  0  0  0  0  0  0  0  0  0  0  0
  145.9669  134.2582  156.4842 C   0  0  0  0  0  0  0  0  0  0  0  0
  146.6585  135.2316  157.4401 C   0  0  0  0  0  0  0  0  0  0  0  0
  146.6549  134.7294  158.8948 C   0  0  0  0  0  0  0  0  0  0  0  0
  147.7292  135.7706  159.9816 S   0  0  0  0  0  0  0  0  0  0  0  0
  149.1179  135.6464  159.5129 O   0  0  0  0  0  0  0  0  0  0  0  0
  147.1232  137.1075  160.0814 O   0  0  0  0  0  0  0  0  0  0  0  0
  147.5764  134.9125  161.6189 C   0  0  0  0  0  0  0  0  0  0  0  0
  146.6095  133.7232  161.5522 C   0  0  0  0  0  0  0  0  0  0  0  0
  145.2137  134.2850  161.8628 C   0  0  0  0  0  0  0  0  0  0  0  0
  145.4261  135.6877  162.4509 C   0  0  0  0  0  0  0  0  0  0  0  0
  146.9352  135.8304  162.6630 C   0  0  0  0  0  0  0  0  0  0  0  0
  146.3729  134.2843  155.2060 N   0  0  0  0  0  0  0  0  0  0  0  0
  145.7823  133.5000  154.1293 C   0  0  0  0  0  0  0  0  0  0  0  0
  146.4022  133.8626  152.7694 C   0  0  0  0  0  0  0  0  0  0  0  0
  145.5659  133.3638  151.6079 C   0  0  0  0  0  0  0  0  0  0  0  0
  146.1137  132.4769  150.6550 C   0  0  0  0  0  0  0  0  0  0  0  0
  145.3094  132.0276  149.5868 C   0  0  0  0  0  0  0  0  0  0  0  0
  143.9756  132.4758  149.4959 C   0  0  0  0  0  0  0  0  0  0  0  0
  143.4861  133.3239  150.4269 N   0  3  0  0  0  0  0  0  0  0  0  0
  144.2237  133.7770  151.4645 C   0  0  0  0  0  0  0  0  0  0  0  0
  147.6886  135.3490  157.1026 H   0  0  0  0  0  0  0  0  0  0  0  0
  146.2022  136.2207  157.3801 H   0  0  0  0  0  0  0  0  0  0  0  0
  145.6459  134.7118  159.3067 H   0  0  0  0  0  0  0  0  0  0  0  0
  147.0363  133.7094  158.9334 H   0  0  0  0  0  0  0  0  0  0  0  0
  148.5775  134.6065  161.9233 H   0  0  0  0  0  0  0  0  0  0  0  0
  146.6393  133.1988  160.5976 H   0  0  0  0  0  0  0  0  0  0  0  0
  146.8819  133.0001  162.3220 H   0  0  0  0  0  0  0  0  0  0  0  0
  144.6089  134.3449  160.9572 H   0  0  0  0  0  0  0  0  0  0  0  0
  144.6857  133.6366  162.5628 H   0  0  0  0  0  0  0  0  0  0  0  0
  145.0803  136.4393  161.7402 H   0  0  0  0  0  0  0  0  0  0  0  0
  144.8696  135.8366  163.3766 H   0  0  0  0  0  0  0  0  0  0  0  0
  147.1930  135.4739  163.6611 H   0  0  0  0  0  0  0  0  0  0  0  0
  147.2731  136.8646  162.5904 H   0  0  0  0  0  0  0  0  0  0  0  0
  147.1128  134.9245  154.9553 H   0  0  0  0  0  0  0  0  0  0  0  0
  145.9491  132.4445  154.3462 H   0  0  0  0  0  0  0  0  0  0  0  0
  144.7009  133.6476  154.1107 H   0  0  0  0  0  0  0  0  0  0  0  0
  146.5142  134.9442  152.6796 H   0  0  0  0  0  0  0  0  0  0  0  0
  147.4070  133.4450  152.6923 H   0  0  0  0  0  0  0  0  0  0  0  0
  147.1377  132.1431  150.7411 H   0  0  0  0  0  0  0  0  0  0  0  0
  145.7105  131.3489  148.8481 H   0  0  0  0  0  0  0  0  0  0  0  0
  143.2906  132.1834  148.7135 H   0  0  0  0  0  0  0  0  0  0  0  0
  143.7213  134.4507  152.1438 H   0  0  0  0  0  0  0  0  0  0  0  0
  142.5181  133.6353  150.3426 H   0  0  0  0  0  0  0  0  0  0  0  0
  1  2  2  0  0  0  0
  2  3  1  0  0  0  0
  2 13  1  0  0  0  0
  3  4  1  0  0  0  0
  3 22  1  0  0  0  0
  3 23  1  0  0  0  0
  4  5  1  0  0  0  0
  4 24  1  0  0  0  0
  4 25  1  0  0  0  0
  5  6  2  0  0  0  0
  5  7  2  0  0  0  0
  5  8  1  0  0  0  0
  8 12  1  0  0  0  0
  8  9  1  0  0  0  0
  8 26  1  0  0  0  0
  9 10  1  0  0  0  0
  9 27  1  0  0  0  0
  9 28  1  0  0  0  0
 10 11  1  0  0  0  0
 10 29  1  0  0  0  0
 10 30  1  0  0  0  0
 11 12  1  0  0  0  0
 11 31  1  0  0  0  0
 11 32  1  0  0  0  0
 12 33  1  0  0  0  0
 12 34  1  0  0  0  0
 13 14  1  0  0  0  0
 13 35  1  0  0  0  0
 14 15  1  0  0  0  0
 14 36  1  0  0  0  0
 14 37  1  0  0  0  0
 15 16  1  0  0  0  0
 15 38  1  0  0  0  0
 15 39  1  0  0  0  0
 16 21  1  0  0  0  0
 16 17  2  0  0  0  0
 17 18  1  0  0  0  0
 17 40  1  0  0  0  0
 18 19  2  0  0  0  0
 18 41  1  0  0  0  0
 19 20  1  0  0  0  0
 19 42  1  0  0  0  0
 20 21  2  0  0  0  0
 20 44  1  0  0  0  0
 21 43  1  0  0  0  0
M  CHG  1  20   1
M  END
> <s_m_source_file>
AV-unprocessed.smi

> <i_m_source_file_index>
1435

> <i_lp_mmshare_version>
43012

> <i_f3d_flags>
0

> <s_epik_input>
W0NIMl0xW0NIMl1bQ0gyXVtDSDJdW0NIXTFTKD1PKSg9TylbQ0gyXVtDSDJdQyg9TylbTkhdW0NIMl1bQ0gyXWMyW2NIXVtjSF1bY0hdbltjSF0y

> <s_epik_cmdline>
J2VwaWtfcHl0aG9uJywgJy1waCcsICc3LjAnLCAnLXRuJywgJzgnLCAnLW1hJywgJzIwMCcsICctbWV0YWxfYmluZGluZycsICctaW1hZScsICc8aW5maWxlLm1hZT4nLCAnLW9tYWUnLCAnPG91dGZpbGUubWFlPic=

> <r_epik_Ionization_Penalty>
2.2792

> <r_epik_Ionization_Penalty_Charging>
2.2792

> <r_epik_Ionization_Penalty_Neutral>
6.52611e-08

> <r_epik_State_Penalty>
2.42836

> <r_epik_Charging_Adjusted_Penalty>
4.70756

> <i_epik_Tot_Q>
1

> <i_epik_Tot_abs_Q>
1

> <r_epik_Metal_State_Penalty>
2.44099

> <b_epik_Metal_Only>
0

> <s_lp_Force_Field>
OPLS_2005

> <r_lp_Energy>
17.5712

> <b_lp_Chiralities_Consistent>
1

> <s_lp_Variant>
AV-unprocessed.smi:1435-2

> <Gold.Version>
5.8.1

> <Gold.Id.Protein>
6NUR|6NUR_protein|mol2

> <Gold.PLP.Fitness>
46.3965

> <Gold.PLP.PLP>
-35.1754

> <Gold.PLP.part.hbond>
-3.0000

> <Gold.PLP.part.metal>
0.0000

> <Gold.PLP.part.buried>
-6.3291

> <Gold.PLP.part.nonpolar>
-26.1462

> <Gold.PLP.part.repulsive>
0.0932

> <Gold.PLP.ligand.clash>
0.0000

> <Gold.PLP.ligand.torsion>
0.5797

> <Gold.PLP.Chemscore.Hbond>
4.0000

> <Gold.PLP.Chemscore.CHOScore>
0.0000

> <Gold.PLP.Chemscore.Metal>
0.0000

> <Gold.Chemscore.Hbonds>
donor molecule, donor type, donor heavy atom, donor atom, acceptor molecule, acceptor atom, score
      L1  H    20    44       P1 10186  2.00
      P1  H  6896  6908       L1     6  1.00
      P1  H  6934  6947       L1     7  0.84

> <Gold.PLP.Chemscore.Internal.Correction>
0.3805

> <Gold.Rescore>
     Score         DG    S(hbond)    S(metal)    S(lipo)     H(rot)  DE(clash)    DE(int)     intcor
     19.89     -20.51       2.96        0.00      90.76       2.14       0.00       0.61       ----

> <Gold.Chemscore.Fitness>
19.8920

> <Gold.Chemscore.DG>
-20.5083

> <Gold.Chemscore.ZeroCoef>
-5.4800

> <Gold.Chemscore.Hbond>
2.9610

> <Gold.Chemscore.Metal>
0.0000

> <Gold.Chemscore.Lipo>
90.7602

> <Gold.Chemscore.Internal_Hbond>
0.0000

> <Gold.Chemscore.DEClash>
0.0038

> <Gold.Chemscore.DEInternal>
0.6125

> <Gold.Chemscore.Rot>
2.1408

> <Gold.Chemscore.Internal.Correction>
   9.000000E+99

> <Gold.Chemscore.Hbonds>
donor molecule, donor type, donor heavy atom, donor atom, acceptor molecule, acceptor atom, score
      L1  H    20    44       P1 10186  0.99
      P1  H  6896  6908       L1     6  1.00
      P1  H  6934  6947       L1     7  0.83

> <Gold.Chemscore.Hbond.Weighted>
-9.8898

> <Gold.Chemscore.Metal.Weighted>
-0.0000

> <Gold.Chemscore.Lipo.Weighted>
-10.6189

> <Gold.Chemscore.Internal_Hbond.Weighted>
0.0000

> <Gold.Chemscore.DEClash.Weighted>
0.0038

> <Gold.Chemscore.DEInternal.Weighted>
0.6125

> <Gold.Chemscore.Rot.Weighted>
5.4805

> <Gold.Chemscore.Internal.Correction.Weighted>
   9.000000E+99

> <Gold.Protein.RotatedTorsions>
[ 6907 6896 6895 6894 ] final -178.29 input  -60.11 | X-H torsion
[ 7974 7965 7964 7962 ] final  110.54 input  175.53 | X-H torsion
[ 8008 7997 7996 7995 ] final  -48.30 input   59.86 | X-H torsion
[ 10167 10162 10161 10158 ] final   46.73 input  -65.29 | X-H torsion
[ 10718 10713 10712 10709 ] final  -52.18 input   66.30 | X-H torsion
[ 10763 10752 10751 10750 ] final -147.26 input  -60.55 | X-H torsion
[ 11005 11000 10999 10996 ] final   -0.54 input  -57.11 | X-H torsion

> <Gold.Protein.ActiveResidues>
 VAL166  LYS551  ARG553  GLY616  TRP617  ASP618  TYR619  PRO620  LYS621  CYS622 
 ASP623  PHE694  ASN695  SER759  ASP760  ASP761  ALA762  ILE779  LEU786  VAL792 
 PHE793  MET794  SER795  GLU796  ALA797  LYS798  CYS799  TRP800  GLU811  SER814 

> <Gold.Protein.RotatedAtoms>
  151.6348  133.3329  159.3116 H   0  0  0  0  0  0  0  0  0  0  0  0  # atno 6907 bound_to 6896
  150.8038  134.7153  159.6637 H   0  0  0  0  0  0  0  0  0  0  0  0  # atno 6908 bound_to 6896
  152.4132  134.6092  160.0072 H   0  0  0  0  0  0  0  0  0  0  0  0  # atno 6909 bound_to 6896
  145.2537  139.2729  143.4054 H   0  0  0  0  0  0  0  0  0  0  0  0  # atno 7974 bound_to 7965
  154.4027  140.1325  156.4317 H   0  0  0  0  0  0  0  0  0  0  0  0  # atno 8008 bound_to 7997
  155.7545  140.3487  155.5147 H   0  0  0  0  0  0  0  0  0  0  0  0  # atno 8009 bound_to 7997
  155.8918  140.1004  157.1403 H   0  0  0  0  0  0  0  0  0  0  0  0  # atno 8010 bound_to 7997
  140.3109  144.2821  150.6200 H   0  0  0  0  0  0  0  0  0  0  0  0  # atno 10167 bound_to 10162
  156.1644  130.4149  149.9742 H   0  0  0  0  0  0  0  0  0  0  0  0  # atno 10718 bound_to 10713
  154.8295  135.3365  154.6790 H   0  0  0  0  0  0  0  0  0  0  0  0  # atno 10763 bound_to 10752
  153.7411  135.6945  153.4971 H   0  0  0  0  0  0  0  0  0  0  0  0  # atno 10764 bound_to 10752
  153.2243  135.4438  155.0476 H   0  0  0  0  0  0  0  0  0  0  0  0  # atno 10765 bound_to 10752
  140.6374  133.9520  155.8307 H   0  0  0  0  0  0  0  0  0  0  0  0  # atno 11005 bound_to 11000
  146.3295  140.2935  142.8616 LP  0  0  0  0  0  0  0  0  0  0  0  0  # atno 17320 bound_to 7965
  144.9480  140.8148  143.5589 LP  0  0  0  0  0  0  0  0  0  0  0  0  # atno 17321 bound_to 7965
  140.5568  143.2198  151.7833 LP  0  0  0  0  0  0  0  0  0  0  0  0  # atno 17342 bound_to 10162
  139.4894  144.4402  151.9773 LP  0  0  0  0  0  0  0  0  0  0  0  0  # atno 17343 bound_to 10162
  156.7562  130.9133  151.3639 LP  0  0  0  0  0  0  0  0  0  0  0  0  # atno 17370 bound_to 10713
  157.6757  130.9092  150.0145 LP  0  0  0  0  0  0  0  0  0  0  0  0  # atno 17371 bound_to 10713
  141.0631  134.0317  157.3631 LP  0  0  0  0  0  0  0  0  0  0  0  0  # atno 17394 bound_to 11000
  139.9093  135.0187  156.7622 LP  0  0  0  0  0  0  0  0  0  0  0  0  # atno 17395 bound_to 11000

$$$$
