AV-unprocessed.smi:2149|AV-procd|sdf|8753|dock8
  -GOLD-   2272011533D 1   1.00000     0.00000
 Structure written by MMmdl.
 42 43  0  0  0  0  0  0  0  0  1 V2000
  151.3433  141.2983  156.6107 C   0  0  0  0  0  0  0  0  0  0  0  0
  151.0975  139.7664  155.6208 S   0  0  0  0  0  0  0  0  0  0  0  0
  152.1422  139.7344  154.5854 O   0  0  0  0  0  0  0  0  0  0  0  0
  150.9311  138.6240  156.5319 O   0  0  0  0  0  0  0  0  0  0  0  0
  149.5765  140.0419  154.8332 N   0  0  0  0  0  0  0  0  0  0  0  0
  148.9172  141.3440  155.0609 C   0  0  0  0  0  0  0  0  0  0  0  0
  147.8243  141.6137  154.0142 C   0  0  0  0  0  0  0  0  0  0  0  0
  146.8128  140.4654  153.9622 C   0  0  0  0  0  0  0  0  0  0  0  0
  147.5536  139.1513  153.6689 C   0  0  2  0  0  0  0  0  0  0  0  0
  146.5745  137.9720  153.5931 C   0  0  0  0  0  0  0  0  0  0  0  0
  145.3995  138.1162  153.9320 O   0  0  0  0  0  0  0  0  0  0  0  0
  147.0743  136.8091  153.1467 N   0  0  0  0  0  0  0  0  0  0  0  0
  146.3197  135.5700  153.0000 C   0  0  0  0  0  0  0  0  0  0  0  0
  145.3950  135.6114  151.7722 C   0  0  0  0  0  0  0  0  0  0  0  0
  145.1818  134.2359  151.1683 C   0  0  0  0  0  0  0  0  0  0  0  0
  146.2641  133.3442  151.0088 C   0  0  0  0  0  0  0  0  0  0  0  0
  146.0149  132.0822  150.4350 C   0  0  0  0  0  0  0  0  0  0  0  0
  144.7003  131.7628  150.0437 C   0  0  0  0  0  0  0  0  0  0  0  0
  143.6891  132.7237  150.2446 C   0  0  0  0  0  0  0  0  0  0  0  0
  143.9176  133.9363  150.7935 N   0  0  0  0  0  0  0  0  0  0  0  0
  148.6416  138.9013  154.7352 C   0  0  0  0  0  0  0  0  0  0  0  0
  152.3269  141.2683  157.0788 H   0  0  0  0  0  0  0  0  0  0  0  0
  150.5832  141.3696  157.3872 H   0  0  0  0  0  0  0  0  0  0  0  0
  151.2819  142.1678  155.9568 H   0  0  0  0  0  0  0  0  0  0  0  0
  148.4891  141.3523  156.0642 H   0  0  0  0  0  0  0  0  0  0  0  0
  149.6543  142.1447  155.0279 H   0  0  0  0  0  0  0  0  0  0  0  0
  147.3133  142.5489  154.2442 H   0  0  0  0  0  0  0  0  0  0  0  0
  148.2818  141.7456  153.0327 H   0  0  0  0  0  0  0  0  0  0  0  0
  146.2794  140.4022  154.9121 H   0  0  0  0  0  0  0  0  0  0  0  0
  146.0653  140.6642  153.1931 H   0  0  0  0  0  0  0  0  0  0  0  0
  148.0477  139.2476  152.6999 H   0  0  0  0  0  0  0  0  0  0  0  0
  148.0505  136.7811  152.8901 H   0  0  0  0  0  0  0  0  0  0  0  0
  147.0007  134.7191  152.9413 H   0  0  0  0  0  0  0  0  0  0  0  0
  145.7264  135.4307  153.9042 H   0  0  0  0  0  0  0  0  0  0  0  0
  144.4280  136.0346  152.0481 H   0  0  0  0  0  0  0  0  0  0  0  0
  145.8101  136.2705  151.0083 H   0  0  0  0  0  0  0  0  0  0  0  0
  147.2624  133.6190  151.3164 H   0  0  0  0  0  0  0  0  0  0  0  0
  146.8177  131.3730  150.2967 H   0  0  0  0  0  0  0  0  0  0  0  0
  144.4723  130.8051  149.6000 H   0  0  0  0  0  0  0  0  0  0  0  0
  142.6698  132.5130  149.9560 H   0  0  0  0  0  0  0  0  0  0  0  0
  149.1931  137.9970  154.4775 H   0  0  0  0  0  0  0  0  0  0  0  0
  148.1969  138.7299  155.7170 H   0  0  0  0  0  0  0  0  0  0  0  0
  1  2  1  0  0  0  0
  1 22  1  0  0  0  0
  1 23  1  0  0  0  0
  1 24  1  0  0  0  0
  2  3  2  0  0  0  0
  2  4  2  0  0  0  0
  2  5  1  0  0  0  0
  5 21  1  0  0  0  0
  5  6  1  0  0  0  0
  6  7  1  0  0  0  0
  6 25  1  0  0  0  0
  6 26  1  0  0  0  0
  7  8  1  0  0  0  0
  7 27  1  0  0  0  0
  7 28  1  0  0  0  0
  8  9  1  0  0  0  0
  8 29  1  0  0  0  0
  8 30  1  0  0  0  0
  9 10  1  0  0  0  0
  9 21  1  0  0  0  0
  9 31  1  0  0  0  0
 10 11  2  0  0  0  0
 10 12  1  0  0  0  0
 12 13  1  0  0  0  0
 12 32  1  0  0  0  0
 13 14  1  0  0  0  0
 13 33  1  0  0  0  0
 13 34  1  0  0  0  0
 14 15  1  0  0  0  0
 14 35  1  0  0  0  0
 14 36  1  0  0  0  0
 15 20  1  0  0  0  0
 15 16  2  0  0  0  0
 16 17  1  0  0  0  0
 16 37  1  0  0  0  0
 17 18  2  0  0  0  0
 17 38  1  0  0  0  0
 18 19  1  0  0  0  0
 18 39  1  0  0  0  0
 19 20  2  0  0  0  0
 19 40  1  0  0  0  0
 21 41  1  0  0  0  0
 21 42  1  0  0  0  0
M  END
> <s_m_source_file>
AV-unprocessed.smi

> <i_m_source_file_index>
2149

> <i_lp_mmshare_version>
43012

> <i_f3d_flags>
0

> <s_epik_input>
W0NIM11TKD1PKSg9TylOMVtDSDJdW0NIMl1bQ0gyXVtDQEhdKFtDSDJdMSlDKD1PKVtOSF1bQ0gyXVtDSDJdYzJbY0hdW2NIXVtjSF1bY0hdbjI=

> <s_epik_cmdline>
J2VwaWtfcHl0aG9uJywgJy1waCcsICc3LjAnLCAnLXRuJywgJzgnLCAnLW1hJywgJzIwMCcsICctbWV0YWxfYmluZGluZycsICctaW1hZScsICc8aW5maWxlLm1hZT4nLCAnLW9tYWUnLCAnPG91dGZpbGUubWFlPic=

> <r_epik_Ionization_Penalty>
0.0273806

> <r_epik_Ionization_Penalty_Charging>
0

> <r_epik_Ionization_Penalty_Neutral>
0.0273806

> <r_epik_State_Penalty>
0.0224071

> <r_epik_Charging_Adjusted_Penalty>
0.0224071

> <i_epik_Tot_Q>
0

> <i_epik_Tot_abs_Q>
0

> <r_epik_Metal_State_Penalty>
0.0214134

> <b_epik_Metal_Only>
0

> <s_lp_Force_Field>
OPLS_2005

> <r_lp_Energy>
5.16122

> <b_lp_Chiralities_Consistent>
1

> <s_lp_Variant>
AV-unprocessed.smi:2149-2

> <Gold.Version>
5.8.1

> <Gold.Id.Protein>
6NUR|6NUR_protein|mol2

> <Gold.PLP.Fitness>
40.7450

> <Gold.PLP.PLP>
-33.4578

> <Gold.PLP.part.hbond>
-1.9305

> <Gold.PLP.part.metal>
0.0000

> <Gold.PLP.part.buried>
-5.7218

> <Gold.PLP.part.nonpolar>
-26.9848

> <Gold.PLP.part.repulsive>
0.4879

> <Gold.PLP.ligand.clash>
0.0000

> <Gold.PLP.ligand.torsion>
1.0663

> <Gold.PLP.Chemscore.Hbond>
1.6960

> <Gold.PLP.Chemscore.CHOScore>
1.1833

> <Gold.PLP.Chemscore.Metal>
0.0000

> <Gold.Chemscore.Hbonds>
donor molecule, donor type, donor heavy atom, donor atom, acceptor molecule, acceptor atom, score
      L1  H    12    32       P1  7948  0.72
      P1  H  7989  7998       L1     3  0.78
      L1  C    19    40       P1 10186  0.77
      L1  C    19    40       P1 10952  0.16

> <Gold.PLP.Chemscore.Internal.Correction>
0.7819

> <Gold.Rescore>
     Score         DG    S(hbond)    S(metal)    S(lipo)     H(rot)  DE(clash)    DE(int)     intcor
     15.45     -16.82       1.77        0.00      86.73       1.84       0.26       1.11       ----

> <Gold.Chemscore.Fitness>
15.4548

> <Gold.Chemscore.DG>
-16.8235

> <Gold.Chemscore.ZeroCoef>
-5.4800

> <Gold.Chemscore.Hbond>
1.7698

> <Gold.Chemscore.Metal>
0.0000

> <Gold.Chemscore.Lipo>
86.7321

> <Gold.Chemscore.Internal_Hbond>
0.0000

> <Gold.Chemscore.DEClash>
0.2629

> <Gold.Chemscore.DEInternal>
1.1058

> <Gold.Chemscore.Rot>
1.8419

> <Gold.Chemscore.Internal.Correction>
   9.000000E+99

> <Gold.Chemscore.Hbonds>
donor molecule, donor type, donor heavy atom, donor atom, acceptor molecule, acceptor atom, score
      L1  H    12    32       P1  7948  0.68
      P1  H  7989  7998       L1     3  0.40

> <Gold.Chemscore.Hbond.Weighted>
-5.9112

> <Gold.Chemscore.Metal.Weighted>
-0.0000

> <Gold.Chemscore.Lipo.Weighted>
-10.1477

> <Gold.Chemscore.Internal_Hbond.Weighted>
0.0000

> <Gold.Chemscore.DEClash.Weighted>
0.2629

> <Gold.Chemscore.DEInternal.Weighted>
1.1058

> <Gold.Chemscore.Rot.Weighted>
4.7153

> <Gold.Chemscore.Internal.Correction.Weighted>
   9.000000E+99

> <Gold.Protein.RotatedTorsions>
[ 6907 6896 6895 6894 ] final   31.20 input  -60.11 | X-H torsion
[ 7974 7965 7964 7962 ] final   32.71 input  175.53 | X-H torsion
[ 8008 7997 7996 7995 ] final -168.86 input   59.86 | X-H torsion
[ 10167 10162 10161 10158 ] final  145.64 input  -65.29 | X-H torsion
[ 10718 10713 10712 10709 ] final  -93.79 input   66.30 | X-H torsion
[ 10763 10752 10751 10750 ] final   96.81 input  -60.55 | X-H torsion
[ 11005 11000 10999 10996 ] final  -67.57 input  -57.11 | X-H torsion

> <Gold.Protein.ActiveResidues>
 VAL166  LYS551  ARG553  GLY616  TRP617  ASP618  TYR619  PRO620  LYS621  CYS622 
 ASP623  PHE694  ASN695  SER759  ASP760  ASP761  ALA762  ILE779  LEU786  VAL792 
 PHE793  MET794  SER795  GLU796  ALA797  LYS798  CYS799  TRP800  GLU811  SER814 

> <Gold.Protein.RotatedAtoms>
  152.0569  134.9618  160.0574 H   0  0  0  0  0  0  0  0  0  0  0  0  # atno 6907 bound_to 6896
  152.0997  133.4238  159.4590 H   0  0  0  0  0  0  0  0  0  0  0  0  # atno 6908 bound_to 6896
  150.6839  134.2694  159.4625 H   0  0  0  0  0  0  0  0  0  0  0  0  # atno 6909 bound_to 6896
  146.1468  139.6491  142.9125 H   0  0  0  0  0  0  0  0  0  0  0  0  # atno 7974 bound_to 7965
  155.8972  140.1035  157.1376 H   0  0  0  0  0  0  0  0  0  0  0  0  # atno 8008 bound_to 7997
  154.4022  140.1299  156.4454 H   0  0  0  0  0  0  0  0  0  0  0  0  # atno 8009 bound_to 7997
  155.7465  140.3466  155.5132 H   0  0  0  0  0  0  0  0  0  0  0  0  # atno 8010 bound_to 7997
  139.4922  144.5887  151.6725 H   0  0  0  0  0  0  0  0  0  0  0  0  # atno 10167 bound_to 10162
  156.0018  130.5041  150.5829 H   0  0  0  0  0  0  0  0  0  0  0  0  # atno 10718 bound_to 10713
  153.2694  135.4205  155.0973 H   0  0  0  0  0  0  0  0  0  0  0  0  # atno 10763 bound_to 10752
  154.8450  135.3468  154.6265 H   0  0  0  0  0  0  0  0  0  0  0  0  # atno 10764 bound_to 10752
  153.6685  135.7045  153.5212 H   0  0  0  0  0  0  0  0  0  0  0  0  # atno 10765 bound_to 10752
  141.1511  133.6722  156.6312 H   0  0  0  0  0  0  0  0  0  0  0  0  # atno 11005 bound_to 11000
  145.4917  141.0438  143.2589 LP  0  0  0  0  0  0  0  0  0  0  0  0  # atno 17320 bound_to 7965
  144.7856  139.6433  143.7135 LP  0  0  0  0  0  0  0  0  0  0  0  0  # atno 17321 bound_to 7965
  140.5509  144.0426  150.6127 LP  0  0  0  0  0  0  0  0  0  0  0  0  # atno 17342 bound_to 10162
  140.3480  143.2980  152.0517 LP  0  0  0  0  0  0  0  0  0  0  0  0  # atno 17343 bound_to 10162
  157.3707  131.0765  151.1560 LP  0  0  0  0  0  0  0  0  0  0  0  0  # atno 17370 bound_to 10713
  157.2315  130.6527  149.5851 LP  0  0  0  0  0  0  0  0  0  0  0  0  # atno 17371 bound_to 10713
  140.3465  134.7805  157.4436 LP  0  0  0  0  0  0  0  0  0  0  0  0  # atno 17394 bound_to 11000
  140.0895  134.5620  155.8458 LP  0  0  0  0  0  0  0  0  0  0  0  0  # atno 17395 bound_to 11000

$$$$
