AV-unprocessed.smi:862|AV-procd|sdf|3983|dock8
  -GOLD-   22720 1463D 1   1.00000     0.00000
 Structure written by MMmdl.
 45 47  0  0  0  0  0  0  0  0  3 V2000
  150.4296  138.1818  153.4585 N   0  0  0  0  0  0  0  0  0  0  0  0
  150.6655  137.5819  154.6293 C   0  0  0  0  0  0  0  0  0  0  0  0
  150.0406  136.5767  154.9625 O   0  0  0  0  0  0  0  0  0  0  0  0
  151.6552  138.1352  155.3752 N   0  0  0  0  0  0  0  0  0  0  0  0
  152.3913  139.3712  155.0611 C   0  0  0  0  0  0  0  0  0  0  0  0
  151.9015  140.4944  155.9939 C   0  0  0  0  0  0  0  0  0  0  0  0
  152.0675  140.0994  157.4797 C   0  0  0  0  0  0  0  0  0  0  0  0
  151.4615  141.1066  158.3801 N   0  3  0  0  0  0  0  0  0  0  0  0
  152.1401  142.4230  158.4395 C   0  0  1  0  0  0  0  0  0  0  0  0
  151.6249  143.4257  157.4031 C   0  0  0  0  0  0  0  0  0  0  0  0
  152.0132  144.8005  157.9574 C   0  0  0  0  0  0  0  0  0  0  0  0
  152.1355  144.6360  159.4803 C   0  0  0  0  0  0  0  0  0  0  0  0
  151.8797  143.1462  159.7703 C   0  0  2  0  0  0  0  0  0  0  0  0
  152.6599  142.6219  160.9036 N   0  0  0  0  0  0  0  0  0  0  0  0
  152.5882  143.0353  162.2101 C   0  0  0  0  0  0  0  0  0  0  0  0
  153.4894  142.2780  162.9133 C   0  0  0  0  0  0  0  0  0  0  0  0
  154.0744  141.4333  162.0093 N   0  3  0  0  0  0  0  0  0  0  0  0
  153.5698  141.6426  160.7892 C   0  0  0  0  0  0  0  0  0  0  0  0
  151.4384  138.7157  157.7441 C   0  0  0  0  0  0  0  0  0  0  0  0
  151.9507  137.6710  156.7363 C   0  0  0  0  0  0  0  0  0  0  0  0
  149.7128  137.8179  152.8476 H   0  0  0  0  0  0  0  0  0  0  0  0
  150.9716  138.9879  153.1843 H   0  0  0  0  0  0  0  0  0  0  0  0
  153.4581  139.1995  155.2127 H   0  0  0  0  0  0  0  0  0  0  0  0
  152.2957  139.6898  154.0233 H   0  0  0  0  0  0  0  0  0  0  0  0
  152.4503  141.4082  155.7717 H   0  0  0  0  0  0  0  0  0  0  0  0
  150.8525  140.7062  155.7814 H   0  0  0  0  0  0  0  0  0  0  0  0
  153.1328  140.0179  157.7025 H   0  0  0  0  0  0  0  0  0  0  0  0
  150.4900  141.2314  158.1329 H   0  0  0  0  0  0  0  0  0  0  0  0
  153.2139  142.2872  158.3004 H   0  0  0  0  0  0  0  0  0  0  0  0
  152.0410  143.2559  156.4097 H   0  0  0  0  0  0  0  0  0  0  0  0
  150.5383  143.3616  157.3267 H   0  0  0  0  0  0  0  0  0  0  0  0
  152.9746  145.1091  157.5445 H   0  0  0  0  0  0  0  0  0  0  0  0
  151.2835  145.5637  157.6840 H   0  0  0  0  0  0  0  0  0  0  0  0
  153.1294  144.9523  159.7995 H   0  0  0  0  0  0  0  0  0  0  0  0
  151.4169  145.2634  160.0092 H   0  0  0  0  0  0  0  0  0  0  0  0
  150.8236  143.0350  160.0247 H   0  0  0  0  0  0  0  0  0  0  0  0
  151.9218  143.8208  162.5372 H   0  0  0  0  0  0  0  0  0  0  0  0
  153.7530  142.2788  163.9613 H   0  0  0  0  0  0  0  0  0  0  0  0
  153.8499  141.1248  159.8890 H   0  0  0  0  0  0  0  0  0  0  0  0
  151.6640  138.3897  158.7600 H   0  0  0  0  0  0  0  0  0  0  0  0
  150.3512  138.7794  157.6731 H   0  0  0  0  0  0  0  0  0  0  0  0
  151.5109  136.6961  156.9517 H   0  0  0  0  0  0  0  0  0  0  0  0
  153.0278  137.5377  156.8463 H   0  0  0  0  0  0  0  0  0  0  0  0
  151.5017  140.7197  159.3122 H   0  0  0  0  0  0  0  0  0  0  0  0
  154.7907  140.7518  162.2290 H   0  0  0  0  0  0  0  0  0  0  0  0
  1  2  1  0  0  0  0
  1 21  1  0  0  0  0
  1 22  1  0  0  0  0
  2  3  2  0  0  0  0
  2  4  1  0  0  0  0
  4 20  1  0  0  0  0
  4  5  1  0  0  0  0
  5  6  1  0  0  0  0
  5 23  1  0  0  0  0
  5 24  1  0  0  0  0
  6  7  1  0  0  0  0
  6 25  1  0  0  0  0
  6 26  1  0  0  0  0
  7  8  1  0  0  0  0
  7 19  1  0  0  0  0
  7 27  1  0  0  0  0
  8  9  1  0  0  0  0
  8 28  1  0  0  0  0
  8 44  1  0  0  0  0
  9 13  1  0  0  0  0
  9 10  1  0  0  0  0
  9 29  1  0  0  0  0
 10 11  1  0  0  0  0
 10 30  1  0  0  0  0
 10 31  1  0  0  0  0
 11 12  1  0  0  0  0
 11 32  1  0  0  0  0
 11 33  1  0  0  0  0
 12 13  1  0  0  0  0
 12 34  1  0  0  0  0
 12 35  1  0  0  0  0
 13 14  1  0  0  0  0
 13 36  1  0  0  0  0
 14 18  1  0  0  0  0
 14 15  1  0  0  0  0
 15 16  2  0  0  0  0
 15 37  1  0  0  0  0
 16 17  1  0  0  0  0
 16 38  1  0  0  0  0
 17 18  2  0  0  0  0
 17 45  1  0  0  0  0
 18 39  1  0  0  0  0
 19 20  1  0  0  0  0
 19 40  1  0  0  0  0
 19 41  1  0  0  0  0
 20 42  1  0  0  0  0
 20 43  1  0  0  0  0
M  CHG  1   8   1
M  CHG  1  17   1
M  END
> <s_m_source_file>
AV-unprocessed.smi

> <i_m_source_file_index>
862

> <i_lp_mmshare_version>
43012

> <i_f3d_flags>
0

> <s_epik_input>
W05IMl1DKD1PKU4xW0NIMl1bQ0gyXVtDSF0oW0NIMl1bQ0gyXTEpW05IXVtDQEBIXTJbQ0gyXVtDSDJdW0NIMl1bQ0BIXTJuM1tjSF1bY0hdbltjSF0z

> <s_epik_cmdline>
J2VwaWtfcHl0aG9uJywgJy1waCcsICc3LjAnLCAnLXRuJywgJzgnLCAnLW1hJywgJzIwMCcsICctbWV0YWxfYmluZGluZycsICctaW1hZScsICc8aW5maWxlLm1hZT4nLCAnLW9tYWUnLCAnPG91dGZpbGUubWFlPic=

> <r_lp_tautomer_probability>
1

> <r_epik_Ionization_Penalty>
1.30217

> <r_epik_Ionization_Penalty_Charging>
0.00439521

> <r_epik_Ionization_Penalty_Neutral>
1.29777

> <r_epik_State_Penalty>
0.977606

> <r_epik_Charging_Adjusted_Penalty>
0.982001

> <i_epik_Tot_Q>
2

> <i_epik_Tot_abs_Q>
2

> <r_epik_Metal_State_Penalty>
1.03289

> <b_epik_Metal_Only>
0

> <s_lp_Force_Field>
OPLS_2005

> <r_lp_Energy>
66.2462

> <b_lp_Chiralities_Consistent>
1

> <s_lp_Variant>
AV-unprocessed.smi:862-8

> <Gold.Version>
5.8.1

> <Gold.Id.Protein>
6NUR|6NUR_protein|mol2

> <Gold.PLP.Fitness>
51.5897

> <Gold.PLP.PLP>
-49.3911

> <Gold.PLP.part.hbond>
-3.5714

> <Gold.PLP.part.metal>
0.0000

> <Gold.PLP.part.buried>
-4.2088

> <Gold.PLP.part.nonpolar>
-40.4599

> <Gold.PLP.part.repulsive>
0.3563

> <Gold.PLP.ligand.clash>
0.0000

> <Gold.PLP.ligand.torsion>
0.4097

> <Gold.PLP.Chemscore.Hbond>
0.9920

> <Gold.PLP.Chemscore.CHOScore>
0.0000

> <Gold.PLP.Chemscore.Metal>
0.0000

> <Gold.Chemscore.Hbonds>
donor molecule, donor type, donor heavy atom, donor atom, acceptor molecule, acceptor atom, score
      L1  H     1    21       P1  7948  0.94

> <Gold.PLP.Chemscore.Internal.Correction>
0.0421

> <Gold.Rescore>
     Score         DG    S(hbond)    S(metal)    S(lipo)     H(rot)  DE(clash)    DE(int)     intcor
     16.38     -16.75       0.84        0.00     109.30       1.68       0.00       0.37       ----

> <Gold.Chemscore.Fitness>
16.3802

> <Gold.Chemscore.DG>
-16.7544

> <Gold.Chemscore.ZeroCoef>
-5.4800

> <Gold.Chemscore.Hbond>
0.8355

> <Gold.Chemscore.Metal>
0.0000

> <Gold.Chemscore.Lipo>
109.3000

> <Gold.Chemscore.Internal_Hbond>
0.0000

> <Gold.Chemscore.DEClash>
0.0024

> <Gold.Chemscore.DEInternal>
0.3718

> <Gold.Chemscore.Rot>
1.6814

> <Gold.Chemscore.Internal.Correction>
   9.000000E+99

> <Gold.Chemscore.Hbonds>
donor molecule, donor type, donor heavy atom, donor atom, acceptor molecule, acceptor atom, score
      L1  H     1    21       P1  7948  0.49

> <Gold.Chemscore.Hbond.Weighted>
-2.7906

> <Gold.Chemscore.Metal.Weighted>
-0.0000

> <Gold.Chemscore.Lipo.Weighted>
-12.7881

> <Gold.Chemscore.Internal_Hbond.Weighted>
0.0000

> <Gold.Chemscore.DEClash.Weighted>
0.0024

> <Gold.Chemscore.DEInternal.Weighted>
0.3718

> <Gold.Chemscore.Rot.Weighted>
4.3043

> <Gold.Chemscore.Internal.Correction.Weighted>
   9.000000E+99

> <Gold.Protein.RotatedTorsions>
[ 6907 6896 6895 6894 ] final -131.43 input  -60.11 | X-H torsion
[ 7974 7965 7964 7962 ] final -110.15 input  175.53 | X-H torsion
[ 8008 7997 7996 7995 ] final   72.84 input   59.86 | X-H torsion
[ 10167 10162 10161 10158 ] final -107.92 input  -65.29 | X-H torsion
[ 10718 10713 10712 10709 ] final  -27.77 input   66.30 | X-H torsion
[ 10763 10752 10751 10750 ] final   54.26 input  -60.55 | X-H torsion
[ 11005 11000 10999 10996 ] final  116.82 input  -57.11 | X-H torsion

> <Gold.Protein.ActiveResidues>
 VAL166  LYS551  ARG553  GLY616  TRP617  ASP618  TYR619  PRO620  LYS621  CYS622 
 ASP623  PHE694  ASN695  SER759  ASP760  ASP761  ALA762  ILE779  LEU786  VAL792 
 PHE793  MET794  SER795  GLU796  ALA797  LYS798  CYS799  TRP800  GLU811  SER814 

> <Gold.Protein.RotatedAtoms>
  150.9509  133.6550  159.2771 H   0  0  0  0  0  0  0  0  0  0  0  0  # atno 6907 bound_to 6896
  151.3907  135.0954  159.9535 H   0  0  0  0  0  0  0  0  0  0  0  0  # atno 6908 bound_to 6896
  152.5109  133.9024  159.7502 H   0  0  0  0  0  0  0  0  0  0  0  0  # atno 6909 bound_to 6896
  145.1717  140.8929  143.3531 H   0  0  0  0  0  0  0  0  0  0  0  0  # atno 7974 bound_to 7965
  155.7749  140.3483  155.5266 H   0  0  0  0  0  0  0  0  0  0  0  0  # atno 8008 bound_to 7997
  155.8786  140.0998  157.1522 H   0  0  0  0  0  0  0  0  0  0  0  0  # atno 8009 bound_to 7997
  154.4023  140.1327  156.4155 H   0  0  0  0  0  0  0  0  0  0  0  0  # atno 8010 bound_to 7997
  140.1718  143.4037  152.1349 H   0  0  0  0  0  0  0  0  0  0  0  0  # atno 10167 bound_to 10162
  156.4339  130.4450  149.7098 H   0  0  0  0  0  0  0  0  0  0  0  0  # atno 10718 bound_to 10713
  152.9803  135.5751  154.4875 H   0  0  0  0  0  0  0  0  0  0  0  0  # atno 10763 bound_to 10752
  154.4415  135.2776  155.1846 H   0  0  0  0  0  0  0  0  0  0  0  0  # atno 10764 bound_to 10752
  154.3513  135.6208  153.5697 H   0  0  0  0  0  0  0  0  0  0  0  0  # atno 10765 bound_to 10752
  139.9054  134.9603  156.7257 H   0  0  0  0  0  0  0  0  0  0  0  0  # atno 11005 bound_to 11000
  145.0226  139.3411  143.6065 LP  0  0  0  0  0  0  0  0  0  0  0  0  # atno 17320 bound_to 7965
  146.3467  139.9532  142.8726 LP  0  0  0  0  0  0  0  0  0  0  0  0  # atno 17321 bound_to 7965
  139.5335  144.7184  151.4975 LP  0  0  0  0  0  0  0  0  0  0  0  0  # atno 17342 bound_to 10162
  140.6577  143.8564  150.6853 LP  0  0  0  0  0  0  0  0  0  0  0  0  # atno 17343 bound_to 10162
  156.3990  130.7665  151.2672 LP  0  0  0  0  0  0  0  0  0  0  0  0  # atno 17370 bound_to 10713
  157.7508  131.0245  150.3881 LP  0  0  0  0  0  0  0  0  0  0  0  0  # atno 17371 bound_to 10713
  140.6965  133.9344  155.7998 LP  0  0  0  0  0  0  0  0  0  0  0  0  # atno 17394 bound_to 11000
  141.0403  134.0631  157.3910 LP  0  0  0  0  0  0  0  0  0  0  0  0  # atno 17395 bound_to 11000

$$$$
