AV-unprocessed.smi:1907|AV-procd|sdf|7732|dock6
  -GOLD-   22720 9473D 1   1.00000     0.00000
 Structure written by MMmdl.
 31 32  0  0  0  0  0  0  0  0  2 V2000
  149.1922  142.0912  155.0703 N   0  0  0  0  0  0  0  0  0  0  0  0
  148.2460  141.1988  154.7647 C   0  0  0  0  0  0  0  0  0  0  0  0
  147.0508  141.4183  154.9514 O   0  0  0  0  0  0  0  0  0  0  0  0
  148.7054  139.8743  154.1506 C   0  0  0  0  0  0  0  0  0  0  0  0
  150.0870  139.5246  154.6228 C   0  0  0  0  0  0  0  0  0  0  0  0
  150.9566  138.6358  154.0453 C   0  0  0  0  0  0  0  0  0  0  0  0
  152.4535  138.5343  154.9274 S   0  0  0  0  0  0  0  0  0  0  0  0
  151.8544  139.7444  156.0635 C   0  0  0  0  0  0  0  0  0  0  0  0
  152.5307  140.1992  157.1326 N   0  5  0  0  0  0  0  0  0  0  0  0
  151.9875  140.9869  158.1025 C   0  0  0  0  0  0  0  0  0  0  0  0
  150.7825  141.0962  158.3265 O   0  0  0  0  0  0  0  0  0  0  0  0
  152.9831  141.7898  158.9863 C   0  0  0  0  0  0  0  0  0  0  0  0
  152.8800  141.3867  160.4768 C   0  0  0  0  0  0  0  0  0  0  0  0
  152.4529  142.6364  161.2581 C   0  0  0  0  0  0  0  0  0  0  0  0
  151.8744  143.5880  160.2152 C   0  0  0  0  0  0  0  0  0  0  0  0
  152.7129  143.3092  158.9698 C   0  0  0  0  0  0  0  0  0  0  0  0
  150.6109  140.1371  155.7650 N   0  0  0  0  0  0  0  0  0  0  0  0
  148.9370  142.9697  155.4969 H   0  0  0  0  0  0  0  0  0  0  0  0
  150.1625  141.8733  154.8922 H   0  0  0  0  0  0  0  0  0  0  0  0
  147.9994  139.0882  154.4212 H   0  0  0  0  0  0  0  0  0  0  0  0
  148.6740  139.9528  153.0629 H   0  0  0  0  0  0  0  0  0  0  0  0
  150.8057  138.0325  153.1631 H   0  0  0  0  0  0  0  0  0  0  0  0
  154.0034  141.6542  158.6271 H   0  0  0  0  0  0  0  0  0  0  0  0
  152.1467  140.5927  160.6281 H   0  0  0  0  0  0  0  0  0  0  0  0
  153.8323  141.0061  160.8478 H   0  0  0  0  0  0  0  0  0  0  0  0
  151.7421  142.4089  162.0529 H   0  0  0  0  0  0  0  0  0  0  0  0
  153.3289  143.0934  161.7200 H   0  0  0  0  0  0  0  0  0  0  0  0
  150.8296  143.3398  160.0241 H   0  0  0  0  0  0  0  0  0  0  0  0
  151.9191  144.6316  160.5272 H   0  0  0  0  0  0  0  0  0  0  0  0
  153.6608  143.8433  159.0461 H   0  0  0  0  0  0  0  0  0  0  0  0
  152.2284  143.6640  158.0590 H   0  0  0  0  0  0  0  0  0  0  0  0
  1  2  1  0  0  0  0
  1 18  1  0  0  0  0
  1 19  1  0  0  0  0
  2  3  2  0  0  0  0
  2  4  1  0  0  0  0
  4  5  1  0  0  0  0
  4 20  1  0  0  0  0
  4 21  1  0  0  0  0
  5 17  1  0  0  0  0
  5  6  2  0  0  0  0
  6  7  1  0  0  0  0
  6 22  1  0  0  0  0
  7  8  1  0  0  0  0
  8  9  1  0  0  0  0
  8 17  2  0  0  0  0
  9 10  1  0  0  0  0
 10 11  2  0  0  0  0
 10 12  1  0  0  0  0
 12 16  1  0  0  0  0
 12 13  1  0  0  0  0
 12 23  1  0  0  0  0
 13 14  1  0  0  0  0
 13 24  1  0  0  0  0
 13 25  1  0  0  0  0
 14 15  1  0  0  0  0
 14 26  1  0  0  0  0
 14 27  1  0  0  0  0
 15 16  1  0  0  0  0
 15 28  1  0  0  0  0
 15 29  1  0  0  0  0
 16 30  1  0  0  0  0
 16 31  1  0  0  0  0
M  CHG  1   9  -1
M  END
> <s_m_source_file>
AV-unprocessed.smi

> <i_m_source_file_index>
1907

> <i_lp_mmshare_version>
43012

> <i_f3d_flags>
0

> <s_epik_input>
W05IMl1DKD1PKVtDSDJdYzFbY0hdc2MobjEpW05IXUMoPU8pW0NIXTJbQ0gyXVtDSDJdW0NIMl1bQ0gyXTI=

> <s_epik_cmdline>
J2VwaWtfcHl0aG9uJywgJy1waCcsICc3LjAnLCAnLXRuJywgJzgnLCAnLW1hJywgJzIwMCcsICctbWV0YWxfYmluZGluZycsICctaW1hZScsICc8aW5maWxlLm1hZT4nLCAnLW9tYWUnLCAnPG91dGZpbGUubWFlPic=

> <r_lp_tautomer_probability>
1

> <r_epik_Ionization_Penalty>
5.3563

> <r_epik_Ionization_Penalty_Charging>
4.90463

> <r_epik_Ionization_Penalty_Neutral>
0.451677

> <r_epik_State_Penalty>
4.90447

> <r_epik_Charging_Adjusted_Penalty>
9.8091

> <i_epik_Tot_Q>
-1

> <i_epik_Tot_abs_Q>
1

> <r_epik_Metal_State_Penalty>
1.05508

> <b_epik_Metal_Only>
1

> <s_lp_Force_Field>
OPLS_2005

> <r_lp_Energy>
19.4478

> <b_lp_Chiralities_Consistent>
1

> <s_lp_Variant>
AV-unprocessed.smi:1907-2

> <Gold.Version>
5.8.1

> <Gold.Id.Protein>
6NUR|6NUR_protein|mol2

> <Gold.PLP.Fitness>
47.7265

> <Gold.PLP.PLP>
-37.3878

> <Gold.PLP.part.hbond>
-2.0000

> <Gold.PLP.part.metal>
0.0000

> <Gold.PLP.part.buried>
-3.8275

> <Gold.PLP.part.nonpolar>
-30.9863

> <Gold.PLP.part.repulsive>
0.3734

> <Gold.PLP.ligand.clash>
0.0000

> <Gold.PLP.ligand.torsion>
0.7424

> <Gold.PLP.Chemscore.Hbond>
3.0000

> <Gold.PLP.Chemscore.CHOScore>
0.9288

> <Gold.PLP.Chemscore.Metal>
0.0000

> <Gold.Chemscore.Hbonds>
donor molecule, donor type, donor heavy atom, donor atom, acceptor molecule, acceptor atom, score
      L1  H     1    18       P1  8028  1.00
      P1  H  7997  8010       L1     9  2.00
      L1  C     6    22       P1  7948  0.12
      L1  C     6    22       P1  7949  0.58

> <Gold.PLP.Chemscore.Internal.Correction>
0.0373

> <Gold.Rescore>
     Score         DG    S(hbond)    S(metal)    S(lipo)     H(rot)  DE(clash)    DE(int)     intcor
     12.46     -16.78       1.77        0.00      86.99       1.87       0.34       3.98       ----

> <Gold.Chemscore.Fitness>
12.4560

> <Gold.Chemscore.DG>
-16.7758

> <Gold.Chemscore.ZeroCoef>
-5.4800

> <Gold.Chemscore.Hbond>
1.7712

> <Gold.Chemscore.Metal>
0.0000

> <Gold.Chemscore.Lipo>
86.9943

> <Gold.Chemscore.Internal_Hbond>
0.0000

> <Gold.Chemscore.DEClash>
0.3429

> <Gold.Chemscore.DEInternal>
3.9769

> <Gold.Chemscore.Rot>
1.8743

> <Gold.Chemscore.Internal.Correction>
   9.000000E+99

> <Gold.Chemscore.Hbonds>
donor molecule, donor type, donor heavy atom, donor atom, acceptor molecule, acceptor atom, score
      L1  H     1    18       P1  8028  0.99
      P1  H  7997  8010       L1     9  0.57

> <Gold.Chemscore.Hbond.Weighted>
-5.9157

> <Gold.Chemscore.Metal.Weighted>
-0.0000

> <Gold.Chemscore.Lipo.Weighted>
-10.1783

> <Gold.Chemscore.Internal_Hbond.Weighted>
0.0000

> <Gold.Chemscore.DEClash.Weighted>
0.3429

> <Gold.Chemscore.DEInternal.Weighted>
3.9769

> <Gold.Chemscore.Rot.Weighted>
4.7982

> <Gold.Chemscore.Internal.Correction.Weighted>
   9.000000E+99

> <Gold.Protein.RotatedTorsions>
[ 6907 6896 6895 6894 ] final  179.55 input  -60.11 | X-H torsion
[ 7974 7965 7964 7962 ] final  -17.66 input  175.53 | X-H torsion
[ 8008 7997 7996 7995 ] final   55.27 input   59.86 | X-H torsion
[ 10167 10162 10161 10158 ] final -106.54 input  -65.29 | X-H torsion
[ 10718 10713 10712 10709 ] final  -82.58 input   66.30 | X-H torsion
[ 10763 10752 10751 10750 ] final   58.98 input  -60.55 | X-H torsion
[ 11005 11000 10999 10996 ] final -151.55 input  -57.11 | X-H torsion

> <Gold.Protein.ActiveResidues>
 VAL166  LYS551  ARG553  GLY616  TRP617  ASP618  TYR619  PRO620  LYS621  CYS622 
 ASP623  PHE694  ASN695  SER759  ASP760  ASP761  ALA762  ILE779  LEU786  VAL792 
 PHE793  MET794  SER795  GLU796  ALA797  LYS798  CYS799  TRP800  GLU811  SER814 

> <Gold.Protein.RotatedAtoms>
  151.6698  133.3314  159.3193 H   0  0  0  0  0  0  0  0  0  0  0  0  # atno 6907 bound_to 6896
  150.7873  134.6872  159.6486 H   0  0  0  0  0  0  0  0  0  0  0  0  # atno 6908 bound_to 6896
  152.3945  134.6391  160.0146 H   0  0  0  0  0  0  0  0  0  0  0  0  # atno 6909 bound_to 6896
  146.1930  140.3811  142.8451 H   0  0  0  0  0  0  0  0  0  0  0  0  # atno 7974 bound_to 7965
  155.4983  140.3473  155.4366 H   0  0  0  0  0  0  0  0  0  0  0  0  # atno 8008 bound_to 7997
  156.0931  140.1416  156.9594 H   0  0  0  0  0  0  0  0  0  0  0  0  # atno 8009 bound_to 7997
  154.4647  140.0922  156.6965 H   0  0  0  0  0  0  0  0  0  0  0  0  # atno 8010 bound_to 7997
  140.1866  143.3924  152.1239 H   0  0  0  0  0  0  0  0  0  0  0  0  # atno 10167 bound_to 10162
  156.0031  130.4639  150.4127 H   0  0  0  0  0  0  0  0  0  0  0  0  # atno 10718 bound_to 10713
  152.9883  135.5588  154.5639 H   0  0  0  0  0  0  0  0  0  0  0  0  # atno 10763 bound_to 10752
  154.5053  135.2799  155.1390 H   0  0  0  0  0  0  0  0  0  0  0  0  # atno 10764 bound_to 10752
  154.2803  135.6346  153.5397 H   0  0  0  0  0  0  0  0  0  0  0  0  # atno 10765 bound_to 10752
  140.7283  134.3649  157.5171 H   0  0  0  0  0  0  0  0  0  0  0  0  # atno 11005 bound_to 11000
  144.8524  140.7020  143.6160 LP  0  0  0  0  0  0  0  0  0  0  0  0  # atno 17320 bound_to 7965
  145.3733  139.1653  143.4320 LP  0  0  0  0  0  0  0  0  0  0  0  0  # atno 17321 bound_to 7965
  139.5273  144.7118  151.5182 LP  0  0  0  0  0  0  0  0  0  0  0  0  # atno 17342 bound_to 10162
  140.6484  143.8748  150.6760 LP  0  0  0  0  0  0  0  0  0  0  0  0  # atno 17343 bound_to 10162
  157.2189  131.0478  151.2558 LP  0  0  0  0  0  0  0  0  0  0  0  0  # atno 17370 bound_to 10713
  157.3819  130.7236  149.6636 LP  0  0  0  0  0  0  0  0  0  0  0  0  # atno 17371 bound_to 10713
  139.8832  134.9001  156.2782 LP  0  0  0  0  0  0  0  0  0  0  0  0  # atno 17394 bound_to 11000
  140.9943  133.7190  156.0862 LP  0  0  0  0  0  0  0  0  0  0  0  0  # atno 17395 bound_to 11000

$$$$
