AV-unprocessed.smi:2059|AV-procd|sdf|8350|dock8
  -GOLD-   2272011 23D 1   1.00000     0.00000
 Structure written by MMmdl.
 29 30  0  0  0  0  0  0  0  0  2 V2000
  145.8890  133.1861  162.1149 C   0  0  0  0  0  0  0  0  0  0  0  0
  146.6814  134.1690  161.3225 C   0  0  0  0  0  0  0  0  0  0  0  0
  146.8077  135.5275  161.3887 C   0  0  0  0  0  0  0  0  0  0  0  0
  147.7230  135.8207  160.3414 C   0  0  0  0  0  0  0  0  0  0  0  0
  148.1737  137.0435  160.0098 N   0  5  0  0  0  0  0  0  0  0  0  0
  149.2473  137.2387  159.1989 C   0  0  0  0  0  0  0  0  0  0  0  0
  149.9191  136.3179  158.7354 O   0  0  0  0  0  0  0  0  0  0  0  0
  149.5827  138.5070  158.8932 N   0  0  0  0  0  0  0  0  0  0  0  0
  150.7014  138.9242  158.0543 C   0  0  2  0  0  0  0  0  0  0  0  0
  150.6547  140.4410  157.7943 C   0  0  0  0  0  0  0  0  0  0  0  0
  151.6111  140.7732  156.6425 C   0  0  0  0  0  0  0  0  0  0  0  0
  151.6194  139.3009  155.5502 S   0  0  0  0  0  0  0  0  0  0  0  0
  150.7943  139.5652  154.3614 O   0  0  0  0  0  0  0  0  0  0  0  0
  153.0012  138.8146  155.4182 O   0  0  0  0  0  0  0  0  0  0  0  0
  150.6923  138.2103  156.6931 C   0  0  0  0  0  0  0  0  0  0  0  0
  148.1242  134.7347  159.7019 N   0  0  0  0  0  0  0  0  0  0  0  0
  147.4567  133.6716  160.3215 O   0  0  0  0  0  0  0  0  0  0  0  0
  146.3092  133.0706  163.1141 H   0  0  0  0  0  0  0  0  0  0  0  0
  145.8834  132.2070  161.6353 H   0  0  0  0  0  0  0  0  0  0  0  0
  144.8556  133.5168  162.2186 H   0  0  0  0  0  0  0  0  0  0  0  0
  146.3234  136.2051  162.0756 H   0  0  0  0  0  0  0  0  0  0  0  0
  149.0099  139.2414  159.2826 H   0  0  0  0  0  0  0  0  0  0  0  0
  151.6417  138.7013  158.5620 H   0  0  0  0  0  0  0  0  0  0  0  0
  149.6428  140.7219  157.4979 H   0  0  0  0  0  0  0  0  0  0  0  0
  150.8932  141.0139  158.6909 H   0  0  0  0  0  0  0  0  0  0  0  0
  151.3111  141.6584  156.0818 H   0  0  0  0  0  0  0  0  0  0  0  0
  152.6252  140.9214  157.0140 H   0  0  0  0  0  0  0  0  0  0  0  0
  151.1512  137.2220  156.7283 H   0  0  0  0  0  0  0  0  0  0  0  0
  149.6770  138.1081  156.3084 H   0  0  0  0  0  0  0  0  0  0  0  0
  1  2  1  0  0  0  0
  1 18  1  0  0  0  0
  1 19  1  0  0  0  0
  1 20  1  0  0  0  0
  2 17  1  0  0  0  0
  2  3  2  0  0  0  0
  3  4  1  0  0  0  0
  3 21  1  0  0  0  0
  4  5  1  0  0  0  0
  4 16  2  0  0  0  0
  5  6  1  0  0  0  0
  6  7  2  0  0  0  0
  6  8  1  0  0  0  0
  8  9  1  0  0  0  0
  8 22  1  0  0  0  0
  9 15  1  0  0  0  0
  9 10  1  0  0  0  0
  9 23  1  0  0  0  0
 10 11  1  0  0  0  0
 10 24  1  0  0  0  0
 10 25  1  0  0  0  0
 11 12  1  0  0  0  0
 11 26  1  0  0  0  0
 11 27  1  0  0  0  0
 12 13  2  0  0  0  0
 12 14  2  0  0  0  0
 12 15  1  0  0  0  0
 15 28  1  0  0  0  0
 15 29  1  0  0  0  0
 16 17  1  0  0  0  0
M  CHG  1   5  -1
M  END
> <s_m_source_file>
AV-unprocessed.smi

> <i_m_source_file_index>
2059

> <i_lp_mmshare_version>
43012

> <i_f3d_flags>
0

> <s_epik_input>
W0NIM11jMVtjSF1jKG5vMSlbTkhdQyg9TylbTkhdW0NAQEhdKFtDSDJdMilbQ0gyXVtDSDJdUzIoPU8pPU8=

> <s_epik_cmdline>
J2VwaWtfcHl0aG9uJywgJy1waCcsICc3LjAnLCAnLXRuJywgJzgnLCAnLW1hJywgJzIwMCcsICctbWV0YWxfYmluZGluZycsICctaW1hZScsICc8aW5maWxlLm1hZT4nLCAnLW9tYWUnLCAnPG91dGZpbGUubWFlPic=

> <r_lp_tautomer_probability>
1

> <r_epik_Ionization_Penalty>
6.15571

> <r_epik_Ionization_Penalty_Charging>
6.1556

> <r_epik_Ionization_Penalty_Neutral>
0.000110918

> <r_epik_State_Penalty>
6.15558

> <r_epik_Charging_Adjusted_Penalty>
12.3112

> <i_epik_Tot_Q>
-1

> <i_epik_Tot_abs_Q>
1

> <r_epik_Metal_State_Penalty>
2.1059

> <b_epik_Metal_Only>
1

> <s_lp_Force_Field>
OPLS_2005

> <r_lp_Energy>
-1.67492

> <b_lp_Chiralities_Consistent>
1

> <s_lp_Variant>
AV-unprocessed.smi:2059-3

> <Gold.Version>
5.8.1

> <Gold.Id.Protein>
6NUR|6NUR_protein|mol2

> <Gold.PLP.Fitness>
37.2631

> <Gold.PLP.PLP>
-23.9431

> <Gold.PLP.part.hbond>
-5.3075

> <Gold.PLP.part.metal>
0.0000

> <Gold.PLP.part.buried>
-3.0057

> <Gold.PLP.part.nonpolar>
-17.1659

> <Gold.PLP.part.repulsive>
0.5055

> <Gold.PLP.ligand.clash>
0.0000

> <Gold.PLP.ligand.torsion>
0.0977

> <Gold.PLP.Chemscore.Hbond>
4.5050

> <Gold.PLP.Chemscore.CHOScore>
0.0000

> <Gold.PLP.Chemscore.Metal>
0.0000

> <Gold.Chemscore.Hbonds>
donor molecule, donor type, donor heavy atom, donor atom, acceptor molecule, acceptor atom, score
      P1  H  6896  6909       L1     7  1.00
      P1  H  6931  6943       L1     5  0.10
      P1  H  6934  6947       L1     5  0.16
      P1  H  7989  7998       L1    13  1.00
      P1  H  7997  8009       L1    14  0.83

> <Gold.PLP.Chemscore.Internal.Correction>
0.0005

> <Gold.Rescore>
     Score         DG    S(hbond)    S(metal)    S(lipo)     H(rot)  DE(clash)    DE(int)     intcor
     14.19     -17.95       3.06        0.00      41.13       1.00       0.70       3.06       ----

> <Gold.Chemscore.Fitness>
14.1943

> <Gold.Chemscore.DG>
-17.9476

> <Gold.Chemscore.ZeroCoef>
-5.4800

> <Gold.Chemscore.Hbond>
3.0583

> <Gold.Chemscore.Metal>
0.0000

> <Gold.Chemscore.Lipo>
41.1348

> <Gold.Chemscore.Internal_Hbond>
0.0000

> <Gold.Chemscore.DEClash>
0.6975

> <Gold.Chemscore.DEInternal>
3.0557

> <Gold.Chemscore.Rot>
1.0000

> <Gold.Chemscore.Internal.Correction>
   9.000000E+99

> <Gold.Chemscore.Hbonds>
donor molecule, donor type, donor heavy atom, donor atom, acceptor molecule, acceptor atom, score
      P1  H  6896  6909       L1     7  0.97
      P1  H  6931  6943       L1     5  0.01
      P1  H  6934  6947       L1     5  0.09
      P1  H  7989  7998       L1    13  0.50
      P1  H  7997  8009       L1    14  0.73

> <Gold.Chemscore.Hbond.Weighted>
-10.2148

> <Gold.Chemscore.Metal.Weighted>
-0.0000

> <Gold.Chemscore.Lipo.Weighted>
-4.8128

> <Gold.Chemscore.Internal_Hbond.Weighted>
0.0000

> <Gold.Chemscore.DEClash.Weighted>
0.6975

> <Gold.Chemscore.DEInternal.Weighted>
3.0557

> <Gold.Chemscore.Rot.Weighted>
2.5600

> <Gold.Chemscore.Internal.Correction.Weighted>
   9.000000E+99

> <Gold.Protein.RotatedTorsions>
[ 6907 6896 6895 6894 ] final   62.81 input  -60.11 | X-H torsion
[ 7974 7965 7964 7962 ] final   78.12 input  175.53 | X-H torsion
[ 8008 7997 7996 7995 ] final -128.37 input   59.86 | X-H torsion
[ 10167 10162 10161 10158 ] final   -3.77 input  -65.29 | X-H torsion
[ 10718 10713 10712 10709 ] final  -10.76 input   66.30 | X-H torsion
[ 10763 10752 10751 10750 ] final  -76.64 input  -60.55 | X-H torsion
[ 11005 11000 10999 10996 ] final  140.72 input  -57.11 | X-H torsion

> <Gold.Protein.ActiveResidues>
 VAL166  LYS551  ARG553  GLY616  TRP617  ASP618  TYR619  PRO620  LYS621  CYS622 
 ASP623  PHE694  ASN695  SER759  ASP760  ASP761  ALA762  ILE779  LEU786  VAL792 
 PHE793  MET794  SER795  GLU796  ALA797  LYS798  CYS799  TRP800  GLU811  SER814 

> <Gold.Protein.RotatedAtoms>
  152.4202  134.5969  159.9989 H   0  0  0  0  0  0  0  0  0  0  0  0  # atno 6907 bound_to 6896
  151.6121  133.3340  159.3077 H   0  0  0  0  0  0  0  0  0  0  0  0  # atno 6908 bound_to 6896
  150.8090  134.7272  159.6736 H   0  0  0  0  0  0  0  0  0  0  0  0  # atno 6909 bound_to 6896
  145.6812  139.2524  143.1813 H   0  0  0  0  0  0  0  0  0  0  0  0  # atno 7974 bound_to 7965
  155.2615  140.0436  157.2998 H   0  0  0  0  0  0  0  0  0  0  0  0  # atno 8008 bound_to 7997
  154.5708  140.2373  155.8164 H   0  0  0  0  0  0  0  0  0  0  0  0  # atno 8009 bound_to 7997
  156.2121  140.2996  155.9763 H   0  0  0  0  0  0  0  0  0  0  0  0  # atno 8010 bound_to 7997
  140.6902  143.6501  150.8357 H   0  0  0  0  0  0  0  0  0  0  0  0  # atno 10167 bound_to 10162
  156.6688  130.5003  149.6007 H   0  0  0  0  0  0  0  0  0  0  0  0  # atno 10718 bound_to 10713
  154.5025  135.5791  153.6542 H   0  0  0  0  0  0  0  0  0  0  0  0  # atno 10763 bound_to 10752
  152.9881  135.6139  154.2984 H   0  0  0  0  0  0  0  0  0  0  0  0  # atno 10764 bound_to 10752
  154.2893  135.2849  155.2641 H   0  0  0  0  0  0  0  0  0  0  0  0  # atno 10765 bound_to 10752
  140.0348  134.9334  157.0731 H   0  0  0  0  0  0  0  0  0  0  0  0  # atno 11005 bound_to 11000
  146.0963  140.7597  142.9571 LP  0  0  0  0  0  0  0  0  0  0  0  0  # atno 17320 bound_to 7965
  144.7025  140.3716  143.7144 LP  0  0  0  0  0  0  0  0  0  0  0  0  # atno 17321 bound_to 7965
  140.0213  143.5539  152.2799 LP  0  0  0  0  0  0  0  0  0  0  0  0  # atno 17342 bound_to 10162
  139.6298  144.7642  151.2560 LP  0  0  0  0  0  0  0  0  0  0  0  0  # atno 17343 bound_to 10162
  156.1955  130.6586  151.1109 LP  0  0  0  0  0  0  0  0  0  0  0  0  # atno 17370 bound_to 10713
  157.7084  131.0745  150.6586 LP  0  0  0  0  0  0  0  0  0  0  0  0  # atno 17371 bound_to 10713
  140.4166  134.1925  155.7163 LP  0  0  0  0  0  0  0  0  0  0  0  0  # atno 17394 bound_to 11000
  141.1851  133.8330  157.1116 LP  0  0  0  0  0  0  0  0  0  0  0  0  # atno 17395 bound_to 11000

$$$$
