AV-unprocessed.smi:1946|AV-procd|sdf|7861|dock2
  -GOLD-   2272010 13D 1   1.00000     0.00000
 Structure written by MMmdl.
 38 40  0  0  0  0  0  0  0  0  1 V2000
  143.8929  141.0263  155.8004 C   0  0  0  0  0  0  0  0  0  0  0  0
  144.8151  142.5859  156.1119 S   0  0  0  0  0  0  0  0  0  0  0  0
  144.5022  143.5263  155.0247 O   0  0  0  0  0  0  0  0  0  0  0  0
  144.5797  142.9836  157.5087 O   0  0  0  0  0  0  0  0  0  0  0  0
  146.5287  142.1000  155.9502 C   0  0  0  0  0  0  0  0  0  0  0  0
  147.1316  142.0681  154.6772 C   0  0  0  0  0  0  0  0  0  0  0  0
  148.4901  141.7154  154.5591 C   0  0  0  0  0  0  0  0  0  0  0  0
  149.2501  141.4089  155.7104 C   0  0  0  0  0  0  0  0  0  0  0  0
  150.7150  141.0184  155.5920 C   0  0  2  0  0  0  0  0  0  0  0  0
  150.9239  139.9985  154.6338 O   0  0  0  0  0  0  0  0  0  0  0  0
  151.2894  140.5803  156.9527 C   0  0  0  0  0  0  0  0  0  0  0  0
  151.5412  141.7060  157.8338 N   0  0  0  0  0  0  0  0  0  0  0  0
  151.1508  142.9833  157.6592 C   0  0  0  0  0  0  0  0  0  0  0  0
  151.4922  143.8585  158.6012 N   0  0  0  0  0  0  0  0  0  0  0  0
  152.1849  143.0553  159.4910 C   0  0  0  0  0  0  0  0  0  0  0  0
  152.8139  143.3725  160.7163 C   0  0  0  0  0  0  0  0  0  0  0  0
  153.4699  142.3713  161.4627 C   0  0  0  0  0  0  0  0  0  0  0  0
  153.5072  141.0406  160.9976 C   0  0  0  0  0  0  0  0  0  0  0  0
  152.8871  140.7001  159.7800 C   0  0  0  0  0  0  0  0  0  0  0  0
  152.2341  141.7022  159.0386 C   0  0  0  0  0  0  0  0  0  0  0  0
  148.6377  141.4548  156.9819 C   0  0  0  0  0  0  0  0  0  0  0  0
  147.2795  141.8054  157.1051 C   0  0  0  0  0  0  0  0  0  0  0  0
  142.8225  141.2175  155.8731 H   0  0  0  0  0  0  0  0  0  0  0  0
  144.1791  140.2799  156.5411 H   0  0  0  0  0  0  0  0  0  0  0  0
  144.1281  140.6569  154.8024 H   0  0  0  0  0  0  0  0  0  0  0  0
  146.5609  142.3098  153.7927 H   0  0  0  0  0  0  0  0  0  0  0  0
  148.9471  141.6809  153.5809 H   0  0  0  0  0  0  0  0  0  0  0  0
  151.2698  141.8902  155.2422 H   0  0  0  0  0  0  0  0  0  0  0  0
  150.0829  139.7186  154.3059 H   0  0  0  0  0  0  0  0  0  0  0  0
  150.5917  139.9097  157.4560 H   0  0  0  0  0  0  0  0  0  0  0  0
  152.2174  140.0223  156.8187 H   0  0  0  0  0  0  0  0  0  0  0  0
  150.5809  143.2873  156.7932 H   0  0  0  0  0  0  0  0  0  0  0  0
  152.7917  144.3881  161.0829 H   0  0  0  0  0  0  0  0  0  0  0  0
  153.9475  142.6264  162.3974 H   0  0  0  0  0  0  0  0  0  0  0  0
  154.0125  140.2814  161.5764 H   0  0  0  0  0  0  0  0  0  0  0  0
  152.9125  139.6822  159.4200 H   0  0  0  0  0  0  0  0  0  0  0  0
  149.2085  141.2220  157.8690 H   0  0  0  0  0  0  0  0  0  0  0  0
  146.8211  141.8465  158.0822 H   0  0  0  0  0  0  0  0  0  0  0  0
  1  2  1  0  0  0  0
  1 23  1  0  0  0  0
  1 24  1  0  0  0  0
  1 25  1  0  0  0  0
  2  3  2  0  0  0  0
  2  4  2  0  0  0  0
  2  5  1  0  0  0  0
  5 22  1  0  0  0  0
  5  6  2  0  0  0  0
  6  7  1  0  0  0  0
  6 26  1  0  0  0  0
  7  8  2  0  0  0  0
  7 27  1  0  0  0  0
  8  9  1  0  0  0  0
  8 21  1  0  0  0  0
  9 10  1  0  0  0  0
  9 11  1  0  0  0  0
  9 28  1  0  0  0  0
 10 29  1  0  0  0  0
 11 12  1  0  0  0  0
 11 30  1  0  0  0  0
 11 31  1  0  0  0  0
 12 20  1  0  0  0  0
 12 13  1  0  0  0  0
 13 14  2  0  0  0  0
 13 32  1  0  0  0  0
 14 15  1  0  0  0  0
 15 20  2  0  0  0  0
 15 16  1  0  0  0  0
 16 17  2  0  0  0  0
 16 33  1  0  0  0  0
 17 18  1  0  0  0  0
 17 34  1  0  0  0  0
 18 19  2  0  0  0  0
 18 35  1  0  0  0  0
 19 20  1  0  0  0  0
 19 36  1  0  0  0  0
 21 22  2  0  0  0  0
 21 37  1  0  0  0  0
 22 38  1  0  0  0  0
M  END
> <s_m_source_file>
AV-unprocessed.smi

> <i_m_source_file_index>
1946

> <i_lp_mmshare_version>
43012

> <i_f3d_flags>
0

> <s_epik_input>
W0NIM11TKD1PKSg9TyljMVtjSF1bY0hdYyhbY0hdW2NIXTEpW0NASF0oW09IXSlbQ0gyXW4oW2NIXW4yKWMoYzIzKVtjSF1bY0hdW2NIXVtjSF0z

> <s_epik_cmdline>
J2VwaWtfcHl0aG9uJywgJy1waCcsICc3LjAnLCAnLXRuJywgJzgnLCAnLW1hJywgJzIwMCcsICctbWV0YWxfYmluZGluZycsICctaW1hZScsICc8aW5maWxlLm1hZT4nLCAnLW9tYWUnLCAnPG91dGZpbGUubWFlPic=

> <r_epik_Ionization_Penalty>
0.0696512

> <r_epik_Ionization_Penalty_Charging>
0

> <r_epik_Ionization_Penalty_Neutral>
0.0696512

> <r_epik_State_Penalty>
0.0610247

> <r_epik_Charging_Adjusted_Penalty>
0.0610247

> <i_epik_Tot_Q>
0

> <i_epik_Tot_abs_Q>
0

> <r_epik_Metal_State_Penalty>
6.42746e-05

> <b_epik_Metal_Only>
0

> <s_lp_Force_Field>
OPLS_2005

> <r_lp_Energy>
7.3467

> <b_lp_Chiralities_Consistent>
1

> <s_lp_Variant>
AV-unprocessed.smi:1946-1

> <Gold.Version>
5.8.1

> <Gold.Id.Protein>
6NUR|6NUR_protein|mol2

> <Gold.PLP.Fitness>
46.8969

> <Gold.PLP.PLP>
-41.6001

> <Gold.PLP.part.hbond>
-1.0000

> <Gold.PLP.part.metal>
0.0000

> <Gold.PLP.part.buried>
-6.0633

> <Gold.PLP.part.nonpolar>
-35.2188

> <Gold.PLP.part.repulsive>
0.2750

> <Gold.PLP.ligand.clash>
0.0000

> <Gold.PLP.ligand.torsion>
1.3935

> <Gold.PLP.Chemscore.Hbond>
1.0000

> <Gold.PLP.Chemscore.CHOScore>
1.0000

> <Gold.PLP.Chemscore.Metal>
0.0000

> <Gold.Chemscore.Hbonds>
donor molecule, donor type, donor heavy atom, donor atom, acceptor molecule, acceptor atom, score
      P1  H  7989  7998       L1    10  0.95
      L1  C    13    32       P1  8028  1.00

> <Gold.PLP.Chemscore.Internal.Correction>
2.0838

> <Gold.Rescore>
     Score         DG    S(hbond)    S(metal)    S(lipo)     H(rot)  DE(clash)    DE(int)     intcor
     12.37     -13.75       0.53        0.00      99.06       1.98       0.03       1.34       ----

> <Gold.Chemscore.Fitness>
12.3738

> <Gold.Chemscore.DG>
-13.7517

> <Gold.Chemscore.ZeroCoef>
-5.4800

> <Gold.Chemscore.Hbond>
0.5270

> <Gold.Chemscore.Metal>
0.0000

> <Gold.Chemscore.Lipo>
99.0646

> <Gold.Chemscore.Internal_Hbond>
0.0000

> <Gold.Chemscore.DEClash>
0.0348

> <Gold.Chemscore.DEInternal>
1.3431

> <Gold.Chemscore.Rot>
1.9840

> <Gold.Chemscore.Internal.Correction>
   9.000000E+99

> <Gold.Chemscore.Hbonds>
donor molecule, donor type, donor heavy atom, donor atom, acceptor molecule, acceptor atom, score
      P1  H  7989  7998       L1    10  0.14

> <Gold.Chemscore.Hbond.Weighted>
-1.7602

> <Gold.Chemscore.Metal.Weighted>
-0.0000

> <Gold.Chemscore.Lipo.Weighted>
-11.5906

> <Gold.Chemscore.Internal_Hbond.Weighted>
0.0000

> <Gold.Chemscore.DEClash.Weighted>
0.0348

> <Gold.Chemscore.DEInternal.Weighted>
1.3431

> <Gold.Chemscore.Rot.Weighted>
5.0791

> <Gold.Chemscore.Internal.Correction.Weighted>
   9.000000E+99

> <Gold.Protein.RotatedTorsions>
[ 6907 6896 6895 6894 ] final  179.37 input  -60.11 | X-H torsion
[ 7974 7965 7964 7962 ] final  105.12 input  175.53 | X-H torsion
[ 8008 7997 7996 7995 ] final -164.44 input   59.86 | X-H torsion
[ 10167 10162 10161 10158 ] final  152.99 input  -65.29 | X-H torsion
[ 10718 10713 10712 10709 ] final   -7.67 input   66.30 | X-H torsion
[ 10763 10752 10751 10750 ] final  144.39 input  -60.55 | X-H torsion
[ 11005 11000 10999 10996 ] final   64.89 input  -57.11 | X-H torsion

> <Gold.Protein.ActiveResidues>
 VAL166  LYS551  ARG553  GLY616  TRP617  ASP618  TYR619  PRO620  LYS621  CYS622 
 ASP623  PHE694  ASN695  SER759  ASP760  ASP761  ALA762  ILE779  LEU786  VAL792 
 PHE793  MET794  SER795  GLU796  ALA797  LYS798  CYS799  TRP800  GLU811  SER814 

> <Gold.Protein.RotatedAtoms>
  151.6727  133.3313  159.3200 H   0  0  0  0  0  0  0  0  0  0  0  0  # atno 6907 bound_to 6896
  150.7860  134.6849  159.6474 H   0  0  0  0  0  0  0  0  0  0  0  0  # atno 6908 bound_to 6896
  152.3930  134.6415  160.0152 H   0  0  0  0  0  0  0  0  0  0  0  0  # atno 6909 bound_to 6896
  145.3239  139.2505  143.3697 H   0  0  0  0  0  0  0  0  0  0  0  0  # atno 7974 bound_to 7965
  155.8357  140.0940  157.1766 H   0  0  0  0  0  0  0  0  0  0  0  0  # atno 8008 bound_to 7997
  154.3980  140.1410  156.3728 H   0  0  0  0  0  0  0  0  0  0  0  0  # atno 8009 bound_to 7997
  155.8119  140.3449  155.5465 H   0  0  0  0  0  0  0  0  0  0  0  0  # atno 8010 bound_to 7997
  139.4829  144.5311  151.7721 H   0  0  0  0  0  0  0  0  0  0  0  0  # atno 10167 bound_to 10162
  156.7138  130.5130  149.5885 H   0  0  0  0  0  0  0  0  0  0  0  0  # atno 10718 bound_to 10713
  153.9880  135.2935  155.3414 H   0  0  0  0  0  0  0  0  0  0  0  0  # atno 10763 bound_to 10752
  154.7231  135.5101  153.8846 H   0  0  0  0  0  0  0  0  0  0  0  0  # atno 10764 bound_to 10752
  153.0823  135.6682  154.0136 H   0  0  0  0  0  0  0  0  0  0  0  0  # atno 10765 bound_to 10752
  139.9930  134.6562  156.0059 H   0  0  0  0  0  0  0  0  0  0  0  0  # atno 11005 bound_to 11000
  146.3072  140.3802  142.8683 LP  0  0  0  0  0  0  0  0  0  0  0  0  # atno 17320 bound_to 7965
  144.8918  140.7533  143.5922 LP  0  0  0  0  0  0  0  0  0  0  0  0  # atno 17321 bound_to 7965
  140.4837  144.1412  150.5937 LP  0  0  0  0  0  0  0  0  0  0  0  0  # atno 17342 bound_to 10162
  140.4249  143.2594  151.9669 LP  0  0  0  0  0  0  0  0  0  0  0  0  # atno 17343 bound_to 10162
  156.1642  130.6394  151.0758 LP  0  0  0  0  0  0  0  0  0  0  0  0  # atno 17370 bound_to 10713
  157.6925  131.0805  150.7064 LP  0  0  0  0  0  0  0  0  0  0  0  0  # atno 17371 bound_to 10713
  141.1581  133.6541  156.4228 LP  0  0  0  0  0  0  0  0  0  0  0  0  # atno 17394 bound_to 11000
  140.4872  134.6609  157.5196 LP  0  0  0  0  0  0  0  0  0  0  0  0  # atno 17395 bound_to 11000

$$$$
