AV-unprocessed.smi:759|AV-procd|sdf|3624|dock9
  -GOLD-   22720 1 13D 1   1.00000     0.00000
 Structure written by MMmdl.
 24 25  0  0  0  0  0  0  0  0  2 V2000
  151.7976  138.2333  158.3767 C   0  0  0  0  0  0  0  0  0  0  0  0
  152.7137  138.4948  157.4434 N   0  0  0  0  0  0  0  0  0  0  0  0
  152.7645  139.8776  157.3743 N   0  0  0  0  0  0  0  0  0  0  0  0
  151.8719  140.3177  158.2708 C   0  0  0  0  0  0  0  0  0  0  0  0
  151.5756  141.7597  158.5485 C   0  0  1  0  0  0  0  0  0  0  0  0
  152.8136  142.5150  159.0698 C   0  0  0  0  0  0  0  0  0  0  0  0
  152.4768  143.9927  159.3234 C   0  0  0  0  0  0  0  0  0  0  0  0
  151.8730  144.6426  158.0675 C   0  0  0  0  0  0  0  0  0  0  0  0
  150.6844  143.8903  157.6102 N   0  3  0  0  0  0  0  0  0  0  0  0
  150.9765  142.4697  157.3166 C   0  0  0  0  0  0  0  0  0  0  0  0
  151.2460  139.3242  158.9210 N   0  0  0  0  0  0  0  0  0  0  0  0
  150.5390  139.3815  159.6397 H   0  0  0  0  0  0  0  0  0  0  0  0
  151.5250  137.2292  158.6668 H   0  0  0  0  0  0  0  0  0  0  0  0
  150.8221  141.7863  159.3380 H   0  0  0  0  0  0  0  0  0  0  0  0
  153.1795  142.0537  159.9880 H   0  0  0  0  0  0  0  0  0  0  0  0
  153.6249  142.4484  158.3435 H   0  0  0  0  0  0  0  0  0  0  0  0
  151.7720  144.0716  160.1522 H   0  0  0  0  0  0  0  0  0  0  0  0
  153.3740  144.5325  159.6280 H   0  0  0  0  0  0  0  0  0  0  0  0
  151.5834  145.6728  158.2761 H   0  0  0  0  0  0  0  0  0  0  0  0
  152.6100  144.6744  157.2638 H   0  0  0  0  0  0  0  0  0  0  0  0
  149.9807  143.9318  158.3334 H   0  0  0  0  0  0  0  0  0  0  0  0
  151.6644  142.4188  156.4713 H   0  0  0  0  0  0  0  0  0  0  0  0
  150.0538  141.9784  157.0060 H   0  0  0  0  0  0  0  0  0  0  0  0
  150.3205  144.3285  156.7759 H   0  0  0  0  0  0  0  0  0  0  0  0
  1 11  1  0  0  0  0
  1  2  2  0  0  0  0
  1 13  1  0  0  0  0
  2  3  1  0  0  0  0
  3  4  2  0  0  0  0
  4  5  1  0  0  0  0
  4 11  1  0  0  0  0
  5 10  1  0  0  0  0
  5  6  1  0  0  0  0
  5 14  1  0  0  0  0
  6  7  1  0  0  0  0
  6 15  1  0  0  0  0
  6 16  1  0  0  0  0
  7  8  1  0  0  0  0
  7 17  1  0  0  0  0
  7 18  1  0  0  0  0
  8  9  1  0  0  0  0
  8 19  1  0  0  0  0
  8 20  1  0  0  0  0
  9 10  1  0  0  0  0
  9 21  1  0  0  0  0
  9 24  1  0  0  0  0
 10 22  1  0  0  0  0
 10 23  1  0  0  0  0
 11 12  1  0  0  0  0
M  CHG  1   9   1
M  END
> <s_m_source_file>
AV-unprocessed.smi

> <i_m_source_file_index>
759

> <i_lp_mmshare_version>
43012

> <i_f3d_flags>
0

> <s_epik_input>
W25IXTFbY0hdbm5jMVtDQEBIXTJbQ0gyXVtDSDJdW0NIMl1bTkhdW0NIMl0y

> <s_epik_cmdline>
J2VwaWtfcHl0aG9uJywgJy1waCcsICc3LjAnLCAnLXRuJywgJzgnLCAnLW1hJywgJzIwMCcsICctbWV0YWxfYmluZGluZycsICctaW1hZScsICc8aW5maWxlLm1hZT4nLCAnLW9tYWUnLCAnPG91dGZpbGUubWFlPic=

> <r_lp_tautomer_probability>
0.0517155

> <r_epik_Ionization_Penalty>
0.0333069

> <r_epik_Ionization_Penalty_Charging>
0.000426856

> <r_epik_Ionization_Penalty_Neutral>
0.03288

> <r_epik_State_Penalty>
2.11054

> <r_epik_Charging_Adjusted_Penalty>
2.11097

> <i_epik_Tot_Q>
1

> <i_epik_Tot_abs_Q>
1

> <r_epik_Metal_State_Penalty>
2.37626

> <b_epik_Metal_Only>
0

> <s_lp_Force_Field>
OPLS_2005

> <r_lp_Energy>
13.742

> <b_lp_Chiralities_Consistent>
1

> <s_lp_Variant>
AV-unprocessed.smi:759-6

> <Gold.Version>
5.8.1

> <Gold.Id.Protein>
6NUR|6NUR_protein|mol2

> <Gold.PLP.Fitness>
32.1996

> <Gold.PLP.PLP>
-23.2049

> <Gold.PLP.part.hbond>
-2.0000

> <Gold.PLP.part.metal>
0.0000

> <Gold.PLP.part.buried>
-3.0831

> <Gold.PLP.part.nonpolar>
-17.9757

> <Gold.PLP.part.repulsive>
0.1767

> <Gold.PLP.ligand.clash>
0.0000

> <Gold.PLP.ligand.torsion>
0.0165

> <Gold.PLP.Chemscore.Hbond>
3.0000

> <Gold.PLP.Chemscore.CHOScore>
0.0000

> <Gold.PLP.Chemscore.Metal>
0.0000

> <Gold.Chemscore.Hbonds>
donor molecule, donor type, donor heavy atom, donor atom, acceptor molecule, acceptor atom, score
      L1  H     9    24       P1  8028  2.00
      P1  H  7997  8010       L1     3  1.00

> <Gold.PLP.Chemscore.Internal.Correction>
0.0278

> <Gold.Rescore>
     Score         DG    S(hbond)    S(metal)    S(lipo)     H(rot)  DE(clash)    DE(int)     intcor
     15.39     -15.41       1.82        0.00      54.81       1.00       0.00       0.01       ----

> <Gold.Chemscore.Fitness>
15.3927

> <Gold.Chemscore.DG>
-15.4085

> <Gold.Chemscore.ZeroCoef>
-5.4800

> <Gold.Chemscore.Hbond>
1.8191

> <Gold.Chemscore.Metal>
0.0000

> <Gold.Chemscore.Lipo>
54.8106

> <Gold.Chemscore.Internal_Hbond>
0.0000

> <Gold.Chemscore.DEClash>
0.0015

> <Gold.Chemscore.DEInternal>
0.0143

> <Gold.Chemscore.Rot>
1.0000

> <Gold.Chemscore.Internal.Correction>
   9.000000E+99

> <Gold.Chemscore.Hbonds>
donor molecule, donor type, donor heavy atom, donor atom, acceptor molecule, acceptor atom, score
      L1  H     9    24       P1  8028  0.91
      P1  H  7997  8010       L1     3  0.25

> <Gold.Chemscore.Hbond.Weighted>
-6.0757

> <Gold.Chemscore.Metal.Weighted>
-0.0000

> <Gold.Chemscore.Lipo.Weighted>
-6.4128

> <Gold.Chemscore.Internal_Hbond.Weighted>
0.0000

> <Gold.Chemscore.DEClash.Weighted>
0.0015

> <Gold.Chemscore.DEInternal.Weighted>
0.0143

> <Gold.Chemscore.Rot.Weighted>
2.5600

> <Gold.Chemscore.Internal.Correction.Weighted>
   9.000000E+99

> <Gold.Protein.RotatedTorsions>
[ 6907 6896 6895 6894 ] final   15.31 input  -60.11 | X-H torsion
[ 7974 7965 7964 7962 ] final -154.48 input  175.53 | X-H torsion
[ 8008 7997 7996 7995 ] final   64.15 input   59.86 | X-H torsion
[ 10167 10162 10161 10158 ] final -121.18 input  -65.29 | X-H torsion
[ 10718 10713 10712 10709 ] final -142.10 input   66.30 | X-H torsion
[ 10763 10752 10751 10750 ] final -144.16 input  -60.55 | X-H torsion
[ 11005 11000 10999 10996 ] final  -93.81 input  -57.11 | X-H torsion

> <Gold.Protein.ActiveResidues>
 VAL166  LYS551  ARG553  GLY616  TRP617  ASP618  TYR619  PRO620  LYS621  CYS622 
 ASP623  PHE694  ASN695  SER759  ASP760  ASP761  ALA762  ILE779  LEU786  VAL792 
 PHE793  MET794  SER795  GLU796  ALA797  LYS798  CYS799  TRP800  GLU811  SER814 

> <Gold.Protein.RotatedAtoms>
  151.8161  135.0666  160.0418 H   0  0  0  0  0  0  0  0  0  0  0  0  # atno 6907 bound_to 6896
  152.2985  133.5627  159.5611 H   0  0  0  0  0  0  0  0  0  0  0  0  # atno 6908 bound_to 6896
  150.7262  134.0242  159.3753 H   0  0  0  0  0  0  0  0  0  0  0  0  # atno 6909 bound_to 6896
  144.7687  140.4383  143.5923 H   0  0  0  0  0  0  0  0  0  0  0  0  # atno 7974 bound_to 7965
  155.6415  140.3497  155.4716 H   0  0  0  0  0  0  0  0  0  0  0  0  # atno 8008 bound_to 7997
  155.9922  140.1196  157.0651 H   0  0  0  0  0  0  0  0  0  0  0  0  # atno 8009 bound_to 7997
  154.4222  140.1117  156.5567 H   0  0  0  0  0  0  0  0  0  0  0  0  # atno 8010 bound_to 7997
  140.0278  143.5278  152.2190 H   0  0  0  0  0  0  0  0  0  0  0  0  # atno 10167 bound_to 10162
  156.3419  130.7642  151.1780 H   0  0  0  0  0  0  0  0  0  0  0  0  # atno 10718 bound_to 10713
  154.8440  135.3448  154.6301 H   0  0  0  0  0  0  0  0  0  0  0  0  # atno 10763 bound_to 10752
  153.6911  135.6975  153.5094 H   0  0  0  0  0  0  0  0  0  0  0  0  # atno 10764 bound_to 10752
  153.2594  135.4327  155.0834 H   0  0  0  0  0  0  0  0  0  0  0  0  # atno 10765 bound_to 10752
  141.1487  133.7913  157.0211 H   0  0  0  0  0  0  0  0  0  0  0  0  # atno 11005 bound_to 11000
  145.6389  139.1547  143.2927 LP  0  0  0  0  0  0  0  0  0  0  0  0  # atno 17320 bound_to 7965
  146.1817  140.6487  142.9186 LP  0  0  0  0  0  0  0  0  0  0  0  0  # atno 17321 bound_to 7965
  139.6096  144.7605  151.2982 LP  0  0  0  0  0  0  0  0  0  0  0  0  # atno 17342 bound_to 10162
  140.7315  143.6850  150.7969 LP  0  0  0  0  0  0  0  0  0  0  0  0  # atno 17343 bound_to 10162
  157.7448  131.0452  150.4831 LP  0  0  0  0  0  0  0  0  0  0  0  0  # atno 17370 bound_to 10713
  156.5012  130.4117  149.6352 LP  0  0  0  0  0  0  0  0  0  0  0  0  # atno 17371 bound_to 10713
  140.0815  134.9645  157.1632 LP  0  0  0  0  0  0  0  0  0  0  0  0  # atno 17394 bound_to 11000
  140.3570  134.2536  155.7191 LP  0  0  0  0  0  0  0  0  0  0  0  0  # atno 17395 bound_to 11000

$$$$
