AV-unprocessed.smi:2784|AV-procd|sdf|10739|dock1
  -GOLD-   2272015173D 1   1.00000     0.00000
 Structure written by MMmdl.
 31 32  0  0  0  0  0  0  0  0  1 V2000
  149.0110  141.3790  154.3759 C   0  0  0  0  0  0  0  0  0  0  0  0
  150.0917  140.4900  154.1447 O   0  0  0  0  0  0  0  0  0  0  0  0
  150.1475  139.4020  155.0637 C   0  0  1  0  0  0  0  0  0  0  0  0
  150.7996  138.2348  154.3194 C   0  0  0  0  0  0  0  0  0  0  0  0
  152.2976  138.4949  154.4465 C   0  0  0  0  0  0  0  0  0  0  0  0
  152.4679  139.0714  155.8536 C   0  0  0  0  0  0  0  0  0  0  0  0
  151.1128  139.6989  156.2367 C   0  0  1  0  0  0  0  0  0  0  0  0
  151.2592  141.1267  156.5155 N   0  0  0  0  0  0  0  0  0  0  0  0
  151.1708  141.6984  157.7255 C   0  0  0  0  0  0  0  0  0  0  0  0
  150.9449  141.0298  158.7391 O   0  0  0  0  0  0  0  0  0  0  0  0
  151.3566  143.0688  157.6161 N   0  0  0  0  0  0  0  0  0  0  0  0
  151.4639  143.7915  158.6881 C   0  0  0  0  0  0  0  0  0  0  0  0
  151.6514  145.1622  158.7677 N   0  0  0  0  0  0  0  0  0  0  0  0
  151.7128  145.5077  160.0894 C   0  0  0  0  0  0  0  0  0  0  0  0
  151.5686  144.4016  160.8133 C   0  0  0  0  0  0  0  0  0  0  0  0
  151.4135  143.3319  159.9842 O   0  0  0  0  0  0  0  0  0  0  0  0
  149.0482  142.1955  153.6549 H   0  0  0  0  0  0  0  0  0  0  0  0
  149.0554  141.8110  155.3759 H   0  0  0  0  0  0  0  0  0  0  0  0
  148.0539  140.8692  154.2583 H   0  0  0  0  0  0  0  0  0  0  0  0
  149.1544  139.1224  155.4210 H   0  0  0  0  0  0  0  0  0  0  0  0
  150.5508  137.2974  154.8190 H   0  0  0  0  0  0  0  0  0  0  0  0
  150.4703  138.1547  153.2827 H   0  0  0  0  0  0  0  0  0  0  0  0
  152.8957  137.5974  154.2855 H   0  0  0  0  0  0  0  0  0  0  0  0
  152.6041  139.2356  153.7066 H   0  0  0  0  0  0  0  0  0  0  0  0
  152.7049  138.2686  156.5533 H   0  0  0  0  0  0  0  0  0  0  0  0
  153.2955  139.7812  155.8914 H   0  0  0  0  0  0  0  0  0  0  0  0
  150.7541  139.1841  157.1300 H   0  0  0  0  0  0  0  0  0  0  0  0
  151.4344  141.7271  155.7228 H   0  0  0  0  0  0  0  0  0  0  0  0
  151.7339  145.8268  158.0119 H   0  0  0  0  0  0  0  0  0  0  0  0
  151.8571  146.5383  160.3787 H   0  0  0  0  0  0  0  0  0  0  0  0
  151.5544  144.2174  161.8774 H   0  0  0  0  0  0  0  0  0  0  0  0
  1  2  1  0  0  0  0
  1 17  1  0  0  0  0
  1 18  1  0  0  0  0
  1 19  1  0  0  0  0
  2  3  1  0  0  0  0
  3  7  1  0  0  0  0
  3  4  1  0  0  0  0
  3 20  1  0  0  0  0
  4  5  1  0  0  0  0
  4 21  1  0  0  0  0
  4 22  1  0  0  0  0
  5  6  1  0  0  0  0
  5 23  1  0  0  0  0
  5 24  1  0  0  0  0
  6  7  1  0  0  0  0
  6 25  1  0  0  0  0
  6 26  1  0  0  0  0
  7  8  1  0  0  0  0
  7 27  1  0  0  0  0
  8 28  1  0  0  0  0
  8  9  1  0  0  0  0
  9 11  1  0  0  0  0
  9 10  2  0  0  0  0
 11 12  2  0  0  0  0
 12 16  1  0  0  0  0
 12 13  1  0  0  0  0
 13 29  1  0  0  0  0
 13 14  1  0  0  0  0
 14 30  1  0  0  0  0
 14 15  2  0  0  0  0
 15 31  1  0  0  0  0
 15 16  1  0  0  0  0
M  END
> <s_m_source_file>
AV-unprocessed.smi

> <i_m_source_file_index>
2784

> <i_lp_mmshare_version>
43012

> <i_f3d_flags>
0

> <s_epik_input>
W0NIM11PW0NAQEhdMVtDSDJdW0NIMl1bQ0gyXVtDQEhdMVtOSF1DKD1PKVtOSF1jMm5bY0hdW2NIXW8y

> <s_epik_cmdline>
J2VwaWtfcHl0aG9uJywgJy1waCcsICc3LjAnLCAnLXRuJywgJzgnLCAnLW1hJywgJzIwMCcsICctbWV0YWxfYmluZGluZycsICctaW1hZScsICc8aW5maWxlLm1hZT4nLCAnLW9tYWUnLCAnPG91dGZpbGUubWFlPic=

> <r_lp_tautomer_probability>
0.107061

> <r_epik_Ionization_Penalty>
1.29244

> <r_epik_Ionization_Penalty_Charging>
1.29208

> <r_epik_Ionization_Penalty_Neutral>
0.000359742

> <r_epik_State_Penalty>
2.59896

> <r_epik_Charging_Adjusted_Penalty>
3.89105

> <i_epik_Tot_Q>
0

> <i_epik_Tot_abs_Q>
0

> <r_epik_Metal_State_Penalty>
3.62496

> <b_epik_Metal_Only>
0

> <s_lp_Force_Field>
OPLS_2005

> <r_lp_Energy>
45.4074

> <b_lp_Chiralities_Consistent>
1

> <s_lp_Variant>
AV-unprocessed.smi:2784-14

> <Gold.Version>
5.8.1

> <Gold.Id.Protein>
6NUR|6NUR_protein|mol2

> <Gold.PLP.Fitness>
34.7784

> <Gold.PLP.PLP>
-33.4130

> <Gold.PLP.part.hbond>
-1.0000

> <Gold.PLP.part.metal>
0.0000

> <Gold.PLP.part.buried>
-5.4655

> <Gold.PLP.part.nonpolar>
-26.8374

> <Gold.PLP.part.repulsive>
0.8568

> <Gold.PLP.ligand.clash>
0.0000

> <Gold.PLP.ligand.torsion>
0.5473

> <Gold.PLP.Chemscore.Hbond>
0.8160

> <Gold.PLP.Chemscore.CHOScore>
0.0000

> <Gold.PLP.Chemscore.Metal>
0.0000

> <Gold.Chemscore.Hbonds>
donor molecule, donor type, donor heavy atom, donor atom, acceptor molecule, acceptor atom, score
      P1  H  7989  7998       L1     2  0.80

> <Gold.PLP.Chemscore.Internal.Correction>
0.0120

> <Gold.Rescore>
     Score         DG    S(hbond)    S(metal)    S(lipo)     H(rot)  DE(clash)    DE(int)     intcor
     10.63     -12.79       0.86        0.00      66.87       1.32       0.11       2.05       ----

> <Gold.Chemscore.Fitness>
10.6260

> <Gold.Chemscore.DG>
-12.7925

> <Gold.Chemscore.ZeroCoef>
-5.4800

> <Gold.Chemscore.Hbond>
0.8613

> <Gold.Chemscore.Metal>
0.0000

> <Gold.Chemscore.Lipo>
66.8705

> <Gold.Chemscore.Internal_Hbond>
0.0000

> <Gold.Chemscore.DEClash>
0.1132

> <Gold.Chemscore.DEInternal>
2.0533

> <Gold.Chemscore.Rot>
1.3235

> <Gold.Chemscore.Internal.Correction>
   9.000000E+99

> <Gold.Chemscore.Hbonds>
donor molecule, donor type, donor heavy atom, donor atom, acceptor molecule, acceptor atom, score
      P1  H  7989  7998       L1     2  0.68

> <Gold.Chemscore.Hbond.Weighted>
-2.8768

> <Gold.Chemscore.Metal.Weighted>
-0.0000

> <Gold.Chemscore.Lipo.Weighted>
-7.8238

> <Gold.Chemscore.Internal_Hbond.Weighted>
0.0000

> <Gold.Chemscore.DEClash.Weighted>
0.1132

> <Gold.Chemscore.DEInternal.Weighted>
2.0533

> <Gold.Chemscore.Rot.Weighted>
3.3882

> <Gold.Chemscore.Internal.Correction.Weighted>
   9.000000E+99

> <Gold.Protein.RotatedTorsions>
[ 6907 6896 6895 6894 ] final  142.42 input  -60.11 | X-H torsion
[ 7974 7965 7964 7962 ] final  -70.90 input  175.53 | X-H torsion
[ 8008 7997 7996 7995 ] final   43.30 input   59.86 | X-H torsion
[ 10167 10162 10161 10158 ] final -149.72 input  -65.29 | X-H torsion
[ 10718 10713 10712 10709 ] final -179.58 input   66.30 | X-H torsion
[ 10763 10752 10751 10750 ] final  142.62 input  -60.55 | X-H torsion
[ 11005 11000 10999 10996 ] final  174.50 input  -57.11 | X-H torsion

> <Gold.Protein.ActiveResidues>
 VAL166  LYS551  ARG553  GLY616  TRP617  ASP618  TYR619  PRO620  LYS621  CYS622 
 ASP623  PHE694  ASN695  SER759  ASP760  ASP761  ALA762  ILE779  LEU786  VAL792 
 PHE793  MET794  SER795  GLU796  ALA797  LYS798  CYS799  TRP800  GLU811  SER814 

> <Gold.Protein.RotatedAtoms>
  152.2190  133.4969  159.5151 H   0  0  0  0  0  0  0  0  0  0  0  0  # atno 6907 bound_to 6896
  150.7008  134.1368  159.4099 H   0  0  0  0  0  0  0  0  0  0  0  0  # atno 6908 bound_to 6896
  151.9288  135.0265  160.0578 H   0  0  0  0  0  0  0  0  0  0  0  0  # atno 6909 bound_to 6896
  145.6850  140.9174  143.0812 H   0  0  0  0  0  0  0  0  0  0  0  0  # atno 7974 bound_to 7965
  155.3004  140.3384  155.4248 H   0  0  0  0  0  0  0  0  0  0  0  0  # atno 8008 bound_to 7997
  156.2004  140.1730  156.7951 H   0  0  0  0  0  0  0  0  0  0  0  0  # atno 8009 bound_to 7997
  154.5552  140.0698  156.8715 H   0  0  0  0  0  0  0  0  0  0  0  0  # atno 8010 bound_to 7997
  139.7417  143.8651  152.2564 H   0  0  0  0  0  0  0  0  0  0  0  0  # atno 10167 bound_to 10162
  156.8613  130.9752  151.3083 H   0  0  0  0  0  0  0  0  0  0  0  0  # atno 10718 bound_to 10713
  153.9588  135.2962  155.3434 H   0  0  0  0  0  0  0  0  0  0  0  0  # atno 10763 bound_to 10752
  154.7386  135.5035  153.9087 H   0  0  0  0  0  0  0  0  0  0  0  0  # atno 10764 bound_to 10752
  153.0957  135.6720  153.9878 H   0  0  0  0  0  0  0  0  0  0  0  0  # atno 10765 bound_to 10752
  140.3520  134.7186  157.4274 H   0  0  0  0  0  0  0  0  0  0  0  0  # atno 11005 bound_to 11000
  144.7014  139.8747  143.7443 LP  0  0  0  0  0  0  0  0  0  0  0  0  # atno 17320 bound_to 7965
  146.0931  139.3922  143.0393 LP  0  0  0  0  0  0  0  0  0  0  0  0  # atno 17321 bound_to 7965
  139.8604  144.7120  150.9106 LP  0  0  0  0  0  0  0  0  0  0  0  0  # atno 17342 bound_to 10162
  140.7787  143.3822  151.1456 LP  0  0  0  0  0  0  0  0  0  0  0  0  # atno 17343 bound_to 10162
  157.6248  130.8683  149.9171 LP  0  0  0  0  0  0  0  0  0  0  0  0  # atno 17370 bound_to 10713
  156.0775  130.3677  150.0647 LP  0  0  0  0  0  0  0  0  0  0  0  0  # atno 17371 bound_to 10713
  140.0695  134.5882  155.8658 LP  0  0  0  0  0  0  0  0  0  0  0  0  # atno 17394 bound_to 11000
  141.2009  133.6615  156.5922 LP  0  0  0  0  0  0  0  0  0  0  0  0  # atno 17395 bound_to 11000

$$$$
