AV-unprocessed.smi:1237|AV-procd|sdf|5183|dock6
  -GOLD-   22720 4263D 1   1.00000     0.00000
 Structure written by MMmdl.
 44 45  0  0  0  0  0  0  0  0  1 V2000
  153.2434  138.6737  154.5514 C   0  0  0  0  0  0  0  0  0  0  0  0
  152.4349  137.5111  154.5217 O   0  0  0  0  0  0  0  0  0  0  0  0
  151.0752  137.8015  154.2401 C   0  0  0  0  0  0  0  0  0  0  0  0
  150.1810  137.1496  155.3076 C   0  0  0  0  0  0  0  0  0  0  0  0
  150.2096  135.6852  155.2223 N   0  0  0  0  0  0  0  0  0  0  0  0
  149.1113  135.1370  154.5810 N   0  0  0  0  0  0  0  0  0  0  0  0
  149.0016  133.8534  154.4608 C   0  0  0  0  0  0  0  0  0  0  0  0
  147.8316  133.2246  153.7875 C   0  0  0  0  0  0  0  0  0  0  0  0
  147.3732  132.1421  154.1570 O   0  0  0  0  0  0  0  0  0  0  0  0
  147.3162  133.9235  152.7593 N   0  0  0  0  0  0  0  0  0  0  0  0
  146.1732  133.5227  151.9411 C   0  0  0  0  0  0  0  0  0  0  0  0
  146.4841  132.1382  151.3329 C   0  0  0  0  0  0  0  0  0  0  0  0
  145.5975  131.6671  150.1656 C   0  0  0  0  0  0  0  0  0  0  0  0
  144.1211  132.0887  150.2289 C   0  0  0  0  0  0  0  0  0  0  0  0
  143.8796  133.4866  149.6349 C   0  0  0  0  0  0  0  0  0  0  0  0
  144.3542  134.6510  150.5162 C   0  0  0  0  0  0  0  0  0  0  0  0
  145.8436  134.6193  150.9045 C   0  0  0  0  0  0  0  0  0  0  0  0
  150.0268  132.9670  154.9857 C   0  0  0  0  0  0  0  0  0  0  0  0
  151.0937  133.5165  155.6065 C   0  0  0  0  0  0  0  0  0  0  0  0
  151.2384  134.9647  155.7622 C   0  0  0  0  0  0  0  0  0  0  0  0
  152.1959  135.4880  156.3317 O   0  0  0  0  0  0  0  0  0  0  0  0
  154.2756  138.3967  154.7656 H   0  0  0  0  0  0  0  0  0  0  0  0
  152.9115  139.3651  155.3270 H   0  0  0  0  0  0  0  0  0  0  0  0
  153.2266  139.1900  153.5908 H   0  0  0  0  0  0  0  0  0  0  0  0
  150.9248  138.8818  154.2501 H   0  0  0  0  0  0  0  0  0  0  0  0
  150.8070  137.4473  153.2434 H   0  0  0  0  0  0  0  0  0  0  0  0
  150.4969  137.4788  156.2992 H   0  0  0  0  0  0  0  0  0  0  0  0
  149.1562  137.5086  155.1983 H   0  0  0  0  0  0  0  0  0  0  0  0
  147.7531  134.8038  152.5263 H   0  0  0  0  0  0  0  0  0  0  0  0
  145.3135  133.4053  152.6036 H   0  0  0  0  0  0  0  0  0  0  0  0
  147.5200  132.1091  150.9914 H   0  0  0  0  0  0  0  0  0  0  0  0
  146.4246  131.4009  152.1347 H   0  0  0  0  0  0  0  0  0  0  0  0
  146.0284  132.0097  149.2240 H   0  0  0  0  0  0  0  0  0  0  0  0
  145.6528  130.5788  150.1231 H   0  0  0  0  0  0  0  0  0  0  0  0
  143.5434  131.3766  149.6385 H   0  0  0  0  0  0  0  0  0  0  0  0
  143.7326  132.0160  151.2454 H   0  0  0  0  0  0  0  0  0  0  0  0
  144.3452  133.5564  148.6511 H   0  0  0  0  0  0  0  0  0  0  0  0
  142.8099  133.6092  149.4612 H   0  0  0  0  0  0  0  0  0  0  0  0
  144.1562  135.5808  149.9818 H   0  0  0  0  0  0  0  0  0  0  0  0
  143.7437  134.6977  151.4186 H   0  0  0  0  0  0  0  0  0  0  0  0
  146.0784  135.5965  151.3293 H   0  0  0  0  0  0  0  0  0  0  0  0
  146.4762  134.5229  150.0211 H   0  0  0  0  0  0  0  0  0  0  0  0
  149.9458  131.8943  154.8853 H   0  0  0  0  0  0  0  0  0  0  0  0
  151.8631  132.8695  156.0013 H   0  0  0  0  0  0  0  0  0  0  0  0
  1  2  1  0  0  0  0
  1 22  1  0  0  0  0
  1 23  1  0  0  0  0
  1 24  1  0  0  0  0
  2  3  1  0  0  0  0
  3  4  1  0  0  0  0
  3 25  1  0  0  0  0
  3 26  1  0  0  0  0
  4  5  1  0  0  0  0
  4 27  1  0  0  0  0
  4 28  1  0  0  0  0
  5 20  1  0  0  0  0
  5  6  1  0  0  0  0
  6  7  2  0  0  0  0
  7  8  1  0  0  0  0
  7 18  1  0  0  0  0
  8  9  2  0  0  0  0
  8 10  1  0  0  0  0
 10 11  1  0  0  0  0
 10 29  1  0  0  0  0
 11 17  1  0  0  0  0
 11 12  1  0  0  0  0
 11 30  1  0  0  0  0
 12 13  1  0  0  0  0
 12 31  1  0  0  0  0
 12 32  1  0  0  0  0
 13 14  1  0  0  0  0
 13 33  1  0  0  0  0
 13 34  1  0  0  0  0
 14 15  1  0  0  0  0
 14 35  1  0  0  0  0
 14 36  1  0  0  0  0
 15 16  1  0  0  0  0
 15 37  1  0  0  0  0
 15 38  1  0  0  0  0
 16 17  1  0  0  0  0
 16 39  1  0  0  0  0
 16 40  1  0  0  0  0
 17 41  1  0  0  0  0
 17 42  1  0  0  0  0
 18 19  2  0  0  0  0
 18 43  1  0  0  0  0
 19 20  1  0  0  0  0
 19 44  1  0  0  0  0
 20 21  2  0  0  0  0
M  END
> <s_m_source_file>
AV-unprocessed.smi

> <i_m_source_file_index>
1237

> <i_lp_mmshare_version>
43012

> <i_f3d_flags>
0

> <s_epik_input>
W0NIM11PW0NIMl1bQ0gyXW4xbmMoW2NIXVtjSF1jMT1PKUMoPU8pW05IXVtDSF0yW0NIMl1bQ0gyXVtDSDJdW0NIMl1bQ0gyXVtDSDJdMg==

> <s_epik_cmdline>
J2VwaWtfcHl0aG9uJywgJy1waCcsICc3LjAnLCAnLXRuJywgJzgnLCAnLW1hJywgJzIwMCcsICctbWV0YWxfYmluZGluZycsICctaW1hZScsICc8aW5maWxlLm1hZT4nLCAnLW9tYWUnLCAnPG91dGZpbGUubWFlPic=

> <r_lp_tautomer_probability>
1

> <r_epik_Ionization_Penalty>
5.81787e-07

> <r_epik_Ionization_Penalty_Charging>
6.75108e-09

> <r_epik_Ionization_Penalty_Neutral>
5.75036e-07

> <r_epik_State_Penalty>
-0

> <r_epik_Charging_Adjusted_Penalty>
6.75108e-09

> <i_epik_Tot_Q>
0

> <i_epik_Tot_abs_Q>
0

> <r_epik_Metal_State_Penalty>
-0

> <b_epik_Metal_Only>
0

> <s_lp_Force_Field>
OPLS_2005

> <r_lp_Energy>
36.1796

> <b_lp_Chiralities_Consistent>
1

> <s_lp_Variant>
AV-unprocessed.smi:1237-1

> <Gold.Version>
5.8.1

> <Gold.Id.Protein>
6NUR|6NUR_protein|mol2

> <Gold.PLP.Fitness>
40.9402

> <Gold.PLP.PLP>
-36.8538

> <Gold.PLP.part.hbond>
-3.0000

> <Gold.PLP.part.metal>
0.0000

> <Gold.PLP.part.buried>
-2.0370

> <Gold.PLP.part.nonpolar>
-32.7612

> <Gold.PLP.part.repulsive>
1.3269

> <Gold.PLP.ligand.clash>
0.0000

> <Gold.PLP.ligand.torsion>
1.1320

> <Gold.PLP.Chemscore.Hbond>
2.0973

> <Gold.PLP.Chemscore.CHOScore>
0.0000

> <Gold.PLP.Chemscore.Metal>
0.0000

> <Gold.Chemscore.Hbonds>
donor molecule, donor type, donor heavy atom, donor atom, acceptor molecule, acceptor atom, score
      L1  H    10    29       P1  7948  1.00
      P1  H 10752 10763       L1     2  0.22
      P1  H 10752 10764       L1    21  0.94

> <Gold.PLP.Chemscore.Internal.Correction>
0.0584

> <Gold.Rescore>
     Score         DG    S(hbond)    S(metal)    S(lipo)     H(rot)  DE(clash)    DE(int)     intcor
     13.16     -17.19       1.39        0.00      94.39       1.55       1.36       2.67       ----

> <Gold.Chemscore.Fitness>
13.1581

> <Gold.Chemscore.DG>
-17.1875

> <Gold.Chemscore.ZeroCoef>
-5.4800

> <Gold.Chemscore.Hbond>
1.3851

> <Gold.Chemscore.Metal>
0.0000

> <Gold.Chemscore.Lipo>
94.3895

> <Gold.Chemscore.Internal_Hbond>
0.0000

> <Gold.Chemscore.DEClash>
1.3583

> <Gold.Chemscore.DEInternal>
2.6711

> <Gold.Chemscore.Rot>
1.5478

> <Gold.Chemscore.Internal.Correction>
   9.000000E+99

> <Gold.Chemscore.Hbonds>
donor molecule, donor type, donor heavy atom, donor atom, acceptor molecule, acceptor atom, score
      L1  H    10    29       P1  7948  0.87
      P1  H 10752 10763       L1     2  0.19
      P1  H 10752 10764       L1    21  0.55

> <Gold.Chemscore.Hbond.Weighted>
-4.6262

> <Gold.Chemscore.Metal.Weighted>
-0.0000

> <Gold.Chemscore.Lipo.Weighted>
-11.0436

> <Gold.Chemscore.Internal_Hbond.Weighted>
0.0000

> <Gold.Chemscore.DEClash.Weighted>
1.3583

> <Gold.Chemscore.DEInternal.Weighted>
2.6711

> <Gold.Chemscore.Rot.Weighted>
3.9623

> <Gold.Chemscore.Internal.Correction.Weighted>
   9.000000E+99

> <Gold.Protein.RotatedTorsions>
[ 6907 6896 6895 6894 ] final -122.93 input  -60.11 | X-H torsion
[ 7974 7965 7964 7962 ] final   40.14 input  175.53 | X-H torsion
[ 8008 7997 7996 7995 ] final   16.92 input   59.86 | X-H torsion
[ 10167 10162 10161 10158 ] final   29.53 input  -65.29 | X-H torsion
[ 10718 10713 10712 10709 ] final   82.28 input   66.30 | X-H torsion
[ 10763 10752 10751 10750 ] final   -1.69 input  -60.55 | X-H torsion
[ 11005 11000 10999 10996 ] final   24.95 input  -57.11 | X-H torsion

> <Gold.Protein.ActiveResidues>
 VAL166  LYS551  ARG553  GLY616  TRP617  ASP618  TYR619  PRO620  LYS621  CYS622 
 ASP623  PHE694  ASN695  SER759  ASP760  ASP761  ALA762  ILE779  LEU786  VAL792 
 PHE793  MET794  SER795  GLU796  ALA797  LYS798  CYS799  TRP800  GLU811  SER814 

> <Gold.Protein.RotatedAtoms>
  150.8622  133.7626  159.2988 H   0  0  0  0  0  0  0  0  0  0  0  0  # atno 6907 bound_to 6896
  151.5265  135.1066  159.9901 H   0  0  0  0  0  0  0  0  0  0  0  0  # atno 6908 bound_to 6896
  152.4635  133.7828  159.6916 H   0  0  0  0  0  0  0  0  0  0  0  0  # atno 6909 bound_to 6896
  146.0929  139.5568  142.9464 H   0  0  0  0  0  0  0  0  0  0  0  0  # atno 7974 bound_to 7965
  154.8839  140.2977  155.5409 H   0  0  0  0  0  0  0  0  0  0  0  0  # atno 8008 bound_to 7997
  156.3022  140.2437  156.3780 H   0  0  0  0  0  0  0  0  0  0  0  0  # atno 8009 bound_to 7997
  154.8688  140.0402  157.1700 H   0  0  0  0  0  0  0  0  0  0  0  0  # atno 8010 bound_to 7997
  140.4758  144.0693  150.6250 H   0  0  0  0  0  0  0  0  0  0  0  0  # atno 10167 bound_to 10162
  157.6853  131.0041  150.2352 H   0  0  0  0  0  0  0  0  0  0  0  0  # atno 10718 bound_to 10713
  153.3481  135.6984  153.6811 H   0  0  0  0  0  0  0  0  0  0  0  0  # atno 10763 bound_to 10752
  153.5548  135.3546  155.2775 H   0  0  0  0  0  0  0  0  0  0  0  0  # atno 10764 bound_to 10752
  154.8648  135.4235  154.2711 H   0  0  0  0  0  0  0  0  0  0  0  0  # atno 10765 bound_to 10752
  140.3531  134.2206  155.7678 H   0  0  0  0  0  0  0  0  0  0  0  0  # atno 11005 bound_to 11000
  145.6005  141.0356  143.2021 LP  0  0  0  0  0  0  0  0  0  0  0  0  # atno 17320 bound_to 7965
  144.7373  139.7548  143.7324 LP  0  0  0  0  0  0  0  0  0  0  0  0  # atno 17321 bound_to 7965
  140.3920  143.2747  152.0049 LP  0  0  0  0  0  0  0  0  0  0  0  0  # atno 17342 bound_to 10162
  139.4825  144.6069  151.7505 LP  0  0  0  0  0  0  0  0  0  0  0  0  # atno 17343 bound_to 10162
  156.2977  130.3754  149.7780 LP  0  0  0  0  0  0  0  0  0  0  0  0  # atno 17370 bound_to 10713
  156.5420  130.8304  151.3272 LP  0  0  0  0  0  0  0  0  0  0  0  0  # atno 17371 bound_to 10713
  141.2006  133.7983  157.0481 LP  0  0  0  0  0  0  0  0  0  0  0  0  # atno 17394 bound_to 11000
  140.0686  134.9715  157.1429 LP  0  0  0  0  0  0  0  0  0  0  0  0  # atno 17395 bound_to 11000

$$$$
