AV-unprocessed.smi:244|AV-procd|sdf|1865|dock1
  -GOLD-   2262020503D 1   1.00000     0.00000
 Structure written by MMmdl.
 57 61  0  0  0  0  0  0  0  0  2 V2000
  153.1783  144.3078  158.3861 C   0  0  0  0  0  0  0  0  0  0  0  0
  152.1496  143.6821  159.2491 N   0  3  2  0  0  0  0  0  0  0  0  0
  152.5104  143.6693  160.6905 C   0  0  0  0  0  0  0  0  0  0  0  0
  153.5451  142.5775  161.0201 C   0  0  0  0  0  0  0  0  0  0  0  0
  153.0464  141.2053  160.5514 C   0  0  2  0  0  0  0  0  0  0  0  0
  154.0408  140.2213  160.8129 O   0  0  0  0  0  0  0  0  0  0  0  0
  153.5952  138.9160  160.4597 C   0  0  0  0  0  0  0  0  0  0  0  0
  153.2834  138.8745  158.9553 C   0  0  0  0  0  0  0  0  0  0  0  0
  152.3101  139.9074  158.6072 N   0  0  0  0  0  0  0  0  0  0  0  0
  151.8949  139.8316  157.3220 C   0  0  0  0  0  0  0  0  0  0  0  0
  152.7193  139.3311  156.3644 N   0  0  0  0  0  0  0  0  0  0  0  0
  152.3089  139.2787  155.0933 C   0  0  0  0  0  0  0  0  0  0  0  0
  151.1435  139.6733  154.5751 N   0  0  0  0  0  0  0  0  0  0  0  0
  150.3188  140.1815  155.5356 C   0  0  0  0  0  0  0  0  0  0  0  0
  150.6162  140.2991  156.9214 C   0  0  0  0  0  0  0  0  0  0  0  0
  149.5485  140.8781  157.5940 N   0  0  0  0  0  0  0  0  0  0  0  0
  148.6640  141.0876  156.6571 C   0  0  0  0  0  0  0  0  0  0  0  0
  149.0399  140.6904  155.3927 N   0  0  0  0  0  0  0  0  0  0  0  0
  148.2535  140.8019  154.1737 C   0  0  0  0  0  0  0  0  0  0  0  0
  147.7580  139.4440  153.6160 C   0  0  0  0  0  0  0  0  0  0  0  0
  148.8963  138.6400  153.3597 O   0  0  0  0  0  0  0  0  0  0  0  0
  146.8430  138.6916  154.6072 C   0  0  0  0  0  0  0  0  0  0  0  0
  146.1873  137.4551  153.9675 C   0  0  0  0  0  0  0  0  0  0  0  0
  145.4845  137.8283  152.7886 O   0  0  0  0  0  0  0  0  0  0  0  0
  146.3407  138.3589  151.7846 C   0  0  0  0  0  0  0  0  0  0  0  0
  147.0026  139.6540  152.2882 C   0  0  0  0  0  0  0  0  0  0  0  0
  152.7362  141.2412  159.0390 C   0  0  1  0  0  0  0  0  0  0  0  0
  151.6928  142.3546  158.7607 C   0  0  0  0  0  0  0  0  0  0  0  0
  154.1067  143.7369  158.3796 H   0  0  0  0  0  0  0  0  0  0  0  0
  153.4043  145.3171  158.7312 H   0  0  0  0  0  0  0  0  0  0  0  0
  152.8209  144.3842  157.3587 H   0  0  0  0  0  0  0  0  0  0  0  0
  152.8781  144.6502  160.9940 H   0  0  0  0  0  0  0  0  0  0  0  0
  151.6019  143.4914  161.2676 H   0  0  0  0  0  0  0  0  0  0  0  0
  154.5008  142.8082  160.5485 H   0  0  0  0  0  0  0  0  0  0  0  0
  153.7303  142.5575  162.0944 H   0  0  0  0  0  0  0  0  0  0  0  0
  152.1428  140.9531  161.1108 H   0  0  0  0  0  0  0  0  0  0  0  0
  154.3760  138.1953  160.7023 H   0  0  0  0  0  0  0  0  0  0  0  0
  152.7170  138.6446  161.0477 H   0  0  0  0  0  0  0  0  0  0  0  0
  154.2053  139.0256  158.3916 H   0  0  0  0  0  0  0  0  0  0  0  0
  152.8955  137.8918  158.6825 H   0  0  0  0  0  0  0  0  0  0  0  0
  153.0151  138.8625  154.3899 H   0  0  0  0  0  0  0  0  0  0  0  0
  147.7025  141.5349  156.8644 H   0  0  0  0  0  0  0  0  0  0  0  0
  147.4026  141.4514  154.3837 H   0  0  0  0  0  0  0  0  0  0  0  0
  148.8531  141.3227  153.4254 H   0  0  0  0  0  0  0  0  0  0  0  0
  148.6055  137.7992  153.0411 H   0  0  0  0  0  0  0  0  0  0  0  0
  147.3971  138.3893  155.4965 H   0  0  0  0  0  0  0  0  0  0  0  0
  146.0551  139.3639  154.9494 H   0  0  0  0  0  0  0  0  0  0  0  0
  146.9312  136.6915  153.7353 H   0  0  0  0  0  0  0  0  0  0  0  0
  145.4833  137.0046  154.6674 H   0  0  0  0  0  0  0  0  0  0  0  0
  147.0893  137.6181  151.4996 H   0  0  0  0  0  0  0  0  0  0  0  0
  145.7483  138.5661  150.8934 H   0  0  0  0  0  0  0  0  0  0  0  0
  146.2238  140.4044  152.4313 H   0  0  0  0  0  0  0  0  0  0  0  0
  147.6729  140.0526  151.5254 H   0  0  0  0  0  0  0  0  0  0  0  0
  153.6552  141.4771  158.5003 H   0  0  0  0  0  0  0  0  0  0  0  0
  150.7525  142.1096  159.2566 H   0  0  0  0  0  0  0  0  0  0  0  0
  151.4669  142.4349  157.6967 H   0  0  0  0  0  0  0  0  0  0  0  0
  151.3471  144.2912  159.1748 H   0  0  0  0  0  0  0  0  0  0  0  0
  1  2  1  0  0  0  0
  1 29  1  0  0  0  0
  1 30  1  0  0  0  0
  1 31  1  0  0  0  0
  2 28  1  0  0  0  0
  2  3  1  0  0  0  0
  2 57  1  0  0  0  0
  3  4  1  0  0  0  0
  3 32  1  0  0  0  0
  3 33  1  0  0  0  0
  4  5  1  0  0  0  0
  4 34  1  0  0  0  0
  4 35  1  0  0  0  0
  5 27  1  0  0  0  0
  5  6  1  0  0  0  0
  5 36  1  0  0  0  0
  6  7  1  0  0  0  0
  7  8  1  0  0  0  0
  7 37  1  0  0  0  0
  7 38  1  0  0  0  0
  8  9  1  0  0  0  0
  8 39  1  0  0  0  0
  8 40  1  0  0  0  0
  9 10  1  0  0  0  0
  9 27  1  0  0  0  0
 10 15  1  0  0  0  0
 10 11  2  0  0  0  0
 11 12  1  0  0  0  0
 12 13  2  0  0  0  0
 12 41  1  0  0  0  0
 13 14  1  0  0  0  0
 14 18  1  0  0  0  0
 14 15  2  0  0  0  0
 15 16  1  0  0  0  0
 16 17  2  0  0  0  0
 17 18  1  0  0  0  0
 17 42  1  0  0  0  0
 18 19  1  0  0  0  0
 19 20  1  0  0  0  0
 19 43  1  0  0  0  0
 19 44  1  0  0  0  0
 20 26  1  0  0  0  0
 20 21  1  0  0  0  0
 20 22  1  0  0  0  0
 21 45  1  0  0  0  0
 22 23  1  0  0  0  0
 22 46  1  0  0  0  0
 22 47  1  0  0  0  0
 23 24  1  0  0  0  0
 23 48  1  0  0  0  0
 23 49  1  0  0  0  0
 24 25  1  0  0  0  0
 25 26  1  0  0  0  0
 25 50  1  0  0  0  0
 25 51  1  0  0  0  0
 26 52  1  0  0  0  0
 26 53  1  0  0  0  0
 27 28  1  0  0  0  0
 27 54  1  0  0  0  0
 28 55  1  0  0  0  0
 28 56  1  0  0  0  0
M  CHG  1   2   1
M  END
> <s_m_source_file>
AV-unprocessed.smi

> <i_m_source_file_index>
244

> <i_lp_mmshare_version>
43012

> <i_f3d_flags>
0

> <s_epik_input>
W0NIMl0xW0NIMl1OKFtDSDNdKVtDSDJdW0NAQEhdKFtDQEhdMTIpTihbQ0gyXVtDSDJdTzIpYyhuW2NIXW4zKWMoYzM0KW5bY0hdbjRbQ0gyXUM1KFtPSF0pW0NIMl1bQ0gyXU9bQ0gyXVtDSDJdNQ==

> <s_epik_cmdline>
J2VwaWtfcHl0aG9uJywgJy1waCcsICc3LjAnLCAnLXRuJywgJzgnLCAnLW1hJywgJzIwMCcsICctbWV0YWxfYmluZGluZycsICctaW1hZScsICc8aW5maWxlLm1hZT4nLCAnLW9tYWUnLCAnPG91dGZpbGUubWFlPic=

> <r_lp_tautomer_probability>
1

> <r_epik_Ionization_Penalty>
0.0136215

> <r_epik_Ionization_Penalty_Charging>
0.0131385

> <r_epik_Ionization_Penalty_Neutral>
0.000483022

> <r_epik_State_Penalty>
0.0104001

> <r_epik_Charging_Adjusted_Penalty>
0.0235387

> <i_epik_Tot_Q>
1

> <i_epik_Tot_abs_Q>
1

> <r_epik_Metal_State_Penalty>
0.0104469

> <b_epik_Metal_Only>
0

> <s_lp_Force_Field>
OPLS_2005

> <r_lp_Energy>
43.138

> <b_lp_Chiralities_Consistent>
1

> <s_lp_Variant>
AV-unprocessed.smi:244-2

> <Gold.Version>
5.8.1

> <Gold.Id.Protein>
6NUR|6NUR_protein|mol2

> <Gold.PLP.Fitness>
53.2755

> <Gold.PLP.PLP>
-46.8297

> <Gold.PLP.part.hbond>
-4.0000

> <Gold.PLP.part.metal>
0.0000

> <Gold.PLP.part.buried>
-1.5683

> <Gold.PLP.part.nonpolar>
-41.4872

> <Gold.PLP.part.repulsive>
0.4052

> <Gold.PLP.ligand.clash>
1.2932

> <Gold.PLP.ligand.torsion>
0.7110

> <Gold.PLP.Chemscore.Hbond>
3.0000

> <Gold.PLP.Chemscore.CHOScore>
0.0000

> <Gold.PLP.Chemscore.Metal>
0.0000

> <Gold.Chemscore.Hbonds>
donor molecule, donor type, donor heavy atom, donor atom, acceptor molecule, acceptor atom, score
      L1  H    21    45       P1  7948  0.93
      P1  H  7989  7998       L1    13  1.00
      P1  H  7997  8008       L1    11  1.00

> <Gold.PLP.Chemscore.Internal.Correction>
0.1609

> <Gold.Rescore>
     Score         DG    S(hbond)    S(metal)    S(lipo)     H(rot)  DE(clash)    DE(int)     intcor
     14.69     -20.32       1.87        0.00     119.17       2.09       1.76       3.87       ----

> <Gold.Chemscore.Fitness>
14.6864

> <Gold.Chemscore.DG>
-20.3167

> <Gold.Chemscore.ZeroCoef>
-5.4800

> <Gold.Chemscore.Hbond>
1.8703

> <Gold.Chemscore.Metal>
0.0000

> <Gold.Chemscore.Lipo>
119.1707

> <Gold.Chemscore.Internal_Hbond>
0.0000

> <Gold.Chemscore.DEClash>
1.7640

> <Gold.Chemscore.DEInternal>
3.8662

> <Gold.Chemscore.Rot>
2.0911

> <Gold.Chemscore.Internal.Correction>
   9.000000E+99

> <Gold.Chemscore.Hbonds>
donor molecule, donor type, donor heavy atom, donor atom, acceptor molecule, acceptor atom, score
      L1  H    21    45       P1  7948  0.88
      P1  H  7989  7998       L1    13  0.25
      P1  H  7997  8008       L1    11  0.32

> <Gold.Chemscore.Hbond.Weighted>
-6.2468

> <Gold.Chemscore.Metal.Weighted>
-0.0000

> <Gold.Chemscore.Lipo.Weighted>
-13.9430

> <Gold.Chemscore.Internal_Hbond.Weighted>
0.0000

> <Gold.Chemscore.DEClash.Weighted>
1.7640

> <Gold.Chemscore.DEInternal.Weighted>
3.8662

> <Gold.Chemscore.Rot.Weighted>
5.3531

> <Gold.Chemscore.Internal.Correction.Weighted>
   9.000000E+99

> <Gold.Protein.RotatedTorsions>
[ 6907 6896 6895 6894 ] final  -55.10 input  -60.11 | X-H torsion
[ 7974 7965 7964 7962 ] final   -1.42 input  175.53 | X-H torsion
[ 8008 7997 7996 7995 ] final  -34.68 input   59.86 | X-H torsion
[ 10167 10162 10161 10158 ] final  132.39 input  -65.29 | X-H torsion
[ 10718 10713 10712 10709 ] final  -36.24 input   66.30 | X-H torsion
[ 10763 10752 10751 10750 ] final -153.63 input  -60.55 | X-H torsion
[ 11005 11000 10999 10996 ] final  106.98 input  -57.11 | X-H torsion

> <Gold.Protein.ActiveResidues>
 VAL166  LYS551  ARG553  GLY616  TRP617  ASP618  TYR619  PRO620  LYS621  CYS622 
 ASP623  PHE694  ASN695  SER759  ASP760  ASP761  ALA762  ILE779  LEU786  VAL792 
 PHE793  MET794  SER795  GLU796  ALA797  LYS798  CYS799  TRP800  GLU811  SER814 

> <Gold.Protein.RotatedAtoms>
  150.8280  134.7521  159.6829 H   0  0  0  0  0  0  0  0  0  0  0  0  # atno 6907 bound_to 6896
  152.4389  134.5628  159.9909 H   0  0  0  0  0  0  0  0  0  0  0  0  # atno 6908 bound_to 6896
  151.5795  133.3342  159.3041 H   0  0  0  0  0  0  0  0  0  0  0  0  # atno 6909 bound_to 6896
  146.2417  140.1418  142.8335 H   0  0  0  0  0  0  0  0  0  0  0  0  # atno 7974 bound_to 7965
  154.4114  140.1677  156.2089 H   0  0  0  0  0  0  0  0  0  0  0  0  # atno 8008 bound_to 7997
  155.9461  140.3404  155.6345 H   0  0  0  0  0  0  0  0  0  0  0  0  # atno 8009 bound_to 7997
  155.6928  140.0736  157.2432 H   0  0  0  0  0  0  0  0  0  0  0  0  # atno 8010 bound_to 7997
  139.5342  144.6664  151.4845 H   0  0  0  0  0  0  0  0  0  0  0  0  # atno 10167 bound_to 10162
  156.3292  130.4277  149.7888 H   0  0  0  0  0  0  0  0  0  0  0  0  # atno 10718 bound_to 10713
  154.7915  135.3208  154.7767 H   0  0  0  0  0  0  0  0  0  0  0  0  # atno 10763 bound_to 10752
  153.8455  135.6867  153.4802 H   0  0  0  0  0  0  0  0  0  0  0  0  # atno 10764 bound_to 10752
  153.1587  135.4670  154.9681 H   0  0  0  0  0  0  0  0  0  0  0  0  # atno 10765 bound_to 10752
  139.8821  134.9386  156.5749 H   0  0  0  0  0  0  0  0  0  0  0  0  # atno 11005 bound_to 11000
  145.0240  140.8817  143.5149 LP  0  0  0  0  0  0  0  0  0  0  0  0  # atno 17320 bound_to 7965
  145.1471  139.2537  143.5460 LP  0  0  0  0  0  0  0  0  0  0  0  0  # atno 17321 bound_to 7965
  140.6538  143.8641  150.6813 LP  0  0  0  0  0  0  0  0  0  0  0  0  # atno 17342 bound_to 10162
  140.2014  143.3956  152.1788 LP  0  0  0  0  0  0  0  0  0  0  0  0  # atno 17343 bound_to 10162
  156.5167  130.8197  151.3189 LP  0  0  0  0  0  0  0  0  0  0  0  0  # atno 17370 bound_to 10713
  157.7427  130.9896  150.2536 LP  0  0  0  0  0  0  0  0  0  0  0  0  # atno 17371 bound_to 10713
  140.8071  133.8459  155.8777 LP  0  0  0  0  0  0  0  0  0  0  0  0  # atno 17394 bound_to 11000
  140.9540  134.1741  157.4706 LP  0  0  0  0  0  0  0  0  0  0  0  0  # atno 17395 bound_to 11000

$$$$
