AV-unprocessed.smi:444|AV-procd|sdf|2588|dock6
  -GOLD-   2262022583D 1   1.00000     0.00000
 Structure written by MMmdl.
 45 46  0  0  0  0  0  0  0  0  1 V2000
  151.0421  144.5494  159.9533 C   0  0  0  0  0  0  0  0  0  0  0  0
  151.9297  143.3223  159.9920 C   0  0  0  0  0  0  0  0  0  0  0  0
  152.7529  143.0751  161.1073 C   0  0  0  0  0  0  0  0  0  0  0  0
  153.5751  141.9344  161.1342 C   0  0  0  0  0  0  0  0  0  0  0  0
  153.5799  141.0348  160.0480 C   0  0  0  0  0  0  0  0  0  0  0  0
  154.4727  139.8090  160.0939 C   0  0  0  0  0  0  0  0  0  0  0  0
  152.7576  141.2704  158.9217 C   0  0  0  0  0  0  0  0  0  0  0  0
  152.8084  140.3497  157.8952 O   0  0  0  0  0  0  0  0  0  0  0  0
  151.6508  140.1601  157.0924 C   0  0  0  0  0  0  0  0  0  0  0  0
  151.9036  138.9868  156.1304 C   0  0  1  0  0  0  0  0  0  0  0  0
  151.4054  137.8209  156.7575 O   0  0  0  0  0  0  0  0  0  0  0  0
  151.1598  139.1729  154.7891 C   0  0  0  0  0  0  0  0  0  0  0  0
  149.7284  138.8681  154.9091 N   0  0  0  0  0  0  0  0  0  0  0  0
  149.4563  137.5340  155.1433 N   0  0  0  0  0  0  0  0  0  0  0  0
  148.2447  137.1103  155.2951 C   0  0  0  0  0  0  0  0  0  0  0  0
  148.0698  135.6367  155.5457 C   0  0  0  0  0  0  0  0  0  0  0  0
  147.1340  138.0537  155.2185 C   0  0  0  0  0  0  0  0  0  0  0  0
  145.7289  137.4978  155.4071 C   0  0  0  0  0  0  0  0  0  0  0  0
  147.4137  139.3600  154.9823 C   0  0  0  0  0  0  0  0  0  0  0  0
  146.3928  140.3531  154.8867 C   0  0  0  0  0  0  0  0  0  0  0  0
  145.5799  141.1738  154.8118 N   0  0  0  0  0  0  0  0  0  0  0  0
  148.7842  139.8469  154.8086 C   0  0  0  0  0  0  0  0  0  0  0  0
  149.0693  141.0259  154.5937 O   0  0  0  0  0  0  0  0  0  0  0  0
  151.9339  142.4252  158.9048 C   0  0  0  0  0  0  0  0  0  0  0  0
  150.9676  145.0161  160.9360 H   0  0  0  0  0  0  0  0  0  0  0  0
  150.0360  144.2821  159.6291 H   0  0  0  0  0  0  0  0  0  0  0  0
  151.4449  145.2832  159.2550 H   0  0  0  0  0  0  0  0  0  0  0  0
  152.7576  143.7575  161.9447 H   0  0  0  0  0  0  0  0  0  0  0  0
  154.2029  141.7528  161.9943 H   0  0  0  0  0  0  0  0  0  0  0  0
  153.8706  138.9013  160.0443 H   0  0  0  0  0  0  0  0  0  0  0  0
  155.0608  139.7756  161.0116 H   0  0  0  0  0  0  0  0  0  0  0  0
  155.1622  139.8110  159.2493 H   0  0  0  0  0  0  0  0  0  0  0  0
  150.7609  139.9797  157.6987 H   0  0  0  0  0  0  0  0  0  0  0  0
  151.4849  141.0733  156.5190 H   0  0  0  0  0  0  0  0  0  0  0  0
  152.9754  138.8858  155.9541 H   0  0  0  0  0  0  0  0  0  0  0  0
  150.7939  138.0777  157.4307 H   0  0  0  0  0  0  0  0  0  0  0  0
  151.3385  140.1677  154.3763 H   0  0  0  0  0  0  0  0  0  0  0  0
  151.5771  138.4886  154.0480 H   0  0  0  0  0  0  0  0  0  0  0  0
  147.4351  135.1866  154.7822 H   0  0  0  0  0  0  0  0  0  0  0  0
  147.6068  135.4623  156.5172 H   0  0  0  0  0  0  0  0  0  0  0  0
  149.0230  135.1057  155.5352 H   0  0  0  0  0  0  0  0  0  0  0  0
  144.9689  138.2783  155.3792 H   0  0  0  0  0  0  0  0  0  0  0  0
  145.6410  136.9933  156.3698 H   0  0  0  0  0  0  0  0  0  0  0  0
  145.4931  136.7812  154.6197 H   0  0  0  0  0  0  0  0  0  0  0  0
  151.2934  142.6452  158.0645 H   0  0  0  0  0  0  0  0  0  0  0  0
  1  2  1  0  0  0  0
  1 25  1  0  0  0  0
  1 26  1  0  0  0  0
  1 27  1  0  0  0  0
  2 24  1  0  0  0  0
  2  3  2  0  0  0  0
  3  4  1  0  0  0  0
  3 28  1  0  0  0  0
  4  5  2  0  0  0  0
  4 29  1  0  0  0  0
  5  6  1  0  0  0  0
  5  7  1  0  0  0  0
  6 30  1  0  0  0  0
  6 31  1  0  0  0  0
  6 32  1  0  0  0  0
  7  8  1  0  0  0  0
  7 24  2  0  0  0  0
  8  9  1  0  0  0  0
  9 10  1  0  0  0  0
  9 33  1  0  0  0  0
  9 34  1  0  0  0  0
 10 11  1  0  0  0  0
 10 12  1  0  0  0  0
 10 35  1  0  0  0  0
 11 36  1  0  0  0  0
 12 13  1  0  0  0  0
 12 37  1  0  0  0  0
 12 38  1  0  0  0  0
 13 22  1  0  0  0  0
 13 14  1  0  0  0  0
 14 15  2  0  0  0  0
 15 16  1  0  0  0  0
 15 17  1  0  0  0  0
 16 39  1  0  0  0  0
 16 40  1  0  0  0  0
 16 41  1  0  0  0  0
 17 18  1  0  0  0  0
 17 19  2  0  0  0  0
 18 42  1  0  0  0  0
 18 43  1  0  0  0  0
 18 44  1  0  0  0  0
 19 20  1  0  0  0  0
 19 22  1  0  0  0  0
 20 21  3  0  0  0  0
 22 23  2  0  0  0  0
 24 45  1  0  0  0  0
M  END
> <s_m_source_file>
AV-unprocessed.smi

> <i_m_source_file_index>
444

> <i_lp_mmshare_version>
43012

> <i_f3d_flags>
0

> <s_epik_input>
W0NIM11jMVtjSF1bY0hdYyhbQ0gzXSljKFtjSF0xKU9bQ0gyXVtDQEhdKFtPSF0pW0NIMl1uMm5jKFtDSDNdKWMoW0NIM10pYyhDI04pYzI9Tw==

> <s_epik_cmdline>
J2VwaWtfcHl0aG9uJywgJy1waCcsICc3LjAnLCAnLXRuJywgJzgnLCAnLW1hJywgJzIwMCcsICctbWV0YWxfYmluZGluZycsICctaW1hZScsICc8aW5maWxlLm1hZT4nLCAnLW9tYWUnLCAnPG91dGZpbGUubWFlPic=

> <r_lp_tautomer_probability>
1

> <r_epik_Ionization_Penalty>
1.17331e-07

> <r_epik_Ionization_Penalty_Charging>
1.57223e-10

> <r_epik_Ionization_Penalty_Neutral>
1.17174e-07

> <r_epik_State_Penalty>
-0

> <r_epik_Charging_Adjusted_Penalty>
1.57223e-10

> <i_epik_Tot_Q>
0

> <i_epik_Tot_abs_Q>
0

> <r_epik_Metal_State_Penalty>
-0

> <b_epik_Metal_Only>
0

> <s_lp_Force_Field>
OPLS_2005

> <r_lp_Energy>
32.4142

> <b_lp_Chiralities_Consistent>
1

> <s_lp_Variant>
AV-unprocessed.smi:444-2

> <Gold.Version>
5.8.1

> <Gold.Id.Protein>
6NUR|6NUR_protein|mol2

> <Gold.PLP.Fitness>
47.7487

> <Gold.PLP.PLP>
-44.1287

> <Gold.PLP.part.hbond>
-3.0000

> <Gold.PLP.part.metal>
0.0000

> <Gold.PLP.part.buried>
-2.0902

> <Gold.PLP.part.nonpolar>
-38.4003

> <Gold.PLP.part.repulsive>
0.5561

> <Gold.PLP.ligand.clash>
0.0000

> <Gold.PLP.ligand.torsion>
1.0352

> <Gold.PLP.Chemscore.Hbond>
1.8799

> <Gold.PLP.Chemscore.CHOScore>
0.0000

> <Gold.PLP.Chemscore.Metal>
0.0000

> <Gold.Chemscore.Hbonds>
donor molecule, donor type, donor heavy atom, donor atom, acceptor molecule, acceptor atom, score
      P1  H  7997  8009       L1     8  0.91

> <Gold.PLP.Chemscore.Internal.Correction>
0.0507

> <Gold.Rescore>
     Score         DG    S(hbond)    S(metal)    S(lipo)     H(rot)  DE(clash)    DE(int)     intcor
     14.80     -18.45       1.64        0.00     114.12       2.29       0.81       2.84       ----

> <Gold.Chemscore.Fitness>
14.7999

> <Gold.Chemscore.DG>
-18.4504

> <Gold.Chemscore.ZeroCoef>
-5.4800

> <Gold.Chemscore.Hbond>
1.6412

> <Gold.Chemscore.Metal>
0.0000

> <Gold.Chemscore.Lipo>
114.1236

> <Gold.Chemscore.Internal_Hbond>
0.0000

> <Gold.Chemscore.DEClash>
0.8057

> <Gold.Chemscore.DEInternal>
2.8449

> <Gold.Chemscore.Rot>
2.2905

> <Gold.Chemscore.Internal.Correction>
   9.000000E+99

> <Gold.Chemscore.Hbonds>
donor molecule, donor type, donor heavy atom, donor atom, acceptor molecule, acceptor atom, score
      P1  H  7997  8009       L1     8  0.68

> <Gold.Chemscore.Hbond.Weighted>
-5.4816

> <Gold.Chemscore.Metal.Weighted>
-0.0000

> <Gold.Chemscore.Lipo.Weighted>
-13.3525

> <Gold.Chemscore.Internal_Hbond.Weighted>
0.0000

> <Gold.Chemscore.DEClash.Weighted>
0.8057

> <Gold.Chemscore.DEInternal.Weighted>
2.8449

> <Gold.Chemscore.Rot.Weighted>
5.8636

> <Gold.Chemscore.Internal.Correction.Weighted>
   9.000000E+99

> <Gold.Protein.RotatedTorsions>
[ 6907 6896 6895 6894 ] final   23.80 input  -60.11 | X-H torsion
[ 7974 7965 7964 7962 ] final -147.05 input  175.53 | X-H torsion
[ 8008 7997 7996 7995 ] final  167.89 input   59.86 | X-H torsion
[ 10167 10162 10161 10158 ] final   52.52 input  -65.29 | X-H torsion
[ 10718 10713 10712 10709 ] final   91.97 input   66.30 | X-H torsion
[ 10763 10752 10751 10750 ] final  140.48 input  -60.55 | X-H torsion
[ 11005 11000 10999 10996 ] final   43.47 input  -57.11 | X-H torsion

> <Gold.Protein.ActiveResidues>
 VAL166  LYS551  ARG553  GLY616  TRP617  ASP618  TYR619  PRO620  LYS621  CYS622 
 ASP623  PHE694  ASN695  SER759  ASP760  ASP761  ALA762  ILE779  LEU786  VAL792 
 PHE793  MET794  SER795  GLU796  ALA797  LYS798  CYS799  TRP800  GLU811  SER814 

> <Gold.Protein.RotatedAtoms>
  151.9478  135.0183  160.0539 H   0  0  0  0  0  0  0  0  0  0  0  0  # atno 6907 bound_to 6896
  152.1980  133.4815  159.5051 H   0  0  0  0  0  0  0  0  0  0  0  0  # atno 6908 bound_to 6896
  150.6948  134.1545  159.4195 H   0  0  0  0  0  0  0  0  0  0  0  0  # atno 6909 bound_to 6896
  144.8119  140.5377  143.5637 H   0  0  0  0  0  0  0  0  0  0  0  0  # atno 7974 bound_to 7965
  156.1594  140.1605  156.8637 H   0  0  0  0  0  0  0  0  0  0  0  0  # atno 8008 bound_to 7997
  154.5146  140.0792  156.8092 H   0  0  0  0  0  0  0  0  0  0  0  0  # atno 8009 bound_to 7997
  155.3737  140.3401  155.4246 H   0  0  0  0  0  0  0  0  0  0  0  0  # atno 8010 bound_to 7997
  140.2505  144.3485  150.6350 H   0  0  0  0  0  0  0  0  0  0  0  0  # atno 10167 bound_to 10162
  157.6959  131.0426  150.3810 H   0  0  0  0  0  0  0  0  0  0  0  0  # atno 10718 bound_to 10713
  153.9234  135.2998  155.3447 H   0  0  0  0  0  0  0  0  0  0  0  0  # atno 10763 bound_to 10752
  154.7564  135.4956  153.9385 H   0  0  0  0  0  0  0  0  0  0  0  0  # atno 10764 bound_to 10752
  153.1129  135.6763  153.9572 H   0  0  0  0  0  0  0  0  0  0  0  0  # atno 10765 bound_to 10752
  140.1642  134.4303  155.8298 H   0  0  0  0  0  0  0  0  0  0  0  0  # atno 11005 bound_to 11000
  145.5305  139.1475  143.3502 LP  0  0  0  0  0  0  0  0  0  0  0  0  # atno 17320 bound_to 7965
  146.2418  140.5445  142.8931 LP  0  0  0  0  0  0  0  0  0  0  0  0  # atno 17321 bound_to 7965
  140.6044  143.2167  151.7009 LP  0  0  0  0  0  0  0  0  0  0  0  0  # atno 17342 bound_to 10162
  139.5048  144.3741  152.0441 LP  0  0  0  0  0  0  0  0  0  0  0  0  # atno 17343 bound_to 10162
  156.4224  130.3955  149.6816 LP  0  0  0  0  0  0  0  0  0  0  0  0  # atno 17370 bound_to 10713
  156.4062  130.7699  151.2710 LP  0  0  0  0  0  0  0  0  0  0  0  0  # atno 17371 bound_to 10713
  141.2212  133.6927  156.7648 LP  0  0  0  0  0  0  0  0  0  0  0  0  # atno 17394 bound_to 11000
  140.2454  134.8582  157.3614 LP  0  0  0  0  0  0  0  0  0  0  0  0  # atno 17395 bound_to 11000

$$$$
