AV-unprocessed.smi:946|AV-procd|sdf|4235|dock1
  -GOLD-   22720 2143D 1   1.00000     0.00000
 Structure written by MMmdl.
 42 43  0  0  0  0  0  0  0  0  1 V2000
  148.4126  138.6591  157.4449 C   0  0  0  0  0  0  0  0  0  0  0  0
  149.6433  137.8397  157.8598 C   0  0  1  0  0  0  0  0  0  0  0  0
  150.4351  138.6581  158.7165 O   0  0  0  0  0  0  0  0  0  0  0  0
  151.7270  138.9908  158.2210 C   0  0  0  0  0  0  0  0  0  0  0  0
  152.4946  139.7438  159.3156 C   0  0  2  0  0  0  0  0  0  0  0  0
  151.9398  141.1647  159.5366 C   0  0  0  0  0  0  0  0  0  0  0  0
  152.7814  141.9158  160.5748 C   0  0  0  0  0  0  0  0  0  0  0  0
  154.2586  141.8768  160.1690 C   0  0  0  0  0  0  0  0  0  0  0  0
  154.7011  140.4303  159.8969 C   0  0  0  0  0  0  0  0  0  0  0  0
  153.8585  139.8425  158.9105 O   0  0  0  0  0  0  0  0  0  0  0  0
  149.2336  136.5496  158.5878 C   0  0  0  0  0  0  0  0  0  0  0  0
  149.4715  135.4573  158.0714 O   0  0  0  0  0  0  0  0  0  0  0  0
  148.6147  136.7186  159.7715 N   0  0  0  0  0  0  0  0  0  0  0  0
  148.1055  135.7241  160.6472 C   0  0  0  0  0  0  0  0  0  0  0  0
  147.5034  136.2146  161.8268 C   0  0  0  0  0  0  0  0  0  0  0  0
  146.9639  135.3063  162.7571 C   0  0  0  0  0  0  0  0  0  0  0  0
  147.0364  133.9290  162.4833 C   0  0  0  0  0  0  0  0  0  0  0  0
  147.6511  133.5175  161.2816 C   0  0  0  0  0  0  0  0  0  0  0  0
  147.7648  132.0469  160.9051 C   0  0  0  0  0  0  0  0  0  0  0  0
  146.5536  131.4895  160.8957 F   0  0  0  0  0  0  0  0  0  0  0  0
  148.3121  131.8873  159.6993 F   0  0  0  0  0  0  0  0  0  0  0  0
  148.5238  131.4124  161.7989 F   0  0  0  0  0  0  0  0  0  0  0  0
  148.1705  134.3942  160.3927 N   0  0  0  0  0  0  0  0  0  0  0  0
  147.7575  138.0850  156.7885 H   0  0  0  0  0  0  0  0  0  0  0  0
  148.7113  139.5583  156.9058 H   0  0  0  0  0  0  0  0  0  0  0  0
  147.8279  138.9743  158.3102 H   0  0  0  0  0  0  0  0  0  0  0  0
  150.2130  137.5980  156.9604 H   0  0  0  0  0  0  0  0  0  0  0  0
  152.2870  138.1081  157.9096 H   0  0  0  0  0  0  0  0  0  0  0  0
  151.6116  139.6303  157.3447 H   0  0  0  0  0  0  0  0  0  0  0  0
  152.4262  139.1804  160.2482 H   0  0  0  0  0  0  0  0  0  0  0  0
  151.9474  141.7140  158.5940 H   0  0  0  0  0  0  0  0  0  0  0  0
  150.9007  141.1197  159.8639 H   0  0  0  0  0  0  0  0  0  0  0  0
  152.4393  142.9467  160.6696 H   0  0  0  0  0  0  0  0  0  0  0  0
  152.6565  141.4515  161.5538 H   0  0  0  0  0  0  0  0  0  0  0  0
  154.4075  142.4773  159.2708 H   0  0  0  0  0  0  0  0  0  0  0  0
  154.8769  142.3212  160.9495 H   0  0  0  0  0  0  0  0  0  0  0  0
  155.7295  140.4150  159.5358 H   0  0  0  0  0  0  0  0  0  0  0  0
  154.6765  139.8359  160.8115 H   0  0  0  0  0  0  0  0  0  0  0  0
  148.4974  137.6722  160.0809 H   0  0  0  0  0  0  0  0  0  0  0  0
  147.4540  137.2762  162.0219 H   0  0  0  0  0  0  0  0  0  0  0  0
  146.5006  135.6616  163.6656 H   0  0  0  0  0  0  0  0  0  0  0  0
  146.6270  133.2144  163.1819 H   0  0  0  0  0  0  0  0  0  0  0  0
  1  2  1  0  0  0  0
  1 24  1  0  0  0  0
  1 25  1  0  0  0  0
  1 26  1  0  0  0  0
  2  3  1  0  0  0  0
  2 11  1  0  0  0  0
  2 27  1  0  0  0  0
  3  4  1  0  0  0  0
  4  5  1  0  0  0  0
  4 28  1  0  0  0  0
  4 29  1  0  0  0  0
  5 10  1  0  0  0  0
  5  6  1  0  0  0  0
  5 30  1  0  0  0  0
  6  7  1  0  0  0  0
  6 31  1  0  0  0  0
  6 32  1  0  0  0  0
  7  8  1  0  0  0  0
  7 33  1  0  0  0  0
  7 34  1  0  0  0  0
  8  9  1  0  0  0  0
  8 35  1  0  0  0  0
  8 36  1  0  0  0  0
  9 10  1  0  0  0  0
  9 37  1  0  0  0  0
  9 38  1  0  0  0  0
 11 12  2  0  0  0  0
 11 13  1  0  0  0  0
 13 14  1  0  0  0  0
 13 39  1  0  0  0  0
 14 23  1  0  0  0  0
 14 15  2  0  0  0  0
 15 16  1  0  0  0  0
 15 40  1  0  0  0  0
 16 17  2  0  0  0  0
 16 41  1  0  0  0  0
 17 18  1  0  0  0  0
 17 42  1  0  0  0  0
 18 19  1  0  0  0  0
 18 23  2  0  0  0  0
 19 20  1  0  0  0  0
 19 21  1  0  0  0  0
 19 22  1  0  0  0  0
M  END
> <s_m_source_file>
AV-unprocessed.smi

> <i_m_source_file_index>
946

> <i_lp_mmshare_version>
43012

> <i_f3d_flags>
0

> <s_epik_input>
TzFbQ0gyXVtDSDJdW0NIMl1bQ0gyXVtDQEhdMVtDSDJdT1tDQEBIXShbQ0gzXSlDKD1PKVtOSF1jMltjSF1bY0hdW2NIXWMobjIpQyhGKShGKUY=

> <s_epik_cmdline>
J2VwaWtfcHl0aG9uJywgJy1waCcsICc3LjAnLCAnLXRuJywgJzgnLCAnLW1hJywgJzIwMCcsICctbWV0YWxfYmluZGluZycsICctaW1hZScsICc8aW5maWxlLm1hZT4nLCAnLW9tYWUnLCAnPG91dGZpbGUubWFlPic=

> <r_lp_tautomer_probability>
1

> <r_epik_Ionization_Penalty>
1.32683e-06

> <r_epik_Ionization_Penalty_Charging>
0

> <r_epik_Ionization_Penalty_Neutral>
1.32683e-06

> <r_epik_State_Penalty>
-0

> <r_epik_Charging_Adjusted_Penalty>
0

> <i_epik_Tot_Q>
0

> <i_epik_Tot_abs_Q>
0

> <r_epik_Metal_State_Penalty>
-0

> <b_epik_Metal_Only>
0

> <s_lp_Force_Field>
OPLS_2005

> <r_lp_Energy>
15.913

> <b_lp_Chiralities_Consistent>
1

> <s_lp_Variant>
AV-unprocessed.smi:946-2

> <Gold.Version>
5.8.1

> <Gold.Id.Protein>
6NUR|6NUR_protein|mol2

> <Gold.PLP.Fitness>
45.4291

> <Gold.PLP.PLP>
-41.2087

> <Gold.PLP.part.hbond>
-2.1293

> <Gold.PLP.part.metal>
0.0000

> <Gold.PLP.part.buried>
-4.5633

> <Gold.PLP.part.nonpolar>
-34.2977

> <Gold.PLP.part.repulsive>
0.2140

> <Gold.PLP.ligand.clash>
0.0000

> <Gold.PLP.ligand.torsion>
0.9176

> <Gold.PLP.Chemscore.Hbond>
1.9920

> <Gold.PLP.Chemscore.CHOScore>
0.0000

> <Gold.PLP.Chemscore.Metal>
0.0000

> <Gold.Chemscore.Hbonds>
donor molecule, donor type, donor heavy atom, donor atom, acceptor molecule, acceptor atom, score
      P1  H  6896  6907       L1    12  0.81
      P1  H  7997  8008       L1    10  1.00

> <Gold.PLP.Chemscore.Internal.Correction>
0.0795

> <Gold.Rescore>
     Score         DG    S(hbond)    S(metal)    S(lipo)     H(rot)  DE(clash)    DE(int)     intcor
     14.69     -16.89       1.69        0.00      87.80       1.76       0.09       2.11       ----

> <Gold.Chemscore.Fitness>
14.6876

> <Gold.Chemscore.DG>
-16.8897

> <Gold.Chemscore.ZeroCoef>
-5.4800

> <Gold.Chemscore.Hbond>
1.6861

> <Gold.Chemscore.Metal>
0.0000

> <Gold.Chemscore.Lipo>
87.8018

> <Gold.Chemscore.Internal_Hbond>
0.0000

> <Gold.Chemscore.DEClash>
0.0940

> <Gold.Chemscore.DEInternal>
2.1081

> <Gold.Chemscore.Rot>
1.7557

> <Gold.Chemscore.Internal.Correction>
   9.000000E+99

> <Gold.Chemscore.Hbonds>
donor molecule, donor type, donor heavy atom, donor atom, acceptor molecule, acceptor atom, score
      P1  H  6896  6907       L1    12  0.48
      P1  H  7997  8008       L1    10  0.24

> <Gold.Chemscore.Hbond.Weighted>
-5.6315

> <Gold.Chemscore.Metal.Weighted>
-0.0000

> <Gold.Chemscore.Lipo.Weighted>
-10.2728

> <Gold.Chemscore.Internal_Hbond.Weighted>
0.0000

> <Gold.Chemscore.DEClash.Weighted>
0.0940

> <Gold.Chemscore.DEInternal.Weighted>
2.1081

> <Gold.Chemscore.Rot.Weighted>
4.4946

> <Gold.Chemscore.Internal.Correction.Weighted>
   9.000000E+99

> <Gold.Protein.RotatedTorsions>
[ 6907 6896 6895 6894 ] final  -84.84 input  -60.11 | X-H torsion
[ 7974 7965 7964 7962 ] final -118.07 input  175.53 | X-H torsion
[ 8008 7997 7996 7995 ] final -115.26 input   59.86 | X-H torsion
[ 10167 10162 10161 10158 ] final -119.15 input  -65.29 | X-H torsion
[ 10718 10713 10712 10709 ] final   94.25 input   66.30 | X-H torsion
[ 10763 10752 10751 10750 ] final   65.68 input  -60.55 | X-H torsion
[ 11005 11000 10999 10996 ] final   28.61 input  -57.11 | X-H torsion

> <Gold.Protein.ActiveResidues>
 VAL166  LYS551  ARG553  GLY616  TRP617  ASP618  TYR619  PRO620  LYS621  CYS622 
 ASP623  PHE694  ASN695  SER759  ASP760  ASP761  ALA762  ILE779  LEU786  VAL792 
 PHE793  MET794  SER795  GLU796  ALA797  LYS798  CYS799  TRP800  GLU811  SER814 

> <Gold.Protein.RotatedAtoms>
  150.6874  134.3297  159.4821 H   0  0  0  0  0  0  0  0  0  0  0  0  # atno 6907 bound_to 6896
  152.1163  134.9235  160.0574 H   0  0  0  0  0  0  0  0  0  0  0  0  # atno 6908 bound_to 6896
  152.0459  133.3963  159.4393 H   0  0  0  0  0  0  0  0  0  0  0  0  # atno 6909 bound_to 6896
  145.0780  140.8406  143.4056 H   0  0  0  0  0  0  0  0  0  0  0  0  # atno 7974 bound_to 7965
  155.0493  140.0393  157.2538 H   0  0  0  0  0  0  0  0  0  0  0  0  # atno 8008 bound_to 7997
  154.7151  140.2700  155.6569 H   0  0  0  0  0  0  0  0  0  0  0  0  # atno 8009 bound_to 7997
  156.2801  140.2714  156.1805 H   0  0  0  0  0  0  0  0  0  0  0  0  # atno 8010 bound_to 7997
  140.0497  143.5072  152.2088 H   0  0  0  0  0  0  0  0  0  0  0  0  # atno 10167 bound_to 10162
  157.6949  131.0506  150.4157 H   0  0  0  0  0  0  0  0  0  0  0  0  # atno 10718 bound_to 10713
  153.0107  135.5348  154.6705 H   0  0  0  0  0  0  0  0  0  0  0  0  # atno 10763 bound_to 10752
  154.5890  135.2857  155.0657 H   0  0  0  0  0  0  0  0  0  0  0  0  # atno 10764 bound_to 10752
  154.1757  135.6524  153.5073 H   0  0  0  0  0  0  0  0  0  0  0  0  # atno 10765 bound_to 10752
  140.3138  134.2620  155.7729 H   0  0  0  0  0  0  0  0  0  0  0  0  # atno 11005 bound_to 11000
  145.1212  139.2692  143.5587 LP  0  0  0  0  0  0  0  0  0  0  0  0  # atno 17320 bound_to 7965
  146.3530  140.0836  142.8616 LP  0  0  0  0  0  0  0  0  0  0  0  0  # atno 17321 bound_to 7965
  139.5961  144.7567  151.3284 LP  0  0  0  0  0  0  0  0  0  0  0  0  # atno 17342 bound_to 10162
  140.7222  143.7103  150.7774 LP  0  0  0  0  0  0  0  0  0  0  0  0  # atno 17343 bound_to 10162
  156.4537  130.4017  149.6620 LP  0  0  0  0  0  0  0  0  0  0  0  0  # atno 17370 bound_to 10713
  156.3760  130.7554  151.2543 LP  0  0  0  0  0  0  0  0  0  0  0  0  # atno 17371 bound_to 10713
  141.2102  133.7726  156.9946 LP  0  0  0  0  0  0  0  0  0  0  0  0  # atno 17394 bound_to 11000
  140.1002  134.9540  157.1911 LP  0  0  0  0  0  0  0  0  0  0  0  0  # atno 17395 bound_to 11000

$$$$
