AV-unprocessed.smi:2668|AV-procd|sdf|10341|dock1
  -GOLD-   2272014363D 1   1.00000     0.00000
 Structure written by MMmdl.
 53 54  0  0  0  0  0  0  0  0  2 V2000
  152.8235  142.1317  160.2631 C   0  0  0  0  0  0  0  0  0  0  0  0
  151.8037  142.4234  159.2574 N   0  0  0  0  0  0  0  0  0  0  0  0
  151.9338  143.8440  158.9392 C   0  0  0  0  0  0  0  0  0  0  0  0
  151.9490  141.5715  158.0619 C   0  0  2  0  0  0  0  0  0  0  0  0
  150.8854  141.9123  156.9916 C   0  0  0  0  0  0  0  0  0  0  0  0
  150.9269  140.9637  155.7810 C   0  0  0  0  0  0  0  0  0  0  0  0
  150.7748  139.5373  156.1916 N   0  3  1  0  0  0  0  0  0  0  0  0
  150.5715  138.5366  155.0769 C   0  0  0  0  0  0  0  0  0  0  0  0
  149.4221  138.9701  154.1276 C   0  0  0  0  0  0  0  0  0  0  0  0
  151.8553  138.3931  154.2225 C   0  0  0  0  0  0  0  0  0  0  0  0
  150.1649  137.1692  155.7113 C   0  0  0  0  0  0  0  0  0  0  0  0
  149.6232  136.2001  154.7579 N   0  0  0  0  0  0  0  0  0  0  0  0
  149.4268  134.8948  154.9941 C   0  0  0  0  0  0  0  0  0  0  0  0
  149.6965  134.3521  156.0650 O   0  0  0  0  0  0  0  0  0  0  0  0
  148.9294  134.2770  153.9092 N   0  0  0  0  0  0  0  0  0  0  0  0
  148.5994  132.9049  153.7397 C   0  0  0  0  0  0  0  0  0  0  0  0
  149.2223  131.8389  154.4337 C   0  0  0  0  0  0  0  0  0  0  0  0
  148.7915  130.5216  154.1838 C   0  0  0  0  0  0  0  0  0  0  0  0
  147.7496  130.3179  153.2585 C   0  0  0  0  0  0  0  0  0  0  0  0
  147.1376  131.3247  152.6006 N   0  0  0  0  0  0  0  0  0  0  0  0
  147.5566  132.5848  152.8444 C   0  0  0  0  0  0  0  0  0  0  0  0
  151.8456  139.1826  157.1679 C   0  0  0  0  0  0  0  0  0  0  0  0
  151.7889  140.0749  158.4161 C   0  0  0  0  0  0  0  0  0  0  0  0
  152.7002  141.1366  160.6880 H   0  0  0  0  0  0  0  0  0  0  0  0
  152.7526  142.8278  161.0999 H   0  0  0  0  0  0  0  0  0  0  0  0
  153.8278  142.2094  159.8441 H   0  0  0  0  0  0  0  0  0  0  0  0
  151.1054  144.1968  158.3266 H   0  0  0  0  0  0  0  0  0  0  0  0
  152.8679  144.0495  158.4145 H   0  0  0  0  0  0  0  0  0  0  0  0
  151.9163  144.4485  159.8470 H   0  0  0  0  0  0  0  0  0  0  0  0
  152.9410  141.7302  157.6350 H   0  0  0  0  0  0  0  0  0  0  0  0
  149.8903  141.8813  157.4385 H   0  0  0  0  0  0  0  0  0  0  0  0
  151.0231  142.9239  156.6114 H   0  0  0  0  0  0  0  0  0  0  0  0
  150.1196  141.2837  155.1257 H   0  0  0  0  0  0  0  0  0  0  0  0
  151.8592  141.0949  155.2303 H   0  0  0  0  0  0  0  0  0  0  0  0
  149.1934  138.2075  153.3832 H   0  0  0  0  0  0  0  0  0  0  0  0
  149.6759  139.8610  153.5525 H   0  0  0  0  0  0  0  0  0  0  0  0
  148.5015  139.1688  154.6777 H   0  0  0  0  0  0  0  0  0  0  0  0
  151.6806  137.7806  153.3377 H   0  0  0  0  0  0  0  0  0  0  0  0
  152.6661  137.9192  154.7763 H   0  0  0  0  0  0  0  0  0  0  0  0
  152.2139  139.3599  153.8688 H   0  0  0  0  0  0  0  0  0  0  0  0
  150.9928  136.7023  156.2422 H   0  0  0  0  0  0  0  0  0  0  0  0
  149.3964  137.3366  156.4669 H   0  0  0  0  0  0  0  0  0  0  0  0
  149.3756  136.5549  153.8456 H   0  0  0  0  0  0  0  0  0  0  0  0
  148.8279  134.8472  153.0822 H   0  0  0  0  0  0  0  0  0  0  0  0
  150.0064  132.0007  155.1564 H   0  0  0  0  0  0  0  0  0  0  0  0
  149.2467  129.6861  154.6945 H   0  0  0  0  0  0  0  0  0  0  0  0
  147.3946  129.3205  153.0457 H   0  0  0  0  0  0  0  0  0  0  0  0
  147.0433  133.3647  152.3010 H   0  0  0  0  0  0  0  0  0  0  0  0
  151.7677  138.1478  157.4928 H   0  0  0  0  0  0  0  0  0  0  0  0
  152.8258  139.2881  156.7012 H   0  0  0  0  0  0  0  0  0  0  0  0
  152.5804  139.7424  159.0867 H   0  0  0  0  0  0  0  0  0  0  0  0
  150.8459  139.9111  158.9401 H   0  0  0  0  0  0  0  0  0  0  0  0
  149.9107  139.5126  156.7141 H   0  0  0  0  0  0  0  0  0  0  0  0
  1  2  1  0  0  0  0
  1 24  1  0  0  0  0
  1 25  1  0  0  0  0
  1 26  1  0  0  0  0
  2  3  1  0  0  0  0
  2  4  1  0  0  0  0
  3 27  1  0  0  0  0
  3 28  1  0  0  0  0
  3 29  1  0  0  0  0
  4 23  1  0  0  0  0
  4  5  1  0  0  0  0
  4 30  1  0  0  0  0
  5  6  1  0  0  0  0
  5 31  1  0  0  0  0
  5 32  1  0  0  0  0
  6  7  1  0  0  0  0
  6 33  1  0  0  0  0
  6 34  1  0  0  0  0
  7  8  1  0  0  0  0
  7 22  1  0  0  0  0
  7 53  1  0  0  0  0
  8  9  1  0  0  0  0
  8 10  1  0  0  0  0
  8 11  1  0  0  0  0
  9 35  1  0  0  0  0
  9 36  1  0  0  0  0
  9 37  1  0  0  0  0
 10 38  1  0  0  0  0
 10 39  1  0  0  0  0
 10 40  1  0  0  0  0
 11 12  1  0  0  0  0
 11 41  1  0  0  0  0
 11 42  1  0  0  0  0
 12 13  1  0  0  0  0
 12 43  1  0  0  0  0
 13 14  2  0  0  0  0
 13 15  1  0  0  0  0
 15 16  1  0  0  0  0
 15 44  1  0  0  0  0
 16 21  1  0  0  0  0
 16 17  2  0  0  0  0
 17 18  1  0  0  0  0
 17 45  1  0  0  0  0
 18 19  2  0  0  0  0
 18 46  1  0  0  0  0
 19 20  1  0  0  0  0
 19 47  1  0  0  0  0
 20 21  2  0  0  0  0
 21 48  1  0  0  0  0
 22 23  1  0  0  0  0
 22 49  1  0  0  0  0
 22 50  1  0  0  0  0
 23 51  1  0  0  0  0
 23 52  1  0  0  0  0
M  CHG  1   7   1
M  END
> <s_m_source_file>
AV-unprocessed.smi

> <i_m_source_file_index>
2668

> <i_lp_mmshare_version>
43012

> <i_f3d_flags>
0

> <s_epik_input>
W0NIM11OKFtDSDNdKVtDSF0xW0NIMl1bQ0gyXU4oW0NIMl1bQ0gyXTEpQyhbQ0gzXSkoW0NIM10pW0NIMl1bTkhdQyg9TylbTkhdYzJbY0hdW2NIXVtjSF1uW2NIXTI=

> <s_epik_cmdline>
J2VwaWtfcHl0aG9uJywgJy1waCcsICc3LjAnLCAnLXRuJywgJzgnLCAnLW1hJywgJzIwMCcsICctbWV0YWxfYmluZGluZycsICctaW1hZScsICc8aW5maWxlLm1hZT4nLCAnLW9tYWUnLCAnPG91dGZpbGUubWFlPic=

> <r_epik_Ionization_Penalty>
1.32573

> <r_epik_Ionization_Penalty_Charging>
0.00219175

> <r_epik_Ionization_Penalty_Neutral>
1.32353

> <r_epik_State_Penalty>
1.51166

> <r_epik_Charging_Adjusted_Penalty>
1.51385

> <i_epik_Tot_Q>
1

> <i_epik_Tot_abs_Q>
1

> <r_epik_Metal_State_Penalty>
1.51178

> <b_epik_Metal_Only>
0

> <s_lp_Force_Field>
OPLS_2005

> <r_lp_Energy>
37.5279

> <b_lp_Chiralities_Consistent>
1

> <s_lp_Variant>
AV-unprocessed.smi:2668-4

> <Gold.Version>
5.8.1

> <Gold.Id.Protein>
6NUR|6NUR_protein|mol2

> <Gold.PLP.Fitness>
46.4712

> <Gold.PLP.PLP>
-41.2415

> <Gold.PLP.part.hbond>
-2.0000

> <Gold.PLP.part.metal>
0.0000

> <Gold.PLP.part.buried>
-4.5502

> <Gold.PLP.part.nonpolar>
-35.0287

> <Gold.PLP.part.repulsive>
0.9239

> <Gold.PLP.ligand.clash>
0.0000

> <Gold.PLP.ligand.torsion>
0.4559

> <Gold.PLP.Chemscore.Hbond>
1.9920

> <Gold.PLP.Chemscore.CHOScore>
0.0000

> <Gold.PLP.Chemscore.Metal>
0.0000

> <Gold.Chemscore.Hbonds>
donor molecule, donor type, donor heavy atom, donor atom, acceptor molecule, acceptor atom, score
      L1  H    12    43       P1  7948  0.99
      L1  H    15    44       P1  7948  0.95

> <Gold.PLP.Chemscore.Internal.Correction>
0.1654

> <Gold.Rescore>
     Score         DG    S(hbond)    S(metal)    S(lipo)     H(rot)  DE(clash)    DE(int)     intcor
     17.41     -19.00       1.62        0.00     105.00       1.62       0.22       1.37       ----

> <Gold.Chemscore.Fitness>
17.4120

> <Gold.Chemscore.DG>
-19.0049

> <Gold.Chemscore.ZeroCoef>
-5.4800

> <Gold.Chemscore.Hbond>
1.6150

> <Gold.Chemscore.Metal>
0.0000

> <Gold.Chemscore.Lipo>
105.0018

> <Gold.Chemscore.Internal_Hbond>
0.0000

> <Gold.Chemscore.DEClash>
0.2203

> <Gold.Chemscore.DEInternal>
1.3726

> <Gold.Chemscore.Rot>
1.6228

> <Gold.Chemscore.Internal.Correction>
   9.000000E+99

> <Gold.Chemscore.Hbonds>
donor molecule, donor type, donor heavy atom, donor atom, acceptor molecule, acceptor atom, score
      L1  H    12    43       P1  7948  0.80
      L1  H    15    44       P1  7948  0.22

> <Gold.Chemscore.Hbond.Weighted>
-5.3942

> <Gold.Chemscore.Metal.Weighted>
-0.0000

> <Gold.Chemscore.Lipo.Weighted>
-12.2852

> <Gold.Chemscore.Internal_Hbond.Weighted>
0.0000

> <Gold.Chemscore.DEClash.Weighted>
0.2203

> <Gold.Chemscore.DEInternal.Weighted>
1.3726

> <Gold.Chemscore.Rot.Weighted>
4.1545

> <Gold.Chemscore.Internal.Correction.Weighted>
   9.000000E+99

> <Gold.Protein.RotatedTorsions>
[ 6907 6896 6895 6894 ] final  -78.04 input  -60.11 | X-H torsion
[ 7974 7965 7964 7962 ] final   60.23 input  175.53 | X-H torsion
[ 8008 7997 7996 7995 ] final   -8.97 input   59.86 | X-H torsion
[ 10167 10162 10161 10158 ] final -135.74 input  -65.29 | X-H torsion
[ 10718 10713 10712 10709 ] final  105.52 input   66.30 | X-H torsion
[ 10763 10752 10751 10750 ] final  112.36 input  -60.55 | X-H torsion
[ 11005 11000 10999 10996 ] final   52.53 input  -57.11 | X-H torsion

> <Gold.Protein.ActiveResidues>
 VAL166  LYS551  ARG553  GLY616  TRP617  ASP618  TYR619  PRO620  LYS621  CYS622 
 ASP623  PHE694  ASN695  SER759  ASP760  ASP761  ALA762  ILE779  LEU786  VAL792 
 PHE793  MET794  SER795  GLU796  ALA797  LYS798  CYS799  TRP800  GLU811  SER814 

> <Gold.Protein.RotatedAtoms>
  150.6983  134.4332  159.5257 H   0  0  0  0  0  0  0  0  0  0  0  0  # atno 6907 bound_to 6896
  152.2055  134.8546  160.0512 H   0  0  0  0  0  0  0  0  0  0  0  0  # atno 6908 bound_to 6896
  151.9450  133.3614  159.4016 H   0  0  0  0  0  0  0  0  0  0  0  0  # atno 6909 bound_to 6896
  145.8983  139.3562  143.0608 H   0  0  0  0  0  0  0  0  0  0  0  0  # atno 7974 bound_to 7965
  154.5691  140.2367  155.8219 H   0  0  0  0  0  0  0  0  0  0  0  0  # atno 8008 bound_to 7997
  156.2092  140.3031  155.9653 H   0  0  0  0  0  0  0  0  0  0  0  0  # atno 8009 bound_to 7997
  155.2746  140.0420  157.3000 H   0  0  0  0  0  0  0  0  0  0  0  0  # atno 8010 bound_to 7997
  139.8748  143.6912  152.2635 H   0  0  0  0  0  0  0  0  0  0  0  0  # atno 10167 bound_to 10162
  157.6702  131.0829  150.5869 H   0  0  0  0  0  0  0  0  0  0  0  0  # atno 10718 bound_to 10713
  153.4768  135.3688  155.2420 H   0  0  0  0  0  0  0  0  0  0  0  0  # atno 10763 bound_to 10752
  154.8756  135.3944  154.3747 H   0  0  0  0  0  0  0  0  0  0  0  0  # atno 10764 bound_to 10752
  153.4345  135.7083  153.6274 H   0  0  0  0  0  0  0  0  0  0  0  0  # atno 10765 bound_to 10752
  140.0842  134.5297  155.8916 H   0  0  0  0  0  0  0  0  0  0  0  0  # atno 11005 bound_to 11000
  145.8823  140.9355  143.0595 LP  0  0  0  0  0  0  0  0  0  0  0  0  # atno 17320 bound_to 7965
  144.6734  140.0796  143.7470 LP  0  0  0  0  0  0  0  0  0  0  0  0  # atno 17321 bound_to 7965
  139.7250  144.7594  151.0893 LP  0  0  0  0  0  0  0  0  0  0  0  0  # atno 17342 bound_to 10162
  140.7755  143.5159  150.9595 LP  0  0  0  0  0  0  0  0  0  0  0  0  # atno 17343 bound_to 10162
  156.6170  130.4395  149.5837 LP  0  0  0  0  0  0  0  0  0  0  0  0  # atno 17370 bound_to 10713
  156.2386  130.6837  151.1533 LP  0  0  0  0  0  0  0  0  0  0  0  0  # atno 17371 bound_to 10713
  141.2057  133.6649  156.6196 LP  0  0  0  0  0  0  0  0  0  0  0  0  # atno 17394 bound_to 11000
  140.3444  134.7821  157.4421 LP  0  0  0  0  0  0  0  0  0  0  0  0  # atno 17395 bound_to 11000

$$$$
