AV-unprocessed.smi:531|AV-procd|sdf|2847|dock2
  -GOLD-   2262023333D 1   1.00000     0.00000
 Structure written by MMmdl.
 45 47  0  0  0  0  0  0  0  0  2 V2000
  148.4796  140.3324  154.3844 C   0  0  0  0  0  0  0  0  0  0  0  0
  149.6700  139.8696  155.2274 C   0  0  0  0  0  0  0  0  0  0  0  0
  150.5791  140.9475  155.3543 O   0  0  0  0  0  0  0  0  0  0  0  0
  151.6244  140.6883  156.2761 C   0  0  0  0  0  0  0  0  0  0  0  0
  151.1604  141.0486  157.6942 C   0  0  0  0  0  0  0  0  0  0  0  0
  152.1170  140.6016  158.7068 N   0  0  0  0  0  0  0  0  0  0  0  0
  152.7794  141.3587  159.6245 C   0  0  0  0  0  0  0  0  0  0  0  0
  152.6451  142.7474  159.6897 N   0  0  0  0  0  0  0  0  0  0  0  0
  152.8501  143.6878  158.5873 C   0  0  0  0  0  0  0  0  0  0  0  0
  151.6774  144.6767  158.4583 C   0  0  0  0  0  0  0  0  0  0  0  0
  151.4833  145.4511  159.7692 C   0  0  0  0  0  0  0  0  0  0  0  0
  151.3802  144.4716  160.9468 C   0  0  0  0  0  0  0  0  0  0  0  0
  152.5660  143.4901  160.9468 C   0  0  0  0  0  0  0  0  0  0  0  0
  153.5254  140.6636  160.4846 N   0  0  0  0  0  0  0  0  0  0  0  0
  153.3440  139.3543  160.0689 C   0  0  0  0  0  0  0  0  0  0  0  0
  152.4957  139.2865  159.0075 C   0  0  0  0  0  0  0  0  0  0  0  0
  152.0768  138.0134  158.3748 C   0  0  0  0  0  0  0  0  0  0  0  0
  151.2918  137.9962  157.4294 O   0  0  0  0  0  0  0  0  0  0  0  0
  152.6568  136.9235  158.9701 N   0  5  0  0  0  0  0  0  0  0  0  0
  153.5226  136.9495  160.0415 C   0  0  0  0  0  0  0  0  0  0  0  0
  153.9934  135.9176  160.5221 O   0  0  0  0  0  0  0  0  0  0  0  0
  153.8775  138.1486  160.6002 N   0  0  0  0  0  0  0  0  0  0  0  0
  154.7923  138.2067  161.7442 C   0  0  0  0  0  0  0  0  0  0  0  0
  147.7540  139.5287  154.2585 H   0  0  0  0  0  0  0  0  0  0  0  0
  148.8037  140.6503  153.3931 H   0  0  0  0  0  0  0  0  0  0  0  0
  147.9706  141.1736  154.8555 H   0  0  0  0  0  0  0  0  0  0  0  0
  149.3294  139.5457  156.2119 H   0  0  0  0  0  0  0  0  0  0  0  0
  150.1580  139.0199  154.7476 H   0  0  0  0  0  0  0  0  0  0  0  0
  151.9103  139.6365  156.2342 H   0  0  0  0  0  0  0  0  0  0  0  0
  152.5049  141.2766  156.0138 H   0  0  0  0  0  0  0  0  0  0  0  0
  151.0001  142.1202  157.7806 H   0  0  0  0  0  0  0  0  0  0  0  0
  150.1834  140.6164  157.8856 H   0  0  0  0  0  0  0  0  0  0  0  0
  153.7745  144.2381  158.7677 H   0  0  0  0  0  0  0  0  0  0  0  0
  153.0098  143.1509  157.6532 H   0  0  0  0  0  0  0  0  0  0  0  0
  151.8614  145.3714  157.6386 H   0  0  0  0  0  0  0  0  0  0  0  0
  150.7617  144.1393  158.2106 H   0  0  0  0  0  0  0  0  0  0  0  0
  152.3297  146.1207  159.9259 H   0  0  0  0  0  0  0  0  0  0  0  0
  150.5927  146.0775  159.7143 H   0  0  0  0  0  0  0  0  0  0  0  0
  151.3487  145.0211  161.8880 H   0  0  0  0  0  0  0  0  0  0  0  0
  150.4452  143.9139  160.8810 H   0  0  0  0  0  0  0  0  0  0  0  0
  152.4576  142.7913  161.7770 H   0  0  0  0  0  0  0  0  0  0  0  0
  153.5027  144.0245  161.1107 H   0  0  0  0  0  0  0  0  0  0  0  0
  155.7322  137.7037  161.5122 H   0  0  0  0  0  0  0  0  0  0  0  0
  154.3469  137.7162  162.6107 H   0  0  0  0  0  0  0  0  0  0  0  0
  155.0373  139.2276  162.0359 H   0  0  0  0  0  0  0  0  0  0  0  0
  1  2  1  0  0  0  0
  1 24  1  0  0  0  0
  1 25  1  0  0  0  0
  1 26  1  0  0  0  0
  2  3  1  0  0  0  0
  2 27  1  0  0  0  0
  2 28  1  0  0  0  0
  3  4  1  0  0  0  0
  4  5  1  0  0  0  0
  4 29  1  0  0  0  0
  4 30  1  0  0  0  0
  5  6  1  0  0  0  0
  5 31  1  0  0  0  0
  5 32  1  0  0  0  0
  6 16  1  0  0  0  0
  6  7  1  0  0  0  0
  7  8  1  0  0  0  0
  7 14  2  0  0  0  0
  8 13  1  0  0  0  0
  8  9  1  0  0  0  0
  9 10  1  0  0  0  0
  9 33  1  0  0  0  0
  9 34  1  0  0  0  0
 10 11  1  0  0  0  0
 10 35  1  0  0  0  0
 10 36  1  0  0  0  0
 11 12  1  0  0  0  0
 11 37  1  0  0  0  0
 11 38  1  0  0  0  0
 12 13  1  0  0  0  0
 12 39  1  0  0  0  0
 12 40  1  0  0  0  0
 13 41  1  0  0  0  0
 13 42  1  0  0  0  0
 14 15  1  0  0  0  0
 15 22  1  0  0  0  0
 15 16  2  0  0  0  0
 16 17  1  0  0  0  0
 17 18  2  0  0  0  0
 17 19  1  0  0  0  0
 19 20  1  0  0  0  0
 20 21  2  0  0  0  0
 20 22  1  0  0  0  0
 22 23  1  0  0  0  0
 23 43  1  0  0  0  0
 23 44  1  0  0  0  0
 23 45  1  0  0  0  0
M  CHG  1  19  -1
M  END
> <s_m_source_file>
AV-unprocessed.smi

> <i_m_source_file_index>
531

> <i_lp_mmshare_version>
43012

> <i_f3d_flags>
0

> <s_epik_input>
W0NIM11uMWMoPU8pW25IXWMoPU8pYyhjMTIpbihbQ0gyXVtDSDJdT1tDSDJdW0NIM10pYyhuMilOM1tDSDJdW0NIMl1bQ0gyXVtDSDJdW0NIMl0z

> <s_epik_cmdline>
J2VwaWtfcHl0aG9uJywgJy1waCcsICc3LjAnLCAnLXRuJywgJzgnLCAnLW1hJywgJzIwMCcsICctbWV0YWxfYmluZGluZycsICctaW1hZScsICc8aW5maWxlLm1hZT4nLCAnLW9tYWUnLCAnPG91dGZpbGUubWFlPic=

> <r_lp_tautomer_probability>
1

> <r_epik_Ionization_Penalty>
5.10252

> <r_epik_Ionization_Penalty_Charging>
0.0734613

> <r_epik_Ionization_Penalty_Neutral>
5.02906

> <r_epik_State_Penalty>
5.02576

> <r_epik_Charging_Adjusted_Penalty>
5.09922

> <i_epik_Tot_Q>
-1

> <i_epik_Tot_abs_Q>
1

> <r_epik_Metal_State_Penalty>
1.13821

> <b_epik_Metal_Only>
1

> <s_lp_Force_Field>
OPLS_2005

> <r_lp_Energy>
41.0851

> <b_lp_Chiralities_Consistent>
1

> <s_lp_Variant>
AV-unprocessed.smi:531-2

> <Gold.Version>
5.8.1

> <Gold.Id.Protein>
6NUR|6NUR_protein|mol2

> <Gold.PLP.Fitness>
51.9147

> <Gold.PLP.PLP>
-47.9752

> <Gold.PLP.part.hbond>
-2.5952

> <Gold.PLP.part.metal>
0.0000

> <Gold.PLP.part.buried>
-5.7424

> <Gold.PLP.part.nonpolar>
-39.3221

> <Gold.PLP.part.repulsive>
0.0748

> <Gold.PLP.ligand.clash>
0.0000

> <Gold.PLP.ligand.torsion>
0.9611

> <Gold.PLP.Chemscore.Hbond>
1.7296

> <Gold.PLP.Chemscore.CHOScore>
0.0000

> <Gold.PLP.Chemscore.Metal>
0.0000

> <Gold.Chemscore.Hbonds>
donor molecule, donor type, donor heavy atom, donor atom, acceptor molecule, acceptor atom, score
      P1  H  6896  6909       L1    21  0.86
      P1  H  7989  7998       L1     3  0.57

> <Gold.PLP.Chemscore.Internal.Correction>
0.6730

> <Gold.Rescore>
     Score         DG    S(hbond)    S(metal)    S(lipo)     H(rot)  DE(clash)    DE(int)     intcor
     13.73     -15.97       0.88        0.00      99.31       1.59       0.18       2.07       ----

> <Gold.Chemscore.Fitness>
13.7274

> <Gold.Chemscore.DG>
-15.9739

> <Gold.Chemscore.ZeroCoef>
-5.4800

> <Gold.Chemscore.Hbond>
0.8833

> <Gold.Chemscore.Metal>
0.0000

> <Gold.Chemscore.Lipo>
99.3117

> <Gold.Chemscore.Internal_Hbond>
0.0000

> <Gold.Chemscore.DEClash>
0.1791

> <Gold.Chemscore.DEInternal>
2.0675

> <Gold.Chemscore.Rot>
1.5920

> <Gold.Chemscore.Internal.Correction>
   9.000000E+99

> <Gold.Chemscore.Hbonds>
donor molecule, donor type, donor heavy atom, donor atom, acceptor molecule, acceptor atom, score
      P1  H  6896  6909       L1    21  0.19
      P1  H  7989  7998       L1     3  0.07

> <Gold.Chemscore.Hbond.Weighted>
-2.9501

> <Gold.Chemscore.Metal.Weighted>
-0.0000

> <Gold.Chemscore.Lipo.Weighted>
-11.6195

> <Gold.Chemscore.Internal_Hbond.Weighted>
0.0000

> <Gold.Chemscore.DEClash.Weighted>
0.1791

> <Gold.Chemscore.DEInternal.Weighted>
2.0675

> <Gold.Chemscore.Rot.Weighted>
4.0756

> <Gold.Chemscore.Internal.Correction.Weighted>
   9.000000E+99

> <Gold.Protein.RotatedTorsions>
[ 6907 6896 6895 6894 ] final -173.94 input  -60.11 | X-H torsion
[ 7974 7965 7964 7962 ] final   96.42 input  175.53 | X-H torsion
[ 8008 7997 7996 7995 ] final  -63.11 input   59.86 | X-H torsion
[ 10167 10162 10161 10158 ] final   49.66 input  -65.29 | X-H torsion
[ 10718 10713 10712 10709 ] final   58.83 input   66.30 | X-H torsion
[ 10763 10752 10751 10750 ] final -112.80 input  -60.55 | X-H torsion
[ 11005 11000 10999 10996 ] final -108.41 input  -57.11 | X-H torsion

> <Gold.Protein.ActiveResidues>
 VAL166  LYS551  ARG553  GLY616  TRP617  ASP618  TYR619  PRO620  LYS621  CYS622 
 ASP623  PHE694  ASN695  SER759  ASP760  ASP761  ALA762  ILE779  LEU786  VAL792 
 PHE793  MET794  SER795  GLU796  ALA797  LYS798  CYS799  TRP800  GLU811  SER814 

> <Gold.Protein.RotatedAtoms>
  151.5643  133.3398  159.2976 H   0  0  0  0  0  0  0  0  0  0  0  0  # atno 6907 bound_to 6896
  150.8404  134.7697  159.6939 H   0  0  0  0  0  0  0  0  0  0  0  0  # atno 6908 bound_to 6896
  152.4473  134.5475  159.9909 H   0  0  0  0  0  0  0  0  0  0  0  0  # atno 6909 bound_to 6896
  145.4390  139.2303  143.3102 H   0  0  0  0  0  0  0  0  0  0  0  0  # atno 7974 bound_to 7965
  154.4536  140.0982  156.6692 H   0  0  0  0  0  0  0  0  0  0  0  0  # atno 8008 bound_to 7997
  155.5207  140.3479  155.4388 H   0  0  0  0  0  0  0  0  0  0  0  0  # atno 8009 bound_to 7997
  156.0732  140.1354  156.9792 H   0  0  0  0  0  0  0  0  0  0  0  0  # atno 8010 bound_to 7997
  140.2805  144.3161  150.6265 H   0  0  0  0  0  0  0  0  0  0  0  0  # atno 10167 bound_to 10162
  157.5627  130.8848  149.9138 H   0  0  0  0  0  0  0  0  0  0  0  0  # atno 10718 bound_to 10713
  154.8366  135.4477  154.1249 H   0  0  0  0  0  0  0  0  0  0  0  0  # atno 10763 bound_to 10752
  153.2475  135.6923  153.7721 H   0  0  0  0  0  0  0  0  0  0  0  0  # atno 10764 bound_to 10752
  153.7046  135.3366  155.3208 H   0  0  0  0  0  0  0  0  0  0  0  0  # atno 10765 bound_to 10752
  141.0903  133.9067  157.2091 H   0  0  0  0  0  0  0  0  0  0  0  0  # atno 11005 bound_to 11000
  146.2566  140.5136  142.8871 LP  0  0  0  0  0  0  0  0  0  0  0  0  # atno 17320 bound_to 7965
  144.8133  140.6425  143.6400 LP  0  0  0  0  0  0  0  0  0  0  0  0  # atno 17321 bound_to 7965
  140.5815  143.2172  151.7419 LP  0  0  0  0  0  0  0  0  0  0  0  0  # atno 17342 bound_to 10162
  139.4964  144.4073  152.0118 LP  0  0  0  0  0  0  0  0  0  0  0  0  # atno 17343 bound_to 10162
  156.0678  130.3689  150.0840 LP  0  0  0  0  0  0  0  0  0  0  0  0  # atno 17370 bound_to 10713
  156.9002  130.9618  151.3577 LP  0  0  0  0  0  0  0  0  0  0  0  0  # atno 17371 bound_to 10713
  139.9727  135.0123  156.9554 LP  0  0  0  0  0  0  0  0  0  0  0  0  # atno 17394 bound_to 11000
  140.5268  134.0853  155.7305 LP  0  0  0  0  0  0  0  0  0  0  0  0  # atno 17395 bound_to 11000

$$$$
