AV-unprocessed.smi:3287|AV-procd|sdf|12598|dock8
  -GOLD-   2272018523D 1   1.00000     0.00000
 Structure written by MMmdl.
 43 44  0  0  0  0  0  0  0  0  2 V2000
  145.3074  130.6152  151.6976 C   0  0  0  0  0  0  0  0  0  0  0  0
  145.7028  132.0875  151.4981 C   0  0  2  0  0  0  0  0  0  0  0  0
  146.0613  132.7709  152.8322 C   0  0  0  0  0  0  0  0  0  0  0  0
  146.5394  134.2158  152.6170 C   0  0  0  0  0  0  0  0  0  0  0  0
  145.5022  135.0506  151.8378 C   0  0  1  0  0  0  0  0  0  0  0  0
  145.9993  136.4171  151.5640 N   0  3  0  0  0  0  0  0  0  0  0  0
  145.8643  137.3784  152.6800 C   0  0  0  0  0  0  0  0  0  0  0  0
  146.3973  138.7682  152.2896 C   0  0  2  0  0  0  0  0  0  0  0  0
  147.4744  138.6050  151.3875 O   0  0  0  0  0  0  0  0  0  0  0  0
  146.8087  139.5653  153.5174 C   0  0  0  0  0  0  0  0  0  0  0  0
  147.2769  140.8896  153.3872 C   0  0  0  0  0  0  0  0  0  0  0  0
  147.6429  141.5929  154.5524 C   0  0  0  0  0  0  0  0  0  0  0  0
  147.5651  141.0648  155.7924 N   0  0  0  0  0  0  0  0  0  0  0  0
  147.1143  139.7980  155.9123 C   0  0  0  0  0  0  0  0  0  0  0  0
  146.7245  139.0084  154.8121 C   0  0  0  0  0  0  0  0  0  0  0  0
  145.1464  134.3543  150.5087 C   0  0  0  0  0  0  0  0  0  0  0  0
  144.6520  132.9053  150.7046 C   0  0  2  0  0  0  0  0  0  0  0  0
  143.2318  132.8624  151.3044 C   0  0  0  0  0  0  0  0  0  0  0  0
  144.4525  130.5117  152.3659 H   0  0  0  0  0  0  0  0  0  0  0  0
  146.1305  130.0477  152.1330 H   0  0  0  0  0  0  0  0  0  0  0  0
  145.0517  130.1438  150.7482 H   0  0  0  0  0  0  0  0  0  0  0  0
  146.6120  132.0771  150.8946 H   0  0  0  0  0  0  0  0  0  0  0  0
  145.2017  132.7634  153.5029 H   0  0  0  0  0  0  0  0  0  0  0  0
  146.8443  132.2048  153.3384 H   0  0  0  0  0  0  0  0  0  0  0  0
  146.7460  134.6657  153.5878 H   0  0  0  0  0  0  0  0  0  0  0  0
  147.4860  134.2052  152.0747 H   0  0  0  0  0  0  0  0  0  0  0  0
  144.5931  135.1391  152.4338 H   0  0  0  0  0  0  0  0  0  0  0  0
  146.9713  136.3645  151.2934 H   0  0  0  0  0  0  0  0  0  0  0  0
  144.8092  137.4547  152.9465 H   0  0  0  0  0  0  0  0  0  0  0  0
  146.3912  137.0109  153.5608 H   0  0  0  0  0  0  0  0  0  0  0  0
  145.6150  139.3198  151.7658 H   0  0  0  0  0  0  0  0  0  0  0  0
  148.0948  139.3040  151.5322 H   0  0  0  0  0  0  0  0  0  0  0  0
  147.3565  141.3619  152.4192 H   0  0  0  0  0  0  0  0  0  0  0  0
  148.0071  142.6074  154.4860 H   0  0  0  0  0  0  0  0  0  0  0  0
  147.0609  139.4013  156.9154 H   0  0  0  0  0  0  0  0  0  0  0  0
  146.3690  137.9996  154.9645 H   0  0  0  0  0  0  0  0  0  0  0  0
  144.3929  134.9330  149.9727 H   0  0  0  0  0  0  0  0  0  0  0  0
  146.0268  134.3408  149.8641 H   0  0  0  0  0  0  0  0  0  0  0  0
  144.5760  132.4607  149.7113 H   0  0  0  0  0  0  0  0  0  0  0  0
  143.2053  133.2264  152.3310 H   0  0  0  0  0  0  0  0  0  0  0  0
  142.8286  131.8499  151.3031 H   0  0  0  0  0  0  0  0  0  0  0  0
  142.5448  133.4760  150.7211 H   0  0  0  0  0  0  0  0  0  0  0  0
  145.4721  136.7855  150.7855 H   0  0  0  0  0  0  0  0  0  0  0  0
  1  2  1  0  0  0  0
  1 19  1  0  0  0  0
  1 20  1  0  0  0  0
  1 21  1  0  0  0  0
  2 17  1  0  0  0  0
  2  3  1  0  0  0  0
  2 22  1  0  0  0  0
  3  4  1  0  0  0  0
  3 23  1  0  0  0  0
  3 24  1  0  0  0  0
  4  5  1  0  0  0  0
  4 25  1  0  0  0  0
  4 26  1  0  0  0  0
  5  6  1  0  0  0  0
  5 16  1  0  0  0  0
  5 27  1  0  0  0  0
  6  7  1  0  0  0  0
  6 28  1  0  0  0  0
  6 43  1  0  0  0  0
  7  8  1  0  0  0  0
  7 29  1  0  0  0  0
  7 30  1  0  0  0  0
  8  9  1  0  0  0  0
  8 10  1  0  0  0  0
  8 31  1  0  0  0  0
  9 32  1  0  0  0  0
 10 15  1  0  0  0  0
 10 11  2  0  0  0  0
 11 12  1  0  0  0  0
 11 33  1  0  0  0  0
 12 13  2  0  0  0  0
 12 34  1  0  0  0  0
 13 14  1  0  0  0  0
 14 15  2  0  0  0  0
 14 35  1  0  0  0  0
 15 36  1  0  0  0  0
 16 17  1  0  0  0  0
 16 37  1  0  0  0  0
 16 38  1  0  0  0  0
 17 18  1  0  0  0  0
 17 39  1  0  0  0  0
 18 40  1  0  0  0  0
 18 41  1  0  0  0  0
 18 42  1  0  0  0  0
M  CHG  1   6   1
M  END
> <s_m_source_file>
AV-unprocessed.smi

> <i_m_source_file_index>
3287

> <i_lp_mmshare_version>
43012

> <i_f3d_flags>
0

> <s_epik_input>
W0NIM11bQ0BASF0xW0NIMl1bQ0gyXVtDQEhdKFtDSDJdW0NASF0xW0NIM10pW05IXVtDSDJdW0NASF0oW09IXSljMltjSF1bY0hdbltjSF1bY0hdMg==

> <s_epik_cmdline>
J2VwaWtfcHl0aG9uJywgJy1waCcsICc3LjAnLCAnLXRuJywgJzgnLCAnLW1hJywgJzIwMCcsICctbWV0YWxfYmluZGluZycsICctaW1hZScsICc8aW5maWxlLm1hZT4nLCAnLW9tYWUnLCAnPG91dGZpbGUubWFlPic=

> <r_lp_tautomer_probability>
1

> <r_epik_Ionization_Penalty>
0.00537262

> <r_epik_Ionization_Penalty_Charging>
0.00321624

> <r_epik_Ionization_Penalty_Neutral>
0.00215638

> <r_epik_State_Penalty>
-0

> <r_epik_Charging_Adjusted_Penalty>
0.00321624

> <i_epik_Tot_Q>
1

> <i_epik_Tot_abs_Q>
1

> <r_epik_Metal_State_Penalty>
-0

> <b_epik_Metal_Only>
0

> <s_lp_Force_Field>
OPLS_2005

> <r_lp_Energy>
18.5341

> <b_lp_Chiralities_Consistent>
1

> <s_lp_Variant>
AV-unprocessed.smi:3287-9

> <Gold.Version>
5.8.1

> <Gold.Id.Protein>
6NUR|6NUR_protein|mol2

> <Gold.PLP.Fitness>
46.2293

> <Gold.PLP.PLP>
-32.4186

> <Gold.PLP.part.hbond>
-3.9283

> <Gold.PLP.part.metal>
0.0000

> <Gold.PLP.part.buried>
-2.0890

> <Gold.PLP.part.nonpolar>
-26.3172

> <Gold.PLP.part.repulsive>
0.1227

> <Gold.PLP.ligand.clash>
0.0000

> <Gold.PLP.ligand.torsion>
0.5280

> <Gold.PLP.Chemscore.Hbond>
3.9520

> <Gold.PLP.Chemscore.CHOScore>
0.9990

> <Gold.PLP.Chemscore.Metal>
0.0000

> <Gold.Chemscore.Hbonds>
donor molecule, donor type, donor heavy atom, donor atom, acceptor molecule, acceptor atom, score
      L1  H     6    28       P1  7948  2.00
      L1  H     9    32       P1  7957  0.94
      P1  H  7954  7966       L1     9  0.94
      L1  C    12    34       P1  8028  0.98

> <Gold.PLP.Chemscore.Internal.Correction>
0.0137

> <Gold.Rescore>
     Score         DG    S(hbond)    S(metal)    S(lipo)     H(rot)  DE(clash)    DE(int)     intcor
     17.26     -17.90       2.11        0.00      87.46       1.90       0.08       0.56       ----

> <Gold.Chemscore.Fitness>
17.2616

> <Gold.Chemscore.DG>
-17.9021

> <Gold.Chemscore.ZeroCoef>
-5.4800

> <Gold.Chemscore.Hbond>
2.1145

> <Gold.Chemscore.Metal>
0.0000

> <Gold.Chemscore.Lipo>
87.4562

> <Gold.Chemscore.Internal_Hbond>
0.0000

> <Gold.Chemscore.DEClash>
0.0766

> <Gold.Chemscore.DEInternal>
0.5639

> <Gold.Chemscore.Rot>
1.9035

> <Gold.Chemscore.Internal.Correction>
   9.000000E+99

> <Gold.Chemscore.Hbonds>
donor molecule, donor type, donor heavy atom, donor atom, acceptor molecule, acceptor atom, score
      L1  H     6    28       P1  7948  0.88
      L1  H     9    32       P1  7957  0.88
      P1  H  7954  7966       L1     9  0.20

> <Gold.Chemscore.Hbond.Weighted>
-7.0626

> <Gold.Chemscore.Metal.Weighted>
-0.0000

> <Gold.Chemscore.Lipo.Weighted>
-10.2324

> <Gold.Chemscore.Internal_Hbond.Weighted>
0.0000

> <Gold.Chemscore.DEClash.Weighted>
0.0766

> <Gold.Chemscore.DEInternal.Weighted>
0.5639

> <Gold.Chemscore.Rot.Weighted>
4.8729

> <Gold.Chemscore.Internal.Correction.Weighted>
   9.000000E+99

> <Gold.Protein.RotatedTorsions>
[ 6907 6896 6895 6894 ] final -133.37 input  -60.11 | X-H torsion
[ 7974 7965 7964 7962 ] final   46.32 input  175.53 | X-H torsion
[ 8008 7997 7996 7995 ] final -169.21 input   59.86 | X-H torsion
[ 10167 10162 10161 10158 ] final  -15.17 input  -65.29 | X-H torsion
[ 10718 10713 10712 10709 ] final -156.56 input   66.30 | X-H torsion
[ 10763 10752 10751 10750 ] final  -98.08 input  -60.55 | X-H torsion
[ 11005 11000 10999 10996 ] final -173.05 input  -57.11 | X-H torsion

> <Gold.Protein.ActiveResidues>
 VAL166  LYS551  ARG553  GLY616  TRP617  ASP618  TYR619  PRO620  LYS621  CYS622 
 ASP623  PHE694  ASN695  SER759  ASP760  ASP761  ALA762  ILE779  LEU786  VAL792 
 PHE793  MET794  SER795  GLU796  ALA797  LYS798  CYS799  TRP800  GLU811  SER814 

> <Gold.Protein.RotatedAtoms>
  150.9732  133.6322  159.2734 H   0  0  0  0  0  0  0  0  0  0  0  0  # atno 6907 bound_to 6896
  151.3604  135.0901  159.9442 H   0  0  0  0  0  0  0  0  0  0  0  0  # atno 6908 bound_to 6896
  152.5190  133.9307  159.7633 H   0  0  0  0  0  0  0  0  0  0  0  0  # atno 6909 bound_to 6896
  146.0400  139.4868  142.9784 H   0  0  0  0  0  0  0  0  0  0  0  0  # atno 7974 bound_to 7965
  155.9019  140.1042  157.1344 H   0  0  0  0  0  0  0  0  0  0  0  0  # atno 8008 bound_to 7997
  154.4027  140.1291  156.4511 H   0  0  0  0  0  0  0  0  0  0  0  0  # atno 8009 bound_to 7997
  155.7413  140.3467  155.5108 H   0  0  0  0  0  0  0  0  0  0  0  0  # atno 8010 bound_to 7997
  140.7214  143.5246  150.9592 H   0  0  0  0  0  0  0  0  0  0  0  0  # atno 10167 bound_to 10162
  156.5283  130.8509  151.2707 H   0  0  0  0  0  0  0  0  0  0  0  0  # atno 10718 bound_to 10713
  154.7384  135.5022  153.9080 H   0  0  0  0  0  0  0  0  0  0  0  0  # atno 10763 bound_to 10752
  153.1018  135.6687  153.9667 H   0  0  0  0  0  0  0  0  0  0  0  0  # atno 10764 bound_to 10752
  153.9451  135.3063  155.3420 H   0  0  0  0  0  0  0  0  0  0  0  0  # atno 10765 bound_to 10752
  140.4901  134.5992  157.4951 H   0  0  0  0  0  0  0  0  0  0  0  0  # atno 11005 bound_to 11000
  145.6900  141.0167  143.1560 LP  0  0  0  0  0  0  0  0  0  0  0  0  # atno 17320 bound_to 7965
  144.7070  139.8522  143.7427 LP  0  0  0  0  0  0  0  0  0  0  0  0  # atno 17321 bound_to 7965
  139.8964  143.6889  152.3138 LP  0  0  0  0  0  0  0  0  0  0  0  0  # atno 17342 bound_to 10162
  139.7223  144.7600  151.0935 LP  0  0  0  0  0  0  0  0  0  0  0  0  # atno 17343 bound_to 10162
  157.7426  130.9894  150.2528 LP  0  0  0  0  0  0  0  0  0  0  0  0  # atno 17370 bound_to 10713
  156.3084  130.3768  149.7684 LP  0  0  0  0  0  0  0  0  0  0  0  0  # atno 17371 bound_to 10713
  139.9774  134.7193  155.9924 LP  0  0  0  0  0  0  0  0  0  0  0  0  # atno 17394 bound_to 11000
  141.1488  133.6551  156.3949 LP  0  0  0  0  0  0  0  0  0  0  0  0  # atno 17395 bound_to 11000

$$$$
