AV-unprocessed.smi:3116|AV-procd|sdf|11863|dock8
  -GOLD-   2272017243D 1   1.00000     0.00000
 Structure written by MMmdl.
 34 34  0  0  0  0  0  0  0  0  2 V2000
  144.6108  135.2807  152.8355 C   0  0  0  0  0  0  0  0  0  0  0  0
  145.2606  136.2556  151.8419 C   0  0  1  0  0  0  0  0  0  0  0  0
  146.4893  136.8317  152.4389 N   0  3  0  0  0  0  0  0  0  0  0  0
  146.4372  138.2783  152.7602 C   0  0  2  0  0  0  0  0  0  0  0  0
  146.5485  139.0790  151.4496 C   0  0  0  0  0  0  0  0  0  0  0  0
  147.5394  138.6504  153.7897 C   0  0  2  0  0  0  0  0  0  0  0  0
  147.5073  137.7736  155.0561 C   0  0  0  0  0  0  0  0  0  0  0  0
  147.4862  140.0591  154.1602 N   0  0  0  0  0  0  0  0  0  0  0  0
  146.5748  141.0146  153.7596 C   0  0  0  0  0  0  0  0  0  0  0  0
  146.9223  142.1892  154.3630 C   0  0  0  0  0  0  0  0  0  0  0  0
  148.0771  141.8511  155.1219 C   0  0  0  0  0  0  0  0  0  0  0  0
  148.4128  140.5772  154.9981 N   0  0  0  0  0  0  0  0  0  0  0  0
  145.5569  135.5366  150.5179 C   0  0  0  0  0  0  0  0  0  0  0  0
  145.0029  136.0430  149.4133 N   0  0  0  0  0  0  0  0  0  0  0  0
  146.2652  134.5317  150.4922 O   0  0  0  0  0  0  0  0  0  0  0  0
  143.6843  134.8655  152.4368 H   0  0  0  0  0  0  0  0  0  0  0  0
  144.3648  135.7832  153.7715 H   0  0  0  0  0  0  0  0  0  0  0  0
  145.2740  134.4472  153.0719 H   0  0  0  0  0  0  0  0  0  0  0  0
  144.5530  137.0642  151.6526 H   0  0  0  0  0  0  0  0  0  0  0  0
  146.6954  136.3350  153.2933 H   0  0  0  0  0  0  0  0  0  0  0  0
  145.4633  138.5151  153.1923 H   0  0  0  0  0  0  0  0  0  0  0  0
  146.4112  140.1481  151.6130 H   0  0  0  0  0  0  0  0  0  0  0  0
  145.7858  138.7679  150.7349 H   0  0  0  0  0  0  0  0  0  0  0  0
  147.5221  138.9367  150.9791 H   0  0  0  0  0  0  0  0  0  0  0  0
  148.5078  138.4937  153.3114 H   0  0  0  0  0  0  0  0  0  0  0  0
  147.7067  136.7276  154.8239 H   0  0  0  0  0  0  0  0  0  0  0  0
  146.5393  137.8257  155.5556 H   0  0  0  0  0  0  0  0  0  0  0  0
  148.2666  138.0924  155.7711 H   0  0  0  0  0  0  0  0  0  0  0  0
  145.7619  140.7827  153.0870 H   0  0  0  0  0  0  0  0  0  0  0  0
  146.4275  143.1449  154.2751 H   0  0  0  0  0  0  0  0  0  0  0  0
  148.6770  142.4886  155.7545 H   0  0  0  0  0  0  0  0  0  0  0  0
  145.1684  135.6100  148.5160 H   0  0  0  0  0  0  0  0  0  0  0  0
  144.4189  136.8647  149.4785 H   0  0  0  0  0  0  0  0  0  0  0  0
  147.2453  136.6736  151.7877 H   0  0  0  0  0  0  0  0  0  0  0  0
  1  2  1  0  0  0  0
  1 16  1  0  0  0  0
  1 17  1  0  0  0  0
  1 18  1  0  0  0  0
  2  3  1  0  0  0  0
  2 13  1  0  0  0  0
  2 19  1  0  0  0  0
  3  4  1  0  0  0  0
  3 20  1  0  0  0  0
  3 34  1  0  0  0  0
  4  5  1  0  0  0  0
  4  6  1  0  0  0  0
  4 21  1  0  0  0  0
  5 22  1  0  0  0  0
  5 23  1  0  0  0  0
  5 24  1  0  0  0  0
  6  7  1  0  0  0  0
  6  8  1  0  0  0  0
  6 25  1  0  0  0  0
  7 26  1  0  0  0  0
  7 27  1  0  0  0  0
  7 28  1  0  0  0  0
  8 12  1  0  0  0  0
  8  9  1  0  0  0  0
  9 10  2  0  0  0  0
  9 29  1  0  0  0  0
 10 11  1  0  0  0  0
 10 30  1  0  0  0  0
 11 12  2  0  0  0  0
 11 31  1  0  0  0  0
 13 14  1  0  0  0  0
 13 15  2  0  0  0  0
 14 32  1  0  0  0  0
 14 33  1  0  0  0  0
M  CHG  1   3   1
M  END
> <s_m_source_file>
AV-unprocessed.smi

> <i_m_source_file_index>
3116

> <i_lp_mmshare_version>
43012

> <i_f3d_flags>
0

> <s_epik_input>
W05IMl1DKD1PKVtDQEhdKFtDSDNdKVtOSF1bQ0BIXShbQ0gzXSlbQ0BIXShbQ0gzXSluMVtjSF1bY0hdW2NIXW4x

> <s_epik_cmdline>
J2VwaWtfcHl0aG9uJywgJy1waCcsICc3LjAnLCAnLXRuJywgJzgnLCAnLW1hJywgJzIwMCcsICctbWV0YWxfYmluZGluZycsICctaW1hZScsICc8aW5maWxlLm1hZT4nLCAnLW9tYWUnLCAnPG91dGZpbGUubWFlPic=

> <r_lp_tautomer_probability>
1

> <r_epik_Ionization_Penalty>
0.15658

> <r_epik_Ionization_Penalty_Charging>
0.156568

> <r_epik_Ionization_Penalty_Neutral>
1.19778e-05

> <r_epik_State_Penalty>
0.145866

> <r_epik_Charging_Adjusted_Penalty>
0.302434

> <i_epik_Tot_Q>
1

> <i_epik_Tot_abs_Q>
1

> <r_epik_Metal_State_Penalty>
0.146064

> <b_epik_Metal_Only>
0

> <s_lp_Force_Field>
OPLS_2005

> <r_lp_Energy>
10.4239

> <b_lp_Chiralities_Consistent>
1

> <s_lp_Variant>
AV-unprocessed.smi:3116-2

> <Gold.Version>
5.8.1

> <Gold.Id.Protein>
6NUR|6NUR_protein|mol2

> <Gold.PLP.Fitness>
41.6548

> <Gold.PLP.PLP>
-25.8923

> <Gold.PLP.part.hbond>
-2.8960

> <Gold.PLP.part.metal>
0.0000

> <Gold.PLP.part.buried>
-0.0155

> <Gold.PLP.part.nonpolar>
-22.6350

> <Gold.PLP.part.repulsive>
0.4564

> <Gold.PLP.ligand.clash>
0.0000

> <Gold.PLP.ligand.torsion>
0.9340

> <Gold.PLP.Chemscore.Hbond>
4.0000

> <Gold.PLP.Chemscore.CHOScore>
1.8443

> <Gold.PLP.Chemscore.Metal>
0.0000

> <Gold.Chemscore.Hbonds>
donor molecule, donor type, donor heavy atom, donor atom, acceptor molecule, acceptor atom, score
      L1  H     3    34       P1  7948  1.57
      L1  H    14    32       P1  7921  0.92
      L1  H    14    33       P1 10171  1.00
      L1  C     9    29       P1 10175  1.00
      L1  C    11    31       P1  8028  0.94

> <Gold.PLP.Chemscore.Internal.Correction>
0.0978

> <Gold.Rescore>
     Score         DG    S(hbond)    S(metal)    S(lipo)     H(rot)  DE(clash)    DE(int)     intcor
     12.51     -14.51       2.93        0.00      46.95       2.45       0.83       1.18       ----

> <Gold.Chemscore.Fitness>
12.5075

> <Gold.Chemscore.DG>
-14.5101

> <Gold.Chemscore.ZeroCoef>
-5.4800

> <Gold.Chemscore.Hbond>
2.9340

> <Gold.Chemscore.Metal>
0.0000

> <Gold.Chemscore.Lipo>
46.9537

> <Gold.Chemscore.Internal_Hbond>
0.0000

> <Gold.Chemscore.DEClash>
0.8263

> <Gold.Chemscore.DEInternal>
1.1763

> <Gold.Chemscore.Rot>
2.4465

> <Gold.Chemscore.Internal.Correction>
   9.000000E+99

> <Gold.Chemscore.Hbonds>
donor molecule, donor type, donor heavy atom, donor atom, acceptor molecule, acceptor atom, score
      L1  H     3    34       P1  7948  0.78
      L1  H    14    32       P1  7921  0.84
      L1  H    14    33       P1 10171  1.00

> <Gold.Chemscore.Hbond.Weighted>
-9.7996

> <Gold.Chemscore.Metal.Weighted>
-0.0000

> <Gold.Chemscore.Lipo.Weighted>
-5.4936

> <Gold.Chemscore.Internal_Hbond.Weighted>
0.0000

> <Gold.Chemscore.DEClash.Weighted>
0.8263

> <Gold.Chemscore.DEInternal.Weighted>
1.1763

> <Gold.Chemscore.Rot.Weighted>
6.2631

> <Gold.Chemscore.Internal.Correction.Weighted>
   9.000000E+99

> <Gold.Protein.RotatedTorsions>
[ 6907 6896 6895 6894 ] final -166.61 input  -60.11 | X-H torsion
[ 7974 7965 7964 7962 ] final -111.12 input  175.53 | X-H torsion
[ 8008 7997 7996 7995 ] final -147.70 input   59.86 | X-H torsion
[ 10167 10162 10161 10158 ] final  -33.26 input  -65.29 | X-H torsion
[ 10718 10713 10712 10709 ] final  -41.40 input   66.30 | X-H torsion
[ 10763 10752 10751 10750 ] final   72.77 input  -60.55 | X-H torsion
[ 11005 11000 10999 10996 ] final  -89.12 input  -57.11 | X-H torsion

> <Gold.Protein.ActiveResidues>
 VAL166  LYS551  ARG553  GLY616  TRP617  ASP618  TYR619  PRO620  LYS621  CYS622 
 ASP623  PHE694  ASN695  SER759  ASP760  ASP761  ALA762  ILE779  LEU786  VAL792 
 PHE793  MET794  SER795  GLU796  ALA797  LYS798  CYS799  TRP800  GLU811  SER814 

> <Gold.Protein.RotatedAtoms>
  151.4464  133.3629  159.2788 H   0  0  0  0  0  0  0  0  0  0  0  0  # atno 6907 bound_to 6896
  150.9121  134.8540  159.7443 H   0  0  0  0  0  0  0  0  0  0  0  0  # atno 6908 bound_to 6896
  152.4938  134.4395  159.9590 H   0  0  0  0  0  0  0  0  0  0  0  0  # atno 6909 bound_to 6896
  145.1599  140.8873  143.3597 H   0  0  0  0  0  0  0  0  0  0  0  0  # atno 7974 bound_to 7965
  155.5797  140.0642  157.2786 H   0  0  0  0  0  0  0  0  0  0  0  0  # atno 8008 bound_to 7997
  154.4336  140.1854  156.1010 H   0  0  0  0  0  0  0  0  0  0  0  0  # atno 8009 bound_to 7997
  156.0314  140.3306  155.7147 H   0  0  0  0  0  0  0  0  0  0  0  0  # atno 8010 bound_to 7997
  140.7207  143.3633  151.1920 H   0  0  0  0  0  0  0  0  0  0  0  0  # atno 10167 bound_to 10162
  156.2708  130.4206  149.8440 H   0  0  0  0  0  0  0  0  0  0  0  0  # atno 10718 bound_to 10713
  153.0480  135.5087  154.7794 H   0  0  0  0  0  0  0  0  0  0  0  0  # atno 10763 bound_to 10752
  154.6679  135.2948  154.9783 H   0  0  0  0  0  0  0  0  0  0  0  0  # atno 10764 bound_to 10752
  154.0611  135.6691  153.4864 H   0  0  0  0  0  0  0  0  0  0  0  0  # atno 10765 bound_to 10752
  141.1590  133.7611  156.9549 H   0  0  0  0  0  0  0  0  0  0  0  0  # atno 11005 bound_to 11000
  145.0342  139.3315  143.6009 LP  0  0  0  0  0  0  0  0  0  0  0  0  # atno 17320 bound_to 7965
  146.3484  139.9691  142.8708 LP  0  0  0  0  0  0  0  0  0  0  0  0  # atno 17321 bound_to 7965
  139.7190  143.9254  152.2978 LP  0  0  0  0  0  0  0  0  0  0  0  0  # atno 17342 bound_to 10162
  139.9005  144.6914  150.8671 LP  0  0  0  0  0  0  0  0  0  0  0  0  # atno 17343 bound_to 10162
  156.5922  130.8511  151.3411 LP  0  0  0  0  0  0  0  0  0  0  0  0  # atno 17370 bound_to 10713
  157.7283  130.9655  150.1737 LP  0  0  0  0  0  0  0  0  0  0  0  0  # atno 17371 bound_to 10713
  140.1232  134.9403  157.2233 LP  0  0  0  0  0  0  0  0  0  0  0  0  # atno 17394 bound_to 11000
  140.3045  134.3093  155.7281 LP  0  0  0  0  0  0  0  0  0  0  0  0  # atno 17395 bound_to 11000

$$$$
