AV-unprocessed.smi:141|AV-procd|sdf|1188|dock7
  -GOLD-   2262018343D 1   1.00000     0.00000
 Structure written by MMmdl.
 56 59  0  0  0  0  0  0  0  0  1 V2000
  151.9869  137.2411  154.8868 O   0  0  0  0  0  0  0  0  0  0  0  0
  150.8726  137.7332  155.0759 C   0  0  0  0  0  0  0  0  0  0  0  0
  150.5587  139.1238  154.4838 C   0  0  0  0  0  0  0  0  0  0  0  0
  150.3030  140.1620  155.5078 N   0  0  0  0  0  0  0  0  0  0  0  0
  149.0020  140.7161  155.6047 C   0  0  0  0  0  0  0  0  0  0  0  0
  148.0901  140.3367  154.8683 O   0  0  0  0  0  0  0  0  0  0  0  0
  148.8331  141.7563  156.6133 C   0  0  0  0  0  0  0  0  0  0  0  0
  147.6345  142.3434  156.7693 F   0  0  0  0  0  0  0  0  0  0  0  0
  149.8650  142.1448  157.3901 C   0  0  0  0  0  0  0  0  0  0  0  0
  151.1285  141.5922  157.2877 N   0  0  0  0  0  0  0  0  0  0  0  0
  152.2687  142.0669  158.1609 C   0  0  1  0  0  0  0  0  0  0  0  0
  152.5195  143.5626  157.9363 C   0  0  0  0  0  0  0  0  0  0  0  0
  151.7044  144.1854  159.0487 C   0  0  0  0  0  0  0  0  0  0  0  0
  151.8752  143.1590  160.1624 C   0  0  0  0  0  0  0  0  0  0  0  0
  151.9186  141.8953  159.5046 O   0  0  0  0  0  0  0  0  0  0  0  0
  151.3771  140.5904  156.3245 C   0  0  0  0  0  0  0  0  0  0  0  0
  152.5055  140.1117  156.1915 O   0  0  0  0  0  0  0  0  0  0  0  0
  149.9139  137.0890  155.7855 N   0  0  0  0  0  0  0  0  0  0  0  0
  150.0701  135.7922  156.4581 C   0  0  0  0  0  0  0  0  0  0  0  0
  150.0525  136.0175  157.9809 C   0  0  0  0  0  0  0  0  0  0  0  0
  148.7593  136.7363  158.4269 C   0  0  0  0  0  0  0  0  0  0  0  0
  148.7587  137.0463  159.9407 C   0  0  0  0  0  0  0  0  0  0  0  0
  147.9272  136.0582  160.7377 C   0  0  0  0  0  0  0  0  0  0  0  0
  147.5780  134.8119  160.1767 C   0  0  0  0  0  0  0  0  0  0  0  0
  146.8133  133.8913  160.9194 C   0  0  0  0  0  0  0  0  0  0  0  0
  146.3969  134.2133  162.2258 C   0  0  0  0  0  0  0  0  0  0  0  0
  146.7463  135.4559  162.7897 C   0  0  0  0  0  0  0  0  0  0  0  0
  147.5103  136.3773  162.0470 C   0  0  0  0  0  0  0  0  0  0  0  0
  148.5227  138.0038  157.5764 C   0  0  0  0  0  0  0  0  0  0  0  0
  148.6044  137.6880  156.0721 C   0  0  0  0  0  0  0  0  0  0  0  0
  151.3838  139.4255  153.8367 H   0  0  0  0  0  0  0  0  0  0  0  0
  149.7030  139.0349  153.8129 H   0  0  0  0  0  0  0  0  0  0  0  0
  149.6836  142.9260  158.1133 H   0  0  0  0  0  0  0  0  0  0  0  0
  153.1231  141.4320  157.9207 H   0  0  0  0  0  0  0  0  0  0  0  0
  153.5816  143.7631  158.0827 H   0  0  0  0  0  0  0  0  0  0  0  0
  152.2324  143.8892  156.9360 H   0  0  0  0  0  0  0  0  0  0  0  0
  152.0496  145.1808  159.3284 H   0  0  0  0  0  0  0  0  0  0  0  0
  150.6566  144.2564  158.7547 H   0  0  0  0  0  0  0  0  0  0  0  0
  152.8225  143.3164  160.6801 H   0  0  0  0  0  0  0  0  0  0  0  0
  151.0732  143.2001  160.8996 H   0  0  0  0  0  0  0  0  0  0  0  0
  149.2452  135.1391  156.1695 H   0  0  0  0  0  0  0  0  0  0  0  0
  150.9735  135.2541  156.1765 H   0  0  0  0  0  0  0  0  0  0  0  0
  150.1424  135.0606  158.4963 H   0  0  0  0  0  0  0  0  0  0  0  0
  150.9246  136.6075  158.2671 H   0  0  0  0  0  0  0  0  0  0  0  0
  147.9295  136.0606  158.2112 H   0  0  0  0  0  0  0  0  0  0  0  0
  149.7749  137.0489  160.3375 H   0  0  0  0  0  0  0  0  0  0  0  0
  148.3752  138.0502  160.1286 H   0  0  0  0  0  0  0  0  0  0  0  0
  147.8977  134.5577  159.1765 H   0  0  0  0  0  0  0  0  0  0  0  0
  146.5472  132.9379  160.4873 H   0  0  0  0  0  0  0  0  0  0  0  0
  145.8112  133.5069  162.7954 H   0  0  0  0  0  0  0  0  0  0  0  0
  146.4291  135.7018  163.7923 H   0  0  0  0  0  0  0  0  0  0  0  0
  147.7777  137.3280  162.4852 H   0  0  0  0  0  0  0  0  0  0  0  0
  147.5479  138.4330  157.8108 H   0  0  0  0  0  0  0  0  0  0  0  0
  149.2649  138.7636  157.8265 H   0  0  0  0  0  0  0  0  0  0  0  0
  148.4137  138.5929  155.4941 H   0  0  0  0  0  0  0  0  0  0  0  0
  147.8165  136.9875  155.7916 H   0  0  0  0  0  0  0  0  0  0  0  0
  1  2  2  0  0  0  0
  2  3  1  0  0  0  0
  2 18  1  0  0  0  0
  3  4  1  0  0  0  0
  3 31  1  0  0  0  0
  3 32  1  0  0  0  0
  4 16  1  0  0  0  0
  4  5  1  0  0  0  0
  5  6  2  0  0  0  0
  5  7  1  0  0  0  0
  7  8  1  0  0  0  0
  7  9  2  0  0  0  0
  9 10  1  0  0  0  0
  9 33  1  0  0  0  0
 10 11  1  0  0  0  0
 10 16  1  0  0  0  0
 11 15  1  0  0  0  0
 11 12  1  0  0  0  0
 11 34  1  0  0  0  0
 12 13  1  0  0  0  0
 12 35  1  0  0  0  0
 12 36  1  0  0  0  0
 13 14  1  0  0  0  0
 13 37  1  0  0  0  0
 13 38  1  0  0  0  0
 14 15  1  0  0  0  0
 14 39  1  0  0  0  0
 14 40  1  0  0  0  0
 16 17  2  0  0  0  0
 18 30  1  0  0  0  0
 18 19  1  0  0  0  0
 19 20  1  0  0  0  0
 19 41  1  0  0  0  0
 19 42  1  0  0  0  0
 20 21  1  0  0  0  0
 20 43  1  0  0  0  0
 20 44  1  0  0  0  0
 21 22  1  0  0  0  0
 21 29  1  0  0  0  0
 21 45  1  0  0  0  0
 22 23  1  0  0  0  0
 22 46  1  0  0  0  0
 22 47  1  0  0  0  0
 23 28  1  0  0  0  0
 23 24  2  0  0  0  0
 24 25  1  0  0  0  0
 24 48  1  0  0  0  0
 25 26  2  0  0  0  0
 25 49  1  0  0  0  0
 26 27  1  0  0  0  0
 26 50  1  0  0  0  0
 27 28  2  0  0  0  0
 27 51  1  0  0  0  0
 28 52  1  0  0  0  0
 29 30  1  0  0  0  0
 29 53  1  0  0  0  0
 29 54  1  0  0  0  0
 30 55  1  0  0  0  0
 30 56  1  0  0  0  0
M  END
> <s_m_source_file>
AV-unprocessed.smi

> <i_m_source_file_index>
141

> <i_lp_mmshare_version>
43012

> <i_f3d_flags>
0

> <s_epik_input>
W2NIXTFbY0hdW2NIXVtjSF1bY0hdYzFbQ0gyXVtDSF0oW0NIMl1bQ0gyXTIpW0NIMl1bQ0gyXU4yQyg9TylbQ0gyXW4zYyg9TyljKEYpW2NIXW4oYzM9TylbQ0BASF00W0NIMl1bQ0gyXVtDSDJdTzQ=

> <s_epik_cmdline>
J2VwaWtfcHl0aG9uJywgJy1waCcsICc3LjAnLCAnLXRuJywgJzgnLCAnLW1hJywgJzIwMCcsICctbWV0YWxfYmluZGluZycsICctaW1hZScsICc8aW5maWxlLm1hZT4nLCAnLW9tYWUnLCAnPG91dGZpbGUubWFlPic=

> <r_lp_tautomer_probability>
1

> <r_epik_Ionization_Penalty>
3.78313e-08

> <r_epik_Ionization_Penalty_Charging>
4.95074e-09

> <r_epik_Ionization_Penalty_Neutral>
3.28806e-08

> <r_epik_State_Penalty>
-0

> <r_epik_Charging_Adjusted_Penalty>
4.95074e-09

> <i_epik_Tot_Q>
0

> <i_epik_Tot_abs_Q>
0

> <r_epik_Metal_State_Penalty>
-0

> <b_epik_Metal_Only>
0

> <s_epik_Chemistry_Notes>
This compound contains an acetal/aminal-like group ( X-CH(R)-Y where X, Y are N, S, or O) that may be acid/base labile, releasing an aldehyde.

> <s_lp_Force_Field>
OPLS_2005

> <r_lp_Energy>
51.0645

> <b_lp_Chiralities_Consistent>
1

> <s_lp_Variant>
AV-unprocessed.smi:141-2

> <Gold.Version>
5.8.1

> <Gold.Id.Protein>
6NUR|6NUR_protein|mol2

> <Gold.PLP.Fitness>
52.2377

> <Gold.PLP.PLP>
-48.2935

> <Gold.PLP.part.hbond>
-2.0000

> <Gold.PLP.part.metal>
0.0000

> <Gold.PLP.part.buried>
-2.8579

> <Gold.PLP.part.nonpolar>
-43.1554

> <Gold.PLP.part.repulsive>
0.1772

> <Gold.PLP.ligand.clash>
0.0000

> <Gold.PLP.ligand.torsion>
0.9392

> <Gold.PLP.Chemscore.Hbond>
1.9199

> <Gold.PLP.Chemscore.CHOScore>
0.0000

> <Gold.PLP.Chemscore.Metal>
0.0000

> <Gold.Chemscore.Hbonds>
donor molecule, donor type, donor heavy atom, donor atom, acceptor molecule, acceptor atom, score
      P1  H  7997  8008       L1    17  1.00
      P1  H 10752 10763       L1     1  0.90

> <Gold.PLP.Chemscore.Internal.Correction>
0.0630

> <Gold.Rescore>
     Score         DG    S(hbond)    S(metal)    S(lipo)     H(rot)  DE(clash)    DE(int)     intcor
     15.30     -19.31       1.86        0.00     105.52       1.85       0.43       3.58       ----

> <Gold.Chemscore.Fitness>
15.2964

> <Gold.Chemscore.DG>
-19.3057

> <Gold.Chemscore.ZeroCoef>
-5.4800

> <Gold.Chemscore.Hbond>
1.8580

> <Gold.Chemscore.Metal>
0.0000

> <Gold.Chemscore.Lipo>
105.5197

> <Gold.Chemscore.Internal_Hbond>
0.0000

> <Gold.Chemscore.DEClash>
0.4320

> <Gold.Chemscore.DEInternal>
3.5773

> <Gold.Chemscore.Rot>
1.8461

> <Gold.Chemscore.Internal.Correction>
   9.000000E+99

> <Gold.Chemscore.Hbonds>
donor molecule, donor type, donor heavy atom, donor atom, acceptor molecule, acceptor atom, score
      P1  H  7997  8008       L1    17  0.99
      P1  H 10752 10763       L1     1  0.88

> <Gold.Chemscore.Hbond.Weighted>
-6.2059

> <Gold.Chemscore.Metal.Weighted>
-0.0000

> <Gold.Chemscore.Lipo.Weighted>
-12.3458

> <Gold.Chemscore.Internal_Hbond.Weighted>
0.0000

> <Gold.Chemscore.DEClash.Weighted>
0.4320

> <Gold.Chemscore.DEInternal.Weighted>
3.5773

> <Gold.Chemscore.Rot.Weighted>
4.7260

> <Gold.Chemscore.Internal.Correction.Weighted>
   9.000000E+99

> <Gold.Protein.RotatedTorsions>
[ 6907 6896 6895 6894 ] final -177.02 input  -60.11 | X-H torsion
[ 7974 7965 7964 7962 ] final -131.51 input  175.53 | X-H torsion
[ 8008 7997 7996 7995 ] final  -35.76 input   59.86 | X-H torsion
[ 10167 10162 10161 10158 ] final  -30.86 input  -65.29 | X-H torsion
[ 10718 10713 10712 10709 ] final -161.98 input   66.30 | X-H torsion
[ 10763 10752 10751 10750 ] final   47.63 input  -60.55 | X-H torsion
[ 11005 11000 10999 10996 ] final  -22.91 input  -57.11 | X-H torsion

> <Gold.Protein.ActiveResidues>
 VAL166  LYS551  ARG553  GLY616  TRP617  ASP618  TYR619  PRO620  LYS621  CYS622 
 ASP623  PHE694  ASN695  SER759  ASP760  ASP761  ALA762  ILE779  LEU786  VAL792 
 PHE793  MET794  SER795  GLU796  ALA797  LYS798  CYS799  TRP800  GLU811  SER814 

> <Gold.Protein.RotatedAtoms>
  151.6142  133.3344  159.3073 H   0  0  0  0  0  0  0  0  0  0  0  0  # atno 6907 bound_to 6896
  150.8140  134.7315  159.6725 H   0  0  0  0  0  0  0  0  0  0  0  0  # atno 6908 bound_to 6896
  152.4236  134.5914  160.0027 H   0  0  0  0  0  0  0  0  0  0  0  0  # atno 6909 bound_to 6896
  144.9372  140.7197  143.4869 H   0  0  0  0  0  0  0  0  0  0  0  0  # atno 7974 bound_to 7965
  154.4088  140.1648  156.2264 H   0  0  0  0  0  0  0  0  0  0  0  0  # atno 8008 bound_to 7997
  155.9320  140.3414  155.6234 H   0  0  0  0  0  0  0  0  0  0  0  0  # atno 8009 bound_to 7997
  155.7095  140.0755  157.2368 H   0  0  0  0  0  0  0  0  0  0  0  0  # atno 8010 bound_to 7997
  140.7244  143.3816  151.1591 H   0  0  0  0  0  0  0  0  0  0  0  0  # atno 10167 bound_to 10162
  156.6040  130.8822  151.2920 H   0  0  0  0  0  0  0  0  0  0  0  0  # atno 10718 bound_to 10713
  152.9798  135.5970  154.3794 H   0  0  0  0  0  0  0  0  0  0  0  0  # atno 10763 bound_to 10752
  154.3460  135.2767  155.2399 H   0  0  0  0  0  0  0  0  0  0  0  0  # atno 10764 bound_to 10752
  154.4460  135.6001  153.6215 H   0  0  0  0  0  0  0  0  0  0  0  0  # atno 10765 bound_to 10752
  140.8702  133.7726  156.0177 H   0  0  0  0  0  0  0  0  0  0  0  0  # atno 11005 bound_to 11000
  145.3048  139.1838  143.4670 LP  0  0  0  0  0  0  0  0  0  0  0  0  # atno 17320 bound_to 7965
  146.3271  140.3044  142.8622 LP  0  0  0  0  0  0  0  0  0  0  0  0  # atno 17321 bound_to 7965
  139.7405  143.8931  152.3048 LP  0  0  0  0  0  0  0  0  0  0  0  0  # atno 17342 bound_to 10162
  139.8751  144.7048  150.8942 LP  0  0  0  0  0  0  0  0  0  0  0  0  # atno 17343 bound_to 10162
  157.7272  130.9640  150.1689 LP  0  0  0  0  0  0  0  0  0  0  0  0  # atno 17370 bound_to 10713
  156.2445  130.3694  149.8300 LP  0  0  0  0  0  0  0  0  0  0  0  0  # atno 17371 bound_to 10713
  140.8582  134.2872  157.5246 LP  0  0  0  0  0  0  0  0  0  0  0  0  # atno 17394 bound_to 11000
  139.8711  134.9504  156.4054 LP  0  0  0  0  0  0  0  0  0  0  0  0  # atno 17395 bound_to 11000

$$$$
