AV-unprocessed.smi:1793|AV-procd|sdf|7226|dock1
  -GOLD-   22720 8473D 1   1.00000     0.00000
 Structure written by MMmdl.
 46 48  0  0  0  0  0  0  0  0  1 V2000
  148.3930  135.9146  160.9103 C   0  0  0  0  0  0  0  0  0  0  0  0
  147.3783  136.1517  159.7825 C   0  0  2  0  0  0  0  0  0  0  0  0
  147.9449  137.1112  158.8361 N   0  0  0  0  0  0  0  0  0  0  0  0
  149.1538  137.0286  158.2617 C   0  0  0  0  0  0  0  0  0  0  0  0
  149.9496  136.1132  158.4707 O   0  0  0  0  0  0  0  0  0  0  0  0
  149.3598  138.0562  157.4217 N   0  0  0  0  0  0  0  0  0  0  0  0
  150.4606  138.2607  156.5433 C   0  0  0  0  0  0  0  0  0  0  0  0
  151.7076  137.6255  156.7618 C   0  0  0  0  0  0  0  0  0  0  0  0
  152.7857  137.9081  155.9058 C   0  0  0  0  0  0  0  0  0  0  0  0
  152.5843  138.8323  154.8677 C   0  0  0  0  0  0  0  0  0  0  0  0
  151.4090  139.4573  154.6557 N   0  0  0  0  0  0  0  0  0  0  0  0
  150.3544  139.1840  155.4632 C   0  0  0  0  0  0  0  0  0  0  0  0
  149.1446  139.8605  155.1813 N   0  0  0  0  0  0  0  0  0  0  0  0
  149.1466  141.0740  154.3712 C   0  0  0  0  0  0  0  0  0  0  0  0
  147.6883  141.2882  153.9768 C   0  0  0  0  0  0  0  0  0  0  0  0
  147.1875  139.8587  153.7961 C   0  0  0  0  0  0  0  0  0  0  0  0
  147.9647  139.0656  154.8521 C   0  0  0  0  0  0  0  0  0  0  0  0
  146.0272  136.6593  160.3286 C   0  0  1  0  0  0  0  0  0  0  0  0
  145.3251  135.7213  161.3110 C   0  0  0  0  0  0  0  0  0  0  0  0
  144.4095  136.6518  162.0867 C   0  0  0  0  0  0  0  0  0  0  0  0
  145.0218  138.0389  161.8707 C   0  0  0  0  0  0  0  0  0  0  0  0
  146.2116  137.8207  161.1231 O   0  0  0  0  0  0  0  0  0  0  0  0
  148.0244  135.1772  161.6237 H   0  0  0  0  0  0  0  0  0  0  0  0
  148.5993  136.8337  161.4599 H   0  0  0  0  0  0  0  0  0  0  0  0
  149.3391  135.5428  160.5156 H   0  0  0  0  0  0  0  0  0  0  0  0
  147.2145  135.1956  159.2819 H   0  0  0  0  0  0  0  0  0  0  0  0
  147.3627  137.8999  158.5952 H   0  0  0  0  0  0  0  0  0  0  0  0
  148.5827  138.6880  157.2938 H   0  0  0  0  0  0  0  0  0  0  0  0
  151.8610  136.9439  157.5843 H   0  0  0  0  0  0  0  0  0  0  0  0
  153.7467  137.4368  156.0502 H   0  0  0  0  0  0  0  0  0  0  0  0
  153.3897  139.0821  154.1930 H   0  0  0  0  0  0  0  0  0  0  0  0
  149.5457  141.9229  154.9267 H   0  0  0  0  0  0  0  0  0  0  0  0
  149.7488  140.9373  153.4720 H   0  0  0  0  0  0  0  0  0  0  0  0
  147.1477  141.7733  154.7907 H   0  0  0  0  0  0  0  0  0  0  0  0
  147.5753  141.8990  153.0807 H   0  0  0  0  0  0  0  0  0  0  0  0
  146.1067  139.7675  153.9080 H   0  0  0  0  0  0  0  0  0  0  0  0
  147.4533  139.5019  152.8001 H   0  0  0  0  0  0  0  0  0  0  0  0
  148.2267  138.0702  154.4906 H   0  0  0  0  0  0  0  0  0  0  0  0
  147.3564  138.9509  155.7496 H   0  0  0  0  0  0  0  0  0  0  0  0
  145.3518  136.9006  159.5051 H   0  0  0  0  0  0  0  0  0  0  0  0
  144.7870  134.9116  160.8169 H   0  0  0  0  0  0  0  0  0  0  0  0
  146.0532  135.2774  161.9915 H   0  0  0  0  0  0  0  0  0  0  0  0
  143.3944  136.6203  161.6893 H   0  0  0  0  0  0  0  0  0  0  0  0
  144.3665  136.3794  163.1418 H   0  0  0  0  0  0  0  0  0  0  0  0
  144.3444  138.6724  161.2967 H   0  0  0  0  0  0  0  0  0  0  0  0
  145.2464  138.5452  162.8097 H   0  0  0  0  0  0  0  0  0  0  0  0
  1  2  1  0  0  0  0
  1 23  1  0  0  0  0
  1 24  1  0  0  0  0
  1 25  1  0  0  0  0
  2  3  1  0  0  0  0
  2 18  1  0  0  0  0
  2 26  1  0  0  0  0
  3  4  1  0  0  0  0
  3 27  1  0  0  0  0
  4  5  2  0  0  0  0
  4  6  1  0  0  0  0
  6  7  1  0  0  0  0
  6 28  1  0  0  0  0
  7 12  1  0  0  0  0
  7  8  2  0  0  0  0
  8  9  1  0  0  0  0
  8 29  1  0  0  0  0
  9 10  2  0  0  0  0
  9 30  1  0  0  0  0
 10 11  1  0  0  0  0
 10 31  1  0  0  0  0
 11 12  2  0  0  0  0
 12 13  1  0  0  0  0
 13 17  1  0  0  0  0
 13 14  1  0  0  0  0
 14 15  1  0  0  0  0
 14 32  1  0  0  0  0
 14 33  1  0  0  0  0
 15 16  1  0  0  0  0
 15 34  1  0  0  0  0
 15 35  1  0  0  0  0
 16 17  1  0  0  0  0
 16 36  1  0  0  0  0
 16 37  1  0  0  0  0
 17 38  1  0  0  0  0
 17 39  1  0  0  0  0
 18 22  1  0  0  0  0
 18 19  1  0  0  0  0
 18 40  1  0  0  0  0
 19 20  1  0  0  0  0
 19 41  1  0  0  0  0
 19 42  1  0  0  0  0
 20 21  1  0  0  0  0
 20 43  1  0  0  0  0
 20 44  1  0  0  0  0
 21 22  1  0  0  0  0
 21 45  1  0  0  0  0
 21 46  1  0  0  0  0
M  END
> <s_m_source_file>
AV-unprocessed.smi

> <i_m_source_file_index>
1793

> <i_lp_mmshare_version>
43012

> <i_f3d_flags>
0

> <s_epik_input>
TzFbQ0gyXVtDSDJdW0NIMl1bQ0BIXTFbQ0BIXShbQ0gzXSlbTkhdQyg9TylbTkhdYzJbY0hdW2NIXVtjSF1uYzJOM1tDSDJdW0NIMl1bQ0gyXVtDSDJdMw==

> <s_epik_cmdline>
J2VwaWtfcHl0aG9uJywgJy1waCcsICc3LjAnLCAnLXRuJywgJzgnLCAnLW1hJywgJzIwMCcsICctbWV0YWxfYmluZGluZycsICctaW1hZScsICc8aW5maWxlLm1hZT4nLCAnLW9tYWUnLCAnPG91dGZpbGUubWFlPic=

> <r_lp_tautomer_probability>
1

> <r_epik_Ionization_Penalty>
0.0992086

> <r_epik_Ionization_Penalty_Charging>
0

> <r_epik_Ionization_Penalty_Neutral>
0.0992086

> <r_epik_State_Penalty>
0.0887141

> <r_epik_Charging_Adjusted_Penalty>
0.0887141

> <i_epik_Tot_Q>
0

> <i_epik_Tot_abs_Q>
0

> <r_epik_Metal_State_Penalty>
0.075945

> <b_epik_Metal_Only>
0

> <s_lp_Force_Field>
OPLS_2005

> <r_lp_Energy>
46.1922

> <b_lp_Chiralities_Consistent>
1

> <s_lp_Variant>
AV-unprocessed.smi:1793-3

> <Gold.Version>
5.8.1

> <Gold.Id.Protein>
6NUR|6NUR_protein|mol2

> <Gold.PLP.Fitness>
36.7563

> <Gold.PLP.PLP>
-28.2062

> <Gold.PLP.part.hbond>
-2.8635

> <Gold.PLP.part.metal>
0.0000

> <Gold.PLP.part.buried>
-5.0923

> <Gold.PLP.part.nonpolar>
-20.9992

> <Gold.PLP.part.repulsive>
0.3006

> <Gold.PLP.ligand.clash>
0.0000

> <Gold.PLP.ligand.torsion>
0.4211

> <Gold.PLP.Chemscore.Hbond>
3.0000

> <Gold.PLP.Chemscore.CHOScore>
0.0000

> <Gold.PLP.Chemscore.Metal>
0.0000

> <Gold.Chemscore.Hbonds>
donor molecule, donor type, donor heavy atom, donor atom, acceptor molecule, acceptor atom, score
      P1  H  6896  6907       L1     5  1.00
      P1  H  6934  6947       L1    22  1.00
      P1  H  7989  7998       L1    11  1.00

> <Gold.PLP.Chemscore.Internal.Correction>
0.3923

> <Gold.Rescore>
     Score         DG    S(hbond)    S(metal)    S(lipo)     H(rot)  DE(clash)    DE(int)     intcor
     16.33     -19.88       2.85        0.00      71.56       1.36       0.02       3.53       ----

> <Gold.Chemscore.Fitness>
16.3322

> <Gold.Chemscore.DG>
-19.8780

> <Gold.Chemscore.ZeroCoef>
-5.4800

> <Gold.Chemscore.Hbond>
2.8451

> <Gold.Chemscore.Metal>
0.0000

> <Gold.Chemscore.Lipo>
71.5605

> <Gold.Chemscore.Internal_Hbond>
0.0000

> <Gold.Chemscore.DEClash>
0.0207

> <Gold.Chemscore.DEInternal>
3.5251

> <Gold.Chemscore.Rot>
1.3582

> <Gold.Chemscore.Internal.Correction>
   9.000000E+99

> <Gold.Chemscore.Hbonds>
donor molecule, donor type, donor heavy atom, donor atom, acceptor molecule, acceptor atom, score
      P1  H  6896  6907       L1     5  0.97
      P1  H  6934  6947       L1    22  0.87
      P1  H  7989  7998       L1    11  0.74

> <Gold.Chemscore.Hbond.Weighted>
-9.5025

> <Gold.Chemscore.Metal.Weighted>
-0.0000

> <Gold.Chemscore.Lipo.Weighted>
-8.3726

> <Gold.Chemscore.Internal_Hbond.Weighted>
0.0000

> <Gold.Chemscore.DEClash.Weighted>
0.0207

> <Gold.Chemscore.DEInternal.Weighted>
3.5251

> <Gold.Chemscore.Rot.Weighted>
3.4771

> <Gold.Chemscore.Internal.Correction.Weighted>
   9.000000E+99

> <Gold.Protein.RotatedTorsions>
[ 6907 6896 6895 6894 ] final  -51.75 input  -60.11 | X-H torsion
[ 7974 7965 7964 7962 ] final -142.55 input  175.53 | X-H torsion
[ 8008 7997 7996 7995 ] final -131.19 input   59.86 | X-H torsion
[ 10167 10162 10161 10158 ] final  120.42 input  -65.29 | X-H torsion
[ 10718 10713 10712 10709 ] final  -44.67 input   66.30 | X-H torsion
[ 10763 10752 10751 10750 ] final  140.37 input  -60.55 | X-H torsion
[ 11005 11000 10999 10996 ] final  103.78 input  -57.11 | X-H torsion

> <Gold.Protein.ActiveResidues>
 VAL166  LYS551  ARG553  GLY616  TRP617  ASP618  TYR619  PRO620  LYS621  CYS622 
 ASP623  PHE694  ASN695  SER759  ASP760  ASP761  ALA762  ILE779  LEU786  VAL792 
 PHE793  MET794  SER795  GLU796  ALA797  LYS798  CYS799  TRP800  GLU811  SER814 

> <Gold.Protein.RotatedAtoms>
  150.8582  134.7926  159.7061 H   0  0  0  0  0  0  0  0  0  0  0  0  # atno 6907 bound_to 6896
  152.4627  134.5144  159.9773 H   0  0  0  0  0  0  0  0  0  0  0  0  # atno 6908 bound_to 6896
  151.5253  133.3421  159.2944 H   0  0  0  0  0  0  0  0  0  0  0  0  # atno 6909 bound_to 6896
  144.8435  140.5944  143.5436 H   0  0  0  0  0  0  0  0  0  0  0  0  # atno 7974 bound_to 7965
  155.3083  140.0456  157.3033 H   0  0  0  0  0  0  0  0  0  0  0  0  # atno 8008 bound_to 7997
  154.5447  140.2299  155.8549 H   0  0  0  0  0  0  0  0  0  0  0  0  # atno 8009 bound_to 7997
  156.1913  140.3050  155.9345 H   0  0  0  0  0  0  0  0  0  0  0  0  # atno 8010 bound_to 7997
  139.5983  144.7049  151.3123 H   0  0  0  0  0  0  0  0  0  0  0  0  # atno 10167 bound_to 10162
  156.2361  130.4176  149.8815 H   0  0  0  0  0  0  0  0  0  0  0  0  # atno 10718 bound_to 10713
  153.9216  135.3000  155.3447 H   0  0  0  0  0  0  0  0  0  0  0  0  # atno 10763 bound_to 10752
  154.7572  135.4951  153.9400 H   0  0  0  0  0  0  0  0  0  0  0  0  # atno 10764 bound_to 10752
  153.1139  135.6766  153.9556 H   0  0  0  0  0  0  0  0  0  0  0  0  # atno 10765 bound_to 10752
  139.8786  134.9276  156.5261 H   0  0  0  0  0  0  0  0  0  0  0  0  # atno 11005 bound_to 11000
  145.4645  139.1509  143.3848 LP  0  0  0  0  0  0  0  0  0  0  0  0  # atno 17320 bound_to 7965
  146.2724  140.4776  142.8809 LP  0  0  0  0  0  0  0  0  0  0  0  0  # atno 17321 bound_to 7965
  140.7229  143.7084  150.7789 LP  0  0  0  0  0  0  0  0  0  0  0  0  # atno 17342 bound_to 10162
  140.0655  143.5112  152.2606 LP  0  0  0  0  0  0  0  0  0  0  0  0  # atno 17343 bound_to 10162
  156.6413  130.8706  151.3514 LP  0  0  0  0  0  0  0  0  0  0  0  0  # atno 17370 bound_to 10713
  157.7155  130.9492  150.1240 LP  0  0  0  0  0  0  0  0  0  0  0  0  # atno 17371 bound_to 10713
  140.8415  133.8201  155.9079 LP  0  0  0  0  0  0  0  0  0  0  0  0  # atno 17394 bound_to 11000
  140.9233  134.2114  157.4912 LP  0  0  0  0  0  0  0  0  0  0  0  0  # atno 17395 bound_to 11000

$$$$
