AV-unprocessed.smi:2548|AV-procd|sdf|10008|dock5
  -GOLD-   2272014 53D 1   1.00000     0.00000
 Structure written by MMmdl.
 44 45  0  0  0  0  0  0  0  0  1 V2000
  146.0948  137.0582  157.2546 C   0  0  0  0  0  0  0  0  0  0  0  0
  147.0839  137.3939  156.1778 C   0  0  0  0  0  0  0  0  0  0  0  0
  148.2508  138.2071  156.2760 C   0  0  0  0  0  0  0  0  0  0  0  0
  148.7889  138.1796  155.0196 C   0  0  0  0  0  0  0  0  0  0  0  0
  150.0153  138.8257  154.4538 C   0  0  0  0  0  0  0  0  0  0  0  0
  150.1018  140.3205  154.7843 C   0  0  0  0  0  0  0  0  0  0  0  0
  149.5546  141.1612  154.0689 O   0  0  0  0  0  0  0  0  0  0  0  0
  150.7896  140.6345  155.8935 N   0  0  0  0  0  0  0  0  0  0  0  0
  151.0118  141.9854  156.4098 C   0  0  0  0  0  0  0  0  0  0  0  0
  150.5212  142.1922  157.8759 C   0  0  0  0  0  0  0  0  0  0  0  0
  149.0022  141.9028  157.9295 C   0  0  0  0  0  0  0  0  0  0  0  0
  151.2016  141.1721  158.8346 C   0  0  0  0  0  0  0  0  0  0  0  0
  152.7432  141.1875  158.9010 C   0  0  0  0  0  0  0  0  0  0  0  0
  153.3654  142.1898  159.8877 C   0  0  0  0  0  0  0  0  0  0  0  0
  152.7602  143.6031  159.9175 C   0  0  0  0  0  0  0  0  0  0  0  0
  152.1802  144.1099  158.5877 C   0  0  0  0  0  0  0  0  0  0  0  0
  150.7268  143.6520  158.3609 C   0  0  0  0  0  0  0  0  0  0  0  0
  147.9526  137.3901  154.2626 N   0  0  0  0  0  0  0  0  0  0  0  0
  146.9088  136.9045  154.9594 N   0  0  0  0  0  0  0  0  0  0  0  0
  148.0834  137.1731  153.2848 H   0  0  0  0  0  0  0  0  0  0  0  0
  146.3501  137.5532  158.1919 H   0  0  0  0  0  0  0  0  0  0  0  0
  146.0687  135.9846  157.4431 H   0  0  0  0  0  0  0  0  0  0  0  0
  145.0889  137.3739  156.9763 H   0  0  0  0  0  0  0  0  0  0  0  0
  148.6362  138.7284  157.1398 H   0  0  0  0  0  0  0  0  0  0  0  0
  150.0262  138.6963  153.3707 H   0  0  0  0  0  0  0  0  0  0  0  0
  150.9094  138.3320  154.8361 H   0  0  0  0  0  0  0  0  0  0  0  0
  151.1984  139.8779  156.4226 H   0  0  0  0  0  0  0  0  0  0  0  0
  152.0852  142.1710  156.3590 H   0  0  0  0  0  0  0  0  0  0  0  0
  150.5620  142.7051  155.7278 H   0  0  0  0  0  0  0  0  0  0  0  0
  148.6243  141.9479  158.9517 H   0  0  0  0  0  0  0  0  0  0  0  0
  148.7713  140.9097  157.5427 H   0  0  0  0  0  0  0  0  0  0  0  0
  148.4262  142.6225  157.3468 H   0  0  0  0  0  0  0  0  0  0  0  0
  150.8012  141.2785  159.8439 H   0  0  0  0  0  0  0  0  0  0  0  0
  150.9060  140.1711  158.5172 H   0  0  0  0  0  0  0  0  0  0  0  0
  153.0773  140.1947  159.2040 H   0  0  0  0  0  0  0  0  0  0  0  0
  153.1816  141.3271  157.9157 H   0  0  0  0  0  0  0  0  0  0  0  0
  153.3172  141.7778  160.8963 H   0  0  0  0  0  0  0  0  0  0  0  0
  154.4289  142.2664  159.6583 H   0  0  0  0  0  0  0  0  0  0  0  0
  151.9895  143.6495  160.6877 H   0  0  0  0  0  0  0  0  0  0  0  0
  153.5357  144.2932  160.2520 H   0  0  0  0  0  0  0  0  0  0  0  0
  152.1722  145.1996  158.6291 H   0  0  0  0  0  0  0  0  0  0  0  0
  152.8270  143.8567  157.7479 H   0  0  0  0  0  0  0  0  0  0  0  0
  150.2607  144.3354  157.6519 H   0  0  0  0  0  0  0  0  0  0  0  0
  150.1701  143.8068  159.2862 H   0  0  0  0  0  0  0  0  0  0  0  0
  1 21  1  0  0  0  0
  1 22  1  0  0  0  0
  1 23  1  0  0  0  0
  1  2  1  0  0  0  0
  2 19  2  0  0  0  0
  2  3  1  0  0  0  0
  3  4  2  0  0  0  0
  3 24  1  0  0  0  0
  4 18  1  0  0  0  0
  4  5  1  0  0  0  0
  5  6  1  0  0  0  0
  5 25  1  0  0  0  0
  5 26  1  0  0  0  0
  6  7  2  0  0  0  0
  6  8  1  0  0  0  0
  8  9  1  0  0  0  0
  8 27  1  0  0  0  0
  9 10  1  0  0  0  0
  9 28  1  0  0  0  0
  9 29  1  0  0  0  0
 10 17  1  0  0  0  0
 10 11  1  0  0  0  0
 10 12  1  0  0  0  0
 11 30  1  0  0  0  0
 11 31  1  0  0  0  0
 11 32  1  0  0  0  0
 12 13  1  0  0  0  0
 12 33  1  0  0  0  0
 12 34  1  0  0  0  0
 13 14  1  0  0  0  0
 13 35  1  0  0  0  0
 13 36  1  0  0  0  0
 14 15  1  0  0  0  0
 14 37  1  0  0  0  0
 14 38  1  0  0  0  0
 15 16  1  0  0  0  0
 15 39  1  0  0  0  0
 15 40  1  0  0  0  0
 16 17  1  0  0  0  0
 16 41  1  0  0  0  0
 16 42  1  0  0  0  0
 17 43  1  0  0  0  0
 17 44  1  0  0  0  0
 18 19  1  0  0  0  0
 18 20  1  0  0  0  0
M  END
> <s_m_source_file>
AV-unprocessed.smi

> <i_m_source_file_index>
2548

> <i_lp_mmshare_version>
43012

> <i_f3d_flags>
0

> <s_epik_input>
W0NIM11jMVtjSF1jKG5bbkhdMSlbQ0gyXUMoPU8pW05IXVtDSDJdQzIoW0NIM10pW0NIMl1bQ0gyXVtDSDJdW0NIMl1bQ0gyXVtDSDJdMg==

> <s_epik_cmdline>
J2VwaWtfcHl0aG9uJywgJy1waCcsICc3LjAnLCAnLXRuJywgJzgnLCAnLW1hJywgJzIwMCcsICctbWV0YWxfYmluZGluZycsICctaW1hZScsICc8aW5maWxlLm1hZT4nLCAnLW9tYWUnLCAnPG91dGZpbGUubWFlPic=

> <r_lp_tautomer_probability>
0.5

> <r_epik_Ionization_Penalty>
0.000120089

> <r_epik_Ionization_Penalty_Charging>
0

> <r_epik_Ionization_Penalty_Neutral>
0.000120089

> <r_epik_State_Penalty>
0.41068

> <r_epik_Charging_Adjusted_Penalty>
0.41068

> <i_epik_Tot_Q>
0

> <i_epik_Tot_abs_Q>
0

> <r_epik_Metal_State_Penalty>
0.410662

> <b_epik_Metal_Only>
0

> <s_lp_Force_Field>
OPLS_2005

> <r_lp_Energy>
21.4694

> <b_lp_Chiralities_Consistent>
1

> <s_lp_Variant>
AV-unprocessed.smi:2548-2

> <Gold.Version>
5.8.1

> <Gold.Id.Protein>
6NUR|6NUR_protein|mol2

> <Gold.PLP.Fitness>
36.8593

> <Gold.PLP.PLP>
-33.0448

> <Gold.PLP.part.hbond>
-3.0000

> <Gold.PLP.part.metal>
0.0000

> <Gold.PLP.part.buried>
-3.2495

> <Gold.PLP.part.nonpolar>
-26.6477

> <Gold.PLP.part.repulsive>
0.3734

> <Gold.PLP.ligand.clash>
0.0000

> <Gold.PLP.ligand.torsion>
0.4772

> <Gold.PLP.Chemscore.Hbond>
1.5860

> <Gold.PLP.Chemscore.CHOScore>
0.0000

> <Gold.PLP.Chemscore.Metal>
0.0000

> <Gold.Chemscore.Hbonds>
donor molecule, donor type, donor heavy atom, donor atom, acceptor molecule, acceptor atom, score
      L1  H    18    20       P1  7948  1.00
      P1  H  8011  8017       L1     7  0.56

> <Gold.PLP.Chemscore.Internal.Correction>
0.0107

> <Gold.Rescore>
     Score         DG    S(hbond)    S(metal)    S(lipo)     H(rot)  DE(clash)    DE(int)     intcor
     16.59     -17.66       1.70        0.00      89.61       1.55       0.57       0.51       ----

> <Gold.Chemscore.Fitness>
16.5890

> <Gold.Chemscore.DG>
-17.6644

> <Gold.Chemscore.ZeroCoef>
-5.4800

> <Gold.Chemscore.Hbond>
1.6961

> <Gold.Chemscore.Metal>
0.0000

> <Gold.Chemscore.Lipo>
89.6128

> <Gold.Chemscore.Internal_Hbond>
0.0000

> <Gold.Chemscore.DEClash>
0.5651

> <Gold.Chemscore.DEInternal>
0.5103

> <Gold.Chemscore.Rot>
1.5489

> <Gold.Chemscore.Internal.Correction>
   9.000000E+99

> <Gold.Chemscore.Hbonds>
donor molecule, donor type, donor heavy atom, donor atom, acceptor molecule, acceptor atom, score
      L1  H    18    20       P1  7948  0.96
      P1  H  8011  8017       L1     7  0.55

> <Gold.Chemscore.Hbond.Weighted>
-5.6649

> <Gold.Chemscore.Metal.Weighted>
-0.0000

> <Gold.Chemscore.Lipo.Weighted>
-10.4847

> <Gold.Chemscore.Internal_Hbond.Weighted>
0.0000

> <Gold.Chemscore.DEClash.Weighted>
0.5651

> <Gold.Chemscore.DEInternal.Weighted>
0.5103

> <Gold.Chemscore.Rot.Weighted>
3.9652

> <Gold.Chemscore.Internal.Correction.Weighted>
   9.000000E+99

> <Gold.Protein.RotatedTorsions>
[ 6907 6896 6895 6894 ] final   58.96 input  -60.11 | X-H torsion
[ 7974 7965 7964 7962 ] final  -66.51 input  175.53 | X-H torsion
[ 8008 7997 7996 7995 ] final  147.54 input   59.86 | X-H torsion
[ 10167 10162 10161 10158 ] final  -94.31 input  -65.29 | X-H torsion
[ 10718 10713 10712 10709 ] final   84.49 input   66.30 | X-H torsion
[ 10763 10752 10751 10750 ] final  -70.05 input  -60.55 | X-H torsion
[ 11005 11000 10999 10996 ] final   89.35 input  -57.11 | X-H torsion

> <Gold.Protein.ActiveResidues>
 VAL166  LYS551  ARG553  GLY616  TRP617  ASP618  TYR619  PRO620  LYS621  CYS622 
 ASP623  PHE694  ASN695  SER759  ASP760  ASP761  ALA762  ILE779  LEU786  VAL792 
 PHE793  MET794  SER795  GLU796  ALA797  LYS798  CYS799  TRP800  GLU811  SER814 

> <Gold.Protein.RotatedAtoms>
  152.3872  134.6499  160.0120 H   0  0  0  0  0  0  0  0  0  0  0  0  # atno 6907 bound_to 6896
  151.6744  133.3307  159.3212 H   0  0  0  0  0  0  0  0  0  0  0  0  # atno 6908 bound_to 6896
  150.7795  134.6771  159.6468 H   0  0  0  0  0  0  0  0  0  0  0  0  # atno 6909 bound_to 6896
  145.7409  140.8954  143.0530 H   0  0  0  0  0  0  0  0  0  0  0  0  # atno 7974 bound_to 7965
  156.2821  140.2153  156.5554 H   0  0  0  0  0  0  0  0  0  0  0  0  # atno 8008 bound_to 7997
  154.7257  140.0500  157.0703 H   0  0  0  0  0  0  0  0  0  0  0  0  # atno 8009 bound_to 7997
  155.0420  140.3146  155.4724 H   0  0  0  0  0  0  0  0  0  0  0  0  # atno 8010 bound_to 7997
  140.3157  143.3078  152.0101 H   0  0  0  0  0  0  0  0  0  0  0  0  # atno 10167 bound_to 10162
  157.6899  131.0135  150.2680 H   0  0  0  0  0  0  0  0  0  0  0  0  # atno 10718 bound_to 10713
  154.4122  135.6006  153.5959 H   0  0  0  0  0  0  0  0  0  0  0  0  # atno 10763 bound_to 10752
  152.9790  135.5932  154.4056 H   0  0  0  0  0  0  0  0  0  0  0  0  # atno 10764 bound_to 10752
  154.3870  135.2841  155.2156 H   0  0  0  0  0  0  0  0  0  0  0  0  # atno 10765 bound_to 10752
  139.8877  134.8545  156.3129 H   0  0  0  0  0  0  0  0  0  0  0  0  # atno 11005 bound_to 11000
  144.6871  139.9459  143.7476 LP  0  0  0  0  0  0  0  0  0  0  0  0  # atno 17320 bound_to 7965
  146.0449  139.3456  143.0675 LP  0  0  0  0  0  0  0  0  0  0  0  0  # atno 17321 bound_to 7965
  139.4884  144.6350  151.6993 LP  0  0  0  0  0  0  0  0  0  0  0  0  # atno 17342 bound_to 10162
  140.5529  144.0396  150.6134 LP  0  0  0  0  0  0  0  0  0  0  0  0  # atno 17343 bound_to 10162
  156.3248  130.3791  149.7543 LP  0  0  0  0  0  0  0  0  0  0  0  0  # atno 17370 bound_to 10713
  156.5102  130.8168  151.3166 LP  0  0  0  0  0  0  0  0  0  0  0  0  # atno 17371 bound_to 10713
  140.9838  133.7251  156.0711 LP  0  0  0  0  0  0  0  0  0  0  0  0  # atno 17394 bound_to 11000
  140.7714  134.3828  157.5507 LP  0  0  0  0  0  0  0  0  0  0  0  0  # atno 17395 bound_to 11000

$$$$
