AV-unprocessed.smi:1473|AV-procd|sdf|5966|dock7
  -GOLD-   22720 6 53D 1   1.00000     0.00000
 Structure written by MMmdl.
 34 35  0  0  0  0  0  0  0  0  1 V2000
  146.6961  139.3035  151.9872 N   0  0  0  0  0  0  0  0  0  0  0  0
  147.0997  138.9085  153.6103 S   0  0  0  0  0  0  0  0  0  0  0  0
  146.2452  139.6895  154.5173 O   0  0  0  0  0  0  0  0  0  0  0  0
  147.2160  137.4475  153.7297 O   0  0  0  0  0  0  0  0  0  0  0  0
  148.6840  139.5774  153.6538 N   0  0  0  0  0  0  0  0  0  0  0  0
  148.9742  140.7115  154.5262 C   0  0  0  0  0  0  0  0  0  0  0  0
  150.2028  140.4742  155.3790 C   0  0  0  0  0  0  0  0  0  0  0  0
  151.0319  139.3607  155.1430 C   0  0  0  0  0  0  0  0  0  0  0  0
  152.1524  139.1767  155.9739 C   0  0  0  0  0  0  0  0  0  0  0  0
  152.4705  140.0149  156.9825 N   0  0  0  0  0  0  0  0  0  0  0  0
  151.6814  141.0934  157.2158 C   0  0  0  0  0  0  0  0  0  0  0  0
  152.0294  141.9608  158.2744 N   0  0  0  0  0  0  0  0  0  0  0  0
  151.3864  143.2727  158.3271 C   0  0  0  0  0  0  0  0  0  0  0  0
  152.0940  144.1757  159.3517 C   0  0  0  0  0  0  0  0  0  0  0  0
  152.1253  143.5287  160.6193 O   0  0  0  0  0  0  0  0  0  0  0  0
  152.8515  142.3050  160.5704 C   0  0  0  0  0  0  0  0  0  0  0  0
  152.1751  141.3348  159.5864 C   0  0  0  0  0  0  0  0  0  0  0  0
  150.5306  141.3516  156.4326 C   0  0  0  0  0  0  0  0  0  0  0  0
  145.9983  138.6711  151.5961 H   0  0  0  0  0  0  0  0  0  0  0  0
  147.5215  139.4162  151.3991 H   0  0  0  0  0  0  0  0  0  0  0  0
  149.1753  139.5780  152.7602 H   0  0  0  0  0  0  0  0  0  0  0  0
  149.1414  141.5999  153.9163 H   0  0  0  0  0  0  0  0  0  0  0  0
  148.1035  140.9149  155.1505 H   0  0  0  0  0  0  0  0  0  0  0  0
  150.8137  138.6620  154.3486 H   0  0  0  0  0  0  0  0  0  0  0  0
  152.8101  138.3331  155.8260 H   0  0  0  0  0  0  0  0  0  0  0  0
  151.4157  143.7485  157.3460 H   0  0  0  0  0  0  0  0  0  0  0  0
  150.3376  143.1497  158.6002 H   0  0  0  0  0  0  0  0  0  0  0  0
  153.1084  144.4128  159.0268 H   0  0  0  0  0  0  0  0  0  0  0  0
  151.5618  145.1221  159.4485 H   0  0  0  0  0  0  0  0  0  0  0  0
  153.8857  142.4950  160.2787 H   0  0  0  0  0  0  0  0  0  0  0  0
  152.8786  141.8679  161.5687 H   0  0  0  0  0  0  0  0  0  0  0  0
  151.1866  141.0582  159.9556 H   0  0  0  0  0  0  0  0  0  0  0  0
  152.7615  140.4186  159.5354 H   0  0  0  0  0  0  0  0  0  0  0  0
  149.8927  142.1978  156.6401 H   0  0  0  0  0  0  0  0  0  0  0  0
  1  2  1  0  0  0  0
  1 19  1  0  0  0  0
  1 20  1  0  0  0  0
  2  3  2  0  0  0  0
  2  4  2  0  0  0  0
  2  5  1  0  0  0  0
  5  6  1  0  0  0  0
  5 21  1  0  0  0  0
  6  7  1  0  0  0  0
  6 22  1  0  0  0  0
  6 23  1  0  0  0  0
  7 18  1  0  0  0  0
  7  8  2  0  0  0  0
  8  9  1  0  0  0  0
  8 24  1  0  0  0  0
  9 10  2  0  0  0  0
  9 25  1  0  0  0  0
 10 11  1  0  0  0  0
 11 12  1  0  0  0  0
 11 18  2  0  0  0  0
 12 17  1  0  0  0  0
 12 13  1  0  0  0  0
 13 14  1  0  0  0  0
 13 26  1  0  0  0  0
 13 27  1  0  0  0  0
 14 15  1  0  0  0  0
 14 28  1  0  0  0  0
 14 29  1  0  0  0  0
 15 16  1  0  0  0  0
 16 17  1  0  0  0  0
 16 30  1  0  0  0  0
 16 31  1  0  0  0  0
 17 32  1  0  0  0  0
 17 33  1  0  0  0  0
 18 34  1  0  0  0  0
M  END
> <s_m_source_file>
AV-unprocessed.smi

> <i_m_source_file_index>
1473

> <i_lp_mmshare_version>
43012

> <i_f3d_flags>
0

> <s_epik_input>
W05IMl1TKD1PKSg9TylbTkhdW0NIMl1jMVtjSF1bY0hdbmMoW2NIXTEpTjJbQ0gyXVtDSDJdT1tDSDJdW0NIMl0y

> <s_epik_cmdline>
J2VwaWtfcHl0aG9uJywgJy1waCcsICc3LjAnLCAnLXRuJywgJzgnLCAnLW1hJywgJzIwMCcsICctbWV0YWxfYmluZGluZycsICctaW1hZScsICc8aW5maWxlLm1hZT4nLCAnLW9tYWUnLCAnPG91dGZpbGUubWFlPic=

> <r_lp_tautomer_probability>
1

> <r_epik_Ionization_Penalty>
0.222057

> <r_epik_Ionization_Penalty_Charging>
0

> <r_epik_Ionization_Penalty_Neutral>
0.222057

> <r_epik_State_Penalty>
0.236233

> <r_epik_Charging_Adjusted_Penalty>
0.236233

> <i_epik_Tot_Q>
0

> <i_epik_Tot_abs_Q>
0

> <r_epik_Metal_State_Penalty>
0.788435

> <b_epik_Metal_Only>
0

> <s_lp_Force_Field>
OPLS_2005

> <r_lp_Energy>
17.6675

> <b_lp_Chiralities_Consistent>
1

> <s_lp_Variant>
AV-unprocessed.smi:1473-1

> <Gold.Version>
5.8.1

> <Gold.Id.Protein>
6NUR|6NUR_protein|mol2

> <Gold.PLP.Fitness>
45.3667

> <Gold.PLP.PLP>
-36.7363

> <Gold.PLP.part.hbond>
-3.4795

> <Gold.PLP.part.metal>
0.0000

> <Gold.PLP.part.buried>
-3.9112

> <Gold.PLP.part.nonpolar>
-28.9786

> <Gold.PLP.part.repulsive>
0.5221

> <Gold.PLP.ligand.clash>
0.0000

> <Gold.PLP.ligand.torsion>
0.8507

> <Gold.PLP.Chemscore.Hbond>
3.0000

> <Gold.PLP.Chemscore.CHOScore>
0.0000

> <Gold.PLP.Chemscore.Metal>
0.0000

> <Gold.Chemscore.Hbonds>
donor molecule, donor type, donor heavy atom, donor atom, acceptor molecule, acceptor atom, score
      L1  H     1    20       P1  7957  0.71
      L1  H     5    21       P1  7957  1.00
      P1  H  7997  8009       L1    10  0.85

> <Gold.PLP.Chemscore.Internal.Correction>
1.3318

> <Gold.Rescore>
     Score         DG    S(hbond)    S(metal)    S(lipo)     H(rot)  DE(clash)    DE(int)     intcor
     17.04     -18.11       2.42        0.00      80.35       1.90       0.14       0.92       ----

> <Gold.Chemscore.Fitness>
17.0410

> <Gold.Chemscore.DG>
-18.1059

> <Gold.Chemscore.ZeroCoef>
-5.4800

> <Gold.Chemscore.Hbond>
2.4214

> <Gold.Chemscore.Metal>
0.0000

> <Gold.Chemscore.Lipo>
80.3476

> <Gold.Chemscore.Internal_Hbond>
0.0000

> <Gold.Chemscore.DEClash>
0.1432

> <Gold.Chemscore.DEInternal>
0.9217

> <Gold.Chemscore.Rot>
1.8993

> <Gold.Chemscore.Internal.Correction>
   9.000000E+99

> <Gold.Chemscore.Hbonds>
donor molecule, donor type, donor heavy atom, donor atom, acceptor molecule, acceptor atom, score
      L1  H     1    20       P1  7957  0.65
      L1  H     5    21       P1  7957  1.00
      P1  H  7997  8009       L1    10  0.14

> <Gold.Chemscore.Hbond.Weighted>
-8.0874

> <Gold.Chemscore.Metal.Weighted>
-0.0000

> <Gold.Chemscore.Lipo.Weighted>
-9.4007

> <Gold.Chemscore.Internal_Hbond.Weighted>
0.0000

> <Gold.Chemscore.DEClash.Weighted>
0.1432

> <Gold.Chemscore.DEInternal.Weighted>
0.9217

> <Gold.Chemscore.Rot.Weighted>
4.8622

> <Gold.Chemscore.Internal.Correction.Weighted>
   9.000000E+99

> <Gold.Protein.RotatedTorsions>
[ 6907 6896 6895 6894 ] final  154.51 input  -60.11 | X-H torsion
[ 7974 7965 7964 7962 ] final  -89.24 input  175.53 | X-H torsion
[ 8008 7997 7996 7995 ] final -179.37 input   59.86 | X-H torsion
[ 10167 10162 10161 10158 ] final   75.51 input  -65.29 | X-H torsion
[ 10718 10713 10712 10709 ] final   27.62 input   66.30 | X-H torsion
[ 10763 10752 10751 10750 ] final   71.18 input  -60.55 | X-H torsion
[ 11005 11000 10999 10996 ] final -169.12 input  -57.11 | X-H torsion

> <Gold.Protein.ActiveResidues>
 VAL166  LYS551  ARG553  GLY616  TRP617  ASP618  TYR619  PRO620  LYS621  CYS622 
 ASP623  PHE694  ASN695  SER759  ASP760  ASP761  ALA762  ILE779  LEU786  VAL792 
 PHE793  MET794  SER795  GLU796  ALA797  LYS798  CYS799  TRP800  GLU811  SER814 

> <Gold.Protein.RotatedAtoms>
  152.0574  133.4046  159.4402 H   0  0  0  0  0  0  0  0  0  0  0  0  # atno 6907 bound_to 6896
  150.6867  134.3239  159.4807 H   0  0  0  0  0  0  0  0  0  0  0  0  # atno 6908 bound_to 6896
  152.1056  134.9310  160.0619 H   0  0  0  0  0  0  0  0  0  0  0  0  # atno 6909 bound_to 6896
  145.4425  140.9559  143.2067 H   0  0  0  0  0  0  0  0  0  0  0  0  # atno 7974 bound_to 7965
  156.0297  140.1279  157.0271 H   0  0  0  0  0  0  0  0  0  0  0  0  # atno 8008 bound_to 7997
  154.4345  140.1052  156.6152 H   0  0  0  0  0  0  0  0  0  0  0  0  # atno 8009 bound_to 7997
  155.5825  140.3468  155.4546 H   0  0  0  0  0  0  0  0  0  0  0  0  # atno 8010 bound_to 7997
  140.0022  144.5678  150.7728 H   0  0  0  0  0  0  0  0  0  0  0  0  # atno 10167 bound_to 10162
  157.2227  130.6986  149.6277 H   0  0  0  0  0  0  0  0  0  0  0  0  # atno 10718 bound_to 10713
  153.0384  135.5146  154.7555 H   0  0  0  0  0  0  0  0  0  0  0  0  # atno 10763 bound_to 10752
  154.6512  135.2925  154.9987 H   0  0  0  0  0  0  0  0  0  0  0  0  # atno 10764 bound_to 10752
  154.0870  135.6656  153.4899 H   0  0  0  0  0  0  0  0  0  0  0  0  # atno 10765 bound_to 10752
  140.5343  134.5585  157.5083 H   0  0  0  0  0  0  0  0  0  0  0  0  # atno 11005 bound_to 11000
  144.8112  139.5958  143.7028 LP  0  0  0  0  0  0  0  0  0  0  0  0  # atno 17320 bound_to 7965
  146.2548  139.6279  142.9402 LP  0  0  0  0  0  0  0  0  0  0  0  0  # atno 17321 bound_to 7965
  140.7414  143.2818  151.3577 LP  0  0  0  0  0  0  0  0  0  0  0  0  # atno 17342 bound_to 10162
  139.6264  144.0806  152.2438 LP  0  0  0  0  0  0  0  0  0  0  0  0  # atno 17343 bound_to 10162
  155.9681  130.4514  150.5736 LP  0  0  0  0  0  0  0  0  0  0  0  0  # atno 17370 bound_to 10713
  157.3560  131.0741  151.1675 LP  0  0  0  0  0  0  0  0  0  0  0  0  # atno 17371 bound_to 10713
  139.9537  134.7572  156.0389 LP  0  0  0  0  0  0  0  0  0  0  0  0  # atno 17394 bound_to 11000
  141.1263  133.6598  156.3346 LP  0  0  0  0  0  0  0  0  0  0  0  0  # atno 17395 bound_to 11000

$$$$
