AV-unprocessed.smi:2570|AV-procd|sdf|10106|dock7
  -GOLD-   2272014123D 1   1.00000     0.00000
 Structure written by MMmdl.
 32 33  0  0  0  0  0  0  0  0  1 V2000
  146.4814  142.4271  158.0993 C   0  0  0  0  0  0  0  0  0  0  0  0
  146.6492  142.3049  156.6881 O   0  0  0  0  0  0  0  0  0  0  0  0
  147.8128  141.6982  156.2476 C   0  0  0  0  0  0  0  0  0  0  0  0
  148.0220  141.5623  154.8214 C   0  0  0  0  0  0  0  0  0  0  0  0
  149.1542  140.9741  154.3784 C   0  0  0  0  0  0  0  0  0  0  0  0
  150.1723  140.4713  155.3003 C   0  0  0  0  0  0  0  0  0  0  0  0
  151.2131  139.9309  154.9263 O   0  0  0  0  0  0  0  0  0  0  0  0
  149.8610  140.6537  156.6183 N   0  0  0  0  0  0  0  0  0  0  0  0
  150.7654  140.2089  157.6856 C   0  0  0  0  0  0  0  0  0  0  0  0
  152.1342  140.9237  157.6343 C   0  0  2  0  0  0  0  0  0  0  0  0
  153.1225  140.0703  158.1776 O   0  0  0  0  0  0  0  0  0  0  0  0
  152.0866  142.2615  158.3616 C   0  0  0  0  0  0  0  0  0  0  0  0
  151.5317  143.3847  157.7101 C   0  0  0  0  0  0  0  0  0  0  0  0
  151.4706  144.6305  158.3637 C   0  0  0  0  0  0  0  0  0  0  0  0
  151.9633  144.7628  159.6755 C   0  0  0  0  0  0  0  0  0  0  0  0
  151.9060  145.9609  160.3036 F   0  0  0  0  0  0  0  0  0  0  0  0
  152.5134  143.6470  160.3342 C   0  0  0  0  0  0  0  0  0  0  0  0
  152.5742  142.3992  159.6834 C   0  0  0  0  0  0  0  0  0  0  0  0
  153.0998  141.3368  160.3398 F   0  0  0  0  0  0  0  0  0  0  0  0
  148.7041  141.2582  157.0786 N   0  0  0  0  0  0  0  0  0  0  0  0
  145.5322  142.9220  158.3038 H   0  0  0  0  0  0  0  0  0  0  0  0
  147.2683  143.0338  158.5512 H   0  0  0  0  0  0  0  0  0  0  0  0
  146.4536  141.4532  158.5911 H   0  0  0  0  0  0  0  0  0  0  0  0
  147.2774  141.9304  154.1311 H   0  0  0  0  0  0  0  0  0  0  0  0
  149.3140  140.8711  153.3152 H   0  0  0  0  0  0  0  0  0  0  0  0
  150.2852  140.4141  158.6443 H   0  0  0  0  0  0  0  0  0  0  0  0
  150.8961  139.1252  157.6620 H   0  0  0  0  0  0  0  0  0  0  0  0
  152.4135  141.1149  156.5976 H   0  0  0  0  0  0  0  0  0  0  0  0
  152.7525  139.2061  158.2738 H   0  0  0  0  0  0  0  0  0  0  0  0
  151.1477  143.2956  156.7044 H   0  0  0  0  0  0  0  0  0  0  0  0
  151.0448  145.4848  157.8581 H   0  0  0  0  0  0  0  0  0  0  0  0
  152.8881  143.7476  161.3422 H   0  0  0  0  0  0  0  0  0  0  0  0
  1  2  1  0  0  0  0
  1 21  1  0  0  0  0
  1 22  1  0  0  0  0
  1 23  1  0  0  0  0
  2  3  1  0  0  0  0
  3 20  2  0  0  0  0
  3  4  1  0  0  0  0
  4  5  2  0  0  0  0
  4 24  1  0  0  0  0
  5  6  1  0  0  0  0
  5 25  1  0  0  0  0
  6  7  2  0  0  0  0
  6  8  1  0  0  0  0
  8  9  1  0  0  0  0
  8 20  1  0  0  0  0
  9 10  1  0  0  0  0
  9 26  1  0  0  0  0
  9 27  1  0  0  0  0
 10 11  1  0  0  0  0
 10 12  1  0  0  0  0
 10 28  1  0  0  0  0
 11 29  1  0  0  0  0
 12 18  1  0  0  0  0
 12 13  2  0  0  0  0
 13 14  1  0  0  0  0
 13 30  1  0  0  0  0
 14 15  2  0  0  0  0
 14 31  1  0  0  0  0
 15 16  1  0  0  0  0
 15 17  1  0  0  0  0
 17 18  2  0  0  0  0
 17 32  1  0  0  0  0
 18 19  1  0  0  0  0
M  END
> <s_m_source_file>
AV-unprocessed.smi

> <i_m_source_file_index>
2570

> <i_lp_mmshare_version>
43012

> <i_f3d_flags>
0

> <s_epik_input>
W0NIM11PYzFbY0hdW2NIXWMoPU8pbihuMSlbQ0gyXVtDQEhdKFtPSF0pYzJbY0hdW2NIXWMoRilbY0hdYzJG

> <s_epik_cmdline>
J2VwaWtfcHl0aG9uJywgJy1waCcsICc3LjAnLCAnLXRuJywgJzgnLCAnLW1hJywgJzIwMCcsICctbWV0YWxfYmluZGluZycsICctaW1hZScsICc8aW5maWxlLm1hZT4nLCAnLW9tYWUnLCAnPG91dGZpbGUubWFlPic=

> <r_lp_tautomer_probability>
1

> <r_epik_Ionization_Penalty>
6.40224e-06

> <r_epik_Ionization_Penalty_Charging>
4.38647e-06

> <r_epik_Ionization_Penalty_Neutral>
2.01577e-06

> <r_epik_State_Penalty>
-0

> <r_epik_Charging_Adjusted_Penalty>
4.38647e-06

> <i_epik_Tot_Q>
0

> <i_epik_Tot_abs_Q>
0

> <r_epik_Metal_State_Penalty>
-0

> <b_epik_Metal_Only>
0

> <s_lp_Force_Field>
OPLS_2005

> <r_lp_Energy>
30.8929

> <b_lp_Chiralities_Consistent>
1

> <s_lp_Variant>
AV-unprocessed.smi:2570-1

> <Gold.Version>
5.8.1

> <Gold.Id.Protein>
6NUR|6NUR_protein|mol2

> <Gold.PLP.Fitness>
48.5247

> <Gold.PLP.PLP>
-44.3529

> <Gold.PLP.part.hbond>
-2.0000

> <Gold.PLP.part.metal>
0.0000

> <Gold.PLP.part.buried>
-4.7061

> <Gold.PLP.part.nonpolar>
-37.7379

> <Gold.PLP.part.repulsive>
0.2712

> <Gold.PLP.ligand.clash>
0.0000

> <Gold.PLP.ligand.torsion>
0.9208

> <Gold.PLP.Chemscore.Hbond>
2.0000

> <Gold.PLP.Chemscore.CHOScore>
0.0000

> <Gold.PLP.Chemscore.Metal>
0.0000

> <Gold.Chemscore.Hbonds>
donor molecule, donor type, donor heavy atom, donor atom, acceptor molecule, acceptor atom, score
      P1  H  7989  7998       L1     7  1.00
      P1  H  7997  8008       L1    11  1.00

> <Gold.PLP.Chemscore.Internal.Correction>
0.0134

> <Gold.Rescore>
     Score         DG    S(hbond)    S(metal)    S(lipo)     H(rot)  DE(clash)    DE(int)     intcor
     12.84     -16.32       1.91        0.00      91.78       2.45       0.10       3.38       ----

> <Gold.Chemscore.Fitness>
12.8420

> <Gold.Chemscore.DG>
-16.3236

> <Gold.Chemscore.ZeroCoef>
-5.4800

> <Gold.Chemscore.Hbond>
1.9121

> <Gold.Chemscore.Metal>
0.0000

> <Gold.Chemscore.Lipo>
91.7753

> <Gold.Chemscore.Internal_Hbond>
0.0000

> <Gold.Chemscore.DEClash>
0.1024

> <Gold.Chemscore.DEInternal>
3.3792

> <Gold.Chemscore.Rot>
2.4533

> <Gold.Chemscore.Internal.Correction>
   9.000000E+99

> <Gold.Chemscore.Hbonds>
donor molecule, donor type, donor heavy atom, donor atom, acceptor molecule, acceptor atom, score
      P1  H  7989  7998       L1     7  0.40
      P1  H  7997  8008       L1    11  0.33

> <Gold.Chemscore.Hbond.Weighted>
-6.3863

> <Gold.Chemscore.Metal.Weighted>
-0.0000

> <Gold.Chemscore.Lipo.Weighted>
-10.7377

> <Gold.Chemscore.Internal_Hbond.Weighted>
0.0000

> <Gold.Chemscore.DEClash.Weighted>
0.1024

> <Gold.Chemscore.DEInternal.Weighted>
3.3792

> <Gold.Chemscore.Rot.Weighted>
6.2804

> <Gold.Chemscore.Internal.Correction.Weighted>
   9.000000E+99

> <Gold.Protein.RotatedTorsions>
[ 6907 6896 6895 6894 ] final   10.83 input  -60.11 | X-H torsion
[ 7974 7965 7964 7962 ] final  101.58 input  175.53 | X-H torsion
[ 8008 7997 7996 7995 ] final  -75.40 input   59.86 | X-H torsion
[ 10167 10162 10161 10158 ] final  -89.90 input  -65.29 | X-H torsion
[ 10718 10713 10712 10709 ] final  -58.82 input   66.30 | X-H torsion
[ 10763 10752 10751 10750 ] final  -29.04 input  -60.55 | X-H torsion
[ 11005 11000 10999 10996 ] final -150.18 input  -57.11 | X-H torsion

> <Gold.Protein.ActiveResidues>
 VAL166  LYS551  ARG553  GLY616  TRP617  ASP618  TYR619  PRO620  LYS621  CYS622 
 ASP623  PHE694  ASN695  SER759  ASP760  ASP761  ALA762  ILE779  LEU786  VAL792 
 PHE793  MET794  SER795  GLU796  ALA797  LYS798  CYS799  TRP800  GLU811  SER814 

> <Gold.Protein.RotatedAtoms>
  151.7445  135.0847  160.0320 H   0  0  0  0  0  0  0  0  0  0  0  0  # atno 6907 bound_to 6896
  152.3457  133.6115  159.5917 H   0  0  0  0  0  0  0  0  0  0  0  0  # atno 6908 bound_to 6896
  150.7507  133.9568  159.3545 H   0  0  0  0  0  0  0  0  0  0  0  0  # atno 6909 bound_to 6896
  145.3704  139.2399  143.3458 H   0  0  0  0  0  0  0  0  0  0  0  0  # atno 7974 bound_to 7965
  154.5414  140.0745  156.8515 H   0  0  0  0  0  0  0  0  0  0  0  0  # atno 8008 bound_to 7997
  155.3174  140.3394  155.4224 H   0  0  0  0  0  0  0  0  0  0  0  0  # atno 8009 bound_to 7997
  156.1877  140.1675  156.8139 H   0  0  0  0  0  0  0  0  0  0  0  0  # atno 8010 bound_to 7997
  140.3602  143.2846  151.9623 H   0  0  0  0  0  0  0  0  0  0  0  0  # atno 10167 bound_to 10162
  156.1107  130.4175  150.0629 H   0  0  0  0  0  0  0  0  0  0  0  0  # atno 10718 bound_to 10713
  153.7582  135.6921  153.4931 H   0  0  0  0  0  0  0  0  0  0  0  0  # atno 10763 bound_to 10752
  153.1956  135.4455  155.0203 H   0  0  0  0  0  0  0  0  0  0  0  0  # atno 10764 bound_to 10752
  154.8163  135.3400  154.7099 H   0  0  0  0  0  0  0  0  0  0  0  0  # atno 10765 bound_to 10752
  140.7429  134.3493  157.5143 H   0  0  0  0  0  0  0  0  0  0  0  0  # atno 11005 bound_to 11000
  146.2888  140.4354  142.8747 LP  0  0  0  0  0  0  0  0  0  0  0  0  # atno 17320 bound_to 7965
  144.8580  140.7099  143.6125 LP  0  0  0  0  0  0  0  0  0  0  0  0  # atno 17321 bound_to 7965
  139.4815  144.5999  151.7624 LP  0  0  0  0  0  0  0  0  0  0  0  0  # atno 17342 bound_to 10162
  140.5134  144.0990  150.6001 LP  0  0  0  0  0  0  0  0  0  0  0  0  # atno 17343 bound_to 10162
  156.8593  130.9486  151.3619 LP  0  0  0  0  0  0  0  0  0  0  0  0  # atno 17370 bound_to 10713
  157.6288  130.8712  149.9236 LP  0  0  0  0  0  0  0  0  0  0  0  0  # atno 17371 bound_to 10713
  139.8802  134.9092  156.2986 LP  0  0  0  0  0  0  0  0  0  0  0  0  # atno 17394 bound_to 11000
  140.9820  133.7261  156.0686 LP  0  0  0  0  0  0  0  0  0  0  0  0  # atno 17395 bound_to 11000

$$$$
