AV-unprocessed.smi:2173|AV-procd|sdf|8841|dock5
  -GOLD-   2272012 33D 1   1.00000     0.00000
 Structure written by MMmdl.
 36 37  0  0  0  0  0  0  0  0  2 V2000
  154.8922  141.6783  161.5211 O   0  0  0  0  0  0  0  0  0  0  0  0
  153.9147  141.3233  160.8623 C   0  0  0  0  0  0  0  0  0  0  0  0
  153.6496  140.0396  160.5758 N   0  0  0  0  0  0  0  0  0  0  0  0
  154.4458  138.8958  161.0116 C   0  0  0  0  0  0  0  0  0  0  0  0
  153.6960  137.5489  160.9209 C   0  0  0  0  0  0  0  0  0  0  0  0
  153.9968  136.5952  162.0653 C   0  0  0  0  0  0  0  0  0  0  0  0
  153.7035  136.9184  163.4078 C   0  0  0  0  0  0  0  0  0  0  0  0
  154.0267  135.9956  164.4246 C   0  0  0  0  0  0  0  0  0  0  0  0
  154.6370  134.7719  164.0790 C   0  0  0  0  0  0  0  0  0  0  0  0
  154.9070  134.5000  162.7225 C   0  0  0  0  0  0  0  0  0  0  0  0
  154.5811  135.4089  161.7779 N   0  3  0  0  0  0  0  0  0  0  0  0
  152.9086  142.3601  160.3469 C   0  0  1  0  0  0  0  0  0  0  0  0
  152.4360  143.2865  161.4909 C   0  0  0  0  0  0  0  0  0  0  0  0
  151.6398  144.4722  160.9755 C   0  0  0  0  0  0  0  0  0  0  0  0
  151.6393  144.8582  159.6881 C   0  0  0  0  0  0  0  0  0  0  0  0
  152.4384  144.1560  158.6044 C   0  0  0  0  0  0  0  0  0  0  0  0
  153.4895  143.1905  159.1849 C   0  0  0  0  0  0  0  0  0  0  0  0
  152.8290  139.8387  160.0223 H   0  0  0  0  0  0  0  0  0  0  0  0
  155.3265  138.8575  160.3702 H   0  0  0  0  0  0  0  0  0  0  0  0
  154.8121  139.0587  162.0262 H   0  0  0  0  0  0  0  0  0  0  0  0
  152.6215  137.7320  160.8842 H   0  0  0  0  0  0  0  0  0  0  0  0
  153.9441  137.0532  159.9813 H   0  0  0  0  0  0  0  0  0  0  0  0
  153.2407  137.8623  163.6571 H   0  0  0  0  0  0  0  0  0  0  0  0
  153.8113  136.2251  165.4580 H   0  0  0  0  0  0  0  0  0  0  0  0
  154.8949  134.0531  164.8432 H   0  0  0  0  0  0  0  0  0  0  0  0
  155.3721  133.5923  162.3669 H   0  0  0  0  0  0  0  0  0  0  0  0
  152.0371  141.8258  159.9633 H   0  0  0  0  0  0  0  0  0  0  0  0
  151.8101  142.7253  162.1854 H   0  0  0  0  0  0  0  0  0  0  0  0
  153.2802  143.6725  162.0643 H   0  0  0  0  0  0  0  0  0  0  0  0
  151.0618  145.0245  161.7020 H   0  0  0  0  0  0  0  0  0  0  0  0
  151.0400  145.7029  159.3813 H   0  0  0  0  0  0  0  0  0  0  0  0
  151.7389  143.6133  157.9681 H   0  0  0  0  0  0  0  0  0  0  0  0
  152.9263  144.9020  157.9765 H   0  0  0  0  0  0  0  0  0  0  0  0
  154.3442  143.7681  159.5408 H   0  0  0  0  0  0  0  0  0  0  0  0
  153.8659  142.5406  158.3936 H   0  0  0  0  0  0  0  0  0  0  0  0
  154.7890  135.1940  160.8023 H   0  0  0  0  0  0  0  0  0  0  0  0
  1  2  2  0  0  0  0
  2  3  1  0  0  0  0
  2 12  1  0  0  0  0
  3  4  1  0  0  0  0
  3 18  1  0  0  0  0
  4  5  1  0  0  0  0
  4 19  1  0  0  0  0
  4 20  1  0  0  0  0
  5  6  1  0  0  0  0
  5 21  1  0  0  0  0
  5 22  1  0  0  0  0
  6 11  1  0  0  0  0
  6  7  2  0  0  0  0
  7  8  1  0  0  0  0
  7 23  1  0  0  0  0
  8  9  2  0  0  0  0
  8 24  1  0  0  0  0
  9 10  1  0  0  0  0
  9 25  1  0  0  0  0
 10 11  2  0  0  0  0
 10 26  1  0  0  0  0
 11 36  1  0  0  0  0
 12 17  1  0  0  0  0
 12 13  1  0  0  0  0
 12 27  1  0  0  0  0
 13 14  1  0  0  0  0
 13 28  1  0  0  0  0
 13 29  1  0  0  0  0
 14 15  2  0  0  0  0
 14 30  1  0  0  0  0
 15 16  1  0  0  0  0
 15 31  1  0  0  0  0
 16 17  1  0  0  0  0
 16 32  1  0  0  0  0
 16 33  1  0  0  0  0
 17 34  1  0  0  0  0
 17 35  1  0  0  0  0
M  CHG  1  11   1
M  END
> <s_m_source_file>
AV-unprocessed.smi

> <i_m_source_file_index>
2173

> <i_lp_mmshare_version>
43012

> <i_f3d_flags>
0

> <s_epik_input>
W0NIMl0xW0NIMl1bQ0hdPVtDSF1bQ0gyXVtDQEhdMUMoPU8pW05IXVtDSDJdW0NIMl1jMltjSF1bY0hdW2NIXVtjSF1uMg==

> <s_epik_cmdline>
J2VwaWtfcHl0aG9uJywgJy1waCcsICc3LjAnLCAnLXRuJywgJzgnLCAnLW1hJywgJzIwMCcsICctbWV0YWxfYmluZGluZycsICctaW1hZScsICc8aW5maWxlLm1hZT4nLCAnLW9tYWUnLCAnPG91dGZpbGUubWFlPic=

> <r_epik_Ionization_Penalty>
1.84586

> <r_epik_Ionization_Penalty_Charging>
1.84586

> <r_epik_Ionization_Penalty_Neutral>
1.53635e-08

> <r_epik_State_Penalty>
1.96297

> <r_epik_Charging_Adjusted_Penalty>
3.80883

> <i_epik_Tot_Q>
1

> <i_epik_Tot_abs_Q>
1

> <r_epik_Metal_State_Penalty>
1.98887

> <b_epik_Metal_Only>
0

> <s_lp_Force_Field>
OPLS_2005

> <r_lp_Energy>
13.9489

> <b_lp_Chiralities_Consistent>
1

> <s_lp_Variant>
AV-unprocessed.smi:2173-4

> <Gold.Version>
5.8.1

> <Gold.Id.Protein>
6NUR|6NUR_protein|mol2

> <Gold.PLP.Fitness>
43.1089

> <Gold.PLP.PLP>
-44.2529

> <Gold.PLP.part.hbond>
-0.6505

> <Gold.PLP.part.metal>
0.0000

> <Gold.PLP.part.buried>
-1.8422

> <Gold.PLP.part.nonpolar>
-41.5916

> <Gold.PLP.part.repulsive>
0.1260

> <Gold.PLP.ligand.clash>
0.0000

> <Gold.PLP.ligand.torsion>
0.5834

> <Gold.PLP.Chemscore.Hbond>
0.0000

> <Gold.PLP.Chemscore.CHOScore>
0.0000

> <Gold.PLP.Chemscore.Metal>
0.0000

> <Gold.PLP.Chemscore.Internal.Correction>
0.0229

> <Gold.Rescore>
     Score         DG    S(hbond)    S(metal)    S(lipo)     H(rot)  DE(clash)    DE(int)     intcor
     14.27     -16.36       0.00        0.00     125.35       1.48       1.50       0.59       ----

> <Gold.Chemscore.Fitness>
14.2706

> <Gold.Chemscore.DG>
-16.3573

> <Gold.Chemscore.ZeroCoef>
-5.4800

> <Gold.Chemscore.Hbond>
0.0000

> <Gold.Chemscore.Metal>
0.0000

> <Gold.Chemscore.Lipo>
125.3541

> <Gold.Chemscore.Internal_Hbond>
0.0000

> <Gold.Chemscore.DEClash>
1.4983

> <Gold.Chemscore.DEInternal>
0.5883

> <Gold.Chemscore.Rot>
1.4801

> <Gold.Chemscore.Internal.Correction>
   9.000000E+99

> <Gold.Chemscore.Hbond.Weighted>
-0.0000

> <Gold.Chemscore.Metal.Weighted>
-0.0000

> <Gold.Chemscore.Lipo.Weighted>
-14.6664

> <Gold.Chemscore.Internal_Hbond.Weighted>
0.0000

> <Gold.Chemscore.DEClash.Weighted>
1.4983

> <Gold.Chemscore.DEInternal.Weighted>
0.5883

> <Gold.Chemscore.Rot.Weighted>
3.7892

> <Gold.Chemscore.Internal.Correction.Weighted>
   9.000000E+99

> <Gold.Protein.RotatedTorsions>
[ 6907 6896 6895 6894 ] final  -10.03 input  -60.11 | X-H torsion
[ 7974 7965 7964 7962 ] final  101.06 input  175.53 | X-H torsion
[ 8008 7997 7996 7995 ] final  -83.41 input   59.86 | X-H torsion
[ 10167 10162 10161 10158 ] final   81.34 input  -65.29 | X-H torsion
[ 10718 10713 10712 10709 ] final -105.15 input   66.30 | X-H torsion
[ 10763 10752 10751 10750 ] final   70.21 input  -60.55 | X-H torsion
[ 11005 11000 10999 10996 ] final -159.19 input  -57.11 | X-H torsion

> <Gold.Protein.ActiveResidues>
 VAL166  LYS551  ARG553  GLY616  TRP617  ASP618  TYR619  PRO620  LYS621  CYS622 
 ASP623  PHE694  ASN695  SER759  ASP760  ASP761  ALA762  ILE779  LEU786  VAL792 
 PHE793  MET794  SER795  GLU796  ALA797  LYS798  CYS799  TRP800  GLU811  SER814 

> <Gold.Protein.RotatedAtoms>
  151.4084  135.0981  159.9577 H   0  0  0  0  0  0  0  0  0  0  0  0  # atno 6907 bound_to 6896
  152.5028  133.8821  159.7362 H   0  0  0  0  0  0  0  0  0  0  0  0  # atno 6908 bound_to 6896
  150.9310  133.6710  159.2839 H   0  0  0  0  0  0  0  0  0  0  0  0  # atno 6909 bound_to 6896
  145.3773  139.2386  143.3422 H   0  0  0  0  0  0  0  0  0  0  0  0  # atno 7974 bound_to 7965
  154.6188  140.0619  156.9589 H   0  0  0  0  0  0  0  0  0  0  0  0  # atno 8008 bound_to 7997
  155.1851  140.3302  155.4350 H   0  0  0  0  0  0  0  0  0  0  0  0  # atno 8009 bound_to 7997
  156.2420  140.1891  156.6945 H   0  0  0  0  0  0  0  0  0  0  0  0  # atno 8010 bound_to 7997
  139.9403  144.6094  150.8258 H   0  0  0  0  0  0  0  0  0  0  0  0  # atno 10167 bound_to 10162
  156.0334  130.5549  150.7498 H   0  0  0  0  0  0  0  0  0  0  0  0  # atno 10718 bound_to 10713
  153.0329  135.5182  154.7406 H   0  0  0  0  0  0  0  0  0  0  0  0  # atno 10763 bound_to 10752
  154.6406  135.2912  155.0110 H   0  0  0  0  0  0  0  0  0  0  0  0  # atno 10764 bound_to 10752
  154.1029  135.6633  153.4924 H   0  0  0  0  0  0  0  0  0  0  0  0  # atno 10765 bound_to 10752
  140.6453  134.4508  157.5234 H   0  0  0  0  0  0  0  0  0  0  0  0  # atno 11005 bound_to 11000
  146.2858  140.4435  142.8758 LP  0  0  0  0  0  0  0  0  0  0  0  0  # atno 17320 bound_to 7965
  144.8533  140.7033  143.6154 LP  0  0  0  0  0  0  0  0  0  0  0  0  # atno 17321 bound_to 7965
  140.7613  143.3170  151.2709 LP  0  0  0  0  0  0  0  0  0  0  0  0  # atno 17342 bound_to 10162
  139.6710  144.0020  152.2753 LP  0  0  0  0  0  0  0  0  0  0  0  0  # atno 17343 bound_to 10162
  157.5045  131.0921  151.0274 LP  0  0  0  0  0  0  0  0  0  0  0  0  # atno 17370 bound_to 10713
  157.0646  130.5839  149.5391 LP  0  0  0  0  0  0  0  0  0  0  0  0  # atno 17371 bound_to 10713
  139.9065  134.8437  156.1686 LP  0  0  0  0  0  0  0  0  0  0  0  0  # atno 17394 bound_to 11000
  141.0577  133.6857  156.1892 LP  0  0  0  0  0  0  0  0  0  0  0  0  # atno 17395 bound_to 11000

$$$$
