AV-unprocessed.smi:1774|AV-procd|sdf|7165|dock2
  -GOLD-   22720 8403D 1   1.00000     0.00000
 Structure written by MMmdl.
 45 46  0  0  0  0  0  0  0  0  1 V2000
  147.2660  131.7031  153.0457 C   0  0  0  0  0  0  0  0  0  0  0  0
  146.1341  132.1973  152.1595 C   0  0  0  0  0  0  0  0  0  0  0  0
  145.2744  131.2587  151.5504 C   0  0  0  0  0  0  0  0  0  0  0  0
  144.2278  131.7166  150.7321 C   0  0  0  0  0  0  0  0  0  0  0  0
  144.0844  133.1035  150.5564 C   0  0  0  0  0  0  0  0  0  0  0  0
  144.9014  134.0076  151.1339 N   0  0  0  0  0  0  0  0  0  0  0  0
  145.9172  133.5821  151.9267 C   0  0  0  0  0  0  0  0  0  0  0  0
  146.8154  134.4785  152.5719 N   0  0  0  0  0  0  0  0  0  0  0  0
  146.9088  134.7721  153.8808 C   0  0  0  0  0  0  0  0  0  0  0  0
  146.1768  134.3265  154.7651 O   0  0  0  0  0  0  0  0  0  0  0  0
  147.9188  135.6236  154.1134 N   0  0  0  0  0  0  0  0  0  0  0  0
  148.3358  136.1011  155.4285 C   0  0  0  0  0  0  0  0  0  0  0  0
  149.8364  136.4535  155.4508 C   0  0  0  0  0  0  0  0  0  0  0  0
  150.1454  137.8648  155.6773 N   0  0  0  0  0  0  0  0  0  0  0  0
  149.3846  138.7568  154.8084 C   0  0  0  0  0  0  0  0  0  0  0  0
  149.6882  140.2357  155.1062 C   0  0  2  0  0  0  0  0  0  0  0  0
  148.9592  141.1791  154.1443 C   0  0  0  0  0  0  0  0  0  0  0  0
  151.0906  140.4674  154.9801 O   0  0  0  0  0  0  0  0  0  0  0  0
  151.9223  139.6124  155.7668 C   0  0  1  0  0  0  0  0  0  0  0  0
  151.8814  139.9907  157.2575 C   0  0  0  0  0  0  0  0  0  0  0  0
  151.5675  138.1352  155.5040 C   0  0  0  0  0  0  0  0  0  0  0  0
  147.2723  130.6149  153.1124 H   0  0  0  0  0  0  0  0  0  0  0  0
  147.1612  132.0996  154.0560 H   0  0  0  0  0  0  0  0  0  0  0  0
  148.2298  132.0204  152.6466 H   0  0  0  0  0  0  0  0  0  0  0  0
  145.4120  130.1988  151.7069 H   0  0  0  0  0  0  0  0  0  0  0  0
  143.5530  131.0234  150.2522 H   0  0  0  0  0  0  0  0  0  0  0  0
  143.2929  133.4985  149.9366 H   0  0  0  0  0  0  0  0  0  0  0  0
  147.4800  134.9341  151.9645 H   0  0  0  0  0  0  0  0  0  0  0  0
  148.4638  135.9393  153.3246 H   0  0  0  0  0  0  0  0  0  0  0  0
  147.7599  137.0015  155.6425 H   0  0  0  0  0  0  0  0  0  0  0  0
  148.0721  135.3906  156.2123 H   0  0  0  0  0  0  0  0  0  0  0  0
  150.3028  135.8561  156.2355 H   0  0  0  0  0  0  0  0  0  0  0  0
  150.2969  136.1265  154.5176 H   0  0  0  0  0  0  0  0  0  0  0  0
  149.6128  138.5379  153.7639 H   0  0  0  0  0  0  0  0  0  0  0  0
  148.3156  138.5902  154.9335 H   0  0  0  0  0  0  0  0  0  0  0  0
  149.3717  140.4726  156.1224 H   0  0  0  0  0  0  0  0  0  0  0  0
  147.8789  141.0488  154.2120 H   0  0  0  0  0  0  0  0  0  0  0  0
  149.2553  140.9959  153.1109 H   0  0  0  0  0  0  0  0  0  0  0  0
  149.1834  142.2206  154.3762 H   0  0  0  0  0  0  0  0  0  0  0  0
  152.9438  139.7785  155.4237 H   0  0  0  0  0  0  0  0  0  0  0  0
  152.6026  139.4030  157.8256 H   0  0  0  0  0  0  0  0  0  0  0  0
  150.9006  139.8153  157.6992 H   0  0  0  0  0  0  0  0  0  0  0  0
  152.1284  141.0431  157.3982 H   0  0  0  0  0  0  0  0  0  0  0  0
  152.1534  137.4977  156.1673 H   0  0  0  0  0  0  0  0  0  0  0  0
  151.8646  137.8746  154.4868 H   0  0  0  0  0  0  0  0  0  0  0  0
  1  2  1  0  0  0  0
  1 22  1  0  0  0  0
  1 23  1  0  0  0  0
  1 24  1  0  0  0  0
  2  7  1  0  0  0  0
  2  3  2  0  0  0  0
  3  4  1  0  0  0  0
  3 25  1  0  0  0  0
  4  5  2  0  0  0  0
  4 26  1  0  0  0  0
  5  6  1  0  0  0  0
  5 27  1  0  0  0  0
  6  7  2  0  0  0  0
  7  8  1  0  0  0  0
  8  9  1  0  0  0  0
  8 28  1  0  0  0  0
  9 10  2  0  0  0  0
  9 11  1  0  0  0  0
 11 12  1  0  0  0  0
 11 29  1  0  0  0  0
 12 13  1  0  0  0  0
 12 30  1  0  0  0  0
 12 31  1  0  0  0  0
 13 14  1  0  0  0  0
 13 32  1  0  0  0  0
 13 33  1  0  0  0  0
 14 21  1  0  0  0  0
 14 15  1  0  0  0  0
 15 16  1  0  0  0  0
 15 34  1  0  0  0  0
 15 35  1  0  0  0  0
 16 17  1  0  0  0  0
 16 18  1  0  0  0  0
 16 36  1  0  0  0  0
 17 37  1  0  0  0  0
 17 38  1  0  0  0  0
 17 39  1  0  0  0  0
 18 19  1  0  0  0  0
 19 20  1  0  0  0  0
 19 21  1  0  0  0  0
 19 40  1  0  0  0  0
 20 41  1  0  0  0  0
 20 42  1  0  0  0  0
 20 43  1  0  0  0  0
 21 44  1  0  0  0  0
 21 45  1  0  0  0  0
M  END
> <s_m_source_file>
AV-unprocessed.smi

> <i_m_source_file_index>
1774

> <i_lp_mmshare_version>
43012

> <i_f3d_flags>
0

> <s_epik_input>
W0NIM11jMVtjSF1bY0hdW2NIXW5jMVtOSF1DKD1PKVtOSF1bQ0gyXVtDSDJdTjJbQ0gyXVtDQEBIXShbQ0gzXSlPW0NAQEhdKFtDSDNdKVtDSDJdMg==

> <s_epik_cmdline>
J2VwaWtfcHl0aG9uJywgJy1waCcsICc3LjAnLCAnLXRuJywgJzgnLCAnLW1hJywgJzIwMCcsICctbWV0YWxfYmluZGluZycsICctaW1hZScsICc8aW5maWxlLm1hZT4nLCAnLW9tYWUnLCAnPG91dGZpbGUubWFlPic=

> <r_epik_Ionization_Penalty>
0.266047

> <r_epik_Ionization_Penalty_Charging>
0

> <r_epik_Ionization_Penalty_Neutral>
0.266047

> <r_epik_State_Penalty>
0.257924

> <r_epik_Charging_Adjusted_Penalty>
0.257924

> <i_epik_Tot_Q>
0

> <i_epik_Tot_abs_Q>
0

> <r_epik_Metal_State_Penalty>
0.257922

> <b_epik_Metal_Only>
0

> <s_lp_Force_Field>
OPLS_2005

> <r_lp_Energy>
29.5878

> <b_lp_Chiralities_Consistent>
1

> <s_lp_Variant>
AV-unprocessed.smi:1774-2

> <Gold.Version>
5.8.1

> <Gold.Id.Protein>
6NUR|6NUR_protein|mol2

> <Gold.PLP.Fitness>
42.2093

> <Gold.PLP.PLP>
-32.9533

> <Gold.PLP.part.hbond>
-2.9177

> <Gold.PLP.part.metal>
0.0000

> <Gold.PLP.part.buried>
-3.9853

> <Gold.PLP.part.nonpolar>
-26.2155

> <Gold.PLP.part.repulsive>
0.3122

> <Gold.PLP.ligand.clash>
0.0000

> <Gold.PLP.ligand.torsion>
1.2655

> <Gold.PLP.Chemscore.Hbond>
2.9193

> <Gold.PLP.Chemscore.CHOScore>
1.0000

> <Gold.PLP.Chemscore.Metal>
0.0000

> <Gold.Chemscore.Hbonds>
donor molecule, donor type, donor heavy atom, donor atom, acceptor molecule, acceptor atom, score
      L1  H     8    28       P1  7948  0.94
      L1  H    11    29       P1  7948  1.00
      P1  H  7989  7998       L1    18  1.00
      L1  C     5    27       P1 10186  1.00

> <Gold.PLP.Chemscore.Internal.Correction>
0.0292

> <Gold.Rescore>
     Score         DG    S(hbond)    S(metal)    S(lipo)     H(rot)  DE(clash)    DE(int)     intcor
     18.99     -20.27       2.72        0.00      80.63       1.46       0.05       1.24       ----

> <Gold.Chemscore.Fitness>
18.9876

> <Gold.Chemscore.DG>
-20.2750

> <Gold.Chemscore.ZeroCoef>
-5.4800

> <Gold.Chemscore.Hbond>
2.7214

> <Gold.Chemscore.Metal>
0.0000

> <Gold.Chemscore.Lipo>
80.6277

> <Gold.Chemscore.Internal_Hbond>
0.0000

> <Gold.Chemscore.DEClash>
0.0460

> <Gold.Chemscore.DEInternal>
1.2413

> <Gold.Chemscore.Rot>
1.4562

> <Gold.Chemscore.Internal.Correction>
   9.000000E+99

> <Gold.Chemscore.Hbonds>
donor molecule, donor type, donor heavy atom, donor atom, acceptor molecule, acceptor atom, score
      L1  H     8    28       P1  7948  0.77
      L1  H    11    29       P1  7948  0.96
      P1  H  7989  7998       L1    18  0.85

> <Gold.Chemscore.Hbond.Weighted>
-9.0894

> <Gold.Chemscore.Metal.Weighted>
-0.0000

> <Gold.Chemscore.Lipo.Weighted>
-9.4334

> <Gold.Chemscore.Internal_Hbond.Weighted>
0.0000

> <Gold.Chemscore.DEClash.Weighted>
0.0460

> <Gold.Chemscore.DEInternal.Weighted>
1.2413

> <Gold.Chemscore.Rot.Weighted>
3.7278

> <Gold.Chemscore.Internal.Correction.Weighted>
   9.000000E+99

> <Gold.Protein.RotatedTorsions>
[ 6907 6896 6895 6894 ] final -123.43 input  -60.11 | X-H torsion
[ 7974 7965 7964 7962 ] final  158.02 input  175.53 | X-H torsion
[ 8008 7997 7996 7995 ] final  -83.57 input   59.86 | X-H torsion
[ 10167 10162 10161 10158 ] final  -58.13 input  -65.29 | X-H torsion
[ 10718 10713 10712 10709 ] final  130.45 input   66.30 | X-H torsion
[ 10763 10752 10751 10750 ] final    4.88 input  -60.55 | X-H torsion
[ 11005 11000 10999 10996 ] final  -12.37 input  -57.11 | X-H torsion

> <Gold.Protein.ActiveResidues>
 VAL166  LYS551  ARG553  GLY616  TRP617  ASP618  TYR619  PRO620  LYS621  CYS622 
 ASP623  PHE694  ASN695  SER759  ASP760  ASP761  ALA762  ILE779  LEU786  VAL792 
 PHE793  MET794  SER795  GLU796  ALA797  LYS798  CYS799  TRP800  GLU811  SER814 

> <Gold.Protein.RotatedAtoms>
  150.8671  133.7559  159.2973 H   0  0  0  0  0  0  0  0  0  0  0  0  # atno 6907 bound_to 6896
  151.5183  135.1065  159.9881 H   0  0  0  0  0  0  0  0  0  0  0  0  # atno 6908 bound_to 6896
  152.4668  133.7897  159.6951 H   0  0  0  0  0  0  0  0  0  0  0  0  # atno 6909 bound_to 6896
  144.7870  139.7420  143.6237 H   0  0  0  0  0  0  0  0  0  0  0  0  # atno 7974 bound_to 7965
  154.6205  140.0617  156.9609 H   0  0  0  0  0  0  0  0  0  0  0  0  # atno 8008 bound_to 7997
  155.1825  140.3300  155.4354 H   0  0  0  0  0  0  0  0  0  0  0  0  # atno 8009 bound_to 7997
  156.2429  140.1895  156.6920 H   0  0  0  0  0  0  0  0  0  0  0  0  # atno 8010 bound_to 7997
  140.6216  143.2422  151.5466 H   0  0  0  0  0  0  0  0  0  0  0  0  # atno 10167 bound_to 10162
  157.5060  131.1095  150.9360 H   0  0  0  0  0  0  0  0  0  0  0  0  # atno 10718 bound_to 10713
  153.2660  135.6928  153.7529 H   0  0  0  0  0  0  0  0  0  0  0  0  # atno 10763 bound_to 10752
  153.6570  135.3367  155.3117 H   0  0  0  0  0  0  0  0  0  0  0  0  # atno 10764 bound_to 10752
  154.8447  135.4468  154.1667 H   0  0  0  0  0  0  0  0  0  0  0  0  # atno 10765 bound_to 10752
  140.7650  133.8484  155.9157 H   0  0  0  0  0  0  0  0  0  0  0  0  # atno 11005 bound_to 11000
  146.2106  139.5459  142.9684 LP  0  0  0  0  0  0  0  0  0  0  0  0  # atno 17320 bound_to 7965
  145.5896  141.0371  143.2077 LP  0  0  0  0  0  0  0  0  0  0  0  0  # atno 17321 bound_to 7965
  139.5444  144.2561  152.1413 LP  0  0  0  0  0  0  0  0  0  0  0  0  # atno 17342 bound_to 10162
  140.1783  144.4869  150.6542 LP  0  0  0  0  0  0  0  0  0  0  0  0  # atno 17343 bound_to 10162
  157.0015  130.5602  149.5312 LP  0  0  0  0  0  0  0  0  0  0  0  0  # atno 17370 bound_to 10713
  156.0259  130.5352  150.8404 LP  0  0  0  0  0  0  0  0  0  0  0  0  # atno 17371 bound_to 10713
  140.9627  134.1634  157.4641 LP  0  0  0  0  0  0  0  0  0  0  0  0  # atno 17394 bound_to 11000
  139.8764  134.9950  156.5724 LP  0  0  0  0  0  0  0  0  0  0  0  0  # atno 17395 bound_to 11000

$$$$
