AV-unprocessed.smi:2131|AV-procd|sdf|8688|dock5
  -GOLD-   2272011443D 1   1.00000     0.00000
 Structure written by MMmdl.
 40 42  0  0  0  0  0  0  0  0  1 V2000
  143.4098  142.8603  156.2155 N   0  0  0  0  0  0  0  0  0  0  0  0
  144.2847  142.9037  155.4596 C   0  0  0  0  0  0  0  0  0  0  0  0
  145.3972  142.9588  154.4991 C   0  0  0  0  0  0  0  0  0  0  0  0
  146.4255  141.8779  154.7587 C   0  0  0  0  0  0  0  0  0  0  0  0
  146.2082  140.9216  155.7695 C   0  0  0  0  0  0  0  0  0  0  0  0
  147.1666  139.9185  156.0099 C   0  0  0  0  0  0  0  0  0  0  0  0
  148.3508  139.8527  155.2474 C   0  0  0  0  0  0  0  0  0  0  0  0
  149.2328  138.8374  155.5491 O   0  0  0  0  0  0  0  0  0  0  0  0
  150.5310  138.8781  154.9709 C   0  0  0  0  0  0  0  0  0  0  0  0
  151.5136  139.4628  155.9960 C   0  0  1  0  0  0  0  0  0  0  0  0
  152.7941  139.5385  155.4010 O   0  0  0  0  0  0  0  0  0  0  0  0
  151.0853  140.8584  156.4908 C   0  0  0  0  0  0  0  0  0  0  0  0
  151.7494  141.2380  157.7245 N   0  0  0  0  0  0  0  0  0  0  0  0
  152.5415  140.4664  158.4939 C   0  0  0  0  0  0  0  0  0  0  0  0
  153.0524  141.0204  159.5897 N   0  0  0  0  0  0  0  0  0  0  0  0
  152.5348  142.3026  159.5220 C   0  0  0  0  0  0  0  0  0  0  0  0
  152.6965  143.4044  160.3921 C   0  0  0  0  0  0  0  0  0  0  0  0
  152.0600  144.6324  160.1157 C   0  0  0  0  0  0  0  0  0  0  0  0
  151.2555  144.7786  158.9667 C   0  0  0  0  0  0  0  0  0  0  0  0
  151.0810  143.6955  158.0839 C   0  0  0  0  0  0  0  0  0  0  0  0
  151.7162  142.4716  158.3648 C   0  0  0  0  0  0  0  0  0  0  0  0
  148.5630  140.8187  154.2312 C   0  0  0  0  0  0  0  0  0  0  0  0
  147.6059  141.8242  153.9921 C   0  0  0  0  0  0  0  0  0  0  0  0
  144.9905  142.8561  153.4928 H   0  0  0  0  0  0  0  0  0  0  0  0
  145.8629  143.9423  154.5659 H   0  0  0  0  0  0  0  0  0  0  0  0
  145.3067  140.9554  156.3639 H   0  0  0  0  0  0  0  0  0  0  0  0
  146.9909  139.1913  156.7889 H   0  0  0  0  0  0  0  0  0  0  0  0
  150.8385  137.8654  154.7040 H   0  0  0  0  0  0  0  0  0  0  0  0
  150.5332  139.4837  154.0627 H   0  0  0  0  0  0  0  0  0  0  0  0
  151.5878  138.7801  156.8433 H   0  0  0  0  0  0  0  0  0  0  0  0
  153.0999  138.6594  155.2371 H   0  0  0  0  0  0  0  0  0  0  0  0
  151.2963  141.6139  155.7323 H   0  0  0  0  0  0  0  0  0  0  0  0
  150.0090  140.8844  156.6651 H   0  0  0  0  0  0  0  0  0  0  0  0
  152.7526  139.4386  158.2364 H   0  0  0  0  0  0  0  0  0  0  0  0
  153.3112  143.3043  161.2744 H   0  0  0  0  0  0  0  0  0  0  0  0
  152.1898  145.4668  160.7889 H   0  0  0  0  0  0  0  0  0  0  0  0
  150.7722  145.7231  158.7639 H   0  0  0  0  0  0  0  0  0  0  0  0
  150.4660  143.8036  157.2025 H   0  0  0  0  0  0  0  0  0  0  0  0
  149.4527  140.8111  153.6202 H   0  0  0  0  0  0  0  0  0  0  0  0
  147.7809  142.5557  153.2170 H   0  0  0  0  0  0  0  0  0  0  0  0
  1  2  3  0  0  0  0
  2  3  1  0  0  0  0
  3  4  1  0  0  0  0
  3 24  1  0  0  0  0
  3 25  1  0  0  0  0
  4 23  1  0  0  0  0
  4  5  2  0  0  0  0
  5  6  1  0  0  0  0
  5 26  1  0  0  0  0
  6  7  2  0  0  0  0
  6 27  1  0  0  0  0
  7  8  1  0  0  0  0
  7 22  1  0  0  0  0
  8  9  1  0  0  0  0
  9 10  1  0  0  0  0
  9 28  1  0  0  0  0
  9 29  1  0  0  0  0
 10 11  1  0  0  0  0
 10 12  1  0  0  0  0
 10 30  1  0  0  0  0
 11 31  1  0  0  0  0
 12 13  1  0  0  0  0
 12 32  1  0  0  0  0
 12 33  1  0  0  0  0
 13 21  1  0  0  0  0
 13 14  1  0  0  0  0
 14 15  2  0  0  0  0
 14 34  1  0  0  0  0
 15 16  1  0  0  0  0
 16 21  2  0  0  0  0
 16 17  1  0  0  0  0
 17 18  2  0  0  0  0
 17 35  1  0  0  0  0
 18 19  1  0  0  0  0
 18 36  1  0  0  0  0
 19 20  2  0  0  0  0
 19 37  1  0  0  0  0
 20 21  1  0  0  0  0
 20 38  1  0  0  0  0
 22 23  2  0  0  0  0
 22 39  1  0  0  0  0
 23 40  1  0  0  0  0
M  END
> <s_m_source_file>
AV-unprocessed.smi

> <i_m_source_file_index>
2131

> <i_lp_mmshare_version>
43012

> <i_f3d_flags>
0

> <s_epik_input>
TiNDW0NIMl1jMVtjSF1bY0hdYyhbY0hdW2NIXTEpT1tDSDJdW0NASF0oW09IXSlbQ0gyXW4oW2NIXW4yKWMoYzIzKVtjSF1bY0hdW2NIXVtjSF0z

> <s_epik_cmdline>
J2VwaWtfcHl0aG9uJywgJy1waCcsICc3LjAnLCAnLXRuJywgJzgnLCAnLW1hJywgJzIwMCcsICctbWV0YWxfYmluZGluZycsICctaW1hZScsICc8aW5maWxlLm1hZT4nLCAnLW9tYWUnLCAnPG91dGZpbGUubWFlPic=

> <r_lp_tautomer_probability>
1

> <r_epik_Ionization_Penalty>
0.0609831

> <r_epik_Ionization_Penalty_Charging>
0

> <r_epik_Ionization_Penalty_Neutral>
0.0609831

> <r_epik_State_Penalty>
0.0529032

> <r_epik_Charging_Adjusted_Penalty>
0.0529032

> <i_epik_Tot_Q>
0

> <i_epik_Tot_abs_Q>
0

> <r_epik_Metal_State_Penalty>
5.53344e-05

> <b_epik_Metal_Only>
0

> <s_lp_Force_Field>
OPLS_2005

> <r_lp_Energy>
14.7938

> <b_lp_Chiralities_Consistent>
1

> <s_lp_Variant>
AV-unprocessed.smi:2131-2

> <Gold.Version>
5.8.1

> <Gold.Id.Protein>
6NUR|6NUR_protein|mol2

> <Gold.PLP.Fitness>
50.0794

> <Gold.PLP.PLP>
-48.2109

> <Gold.PLP.part.hbond>
-1.0000

> <Gold.PLP.part.metal>
0.0000

> <Gold.PLP.part.buried>
-6.4580

> <Gold.PLP.part.nonpolar>
-41.3976

> <Gold.PLP.part.repulsive>
0.1385

> <Gold.PLP.ligand.clash>
0.0000

> <Gold.PLP.ligand.torsion>
0.5968

> <Gold.PLP.Chemscore.Hbond>
1.0000

> <Gold.PLP.Chemscore.CHOScore>
0.0000

> <Gold.PLP.Chemscore.Metal>
0.0000

> <Gold.Chemscore.Hbonds>
donor molecule, donor type, donor heavy atom, donor atom, acceptor molecule, acceptor atom, score
      P1  H  7997  8008       L1    11  0.70

> <Gold.PLP.Chemscore.Internal.Correction>
0.0622

> <Gold.Rescore>
     Score         DG    S(hbond)    S(metal)    S(lipo)     H(rot)  DE(clash)    DE(int)     intcor
     15.02     -15.46       0.89        0.00     119.46       2.72       0.00       0.44       ----

> <Gold.Chemscore.Fitness>
15.0186

> <Gold.Chemscore.DG>
-15.4589

> <Gold.Chemscore.ZeroCoef>
-5.4800

> <Gold.Chemscore.Hbond>
0.8866

> <Gold.Chemscore.Metal>
0.0000

> <Gold.Chemscore.Lipo>
119.4574

> <Gold.Chemscore.Internal_Hbond>
0.0000

> <Gold.Chemscore.DEClash>
0.0019

> <Gold.Chemscore.DEInternal>
0.4385

> <Gold.Chemscore.Rot>
2.7183

> <Gold.Chemscore.Internal.Correction>
   9.000000E+99

> <Gold.Chemscore.Hbonds>
donor molecule, donor type, donor heavy atom, donor atom, acceptor molecule, acceptor atom, score
      P1  H  7997  8008       L1    11  0.07

> <Gold.Chemscore.Hbond.Weighted>
-2.9613

> <Gold.Chemscore.Metal.Weighted>
-0.0000

> <Gold.Chemscore.Lipo.Weighted>
-13.9765

> <Gold.Chemscore.Internal_Hbond.Weighted>
0.0000

> <Gold.Chemscore.DEClash.Weighted>
0.0019

> <Gold.Chemscore.DEInternal.Weighted>
0.4385

> <Gold.Chemscore.Rot.Weighted>
6.9588

> <Gold.Chemscore.Internal.Correction.Weighted>
   9.000000E+99

> <Gold.Protein.RotatedTorsions>
[ 6907 6896 6895 6894 ] final  -45.33 input  -60.11 | X-H torsion
[ 7974 7965 7964 7962 ] final   77.95 input  175.53 | X-H torsion
[ 8008 7997 7996 7995 ] final   -8.85 input   59.86 | X-H torsion
[ 10167 10162 10161 10158 ] final  155.74 input  -65.29 | X-H torsion
[ 10718 10713 10712 10709 ] final    2.17 input   66.30 | X-H torsion
[ 10763 10752 10751 10750 ] final  168.86 input  -60.55 | X-H torsion
[ 11005 11000 10999 10996 ] final  171.94 input  -57.11 | X-H torsion

> <Gold.Protein.ActiveResidues>
 VAL166  LYS551  ARG553  GLY616  TRP617  ASP618  TYR619  PRO620  LYS621  CYS622 
 ASP623  PHE694  ASN695  SER759  ASP760  ASP761  ALA762  ILE779  LEU786  VAL792 
 PHE793  MET794  SER795  GLU796  ALA797  LYS798  CYS799  TRP800  GLU811  SER814 

> <Gold.Protein.RotatedAtoms>
  150.9231  134.8648  159.7501 H   0  0  0  0  0  0  0  0  0  0  0  0  # atno 6907 bound_to 6896
  152.5002  134.4189  159.9483 H   0  0  0  0  0  0  0  0  0  0  0  0  # atno 6908 bound_to 6896
  151.4221  133.3655  159.2792 H   0  0  0  0  0  0  0  0  0  0  0  0  # atno 6909 bound_to 6896
  145.6835  139.2531  143.1801 H   0  0  0  0  0  0  0  0  0  0  0  0  # atno 7974 bound_to 7965
  154.5702  140.2370  155.8203 H   0  0  0  0  0  0  0  0  0  0  0  0  # atno 8008 bound_to 7997
  156.2100  140.3028  155.9670 H   0  0  0  0  0  0  0  0  0  0  0  0  # atno 8009 bound_to 7997
  155.2727  140.0419  157.2999 H   0  0  0  0  0  0  0  0  0  0  0  0  # atno 8010 bound_to 7997
  139.4821  144.5072  151.8080 H   0  0  0  0  0  0  0  0  0  0  0  0  # atno 10167 bound_to 10162
  156.8590  130.5580  149.5664 H   0  0  0  0  0  0  0  0  0  0  0  0  # atno 10718 bound_to 10713
  154.3747  135.2753  155.2246 H   0  0  0  0  0  0  0  0  0  0  0  0  # atno 10763 bound_to 10752
  154.4378  135.5961  153.6113 H   0  0  0  0  0  0  0  0  0  0  0  0  # atno 10764 bound_to 10752
  152.9837  135.6011  154.3983 H   0  0  0  0  0  0  0  0  0  0  0  0  # atno 10765 bound_to 10752
  140.3243  134.7411  157.4087 H   0  0  0  0  0  0  0  0  0  0  0  0  # atno 11005 bound_to 11000
  146.0944  140.7618  142.9579 LP  0  0  0  0  0  0  0  0  0  0  0  0  # atno 17320 bound_to 7965
  144.7019  140.3688  143.7149 LP  0  0  0  0  0  0  0  0  0  0  0  0  # atno 17321 bound_to 7965
  140.4571  144.1774  150.5902 LP  0  0  0  0  0  0  0  0  0  0  0  0  # atno 17342 bound_to 10162
  140.4524  143.2481  151.9330 LP  0  0  0  0  0  0  0  0  0  0  0  0  # atno 17343 bound_to 10162
  156.0787  130.5802  150.9522 LP  0  0  0  0  0  0  0  0  0  0  0  0  # atno 17370 bound_to 10713
  157.6260  131.0925  150.8532 LP  0  0  0  0  0  0  0  0  0  0  0  0  # atno 17371 bound_to 10713
  140.0915  134.5595  155.8440 LP  0  0  0  0  0  0  0  0  0  0  0  0  # atno 17394 bound_to 11000
  141.2079  133.6668  156.6335 LP  0  0  0  0  0  0  0  0  0  0  0  0  # atno 17395 bound_to 11000

$$$$
