AV-unprocessed.smi:1308|AV-procd|sdf|5442|dock10
  -GOLD-   22720 5 13D 1   1.00000     0.00000
 Structure written by MMmdl.
 44 44  0  0  0  0  0  0  0  0  2 V2000
  146.9965  135.7216  162.9882 C   0  0  0  0  0  0  0  0  0  0  0  0
  147.2402  136.2817  161.6030 C   0  0  0  0  0  0  0  0  0  0  0  0
  146.2474  136.6989  160.9140 N   0  0  0  0  0  0  0  0  0  0  0  0
  146.4675  137.2150  159.6258 C   0  0  0  0  0  0  0  0  0  0  0  0
  145.2309  137.6771  158.8751 C   0  0  0  0  0  0  0  0  0  0  0  0
  147.7229  137.2827  159.0980 C   0  0  0  0  0  0  0  0  0  0  0  0
  148.0136  137.8211  157.6958 C   0  0  0  0  0  0  0  0  0  0  0  0
  148.3804  139.3049  157.6126 C   0  0  0  0  0  0  0  0  0  0  0  0
  147.6149  140.1521  158.0719 O   0  0  0  0  0  0  0  0  0  0  0  0
  149.5572  139.6002  157.0369 N   0  0  0  0  0  0  0  0  0  0  0  0
  150.1077  140.9364  156.8263 C   0  0  2  0  0  0  0  0  0  0  0  0
  151.3360  140.8284  155.9124 C   0  0  0  0  0  0  0  0  0  0  0  0
  150.4577  141.5983  158.1734 C   0  0  0  0  0  0  0  0  0  0  0  0
  150.9963  143.0355  158.0362 C   0  0  0  0  0  0  0  0  0  0  0  0
  151.7690  143.5404  159.2714 C   0  0  0  0  0  0  0  0  0  0  0  0
  152.1527  145.0254  159.1570 C   0  0  0  0  0  0  0  0  0  0  0  0
  153.0189  142.6813  159.5156 C   0  0  0  0  0  0  0  0  0  0  0  0
  148.8399  136.7896  159.9238 C   0  0  0  0  0  0  0  0  0  0  0  0
  149.9900  136.8098  159.4872 O   0  0  0  0  0  0  0  0  0  0  0  0
  148.5448  136.3064  161.1639 N   0  5  0  0  0  0  0  0  0  0  0  0
  145.9293  135.6105  163.1851 H   0  0  0  0  0  0  0  0  0  0  0  0
  147.4172  136.3866  163.7430 H   0  0  0  0  0  0  0  0  0  0  0  0
  147.4647  134.7419  163.0895 H   0  0  0  0  0  0  0  0  0  0  0  0
  145.2771  138.7501  158.6889 H   0  0  0  0  0  0  0  0  0  0  0  0
  144.3236  137.4745  159.4455 H   0  0  0  0  0  0  0  0  0  0  0  0
  145.1458  137.1612  157.9186 H   0  0  0  0  0  0  0  0  0  0  0  0
  148.8327  137.2433  157.2668 H   0  0  0  0  0  0  0  0  0  0  0  0
  147.1707  137.6389  157.0288 H   0  0  0  0  0  0  0  0  0  0  0  0
  150.1144  138.8268  156.7018 H   0  0  0  0  0  0  0  0  0  0  0  0
  149.3783  141.5671  156.3155 H   0  0  0  0  0  0  0  0  0  0  0  0
  151.7633  141.8107  155.7103 H   0  0  0  0  0  0  0  0  0  0  0  0
  151.0720  140.3807  154.9536 H   0  0  0  0  0  0  0  0  0  0  0  0
  152.1145  140.2123  156.3640 H   0  0  0  0  0  0  0  0  0  0  0  0
  149.5756  141.5919  158.8140 H   0  0  0  0  0  0  0  0  0  0  0  0
  151.2064  140.9886  158.6802 H   0  0  0  0  0  0  0  0  0  0  0  0
  151.6575  143.0707  157.1694 H   0  0  0  0  0  0  0  0  0  0  0  0
  150.1774  143.7218  157.8177 H   0  0  0  0  0  0  0  0  0  0  0  0
  151.1244  143.4269  160.1440 H   0  0  0  0  0  0  0  0  0  0  0  0
  152.7613  145.2103  158.2713 H   0  0  0  0  0  0  0  0  0  0  0  0
  152.7260  145.3492  160.0260 H   0  0  0  0  0  0  0  0  0  0  0  0
  151.2732  145.6659  159.0978 H   0  0  0  0  0  0  0  0  0  0  0  0
  153.7118  142.7435  158.6758 H   0  0  0  0  0  0  0  0  0  0  0  0
  152.7561  141.6319  159.6526 H   0  0  0  0  0  0  0  0  0  0  0  0
  153.5505  143.0044  160.4110 H   0  0  0  0  0  0  0  0  0  0  0  0
  1  2  1  0  0  0  0
  1 21  1  0  0  0  0
  1 22  1  0  0  0  0
  1 23  1  0  0  0  0
  2 20  1  0  0  0  0
  2  3  2  0  0  0  0
  3  4  1  0  0  0  0
  4  5  1  0  0  0  0
  4  6  2  0  0  0  0
  5 24  1  0  0  0  0
  5 25  1  0  0  0  0
  5 26  1  0  0  0  0
  6  7  1  0  0  0  0
  6 18  1  0  0  0  0
  7  8  1  0  0  0  0
  7 27  1  0  0  0  0
  7 28  1  0  0  0  0
  8  9  2  0  0  0  0
  8 10  1  0  0  0  0
 10 11  1  0  0  0  0
 10 29  1  0  0  0  0
 11 12  1  0  0  0  0
 11 13  1  0  0  0  0
 11 30  1  0  0  0  0
 12 31  1  0  0  0  0
 12 32  1  0  0  0  0
 12 33  1  0  0  0  0
 13 14  1  0  0  0  0
 13 34  1  0  0  0  0
 13 35  1  0  0  0  0
 14 15  1  0  0  0  0
 14 36  1  0  0  0  0
 14 37  1  0  0  0  0
 15 16  1  0  0  0  0
 15 17  1  0  0  0  0
 15 38  1  0  0  0  0
 16 39  1  0  0  0  0
 16 40  1  0  0  0  0
 16 41  1  0  0  0  0
 17 42  1  0  0  0  0
 17 43  1  0  0  0  0
 17 44  1  0  0  0  0
 18 19  2  0  0  0  0
 18 20  1  0  0  0  0
M  CHG  1  20  -1
M  END
> <s_m_source_file>
AV-unprocessed.smi

> <i_m_source_file_index>
1308

> <i_lp_mmshare_version>
43012

> <i_f3d_flags>
0

> <s_epik_input>
W0NIM11jMW5jKFtDSDNdKWMoYyg9TylbbkhdMSlbQ0gyXUMoPU8pW05IXVtDQEhdKFtDSDNdKVtDSDJdW0NIMl1bQ0hdKFtDSDNdKVtDSDNd

> <s_epik_cmdline>
J2VwaWtfcHl0aG9uJywgJy1waCcsICc3LjAnLCAnLXRuJywgJzgnLCAnLW1hJywgJzIwMCcsICctbWV0YWxfYmluZGluZycsICctaW1hZScsICc8aW5maWxlLm1hZT4nLCAnLW9tYWUnLCAnPG91dGZpbGUubWFlPic=

> <r_lp_tautomer_probability>
0.839158

> <r_epik_Ionization_Penalty>
6.61719

> <r_epik_Ionization_Penalty_Charging>
7.20681e-08

> <r_epik_Ionization_Penalty_Neutral>
6.61719

> <r_epik_State_Penalty>
4.43758

> <r_epik_Charging_Adjusted_Penalty>
4.43758

> <i_epik_Tot_Q>
-1

> <i_epik_Tot_abs_Q>
1

> <r_epik_Metal_State_Penalty>
0.801586

> <b_epik_Metal_Only>
1

> <s_lp_Force_Field>
OPLS_2005

> <r_lp_Energy>
8.43775

> <b_lp_Chiralities_Consistent>
1

> <s_lp_Variant>
AV-unprocessed.smi:1308-5

> <Gold.Version>
5.8.1

> <Gold.Id.Protein>
6NUR|6NUR_protein|mol2

> <Gold.PLP.Fitness>
35.8421

> <Gold.PLP.PLP>
-33.0017

> <Gold.PLP.part.hbond>
-2.6147

> <Gold.PLP.part.metal>
0.0000

> <Gold.PLP.part.buried>
-1.6254

> <Gold.PLP.part.nonpolar>
-29.4375

> <Gold.PLP.part.repulsive>
0.0250

> <Gold.PLP.ligand.clash>
0.0000

> <Gold.PLP.ligand.torsion>
0.5488

> <Gold.PLP.Chemscore.Hbond>
1.2884

> <Gold.PLP.Chemscore.CHOScore>
0.0000

> <Gold.PLP.Chemscore.Metal>
0.0000

> <Gold.Chemscore.Hbonds>
donor molecule, donor type, donor heavy atom, donor atom, acceptor molecule, acceptor atom, score
      P1  H  6896  6908       L1    19  0.75
      P1  H  6931  6943       L1    20  0.47

> <Gold.PLP.Chemscore.Internal.Correction>
0.0731

> <Gold.Rescore>
     Score         DG    S(hbond)    S(metal)    S(lipo)     H(rot)  DE(clash)    DE(int)     intcor
     12.58     -13.15       1.00        0.00      78.90       1.91       0.09       0.49       ----

> <Gold.Chemscore.Fitness>
12.5812

> <Gold.Chemscore.DG>
-13.1546

> <Gold.Chemscore.ZeroCoef>
-5.4800

> <Gold.Chemscore.Hbond>
0.9992

> <Gold.Chemscore.Metal>
0.0000

> <Gold.Chemscore.Lipo>
78.9020

> <Gold.Chemscore.Internal_Hbond>
0.0000

> <Gold.Chemscore.DEClash>
0.0857

> <Gold.Chemscore.DEInternal>
0.4877

> <Gold.Chemscore.Rot>
1.9118

> <Gold.Chemscore.Internal.Correction>
   9.000000E+99

> <Gold.Chemscore.Hbonds>
donor molecule, donor type, donor heavy atom, donor atom, acceptor molecule, acceptor atom, score
      P1  H  6896  6908       L1    19  0.51

> <Gold.Chemscore.Hbond.Weighted>
-3.3374

> <Gold.Chemscore.Metal.Weighted>
-0.0000

> <Gold.Chemscore.Lipo.Weighted>
-9.2315

> <Gold.Chemscore.Internal_Hbond.Weighted>
0.0000

> <Gold.Chemscore.DEClash.Weighted>
0.0857

> <Gold.Chemscore.DEInternal.Weighted>
0.4877

> <Gold.Chemscore.Rot.Weighted>
4.8943

> <Gold.Chemscore.Internal.Correction.Weighted>
   9.000000E+99

> <Gold.Protein.RotatedTorsions>
[ 6907 6896 6895 6894 ] final -171.36 input  -60.11 | X-H torsion
[ 7974 7965 7964 7962 ] final  177.57 input  175.53 | X-H torsion
[ 8008 7997 7996 7995 ] final   74.61 input   59.86 | X-H torsion
[ 10167 10162 10161 10158 ] final  104.05 input  -65.29 | X-H torsion
[ 10718 10713 10712 10709 ] final   -0.72 input   66.30 | X-H torsion
[ 10763 10752 10751 10750 ] final   95.13 input  -60.55 | X-H torsion
[ 11005 11000 10999 10996 ] final -156.07 input  -57.11 | X-H torsion

> <Gold.Protein.ActiveResidues>
 VAL166  LYS551  ARG553  GLY616  TRP617  ASP618  TYR619  PRO620  LYS621  CYS622 
 ASP623  PHE694  ASN695  SER759  ASP760  ASP761  ALA762  ILE779  LEU786  VAL792 
 PHE793  MET794  SER795  GLU796  ALA797  LYS798  CYS799  TRP800  GLU811  SER814 

> <Gold.Protein.RotatedAtoms>
  151.5226  133.3463  159.2903 H   0  0  0  0  0  0  0  0  0  0  0  0  # atno 6907 bound_to 6896
  150.8643  134.8004  159.7117 H   0  0  0  0  0  0  0  0  0  0  0  0  # atno 6908 bound_to 6896
  152.4652  134.5100  159.9803 H   0  0  0  0  0  0  0  0  0  0  0  0  # atno 6909 bound_to 6896
  144.7167  140.0267  143.6439 H   0  0  0  0  0  0  0  0  0  0  0  0  # atno 7974 bound_to 7965
  155.8008  140.3476  155.5402 H   0  0  0  0  0  0  0  0  0  0  0  0  # atno 8008 bound_to 7997
  155.8540  140.0960  157.1677 H   0  0  0  0  0  0  0  0  0  0  0  0  # atno 8009 bound_to 7997
  154.4009  140.1371  156.3866 H   0  0  0  0  0  0  0  0  0  0  0  0  # atno 8010 bound_to 7997
  139.7210  144.7058  151.0872 H   0  0  0  0  0  0  0  0  0  0  0  0  # atno 10167 bound_to 10162
  156.8163  130.5441  149.5702 H   0  0  0  0  0  0  0  0  0  0  0  0  # atno 10718 bound_to 10713
  153.2497  135.4265  155.0784 H   0  0  0  0  0  0  0  0  0  0  0  0  # atno 10763 bound_to 10752
  154.8376  135.3423  154.6531 H   0  0  0  0  0  0  0  0  0  0  0  0  # atno 10764 bound_to 10752
  153.6953  135.7031  153.5135 H   0  0  0  0  0  0  0  0  0  0  0  0  # atno 10765 bound_to 10752
  140.6796  134.4159  157.5227 H   0  0  0  0  0  0  0  0  0  0  0  0  # atno 11005 bound_to 11000
  146.0136  139.3190  143.0855 LP  0  0  0  0  0  0  0  0  0  0  0  0  # atno 17320 bound_to 7965
  145.8652  140.9452  143.0679 LP  0  0  0  0  0  0  0  0  0  0  0  0  # atno 17321 bound_to 7965
  140.7754  143.5166  150.9588 LP  0  0  0  0  0  0  0  0  0  0  0  0  # atno 17342 bound_to 10162
  139.8853  143.7021  152.3152 LP  0  0  0  0  0  0  0  0  0  0  0  0  # atno 17343 bound_to 10162
  156.1015  130.5972  150.9901 LP  0  0  0  0  0  0  0  0  0  0  0  0  # atno 17370 bound_to 10713
  157.6480  131.0901  150.8112 LP  0  0  0  0  0  0  0  0  0  0  0  0  # atno 17371 bound_to 10713
  139.8956  134.8679  156.2125 LP  0  0  0  0  0  0  0  0  0  0  0  0  # atno 17394 bound_to 11000
  141.0328  133.6979  156.1460 LP  0  0  0  0  0  0  0  0  0  0  0  0  # atno 17395 bound_to 11000

$$$$
