AV-unprocessed.smi:1060|AV-procd|sdf|4656|dock2
  -GOLD-   22720 3163D 1   1.00000     0.00000
 Structure written by MMmdl.
 37 38  0  0  0  0  0  0  0  0  1 V2000
  145.8721  136.1064  155.0477 O   0  0  0  0  0  0  0  0  0  0  0  0
  146.9579  135.9285  154.4961 C   0  0  0  0  0  0  0  0  0  0  0  0
  148.2551  136.1285  155.2823 C   0  0  0  0  0  0  0  0  0  0  0  0
  148.6461  137.4916  155.2221 O   0  0  0  0  0  0  0  0  0  0  0  0
  149.9143  137.6725  154.6159 C   0  0  0  0  0  0  0  0  0  0  0  0
  150.0909  139.1562  154.2710 C   0  0  2  0  0  0  0  0  0  0  0  0
  150.5237  140.0173  155.4542 C   0  0  0  0  0  0  0  0  0  0  0  0
  150.0789  141.4105  155.0438 C   0  0  0  0  0  0  0  0  0  0  0  0
  148.9916  141.1567  153.9947 C   0  0  0  0  0  0  0  0  0  0  0  0
  148.8462  139.7434  153.9264 O   0  0  0  0  0  0  0  0  0  0  0  0
  147.1278  135.5468  153.2150 N   0  0  0  0  0  0  0  0  0  0  0  0
  146.1713  135.2948  152.2160 C   0  0  0  0  0  0  0  0  0  0  0  0
  145.8817  134.0711  151.7002 C   0  0  0  0  0  0  0  0  0  0  0  0
  144.8702  133.8856  150.6732 C   0  0  0  0  0  0  0  0  0  0  0  0
  144.6149  132.5237  150.0457 C   0  0  0  0  0  0  0  0  0  0  0  0
  144.1061  131.6944  150.9556 F   0  0  0  0  0  0  0  0  0  0  0  0
  143.7513  132.6102  149.0332 F   0  0  0  0  0  0  0  0  0  0  0  0
  145.7464  131.9904  149.5857 F   0  0  0  0  0  0  0  0  0  0  0  0
  144.2344  134.9934  150.2497 C   0  0  0  0  0  0  0  0  0  0  0  0
  144.5104  136.2516  150.7890 N   0  0  0  0  0  0  0  0  0  0  0  0
  145.4374  136.4817  151.7455 C   0  0  0  0  0  0  0  0  0  0  0  0
  145.6233  137.6227  152.1675 O   0  0  0  0  0  0  0  0  0  0  0  0
  143.9793  137.0314  150.4292 H   0  0  0  0  0  0  0  0  0  0  0  0
  148.1003  135.8271  156.3198 H   0  0  0  0  0  0  0  0  0  0  0  0
  149.0321  135.4912  154.8577 H   0  0  0  0  0  0  0  0  0  0  0  0
  150.7154  137.3323  155.2740 H   0  0  0  0  0  0  0  0  0  0  0  0
  149.9604  137.0749  153.7042 H   0  0  0  0  0  0  0  0  0  0  0  0
  150.7965  139.2796  153.4472 H   0  0  0  0  0  0  0  0  0  0  0  0
  149.9899  139.7132  156.3558 H   0  0  0  0  0  0  0  0  0  0  0  0
  151.5931  139.9538  155.6571 H   0  0  0  0  0  0  0  0  0  0  0  0
  149.7068  141.9797  155.8960 H   0  0  0  0  0  0  0  0  0  0  0  0
  150.9052  141.9682  154.6015 H   0  0  0  0  0  0  0  0  0  0  0  0
  148.0433  141.6262  154.2567 H   0  0  0  0  0  0  0  0  0  0  0  0
  149.3017  141.5374  153.0209 H   0  0  0  0  0  0  0  0  0  0  0  0
  148.0825  135.3895  152.9250 H   0  0  0  0  0  0  0  0  0  0  0  0
  146.3829  133.1841  152.0497 H   0  0  0  0  0  0  0  0  0  0  0  0
  143.4831  135.0048  149.4739 H   0  0  0  0  0  0  0  0  0  0  0  0
  1  2  2  0  0  0  0
  2  3  1  0  0  0  0
  2 11  1  0  0  0  0
  3  4  1  0  0  0  0
  3 24  1  0  0  0  0
  3 25  1  0  0  0  0
  4  5  1  0  0  0  0
  5  6  1  0  0  0  0
  5 26  1  0  0  0  0
  5 27  1  0  0  0  0
  6 10  1  0  0  0  0
  6  7  1  0  0  0  0
  6 28  1  0  0  0  0
  7  8  1  0  0  0  0
  7 29  1  0  0  0  0
  7 30  1  0  0  0  0
  8  9  1  0  0  0  0
  8 31  1  0  0  0  0
  8 32  1  0  0  0  0
  9 10  1  0  0  0  0
  9 33  1  0  0  0  0
  9 34  1  0  0  0  0
 11 12  1  0  0  0  0
 11 35  1  0  0  0  0
 12 21  1  0  0  0  0
 12 13  2  0  0  0  0
 13 14  1  0  0  0  0
 13 36  1  0  0  0  0
 14 15  1  0  0  0  0
 14 19  2  0  0  0  0
 15 16  1  0  0  0  0
 15 17  1  0  0  0  0
 15 18  1  0  0  0  0
 19 20  1  0  0  0  0
 19 37  1  0  0  0  0
 20 23  1  0  0  0  0
 20 21  1  0  0  0  0
 21 22  2  0  0  0  0
M  END
> <s_m_source_file>
AV-unprocessed.smi

> <i_m_source_file_index>
1060

> <i_lp_mmshare_version>
43012

> <i_f3d_flags>
0

> <s_epik_input>
Tz1jMVtuSF1bY0hdYyhDKEYpKEYpRilbY0hdYzFbTkhdQyg9TylbQ0gyXU9bQ0gyXVtDQEBIXTJbQ0gyXVtDSDJdW0NIMl1PMg==

> <s_epik_cmdline>
J2VwaWtfcHl0aG9uJywgJy1waCcsICc3LjAnLCAnLXRuJywgJzgnLCAnLW1hJywgJzIwMCcsICctbWV0YWxfYmluZGluZycsICctaW1hZScsICc8aW5maWxlLm1hZT4nLCAnLW9tYWUnLCAnPG91dGZpbGUubWFlPic=

> <r_lp_tautomer_probability>
0.999

> <r_epik_Ionization_Penalty>
0.00950091

> <r_epik_Ionization_Penalty_Charging>
0.00950081

> <r_epik_Ionization_Penalty_Neutral>
1.00143e-07

> <r_epik_State_Penalty>
0.00721819

> <r_epik_Charging_Adjusted_Penalty>
0.016719

> <i_epik_Tot_Q>
0

> <i_epik_Tot_abs_Q>
0

> <r_epik_Metal_State_Penalty>
0.323303

> <b_epik_Metal_Only>
0

> <s_lp_Force_Field>
OPLS_2005

> <r_lp_Energy>
32.1997

> <b_lp_Chiralities_Consistent>
1

> <s_lp_Variant>
AV-unprocessed.smi:1060-1

> <Gold.Version>
5.8.1

> <Gold.Id.Protein>
6NUR|6NUR_protein|mol2

> <Gold.PLP.Fitness>
42.7787

> <Gold.PLP.PLP>
-39.2775

> <Gold.PLP.part.hbond>
-1.4809

> <Gold.PLP.part.metal>
0.0000

> <Gold.PLP.part.buried>
-3.8768

> <Gold.PLP.part.nonpolar>
-34.7537

> <Gold.PLP.part.repulsive>
0.7562

> <Gold.PLP.ligand.clash>
1.1215

> <Gold.PLP.ligand.torsion>
1.7811

> <Gold.PLP.Chemscore.Hbond>
1.6320

> <Gold.PLP.Chemscore.CHOScore>
1.0000

> <Gold.PLP.Chemscore.Metal>
0.0000

> <Gold.Chemscore.Hbonds>
donor molecule, donor type, donor heavy atom, donor atom, acceptor molecule, acceptor atom, score
      L1  H    11    35       P1  7948  0.59
      L1  H    20    23       P1 10171  1.00
      L1  C    19    37       P1 10186  1.00

> <Gold.PLP.Chemscore.Internal.Correction>
0.2890

> <Gold.Rescore>
     Score         DG    S(hbond)    S(metal)    S(lipo)     H(rot)  DE(clash)    DE(int)     intcor
     11.95     -13.84       1.64        0.00      67.38       1.95       0.27       1.62       ----

> <Gold.Chemscore.Fitness>
11.9504

> <Gold.Chemscore.DG>
-13.8446

> <Gold.Chemscore.ZeroCoef>
-5.4800

> <Gold.Chemscore.Hbond>
1.6406

> <Gold.Chemscore.Metal>
0.0000

> <Gold.Chemscore.Lipo>
67.3845

> <Gold.Chemscore.Internal_Hbond>
0.0000

> <Gold.Chemscore.DEClash>
0.2698

> <Gold.Chemscore.DEInternal>
1.6244

> <Gold.Chemscore.Rot>
1.9527

> <Gold.Chemscore.Internal.Correction>
   9.000000E+99

> <Gold.Chemscore.Hbonds>
donor molecule, donor type, donor heavy atom, donor atom, acceptor molecule, acceptor atom, score
      L1  H    11    35       P1  7948  0.57
      L1  H    20    23       P1 10171  0.97

> <Gold.Chemscore.Hbond.Weighted>
-5.4797

> <Gold.Chemscore.Metal.Weighted>
-0.0000

> <Gold.Chemscore.Lipo.Weighted>
-7.8840

> <Gold.Chemscore.Internal_Hbond.Weighted>
0.0000

> <Gold.Chemscore.DEClash.Weighted>
0.2698

> <Gold.Chemscore.DEInternal.Weighted>
1.6244

> <Gold.Chemscore.Rot.Weighted>
4.9990

> <Gold.Chemscore.Internal.Correction.Weighted>
   9.000000E+99

> <Gold.Protein.RotatedTorsions>
[ 6907 6896 6895 6894 ] final  162.05 input  -60.11 | X-H torsion
[ 7974 7965 7964 7962 ] final  127.45 input  175.53 | X-H torsion
[ 8008 7997 7996 7995 ] final  129.21 input   59.86 | X-H torsion
[ 10167 10162 10161 10158 ] final -158.32 input  -65.29 | X-H torsion
[ 10718 10713 10712 10709 ] final  133.17 input   66.30 | X-H torsion
[ 10763 10752 10751 10750 ] final -135.00 input  -60.55 | X-H torsion
[ 11005 11000 10999 10996 ] final  -98.98 input  -57.11 | X-H torsion

> <Gold.Protein.ActiveResidues>
 VAL166  LYS551  ARG553  GLY616  TRP617  ASP618  TYR619  PRO620  LYS621  CYS622 
 ASP623  PHE694  ASN695  SER759  ASP760  ASP761  ALA762  ILE779  LEU786  VAL792 
 PHE793  MET794  SER795  GLU796  ALA797  LYS798  CYS799  TRP800  GLU811  SER814 

> <Gold.Protein.RotatedAtoms>
  151.9463  133.3653  159.3983 H   0  0  0  0  0  0  0  0  0  0  0  0  # atno 6907 bound_to 6896
  150.6989  134.4386  159.5291 H   0  0  0  0  0  0  0  0  0  0  0  0  # atno 6908 bound_to 6896
  152.2052  134.8552  160.0554 H   0  0  0  0  0  0  0  0  0  0  0  0  # atno 6909 bound_to 6896
  145.0505  139.3887  143.5056 H   0  0  0  0  0  0  0  0  0  0  0  0  # atno 7974 bound_to 7965
  156.2931  140.2626  156.2561 H   0  0  0  0  0  0  0  0  0  0  0  0  # atno 8008 bound_to 7997
  154.9835  140.0389  157.2306 H   0  0  0  0  0  0  0  0  0  0  0  0  # atno 8009 bound_to 7997
  154.7750  140.2785  155.6112 H   0  0  0  0  0  0  0  0  0  0  0  0  # atno 8010 bound_to 7997
  139.6701  143.9760  152.2278 H   0  0  0  0  0  0  0  0  0  0  0  0  # atno 10167 bound_to 10162
  157.4800  131.1085  150.9694 H   0  0  0  0  0  0  0  0  0  0  0  0  # atno 10718 bound_to 10713
  154.8710  135.3717  154.4827 H   0  0  0  0  0  0  0  0  0  0  0  0  # atno 10763 bound_to 10752
  153.5479  135.7025  153.5610 H   0  0  0  0  0  0  0  0  0  0  0  0  # atno 10764 bound_to 10752
  153.3742  135.4013  155.1775 H   0  0  0  0  0  0  0  0  0  0  0  0  # atno 10765 bound_to 10752
  141.1325  133.8287  157.0912 H   0  0  0  0  0  0  0  0  0  0  0  0  # atno 11005 bound_to 11000
  146.3517  140.0152  142.8663 LP  0  0  0  0  0  0  0  0  0  0  0  0  # atno 17320 bound_to 7965
  145.1533  140.9635  143.4420 LP  0  0  0  0  0  0  0  0  0  0  0  0  # atno 17321 bound_to 7965
  139.9522  144.6613  150.8161 LP  0  0  0  0  0  0  0  0  0  0  0  0  # atno 17342 bound_to 10162
  140.7615  143.3175  151.2699 LP  0  0  0  0  0  0  0  0  0  0  0  0  # atno 17343 bound_to 10162
  157.0431  130.5757  149.5359 LP  0  0  0  0  0  0  0  0  0  0  0  0  # atno 17370 bound_to 10713
  156.0116  130.5208  150.8007 LP  0  0  0  0  0  0  0  0  0  0  0  0  # atno 17371 bound_to 10713
  140.0391  134.9863  157.0928 LP  0  0  0  0  0  0  0  0  0  0  0  0  # atno 17394 bound_to 11000
  140.4163  134.1927  155.7163 LP  0  0  0  0  0  0  0  0  0  0  0  0  # atno 17395 bound_to 11000

$$$$
