AV-unprocessed.smi:295|AV-procd|sdf|2257|dock5
  -GOLD-   2262022143D 1   1.00000     0.00000
 Structure written by MMmdl.
 35 36  0  0  0  0  0  0  0  0  1 V2000
  152.5923  143.8624  162.6994 C   0  0  0  0  0  0  0  0  0  0  0  0
  152.1592  143.6780  161.2331 C   0  0  1  0  0  0  0  0  0  0  0  0
  151.9254  145.0442  160.5574 C   0  0  0  0  0  0  0  0  0  0  0  0
  151.4785  144.8892  159.0956 C   0  0  0  0  0  0  0  0  0  0  0  0
  152.4941  144.0642  158.2932 C   0  0  0  0  0  0  0  0  0  0  0  0
  152.7279  142.6943  158.9464 C   0  0  0  0  0  0  0  0  0  0  0  0
  153.1702  142.8343  160.4174 C   0  0  2  0  0  0  0  0  0  0  0  0
  153.3166  141.5105  161.0151 N   0  0  0  0  0  0  0  0  0  0  0  0
  154.3516  140.6757  160.8302 C   0  0  0  0  0  0  0  0  0  0  0  0
  155.2887  140.9148  160.0695 O   0  0  0  0  0  0  0  0  0  0  0  0
  154.3255  139.3647  161.6210 C   0  0  0  0  0  0  0  0  0  0  0  0
  153.9419  138.2394  160.7855 N   0  0  0  0  0  0  0  0  0  0  0  0
  152.9000  137.4062  160.8769 C   0  0  0  0  0  0  0  0  0  0  0  0
  152.8767  136.4663  159.9405 N   0  0  0  0  0  0  0  0  0  0  0  0
  154.0099  136.8136  159.2641 C   0  0  0  0  0  0  0  0  0  0  0  0
  154.4582  136.0674  158.1007 C   0  0  0  0  0  0  0  0  0  0  0  0
  154.8153  135.4733  157.1740 N   0  0  0  0  0  0  0  0  0  0  0  0
  154.6894  137.8643  159.7187 N   0  0  0  0  0  0  0  0  0  0  0  0
  153.5604  144.3598  162.7655 H   0  0  0  0  0  0  0  0  0  0  0  0
  152.6728  142.9082  163.2208 H   0  0  0  0  0  0  0  0  0  0  0  0
  151.8702  144.4681  163.2470 H   0  0  0  0  0  0  0  0  0  0  0  0
  151.2047  143.1489  161.2403 H   0  0  0  0  0  0  0  0  0  0  0  0
  151.1725  145.6091  161.1082 H   0  0  0  0  0  0  0  0  0  0  0  0
  152.8418  145.6350  160.5952 H   0  0  0  0  0  0  0  0  0  0  0  0
  150.5024  144.4036  159.0601 H   0  0  0  0  0  0  0  0  0  0  0  0
  151.3523  145.8712  158.6389 H   0  0  0  0  0  0  0  0  0  0  0  0
  152.1429  143.9330  157.2693 H   0  0  0  0  0  0  0  0  0  0  0  0
  153.4389  144.6056  158.2296 H   0  0  0  0  0  0  0  0  0  0  0  0
  151.8098  142.1076  158.8914 H   0  0  0  0  0  0  0  0  0  0  0  0
  153.4796  142.1438  158.3795 H   0  0  0  0  0  0  0  0  0  0  0  0
  154.1331  143.3489  160.4418 H   0  0  0  0  0  0  0  0  0  0  0  0
  152.5899  141.2234  161.6542 H   0  0  0  0  0  0  0  0  0  0  0  0
  155.3136  139.1739  162.0415 H   0  0  0  0  0  0  0  0  0  0  0  0
  153.6276  139.4406  162.4562 H   0  0  0  0  0  0  0  0  0  0  0  0
  152.1487  137.4851  161.6489 H   0  0  0  0  0  0  0  0  0  0  0  0
  1  2  1  0  0  0  0
  1 19  1  0  0  0  0
  1 20  1  0  0  0  0
  1 21  1  0  0  0  0
  2  7  1  0  0  0  0
  2  3  1  0  0  0  0
  2 22  1  0  0  0  0
  3  4  1  0  0  0  0
  3 23  1  0  0  0  0
  3 24  1  0  0  0  0
  4  5  1  0  0  0  0
  4 25  1  0  0  0  0
  4 26  1  0  0  0  0
  5  6  1  0  0  0  0
  5 27  1  0  0  0  0
  5 28  1  0  0  0  0
  6  7  1  0  0  0  0
  6 29  1  0  0  0  0
  6 30  1  0  0  0  0
  7  8  1  0  0  0  0
  7 31  1  0  0  0  0
  8  9  1  0  0  0  0
  8 32  1  0  0  0  0
  9 10  2  0  0  0  0
  9 11  1  0  0  0  0
 11 12  1  0  0  0  0
 11 33  1  0  0  0  0
 11 34  1  0  0  0  0
 12 18  1  0  0  0  0
 12 13  1  0  0  0  0
 13 14  2  0  0  0  0
 13 35  1  0  0  0  0
 14 15  1  0  0  0  0
 15 16  1  0  0  0  0
 15 18  2  0  0  0  0
 16 17  3  0  0  0  0
M  END
> <s_m_source_file>
AV-unprocessed.smi

> <i_m_source_file_index>
295

> <i_lp_mmshare_version>
43012

> <i_f3d_flags>
0

> <s_epik_input>
W0NIM11bQ0BASF0xW0NIMl1bQ0gyXVtDSDJdW0NIMl1bQ0BIXTFbTkhdQyg9TylbQ0gyXW4yW2NIXW5jKG4yKUMjTg==

> <s_epik_cmdline>
J2VwaWtfcHl0aG9uJywgJy1waCcsICc3LjAnLCAnLXRuJywgJzgnLCAnLW1hJywgJzIwMCcsICctbWV0YWxfYmluZGluZycsICctaW1hZScsICc8aW5maWxlLm1hZT4nLCAnLW9tYWUnLCAnPG91dGZpbGUubWFlPic=

> <r_lp_tautomer_probability>
1

> <r_epik_Ionization_Penalty>
5.31112e-08

> <r_epik_Ionization_Penalty_Charging>
0

> <r_epik_Ionization_Penalty_Neutral>
5.31112e-08

> <r_epik_State_Penalty>
-0

> <r_epik_Charging_Adjusted_Penalty>
0

> <i_epik_Tot_Q>
0

> <i_epik_Tot_abs_Q>
0

> <r_epik_Metal_State_Penalty>
-0

> <b_epik_Metal_Only>
0

> <s_lp_Force_Field>
OPLS_2005

> <r_lp_Energy>
13.6203

> <b_lp_Chiralities_Consistent>
1

> <s_lp_Variant>
AV-unprocessed.smi:295-4

> <Gold.Version>
5.8.1

> <Gold.Id.Protein>
6NUR|6NUR_protein|mol2

> <Gold.PLP.Fitness>
45.1904

> <Gold.PLP.PLP>
-40.1549

> <Gold.PLP.part.hbond>
-2.2972

> <Gold.PLP.part.metal>
0.0000

> <Gold.PLP.part.buried>
-4.1665

> <Gold.PLP.part.nonpolar>
-33.7383

> <Gold.PLP.part.repulsive>
0.0515

> <Gold.PLP.ligand.clash>
0.0000

> <Gold.PLP.ligand.torsion>
0.4852

> <Gold.PLP.Chemscore.Hbond>
2.0000

> <Gold.PLP.Chemscore.CHOScore>
0.0000

> <Gold.PLP.Chemscore.Metal>
0.0000

> <Gold.Chemscore.Hbonds>
donor molecule, donor type, donor heavy atom, donor atom, acceptor molecule, acceptor atom, score
      P1  H  6896  6909       L1    14  1.00
      P1  H 10752 10763       L1    17  1.00

> <Gold.PLP.Chemscore.Internal.Correction>
0.0060

> <Gold.Rescore>
     Score         DG    S(hbond)    S(metal)    S(lipo)     H(rot)  DE(clash)    DE(int)     intcor
     17.79     -18.29       1.99        0.00      95.38       1.95       0.19       0.31       ----

> <Gold.Chemscore.Fitness>
17.7898

> <Gold.Chemscore.DG>
-18.2949

> <Gold.Chemscore.ZeroCoef>
-5.4800

> <Gold.Chemscore.Hbond>
1.9882

> <Gold.Chemscore.Metal>
0.0000

> <Gold.Chemscore.Lipo>
95.3819

> <Gold.Chemscore.Internal_Hbond>
0.0000

> <Gold.Chemscore.DEClash>
0.1916

> <Gold.Chemscore.DEInternal>
0.3134

> <Gold.Chemscore.Rot>
1.9474

> <Gold.Chemscore.Internal.Correction>
   9.000000E+99

> <Gold.Chemscore.Hbonds>
donor molecule, donor type, donor heavy atom, donor atom, acceptor molecule, acceptor atom, score
      P1  H  6896  6909       L1    14  0.98
      P1  H 10752 10763       L1    17  1.00

> <Gold.Chemscore.Hbond.Weighted>
-6.6405

> <Gold.Chemscore.Metal.Weighted>
-0.0000

> <Gold.Chemscore.Lipo.Weighted>
-11.1597

> <Gold.Chemscore.Internal_Hbond.Weighted>
0.0000

> <Gold.Chemscore.DEClash.Weighted>
0.1916

> <Gold.Chemscore.DEInternal.Weighted>
0.3134

> <Gold.Chemscore.Rot.Weighted>
4.9852

> <Gold.Chemscore.Internal.Correction.Weighted>
   9.000000E+99

> <Gold.Protein.RotatedTorsions>
[ 6907 6896 6895 6894 ] final  135.49 input  -60.11 | X-H torsion
[ 7974 7965 7964 7962 ] final   12.11 input  175.53 | X-H torsion
[ 8008 7997 7996 7995 ] final  134.38 input   59.86 | X-H torsion
[ 10167 10162 10161 10158 ] final  108.61 input  -65.29 | X-H torsion
[ 10718 10713 10712 10709 ] final  115.09 input   66.30 | X-H torsion
[ 10763 10752 10751 10750 ] final  159.25 input  -60.55 | X-H torsion
[ 11005 11000 10999 10996 ] final -178.01 input  -57.11 | X-H torsion

> <Gold.Protein.ActiveResidues>
 VAL166  LYS551  ARG553  GLY616  TRP617  ASP618  TYR619  PRO620  LYS621  CYS622 
 ASP623  PHE694  ASN695  SER759  ASP760  ASP761  ALA762  ILE779  LEU786  VAL792 
 PHE793  MET794  SER795  GLU796  ALA797  LYS798  CYS799  TRP800  GLU811  SER814 

> <Gold.Protein.RotatedAtoms>
  152.2998  133.5644  159.5610 H   0  0  0  0  0  0  0  0  0  0  0  0  # atno 6907 bound_to 6896
  150.7272  134.0308  159.3741 H   0  0  0  0  0  0  0  0  0  0  0  0  # atno 6908 bound_to 6896
  151.8208  135.0652  160.0476 H   0  0  0  0  0  0  0  0  0  0  0  0  # atno 6909 bound_to 6896
  146.2358  139.9385  142.8486 H   0  0  0  0  0  0  0  0  0  0  0  0  # atno 7974 bound_to 7965
  156.2998  140.2497  156.3408 H   0  0  0  0  0  0  0  0  0  0  0  0  # atno 8008 bound_to 7997
  154.9056  140.0405  157.1937 H   0  0  0  0  0  0  0  0  0  0  0  0  # atno 8009 bound_to 7997
  154.8456  140.2898  155.5635 H   0  0  0  0  0  0  0  0  0  0  0  0  # atno 8010 bound_to 7997
  139.6833  144.7116  151.1478 H   0  0  0  0  0  0  0  0  0  0  0  0  # atno 10167 bound_to 10162
  157.6243  131.1007  150.7279 H   0  0  0  0  0  0  0  0  0  0  0  0  # atno 10718 bound_to 10713
  154.2289  135.2779  155.2897 H   0  0  0  0  0  0  0  0  0  0  0  0  # atno 10763 bound_to 10752
  154.5640  135.5638  153.7037 H   0  0  0  0  0  0  0  0  0  0  0  0  # atno 10764 bound_to 10752
  153.0024  135.6305  154.2430 H   0  0  0  0  0  0  0  0  0  0  0  0  # atno 10765 bound_to 10752
  140.4345  134.6488  157.4728 H   0  0  0  0  0  0  0  0  0  0  0  0  # atno 11005 bound_to 11000
  145.1975  140.9840  143.4175 LP  0  0  0  0  0  0  0  0  0  0  0  0  # atno 17320 bound_to 7965
  144.9802  139.3791  143.6265 LP  0  0  0  0  0  0  0  0  0  0  0  0  # atno 17321 bound_to 7965
  140.7659  143.5667  150.9039 LP  0  0  0  0  0  0  0  0  0  0  0  0  # atno 17342 bound_to 10162
  139.9341  143.6459  152.3069 LP  0  0  0  0  0  0  0  0  0  0  0  0  # atno 17343 bound_to 10162
  156.7630  130.4805  149.5433 LP  0  0  0  0  0  0  0  0  0  0  0  0  # atno 17370 bound_to 10713
  156.1406  130.6242  151.0461 LP  0  0  0  0  0  0  0  0  0  0  0  0  # atno 17371 bound_to 10713
  140.0112  134.6688  155.9378 LP  0  0  0  0  0  0  0  0  0  0  0  0  # atno 17394 bound_to 11000
  141.1732  133.6538  156.4728 LP  0  0  0  0  0  0  0  0  0  0  0  0  # atno 17395 bound_to 11000

$$$$
