AV-unprocessed.smi:2124|AV-procd|sdf|8670|dock7
  -GOLD-   2272011423D 1   1.00000     0.00000
 Structure written by MMmdl.
 46 48  0  0  0  0  0  0  0  0  2 V2000
  148.4085  141.0072  153.9011 C   0  0  0  0  0  0  0  0  0  0  0  0
  149.3752  140.3384  154.8547 C   0  0  0  0  0  0  0  0  0  0  0  0
  150.4919  139.9043  154.4084 N   0  0  0  0  0  0  0  0  0  0  0  0
  151.3917  139.2770  155.2870 C   0  0  0  0  0  0  0  0  0  0  0  0
  152.6887  138.7866  154.6675 C   0  0  0  0  0  0  0  0  0  0  0  0
  151.0941  139.1231  156.6090 C   0  0  0  0  0  0  0  0  0  0  0  0
  152.0278  138.4472  157.6120 C   0  0  0  0  0  0  0  0  0  0  0  0
  152.9675  139.3783  158.3823 C   0  0  0  0  0  0  0  0  0  0  0  0
  154.1529  139.0838  158.5368 O   0  0  0  0  0  0  0  0  0  0  0  0
  152.4184  140.5047  158.8621 N   0  0  0  0  0  0  0  0  0  0  0  0
  153.1240  141.5507  159.5999 C   0  0  2  0  0  0  0  0  0  0  0  0
  153.7032  140.9495  160.8944 C   0  0  0  0  0  0  0  0  0  0  0  0
  152.1566  142.7307  159.8663 C   0  0  2  0  0  0  0  0  0  0  0  0
  151.0688  142.9018  158.7752 C   0  0  0  0  0  0  0  0  0  0  0  0
  151.2050  144.3781  158.3646 C   0  0  1  0  0  0  0  0  0  0  0  0
  150.7302  145.2809  159.5177 C   0  0  0  0  0  0  0  0  0  0  0  0
  151.8640  145.1342  160.5494 C   0  0  0  0  0  0  0  0  0  0  0  0
  152.8172  144.1332  159.8681 C   0  0  2  0  0  0  0  0  0  0  0  0
  152.7149  144.5671  158.4094 C   0  0  0  0  0  0  0  0  0  0  0  0
  149.8020  139.6467  157.0855 C   0  0  0  0  0  0  0  0  0  0  0  0
  149.4960  139.5513  158.2736 O   0  0  0  0  0  0  0  0  0  0  0  0
  148.9802  140.2342  156.1696 N   0  5  0  0  0  0  0  0  0  0  0  0
  148.9010  141.2692  152.9637 H   0  0  0  0  0  0  0  0  0  0  0  0
  148.0073  141.9210  154.3406 H   0  0  0  0  0  0  0  0  0  0  0  0
  147.5784  140.3369  153.6773 H   0  0  0  0  0  0  0  0  0  0  0  0
  152.7412  137.6985  154.7051 H   0  0  0  0  0  0  0  0  0  0  0  0
  153.5486  139.1948  155.1984 H   0  0  0  0  0  0  0  0  0  0  0  0
  152.7670  139.0906  153.6232 H   0  0  0  0  0  0  0  0  0  0  0  0
  151.4401  137.8541  158.3143 H   0  0  0  0  0  0  0  0  0  0  0  0
  152.6493  137.7185  157.0923 H   0  0  0  0  0  0  0  0  0  0  0  0
  151.4373  140.6613  158.6818 H   0  0  0  0  0  0  0  0  0  0  0  0
  153.9511  141.9135  158.9876 H   0  0  0  0  0  0  0  0  0  0  0  0
  154.3088  141.6704  161.4416 H   0  0  0  0  0  0  0  0  0  0  0  0
  154.3479  140.0970  160.6782 H   0  0  0  0  0  0  0  0  0  0  0  0
  152.9119  140.6043  161.5604 H   0  0  0  0  0  0  0  0  0  0  0  0
  151.6758  142.5560  160.8304 H   0  0  0  0  0  0  0  0  0  0  0  0
  151.2617  142.2630  157.9118 H   0  0  0  0  0  0  0  0  0  0  0  0
  150.0705  142.6625  159.1432 H   0  0  0  0  0  0  0  0  0  0  0  0
  150.7395  144.6095  157.4063 H   0  0  0  0  0  0  0  0  0  0  0  0
  150.6405  146.3179  159.1914 H   0  0  0  0  0  0  0  0  0  0  0  0
  149.7632  144.9684  159.9135 H   0  0  0  0  0  0  0  0  0  0  0  0
  152.3604  146.0923  160.7087 H   0  0  0  0  0  0  0  0  0  0  0  0
  151.5064  144.7812  161.5174 H   0  0  0  0  0  0  0  0  0  0  0  0
  153.8241  144.1660  160.2818 H   0  0  0  0  0  0  0  0  0  0  0  0
  153.2543  143.9158  157.7199 H   0  0  0  0  0  0  0  0  0  0  0  0
  153.0262  145.5997  158.2420 H   0  0  0  0  0  0  0  0  0  0  0  0
  1  2  1  0  0  0  0
  1 23  1  0  0  0  0
  1 24  1  0  0  0  0
  1 25  1  0  0  0  0
  2 22  1  0  0  0  0
  2  3  2  0  0  0  0
  3  4  1  0  0  0  0
  4  5  1  0  0  0  0
  4  6  2  0  0  0  0
  5 26  1  0  0  0  0
  5 27  1  0  0  0  0
  5 28  1  0  0  0  0
  6  7  1  0  0  0  0
  6 20  1  0  0  0  0
  7  8  1  0  0  0  0
  7 29  1  0  0  0  0
  7 30  1  0  0  0  0
  8  9  2  0  0  0  0
  8 10  1  0  0  0  0
 10 11  1  0  0  0  0
 10 31  1  0  0  0  0
 11 12  1  0  0  0  0
 11 13  1  0  0  0  0
 11 32  1  0  0  0  0
 12 33  1  0  0  0  0
 12 34  1  0  0  0  0
 12 35  1  0  0  0  0
 13 18  1  0  0  0  0
 13 14  1  0  0  0  0
 13 36  1  0  0  0  0
 14 15  1  0  0  0  0
 14 37  1  0  0  0  0
 14 38  1  0  0  0  0
 15 19  1  0  0  0  0
 15 16  1  0  0  0  0
 15 39  1  0  0  0  0
 16 17  1  0  0  0  0
 16 40  1  0  0  0  0
 16 41  1  0  0  0  0
 17 18  1  0  0  0  0
 17 42  1  0  0  0  0
 17 43  1  0  0  0  0
 18 19  1  0  0  0  0
 18 44  1  0  0  0  0
 19 45  1  0  0  0  0
 19 46  1  0  0  0  0
 20 21  2  0  0  0  0
 20 22  1  0  0  0  0
M  CHG  1  22  -1
M  END
> <s_m_source_file>
AV-unprocessed.smi

> <i_m_source_file_index>
2124

> <i_lp_mmshare_version>
43012

> <i_f3d_flags>
0

> <s_epik_input>
W0NIM11jMW5jKFtDSDNdKWMoYyg9TylbbkhdMSlbQ0gyXUMoPU8pW05IXVtDQEhdKFtDSDNdKVtDQEhdKFtDSDJdW0NASF0yMylbQ0BIXShbQ0gyXTMpW0NIMl1bQ0gyXTI=

> <s_epik_cmdline>
J2VwaWtfcHl0aG9uJywgJy1waCcsICc3LjAnLCAnLXRuJywgJzgnLCAnLW1hJywgJzIwMCcsICctbWV0YWxfYmluZGluZycsICctaW1hZScsICc8aW5maWxlLm1hZT4nLCAnLW9tYWUnLCAnPG91dGZpbGUubWFlPic=

> <r_lp_tautomer_probability>
0.839158

> <r_epik_Ionization_Penalty>
6.63797

> <r_epik_Ionization_Penalty_Charging>
7.48558e-08

> <r_epik_Ionization_Penalty_Neutral>
6.63797

> <r_epik_State_Penalty>
4.49496

> <r_epik_Charging_Adjusted_Penalty>
4.49496

> <i_epik_Tot_Q>
-1

> <i_epik_Tot_abs_Q>
1

> <r_epik_Metal_State_Penalty>
0.841241

> <b_epik_Metal_Only>
1

> <s_lp_Force_Field>
OPLS_2005

> <r_lp_Energy>
56.157

> <b_lp_Chiralities_Consistent>
1

> <s_lp_Variant>
AV-unprocessed.smi:2124-21

> <Gold.Version>
5.8.1

> <Gold.Id.Protein>
6NUR|6NUR_protein|mol2

> <Gold.PLP.Fitness>
51.1415

> <Gold.PLP.PLP>
-48.0931

> <Gold.PLP.part.hbond>
-2.0000

> <Gold.PLP.part.metal>
0.0000

> <Gold.PLP.part.buried>
-5.1921

> <Gold.PLP.part.nonpolar>
-41.1653

> <Gold.PLP.part.repulsive>
0.2643

> <Gold.PLP.ligand.clash>
0.0000

> <Gold.PLP.ligand.torsion>
1.3554

> <Gold.PLP.Chemscore.Hbond>
1.9120

> <Gold.PLP.Chemscore.CHOScore>
0.0000

> <Gold.PLP.Chemscore.Metal>
0.0000

> <Gold.Chemscore.Hbonds>
donor molecule, donor type, donor heavy atom, donor atom, acceptor molecule, acceptor atom, score
      P1  H  7989  7998       L1     3  0.95
      P1  H  7997  8010       L1     9  0.93

> <Gold.PLP.Chemscore.Internal.Correction>
0.0232

> <Gold.Rescore>
     Score         DG    S(hbond)    S(metal)    S(lipo)     H(rot)  DE(clash)    DE(int)     intcor
     19.05     -20.37       1.05        0.00     132.51       1.61       0.00       1.31       ----

> <Gold.Chemscore.Fitness>
19.0506

> <Gold.Chemscore.DG>
-20.3678

> <Gold.Chemscore.ZeroCoef>
-5.4800

> <Gold.Chemscore.Hbond>
1.0459

> <Gold.Chemscore.Metal>
0.0000

> <Gold.Chemscore.Lipo>
132.5090

> <Gold.Chemscore.Internal_Hbond>
0.0000

> <Gold.Chemscore.DEClash>
0.0024

> <Gold.Chemscore.DEInternal>
1.3148

> <Gold.Chemscore.Rot>
1.6051

> <Gold.Chemscore.Internal.Correction>
   9.000000E+99

> <Gold.Chemscore.Hbonds>
donor molecule, donor type, donor heavy atom, donor atom, acceptor molecule, acceptor atom, score
      P1  H  7989  7998       L1     3  0.21
      P1  H  7997  8010       L1     9  0.70

> <Gold.Chemscore.Hbond.Weighted>
-3.4932

> <Gold.Chemscore.Metal.Weighted>
-0.0000

> <Gold.Chemscore.Lipo.Weighted>
-15.5035

> <Gold.Chemscore.Internal_Hbond.Weighted>
0.0000

> <Gold.Chemscore.DEClash.Weighted>
0.0024

> <Gold.Chemscore.DEInternal.Weighted>
1.3148

> <Gold.Chemscore.Rot.Weighted>
4.1090

> <Gold.Chemscore.Internal.Correction.Weighted>
   9.000000E+99

> <Gold.Protein.RotatedTorsions>
[ 6907 6896 6895 6894 ] final  -51.06 input  -60.11 | X-H torsion
[ 7974 7965 7964 7962 ] final  104.23 input  175.53 | X-H torsion
[ 8008 7997 7996 7995 ] final   -9.18 input   59.86 | X-H torsion
[ 10167 10162 10161 10158 ] final  101.81 input  -65.29 | X-H torsion
[ 10718 10713 10712 10709 ] final  158.52 input   66.30 | X-H torsion
[ 10763 10752 10751 10750 ] final   26.91 input  -60.55 | X-H torsion
[ 11005 11000 10999 10996 ] final  -20.40 input  -57.11 | X-H torsion

> <Gold.Protein.ActiveResidues>
 VAL166  LYS551  ARG553  GLY616  TRP617  ASP618  TYR619  PRO620  LYS621  CYS622 
 ASP623  PHE694  ASN695  SER759  ASP760  ASP761  ALA762  ILE779  LEU786  VAL792 
 PHE793  MET794  SER795  GLU796  ALA797  LYS798  CYS799  TRP800  GLU811  SER814 

> <Gold.Protein.RotatedAtoms>
  150.8647  134.8007  159.7109 H   0  0  0  0  0  0  0  0  0  0  0  0  # atno 6907 bound_to 6896
  152.4672  134.5043  159.9744 H   0  0  0  0  0  0  0  0  0  0  0  0  # atno 6908 bound_to 6896
  151.5141  133.3441  159.2925 H   0  0  0  0  0  0  0  0  0  0  0  0  # atno 6909 bound_to 6896
  145.3355  139.2475  143.3638 H   0  0  0  0  0  0  0  0  0  0  0  0  # atno 7974 bound_to 7965
  154.5671  140.2362  155.8247 H   0  0  0  0  0  0  0  0  0  0  0  0  # atno 8008 bound_to 7997
  156.2077  140.3035  155.9621 H   0  0  0  0  0  0  0  0  0  0  0  0  # atno 8009 bound_to 7997
  155.2781  140.0421  157.3003 H   0  0  0  0  0  0  0  0  0  0  0  0  # atno 8010 bound_to 7997
  139.7405  144.7012  151.0583 H   0  0  0  0  0  0  0  0  0  0  0  0  # atno 10167 bound_to 10162
  157.1767  131.0623  151.2154 H   0  0  0  0  0  0  0  0  0  0  0  0  # atno 10718 bound_to 10713
  153.0591  135.6549  154.0507 H   0  0  0  0  0  0  0  0  0  0  0  0  # atno 10763 bound_to 10752
  154.0178  135.2922  155.3386 H   0  0  0  0  0  0  0  0  0  0  0  0  # atno 10764 bound_to 10752
  154.6920  135.5279  153.8473 H   0  0  0  0  0  0  0  0  0  0  0  0  # atno 10765 bound_to 10752
  140.8460  133.7891  155.9913 H   0  0  0  0  0  0  0  0  0  0  0  0  # atno 11005 bound_to 11000
  146.3028  140.3941  142.8698 LP  0  0  0  0  0  0  0  0  0  0  0  0  # atno 17320 bound_to 7965
  144.8831  140.7426  143.5974 LP  0  0  0  0  0  0  0  0  0  0  0  0  # atno 17321 bound_to 7965
  140.7785  143.4931  150.9868 LP  0  0  0  0  0  0  0  0  0  0  0  0  # atno 17342 bound_to 10162
  139.8619  143.7303  152.3173 LP  0  0  0  0  0  0  0  0  0  0  0  0  # atno 17343 bound_to 10162
  157.3991  130.7323  149.6754 LP  0  0  0  0  0  0  0  0  0  0  0  0  # atno 17370 bound_to 10713
  155.9730  130.4125  150.4038 LP  0  0  0  0  0  0  0  0  0  0  0  0  # atno 17371 bound_to 10713
  140.8842  134.2574  157.5128 LP  0  0  0  0  0  0  0  0  0  0  0  0  # atno 17394 bound_to 11000
  139.8703  134.9630  156.4448 LP  0  0  0  0  0  0  0  0  0  0  0  0  # atno 17395 bound_to 11000

$$$$
