AV-unprocessed.smi:479|AV-procd|sdf|2672|dock4
  -GOLD-   2262023 93D 1   1.00000     0.00000
 Structure written by MMmdl.
 45 47  0  0  0  0  0  0  0  0  1 V2000
  143.9038  141.7277  157.8565 C   0  0  0  0  0  0  0  0  0  0  0  0
  145.0306  141.2850  157.1151 O   0  0  0  0  0  0  0  0  0  0  0  0
  145.3535  141.9464  155.9479 C   0  0  0  0  0  0  0  0  0  0  0  0
  144.6565  143.0862  155.4725 C   0  0  0  0  0  0  0  0  0  0  0  0
  145.0322  143.7184  154.2648 C   0  0  0  0  0  0  0  0  0  0  0  0
  144.3140  144.9186  153.7469 C   0  0  0  0  0  0  0  0  0  0  0  0
  143.5757  145.8004  154.7530 C   0  0  0  0  0  0  0  0  0  0  0  0
  144.2895  145.2338  152.5574 O   0  0  0  0  0  0  0  0  0  0  0  0
  146.1144  143.1904  153.5297 C   0  0  0  0  0  0  0  0  0  0  0  0
  146.8129  142.0621  153.9940 C   0  0  0  0  0  0  0  0  0  0  0  0
  146.4434  141.4354  155.2086 C   0  0  0  0  0  0  0  0  0  0  0  0
  147.0937  140.3373  155.7325 O   0  0  0  0  0  0  0  0  0  0  0  0
  148.4211  140.0620  155.3029 C   0  0  0  0  0  0  0  0  0  0  0  0
  149.4051  141.0238  155.9956 C   0  0  2  0  0  0  0  0  0  0  0  0
  150.6730  140.9300  155.3809 O   0  0  0  0  0  0  0  0  0  0  0  0
  149.5365  140.8393  157.5219 C   0  0  0  0  0  0  0  0  0  0  0  0
  150.3867  141.8459  158.1334 N   0  0  0  0  0  0  0  0  0  0  0  0
  150.2395  143.1824  158.0571 C   0  0  0  0  0  0  0  0  0  0  0  0
  151.1228  143.9321  158.7102 N   0  0  0  0  0  0  0  0  0  0  0  0
  151.9464  142.9699  159.2688 C   0  0  0  0  0  0  0  0  0  0  0  0
  153.0866  143.1054  160.0929 C   0  0  0  0  0  0  0  0  0  0  0  0
  153.7777  141.9640  160.5503 C   0  0  0  0  0  0  0  0  0  0  0  0
  153.3441  140.6725  160.1872 C   0  0  0  0  0  0  0  0  0  0  0  0
  152.2130  140.5136  159.3645 C   0  0  0  0  0  0  0  0  0  0  0  0
  151.5197  141.6535  158.9178 C   0  0  0  0  0  0  0  0  0  0  0  0
  143.8093  141.1236  158.7587 H   0  0  0  0  0  0  0  0  0  0  0  0
  142.9810  141.6139  157.2860 H   0  0  0  0  0  0  0  0  0  0  0  0
  144.0141  142.7676  158.1671 H   0  0  0  0  0  0  0  0  0  0  0  0
  143.8250  143.4787  156.0358 H   0  0  0  0  0  0  0  0  0  0  0  0
  142.7794  145.2384  155.2412 H   0  0  0  0  0  0  0  0  0  0  0  0
  143.1287  146.6593  154.2517 H   0  0  0  0  0  0  0  0  0  0  0  0
  144.2631  146.1708  155.5136 H   0  0  0  0  0  0  0  0  0  0  0  0
  146.4238  143.6464  152.6003 H   0  0  0  0  0  0  0  0  0  0  0  0
  147.6326  141.6962  153.3950 H   0  0  0  0  0  0  0  0  0  0  0  0
  148.6869  139.0233  155.5066 H   0  0  0  0  0  0  0  0  0  0  0  0
  148.4940  140.2143  154.2248 H   0  0  0  0  0  0  0  0  0  0  0  0
  149.0568  142.0395  155.8047 H   0  0  0  0  0  0  0  0  0  0  0  0
  151.2574  140.4717  155.9653 H   0  0  0  0  0  0  0  0  0  0  0  0
  148.5540  140.8806  157.9936 H   0  0  0  0  0  0  0  0  0  0  0  0
  149.9488  139.8559  157.7509 H   0  0  0  0  0  0  0  0  0  0  0  0
  149.4306  143.6297  157.4981 H   0  0  0  0  0  0  0  0  0  0  0  0
  153.4294  144.0897  160.3751 H   0  0  0  0  0  0  0  0  0  0  0  0
  154.6465  142.0806  161.1815 H   0  0  0  0  0  0  0  0  0  0  0  0
  153.8788  139.8031  160.5411 H   0  0  0  0  0  0  0  0  0  0  0  0
  151.8783  139.5263  159.0845 H   0  0  0  0  0  0  0  0  0  0  0  0
  1  2  1  0  0  0  0
  1 26  1  0  0  0  0
  1 27  1  0  0  0  0
  1 28  1  0  0  0  0
  2  3  1  0  0  0  0
  3 11  1  0  0  0  0
  3  4  2  0  0  0  0
  4  5  1  0  0  0  0
  4 29  1  0  0  0  0
  5  6  1  0  0  0  0
  5  9  2  0  0  0  0
  6  7  1  0  0  0  0
  6  8  2  0  0  0  0
  7 30  1  0  0  0  0
  7 31  1  0  0  0  0
  7 32  1  0  0  0  0
  9 10  1  0  0  0  0
  9 33  1  0  0  0  0
 10 11  2  0  0  0  0
 10 34  1  0  0  0  0
 11 12  1  0  0  0  0
 12 13  1  0  0  0  0
 13 14  1  0  0  0  0
 13 35  1  0  0  0  0
 13 36  1  0  0  0  0
 14 15  1  0  0  0  0
 14 16  1  0  0  0  0
 14 37  1  0  0  0  0
 15 38  1  0  0  0  0
 16 17  1  0  0  0  0
 16 39  1  0  0  0  0
 16 40  1  0  0  0  0
 17 25  1  0  0  0  0
 17 18  1  0  0  0  0
 18 19  2  0  0  0  0
 18 41  1  0  0  0  0
 19 20  1  0  0  0  0
 20 25  2  0  0  0  0
 20 21  1  0  0  0  0
 21 22  2  0  0  0  0
 21 42  1  0  0  0  0
 22 23  1  0  0  0  0
 22 43  1  0  0  0  0
 23 24  2  0  0  0  0
 23 44  1  0  0  0  0
 24 25  1  0  0  0  0
 24 45  1  0  0  0  0
M  END
> <s_m_source_file>
AV-unprocessed.smi

> <i_m_source_file_index>
479

> <i_lp_mmshare_version>
43012

> <i_f3d_flags>
0

> <s_epik_input>
W0NIM11PYzFbY0hdYyhDKD1PKVtDSDNdKVtjSF1bY0hdYzFPW0NIMl1bQ0BIXShbT0hdKVtDSDJdbihbY0hdbjIpYyhjMjMpW2NIXVtjSF1bY0hdW2NIXTM=

> <s_epik_cmdline>
J2VwaWtfcHl0aG9uJywgJy1waCcsICc3LjAnLCAnLXRuJywgJzgnLCAnLW1hJywgJzIwMCcsICctbWV0YWxfYmluZGluZycsICctaW1hZScsICc8aW5maWxlLm1hZT4nLCAnLW9tYWUnLCAnPG91dGZpbGUubWFlPic=

> <r_lp_tautomer_probability>
0.99995

> <r_epik_Ionization_Penalty>
0.061028

> <r_epik_Ionization_Penalty_Charging>
0

> <r_epik_Ionization_Penalty_Neutral>
0.061028

> <r_epik_State_Penalty>
0.052945

> <r_epik_Charging_Adjusted_Penalty>
0.052945

> <i_epik_Tot_Q>
0

> <i_epik_Tot_abs_Q>
0

> <r_epik_Metal_State_Penalty>
5.53801e-05

> <b_epik_Metal_Only>
0

> <s_lp_Force_Field>
OPLS_2005

> <r_lp_Energy>
25.674

> <b_lp_Chiralities_Consistent>
1

> <s_lp_Variant>
AV-unprocessed.smi:479-1

> <Gold.Version>
5.8.1

> <Gold.Id.Protein>
6NUR|6NUR_protein|mol2

> <Gold.PLP.Fitness>
50.2236

> <Gold.PLP.PLP>
-45.9325

> <Gold.PLP.part.hbond>
-2.0000

> <Gold.PLP.part.metal>
0.0000

> <Gold.PLP.part.buried>
-8.4552

> <Gold.PLP.part.nonpolar>
-35.5177

> <Gold.PLP.part.repulsive>
0.2777

> <Gold.PLP.ligand.clash>
0.0000

> <Gold.PLP.ligand.torsion>
0.6981

> <Gold.PLP.Chemscore.Hbond>
0.8320

> <Gold.PLP.Chemscore.CHOScore>
1.0000

> <Gold.PLP.Chemscore.Metal>
0.0000

> <Gold.Chemscore.Hbonds>
donor molecule, donor type, donor heavy atom, donor atom, acceptor molecule, acceptor atom, score
      P1  H  7989  7998       L1    15  0.61
      L1  C    18    41       P1  8028  1.00

> <Gold.PLP.Chemscore.Internal.Correction>
0.1913

> <Gold.Rescore>
     Score         DG    S(hbond)    S(metal)    S(lipo)     H(rot)  DE(clash)    DE(int)     intcor
     11.15     -13.46       0.62        0.00     108.72       2.66       1.65       0.66       ----

> <Gold.Chemscore.Fitness>
11.1488

> <Gold.Chemscore.DG>
-13.4641

> <Gold.Chemscore.ZeroCoef>
-5.4800

> <Gold.Chemscore.Hbond>
0.6172

> <Gold.Chemscore.Metal>
0.0000

> <Gold.Chemscore.Lipo>
108.7247

> <Gold.Chemscore.Internal_Hbond>
0.0000

> <Gold.Chemscore.DEClash>
1.6538

> <Gold.Chemscore.DEInternal>
0.6615

> <Gold.Chemscore.Rot>
2.6555

> <Gold.Chemscore.Internal.Correction>
   9.000000E+99

> <Gold.Chemscore.Hbonds>
donor molecule, donor type, donor heavy atom, donor atom, acceptor molecule, acceptor atom, score
      P1  H  7989  7998       L1    15  0.30

> <Gold.Chemscore.Hbond.Weighted>
-2.0613

> <Gold.Chemscore.Metal.Weighted>
-0.0000

> <Gold.Chemscore.Lipo.Weighted>
-12.7208

> <Gold.Chemscore.Internal_Hbond.Weighted>
0.0000

> <Gold.Chemscore.DEClash.Weighted>
1.6538

> <Gold.Chemscore.DEInternal.Weighted>
0.6615

> <Gold.Chemscore.Rot.Weighted>
6.7980

> <Gold.Chemscore.Internal.Correction.Weighted>
   9.000000E+99

> <Gold.Protein.RotatedTorsions>
[ 6907 6896 6895 6894 ] final    1.66 input  -60.11 | X-H torsion
[ 7974 7965 7964 7962 ] final  150.30 input  175.53 | X-H torsion
[ 8008 7997 7996 7995 ] final   57.72 input   59.86 | X-H torsion
[ 10167 10162 10161 10158 ] final  177.03 input  -65.29 | X-H torsion
[ 10718 10713 10712 10709 ] final  124.44 input   66.30 | X-H torsion
[ 10763 10752 10751 10750 ] final -136.06 input  -60.55 | X-H torsion
[ 11005 11000 10999 10996 ] final   12.51 input  -57.11 | X-H torsion

> <Gold.Protein.ActiveResidues>
 VAL166  LYS551  ARG553  GLY616  TRP617  ASP618  TYR619  PRO620  LYS621  CYS622 
 ASP623  PHE694  ASN695  SER759  ASP760  ASP761  ALA762  ILE779  LEU786  VAL792 
 PHE793  MET794  SER795  GLU796  ALA797  LYS798  CYS799  TRP800  GLU811  SER814 

> <Gold.Protein.RotatedAtoms>
  151.5963  135.1050  160.0049 H   0  0  0  0  0  0  0  0  0  0  0  0  # atno 6907 bound_to 6896
  152.4281  133.7225  159.6552 H   0  0  0  0  0  0  0  0  0  0  0  0  # atno 6908 bound_to 6896
  150.8171  133.8246  159.3178 H   0  0  0  0  0  0  0  0  0  0  0  0  # atno 6909 bound_to 6896
  144.8374  139.6391  143.6032 H   0  0  0  0  0  0  0  0  0  0  0  0  # atno 7974 bound_to 7965
  155.5383  140.3483  155.4441 H   0  0  0  0  0  0  0  0  0  0  0  0  # atno 8008 bound_to 7997
  156.0669  140.1353  156.9901 H   0  0  0  0  0  0  0  0  0  0  0  0  # atno 8009 bound_to 7997
  154.4508  140.0973  156.6586 H   0  0  0  0  0  0  0  0  0  0  0  0  # atno 8010 bound_to 7997
  139.5237  144.2846  152.0517 H   0  0  0  0  0  0  0  0  0  0  0  0  # atno 10167 bound_to 10162
  157.5584  131.1091  150.8581 H   0  0  0  0  0  0  0  0  0  0  0  0  # atno 10718 bound_to 10713
  154.8691  135.3684  154.4999 H   0  0  0  0  0  0  0  0  0  0  0  0  # atno 10763 bound_to 10752
  153.5640  135.7022  153.5539 H   0  0  0  0  0  0  0  0  0  0  0  0  # atno 10764 bound_to 10752
  153.3602  135.4048  155.1676 H   0  0  0  0  0  0  0  0  0  0  0  0  # atno 10765 bound_to 10752
  140.4911  134.0839  155.7771 H   0  0  0  0  0  0  0  0  0  0  0  0  # atno 11005 bound_to 11000
  146.2671  139.6546  142.9322 LP  0  0  0  0  0  0  0  0  0  0  0  0  # atno 17320 bound_to 7965
  145.4766  141.0437  143.2669 LP  0  0  0  0  0  0  0  0  0  0  0  0  # atno 17321 bound_to 7965
  140.2300  144.4378  150.6304 LP  0  0  0  0  0  0  0  0  0  0  0  0  # atno 17342 bound_to 10162
  140.6361  143.2195  151.6391 LP  0  0  0  0  0  0  0  0  0  0  0  0  # atno 17343 bound_to 10162
  156.9085  130.5272  149.5281 LP  0  0  0  0  0  0  0  0  0  0  0  0  # atno 17370 bound_to 10713
  156.0640  130.5687  150.9251 LP  0  0  0  0  0  0  0  0  0  0  0  0  # atno 17371 bound_to 10713
  141.1483  133.9014  157.2160 LP  0  0  0  0  0  0  0  0  0  0  0  0  # atno 17394 bound_to 11000
  139.9768  135.0111  156.9652 LP  0  0  0  0  0  0  0  0  0  0  0  0  # atno 17395 bound_to 11000

$$$$
