AV-unprocessed.smi:2203|AV-procd|sdf|8936|dock3
  -GOLD-   2272012153D 1   1.00000     0.00000
 Structure written by MMmdl.
 48 49  0  0  0  0  0  0  0  0  1 V2000
  153.2436  138.2023  155.4696 C   0  0  0  0  0  0  0  0  0  0  0  0
  152.1045  139.1796  155.5278 C   0  0  0  0  0  0  0  0  0  0  0  0
  152.2712  140.3267  156.1626 N   0  0  0  0  0  0  0  0  0  0  0  0
  151.0894  140.9663  156.0427 N   0  0  0  0  0  0  0  0  0  0  0  0
  150.9295  142.2766  156.6561 C   0  0  0  0  0  0  0  0  0  0  0  0
  150.9917  142.2383  158.1987 C   0  0  0  0  0  0  0  0  0  0  0  0
  150.7280  143.6317  158.7877 C   0  0  0  0  0  0  0  0  0  0  0  0
  152.3139  141.6602  158.7336 C   0  0  0  0  0  0  0  0  0  0  0  0
  150.1780  140.2235  155.3139 C   0  0  0  0  0  0  0  0  0  0  0  0
  148.7914  140.7033  155.0245 C   0  0  0  0  0  0  0  0  0  0  0  0
  150.8000  139.0541  154.9656 C   0  0  0  0  0  0  0  0  0  0  0  0
  150.2454  137.8944  154.1761 C   0  0  0  0  0  0  0  0  0  0  0  0
  150.2988  136.6123  155.0080 C   0  0  0  0  0  0  0  0  0  0  0  0
  150.7466  136.6404  156.1541 O   0  0  0  0  0  0  0  0  0  0  0  0
  149.8535  135.4936  154.4154 N   0  0  0  0  0  0  0  0  0  0  0  0
  149.8531  134.1654  155.0161 C   0  0  0  0  0  0  0  0  0  0  0  0
  149.4572  133.0883  153.9932 C   0  0  1  0  0  0  0  0  0  0  0  0
  149.4283  131.6724  154.5624 C   0  0  0  0  0  0  0  0  0  0  0  0
  148.4719  130.9414  153.6333 C   0  0  0  0  0  0  0  0  0  0  0  0
  147.7089  132.0643  152.9229 C   0  0  0  0  0  0  0  0  0  0  0  0
  148.1149  133.2639  153.5684 O   0  0  0  0  0  0  0  0  0  0  0  0
  153.7617  138.2652  154.5127 H   0  0  0  0  0  0  0  0  0  0  0  0
  152.8903  137.1786  155.5902 H   0  0  0  0  0  0  0  0  0  0  0  0
  153.9754  138.3905  156.2561 H   0  0  0  0  0  0  0  0  0  0  0  0
  151.7040  142.9411  156.2692 H   0  0  0  0  0  0  0  0  0  0  0  0
  149.9797  142.6972  156.3253 H   0  0  0  0  0  0  0  0  0  0  0  0
  150.1910  141.5864  158.5488 H   0  0  0  0  0  0  0  0  0  0  0  0
  151.4993  144.3413  158.4864 H   0  0  0  0  0  0  0  0  0  0  0  0
  150.7103  143.6017  159.8774 H   0  0  0  0  0  0  0  0  0  0  0  0
  149.7665  144.0239  158.4551 H   0  0  0  0  0  0  0  0  0  0  0  0
  153.1686  142.2397  158.3835 H   0  0  0  0  0  0  0  0  0  0  0  0
  152.4588  140.6272  158.4168 H   0  0  0  0  0  0  0  0  0  0  0  0
  152.3323  141.6660  159.8237 H   0  0  0  0  0  0  0  0  0  0  0  0
  148.3197  140.0983  154.2503 H   0  0  0  0  0  0  0  0  0  0  0  0
  148.7954  141.7357  154.6753 H   0  0  0  0  0  0  0  0  0  0  0  0
  148.1688  140.6474  155.9174 H   0  0  0  0  0  0  0  0  0  0  0  0
  149.2130  138.0726  153.8736 H   0  0  0  0  0  0  0  0  0  0  0  0
  150.8032  137.7431  153.2512 H   0  0  0  0  0  0  0  0  0  0  0  0
  149.5022  135.5655  153.4718 H   0  0  0  0  0  0  0  0  0  0  0  0
  150.8366  133.9471  155.4353 H   0  0  0  0  0  0  0  0  0  0  0  0
  149.1530  134.1660  155.8521 H   0  0  0  0  0  0  0  0  0  0  0  0
  150.1153  133.1201  153.1225 H   0  0  0  0  0  0  0  0  0  0  0  0
  150.4166  131.2137  154.6029 H   0  0  0  0  0  0  0  0  0  0  0  0
  149.0188  131.6811  155.5735 H   0  0  0  0  0  0  0  0  0  0  0  0
  149.0131  130.3319  152.9089 H   0  0  0  0  0  0  0  0  0  0  0  0
  147.8042  130.2852  154.1923 H   0  0  0  0  0  0  0  0  0  0  0  0
  147.9884  132.1106  151.8695 H   0  0  0  0  0  0  0  0  0  0  0  0
  146.6276  131.9379  152.9822 H   0  0  0  0  0  0  0  0  0  0  0  0
  1  2  1  0  0  0  0
  1 22  1  0  0  0  0
  1 23  1  0  0  0  0
  1 24  1  0  0  0  0
  2 11  1  0  0  0  0
  2  3  2  0  0  0  0
  3  4  1  0  0  0  0
  4  5  1  0  0  0  0
  4  9  1  0  0  0  0
  5  6  1  0  0  0  0
  5 25  1  0  0  0  0
  5 26  1  0  0  0  0
  6  7  1  0  0  0  0
  6  8  1  0  0  0  0
  6 27  1  0  0  0  0
  7 28  1  0  0  0  0
  7 29  1  0  0  0  0
  7 30  1  0  0  0  0
  8 31  1  0  0  0  0
  8 32  1  0  0  0  0
  8 33  1  0  0  0  0
  9 10  1  0  0  0  0
  9 11  2  0  0  0  0
 10 34  1  0  0  0  0
 10 35  1  0  0  0  0
 10 36  1  0  0  0  0
 11 12  1  0  0  0  0
 12 13  1  0  0  0  0
 12 37  1  0  0  0  0
 12 38  1  0  0  0  0
 13 14  2  0  0  0  0
 13 15  1  0  0  0  0
 15 16  1  0  0  0  0
 15 39  1  0  0  0  0
 16 17  1  0  0  0  0
 16 40  1  0  0  0  0
 16 41  1  0  0  0  0
 17 21  1  0  0  0  0
 17 18  1  0  0  0  0
 17 42  1  0  0  0  0
 18 19  1  0  0  0  0
 18 43  1  0  0  0  0
 18 44  1  0  0  0  0
 19 20  1  0  0  0  0
 19 45  1  0  0  0  0
 19 46  1  0  0  0  0
 20 21  1  0  0  0  0
 20 47  1  0  0  0  0
 20 48  1  0  0  0  0
M  END
> <s_m_source_file>
AV-unprocessed.smi

> <i_m_source_file_index>
2203

> <i_lp_mmshare_version>
43012

> <i_f3d_flags>
0

> <s_epik_input>
W0NIM11jMW5uKFtDSDJdW0NIXShbQ0gzXSlbQ0gzXSljKFtDSDNdKWMxW0NIMl1DKD1PKVtOSF1bQ0gyXVtDQEBIXTJbQ0gyXVtDSDJdW0NIMl1PMg==

> <s_epik_cmdline>
J2VwaWtfcHl0aG9uJywgJy1waCcsICc3LjAnLCAnLXRuJywgJzgnLCAnLW1hJywgJzIwMCcsICctbWV0YWxfYmluZGluZycsICctaW1hZScsICc8aW5maWxlLm1hZT4nLCAnLW9tYWUnLCAnPG91dGZpbGUubWFlPic=

> <r_lp_tautomer_probability>
1

> <r_epik_Ionization_Penalty>
0.00306713

> <r_epik_Ionization_Penalty_Charging>
0

> <r_epik_Ionization_Penalty_Neutral>
0.00306713

> <r_epik_State_Penalty>
0.00215672

> <r_epik_Charging_Adjusted_Penalty>
0.00215672

> <i_epik_Tot_Q>
0

> <i_epik_Tot_abs_Q>
0

> <r_epik_Metal_State_Penalty>
-0

> <b_epik_Metal_Only>
0

> <s_lp_Force_Field>
OPLS_2005

> <r_lp_Energy>
15.0648

> <b_lp_Chiralities_Consistent>
1

> <s_lp_Variant>
AV-unprocessed.smi:2203-2

> <Gold.Version>
5.8.1

> <Gold.Id.Protein>
6NUR|6NUR_protein|mol2

> <Gold.PLP.Fitness>
43.4038

> <Gold.PLP.PLP>
-37.8200

> <Gold.PLP.part.hbond>
-2.3339

> <Gold.PLP.part.metal>
0.0000

> <Gold.PLP.part.buried>
0.0746

> <Gold.PLP.part.nonpolar>
-36.8304

> <Gold.PLP.part.repulsive>
0.2202

> <Gold.PLP.ligand.clash>
0.0000

> <Gold.PLP.ligand.torsion>
0.0783

> <Gold.PLP.Chemscore.Hbond>
1.9000

> <Gold.PLP.Chemscore.CHOScore>
0.0000

> <Gold.PLP.Chemscore.Metal>
0.0000

> <Gold.Chemscore.Hbonds>
donor molecule, donor type, donor heavy atom, donor atom, acceptor molecule, acceptor atom, score
      L1  H    15    39       P1  7948  0.85
      P1  H  7997  8009       L1     3  0.67

> <Gold.PLP.Chemscore.Internal.Correction>
0.0404

> <Gold.Rescore>
     Score         DG    S(hbond)    S(metal)    S(lipo)     H(rot)  DE(clash)    DE(int)     intcor
     16.76     -18.52       1.92        0.00      92.31       1.63       1.41       0.34       ----

> <Gold.Chemscore.Fitness>
16.7611

> <Gold.Chemscore.DG>
-18.5150

> <Gold.Chemscore.ZeroCoef>
-5.4800

> <Gold.Chemscore.Hbond>
1.9208

> <Gold.Chemscore.Metal>
0.0000

> <Gold.Chemscore.Lipo>
92.3050

> <Gold.Chemscore.Internal_Hbond>
0.0000

> <Gold.Chemscore.DEClash>
1.4139

> <Gold.Chemscore.DEInternal>
0.3400

> <Gold.Chemscore.Rot>
1.6329

> <Gold.Chemscore.Internal.Correction>
   9.000000E+99

> <Gold.Chemscore.Hbonds>
donor molecule, donor type, donor heavy atom, donor atom, acceptor molecule, acceptor atom, score
      L1  H    15    39       P1  7948  0.15
      P1  H  7997  8009       L1     3  0.08

> <Gold.Chemscore.Hbond.Weighted>
-6.4156

> <Gold.Chemscore.Metal.Weighted>
-0.0000

> <Gold.Chemscore.Lipo.Weighted>
-10.7997

> <Gold.Chemscore.Internal_Hbond.Weighted>
0.0000

> <Gold.Chemscore.DEClash.Weighted>
1.4139

> <Gold.Chemscore.DEInternal.Weighted>
0.3400

> <Gold.Chemscore.Rot.Weighted>
4.1803

> <Gold.Chemscore.Internal.Correction.Weighted>
   9.000000E+99

> <Gold.Protein.RotatedTorsions>
[ 6907 6896 6895 6894 ] final  102.30 input  -60.11 | X-H torsion
[ 7974 7965 7964 7962 ] final  -12.46 input  175.53 | X-H torsion
[ 8008 7997 7996 7995 ] final -158.82 input   59.86 | X-H torsion
[ 10167 10162 10161 10158 ] final  145.91 input  -65.29 | X-H torsion
[ 10718 10713 10712 10709 ] final -168.18 input   66.30 | X-H torsion
[ 10763 10752 10751 10750 ] final  -97.43 input  -60.55 | X-H torsion
[ 11005 11000 10999 10996 ] final  -72.67 input  -57.11 | X-H torsion

> <Gold.Protein.ActiveResidues>
 VAL166  LYS551  ARG553  GLY616  TRP617  ASP618  TYR619  PRO620  LYS621  CYS622 
 ASP623  PHE694  ASN695  SER759  ASP760  ASP761  ALA762  ILE779  LEU786  VAL792 
 PHE793  MET794  SER795  GLU796  ALA797  LYS798  CYS799  TRP800  GLU811  SER814 

> <Gold.Protein.RotatedAtoms>
  152.5327  133.9996  159.7888 H   0  0  0  0  0  0  0  0  0  0  0  0  # atno 6907 bound_to 6896
  151.0217  133.5863  159.2677 H   0  0  0  0  0  0  0  0  0  0  0  0  # atno 6908 bound_to 6896
  151.2900  135.0746  159.9254 H   0  0  0  0  0  0  0  0  0  0  0  0  # atno 6909 bound_to 6896
  146.2151  140.3061  142.8379 H   0  0  0  0  0  0  0  0  0  0  0  0  # atno 7974 bound_to 7965
  155.7533  140.0829  157.2191 H   0  0  0  0  0  0  0  0  0  0  0  0  # atno 8008 bound_to 7997
  154.4010  140.1556  156.2804 H   0  0  0  0  0  0  0  0  0  0  0  0  # atno 8009 bound_to 7997
  155.8910  140.3415  155.5959 H   0  0  0  0  0  0  0  0  0  0  0  0  # atno 8010 bound_to 7997
  139.4917  144.5867  151.6763 H   0  0  0  0  0  0  0  0  0  0  0  0  # atno 10167 bound_to 10162
  156.6931  130.9167  151.3071 H   0  0  0  0  0  0  0  0  0  0  0  0  # atno 10718 bound_to 10713
  154.7327  135.5047  153.8990 H   0  0  0  0  0  0  0  0  0  0  0  0  # atno 10763 bound_to 10752
  153.0965  135.6673  153.9762 H   0  0  0  0  0  0  0  0  0  0  0  0  # atno 10764 bound_to 10752
  153.9559  135.3053  155.3415 H   0  0  0  0  0  0  0  0  0  0  0  0  # atno 10765 bound_to 10752
  141.1612  133.6854  156.7094 H   0  0  0  0  0  0  0  0  0  0  0  0  # atno 11005 bound_to 11000
  144.9022  140.7656  143.5860 LP  0  0  0  0  0  0  0  0  0  0  0  0  # atno 17320 bound_to 7965
  145.2988  139.1857  143.4701 LP  0  0  0  0  0  0  0  0  0  0  0  0  # atno 17321 bound_to 7965
  140.5485  144.0464  150.6117 LP  0  0  0  0  0  0  0  0  0  0  0  0  # atno 17342 bound_to 10162
  140.3510  143.2963  152.0487 LP  0  0  0  0  0  0  0  0  0  0  0  0  # atno 17343 bound_to 10162
  157.7001  130.9324  150.0760 LP  0  0  0  0  0  0  0  0  0  0  0  0  # atno 17370 bound_to 10713
  156.1783  130.3649  149.9070 LP  0  0  0  0  0  0  0  0  0  0  0  0  # atno 17371 bound_to 10713
  140.2899  134.8249  157.4007 LP  0  0  0  0  0  0  0  0  0  0  0  0  # atno 17394 bound_to 11000
  140.1356  134.5038  155.8071 LP  0  0  0  0  0  0  0  0  0  0  0  0  # atno 17395 bound_to 11000

$$$$
