AV-unprocessed.smi:220|AV-procd|sdf|1682|dock10
  -GOLD-   2262020113D 1   1.00000     0.00000
 Structure written by MMmdl.
 51 55  0  0  0  0  0  0  0  0  1 V2000
  149.2269  142.2836  154.9083 N   0  0  0  0  0  0  0  0  0  0  0  0
  149.8412  141.1978  155.3838 C   0  0  0  0  0  0  0  0  0  0  0  0
  150.1330  140.2440  154.6643 O   0  0  0  0  0  0  0  0  0  0  0  0
  150.1863  141.2002  156.8816 C   0  0  2  0  0  0  0  0  0  0  0  0
  151.4921  141.9680  157.1757 C   0  0  1  0  0  0  0  0  0  0  0  0
  151.3278  143.4315  157.6187 C   0  0  0  0  0  0  0  0  0  0  0  0
  152.3328  143.6053  158.7590 C   0  0  0  0  0  0  0  0  0  0  0  0
  152.3180  142.2553  159.4770 C   0  0  0  0  0  0  0  0  0  0  0  0
  152.1502  141.2292  158.3478 C   0  0  1  0  0  0  0  0  0  0  0  0
  151.2260  140.0432  158.6399 C   0  0  0  0  0  0  0  0  0  0  0  0
  150.4532  139.8668  157.4211 N   0  0  0  0  0  0  0  0  0  0  0  0
  149.4173  139.0049  157.5354 C   0  0  0  0  0  0  0  0  0  0  0  0
  148.4807  139.0503  156.5571 N   0  0  0  0  0  0  0  0  0  0  0  0
  147.4265  138.2308  156.6014 C   0  0  0  0  0  0  0  0  0  0  0  0
  147.1274  137.3045  157.5144 N   0  0  0  0  0  0  0  0  0  0  0  0
  148.0753  137.2471  158.4937 C   0  0  0  0  0  0  0  0  0  0  0  0
  149.2451  138.0535  158.5815 C   0  0  0  0  0  0  0  0  0  0  0  0
  149.9748  137.7032  159.7115 N   0  0  0  0  0  0  0  0  0  0  0  0
  149.2711  136.7543  160.2654 C   0  0  0  0  0  0  0  0  0  0  0  0
  148.1190  136.4098  159.5954 N   0  0  0  0  0  0  0  0  0  0  0  0
  147.1538  135.3928  159.9841 C   0  0  0  0  0  0  0  0  0  0  0  0
  146.6461  135.5370  161.4330 C   0  0  0  0  0  0  0  0  0  0  0  0
  145.6310  136.6889  161.5364 C   0  0  0  0  0  0  0  0  0  0  0  0
  146.2795  137.9425  161.6019 O   0  0  0  0  0  0  0  0  0  0  0  0
  146.2021  134.2386  162.1220 C   0  0  0  0  0  0  0  0  0  0  0  0
  147.0401  134.4925  163.2689 O   0  0  0  0  0  0  0  0  0  0  0  0
  147.7241  135.5231  162.5252 C   0  0  0  0  0  0  0  0  0  0  0  0
  148.9818  142.3316  153.9299 H   0  0  0  0  0  0  0  0  0  0  0  0
  149.0122  143.0530  155.5254 H   0  0  0  0  0  0  0  0  0  0  0  0
  149.3635  141.6529  157.4341 H   0  0  0  0  0  0  0  0  0  0  0  0
  152.1736  141.9205  156.3236 H   0  0  0  0  0  0  0  0  0  0  0  0
  151.4978  144.1345  156.8028 H   0  0  0  0  0  0  0  0  0  0  0  0
  150.3226  143.6109  158.0016 H   0  0  0  0  0  0  0  0  0  0  0  0
  153.3262  143.7944  158.3500 H   0  0  0  0  0  0  0  0  0  0  0  0
  152.0793  144.4352  159.4192 H   0  0  0  0  0  0  0  0  0  0  0  0
  153.2192  142.0841  160.0659 H   0  0  0  0  0  0  0  0  0  0  0  0
  151.4671  142.2243  160.1583 H   0  0  0  0  0  0  0  0  0  0  0  0
  153.1281  140.8690  158.0241 H   0  0  0  0  0  0  0  0  0  0  0  0
  151.7962  139.1441  158.8769 H   0  0  0  0  0  0  0  0  0  0  0  0
  150.5630  140.2509  159.4814 H   0  0  0  0  0  0  0  0  0  0  0  0
  146.7220  138.3319  155.7891 H   0  0  0  0  0  0  0  0  0  0  0  0
  149.5788  136.2766  161.1836 H   0  0  0  0  0  0  0  0  0  0  0  0
  146.3211  135.4460  159.2817 H   0  0  0  0  0  0  0  0  0  0  0  0
  147.6010  134.4105  159.8280 H   0  0  0  0  0  0  0  0  0  0  0  0
  144.9348  136.6906  160.6975 H   0  0  0  0  0  0  0  0  0  0  0  0
  145.0208  136.5831  162.4341 H   0  0  0  0  0  0  0  0  0  0  0  0
  146.2964  138.2255  162.5034 H   0  0  0  0  0  0  0  0  0  0  0  0
  145.1413  134.2076  162.3742 H   0  0  0  0  0  0  0  0  0  0  0  0
  146.5053  133.3291  161.6014 H   0  0  0  0  0  0  0  0  0  0  0  0
  148.7029  135.1893  162.1773 H   0  0  0  0  0  0  0  0  0  0  0  0
  147.8082  136.4569  163.0824 H   0  0  0  0  0  0  0  0  0  0  0  0
  1  2  1  0  0  0  0
  1 28  1  0  0  0  0
  1 29  1  0  0  0  0
  2  3  2  0  0  0  0
  2  4  1  0  0  0  0
  4 11  1  0  0  0  0
  4  5  1  0  0  0  0
  4 30  1  0  0  0  0
  5  9  1  0  0  0  0
  5  6  1  0  0  0  0
  5 31  1  0  0  0  0
  6  7  1  0  0  0  0
  6 32  1  0  0  0  0
  6 33  1  0  0  0  0
  7  8  1  0  0  0  0
  7 34  1  0  0  0  0
  7 35  1  0  0  0  0
  8  9  1  0  0  0  0
  8 36  1  0  0  0  0
  8 37  1  0  0  0  0
  9 10  1  0  0  0  0
  9 38  1  0  0  0  0
 10 11  1  0  0  0  0
 10 39  1  0  0  0  0
 10 40  1  0  0  0  0
 11 12  1  0  0  0  0
 12 17  1  0  0  0  0
 12 13  2  0  0  0  0
 13 14  1  0  0  0  0
 14 15  2  0  0  0  0
 14 41  1  0  0  0  0
 15 16  1  0  0  0  0
 16 20  1  0  0  0  0
 16 17  2  0  0  0  0
 17 18  1  0  0  0  0
 18 19  2  0  0  0  0
 19 20  1  0  0  0  0
 19 42  1  0  0  0  0
 20 21  1  0  0  0  0
 21 22  1  0  0  0  0
 21 43  1  0  0  0  0
 21 44  1  0  0  0  0
 22 27  1  0  0  0  0
 22 23  1  0  0  0  0
 22 25  1  0  0  0  0
 23 24  1  0  0  0  0
 23 45  1  0  0  0  0
 23 46  1  0  0  0  0
 24 47  1  0  0  0  0
 25 26  1  0  0  0  0
 25 48  1  0  0  0  0
 25 49  1  0  0  0  0
 26 27  1  0  0  0  0
 27 50  1  0  0  0  0
 27 51  1  0  0  0  0
M  END
> <s_m_source_file>
AV-unprocessed.smi

> <i_m_source_file_index>
220

> <i_lp_mmshare_version>
43012

> <i_f3d_flags>
0

> <s_epik_input>
W0NIMl0xW0NIMl1bQ0gyXVtDQEhdKFtDQEhdMTIpW0NIMl1OKFtDQEBIXTJDKD1PKVtOSDJdKWMobltjSF1uMyljKGMzNCluW2NIXW40W0NIMl1DNShbQ0gyXVtPSF0pW0NIMl1PW0NIMl01

> <s_epik_cmdline>
J2VwaWtfcHl0aG9uJywgJy1waCcsICc3LjAnLCAnLXRuJywgJzgnLCAnLW1hJywgJzIwMCcsICctbWV0YWxfYmluZGluZycsICctaW1hZScsICc8aW5maWxlLm1hZT4nLCAnLW9tYWUnLCAnPG91dGZpbGUubWFlPic=

> <r_lp_tautomer_probability>
1

> <r_epik_Ionization_Penalty>
0.00118987

> <r_epik_Ionization_Penalty_Charging>
0

> <r_epik_Ionization_Penalty_Neutral>
0.00118987

> <r_epik_State_Penalty>
0.000654261

> <r_epik_Charging_Adjusted_Penalty>
0.000654261

> <i_epik_Tot_Q>
0

> <i_epik_Tot_abs_Q>
0

> <r_epik_Metal_State_Penalty>
-0

> <b_epik_Metal_Only>
0

> <s_lp_Force_Field>
OPLS_2005

> <r_lp_Energy>
61.293

> <b_lp_Chiralities_Consistent>
1

> <s_lp_Variant>
AV-unprocessed.smi:220-1

> <Gold.Version>
5.8.1

> <Gold.Id.Protein>
6NUR|6NUR_protein|mol2

> <Gold.PLP.Fitness>
47.1678

> <Gold.PLP.PLP>
-41.8633

> <Gold.PLP.part.hbond>
-4.6352

> <Gold.PLP.part.metal>
0.0000

> <Gold.PLP.part.buried>
-6.7190

> <Gold.PLP.part.nonpolar>
-32.1123

> <Gold.PLP.part.repulsive>
0.4991

> <Gold.PLP.ligand.clash>
0.0000

> <Gold.PLP.ligand.torsion>
1.7257

> <Gold.PLP.Chemscore.Hbond>
2.7760

> <Gold.PLP.Chemscore.CHOScore>
0.0000

> <Gold.PLP.Chemscore.Metal>
0.0000

> <Gold.Chemscore.Hbonds>
donor molecule, donor type, donor heavy atom, donor atom, acceptor molecule, acceptor atom, score
      L1  H     1    29       P1  8028  0.90
      P1  H  6934  6947       L1    24  0.85
      P1  H  7989  7998       L1     3  1.00

> <Gold.PLP.Chemscore.Internal.Correction>
0.4280

> <Gold.Rescore>
     Score         DG    S(hbond)    S(metal)    S(lipo)     H(rot)  DE(clash)    DE(int)     intcor
      9.46     -15.51       2.30        0.00      91.55       3.27       0.06       5.99       ----

> <Gold.Chemscore.Fitness>
9.4608

> <Gold.Chemscore.DG>
-15.5094

> <Gold.Chemscore.ZeroCoef>
-5.4800

> <Gold.Chemscore.Hbond>
2.3025

> <Gold.Chemscore.Metal>
0.0000

> <Gold.Chemscore.Lipo>
91.5490

> <Gold.Chemscore.Internal_Hbond>
0.0000

> <Gold.Chemscore.DEClash>
0.0552

> <Gold.Chemscore.DEInternal>
5.9934

> <Gold.Chemscore.Rot>
3.2703

> <Gold.Chemscore.Internal.Correction>
   9.000000E+99

> <Gold.Chemscore.Hbonds>
donor molecule, donor type, donor heavy atom, donor atom, acceptor molecule, acceptor atom, score
      L1  H     1    29       P1  8028  0.88
      P1  H  6934  6947       L1    24  0.20
      P1  H  7989  7998       L1     3  0.51

> <Gold.Chemscore.Hbond.Weighted>
-7.6902

> <Gold.Chemscore.Metal.Weighted>
-0.0000

> <Gold.Chemscore.Lipo.Weighted>
-10.7112

> <Gold.Chemscore.Internal_Hbond.Weighted>
0.0000

> <Gold.Chemscore.DEClash.Weighted>
0.0552

> <Gold.Chemscore.DEInternal.Weighted>
5.9934

> <Gold.Chemscore.Rot.Weighted>
8.3721

> <Gold.Chemscore.Internal.Correction.Weighted>
   9.000000E+99

> <Gold.Protein.RotatedTorsions>
[ 6907 6896 6895 6894 ] final  -71.55 input  -60.11 | X-H torsion
[ 7974 7965 7964 7962 ] final  -88.63 input  175.53 | X-H torsion
[ 8008 7997 7996 7995 ] final   42.52 input   59.86 | X-H torsion
[ 10167 10162 10161 10158 ] final  -63.51 input  -65.29 | X-H torsion
[ 10718 10713 10712 10709 ] final   70.66 input   66.30 | X-H torsion
[ 10763 10752 10751 10750 ] final -143.70 input  -60.55 | X-H torsion
[ 11005 11000 10999 10996 ] final    5.32 input  -57.11 | X-H torsion

> <Gold.Protein.ActiveResidues>
 VAL166  LYS551  ARG553  GLY616  TRP617  ASP618  TYR619  PRO620  LYS621  CYS622 
 ASP623  PHE694  ASN695  SER759  ASP760  ASP761  ALA762  ILE779  LEU786  VAL792 
 PHE793  MET794  SER795  GLU796  ALA797  LYS798  CYS799  TRP800  GLU811  SER814 

> <Gold.Protein.RotatedAtoms>
  150.7208  134.5292  159.5691 H   0  0  0  0  0  0  0  0  0  0  0  0  # atno 6907 bound_to 6896
  152.2829  134.7805  160.0402 H   0  0  0  0  0  0  0  0  0  0  0  0  # atno 6908 bound_to 6896
  151.8445  133.3394  159.3690 H   0  0  0  0  0  0  0  0  0  0  0  0  # atno 6909 bound_to 6896
  145.4506  140.9560  143.2024 H   0  0  0  0  0  0  0  0  0  0  0  0  # atno 7974 bound_to 7965
  155.2875  140.3376  155.4254 H   0  0  0  0  0  0  0  0  0  0  0  0  # atno 8008 bound_to 7997
  156.2061  140.1752  156.7836 H   0  0  0  0  0  0  0  0  0  0  0  0  # atno 8009 bound_to 7997
  154.5623  140.0685  156.8823 H   0  0  0  0  0  0  0  0  0  0  0  0  # atno 8010 bound_to 7997
  140.5866  143.2335  151.6230 H   0  0  0  0  0  0  0  0  0  0  0  0  # atno 10167 bound_to 10162
  157.6412  130.9489  150.0682 H   0  0  0  0  0  0  0  0  0  0  0  0  # atno 10718 bound_to 10713
  154.8459  135.3461  154.6228 H   0  0  0  0  0  0  0  0  0  0  0  0  # atno 10763 bound_to 10752
  153.6837  135.6978  153.5115 H   0  0  0  0  0  0  0  0  0  0  0  0  # atno 10764 bound_to 10752
  153.2648  135.4311  155.0886 H   0  0  0  0  0  0  0  0  0  0  0  0  # atno 10765 bound_to 10752
  140.5720  134.0093  155.8012 H   0  0  0  0  0  0  0  0  0  0  0  0  # atno 11005 bound_to 11000
  144.8064  139.6044  143.7049 LP  0  0  0  0  0  0  0  0  0  0  0  0  # atno 17320 bound_to 7965
  146.2506  139.6192  142.9429 LP  0  0  0  0  0  0  0  0  0  0  0  0  # atno 17321 bound_to 7965
  139.5201  144.3233  152.0891 LP  0  0  0  0  0  0  0  0  0  0  0  0  # atno 17342 bound_to 10162
  140.2391  144.4289  150.6267 LP  0  0  0  0  0  0  0  0  0  0  0  0  # atno 17343 bound_to 10162
  156.1694  130.3646  149.9186 LP  0  0  0  0  0  0  0  0  0  0  0  0  # atno 17370 bound_to 10713
  156.7166  130.8990  151.3614 LP  0  0  0  0  0  0  0  0  0  0  0  0  # atno 17371 bound_to 10713
  141.1050  133.9708  157.3012 LP  0  0  0  0  0  0  0  0  0  0  0  0  # atno 17394 bound_to 11000
  139.9357  135.0196  156.8548 LP  0  0  0  0  0  0  0  0  0  0  0  0  # atno 17395 bound_to 11000

$$$$
