AV-unprocessed.smi:21|AV-procd|sdf|168|dock5
  -GOLD-   2262015413D 1   1.00000     0.00000
 Structure written by MMmdl.
 61 64  0  0  0  0  0  0  0  0  1 V2000
  151.1465  144.5433  160.9590 C   0  0  0  0  0  0  0  0  0  0  0  0
  152.2043  145.0725  160.1745 O   0  0  0  0  0  0  0  0  0  0  0  0
  152.6487  144.1802  159.1622 C   0  0  2  0  0  0  0  0  0  0  0  0
  151.5462  143.8727  158.1384 C   0  0  0  0  0  0  0  0  0  0  0  0
  151.6261  142.3517  157.9533 C   0  0  2  0  0  0  0  0  0  0  0  0
  150.3365  141.7166  157.3804 C   0  0  0  0  0  0  0  0  0  0  0  0
  150.5189  140.3504  156.8849 N   0  0  0  0  0  0  0  0  0  0  0  0
  151.4656  140.1500  155.7918 C   0  0  0  0  0  0  0  0  0  0  0  0
  149.4598  139.5019  156.9786 C   0  0  0  0  0  0  0  0  0  0  0  0
  148.2623  139.8751  156.4514 N   0  0  0  0  0  0  0  0  0  0  0  0
  147.1849  139.0999  156.5984 C   0  0  0  0  0  0  0  0  0  0  0  0
  147.0794  137.9315  157.2316 N   0  0  0  0  0  0  0  0  0  0  0  0
  148.2806  137.5343  157.7394 C   0  0  0  0  0  0  0  0  0  0  0  0
  149.5136  138.2400  157.6400 C   0  0  0  0  0  0  0  0  0  0  0  0
  150.5257  137.4978  158.2387 N   0  0  0  0  0  0  0  0  0  0  0  0
  149.9228  136.4324  158.6877 C   0  0  0  0  0  0  0  0  0  0  0  0
  148.5640  136.3951  158.4730 N   0  0  0  0  0  0  0  0  0  0  0  0
  147.6464  135.3510  158.8957 C   0  0  0  0  0  0  0  0  0  0  0  0
  147.9948  134.7086  160.2686 C   0  0  1  0  0  0  0  0  0  0  0  0
  147.4168  135.5841  161.4056 C   0  0  0  0  0  0  0  0  0  0  0  0
  148.4333  136.0216  162.2839 O   0  0  0  0  0  0  0  0  0  0  0  0
  147.5095  133.2362  160.4163 C   0  0  1  0  0  0  0  0  0  0  0  0
  146.0179  132.9854  160.2560 C   0  0  0  0  0  0  0  0  0  0  0  0
  145.9709  131.4936  159.9637 C   0  0  0  0  0  0  0  0  0  0  0  0
  147.0959  131.2608  159.1322 O   0  0  0  0  0  0  0  0  0  0  0  0
  148.0667  132.2813  159.3461 C   0  0  0  0  0  0  0  0  0  0  0  0
  151.9892  141.8679  159.2762 N   0  0  0  0  0  0  0  0  0  0  0  0
  152.4694  140.4924  159.2955 C   0  0  0  0  0  0  0  0  0  0  0  0
  152.9908  142.8065  159.7547 C   0  0  0  0  0  0  0  0  0  0  0  0
  153.5381  144.5774  158.6696 H   0  0  0  0  0  0  0  0  0  0  0  0
  152.4524  142.1426  157.2714 H   0  0  0  0  0  0  0  0  0  0  0  0
  150.8354  145.2784  161.7006 H   0  0  0  0  0  0  0  0  0  0  0  0
  151.4520  143.6419  161.4908 H   0  0  0  0  0  0  0  0  0  0  0  0
  150.2792  144.3065  160.3417 H   0  0  0  0  0  0  0  0  0  0  0  0
  150.5704  144.1462  158.5437 H   0  0  0  0  0  0  0  0  0  0  0  0
  151.6914  144.4217  157.2081 H   0  0  0  0  0  0  0  0  0  0  0  0
  149.5774  141.6686  158.1608 H   0  0  0  0  0  0  0  0  0  0  0  0
  149.9170  142.3695  156.6187 H   0  0  0  0  0  0  0  0  0  0  0  0
  151.7827  139.1078  155.7390 H   0  0  0  0  0  0  0  0  0  0  0  0
  152.3560  140.7609  155.9407 H   0  0  0  0  0  0  0  0  0  0  0  0
  151.0206  140.4271  154.8354 H   0  0  0  0  0  0  0  0  0  0  0  0
  146.2739  139.4767  156.1577 H   0  0  0  0  0  0  0  0  0  0  0  0
  150.4518  135.6551  159.2197 H   0  0  0  0  0  0  0  0  0  0  0  0
  146.6556  135.8045  158.9233 H   0  0  0  0  0  0  0  0  0  0  0  0
  147.6062  134.5821  158.1232 H   0  0  0  0  0  0  0  0  0  0  0  0
  149.0786  134.7075  160.3877 H   0  0  0  0  0  0  0  0  0  0  0  0
  146.8926  136.4497  160.9996 H   0  0  0  0  0  0  0  0  0  0  0  0
  146.6979  135.0318  162.0093 H   0  0  0  0  0  0  0  0  0  0  0  0
  148.6176  135.3290  162.9002 H   0  0  0  0  0  0  0  0  0  0  0  0
  147.8071  132.8614  161.3972 H   0  0  0  0  0  0  0  0  0  0  0  0
  145.4394  133.2253  161.1458 H   0  0  0  0  0  0  0  0  0  0  0  0
  145.6168  133.5503  159.4134 H   0  0  0  0  0  0  0  0  0  0  0  0
  146.0883  130.9212  160.8846 H   0  0  0  0  0  0  0  0  0  0  0  0
  145.0407  131.1843  159.4876 H   0  0  0  0  0  0  0  0  0  0  0  0
  148.2199  132.7987  158.3983 H   0  0  0  0  0  0  0  0  0  0  0  0
  149.0193  131.8449  159.6470 H   0  0  0  0  0  0  0  0  0  0  0  0
  152.7751  140.2082  160.3028 H   0  0  0  0  0  0  0  0  0  0  0  0
  153.3255  140.3627  158.6322 H   0  0  0  0  0  0  0  0  0  0  0  0
  151.6883  139.7996  158.9835 H   0  0  0  0  0  0  0  0  0  0  0  0
  153.9794  142.5107  159.3995 H   0  0  0  0  0  0  0  0  0  0  0  0
  153.0285  142.8195  160.8445 H   0  0  0  0  0  0  0  0  0  0  0  0
  1  2  1  0  0  0  0
  1 32  1  0  0  0  0
  1 33  1  0  0  0  0
  1 34  1  0  0  0  0
  2  3  1  0  0  0  0
  3 30  1  0  0  0  0
  3 29  1  0  0  0  0
  3  4  1  0  0  0  0
  4  5  1  0  0  0  0
  4 35  1  0  0  0  0
  4 36  1  0  0  0  0
  5 31  1  0  0  0  0
  5  6  1  0  0  0  0
  5 27  1  0  0  0  0
  6  7  1  0  0  0  0
  6 37  1  0  0  0  0
  6 38  1  0  0  0  0
  7  8  1  0  0  0  0
  7  9  1  0  0  0  0
  8 39  1  0  0  0  0
  8 40  1  0  0  0  0
  8 41  1  0  0  0  0
  9 14  1  0  0  0  0
  9 10  2  0  0  0  0
 10 11  1  0  0  0  0
 11 12  2  0  0  0  0
 11 42  1  0  0  0  0
 12 13  1  0  0  0  0
 13 17  1  0  0  0  0
 13 14  2  0  0  0  0
 14 15  1  0  0  0  0
 15 16  2  0  0  0  0
 16 17  1  0  0  0  0
 16 43  1  0  0  0  0
 17 18  1  0  0  0  0
 18 19  1  0  0  0  0
 18 44  1  0  0  0  0
 18 45  1  0  0  0  0
 19 20  1  0  0  0  0
 19 22  1  0  0  0  0
 19 46  1  0  0  0  0
 20 21  1  0  0  0  0
 20 47  1  0  0  0  0
 20 48  1  0  0  0  0
 21 49  1  0  0  0  0
 22 26  1  0  0  0  0
 22 23  1  0  0  0  0
 22 50  1  0  0  0  0
 23 24  1  0  0  0  0
 23 51  1  0  0  0  0
 23 52  1  0  0  0  0
 24 25  1  0  0  0  0
 24 53  1  0  0  0  0
 24 54  1  0  0  0  0
 25 26  1  0  0  0  0
 26 55  1  0  0  0  0
 26 56  1  0  0  0  0
 27 28  1  0  0  0  0
 27 29  1  0  0  0  0
 28 57  1  0  0  0  0
 28 58  1  0  0  0  0
 28 59  1  0  0  0  0
 29 60  1  0  0  0  0
 29 61  1  0  0  0  0
M  END
> <s_m_source_file>
AV-unprocessed.smi

> <i_m_source_file_index>
21

> <i_lp_mmshare_version>
43012

> <i_f3d_flags>
0

> <s_epik_input>
W0NIM11PW0NASF0xW0NIMl1bQ0BIXShOKFtDSDNdKVtDSDJdMSlbQ0gyXU4oW0NIM10pYyhuW2NIXW4yKWMoYzIzKW5bY0hdbjNbQ0gyXVtDQEhdKFtDSDJdW09IXSlbQ0BASF00W0NIMl1bQ0gyXU9bQ0gyXTQ=

> <s_epik_cmdline>
J2VwaWtfcHl0aG9uJywgJy1waCcsICc3LjAnLCAnLXRuJywgJzgnLCAnLW1hJywgJzIwMCcsICctbWV0YWxfYmluZGluZycsICctaW1hZScsICc8aW5maWxlLm1hZT4nLCAnLW9tYWUnLCAnPG91dGZpbGUubWFlPic=

> <r_lp_tautomer_probability>
1

> <r_epik_Ionization_Penalty>
2.17574

> <r_epik_Ionization_Penalty_Charging>
0

> <r_epik_Ionization_Penalty_Neutral>
2.17574

> <r_epik_State_Penalty>
2.31336

> <r_epik_Charging_Adjusted_Penalty>
2.31336

> <i_epik_Tot_Q>
0

> <i_epik_Tot_abs_Q>
0

> <r_epik_Metal_State_Penalty>
2.31025

> <b_epik_Metal_Only>
0

> <s_lp_Force_Field>
OPLS_2005

> <r_lp_Energy>
69.8341

> <b_lp_Chiralities_Consistent>
1

> <s_lp_Variant>
AV-unprocessed.smi:21-48

> <Gold.Version>
5.8.1

> <Gold.Id.Protein>
6NUR|6NUR_protein|mol2

> <Gold.PLP.Fitness>
50.9281

> <Gold.PLP.PLP>
-55.0034

> <Gold.PLP.part.hbond>
-1.8906

> <Gold.PLP.part.metal>
0.0000

> <Gold.PLP.part.buried>
-6.1814

> <Gold.PLP.part.nonpolar>
-47.1241

> <Gold.PLP.part.repulsive>
0.1010

> <Gold.PLP.ligand.clash>
0.0000

> <Gold.PLP.ligand.torsion>
2.9498

> <Gold.PLP.Chemscore.Hbond>
0.3744

> <Gold.PLP.Chemscore.CHOScore>
0.0000

> <Gold.PLP.Chemscore.Metal>
0.0000

> <Gold.Chemscore.Hbonds>
donor molecule, donor type, donor heavy atom, donor atom, acceptor molecule, acceptor atom, score
      P1  H  6931  6943       L1    21  0.26

> <Gold.PLP.Chemscore.Internal.Correction>
0.7010

> <Gold.Rescore>
     Score         DG    S(hbond)    S(metal)    S(lipo)     H(rot)  DE(clash)    DE(int)     intcor
     11.02     -14.22       0.27        0.00     132.87       3.00       0.09       3.11       ----

> <Gold.Chemscore.Fitness>
11.0218

> <Gold.Chemscore.DG>
-14.2239

> <Gold.Chemscore.ZeroCoef>
-5.4800

> <Gold.Chemscore.Hbond>
0.2654

> <Gold.Chemscore.Metal>
0.0000

> <Gold.Chemscore.Lipo>
132.8668

> <Gold.Chemscore.Internal_Hbond>
0.0000

> <Gold.Chemscore.DEClash>
0.0930

> <Gold.Chemscore.DEInternal>
3.1092

> <Gold.Chemscore.Rot>
3.0031

> <Gold.Chemscore.Internal.Correction>
   9.000000E+99

> <Gold.Chemscore.Hbonds>
donor molecule, donor type, donor heavy atom, donor atom, acceptor molecule, acceptor atom, score
      P1  H  6931  6943       L1    21  0.23

> <Gold.Chemscore.Hbond.Weighted>
-0.8865

> <Gold.Chemscore.Metal.Weighted>
-0.0000

> <Gold.Chemscore.Lipo.Weighted>
-15.5454

> <Gold.Chemscore.Internal_Hbond.Weighted>
0.0000

> <Gold.Chemscore.DEClash.Weighted>
0.0930

> <Gold.Chemscore.DEInternal.Weighted>
3.1092

> <Gold.Chemscore.Rot.Weighted>
7.6880

> <Gold.Chemscore.Internal.Correction.Weighted>
   9.000000E+99

> <Gold.Protein.RotatedTorsions>
[ 6907 6896 6895 6894 ] final  147.66 input  -60.11 | X-H torsion
[ 7974 7965 7964 7962 ] final -145.78 input  175.53 | X-H torsion
[ 8008 7997 7996 7995 ] final -125.75 input   59.86 | X-H torsion
[ 10167 10162 10161 10158 ] final   34.18 input  -65.29 | X-H torsion
[ 10718 10713 10712 10709 ] final  -98.16 input   66.30 | X-H torsion
[ 10763 10752 10751 10750 ] final -168.79 input  -60.55 | X-H torsion
[ 11005 11000 10999 10996 ] final -127.23 input  -57.11 | X-H torsion

> <Gold.Protein.ActiveResidues>
 VAL166  LYS551  ARG553  GLY616  TRP617  ASP618  TYR619  PRO620  LYS621  CYS622 
 ASP623  PHE694  ASN695  SER759  ASP760  ASP761  ALA762  ILE779  LEU786  VAL792 
 PHE793  MET794  SER795  GLU796  ALA797  LYS798  CYS799  TRP800  GLU811  SER814 

> <Gold.Protein.RotatedAtoms>
  152.1519  133.4527  159.4817 H   0  0  0  0  0  0  0  0  0  0  0  0  # atno 6907 bound_to 6896
  150.6896  134.2179  159.4394 H   0  0  0  0  0  0  0  0  0  0  0  0  # atno 6908 bound_to 6896
  152.0076  134.9893  160.0618 H   0  0  0  0  0  0  0  0  0  0  0  0  # atno 6909 bound_to 6896
  144.8204  140.5540  143.5582 H   0  0  0  0  0  0  0  0  0  0  0  0  # atno 7974 bound_to 7965
  155.2184  140.0421  157.2944 H   0  0  0  0  0  0  0  0  0  0  0  0  # atno 8008 bound_to 7997
  154.5966  140.2441  155.7819 H   0  0  0  0  0  0  0  0  0  0  0  0  # atno 8009 bound_to 7997
  156.2294  140.2943  156.0158 H   0  0  0  0  0  0  0  0  0  0  0  0  # atno 8010 bound_to 7997
  140.4339  144.1285  150.6163 H   0  0  0  0  0  0  0  0  0  0  0  0  # atno 10167 bound_to 10162
  156.0100  130.5226  150.6481 H   0  0  0  0  0  0  0  0  0  0  0  0  # atno 10718 bound_to 10713
  154.6591  135.2922  154.9889 H   0  0  0  0  0  0  0  0  0  0  0  0  # atno 10763 bound_to 10752
  154.0956  135.6584  153.4863 H   0  0  0  0  0  0  0  0  0  0  0  0  # atno 10764 bound_to 10752
  153.0419  135.5230  154.7534 H   0  0  0  0  0  0  0  0  0  0  0  0  # atno 10765 bound_to 10752
  140.9617  134.0928  157.3962 H   0  0  0  0  0  0  0  0  0  0  0  0  # atno 11005 bound_to 11000
  145.5118  139.1479  143.3600 LP  0  0  0  0  0  0  0  0  0  0  0  0  # atno 17320 bound_to 7965
  146.2509  140.5259  142.8894 LP  0  0  0  0  0  0  0  0  0  0  0  0  # atno 17321 bound_to 7965
  140.4396  143.2532  151.9491 LP  0  0  0  0  0  0  0  0  0  0  0  0  # atno 17342 bound_to 10162
  139.4786  144.5667  151.8153 LP  0  0  0  0  0  0  0  0  0  0  0  0  # atno 17343 bound_to 10162
  157.4248  131.0841  151.1096 LP  0  0  0  0  0  0  0  0  0  0  0  0  # atno 17370 bound_to 10713
  157.1687  130.6258  149.5633 LP  0  0  0  0  0  0  0  0  0  0  0  0  # atno 17371 bound_to 10713
  139.8880  135.0094  156.6595 LP  0  0  0  0  0  0  0  0  0  0  0  0  # atno 17394 bound_to 11000
  140.7458  133.8939  155.8311 LP  0  0  0  0  0  0  0  0  0  0  0  0  # atno 17395 bound_to 11000

$$$$
