AV-unprocessed.smi:527|AV-procd|sdf|2830|dock2
  -GOLD-   2262023313D 1   1.00000     0.00000
 Structure written by MMmdl.
 43 44  0  0  0  0  0  0  0  0  2 V2000
  152.1732  138.1333  154.3449 C   0  0  0  0  0  0  0  0  0  0  0  0
  150.8694  137.3856  154.6780 C   0  0  1  0  0  0  0  0  0  0  0  0
  151.1475  136.2985  155.7367 C   0  0  0  0  0  0  0  0  0  0  0  0
  149.8841  135.5078  156.1018 C   0  0  0  0  0  0  0  0  0  0  0  0
  148.7681  136.4468  156.5805 C   0  0  0  0  0  0  0  0  0  0  0  0
  148.4547  137.5403  155.5398 C   0  0  2  0  0  0  0  0  0  0  0  0
  147.8097  136.9675  154.3572 N   0  0  0  0  0  0  0  0  0  0  0  0
  146.5974  136.3959  154.3269 C   0  0  0  0  0  0  0  0  0  0  0  0
  145.9443  136.1347  155.3392 O   0  0  0  0  0  0  0  0  0  0  0  0
  146.2086  136.1622  153.0590 N   0  0  0  0  0  0  0  0  0  0  0  0
  144.9569  135.9295  152.6137 C   0  0  0  0  0  0  0  0  0  0  0  0
  143.9484  135.8720  153.3196 O   0  0  0  0  0  0  0  0  0  0  0  0
  144.8151  135.7460  151.1025 C   0  0  0  0  0  0  0  0  0  0  0  0
  145.1106  134.3642  150.7125 N   0  0  0  0  0  0  0  0  0  0  0  0
  144.2470  133.4523  150.1606 C   0  0  0  0  0  0  0  0  0  0  0  0
  144.9627  132.2971  149.9776 C   0  0  0  0  0  0  0  0  0  0  0  0
  146.2312  132.5516  150.4259 N   0  3  0  0  0  0  0  0  0  0  0  0
  146.3192  133.8086  150.8734 C   0  0  0  0  0  0  0  0  0  0  0  0
  149.7297  138.3326  155.1496 C   0  0  2  0  0  0  0  0  0  0  0  0
  149.4055  139.4435  154.1301 C   0  0  0  0  0  0  0  0  0  0  0  0
  152.5229  138.7202  155.1949 H   0  0  0  0  0  0  0  0  0  0  0  0
  152.0478  138.8082  153.4986 H   0  0  0  0  0  0  0  0  0  0  0  0
  152.9662  137.4349  154.0763 H   0  0  0  0  0  0  0  0  0  0  0  0
  150.5435  136.8836  153.7660 H   0  0  0  0  0  0  0  0  0  0  0  0
  151.9095  135.6091  155.3715 H   0  0  0  0  0  0  0  0  0  0  0  0
  151.5571  136.7587  156.6369 H   0  0  0  0  0  0  0  0  0  0  0  0
  149.5449  134.9354  155.2377 H   0  0  0  0  0  0  0  0  0  0  0  0
  150.1149  134.7807  156.8809 H   0  0  0  0  0  0  0  0  0  0  0  0
  147.8712  135.8726  156.8157 H   0  0  0  0  0  0  0  0  0  0  0  0
  149.0754  136.9193  157.5143 H   0  0  0  0  0  0  0  0  0  0  0  0
  147.7564  138.2447  155.9959 H   0  0  0  0  0  0  0  0  0  0  0  0
  148.3311  137.0211  153.4945 H   0  0  0  0  0  0  0  0  0  0  0  0
  146.9381  136.1696  152.3618 H   0  0  0  0  0  0  0  0  0  0  0  0
  143.8037  135.9889  150.7732 H   0  0  0  0  0  0  0  0  0  0  0  0
  145.4993  136.4119  150.5741 H   0  0  0  0  0  0  0  0  0  0  0  0
  143.2142  133.6860  149.9464 H   0  0  0  0  0  0  0  0  0  0  0  0
  144.6715  131.3381  149.5739 H   0  0  0  0  0  0  0  0  0  0  0  0
  147.1930  134.2803  151.2874 H   0  0  0  0  0  0  0  0  0  0  0  0
  150.0776  138.8321  156.0552 H   0  0  0  0  0  0  0  0  0  0  0  0
  149.1698  139.0340  153.1475 H   0  0  0  0  0  0  0  0  0  0  0  0
  150.2392  140.1348  154.0109 H   0  0  0  0  0  0  0  0  0  0  0  0
  148.5501  140.0356  154.4569 H   0  0  0  0  0  0  0  0  0  0  0  0
  146.9944  131.8862  150.4228 H   0  0  0  0  0  0  0  0  0  0  0  0
  1  2  1  0  0  0  0
  1 21  1  0  0  0  0
  1 22  1  0  0  0  0
  1 23  1  0  0  0  0
  2 19  1  0  0  0  0
  2  3  1  0  0  0  0
  2 24  1  0  0  0  0
  3  4  1  0  0  0  0
  3 25  1  0  0  0  0
  3 26  1  0  0  0  0
  4  5  1  0  0  0  0
  4 27  1  0  0  0  0
  4 28  1  0  0  0  0
  5  6  1  0  0  0  0
  5 29  1  0  0  0  0
  5 30  1  0  0  0  0
  6  7  1  0  0  0  0
  6 19  1  0  0  0  0
  6 31  1  0  0  0  0
  7  8  1  0  0  0  0
  7 32  1  0  0  0  0
  8  9  2  0  0  0  0
  8 10  1  0  0  0  0
 10 11  1  0  0  0  0
 10 33  1  0  0  0  0
 11 12  2  0  0  0  0
 11 13  1  0  0  0  0
 13 14  1  0  0  0  0
 13 34  1  0  0  0  0
 13 35  1  0  0  0  0
 14 18  1  0  0  0  0
 14 15  1  0  0  0  0
 15 16  2  0  0  0  0
 15 36  1  0  0  0  0
 16 17  1  0  0  0  0
 16 37  1  0  0  0  0
 17 18  2  0  0  0  0
 17 43  1  0  0  0  0
 18 38  1  0  0  0  0
 19 20  1  0  0  0  0
 19 39  1  0  0  0  0
 20 40  1  0  0  0  0
 20 41  1  0  0  0  0
 20 42  1  0  0  0  0
M  CHG  1  17   1
M  END
> <s_m_source_file>
AV-unprocessed.smi

> <i_m_source_file_index>
527

> <i_lp_mmshare_version>
43012

> <i_f3d_flags>
0

> <s_epik_input>
W0NIM11bQ0BASF0xW0NIMl1bQ0gyXVtDSDJdW0NASF0oW0NASF0xW0NIM10pW05IXUMoPU8pW05IXUMoPU8pW0NIMl1uMltjSF1bY0hdbltjSF0y

> <s_epik_cmdline>
J2VwaWtfcHl0aG9uJywgJy1waCcsICc3LjAnLCAnLXRuJywgJzgnLCAnLW1hJywgJzIwMCcsICctbWV0YWxfYmluZGluZycsICctaW1hZScsICc8aW5maWxlLm1hZT4nLCAnLW9tYWUnLCAnPG91dGZpbGUubWFlPic=

> <r_lp_tautomer_probability>
1

> <r_epik_Ionization_Penalty>
0.816441

> <r_epik_Ionization_Penalty_Charging>
0

> <r_epik_Ionization_Penalty_Neutral>
0.816441

> <r_epik_State_Penalty>
0.849034

> <r_epik_Charging_Adjusted_Penalty>
0.849034

> <i_epik_Tot_Q>
1

> <i_epik_Tot_abs_Q>
1

> <r_epik_Metal_State_Penalty>
0.984327

> <b_epik_Metal_Only>
0

> <s_lp_Force_Field>
OPLS_2005

> <r_lp_Energy>
15.9829

> <b_lp_Chiralities_Consistent>
1

> <s_lp_Variant>
AV-unprocessed.smi:527-16

> <Gold.Version>
5.8.1

> <Gold.Id.Protein>
6NUR|6NUR_protein|mol2

> <Gold.PLP.Fitness>
42.8043

> <Gold.PLP.PLP>
-29.4473

> <Gold.PLP.part.hbond>
-2.9716

> <Gold.PLP.part.metal>
0.0000

> <Gold.PLP.part.buried>
-4.3702

> <Gold.PLP.part.nonpolar>
-22.3694

> <Gold.PLP.part.repulsive>
0.1718

> <Gold.PLP.ligand.clash>
0.0000

> <Gold.PLP.ligand.torsion>
0.5101

> <Gold.PLP.Chemscore.Hbond>
2.9833

> <Gold.PLP.Chemscore.CHOScore>
1.7882

> <Gold.PLP.Chemscore.Metal>
0.0000

> <Gold.Chemscore.Hbonds>
donor molecule, donor type, donor heavy atom, donor atom, acceptor molecule, acceptor atom, score
      L1  H     7    32       P1  7948  1.00
      L1  H    10    33       P1  7948  0.93
      L1  H    17    43       P1 10747  0.49
      L1  C    15    36       P1 10186  1.00
      L1  C    18    38       P1  7948  0.72

> <Gold.PLP.Chemscore.Internal.Correction>
0.0628

> <Gold.Rescore>
     Score         DG    S(hbond)    S(metal)    S(lipo)     H(rot)  DE(clash)    DE(int)     intcor
     16.06     -18.03       2.91        0.00      61.56       1.71       0.10       1.86       ----

> <Gold.Chemscore.Fitness>
16.0572

> <Gold.Chemscore.DG>
-18.0259

> <Gold.Chemscore.ZeroCoef>
-5.4800

> <Gold.Chemscore.Hbond>
2.9066

> <Gold.Chemscore.Metal>
0.0000

> <Gold.Chemscore.Lipo>
61.5647

> <Gold.Chemscore.Internal_Hbond>
0.0000

> <Gold.Chemscore.DEClash>
0.1037

> <Gold.Chemscore.DEInternal>
1.8650

> <Gold.Chemscore.Rot>
1.7052

> <Gold.Chemscore.Internal.Correction>
   9.000000E+99

> <Gold.Chemscore.Hbonds>
donor molecule, donor type, donor heavy atom, donor atom, acceptor molecule, acceptor atom, score
      L1  H     7    32       P1  7948  0.95
      L1  H    10    33       P1  7948  0.84
      L1  H    17    43       P1 10747  0.50

> <Gold.Chemscore.Hbond.Weighted>
-9.7081

> <Gold.Chemscore.Metal.Weighted>
-0.0000

> <Gold.Chemscore.Lipo.Weighted>
-7.2031

> <Gold.Chemscore.Internal_Hbond.Weighted>
0.0000

> <Gold.Chemscore.DEClash.Weighted>
0.1037

> <Gold.Chemscore.DEInternal.Weighted>
1.8650

> <Gold.Chemscore.Rot.Weighted>
4.3653

> <Gold.Chemscore.Internal.Correction.Weighted>
   9.000000E+99

> <Gold.Protein.RotatedTorsions>
[ 6907 6896 6895 6894 ] final -137.14 input  -60.11 | X-H torsion
[ 7974 7965 7964 7962 ] final  107.29 input  175.53 | X-H torsion
[ 8008 7997 7996 7995 ] final  123.12 input   59.86 | X-H torsion
[ 10167 10162 10161 10158 ] final   14.51 input  -65.29 | X-H torsion
[ 10718 10713 10712 10709 ] final   68.51 input   66.30 | X-H torsion
[ 10763 10752 10751 10750 ] final -172.35 input  -60.55 | X-H torsion
[ 11005 11000 10999 10996 ] final -123.14 input  -57.11 | X-H torsion

> <Gold.Protein.ActiveResidues>
 VAL166  LYS551  ARG553  GLY616  TRP617  ASP618  TYR619  PRO620  LYS621  CYS622 
 ASP623  PHE694  ASN695  SER759  ASP760  ASP761  ALA762  ILE779  LEU786  VAL792 
 PHE793  MET794  SER795  GLU796  ALA797  LYS798  CYS799  TRP800  GLU811  SER814 

> <Gold.Protein.RotatedAtoms>
  151.0188  133.5896  159.2673 H   0  0  0  0  0  0  0  0  0  0  0  0  # atno 6907 bound_to 6896
  151.3020  135.0770  159.9252 H   0  0  0  0  0  0  0  0  0  0  0  0  # atno 6908 bound_to 6896
  152.5318  133.9868  159.7886 H   0  0  0  0  0  0  0  0  0  0  0  0  # atno 6909 bound_to 6896
  145.2955  139.2586  143.3842 H   0  0  0  0  0  0  0  0  0  0  0  0  # atno 7974 bound_to 7965
  156.2754  140.2770  156.1576 H   0  0  0  0  0  0  0  0  0  0  0  0  # atno 8008 bound_to 7997
  155.0787  140.0387  157.2650 H   0  0  0  0  0  0  0  0  0  0  0  0  # atno 8009 bound_to 7997
  154.6981  140.2643  155.6752 H   0  0  0  0  0  0  0  0  0  0  0  0  # atno 8010 bound_to 7997
  140.5930  143.8757  150.6892 H   0  0  0  0  0  0  0  0  0  0  0  0  # atno 10167 bound_to 10162
  157.6293  130.9377  150.0387 H   0  0  0  0  0  0  0  0  0  0  0  0  # atno 10718 bound_to 10713
  154.6202  135.2874  155.0334 H   0  0  0  0  0  0  0  0  0  0  0  0  # atno 10763 bound_to 10752
  154.1532  135.6500  153.4972 H   0  0  0  0  0  0  0  0  0  0  0  0  # atno 10764 bound_to 10752
  153.0232  135.5360  154.6989 H   0  0  0  0  0  0  0  0  0  0  0  0  # atno 10765 bound_to 10752
  140.9941  134.0496  157.3618 H   0  0  0  0  0  0  0  0  0  0  0  0  # atno 11005 bound_to 11000
  146.3170  140.3457  142.8652 LP  0  0  0  0  0  0  0  0  0  0  0  0  # atno 17320 bound_to 7965
  144.9137  140.7787  143.5791 LP  0  0  0  0  0  0  0  0  0  0  0  0  # atno 17321 bound_to 7965
  140.2284  143.3754  152.1586 LP  0  0  0  0  0  0  0  0  0  0  0  0  # atno 17342 bound_to 10162
  139.5240  144.7078  151.5300 LP  0  0  0  0  0  0  0  0  0  0  0  0  # atno 17343 bound_to 10162
  156.1486  130.3642  149.9473 LP  0  0  0  0  0  0  0  0  0  0  0  0  # atno 17370 bound_to 10713
  156.7498  130.9111  151.3637 LP  0  0  0  0  0  0  0  0  0  0  0  0  # atno 17371 bound_to 10713
  139.9006  135.0163  156.7251 LP  0  0  0  0  0  0  0  0  0  0  0  0  # atno 17394 bound_to 11000
  140.6993  133.9320  155.8014 LP  0  0  0  0  0  0  0  0  0  0  0  0  # atno 17395 bound_to 11000

$$$$
