AV-unprocessed.smi:3010|AV-procd|sdf|11455|dock3
  -GOLD-   2272016383D 1   1.00000     0.00000
 Structure written by MMmdl.
 38 40  0  0  0  0  0  0  0  0  1 V2000
  144.5707  144.3482  158.7686 C   0  0  0  0  0  0  0  0  0  0  0  0
  144.8131  144.1305  157.3300 N   0  0  0  0  0  0  0  0  0  0  0  0
  145.7476  143.1973  156.9645 C   0  0  0  0  0  0  0  0  0  0  0  0
  146.4095  142.5151  157.7482 O   0  0  0  0  0  0  0  0  0  0  0  0
  145.9141  143.0630  155.5150 C   0  0  0  0  0  0  0  0  0  0  0  0
  145.2068  143.7924  154.6194 C   0  0  0  0  0  0  0  0  0  0  0  0
  145.5587  143.4710  153.3132 N   0  0  0  0  0  0  0  0  0  0  0  0
  146.4913  142.5355  153.4996 C   0  0  0  0  0  0  0  0  0  0  0  0
  146.7641  142.2344  154.7859 N   0  0  0  0  0  0  0  0  0  0  0  0
  147.7330  141.2583  155.2596 C   0  0  0  0  0  0  0  0  0  0  0  0
  149.1482  141.5014  154.6984 C   0  0  2  0  0  0  0  0  0  0  0  0
  149.2391  140.9920  153.3813 O   0  0  0  0  0  0  0  0  0  0  0  0
  150.2106  140.9193  155.6174 C   0  0  0  0  0  0  0  0  0  0  0  0
  150.3638  141.4272  156.9253 C   0  0  0  0  0  0  0  0  0  0  0  0
  151.3391  140.8879  157.7868 C   0  0  0  0  0  0  0  0  0  0  0  0
  152.1647  139.8356  157.3462 C   0  0  0  0  0  0  0  0  0  0  0  0
  152.0135  139.3214  156.0442 C   0  0  0  0  0  0  0  0  0  0  0  0
  151.0384  139.8604  155.1824 C   0  0  0  0  0  0  0  0  0  0  0  0
  144.2617  144.7307  155.1030 N   0  0  0  0  0  0  0  0  0  0  0  0
  143.5146  145.5016  154.1050 C   0  0  0  0  0  0  0  0  0  0  0  0
  144.0678  144.9015  156.4529 C   0  0  0  0  0  0  0  0  0  0  0  0
  143.2486  145.7235  156.8723 O   0  0  0  0  0  0  0  0  0  0  0  0
  145.1521  143.7094  159.4342 H   0  0  0  0  0  0  0  0  0  0  0  0
  143.5216  144.1701  159.0102 H   0  0  0  0  0  0  0  0  0  0  0  0
  144.8069  145.3783  159.0406 H   0  0  0  0  0  0  0  0  0  0  0  0
  146.9960  142.0558  152.6738 H   0  0  0  0  0  0  0  0  0  0  0  0
  147.7433  141.2824  156.3496 H   0  0  0  0  0  0  0  0  0  0  0  0
  147.3842  140.2625  154.9817 H   0  0  0  0  0  0  0  0  0  0  0  0
  149.3200  142.5755  154.6222 H   0  0  0  0  0  0  0  0  0  0  0  0
  148.3686  140.7738  153.0847 H   0  0  0  0  0  0  0  0  0  0  0  0
  149.7320  142.2315  157.2737 H   0  0  0  0  0  0  0  0  0  0  0  0
  151.4531  141.2810  158.7863 H   0  0  0  0  0  0  0  0  0  0  0  0
  152.9120  139.4217  158.0072 H   0  0  0  0  0  0  0  0  0  0  0  0
  152.6443  138.5124  155.7063 H   0  0  0  0  0  0  0  0  0  0  0  0
  150.9268  139.4559  154.1870 H   0  0  0  0  0  0  0  0  0  0  0  0
  142.8032  146.2134  154.5244 H   0  0  0  0  0  0  0  0  0  0  0  0
  142.9537  144.8261  153.4583 H   0  0  0  0  0  0  0  0  0  0  0  0
  144.2058  146.0660  153.4782 H   0  0  0  0  0  0  0  0  0  0  0  0
  1  2  1  0  0  0  0
  1 23  1  0  0  0  0
  1 24  1  0  0  0  0
  1 25  1  0  0  0  0
  2 21  1  0  0  0  0
  2  3  1  0  0  0  0
  3  4  2  0  0  0  0
  3  5  1  0  0  0  0
  5  9  1  0  0  0  0
  5  6  2  0  0  0  0
  6  7  1  0  0  0  0
  6 19  1  0  0  0  0
  7  8  2  0  0  0  0
  8  9  1  0  0  0  0
  8 26  1  0  0  0  0
  9 10  1  0  0  0  0
 10 11  1  0  0  0  0
 10 27  1  0  0  0  0
 10 28  1  0  0  0  0
 11 12  1  0  0  0  0
 11 13  1  0  0  0  0
 11 29  1  0  0  0  0
 12 30  1  0  0  0  0
 13 18  1  0  0  0  0
 13 14  2  0  0  0  0
 14 15  1  0  0  0  0
 14 31  1  0  0  0  0
 15 16  2  0  0  0  0
 15 32  1  0  0  0  0
 16 17  1  0  0  0  0
 16 33  1  0  0  0  0
 17 18  2  0  0  0  0
 17 34  1  0  0  0  0
 18 35  1  0  0  0  0
 19 20  1  0  0  0  0
 19 21  1  0  0  0  0
 20 36  1  0  0  0  0
 20 37  1  0  0  0  0
 20 38  1  0  0  0  0
 21 22  2  0  0  0  0
M  END
> <s_m_source_file>
AV-unprocessed.smi

> <i_m_source_file_index>
3010

> <i_lp_mmshare_version>
43012

> <i_f3d_flags>
0

> <s_epik_input>
Tz1jMW4oW0NIM10pYyg9TyluKFtDSDNdKWMoYzEyKW5bY0hdbjJbQ0gyXVtDQEhdKFtPSF0pYzNbY0hdW2NIXVtjSF1bY0hdW2NIXTM=

> <s_epik_cmdline>
J2VwaWtfcHl0aG9uJywgJy1waCcsICc3LjAnLCAnLXRuJywgJzgnLCAnLW1hJywgJzIwMCcsICctbWV0YWxfYmluZGluZycsICctaW1hZScsICc8aW5maWxlLm1hZT4nLCAnLW9tYWUnLCAnPG91dGZpbGUubWFlPic=

> <r_lp_tautomer_probability>
1

> <r_epik_Ionization_Penalty>
1.43747e-06

> <r_epik_Ionization_Penalty_Charging>
3.74189e-09

> <r_epik_Ionization_Penalty_Neutral>
1.43373e-06

> <r_epik_State_Penalty>
-0

> <r_epik_Charging_Adjusted_Penalty>
3.74189e-09

> <i_epik_Tot_Q>
0

> <i_epik_Tot_abs_Q>
0

> <r_epik_Metal_State_Penalty>
-0

> <b_epik_Metal_Only>
0

> <s_lp_Force_Field>
OPLS_2005

> <r_lp_Energy>
35.6617

> <b_lp_Chiralities_Consistent>
1

> <s_lp_Variant>
AV-unprocessed.smi:3010-1

> <Gold.Version>
5.8.1

> <Gold.Id.Protein>
6NUR|6NUR_protein|mol2

> <Gold.PLP.Fitness>
41.2643

> <Gold.PLP.PLP>
-38.6755

> <Gold.PLP.part.hbond>
-3.0000

> <Gold.PLP.part.metal>
0.0000

> <Gold.PLP.part.buried>
-5.0677

> <Gold.PLP.part.nonpolar>
-30.4802

> <Gold.PLP.part.repulsive>
0.3599

> <Gold.PLP.ligand.clash>
0.0000

> <Gold.PLP.ligand.torsion>
0.3322

> <Gold.PLP.Chemscore.Hbond>
1.0743

> <Gold.PLP.Chemscore.CHOScore>
0.0000

> <Gold.PLP.Chemscore.Metal>
0.0000

> <Gold.Chemscore.Hbonds>
donor molecule, donor type, donor heavy atom, donor atom, acceptor molecule, acceptor atom, score
      P1  H  7989  7998       L1    12  0.03
      P1  H  8011  8017       L1    12  1.00

> <Gold.PLP.Chemscore.Internal.Correction>
0.0305

> <Gold.Rescore>
     Score         DG    S(hbond)    S(metal)    S(lipo)     H(rot)  DE(clash)    DE(int)     intcor
      8.08      -8.44       0.97        0.00      44.66       2.15       0.03       0.33       ----

> <Gold.Chemscore.Fitness>
8.0791

> <Gold.Chemscore.DG>
-8.4381

> <Gold.Chemscore.ZeroCoef>
-5.4800

> <Gold.Chemscore.Hbond>
0.9673

> <Gold.Chemscore.Metal>
0.0000

> <Gold.Chemscore.Lipo>
44.6562

> <Gold.Chemscore.Internal_Hbond>
0.0000

> <Gold.Chemscore.DEClash>
0.0310

> <Gold.Chemscore.DEInternal>
0.3280

> <Gold.Chemscore.Rot>
2.1474

> <Gold.Chemscore.Internal.Correction>
   9.000000E+99

> <Gold.Chemscore.Hbonds>
donor molecule, donor type, donor heavy atom, donor atom, acceptor molecule, acceptor atom, score
      P1  H  8011  8017       L1    12  0.30

> <Gold.Chemscore.Hbond.Weighted>
-3.2307

> <Gold.Chemscore.Metal.Weighted>
-0.0000

> <Gold.Chemscore.Lipo.Weighted>
-5.2248

> <Gold.Chemscore.Internal_Hbond.Weighted>
0.0000

> <Gold.Chemscore.DEClash.Weighted>
0.0310

> <Gold.Chemscore.DEInternal.Weighted>
0.3280

> <Gold.Chemscore.Rot.Weighted>
5.4974

> <Gold.Chemscore.Internal.Correction.Weighted>
   9.000000E+99

> <Gold.Protein.RotatedTorsions>
[ 6907 6896 6895 6894 ] final    1.98 input  -60.11 | X-H torsion
[ 7974 7965 7964 7962 ] final -115.23 input  175.53 | X-H torsion
[ 8008 7997 7996 7995 ] final -123.68 input   59.86 | X-H torsion
[ 10167 10162 10161 10158 ] final  -75.42 input  -65.29 | X-H torsion
[ 10718 10713 10712 10709 ] final   81.62 input   66.30 | X-H torsion
[ 10763 10752 10751 10750 ] final -122.26 input  -60.55 | X-H torsion
[ 11005 11000 10999 10996 ] final  170.91 input  -57.11 | X-H torsion

> <Gold.Protein.ActiveResidues>
 VAL166  LYS551  ARG553  GLY616  TRP617  ASP618  TYR619  PRO620  LYS621  CYS622 
 ASP623  PHE694  ASN695  SER759  ASP760  ASP761  ALA762  ILE779  LEU786  VAL792 
 PHE793  MET794  SER795  GLU796  ALA797  LYS798  CYS799  TRP800  GLU811  SER814 

> <Gold.Protein.RotatedAtoms>
  151.6014  135.1047  160.0060 H   0  0  0  0  0  0  0  0  0  0  0  0  # atno 6907 bound_to 6896
  152.4256  133.7185  159.6530 H   0  0  0  0  0  0  0  0  0  0  0  0  # atno 6908 bound_to 6896
  150.8144  133.8291  159.3189 H   0  0  0  0  0  0  0  0  0  0  0  0  # atno 6909 bound_to 6896
  145.1108  140.8610  143.3871 H   0  0  0  0  0  0  0  0  0  0  0  0  # atno 7974 bound_to 7965
  155.1844  140.0411  157.2888 H   0  0  0  0  0  0  0  0  0  0  0  0  # atno 8008 bound_to 7997
  154.6181  140.2494  155.7556 H   0  0  0  0  0  0  0  0  0  0  0  0  # atno 8009 bound_to 7997
  156.2418  140.2900  156.0476 H   0  0  0  0  0  0  0  0  0  0  0  0  # atno 8010 bound_to 7997
  140.4944  143.2373  151.7854 H   0  0  0  0  0  0  0  0  0  0  0  0  # atno 10167 bound_to 10162
  157.6837  131.0012  150.2253 H   0  0  0  0  0  0  0  0  0  0  0  0  # atno 10718 bound_to 10713
  154.8686  135.4139  154.2754 H   0  0  0  0  0  0  0  0  0  0  0  0  # atno 10763 bound_to 10752
  153.3656  135.7005  153.6683 H   0  0  0  0  0  0  0  0  0  0  0  0  # atno 10764 bound_to 10752
  153.5566  135.3618  155.2754 H   0  0  0  0  0  0  0  0  0  0  0  0  # atno 10765 bound_to 10752
  140.3134  134.7498  157.4009 H   0  0  0  0  0  0  0  0  0  0  0  0  # atno 11005 bound_to 11000
  145.0849  139.2932  143.5765 LP  0  0  0  0  0  0  0  0  0  0  0  0  # atno 17320 bound_to 7965
  146.3526  140.0367  142.8646 LP  0  0  0  0  0  0  0  0  0  0  0  0  # atno 17321 bound_to 7965
  139.4858  144.4606  151.9545 LP  0  0  0  0  0  0  0  0  0  0  0  0  # atno 17342 bound_to 10162
  140.3693  144.2875  150.5922 LP  0  0  0  0  0  0  0  0  0  0  0  0  # atno 17343 bound_to 10162
  156.2896  130.3744  149.7854 LP  0  0  0  0  0  0  0  0  0  0  0  0  # atno 17370 bound_to 10713
  156.5518  130.8345  151.3302 LP  0  0  0  0  0  0  0  0  0  0  0  0  # atno 17371 bound_to 10713
  140.1005  134.5480  155.8358 LP  0  0  0  0  0  0  0  0  0  0  0  0  # atno 17394 bound_to 11000
  141.2103  133.6693  156.6499 LP  0  0  0  0  0  0  0  0  0  0  0  0  # atno 17395 bound_to 11000

$$$$
