AV-unprocessed.smi:34|AV-procd|sdf|243|dock3
  -GOLD-   2262015593D 1   1.00000     0.00000
 Structure written by MMmdl.
 54 58  0  0  0  0  0  0  0  0  2 V2000
  151.5288  139.4763  159.1586 O   0  0  0  0  0  0  0  0  0  0  0  0
  151.7487  140.3196  158.2865 C   0  0  0  0  0  0  0  0  0  0  0  0
  151.8749  140.1233  156.9496 N   0  5  0  0  0  0  0  0  0  0  0  0
  150.8928  139.5157  156.2665 C   0  0  0  0  0  0  0  0  0  0  0  0
  150.5255  139.9699  155.0412 N   0  0  0  0  0  0  0  0  0  0  0  0
  149.5518  139.3574  154.3579 C   0  0  0  0  0  0  0  0  0  0  0  0
  148.8291  138.2875  154.7021 N   0  0  0  0  0  0  0  0  0  0  0  0
  149.1921  137.8162  155.9302 C   0  0  0  0  0  0  0  0  0  0  0  0
  150.2096  138.3711  156.7609 C   0  0  0  0  0  0  0  0  0  0  0  0
  150.3331  137.6495  157.9389 N   0  0  0  0  0  0  0  0  0  0  0  0
  149.4041  136.7109  157.7766 C   0  0  0  0  0  0  0  0  0  0  0  0
  148.6870  136.7345  156.6355 N   0  0  0  0  0  0  0  0  0  0  0  0
  147.5946  135.7912  156.2388 C   0  0  2  0  0  0  0  0  0  0  0  0
  147.3342  134.9339  157.3092 O   0  0  0  0  0  0  0  0  0  0  0  0
  147.0858  133.6169  156.8238 C   0  0  1  0  0  0  0  0  0  0  0  0
  145.5973  133.4756  156.4646 C   0  0  0  0  0  0  0  0  0  0  0  0
  145.4556  133.5120  155.0541 O   0  0  0  0  0  0  0  0  0  0  0  0
  145.3490  132.3654  154.3545 C   0  0  0  0  0  0  0  0  0  0  0  0
  145.3769  131.2459  154.8701 O   0  0  0  0  0  0  0  0  0  0  0  0
  145.1973  132.5930  152.8884 C   0  0  0  0  0  0  0  0  0  0  0  0
  144.5536  131.6126  152.0975 C   0  0  0  0  0  0  0  0  0  0  0  0
  144.3957  131.8001  150.7105 C   0  0  0  0  0  0  0  0  0  0  0  0
  144.8782  132.9712  150.0978 C   0  0  0  0  0  0  0  0  0  0  0  0
  145.5200  133.9541  150.8735 C   0  0  0  0  0  0  0  0  0  0  0  0
  145.6800  133.7677  152.2605 C   0  0  0  0  0  0  0  0  0  0  0  0
  148.0086  133.5150  155.6082 C   0  0  2  0  0  0  0  0  0  0  0  0
  149.2335  133.2147  156.0441 F   0  0  0  0  0  0  0  0  0  0  0  0
  147.9556  134.9186  155.0190 C   0  0  2  0  0  0  0  0  0  0  0  0
  149.1460  135.2668  154.3345 O   0  0  0  0  0  0  0  0  0  0  0  0
  151.8367  141.7684  158.6847 C   0  0  0  0  0  0  0  0  0  0  0  0
  151.3916  142.7691  157.7908 C   0  0  0  0  0  0  0  0  0  0  0  0
  151.4421  144.1289  158.1549 C   0  0  0  0  0  0  0  0  0  0  0  0
  151.9294  144.5021  159.4215 C   0  0  0  0  0  0  0  0  0  0  0  0
  152.3616  143.5139  160.3256 C   0  0  0  0  0  0  0  0  0  0  0  0
  152.3121  142.1539  159.9620 C   0  0  0  0  0  0  0  0  0  0  0  0
  149.3192  139.7862  153.3945 H   0  0  0  0  0  0  0  0  0  0  0  0
  149.2317  135.9626  158.5360 H   0  0  0  0  0  0  0  0  0  0  0  0
  146.7329  136.4341  156.0537 H   0  0  0  0  0  0  0  0  0  0  0  0
  147.3528  132.8746  157.5775 H   0  0  0  0  0  0  0  0  0  0  0  0
  145.1867  132.5513  156.8736 H   0  0  0  0  0  0  0  0  0  0  0  0
  145.0289  134.3028  156.8913 H   0  0  0  0  0  0  0  0  0  0  0  0
  144.1749  130.7053  152.5458 H   0  0  0  0  0  0  0  0  0  0  0  0
  143.9035  131.0441  150.1167 H   0  0  0  0  0  0  0  0  0  0  0  0
  144.7563  133.1153  149.0344 H   0  0  0  0  0  0  0  0  0  0  0  0
  145.8902  134.8539  150.4046 H   0  0  0  0  0  0  0  0  0  0  0  0
  146.1767  134.5424  152.8262 H   0  0  0  0  0  0  0  0  0  0  0  0
  147.7184  132.7370  154.9015 H   0  0  0  0  0  0  0  0  0  0  0  0
  147.1229  134.9836  154.3175 H   0  0  0  0  0  0  0  0  0  0  0  0
  148.9471  135.9444  153.7067 H   0  0  0  0  0  0  0  0  0  0  0  0
  151.0129  142.4989  156.8155 H   0  0  0  0  0  0  0  0  0  0  0  0
  151.1050  144.8852  157.4619 H   0  0  0  0  0  0  0  0  0  0  0  0
  151.9674  145.5444  159.7007 H   0  0  0  0  0  0  0  0  0  0  0  0
  152.7290  143.7976  161.3009 H   0  0  0  0  0  0  0  0  0  0  0  0
  152.6388  141.4105  160.6748 H   0  0  0  0  0  0  0  0  0  0  0  0
  1  2  2  0  0  0  0
  2  3  1  0  0  0  0
  2 30  1  0  0  0  0
  3  4  1  0  0  0  0
  4  9  1  0  0  0  0
  4  5  2  0  0  0  0
  5  6  1  0  0  0  0
  6  7  2  0  0  0  0
  6 36  1  0  0  0  0
  7  8  1  0  0  0  0
  8 12  1  0  0  0  0
  8  9  2  0  0  0  0
  9 10  1  0  0  0  0
 10 11  2  0  0  0  0
 11 12  1  0  0  0  0
 11 37  1  0  0  0  0
 12 13  1  0  0  0  0
 13 28  1  0  0  0  0
 13 14  1  0  0  0  0
 13 38  1  0  0  0  0
 14 15  1  0  0  0  0
 15 16  1  0  0  0  0
 15 26  1  0  0  0  0
 15 39  1  0  0  0  0
 16 17  1  0  0  0  0
 16 40  1  0  0  0  0
 16 41  1  0  0  0  0
 17 18  1  0  0  0  0
 18 19  2  0  0  0  0
 18 20  1  0  0  0  0
 20 25  1  0  0  0  0
 20 21  2  0  0  0  0
 21 22  1  0  0  0  0
 21 42  1  0  0  0  0
 22 23  2  0  0  0  0
 22 43  1  0  0  0  0
 23 24  1  0  0  0  0
 23 44  1  0  0  0  0
 24 25  2  0  0  0  0
 24 45  1  0  0  0  0
 25 46  1  0  0  0  0
 26 27  1  0  0  0  0
 26 28  1  0  0  0  0
 26 47  1  0  0  0  0
 28 29  1  0  0  0  0
 28 48  1  0  0  0  0
 29 49  1  0  0  0  0
 30 35  1  0  0  0  0
 30 31  2  0  0  0  0
 31 32  1  0  0  0  0
 31 50  1  0  0  0  0
 32 33  2  0  0  0  0
 32 51  1  0  0  0  0
 33 34  1  0  0  0  0
 33 52  1  0  0  0  0
 34 35  2  0  0  0  0
 34 53  1  0  0  0  0
 35 54  1  0  0  0  0
M  CHG  1   3  -1
M  END
> <s_m_source_file>
AV-unprocessed.smi

> <i_m_source_file_index>
34

> <i_lp_mmshare_version>
43012

> <i_f3d_flags>
0

> <s_epik_input>
W2NIXTFbY0hdW2NIXVtjSF1bY0hdYzFDKD1PKVtOSF1jKG5bY0hdbjIpYyhjMjMpbltjSF1uM1tDQEBIXTRPW0NASF0oW0NAQEhdKEYpW0NASF00W09IXSlbQ0gyXU9DKD1PKWM1W2NIXVtjSF1bY0hdW2NIXVtjSF01

> <s_epik_cmdline>
J2VwaWtfcHl0aG9uJywgJy1waCcsICc3LjAnLCAnLXRuJywgJzgnLCAnLW1hJywgJzIwMCcsICctbWV0YWxfYmluZGluZycsICctaW1hZScsICc8aW5maWxlLm1hZT4nLCAnLW9tYWUnLCAnPG91dGZpbGUubWFlPic=

> <r_lp_tautomer_probability>
1

> <r_epik_Ionization_Penalty>
4.33227

> <r_epik_Ionization_Penalty_Charging>
3.41027

> <r_epik_Ionization_Penalty_Neutral>
0.922001

> <r_epik_State_Penalty>
3.41358

> <r_epik_Charging_Adjusted_Penalty>
6.82385

> <i_epik_Tot_Q>
-1

> <i_epik_Tot_abs_Q>
1

> <r_epik_Metal_State_Penalty>
0.496292

> <b_epik_Metal_Only>
1

> <s_epik_Chemistry_Notes>
This compound has an ester and may undergo hydrolysis at high or low pH. This compound contains an acetal/aminal-like group ( X-CH(R)-Y where X, Y are N, S, or O) that may be acid/base labile, releasing an aldehyde.

> <s_lp_Force_Field>
OPLS_2005

> <r_lp_Energy>
51.1701

> <b_lp_Chiralities_Consistent>
1

> <s_lp_Variant>
AV-unprocessed.smi:34-29

> <Gold.Version>
5.8.1

> <Gold.Id.Protein>
6NUR|6NUR_protein|mol2

> <Gold.PLP.Fitness>
60.0150

> <Gold.PLP.PLP>
-50.4591

> <Gold.PLP.part.hbond>
-4.0000

> <Gold.PLP.part.metal>
0.0000

> <Gold.PLP.part.buried>
-5.6794

> <Gold.PLP.part.nonpolar>
-41.3468

> <Gold.PLP.part.repulsive>
0.4258

> <Gold.PLP.ligand.clash>
0.0000

> <Gold.PLP.ligand.torsion>
2.5268

> <Gold.PLP.Chemscore.Hbond>
3.6444

> <Gold.PLP.Chemscore.CHOScore>
1.0000

> <Gold.PLP.Chemscore.Metal>
0.0000

> <Gold.Chemscore.Hbonds>
donor molecule, donor type, donor heavy atom, donor atom, acceptor molecule, acceptor atom, score
      L1  H    29    49       P1  7948  0.78
      P1  H  7989  7998       L1     5  0.83
      L1  C     6    36       P1  7957  1.00

> <Gold.PLP.Chemscore.Internal.Correction>
0.6763

> <Gold.Rescore>
     Score         DG    S(hbond)    S(metal)    S(lipo)     H(rot)  DE(clash)    DE(int)     intcor
      9.21     -16.49       0.94        0.00     126.21       2.69       0.11       7.17       ----

> <Gold.Chemscore.Fitness>
9.2127

> <Gold.Chemscore.DG>
-16.4879

> <Gold.Chemscore.ZeroCoef>
-5.4800

> <Gold.Chemscore.Hbond>
0.9399

> <Gold.Chemscore.Metal>
0.0000

> <Gold.Chemscore.Lipo>
126.2065

> <Gold.Chemscore.Internal_Hbond>
0.0000

> <Gold.Chemscore.DEClash>
0.1084

> <Gold.Chemscore.DEInternal>
7.1668

> <Gold.Chemscore.Rot>
2.6944

> <Gold.Chemscore.Internal.Correction>
   9.000000E+99

> <Gold.Chemscore.Hbonds>
donor molecule, donor type, donor heavy atom, donor atom, acceptor molecule, acceptor atom, score
      L1  H    29    49       P1  7948  0.75
      P1  H  7989  7998       L1     5  0.28
      P1  H  7997  8010       L1     3  0.01

> <Gold.Chemscore.Hbond.Weighted>
-3.1393

> <Gold.Chemscore.Metal.Weighted>
-0.0000

> <Gold.Chemscore.Lipo.Weighted>
-14.7662

> <Gold.Chemscore.Internal_Hbond.Weighted>
0.0000

> <Gold.Chemscore.DEClash.Weighted>
0.1084

> <Gold.Chemscore.DEInternal.Weighted>
7.1668

> <Gold.Chemscore.Rot.Weighted>
6.8975

> <Gold.Chemscore.Internal.Correction.Weighted>
   9.000000E+99

> <Gold.Protein.RotatedTorsions>
[ 6907 6896 6895 6894 ] final  139.92 input  -60.11 | X-H torsion
[ 7974 7965 7964 7962 ] final  -84.26 input  175.53 | X-H torsion
[ 8008 7997 7996 7995 ] final   74.73 input   59.86 | X-H torsion
[ 10167 10162 10161 10158 ] final  112.72 input  -65.29 | X-H torsion
[ 10718 10713 10712 10709 ] final  154.67 input   66.30 | X-H torsion
[ 10763 10752 10751 10750 ] final  166.90 input  -60.55 | X-H torsion
[ 11005 11000 10999 10996 ] final -146.14 input  -57.11 | X-H torsion

> <Gold.Protein.ActiveResidues>
 VAL166  LYS551  ARG553  GLY616  TRP617  ASP618  TYR619  PRO620  LYS621  CYS622 
 ASP623  PHE694  ASN695  SER759  ASP760  ASP761  ALA762  ILE779  LEU786  VAL792 
 PHE793  MET794  SER795  GLU796  ALA797  LYS798  CYS799  TRP800  GLU811  SER814 

> <Gold.Protein.RotatedAtoms>
  152.2492  133.5201  159.5315 H   0  0  0  0  0  0  0  0  0  0  0  0  # atno 6907 bound_to 6896
  150.7088  134.0983  159.3965 H   0  0  0  0  0  0  0  0  0  0  0  0  # atno 6908 bound_to 6896
  151.8903  135.0419  160.0548 H   0  0  0  0  0  0  0  0  0  0  0  0  # atno 6909 bound_to 6896
  145.5090  140.9541  143.1717 H   0  0  0  0  0  0  0  0  0  0  0  0  # atno 7974 bound_to 7965
  155.8026  140.3476  155.5411 H   0  0  0  0  0  0  0  0  0  0  0  0  # atno 8008 bound_to 7997
  155.8522  140.0958  157.1687 H   0  0  0  0  0  0  0  0  0  0  0  0  # atno 8009 bound_to 7997
  154.4008  140.1374  156.3846 H   0  0  0  0  0  0  0  0  0  0  0  0  # atno 8010 bound_to 7997
  139.6514  144.7128  151.2040 H   0  0  0  0  0  0  0  0  0  0  0  0  # atno 10167 bound_to 10162
  157.2285  131.0734  151.1868 H   0  0  0  0  0  0  0  0  0  0  0  0  # atno 10718 bound_to 10713
  154.3459  135.2753  155.2398 H   0  0  0  0  0  0  0  0  0  0  0  0  # atno 10763 bound_to 10752
  154.4648  135.5898  153.6284 H   0  0  0  0  0  0  0  0  0  0  0  0  # atno 10764 bound_to 10752
  152.9853  135.6074  154.3665 H   0  0  0  0  0  0  0  0  0  0  0  0  # atno 10765 bound_to 10752
  140.7850  134.3035  157.5033 H   0  0  0  0  0  0  0  0  0  0  0  0  # atno 11005 bound_to 11000
  144.7738  139.6676  143.7183 LP  0  0  0  0  0  0  0  0  0  0  0  0  # atno 17320 bound_to 7965
  146.2178  139.5581  142.9638 LP  0  0  0  0  0  0  0  0  0  0  0  0  # atno 17321 bound_to 7965
  140.7539  143.6144  150.8574 LP  0  0  0  0  0  0  0  0  0  0  0  0  # atno 17342 bound_to 10162
  139.9792  143.5970  152.2948 LP  0  0  0  0  0  0  0  0  0  0  0  0  # atno 17343 bound_to 10162
  157.3503  130.7078  149.6436 LP  0  0  0  0  0  0  0  0  0  0  0  0  # atno 17370 bound_to 10713
  155.9677  130.4254  150.4654 LP  0  0  0  0  0  0  0  0  0  0  0  0  # atno 17371 bound_to 10713
  139.8738  134.9341  156.3598 LP  0  0  0  0  0  0  0  0  0  0  0  0  # atno 17394 bound_to 11000
  140.9445  133.7492  156.0190 LP  0  0  0  0  0  0  0  0  0  0  0  0  # atno 17395 bound_to 11000

$$$$
