AV-unprocessed.smi:229|AV-procd|sdf|1752|dock2
  -GOLD-   2262020273D 1   1.00000     0.00000
 Structure written by MMmdl.
 58 62  0  0  0  0  0  0  0  0  1 V2000
  155.4522  131.2996  161.3079 C   0  0  0  0  0  0  0  0  0  0  0  0
  155.4211  132.8350  161.3390 C   0  0  0  0  0  0  0  0  0  0  0  0
  155.0692  133.4939  159.9935 C   0  0  1  0  0  0  0  0  0  0  0  0
  155.0182  135.0320  160.0562 C   0  0  0  0  0  0  0  0  0  0  0  0
  154.7697  135.5674  158.7236 N   0  0  0  0  0  0  0  0  0  0  0  0
  154.3804  136.8605  158.6059 C   0  0  0  0  0  0  0  0  0  0  0  0
  153.6158  137.2510  157.5514 N   0  0  0  0  0  0  0  0  0  0  0  0
  153.2191  138.5225  157.4411 C   0  0  0  0  0  0  0  0  0  0  0  0
  153.4711  139.5494  158.2558 N   0  0  0  0  0  0  0  0  0  0  0  0
  154.2474  139.1659  159.3090 C   0  0  0  0  0  0  0  0  0  0  0  0
  154.7413  137.8544  159.5579 C   0  0  0  0  0  0  0  0  0  0  0  0
  155.5050  137.8480  160.7196 N   0  0  0  0  0  0  0  0  0  0  0  0
  155.4581  139.0829  161.1382 C   0  0  0  0  0  0  0  0  0  0  0  0
  154.7214  139.9403  160.3533 N   0  0  0  0  0  0  0  0  0  0  0  0
  154.5065  141.3570  160.5898 C   0  0  0  0  0  0  0  0  0  0  0  0
  153.0107  141.7128  160.6910 C   0  0  2  0  0  0  0  0  0  0  0  0
  152.4064  141.5416  159.4231 O   0  0  0  0  0  0  0  0  0  0  0  0
  152.7877  143.1615  161.1616 C   0  0  1  0  0  0  0  0  0  0  0  0
  153.3083  144.2298  160.1991 C   0  0  0  0  0  0  0  0  0  0  0  0
  152.4607  145.4485  160.5276 C   0  0  0  0  0  0  0  0  0  0  0  0
  151.2698  144.8762  161.3011 C   0  0  0  0  0  0  0  0  0  0  0  0
  151.4015  143.4648  161.2021 O   0  0  0  0  0  0  0  0  0  0  0  0
  155.7612  135.1316  157.7482 C   0  0  0  0  0  0  0  0  0  0  0  0
  155.8252  133.5918  157.6913 C   0  0  1  0  0  0  0  0  0  0  0  0
  154.6433  132.9472  156.9733 C   0  0  0  0  0  0  0  0  0  0  0  0
  155.2293  131.6168  156.5267 C   0  0  0  0  0  0  0  0  0  0  0  0
  156.5474  131.9473  156.1170 O   0  0  0  0  0  0  0  0  0  0  0  0
  157.0042  133.0861  156.8439 C   0  0  0  0  0  0  0  0  0  0  0  0
  156.0163  133.0672  159.0117 O   0  0  0  0  0  0  0  0  0  0  0  0
  155.6419  130.8999  162.3041 H   0  0  0  0  0  0  0  0  0  0  0  0
  156.2378  130.9249  160.6524 H   0  0  0  0  0  0  0  0  0  0  0  0
  154.5020  130.8898  160.9644 H   0  0  0  0  0  0  0  0  0  0  0  0
  154.6935  133.1541  162.0859 H   0  0  0  0  0  0  0  0  0  0  0  0
  156.3868  133.2065  161.6828 H   0  0  0  0  0  0  0  0  0  0  0  0
  154.0809  133.1310  159.7133 H   0  0  0  0  0  0  0  0  0  0  0  0
  154.2321  135.3469  160.7440 H   0  0  0  0  0  0  0  0  0  0  0  0
  155.9602  135.4371  160.4273 H   0  0  0  0  0  0  0  0  0  0  0  0
  152.6120  138.7493  156.5771 H   0  0  0  0  0  0  0  0  0  0  0  0
  155.9612  139.4048  162.0384 H   0  0  0  0  0  0  0  0  0  0  0  0
  155.0221  141.6246  161.5127 H   0  0  0  0  0  0  0  0  0  0  0  0
  154.9836  141.9267  159.7913 H   0  0  0  0  0  0  0  0  0  0  0  0
  152.5242  141.0303  161.3892 H   0  0  0  0  0  0  0  0  0  0  0  0
  152.3325  140.6157  159.2491 H   0  0  0  0  0  0  0  0  0  0  0  0
  153.2134  143.3138  162.1555 H   0  0  0  0  0  0  0  0  0  0  0  0
  154.3769  144.4141  160.3120 H   0  0  0  0  0  0  0  0  0  0  0  0
  153.1267  143.9276  159.1668 H   0  0  0  0  0  0  0  0  0  0  0  0
  153.0106  146.1581  161.1465 H   0  0  0  0  0  0  0  0  0  0  0  0
  152.1477  145.9653  159.6201 H   0  0  0  0  0  0  0  0  0  0  0  0
  151.3183  145.1696  162.3506 H   0  0  0  0  0  0  0  0  0  0  0  0
  150.3119  145.2074  160.8994 H   0  0  0  0  0  0  0  0  0  0  0  0
  155.5588  135.5338  156.7559 H   0  0  0  0  0  0  0  0  0  0  0  0
  156.7317  135.5285  158.0496 H   0  0  0  0  0  0  0  0  0  0  0  0
  153.7436  132.8352  157.5756 H   0  0  0  0  0  0  0  0  0  0  0  0
  154.3738  133.5339  156.0940 H   0  0  0  0  0  0  0  0  0  0  0  0
  155.2743  130.9162  157.3615 H   0  0  0  0  0  0  0  0  0  0  0  0
  154.6623  131.1542  155.7188 H   0  0  0  0  0  0  0  0  0  0  0  0
  157.3200  133.8360  156.1174 H   0  0  0  0  0  0  0  0  0  0  0  0
  157.8732  132.8370  157.4540 H   0  0  0  0  0  0  0  0  0  0  0  0
  1  2  1  0  0  0  0
  1 30  1  0  0  0  0
  1 31  1  0  0  0  0
  1 32  1  0  0  0  0
  2  3  1  0  0  0  0
  2 33  1  0  0  0  0
  2 34  1  0  0  0  0
  3 29  1  0  0  0  0
  3  4  1  0  0  0  0
  3 35  1  0  0  0  0
  4  5  1  0  0  0  0
  4 36  1  0  0  0  0
  4 37  1  0  0  0  0
  5  6  1  0  0  0  0
  5 23  1  0  0  0  0
  6 11  1  0  0  0  0
  6  7  2  0  0  0  0
  7  8  1  0  0  0  0
  8  9  2  0  0  0  0
  8 38  1  0  0  0  0
  9 10  1  0  0  0  0
 10 14  1  0  0  0  0
 10 11  2  0  0  0  0
 11 12  1  0  0  0  0
 12 13  2  0  0  0  0
 13 14  1  0  0  0  0
 13 39  1  0  0  0  0
 14 15  1  0  0  0  0
 15 16  1  0  0  0  0
 15 40  1  0  0  0  0
 15 41  1  0  0  0  0
 16 17  1  0  0  0  0
 16 18  1  0  0  0  0
 16 42  1  0  0  0  0
 17 43  1  0  0  0  0
 18 22  1  0  0  0  0
 18 19  1  0  0  0  0
 18 44  1  0  0  0  0
 19 20  1  0  0  0  0
 19 45  1  0  0  0  0
 19 46  1  0  0  0  0
 20 21  1  0  0  0  0
 20 47  1  0  0  0  0
 20 48  1  0  0  0  0
 21 22  1  0  0  0  0
 21 49  1  0  0  0  0
 21 50  1  0  0  0  0
 23 24  1  0  0  0  0
 23 51  1  0  0  0  0
 23 52  1  0  0  0  0
 24 28  1  0  0  0  0
 24 25  1  0  0  0  0
 24 29  1  0  0  0  0
 25 26  1  0  0  0  0
 25 53  1  0  0  0  0
 25 54  1  0  0  0  0
 26 27  1  0  0  0  0
 26 55  1  0  0  0  0
 26 56  1  0  0  0  0
 27 28  1  0  0  0  0
 28 57  1  0  0  0  0
 28 58  1  0  0  0  0
M  END
> <s_m_source_file>
AV-unprocessed.smi

> <i_m_source_file_index>
229

> <i_lp_mmshare_version>
43012

> <i_f3d_flags>
0

> <s_epik_input>
W0NIMl0xT1tDSDJdW0NIMl1bQ0BdMTJbQ0gyXU4oW0NIMl1bQ0BIXShPMilbQ0gyXVtDSDNdKWMobltjSF1uMyljKGMzNCluW2NIXW40W0NIMl1bQ0BIXShbT0hdKVtDQEBIXTVbQ0gyXVtDSDJdW0NIMl1PNQ==

> <s_epik_cmdline>
J2VwaWtfcHl0aG9uJywgJy1waCcsICc3LjAnLCAnLXRuJywgJzgnLCAnLW1hJywgJzIwMCcsICctbWV0YWxfYmluZGluZycsICctaW1hZScsICc8aW5maWxlLm1hZT4nLCAnLW9tYWUnLCAnPG91dGZpbGUubWFlPic=

> <r_lp_tautomer_probability>
1

> <r_epik_Ionization_Penalty>
0.00318402

> <r_epik_Ionization_Penalty_Charging>
0

> <r_epik_Ionization_Penalty_Neutral>
0.00318402

> <r_epik_State_Penalty>
0.00215642

> <r_epik_Charging_Adjusted_Penalty>
0.00215642

> <i_epik_Tot_Q>
0

> <i_epik_Tot_abs_Q>
0

> <r_epik_Metal_State_Penalty>
-0

> <b_epik_Metal_Only>
0

> <s_lp_Force_Field>
OPLS_2005

> <r_lp_Energy>
54.3536

> <b_lp_Chiralities_Consistent>
1

> <s_lp_Variant>
AV-unprocessed.smi:229-6

> <Gold.Version>
5.8.1

> <Gold.Id.Protein>
6NUR|6NUR_protein|mol2

> <Gold.PLP.Fitness>
48.9218

> <Gold.PLP.PLP>
-46.5524

> <Gold.PLP.part.hbond>
-1.4488

> <Gold.PLP.part.metal>
0.0000

> <Gold.PLP.part.buried>
-5.2367

> <Gold.PLP.part.nonpolar>
-39.9264

> <Gold.PLP.part.repulsive>
0.0599

> <Gold.PLP.ligand.clash>
0.0000

> <Gold.PLP.ligand.torsion>
0.5283

> <Gold.PLP.Chemscore.Hbond>
0.9920

> <Gold.PLP.Chemscore.CHOScore>
0.0000

> <Gold.PLP.Chemscore.Metal>
0.0000

> <Gold.Chemscore.Hbonds>
donor molecule, donor type, donor heavy atom, donor atom, acceptor molecule, acceptor atom, score
      P1  H  6933  6945       L1    22  0.03

> <Gold.PLP.Chemscore.Internal.Correction>
0.4500

> <Gold.Rescore>
     Score         DG    S(hbond)    S(metal)    S(lipo)     H(rot)  DE(clash)    DE(int)     intcor
     11.13     -13.21       0.00        0.00     119.79       2.46       0.12       1.97       ----

> <Gold.Chemscore.Fitness>
11.1264

> <Gold.Chemscore.DG>
-13.2139

> <Gold.Chemscore.ZeroCoef>
-5.4800

> <Gold.Chemscore.Hbond>
0.0041

> <Gold.Chemscore.Metal>
0.0000

> <Gold.Chemscore.Lipo>
119.7922

> <Gold.Chemscore.Internal_Hbond>
0.0000

> <Gold.Chemscore.DEClash>
0.1162

> <Gold.Chemscore.DEInternal>
1.9714

> <Gold.Chemscore.Rot>
2.4591

> <Gold.Chemscore.Internal.Correction>
   9.000000E+99

> <Gold.Chemscore.Hbonds>
donor molecule, donor type, donor heavy atom, donor atom, acceptor molecule, acceptor atom, score
      P1  H  6933  6945       L1    22  0.03

> <Gold.Chemscore.Hbond.Weighted>
-0.0136

> <Gold.Chemscore.Metal.Weighted>
-0.0000

> <Gold.Chemscore.Lipo.Weighted>
-14.0157

> <Gold.Chemscore.Internal_Hbond.Weighted>
0.0000

> <Gold.Chemscore.DEClash.Weighted>
0.1162

> <Gold.Chemscore.DEInternal.Weighted>
1.9714

> <Gold.Chemscore.Rot.Weighted>
6.2953

> <Gold.Chemscore.Internal.Correction.Weighted>
   9.000000E+99

> <Gold.Protein.RotatedTorsions>
[ 6907 6896 6895 6894 ] final  -58.60 input  -60.11 | X-H torsion
[ 7974 7965 7964 7962 ] final  105.45 input  175.53 | X-H torsion
[ 8008 7997 7996 7995 ] final -158.94 input   59.86 | X-H torsion
[ 10167 10162 10161 10158 ] final  113.42 input  -65.29 | X-H torsion
[ 10718 10713 10712 10709 ] final -151.56 input   66.30 | X-H torsion
[ 10763 10752 10751 10750 ] final   16.13 input  -60.55 | X-H torsion
[ 11005 11000 10999 10996 ] final -129.00 input  -57.11 | X-H torsion

> <Gold.Protein.ActiveResidues>
 VAL166  LYS551  ARG553  GLY616  TRP617  ASP618  TYR619  PRO620  LYS621  CYS622 
 ASP623  PHE694  ASN695  SER759  ASP760  ASP761  ALA762  ILE779  LEU786  VAL792 
 PHE793  MET794  SER795  GLU796  ALA797  LYS798  CYS799  TRP800  GLU811  SER814 

> <Gold.Protein.RotatedAtoms>
  150.7994  134.7077  159.6585 H   0  0  0  0  0  0  0  0  0  0  0  0  # atno 6907 bound_to 6896
  152.4110  134.6121  160.0038 H   0  0  0  0  0  0  0  0  0  0  0  0  # atno 6908 bound_to 6896
  151.6364  133.3291  159.3156 H   0  0  0  0  0  0  0  0  0  0  0  0  # atno 6909 bound_to 6896
  145.3195  139.2517  143.3719 H   0  0  0  0  0  0  0  0  0  0  0  0  # atno 7974 bound_to 7965
  155.7551  140.0831  157.2182 H   0  0  0  0  0  0  0  0  0  0  0  0  # atno 8008 bound_to 7997
  154.4008  140.1553  156.2824 H   0  0  0  0  0  0  0  0  0  0  0  0  # atno 8009 bound_to 7997
  155.8893  140.3416  155.5947 H   0  0  0  0  0  0  0  0  0  0  0  0  # atno 8010 bound_to 7997
  139.6463  144.7126  151.2136 H   0  0  0  0  0  0  0  0  0  0  0  0  # atno 10167 bound_to 10162
  156.4609  130.8213  151.2443 H   0  0  0  0  0  0  0  0  0  0  0  0  # atno 10718 bound_to 10713
  153.1460  135.6769  153.8954 H   0  0  0  0  0  0  0  0  0  0  0  0  # atno 10763 bound_to 10752
  153.8396  135.3107  155.3426 H   0  0  0  0  0  0  0  0  0  0  0  0  # atno 10764 bound_to 10752
  154.7825  135.4880  153.9960 H   0  0  0  0  0  0  0  0  0  0  0  0  # atno 10765 bound_to 10752
  140.9469  134.1118  157.4099 H   0  0  0  0  0  0  0  0  0  0  0  0  # atno 11005 bound_to 11000
  146.3088  140.3749  142.8678 LP  0  0  0  0  0  0  0  0  0  0  0  0  # atno 17320 bound_to 7965
  144.8951  140.7572  143.5902 LP  0  0  0  0  0  0  0  0  0  0  0  0  # atno 17321 bound_to 7965
  140.7516  143.6226  150.8499 LP  0  0  0  0  0  0  0  0  0  0  0  0  # atno 17342 bound_to 10162
  139.9869  143.5890  152.2924 LP  0  0  0  0  0  0  0  0  0  0  0  0  # atno 17343 bound_to 10162
  157.7498  131.0107  150.3318 LP  0  0  0  0  0  0  0  0  0  0  0  0  # atno 17370 bound_to 10713
  156.3718  130.3865  149.7170 LP  0  0  0  0  0  0  0  0  0  0  0  0  # atno 17371 bound_to 10713
  139.8836  135.0054  156.6310 LP  0  0  0  0  0  0  0  0  0  0  0  0  # atno 17394 bound_to 11000
  140.7657  133.8780  155.8453 LP  0  0  0  0  0  0  0  0  0  0  0  0  # atno 17395 bound_to 11000

$$$$
