AV-unprocessed.smi:38|AV-procd|sdf|336|dock6
  -GOLD-   2262016173D 1   1.00000     0.00000
 Structure written by MMmdl.
 28 29  0  0  0  0  0  0  0  0  1 V2000
  150.9081  144.6077  159.0789 O   0  0  0  0  0  0  0  0  0  0  0  0
  151.0645  143.4358  158.7414 C   0  0  0  0  0  0  0  0  0  0  0  0
  150.4961  142.9643  157.5545 N   0  0  0  0  0  0  0  0  0  0  0  0
  150.6013  141.6607  157.0654 C   0  0  0  0  0  0  0  0  0  0  0  0
  150.0424  141.3544  156.0132 O   0  0  0  0  0  0  0  0  0  0  0  0
  151.3553  140.7439  157.8318 N   0  0  0  0  0  0  0  0  0  0  0  0
  151.5067  139.3181  157.3530 C   0  0  2  0  0  0  0  0  0  0  0  0
  150.2237  138.5221  157.5967 C   0  0  0  0  0  0  0  0  0  0  0  0
  150.7828  137.1794  158.0183 C   0  0  2  0  0  0  0  0  0  0  0  0
  149.8511  136.4656  158.8050 O   0  0  0  0  0  0  0  0  0  0  0  0
  152.0284  137.5867  158.8093 C   0  0  1  0  0  0  0  0  0  0  0  0
  153.0962  136.4848  158.8802 C   0  0  0  0  0  0  0  0  0  0  0  0
  152.6728  135.4554  159.7478 O   0  0  0  0  0  0  0  0  0  0  0  0
  152.5329  138.7021  158.0749 O   0  0  0  0  0  0  0  0  0  0  0  0
  151.9284  141.1656  159.0242 C   0  0  0  0  0  0  0  0  0  0  0  0
  151.8157  142.4322  159.4897 C   0  0  0  0  0  0  0  0  0  0  0  0
  152.3972  142.7658  160.6542 F   0  0  0  0  0  0  0  0  0  0  0  0
  149.9609  143.6218  157.0064 H   0  0  0  0  0  0  0  0  0  0  0  0
  151.8122  139.3408  156.3059 H   0  0  0  0  0  0  0  0  0  0  0  0
  151.0579  136.5964  157.1381 H   0  0  0  0  0  0  0  0  0  0  0  0
  151.7339  137.9145  159.8081 H   0  0  0  0  0  0  0  0  0  0  0  0
  149.6539  138.9790  158.4081 H   0  0  0  0  0  0  0  0  0  0  0  0
  149.6027  138.4837  156.7013 H   0  0  0  0  0  0  0  0  0  0  0  0
  149.0001  136.8635  158.7004 H   0  0  0  0  0  0  0  0  0  0  0  0
  153.2439  136.0412  157.8952 H   0  0  0  0  0  0  0  0  0  0  0  0
  154.0580  136.8842  159.2031 H   0  0  0  0  0  0  0  0  0  0  0  0
  153.3666  135.2778  160.3647 H   0  0  0  0  0  0  0  0  0  0  0  0
  152.4888  140.4615  159.6201 H   0  0  0  0  0  0  0  0  0  0  0  0
  1  2  2  0  0  0  0
  2 16  1  0  0  0  0
  2  3  1  0  0  0  0
  3 18  1  0  0  0  0
  3  4  1  0  0  0  0
  4  5  2  0  0  0  0
  4  6  1  0  0  0  0
  6  7  1  0  0  0  0
  6 15  1  0  0  0  0
  7 19  1  0  0  0  0
  7 14  1  0  0  0  0
  7  8  1  0  0  0  0
  8  9  1  0  0  0  0
  8 22  1  0  0  0  0
  8 23  1  0  0  0  0
  9 20  1  0  0  0  0
  9 10  1  0  0  0  0
  9 11  1  0  0  0  0
 10 24  1  0  0  0  0
 11 21  1  0  0  0  0
 11 12  1  0  0  0  0
 11 14  1  0  0  0  0
 12 13  1  0  0  0  0
 12 25  1  0  0  0  0
 12 26  1  0  0  0  0
 13 27  1  0  0  0  0
 15 16  2  0  0  0  0
 15 28  1  0  0  0  0
 16 17  1  0  0  0  0
M  END
> <s_m_source_file>
AV-unprocessed.smi

> <i_m_source_file_index>
38

> <i_lp_mmshare_version>
43012

> <i_f3d_flags>
0

> <s_epik_input>
Tz1jMVtuSF1jKD1PKW4oW2NIXWMxRilbQ0BIXTJbQ0gyXVtDQEhdKFtPSF0pW0NASF0oTzIpW0NIMl1bT0hd

> <s_epik_cmdline>
J2VwaWtfcHl0aG9uJywgJy1waCcsICc3LjAnLCAnLXRuJywgJzgnLCAnLW1hJywgJzIwMCcsICctbWV0YWxfYmluZGluZycsICctaW1hZScsICc8aW5maWxlLm1hZT4nLCAnLW9tYWUnLCAnPG91dGZpbGUubWFlPic=

> <r_lp_tautomer_probability>
0.999537

> <r_epik_Ionization_Penalty>
0.0357432

> <r_epik_Ionization_Penalty_Charging>
0.0357431

> <r_epik_Ionization_Penalty_Neutral>
1.19946e-07

> <r_epik_State_Penalty>
0.0298169

> <r_epik_Charging_Adjusted_Penalty>
0.06556

> <i_epik_Tot_Q>
0

> <i_epik_Tot_abs_Q>
0

> <r_epik_Metal_State_Penalty>
2.348

> <b_epik_Metal_Only>
0

> <s_epik_Chemistry_Notes>
This compound contains an acetal/aminal-like group ( X-CH(R)-Y where X, Y are N, S, or O) that may be acid/base labile, releasing an aldehyde.

> <s_lp_Force_Field>
OPLS_2005

> <r_lp_Energy>
26.798

> <b_lp_Chiralities_Consistent>
1

> <s_lp_Variant>
AV-unprocessed.smi:38-2

> <Gold.Version>
5.8.1

> <Gold.Id.Protein>
6NUR|6NUR_protein|mol2

> <Gold.PLP.Fitness>
38.7416

> <Gold.PLP.PLP>
-28.1034

> <Gold.PLP.part.hbond>
-4.0000

> <Gold.PLP.part.metal>
0.0000

> <Gold.PLP.part.buried>
-6.0251

> <Gold.PLP.part.nonpolar>
-18.4453

> <Gold.PLP.part.repulsive>
0.2137

> <Gold.PLP.ligand.clash>
0.0000

> <Gold.PLP.ligand.torsion>
0.4460

> <Gold.PLP.Chemscore.Hbond>
3.8400

> <Gold.PLP.Chemscore.CHOScore>
0.0000

> <Gold.PLP.Chemscore.Metal>
0.0000

> <Gold.Chemscore.Hbonds>
donor molecule, donor type, donor heavy atom, donor atom, acceptor molecule, acceptor atom, score
      L1  H     3    18       P1  8028  0.99
      P1  H  6896  6907       L1    10  0.89

> <Gold.PLP.Chemscore.Internal.Correction>
0.0102

> <Gold.Rescore>
     Score         DG    S(hbond)    S(metal)    S(lipo)     H(rot)  DE(clash)    DE(int)     intcor
     13.13     -13.55       3.42        0.00      35.12       2.91       0.03       0.39       ----

> <Gold.Chemscore.Fitness>
13.1328

> <Gold.Chemscore.DG>
-13.5525

> <Gold.Chemscore.ZeroCoef>
-5.4800

> <Gold.Chemscore.Hbond>
3.4201

> <Gold.Chemscore.Metal>
0.0000

> <Gold.Chemscore.Lipo>
35.1230

> <Gold.Chemscore.Internal_Hbond>
0.0000

> <Gold.Chemscore.DEClash>
0.0294

> <Gold.Chemscore.DEInternal>
0.3903

> <Gold.Chemscore.Rot>
2.9141

> <Gold.Chemscore.Internal.Correction>
   9.000000E+99

> <Gold.Chemscore.Hbonds>
donor molecule, donor type, donor heavy atom, donor atom, acceptor molecule, acceptor atom, score
      L1  H     3    18       P1  8028  0.91
      P1  H  6896  6907       L1    10  0.52

> <Gold.Chemscore.Hbond.Weighted>
-11.4232

> <Gold.Chemscore.Metal.Weighted>
-0.0000

> <Gold.Chemscore.Lipo.Weighted>
-4.1094

> <Gold.Chemscore.Internal_Hbond.Weighted>
0.0000

> <Gold.Chemscore.DEClash.Weighted>
0.0294

> <Gold.Chemscore.DEInternal.Weighted>
0.3903

> <Gold.Chemscore.Rot.Weighted>
7.4601

> <Gold.Chemscore.Internal.Correction.Weighted>
   9.000000E+99

> <Gold.Protein.RotatedTorsions>
[ 6907 6896 6895 6894 ] final  -46.87 input  -60.11 | X-H torsion
[ 7974 7965 7964 7962 ] final   50.65 input  175.53 | X-H torsion
[ 8008 7997 7996 7995 ] final  154.72 input   59.86 | X-H torsion
[ 10167 10162 10161 10158 ] final   75.35 input  -65.29 | X-H torsion
[ 10718 10713 10712 10709 ] final  107.75 input   66.30 | X-H torsion
[ 10763 10752 10751 10750 ] final  -35.20 input  -60.55 | X-H torsion
[ 11005 11000 10999 10996 ] final   84.22 input  -57.11 | X-H torsion

> <Gold.Protein.ActiveResidues>
 VAL166  LYS551  ARG553  GLY616  TRP617  ASP618  TYR619  PRO620  LYS621  CYS622 
 ASP623  PHE694  ASN695  SER759  ASP760  ASP761  ALA762  ILE779  LEU786  VAL792 
 PHE793  MET794  SER795  GLU796  ALA797  LYS798  CYS799  TRP800  GLU811  SER814 

> <Gold.Protein.RotatedAtoms>
  150.9067  134.8482  159.7397 H   0  0  0  0  0  0  0  0  0  0  0  0  # atno 6907 bound_to 6896
  152.4922  134.4420  159.9556 H   0  0  0  0  0  0  0  0  0  0  0  0  # atno 6908 bound_to 6896
  151.4466  133.3589  159.2824 H   0  0  0  0  0  0  0  0  0  0  0  0  # atno 6909 bound_to 6896
  145.9991  139.4419  143.0026 H   0  0  0  0  0  0  0  0  0  0  0  0  # atno 7974 bound_to 7965
  156.2516  140.1959  156.6689 H   0  0  0  0  0  0  0  0  0  0  0  0  # atno 8008 bound_to 7997
  154.6407  140.0584  156.9868 H   0  0  0  0  0  0  0  0  0  0  0  0  # atno 8009 bound_to 7997
  155.1567  140.3256  155.4422 H   0  0  0  0  0  0  0  0  0  0  0  0  # atno 8010 bound_to 7997
  140.0039  144.5665  150.7714 H   0  0  0  0  0  0  0  0  0  0  0  0  # atno 10167 bound_to 10162
  157.6615  131.0879  150.6203 H   0  0  0  0  0  0  0  0  0  0  0  0  # atno 10718 bound_to 10713
  153.8592  135.6841  153.4784 H   0  0  0  0  0  0  0  0  0  0  0  0  # atno 10763 bound_to 10752
  153.1352  135.4681  154.9408 H   0  0  0  0  0  0  0  0  0  0  0  0  # atno 10764 bound_to 10752
  154.7766  135.3255  154.8027 H   0  0  0  0  0  0  0  0  0  0  0  0  # atno 10765 bound_to 10752
  139.9007  134.8201  156.2416 H   0  0  0  0  0  0  0  0  0  0  0  0  # atno 11005 bound_to 11000
  145.7515  140.9970  143.1248 LP  0  0  0  0  0  0  0  0  0  0  0  0  # atno 17320 bound_to 7965
  144.6913  139.9220  143.7468 LP  0  0  0  0  0  0  0  0  0  0  0  0  # atno 17321 bound_to 7965
  140.7408  143.2809  151.3601 LP  0  0  0  0  0  0  0  0  0  0  0  0  # atno 17342 bound_to 10162
  139.6252  144.0828  152.2428 LP  0  0  0  0  0  0  0  0  0  0  0  0  # atno 17343 bound_to 10162
  156.6506  130.4484  149.5721 LP  0  0  0  0  0  0  0  0  0  0  0  0  # atno 17370 bound_to 10713
  156.2140  130.6696  151.1300 LP  0  0  0  0  0  0  0  0  0  0  0  0  # atno 17371 bound_to 10713
  141.0281  133.7004  156.1383 LP  0  0  0  0  0  0  0  0  0  0  0  0  # atno 17394 bound_to 11000
  140.7136  134.4435  157.5580 LP  0  0  0  0  0  0  0  0  0  0  0  0  # atno 17395 bound_to 11000

$$$$
