AV-unprocessed.smi:560|AV-procd|sdf|2932|dock4
  -GOLD-   2262023423D 1   1.00000     0.00000
 Structure written by MMmdl.
 41 42  0  0  0  0  0  0  0  0  3 V2000
  151.3889  144.4138  157.4743 C   0  0  0  0  0  0  0  0  0  0  0  0
  152.0216  143.0433  157.7784 C   0  0  2  0  0  0  0  0  0  0  0  0
  151.1472  141.8687  157.3134 C   0  0  0  0  0  0  0  0  0  0  0  0
  151.3823  140.7207  157.6926 O   0  0  0  0  0  0  0  0  0  0  0  0
  150.1410  142.1732  156.4783 N   0  0  0  0  0  0  0  0  0  0  0  0
  149.2162  141.2116  155.8864 C   0  0  2  0  0  0  0  0  0  0  0  0
  149.9994  140.1705  155.0707 C   0  0  0  0  0  0  0  0  0  0  0  0
  149.0505  139.1867  154.3666 C   0  0  0  0  0  0  0  0  0  0  0  0
  148.0784  139.9061  153.5001 N   0  3  1  0  0  0  0  0  0  0  0  0
  147.2243  138.9964  152.6944 C   0  0  0  0  0  0  0  0  0  0  0  0
  146.2910  138.1872  153.6010 C   0  0  0  0  0  0  0  0  0  0  0  0
  144.9893  138.4232  153.3404 N   0  5  0  0  0  0  0  0  0  0  0  0
  146.7679  137.4284  154.4416 O   0  0  0  0  0  0  0  0  0  0  0  0
  147.2827  140.8935  154.2718 C   0  0  0  0  0  0  0  0  0  0  0  0
  148.1934  141.9139  154.9742 C   0  0  0  0  0  0  0  0  0  0  0  0
  152.3268  142.9100  159.1967 N   0  0  0  0  0  0  0  0  0  0  0  0
  152.0355  143.7783  160.2312 C   0  0  0  0  0  0  0  0  0  0  0  0
  152.5130  143.2193  161.3815 C   0  0  0  0  0  0  0  0  0  0  0  0
  153.0895  141.9936  160.9471 C   0  0  0  0  0  0  0  0  0  0  0  0
  152.9749  141.8104  159.6415 N   0  0  0  0  0  0  0  0  0  0  0  0
  151.1681  144.5201  156.4117 H   0  0  0  0  0  0  0  0  0  0  0  0
  152.0666  145.2224  157.7493 H   0  0  0  0  0  0  0  0  0  0  0  0
  150.4588  144.5637  158.0240 H   0  0  0  0  0  0  0  0  0  0  0  0
  152.9598  142.9899  157.2222 H   0  0  0  0  0  0  0  0  0  0  0  0
  150.0227  143.1418  156.2166 H   0  0  0  0  0  0  0  0  0  0  0  0
  148.6852  140.6924  156.6869 H   0  0  0  0  0  0  0  0  0  0  0  0
  150.6186  140.6706  154.3242 H   0  0  0  0  0  0  0  0  0  0  0  0
  150.6822  139.6215  155.7203 H   0  0  0  0  0  0  0  0  0  0  0  0
  149.6406  138.4885  153.7724 H   0  0  0  0  0  0  0  0  0  0  0  0
  148.5107  138.5929  155.1058 H   0  0  0  0  0  0  0  0  0  0  0  0
  146.6507  139.5638  151.9596 H   0  0  0  0  0  0  0  0  0  0  0  0
  147.8405  138.2935  152.1304 H   0  0  0  0  0  0  0  0  0  0  0  0
  144.7307  139.2631  152.8095 H   0  0  0  0  0  0  0  0  0  0  0  0
  146.6046  141.4239  153.6021 H   0  0  0  0  0  0  0  0  0  0  0  0
  146.6638  140.3715  155.0035 H   0  0  0  0  0  0  0  0  0  0  0  0
  147.5829  142.6083  155.5524 H   0  0  0  0  0  0  0  0  0  0  0  0
  148.7140  142.5111  154.2242 H   0  0  0  0  0  0  0  0  0  0  0  0
  151.5169  144.7110  160.0634 H   0  0  0  0  0  0  0  0  0  0  0  0
  152.4593  143.6249  162.3808 H   0  0  0  0  0  0  0  0  0  0  0  0
  153.5835  141.2362  161.5377 H   0  0  0  0  0  0  0  0  0  0  0  0
  148.6165  140.4346  152.8274 H   0  0  0  0  0  0  0  0  0  0  0  0
  1  2  1  0  0  0  0
  1 21  1  0  0  0  0
  1 22  1  0  0  0  0
  1 23  1  0  0  0  0
  2  3  1  0  0  0  0
  2 16  1  0  0  0  0
  2 24  1  0  0  0  0
  3  4  2  0  0  0  0
  3  5  1  0  0  0  0
  5  6  1  0  0  0  0
  5 25  1  0  0  0  0
  6 15  1  0  0  0  0
  6  7  1  0  0  0  0
  6 26  1  0  0  0  0
  7  8  1  0  0  0  0
  7 27  1  0  0  0  0
  7 28  1  0  0  0  0
  8  9  1  0  0  0  0
  8 29  1  0  0  0  0
  8 30  1  0  0  0  0
  9 10  1  0  0  0  0
  9 14  1  0  0  0  0
  9 41  1  0  0  0  0
 10 11  1  0  0  0  0
 10 31  1  0  0  0  0
 10 32  1  0  0  0  0
 11 12  1  0  0  0  0
 11 13  2  0  0  0  0
 12 33  1  0  0  0  0
 14 15  1  0  0  0  0
 14 34  1  0  0  0  0
 14 35  1  0  0  0  0
 15 36  1  0  0  0  0
 15 37  1  0  0  0  0
 16 20  1  0  0  0  0
 16 17  1  0  0  0  0
 17 18  2  0  0  0  0
 17 38  1  0  0  0  0
 18 19  1  0  0  0  0
 18 39  1  0  0  0  0
 19 20  2  0  0  0  0
 19 40  1  0  0  0  0
M  CHG  1   9   1
M  CHG  1  12  -1
M  END
> <s_m_source_file>
AV-unprocessed.smi

> <i_m_source_file_index>
560

> <i_lp_mmshare_version>
43012

> <i_f3d_flags>
0

> <s_epik_input>
bjFbY0hdW2NIXVtjSF1uMVtDQEhdKFtDSDNdKUMoPU8pW05IXVtDSF0yW0NIMl1bQ0gyXU4oW0NIMl1bQ0gyXTIpW0NIMl1DKD1PKVtOSDJd

> <s_epik_cmdline>
J2VwaWtfcHl0aG9uJywgJy1waCcsICc3LjAnLCAnLXRuJywgJzgnLCAnLW1hJywgJzIwMCcsICctbWV0YWxfYmluZGluZycsICctaW1hZScsICc8aW5maWxlLm1hZT4nLCAnLW9tYWUnLCAnPG91dGZpbGUubWFlPic=

> <r_lp_tautomer_probability>
1

> <r_epik_Ionization_Penalty>
5.71084

> <r_epik_Ionization_Penalty_Charging>
5.71081

> <r_epik_Ionization_Penalty_Neutral>
3.04611e-05

> <r_epik_State_Penalty>
6.71277

> <r_epik_Charging_Adjusted_Penalty>
12.4236

> <i_epik_Tot_Q>
0

> <i_epik_Tot_abs_Q>
2

> <r_epik_Metal_State_Penalty>
2.67562

> <b_epik_Metal_Only>
1

> <s_lp_Force_Field>
OPLS_2005

> <r_lp_Energy>
10.6989

> <b_lp_Chiralities_Consistent>
1

> <s_lp_Variant>
AV-unprocessed.smi:560-7

> <Gold.Version>
5.8.1

> <Gold.Id.Protein>
6NUR|6NUR_protein|mol2

> <Gold.PLP.Fitness>
44.8993

> <Gold.PLP.PLP>
-37.5047

> <Gold.PLP.part.hbond>
-3.0000

> <Gold.PLP.part.metal>
0.0000

> <Gold.PLP.part.buried>
-2.2985

> <Gold.PLP.part.nonpolar>
-33.1842

> <Gold.PLP.part.repulsive>
0.2299

> <Gold.PLP.ligand.clash>
0.0000

> <Gold.PLP.ligand.torsion>
0.4505

> <Gold.PLP.Chemscore.Hbond>
2.7360

> <Gold.PLP.Chemscore.CHOScore>
0.0000

> <Gold.PLP.Chemscore.Metal>
0.0000

> <Gold.Chemscore.Hbonds>
donor molecule, donor type, donor heavy atom, donor atom, acceptor molecule, acceptor atom, score
      L1  H     5    25       P1  8028  1.00
      L1  H     9    41       P1  7957  0.74
      L1  H    12    33       P1 10175  1.00

> <Gold.PLP.Chemscore.Internal.Correction>
0.0876

> <Gold.Rescore>
     Score         DG    S(hbond)    S(metal)    S(lipo)     H(rot)  DE(clash)    DE(int)     intcor
     14.93     -19.44       2.73        0.00      95.62       2.47       1.58       2.92       ----

> <Gold.Chemscore.Fitness>
14.9346

> <Gold.Chemscore.DG>
-19.4400

> <Gold.Chemscore.ZeroCoef>
-5.4800

> <Gold.Chemscore.Hbond>
2.7259

> <Gold.Chemscore.Metal>
0.0000

> <Gold.Chemscore.Lipo>
95.6171

> <Gold.Chemscore.Internal_Hbond>
0.0000

> <Gold.Chemscore.DEClash>
1.5828

> <Gold.Chemscore.DEInternal>
2.9227

> <Gold.Chemscore.Rot>
2.4734

> <Gold.Chemscore.Internal.Correction>
   9.000000E+99

> <Gold.Chemscore.Hbonds>
donor molecule, donor type, donor heavy atom, donor atom, acceptor molecule, acceptor atom, score
      L1  H     5    25       P1  8028  0.92
      L1  H     9    41       P1  7957  0.72
      L1  H    12    33       P1 10175  0.95

> <Gold.Chemscore.Hbond.Weighted>
-9.1046

> <Gold.Chemscore.Metal.Weighted>
-0.0000

> <Gold.Chemscore.Lipo.Weighted>
-11.1872

> <Gold.Chemscore.Internal_Hbond.Weighted>
0.0000

> <Gold.Chemscore.DEClash.Weighted>
1.5828

> <Gold.Chemscore.DEInternal.Weighted>
2.9227

> <Gold.Chemscore.Rot.Weighted>
6.3318

> <Gold.Chemscore.Internal.Correction.Weighted>
   9.000000E+99

> <Gold.Protein.RotatedTorsions>
[ 6907 6896 6895 6894 ] final  161.56 input  -60.11 | X-H torsion
[ 7974 7965 7964 7962 ] final  159.01 input  175.53 | X-H torsion
[ 8008 7997 7996 7995 ] final  149.84 input   59.86 | X-H torsion
[ 10167 10162 10161 10158 ] final  138.50 input  -65.29 | X-H torsion
[ 10718 10713 10712 10709 ] final -179.37 input   66.30 | X-H torsion
[ 10763 10752 10751 10750 ] final   46.93 input  -60.55 | X-H torsion
[ 11005 11000 10999 10996 ] final -116.71 input  -57.11 | X-H torsion

> <Gold.Protein.ActiveResidues>
 VAL166  LYS551  ARG553  GLY616  TRP617  ASP618  TYR619  PRO620  LYS621  CYS622 
 ASP623  PHE694  ASN695  SER759  ASP760  ASP761  ALA762  ILE779  LEU786  VAL792 
 PHE793  MET794  SER795  GLU796  ALA797  LYS798  CYS799  TRP800  GLU811  SER814 

> <Gold.Protein.RotatedAtoms>
  151.9538  133.3674  159.4009 H   0  0  0  0  0  0  0  0  0  0  0  0  # atno 6907 bound_to 6896
  150.6976  134.4312  159.5259 H   0  0  0  0  0  0  0  0  0  0  0  0  # atno 6908 bound_to 6896
  152.1990  134.8605  160.0560 H   0  0  0  0  0  0  0  0  0  0  0  0  # atno 6909 bound_to 6896
  144.7813  139.7558  143.6258 H   0  0  0  0  0  0  0  0  0  0  0  0  # atno 7974 bound_to 7965
  156.2739  140.2091  156.5922 H   0  0  0  0  0  0  0  0  0  0  0  0  # atno 8008 bound_to 7997
  154.6973  140.0524  157.0447 H   0  0  0  0  0  0  0  0  0  0  0  0  # atno 8009 bound_to 7997
  155.0783  140.3184  155.4612 H   0  0  0  0  0  0  0  0  0  0  0  0  # atno 8010 bound_to 7997
  139.5109  144.6349  151.5721 H   0  0  0  0  0  0  0  0  0  0  0  0  # atno 10167 bound_to 10162
  156.8580  130.9742  151.3086 H   0  0  0  0  0  0  0  0  0  0  0  0  # atno 10718 bound_to 10713
  152.9805  135.5992  154.3680 H   0  0  0  0  0  0  0  0  0  0  0  0  # atno 10763 bound_to 10752
  154.3356  135.2768  155.2451 H   0  0  0  0  0  0  0  0  0  0  0  0  # atno 10764 bound_to 10752
  154.4555  135.5979  153.6276 H   0  0  0  0  0  0  0  0  0  0  0  0  # atno 10765 bound_to 10752
  141.0404  133.9845  157.3004 H   0  0  0  0  0  0  0  0  0  0  0  0  # atno 11005 bound_to 11000
  146.2023  139.5325  142.9735 LP  0  0  0  0  0  0  0  0  0  0  0  0  # atno 17320 bound_to 7965
  145.6042  141.0350  143.2002 LP  0  0  0  0  0  0  0  0  0  0  0  0  # atno 17321 bound_to 7965
  140.6095  143.9462  150.6443 LP  0  0  0  0  0  0  0  0  0  0  0  0  # atno 17342 bound_to 10162
  140.2700  143.3462  152.1246 LP  0  0  0  0  0  0  0  0  0  0  0  0  # atno 17343 bound_to 10162
  157.6266  130.8696  149.9200 LP  0  0  0  0  0  0  0  0  0  0  0  0  # atno 17370 bound_to 10713
  156.0792  130.3675  150.0615 LP  0  0  0  0  0  0  0  0  0  0  0  0  # atno 17371 bound_to 10713
  139.9271  135.0201  156.8273 LP  0  0  0  0  0  0  0  0  0  0  0  0  # atno 17394 bound_to 11000
  140.6245  133.9963  155.7633 LP  0  0  0  0  0  0  0  0  0  0  0  0  # atno 17395 bound_to 11000

$$$$
