AV-unprocessed.smi:2270|AV-procd|sdf|9154|dock2
  -GOLD-   2272012363D 1   1.00000     0.00000
 Structure written by MMmdl.
 53 54  0  0  0  0  0  0  0  0  2 V2000
  146.0985  131.9238  160.8461 C   0  0  0  0  0  0  0  0  0  0  0  0
  146.6176  133.3126  161.1532 C   0  0  0  0  0  0  0  0  0  0  0  0
  146.7096  133.7743  162.4804 C   0  0  0  0  0  0  0  0  0  0  0  0
  147.2060  135.0717  162.6974 C   0  0  0  0  0  0  0  0  0  0  0  0
  147.5805  135.8519  161.5867 C   0  0  0  0  0  0  0  0  0  0  0  0
  147.4380  135.3166  160.2808 C   0  0  0  0  0  0  0  0  0  0  0  0
  147.8356  136.0698  159.1447 N   0  0  0  0  0  0  0  0  0  0  0  0
  148.7318  137.0700  159.0830 C   0  0  0  0  0  0  0  0  0  0  0  0
  149.3724  137.5099  160.0379 O   0  0  0  0  0  0  0  0  0  0  0  0
  148.8388  137.5490  157.8355 N   0  0  0  0  0  0  0  0  0  0  0  0
  149.7432  138.6136  157.4184 C   0  0  0  0  0  0  0  0  0  0  0  0
  149.4260  139.1498  155.9885 C   0  0  2  0  0  0  0  0  0  0  0  0
  150.1219  138.3254  154.8492 C   0  0  0  0  0  0  0  0  0  0  0  0
  149.8986  136.8066  154.9686 C   0  0  0  0  0  0  0  0  0  0  0  0
  151.6145  138.6559  154.6621 C   0  0  0  0  0  0  0  0  0  0  0  0
  149.7656  140.5852  155.8281 N   0  0  0  0  0  0  0  0  0  0  0  0
  149.5023  141.1383  154.4872 C   0  0  0  0  0  0  0  0  0  0  0  0
  147.9965  141.3542  154.2190 C   0  0  0  0  0  0  0  0  0  0  0  0
  147.4101  142.2499  155.2411 N   0  3  0  0  0  0  0  0  0  0  0  0
  145.9771  142.5265  155.0069 C   0  0  0  0  0  0  0  0  0  0  0  0
  147.6819  141.7277  156.5985 C   0  0  0  0  0  0  0  0  0  0  0  0
  149.2009  141.5389  156.7952 C   0  0  0  0  0  0  0  0  0  0  0  0
  146.9789  134.0586  160.0864 N   0  0  0  0  0  0  0  0  0  0  0  0
  145.8495  131.3835  161.7599 H   0  0  0  0  0  0  0  0  0  0  0  0
  146.8500  131.3485  160.3047 H   0  0  0  0  0  0  0  0  0  0  0  0
  145.2004  131.9826  160.2307 H   0  0  0  0  0  0  0  0  0  0  0  0
  146.4137  133.1519  163.3123 H   0  0  0  0  0  0  0  0  0  0  0  0
  147.3029  135.4617  163.6997 H   0  0  0  0  0  0  0  0  0  0  0  0
  147.9813  136.8404  161.7535 H   0  0  0  0  0  0  0  0  0  0  0  0
  147.3081  135.8907  158.3031 H   0  0  0  0  0  0  0  0  0  0  0  0
  148.2682  137.1297  157.1159 H   0  0  0  0  0  0  0  0  0  0  0  0
  149.6212  139.3928  158.1689 H   0  0  0  0  0  0  0  0  0  0  0  0
  150.7836  138.2893  157.4764 H   0  0  0  0  0  0  0  0  0  0  0  0
  148.3483  139.0567  155.8619 H   0  0  0  0  0  0  0  0  0  0  0  0
  149.6627  138.5739  153.8964 H   0  0  0  0  0  0  0  0  0  0  0  0
  150.4548  136.3623  155.7919 H   0  0  0  0  0  0  0  0  0  0  0  0
  150.2237  136.2992  154.0599 H   0  0  0  0  0  0  0  0  0  0  0  0
  148.8431  136.5724  155.1094 H   0  0  0  0  0  0  0  0  0  0  0  0
  152.2185  138.3175  155.5037 H   0  0  0  0  0  0  0  0  0  0  0  0
  151.7689  139.7293  154.5487 H   0  0  0  0  0  0  0  0  0  0  0  0
  152.0099  138.1735  153.7678 H   0  0  0  0  0  0  0  0  0  0  0  0
  150.0186  142.0959  154.4065 H   0  0  0  0  0  0  0  0  0  0  0  0
  149.9214  140.5220  153.6956 H   0  0  0  0  0  0  0  0  0  0  0  0
  147.8684  141.8075  153.2353 H   0  0  0  0  0  0  0  0  0  0  0  0
  147.4576  140.4067  154.1948 H   0  0  0  0  0  0  0  0  0  0  0  0
  145.3844  141.6133  155.0775 H   0  0  0  0  0  0  0  0  0  0  0  0
  145.8261  142.9567  154.0164 H   0  0  0  0  0  0  0  0  0  0  0  0
  145.5983  143.2386  155.7407 H   0  0  0  0  0  0  0  0  0  0  0  0
  147.3058  142.4361  157.3374 H   0  0  0  0  0  0  0  0  0  0  0  0
  147.1413  140.7931  156.7524 H   0  0  0  0  0  0  0  0  0  0  0  0
  149.4325  141.2506  157.8197 H   0  0  0  0  0  0  0  0  0  0  0  0
  149.6986  142.5003  156.6594 H   0  0  0  0  0  0  0  0  0  0  0  0
  147.8953  143.1328  155.1679 H   0  0  0  0  0  0  0  0  0  0  0  0
  1  2  1  0  0  0  0
  1 24  1  0  0  0  0
  1 25  1  0  0  0  0
  1 26  1  0  0  0  0
  2 23  1  0  0  0  0
  2  3  2  0  0  0  0
  3  4  1  0  0  0  0
  3 27  1  0  0  0  0
  4  5  2  0  0  0  0
  4 28  1  0  0  0  0
  5  6  1  0  0  0  0
  5 29  1  0  0  0  0
  6  7  1  0  0  0  0
  6 23  2  0  0  0  0
  7  8  1  0  0  0  0
  7 30  1  0  0  0  0
  8  9  2  0  0  0  0
  8 10  1  0  0  0  0
 10 11  1  0  0  0  0
 10 31  1  0  0  0  0
 11 12  1  0  0  0  0
 11 32  1  0  0  0  0
 11 33  1  0  0  0  0
 12 13  1  0  0  0  0
 12 16  1  0  0  0  0
 12 34  1  0  0  0  0
 13 14  1  0  0  0  0
 13 15  1  0  0  0  0
 13 35  1  0  0  0  0
 14 36  1  0  0  0  0
 14 37  1  0  0  0  0
 14 38  1  0  0  0  0
 15 39  1  0  0  0  0
 15 40  1  0  0  0  0
 15 41  1  0  0  0  0
 16 22  1  0  0  0  0
 16 17  1  0  0  0  0
 17 18  1  0  0  0  0
 17 42  1  0  0  0  0
 17 43  1  0  0  0  0
 18 19  1  0  0  0  0
 18 44  1  0  0  0  0
 18 45  1  0  0  0  0
 19 20  1  0  0  0  0
 19 21  1  0  0  0  0
 19 53  1  0  0  0  0
 20 46  1  0  0  0  0
 20 47  1  0  0  0  0
 20 48  1  0  0  0  0
 21 22  1  0  0  0  0
 21 49  1  0  0  0  0
 21 50  1  0  0  0  0
 22 51  1  0  0  0  0
 22 52  1  0  0  0  0
M  CHG  1  19   1
M  END
> <s_m_source_file>
AV-unprocessed.smi

> <i_m_source_file_index>
2270

> <i_lp_mmshare_version>
43012

> <i_f3d_flags>
0

> <s_epik_input>
W0NIM11jMVtjSF1bY0hdW2NIXWMobjEpW05IXUMoPU8pW05IXVtDSDJdW0NASF0oW0NIXShbQ0gzXSlbQ0gzXSlOMltDSDJdW0NIMl1OKFtDSDNdKVtDSDJdW0NIMl0y

> <s_epik_cmdline>
J2VwaWtfcHl0aG9uJywgJy1waCcsICc3LjAnLCAnLXRuJywgJzgnLCAnLW1hJywgJzIwMCcsICctbWV0YWxfYmluZGluZycsICctaW1hZScsICc8aW5maWxlLm1hZT4nLCAnLW9tYWUnLCAnPG91dGZpbGUubWFlPic=

> <r_epik_Ionization_Penalty>
0.0278292

> <r_epik_Ionization_Penalty_Charging>
0.0272987

> <r_epik_Ionization_Penalty_Neutral>
0.000530468

> <r_epik_State_Penalty>
0.0776825

> <r_epik_Charging_Adjusted_Penalty>
0.104981

> <i_epik_Tot_Q>
1

> <i_epik_Tot_abs_Q>
1

> <r_epik_Metal_State_Penalty>
0.0776809

> <b_epik_Metal_Only>
0

> <s_lp_Force_Field>
OPLS_2005

> <r_lp_Energy>
34.9975

> <b_lp_Chiralities_Consistent>
1

> <s_lp_Variant>
AV-unprocessed.smi:2270-1

> <Gold.Version>
5.8.1

> <Gold.Id.Protein>
6NUR|6NUR_protein|mol2

> <Gold.PLP.Fitness>
42.4948

> <Gold.PLP.PLP>
-36.8702

> <Gold.PLP.part.hbond>
-2.1153

> <Gold.PLP.part.metal>
0.0000

> <Gold.PLP.part.buried>
-4.5048

> <Gold.PLP.part.nonpolar>
-31.6241

> <Gold.PLP.part.repulsive>
0.3065

> <Gold.PLP.ligand.clash>
0.0000

> <Gold.PLP.ligand.torsion>
0.7173

> <Gold.PLP.Chemscore.Hbond>
2.2400

> <Gold.PLP.Chemscore.CHOScore>
0.0000

> <Gold.PLP.Chemscore.Metal>
0.0000

> <Gold.Chemscore.Hbonds>
donor molecule, donor type, donor heavy atom, donor atom, acceptor molecule, acceptor atom, score
      L1  H    19    53       P1  8028  2.00
      P1  H  6931  6943       L1     9  0.26

> <Gold.PLP.Chemscore.Internal.Correction>
0.3392

> <Gold.Rescore>
     Score         DG    S(hbond)    S(metal)    S(lipo)     H(rot)  DE(clash)    DE(int)     intcor
     13.76     -15.98       1.27        0.00      88.65       1.61       0.45       1.78       ----

> <Gold.Chemscore.Fitness>
13.7631

> <Gold.Chemscore.DG>
-15.9850

> <Gold.Chemscore.ZeroCoef>
-5.4800

> <Gold.Chemscore.Hbond>
1.2715

> <Gold.Chemscore.Metal>
0.0000

> <Gold.Chemscore.Lipo>
88.6517

> <Gold.Chemscore.Internal_Hbond>
0.0000

> <Gold.Chemscore.DEClash>
0.4457

> <Gold.Chemscore.DEInternal>
1.7762

> <Gold.Chemscore.Rot>
1.6070

> <Gold.Chemscore.Internal.Correction>
   9.000000E+99

> <Gold.Chemscore.Hbonds>
donor molecule, donor type, donor heavy atom, donor atom, acceptor molecule, acceptor atom, score
      L1  H    19    53       P1  8028  0.74
      P1  H  6931  6943       L1     9  0.25

> <Gold.Chemscore.Hbond.Weighted>
-4.2467

> <Gold.Chemscore.Metal.Weighted>
-0.0000

> <Gold.Chemscore.Lipo.Weighted>
-10.3723

> <Gold.Chemscore.Internal_Hbond.Weighted>
0.0000

> <Gold.Chemscore.DEClash.Weighted>
0.4457

> <Gold.Chemscore.DEInternal.Weighted>
1.7762

> <Gold.Chemscore.Rot.Weighted>
4.1140

> <Gold.Chemscore.Internal.Correction.Weighted>
   9.000000E+99

> <Gold.Protein.RotatedTorsions>
[ 6907 6896 6895 6894 ] final  177.98 input  -60.11 | X-H torsion
[ 7974 7965 7964 7962 ] final   63.77 input  175.53 | X-H torsion
[ 8008 7997 7996 7995 ] final  116.55 input   59.86 | X-H torsion
[ 10167 10162 10161 10158 ] final   48.38 input  -65.29 | X-H torsion
[ 10718 10713 10712 10709 ] final  159.45 input   66.30 | X-H torsion
[ 10763 10752 10751 10750 ] final   -5.69 input  -60.55 | X-H torsion
[ 11005 11000 10999 10996 ] final   30.58 input  -57.11 | X-H torsion

> <Gold.Protein.ActiveResidues>
 VAL166  LYS551  ARG553  GLY616  TRP617  ASP618  TYR619  PRO620  LYS621  CYS622 
 ASP623  PHE694  ASN695  SER759  ASP760  ASP761  ALA762  ILE779  LEU786  VAL792 
 PHE793  MET794  SER795  GLU796  ALA797  LYS798  CYS799  TRP800  GLU811  SER814 

> <Gold.Protein.RotatedAtoms>
  151.6953  133.3311  159.3252 H   0  0  0  0  0  0  0  0  0  0  0  0  # atno 6907 bound_to 6896
  150.7760  134.6663  159.6376 H   0  0  0  0  0  0  0  0  0  0  0  0  # atno 6908 bound_to 6896
  152.3803  134.6604  160.0197 H   0  0  0  0  0  0  0  0  0  0  0  0  # atno 6909 bound_to 6896
  145.8580  139.3296  143.0836 H   0  0  0  0  0  0  0  0  0  0  0  0  # atno 7974 bound_to 7965
  156.2445  140.2915  156.0540 H   0  0  0  0  0  0  0  0  0  0  0  0  # atno 8008 bound_to 7997
  155.1849  140.0405  157.2906 H   0  0  0  0  0  0  0  0  0  0  0  0  # atno 8009 bound_to 7997
  154.6234  140.2481  155.7528 H   0  0  0  0  0  0  0  0  0  0  0  0  # atno 8010 bound_to 7997
  140.2939  144.3014  150.6234 H   0  0  0  0  0  0  0  0  0  0  0  0  # atno 10167 bound_to 10162
  157.1640  131.0594  151.2217 H   0  0  0  0  0  0  0  0  0  0  0  0  # atno 10718 bound_to 10713
  153.4020  135.7005  153.6419 H   0  0  0  0  0  0  0  0  0  0  0  0  # atno 10763 bound_to 10752
  153.4948  135.3665  155.2511 H   0  0  0  0  0  0  0  0  0  0  0  0  # atno 10764 bound_to 10752
  154.8711  135.4098  154.3357 H   0  0  0  0  0  0  0  0  0  0  0  0  # atno 10765 bound_to 10752
  140.2929  134.2844  155.7771 H   0  0  0  0  0  0  0  0  0  0  0  0  # atno 11005 bound_to 11000
  145.9281  140.9068  143.0370 LP  0  0  0  0  0  0  0  0  0  0  0  0  # atno 17320 bound_to 7965
  144.6727  140.1381  143.7439 LP  0  0  0  0  0  0  0  0  0  0  0  0  # atno 17321 bound_to 7965
  140.5709  143.2181  151.7601 LP  0  0  0  0  0  0  0  0  0  0  0  0  # atno 17342 bound_to 10162
  139.4931  144.4218  151.9969 LP  0  0  0  0  0  0  0  0  0  0  0  0  # atno 17343 bound_to 10162
  157.4105  130.7383  149.6836 LP  0  0  0  0  0  0  0  0  0  0  0  0  # atno 17370 bound_to 10713
  155.9749  130.4096  150.3889 LP  0  0  0  0  0  0  0  0  0  0  0  0  # atno 17371 bound_to 10713
  141.2143  133.7596  156.9652 LP  0  0  0  0  0  0  0  0  0  0  0  0  # atno 17394 bound_to 11000
  140.1179  134.9436  157.2161 LP  0  0  0  0  0  0  0  0  0  0  0  0  # atno 17395 bound_to 11000

$$$$
