AV-unprocessed.smi:438|AV-procd|sdf|2567|dock7
  -GOLD-   2262022543D 1   1.00000     0.00000
 Structure written by MMmdl.
 48 49  0  0  0  0  0  0  0  0  1 V2000
  148.3376  132.9057  153.7037 C   0  0  0  0  0  0  0  0  0  0  0  0
  149.1268  133.2583  154.9519 C   0  0  0  0  0  0  0  0  0  0  0  0
  149.2486  134.6153  155.1902 N   0  0  0  0  0  0  0  0  0  0  0  0
  149.9414  135.0404  156.3135 C   0  0  0  0  0  0  0  0  0  0  0  0
  149.9210  136.8544  156.4066 S   0  0  0  0  0  0  0  0  0  0  0  0
  151.6736  137.2546  156.1471 C   0  0  0  0  0  0  0  0  0  0  0  0
  151.9444  138.7527  156.2473 C   0  0  0  0  0  0  0  0  0  0  0  0
  152.3134  139.3758  155.2524 O   0  0  0  0  0  0  0  0  0  0  0  0
  151.7632  139.3098  157.4574 N   0  0  0  0  0  0  0  0  0  0  0  0
  151.9968  140.7048  157.8415 C   0  0  2  0  0  0  0  0  0  0  0  0
  152.5256  140.8241  159.2880 C   0  0  0  0  0  0  0  0  0  0  0  0
  152.8550  142.2824  159.6385 C   0  0  0  0  0  0  0  0  0  0  0  0
  151.6343  143.1882  159.4204 C   0  0  0  0  0  0  0  0  0  0  0  0
  151.1112  143.0791  157.9791 C   0  0  0  0  0  0  0  0  0  0  0  0
  150.7684  141.6238  157.5994 C   0  0  1  0  0  0  0  0  0  0  0  0
  150.2481  141.5519  156.1522 C   0  0  0  0  0  0  0  0  0  0  0  0
  150.5084  134.2309  157.1586 N   0  0  0  0  0  0  0  0  0  0  0  0
  150.4320  132.8436  156.9629 C   0  0  0  0  0  0  0  0  0  0  0  0
  150.9734  132.0713  157.7528 O   0  0  0  0  0  0  0  0  0  0  0  0
  149.6879  132.3491  155.7850 C   0  0  0  0  0  0  0  0  0  0  0  0
  149.5705  130.8418  155.5769 C   0  0  0  0  0  0  0  0  0  0  0  0
  150.6991  130.2876  154.6956 C   0  0  0  0  0  0  0  0  0  0  0  0
  150.3499  129.0046  154.2237 O   0  0  0  0  0  0  0  0  0  0  0  0
  148.9318  132.2725  153.0443 H   0  0  0  0  0  0  0  0  0  0  0  0
  148.0512  133.7968  153.1435 H   0  0  0  0  0  0  0  0  0  0  0  0
  147.4261  132.3699  153.9693 H   0  0  0  0  0  0  0  0  0  0  0  0
  151.9870  136.8926  155.1670 H   0  0  0  0  0  0  0  0  0  0  0  0
  152.2746  136.7309  156.8916 H   0  0  0  0  0  0  0  0  0  0  0  0
  151.4561  138.6969  158.1988 H   0  0  0  0  0  0  0  0  0  0  0  0
  152.7939  141.0469  157.1799 H   0  0  0  0  0  0  0  0  0  0  0  0
  151.7883  140.4484  159.9977 H   0  0  0  0  0  0  0  0  0  0  0  0
  153.4167  140.2081  159.4130 H   0  0  0  0  0  0  0  0  0  0  0  0
  153.1892  142.3499  160.6741 H   0  0  0  0  0  0  0  0  0  0  0  0
  153.6845  142.6303  159.0215 H   0  0  0  0  0  0  0  0  0  0  0  0
  150.8433  142.9121  160.1187 H   0  0  0  0  0  0  0  0  0  0  0  0
  151.8957  144.2232  159.6428 H   0  0  0  0  0  0  0  0  0  0  0  0
  150.2296  143.7107  157.8653 H   0  0  0  0  0  0  0  0  0  0  0  0
  151.8616  143.4728  157.2921 H   0  0  0  0  0  0  0  0  0  0  0  0
  149.9575  141.3030  158.2543 H   0  0  0  0  0  0  0  0  0  0  0  0
  151.0226  141.8348  155.4387 H   0  0  0  0  0  0  0  0  0  0  0  0
  149.4020  142.2240  156.0078 H   0  0  0  0  0  0  0  0  0  0  0  0
  149.9079  140.5489  155.8953 H   0  0  0  0  0  0  0  0  0  0  0  0
  148.8118  135.2536  154.5408 H   0  0  0  0  0  0  0  0  0  0  0  0
  148.6072  130.6015  155.1274 H   0  0  0  0  0  0  0  0  0  0  0  0
  149.5671  130.3386  156.5451 H   0  0  0  0  0  0  0  0  0  0  0  0
  150.8793  130.9428  153.8427 H   0  0  0  0  0  0  0  0  0  0  0  0
  151.6316  130.2164  155.2560 H   0  0  0  0  0  0  0  0  0  0  0  0
  150.8960  128.7987  153.4807 H   0  0  0  0  0  0  0  0  0  0  0  0
  1 24  1  0  0  0  0
  1 25  1  0  0  0  0
  1 26  1  0  0  0  0
  1  2  1  0  0  0  0
  2 20  2  0  0  0  0
  2  3  1  0  0  0  0
  3  4  1  0  0  0  0
  3 43  1  0  0  0  0
  4  5  1  0  0  0  0
  4 17  2  0  0  0  0
  5  6  1  0  0  0  0
  6  7  1  0  0  0  0
  6 27  1  0  0  0  0
  6 28  1  0  0  0  0
  7  8  2  0  0  0  0
  7  9  1  0  0  0  0
  9 10  1  0  0  0  0
  9 29  1  0  0  0  0
 10 15  1  0  0  0  0
 10 11  1  0  0  0  0
 10 30  1  0  0  0  0
 11 12  1  0  0  0  0
 11 31  1  0  0  0  0
 11 32  1  0  0  0  0
 12 13  1  0  0  0  0
 12 33  1  0  0  0  0
 12 34  1  0  0  0  0
 13 14  1  0  0  0  0
 13 35  1  0  0  0  0
 13 36  1  0  0  0  0
 14 15  1  0  0  0  0
 14 37  1  0  0  0  0
 14 38  1  0  0  0  0
 15 16  1  0  0  0  0
 15 39  1  0  0  0  0
 16 40  1  0  0  0  0
 16 41  1  0  0  0  0
 16 42  1  0  0  0  0
 17 18  1  0  0  0  0
 18 19  2  0  0  0  0
 18 20  1  0  0  0  0
 20 21  1  0  0  0  0
 21 22  1  0  0  0  0
 21 44  1  0  0  0  0
 21 45  1  0  0  0  0
 22 23  1  0  0  0  0
 22 46  1  0  0  0  0
 22 47  1  0  0  0  0
 23 48  1  0  0  0  0
M  END
> <s_m_source_file>
AV-unprocessed.smi

> <i_m_source_file_index>
438

> <i_lp_mmshare_version>
43012

> <i_f3d_flags>
0

> <s_epik_input>
W09IXVtDSDJdW0NIMl1jMWMoW09IXSluYyhuYzFbQ0gzXSlTW0NIMl1DKD1PKVtOSF1bQ0BASF0yW0NIMl1bQ0gyXVtDSDJdW0NIMl1bQ0BIXTJbQ0gzXQ==

> <s_epik_cmdline>
J2VwaWtfcHl0aG9uJywgJy1waCcsICc3LjAnLCAnLXRuJywgJzgnLCAnLW1hJywgJzIwMCcsICctbWV0YWxfYmluZGluZycsICctaW1hZScsICc8aW5maWxlLm1hZT4nLCAnLW9tYWUnLCAnPG91dGZpbGUubWFlPic=

> <r_lp_tautomer_probability>
0.273662

> <r_epik_Ionization_Penalty>
0.0875285

> <r_epik_Ionization_Penalty_Charging>
0.0875254

> <r_epik_Ionization_Penalty_Neutral>
3.01536e-06

> <r_epik_State_Penalty>
0.985796

> <r_epik_Charging_Adjusted_Penalty>
1.07332

> <i_epik_Tot_Q>
0

> <i_epik_Tot_abs_Q>
0

> <r_epik_Metal_State_Penalty>
1.58101

> <b_epik_Metal_Only>
0

> <s_lp_Force_Field>
OPLS_2005

> <r_lp_Energy>
18.1285

> <b_lp_Chiralities_Consistent>
1

> <s_lp_Variant>
AV-unprocessed.smi:438-5

> <Gold.Version>
5.8.1

> <Gold.Id.Protein>
6NUR|6NUR_protein|mol2

> <Gold.PLP.Fitness>
47.0780

> <Gold.PLP.PLP>
-40.1852

> <Gold.PLP.part.hbond>
-4.0000

> <Gold.PLP.part.metal>
0.0000

> <Gold.PLP.part.buried>
-6.3126

> <Gold.PLP.part.nonpolar>
-30.0554

> <Gold.PLP.part.repulsive>
0.1132

> <Gold.PLP.ligand.clash>
0.0000

> <Gold.PLP.ligand.torsion>
0.8806

> <Gold.PLP.Chemscore.Hbond>
2.8613

> <Gold.PLP.Chemscore.CHOScore>
0.0000

> <Gold.PLP.Chemscore.Metal>
0.0000

> <Gold.Chemscore.Hbonds>
donor molecule, donor type, donor heavy atom, donor atom, acceptor molecule, acceptor atom, score
      L1  H    23    48       P1 10737  0.19
      P1  H  6896  6907       L1    19  0.95
      P1  H  7989  7998       L1     8  0.09
      P1  H  7997  8009       L1     8  0.08

> <Gold.PLP.Chemscore.Internal.Correction>
0.0701

> <Gold.Rescore>
     Score         DG    S(hbond)    S(metal)    S(lipo)     H(rot)  DE(clash)    DE(int)     intcor
     15.27     -16.12       1.99        0.00      96.73       2.86       0.19       0.66       ----

> <Gold.Chemscore.Fitness>
15.2701

> <Gold.Chemscore.DG>
-16.1230

> <Gold.Chemscore.ZeroCoef>
-5.4800

> <Gold.Chemscore.Hbond>
1.9938

> <Gold.Chemscore.Metal>
0.0000

> <Gold.Chemscore.Lipo>
96.7259

> <Gold.Chemscore.Internal_Hbond>
0.0000

> <Gold.Chemscore.DEClash>
0.1915

> <Gold.Chemscore.DEInternal>
0.6614

> <Gold.Chemscore.Rot>
2.8645

> <Gold.Chemscore.Internal.Correction>
   9.000000E+99

> <Gold.Chemscore.Hbonds>
donor molecule, donor type, donor heavy atom, donor atom, acceptor molecule, acceptor atom, score
      L1  H    23    48       P1 10737  0.20
      P1  H  6896  6907       L1    19  0.21
      P1  H  7989  7998       L1     8  0.11
      P1  H  7997  8009       L1     8  0.01

> <Gold.Chemscore.Hbond.Weighted>
-6.6592

> <Gold.Chemscore.Metal.Weighted>
-0.0000

> <Gold.Chemscore.Lipo.Weighted>
-11.3169

> <Gold.Chemscore.Internal_Hbond.Weighted>
0.0000

> <Gold.Chemscore.DEClash.Weighted>
0.1915

> <Gold.Chemscore.DEInternal.Weighted>
0.6614

> <Gold.Chemscore.Rot.Weighted>
7.3331

> <Gold.Chemscore.Internal.Correction.Weighted>
   9.000000E+99

> <Gold.Protein.RotatedTorsions>
[ 6907 6896 6895 6894 ] final -161.73 input  -60.11 | X-H torsion
[ 7974 7965 7964 7962 ] final -100.00 input  175.53 | X-H torsion
[ 8008 7997 7996 7995 ] final -159.06 input   59.86 | X-H torsion
[ 10167 10162 10161 10158 ] final  -14.58 input  -65.29 | X-H torsion
[ 10718 10713 10712 10709 ] final   19.23 input   66.30 | X-H torsion
[ 10763 10752 10751 10750 ] final  171.30 input  -60.55 | X-H torsion
[ 11005 11000 10999 10996 ] final  -31.41 input  -57.11 | X-H torsion

> <Gold.Protein.ActiveResidues>
 VAL166  LYS551  ARG553  GLY616  TRP617  ASP618  TYR619  PRO620  LYS621  CYS622 
 ASP623  PHE694  ASN695  SER759  ASP760  ASP761  ALA762  ILE779  LEU786  VAL792 
 PHE793  MET794  SER795  GLU796  ALA797  LYS798  CYS799  TRP800  GLU811  SER814 

> <Gold.Protein.RotatedAtoms>
  151.3692  133.3861  159.2697 H   0  0  0  0  0  0  0  0  0  0  0  0  # atno 6907 bound_to 6896
  150.9664  134.9045  159.7772 H   0  0  0  0  0  0  0  0  0  0  0  0  # atno 6908 bound_to 6896
  152.5168  134.3653  159.9351 H   0  0  0  0  0  0  0  0  0  0  0  0  # atno 6909 bound_to 6896
  145.3003  140.9375  143.2827 H   0  0  0  0  0  0  0  0  0  0  0  0  # atno 7974 bound_to 7965
  155.7570  140.0834  157.2174 H   0  0  0  0  0  0  0  0  0  0  0  0  # atno 8008 bound_to 7997
  154.4007  140.1550  156.2845 H   0  0  0  0  0  0  0  0  0  0  0  0  # atno 8009 bound_to 7997
  155.8876  140.3417  155.5935 H   0  0  0  0  0  0  0  0  0  0  0  0  # atno 8010 bound_to 7997
  140.7204  143.5306  150.9524 H   0  0  0  0  0  0  0  0  0  0  0  0  # atno 10167 bound_to 10162
  157.1075  130.6494  149.5888 H   0  0  0  0  0  0  0  0  0  0  0  0  # atno 10718 bound_to 10713
  154.4099  135.2756  155.2043 H   0  0  0  0  0  0  0  0  0  0  0  0  # atno 10763 bound_to 10752
  154.4033  135.6039  153.5913 H   0  0  0  0  0  0  0  0  0  0  0  0  # atno 10764 bound_to 10752
  152.9831  135.5932  154.4379 H   0  0  0  0  0  0  0  0  0  0  0  0  # atno 10765 bound_to 10752
  140.9466  133.7246  156.1156 H   0  0  0  0  0  0  0  0  0  0  0  0  # atno 11005 bound_to 11000
  144.9099  139.4542  143.6592 LP  0  0  0  0  0  0  0  0  0  0  0  0  # atno 17320 bound_to 7965
  146.3154  139.7901  142.8987 LP  0  0  0  0  0  0  0  0  0  0  0  0  # atno 17321 bound_to 7965
  139.9026  143.6817  152.3129 LP  0  0  0  0  0  0  0  0  0  0  0  0  # atno 17342 bound_to 10162
  139.7172  144.7609  151.1015 LP  0  0  0  0  0  0  0  0  0  0  0  0  # atno 17343 bound_to 10162
  155.9858  130.4890  150.7051 LP  0  0  0  0  0  0  0  0  0  0  0  0  # atno 17370 bound_to 10713
  157.4588  131.0881  151.0768 LP  0  0  0  0  0  0  0  0  0  0  0  0  # atno 17371 bound_to 10713
  140.7661  134.3885  157.5517 LP  0  0  0  0  0  0  0  0  0  0  0  0  # atno 17394 bound_to 11000
  139.8835  134.8992  156.2762 LP  0  0  0  0  0  0  0  0  0  0  0  0  # atno 17395 bound_to 11000

$$$$
