AV-unprocessed.smi:227|AV-procd|sdf|1735|dock4
  -GOLD-   2262020233D 1   1.00000     0.00000
 Structure written by MMmdl.
 54 58  0  0  0  0  0  0  0  0  1 V2000
  151.4972  132.2536  157.6937 O   0  0  0  0  0  0  0  0  0  0  0  0
  150.6074  131.3052  157.1435 C   0  0  0  0  0  0  0  0  0  0  0  0
  151.1512  130.7385  155.8106 C   0  0  2  0  0  0  0  0  0  0  0  0
  150.0381  130.0752  154.9533 C   0  0  0  0  0  0  0  0  0  0  0  0
  149.1353  131.0172  154.3063 N   0  0  0  0  0  0  0  0  0  0  0  0
  149.2930  132.3807  154.2102 C   0  0  0  0  0  0  0  0  0  0  0  0
  148.3396  133.0074  153.5792 N   0  0  0  0  0  0  0  0  0  0  0  0
  147.4433  132.0078  153.2194 C   0  0  0  0  0  0  0  0  0  0  0  0
  146.1998  131.9783  152.5192 C   0  0  0  0  0  0  0  0  0  0  0  0
  145.5724  133.0682  151.9942 N   0  0  0  0  0  0  0  0  0  0  0  0
  146.1386  133.8158  150.8807 C   0  0  2  0  0  0  0  0  0  0  0  0
  145.1937  135.0258  150.7815 C   0  0  0  0  0  0  0  0  0  0  0  0
  143.8510  134.3933  151.1733 C   0  0  0  0  0  0  0  0  0  0  0  0
  144.2589  132.9229  151.3791 C   0  0  1  0  0  0  0  0  0  0  0  0
  144.5763  132.2250  150.0306 C   0  0  1  0  0  0  0  0  0  0  0  0
  143.4796  132.2924  148.9519 C   0  0  0  0  0  0  0  0  0  0  0  0
  143.6448  133.4555  148.1692 O   0  0  0  0  0  0  0  0  0  0  0  0
  145.9084  132.9043  149.6581 C   0  0  0  0  0  0  0  0  0  0  0  0
  145.5905  130.7697  152.3911 N   0  0  0  0  0  0  0  0  0  0  0  0
  146.1543  129.6658  152.8872 C   0  0  0  0  0  0  0  0  0  0  0  0
  147.3075  129.5438  153.5443 N   0  0  0  0  0  0  0  0  0  0  0  0
  147.9251  130.7505  153.6880 C   0  0  0  0  0  0  0  0  0  0  0  0
  152.3545  129.7904  156.0566 C   0  0  1  0  0  0  0  0  0  0  0  0
  152.8688  129.0807  154.8151 C   0  0  0  0  0  0  0  0  0  0  0  0
  154.2542  128.6232  155.2564 C   0  0  0  0  0  0  0  0  0  0  0  0
  154.7150  129.6208  156.1597 O   0  0  0  0  0  0  0  0  0  0  0  0
  153.6413  130.4857  156.5165 C   0  0  0  0  0  0  0  0  0  0  0  0
  152.2755  132.2795  157.1572 H   0  0  0  0  0  0  0  0  0  0  0  0
  150.4940  130.5145  157.8844 H   0  0  0  0  0  0  0  0  0  0  0  0
  149.6242  131.7579  157.0142 H   0  0  0  0  0  0  0  0  0  0  0  0
  151.5268  131.5862  155.2352 H   0  0  0  0  0  0  0  0  0  0  0  0
  150.4838  129.4471  154.1815 H   0  0  0  0  0  0  0  0  0  0  0  0
  149.4415  129.3970  155.5634 H   0  0  0  0  0  0  0  0  0  0  0  0
  150.1427  132.9041  154.6214 H   0  0  0  0  0  0  0  0  0  0  0  0
  147.1731  134.1324  150.9982 H   0  0  0  0  0  0  0  0  0  0  0  0
  145.4741  135.8016  151.4950 H   0  0  0  0  0  0  0  0  0  0  0  0
  145.1798  135.4694  149.7851 H   0  0  0  0  0  0  0  0  0  0  0  0
  143.4938  134.8215  152.1109 H   0  0  0  0  0  0  0  0  0  0  0  0
  143.0687  134.5389  150.4297 H   0  0  0  0  0  0  0  0  0  0  0  0
  143.5311  132.3776  151.9813 H   0  0  0  0  0  0  0  0  0  0  0  0
  144.7701  131.1716  150.2417 H   0  0  0  0  0  0  0  0  0  0  0  0
  143.5380  131.4227  148.2973 H   0  0  0  0  0  0  0  0  0  0  0  0
  142.4819  132.3084  149.3900 H   0  0  0  0  0  0  0  0  0  0  0  0
  143.1771  133.3391  147.3564 H   0  0  0  0  0  0  0  0  0  0  0  0
  145.8640  133.4666  148.7245 H   0  0  0  0  0  0  0  0  0  0  0  0
  146.7029  132.1630  149.5642 H   0  0  0  0  0  0  0  0  0  0  0  0
  145.6023  128.7501  152.7353 H   0  0  0  0  0  0  0  0  0  0  0  0
  152.0896  129.0429  156.8057 H   0  0  0  0  0  0  0  0  0  0  0  0
  152.2433  128.2496  154.4917 H   0  0  0  0  0  0  0  0  0  0  0  0
  152.9555  129.7818  153.9837 H   0  0  0  0  0  0  0  0  0  0  0  0
  154.1890  127.6746  155.7908 H   0  0  0  0  0  0  0  0  0  0  0  0
  154.9390  128.4951  154.4180 H   0  0  0  0  0  0  0  0  0  0  0  0
  153.7780  131.4328  155.9925 H   0  0  0  0  0  0  0  0  0  0  0  0
  153.6480  130.6882  157.5877 H   0  0  0  0  0  0  0  0  0  0  0  0
  1  2  1  0  0  0  0
  1 28  1  0  0  0  0
  2  3  1  0  0  0  0
  2 29  1  0  0  0  0
  2 30  1  0  0  0  0
  3  4  1  0  0  0  0
  3 23  1  0  0  0  0
  3 31  1  0  0  0  0
  4  5  1  0  0  0  0
  4 32  1  0  0  0  0
  4 33  1  0  0  0  0
  5 22  1  0  0  0  0
  5  6  1  0  0  0  0
  6  7  2  0  0  0  0
  6 34  1  0  0  0  0
  7  8  1  0  0  0  0
  8 22  2  0  0  0  0
  8  9  1  0  0  0  0
  9 10  1  0  0  0  0
  9 19  2  0  0  0  0
 10 14  1  0  0  0  0
 10 11  1  0  0  0  0
 11 18  1  0  0  0  0
 11 12  1  0  0  0  0
 11 35  1  0  0  0  0
 12 13  1  0  0  0  0
 12 36  1  0  0  0  0
 12 37  1  0  0  0  0
 13 14  1  0  0  0  0
 13 38  1  0  0  0  0
 13 39  1  0  0  0  0
 14 15  1  0  0  0  0
 14 40  1  0  0  0  0
 15 16  1  0  0  0  0
 15 18  1  0  0  0  0
 15 41  1  0  0  0  0
 16 17  1  0  0  0  0
 16 42  1  0  0  0  0
 16 43  1  0  0  0  0
 17 44  1  0  0  0  0
 18 45  1  0  0  0  0
 18 46  1  0  0  0  0
 19 20  1  0  0  0  0
 20 21  2  0  0  0  0
 20 47  1  0  0  0  0
 21 22  1  0  0  0  0
 23 27  1  0  0  0  0
 23 24  1  0  0  0  0
 23 48  1  0  0  0  0
 24 25  1  0  0  0  0
 24 49  1  0  0  0  0
 24 50  1  0  0  0  0
 25 26  1  0  0  0  0
 25 51  1  0  0  0  0
 25 52  1  0  0  0  0
 26 27  1  0  0  0  0
 27 53  1  0  0  0  0
 27 54  1  0  0  0  0
M  END
> <s_m_source_file>
AV-unprocessed.smi

> <i_m_source_file_index>
227

> <i_lp_mmshare_version>
43012

> <i_f3d_flags>
0

> <s_epik_input>
W0NIMl0xT1tDSDJdW0NIMl1bQ0BIXTFbQ0BIXShbQ0gyXVtPSF0pW0NIMl1uKFtjSF1uMiljKGMyMyluW2NIXW5jM04oW0NASF00NSlbQ0BASF0oW0NIMl1bQ0gyXTQpW0NASF0oW0NIMl01KVtDSDJdW09IXQ==

> <s_epik_cmdline>
J2VwaWtfcHl0aG9uJywgJy1waCcsICc3LjAnLCAnLXRuJywgJzgnLCAnLW1hJywgJzIwMCcsICctbWV0YWxfYmluZGluZycsICctaW1hZScsICc8aW5maWxlLm1hZT4nLCAnLW9tYWUnLCAnPG91dGZpbGUubWFlPic=

> <r_lp_tautomer_probability>
1

> <r_epik_Ionization_Penalty>
0.0055791

> <r_epik_Ionization_Penalty_Charging>
0

> <r_epik_Ionization_Penalty_Neutral>
0.0055791

> <r_epik_State_Penalty>
0.00401299

> <r_epik_Charging_Adjusted_Penalty>
0.00401299

> <i_epik_Tot_Q>
0

> <i_epik_Tot_abs_Q>
0

> <r_epik_Metal_State_Penalty>
-0

> <b_epik_Metal_Only>
0

> <s_lp_Force_Field>
OPLS_2005

> <r_lp_Energy>
86.8427

> <b_lp_Chiralities_Consistent>
1

> <s_lp_Variant>
AV-unprocessed.smi:227-9

> <Gold.Version>
5.8.1

> <Gold.Id.Protein>
6NUR|6NUR_protein|mol2

> <Gold.PLP.Fitness>
48.2868

> <Gold.PLP.PLP>
-45.8554

> <Gold.PLP.part.hbond>
-3.3066

> <Gold.PLP.part.metal>
0.0000

> <Gold.PLP.part.buried>
-3.5323

> <Gold.PLP.part.nonpolar>
-40.0224

> <Gold.PLP.part.repulsive>
0.5533

> <Gold.PLP.ligand.clash>
0.0000

> <Gold.PLP.ligand.torsion>
0.9673

> <Gold.PLP.Chemscore.Hbond>
1.3575

> <Gold.PLP.Chemscore.CHOScore>
0.0000

> <Gold.PLP.Chemscore.Metal>
0.0000

> <Gold.Chemscore.Hbonds>
donor molecule, donor type, donor heavy atom, donor atom, acceptor molecule, acceptor atom, score
      L1  H    17    44       P1 10195  0.36
      P1  H  6896  6908       L1     1  1.00

> <Gold.PLP.Chemscore.Internal.Correction>
0.2935

> <Gold.Rescore>
     Score         DG    S(hbond)    S(metal)    S(lipo)     H(rot)  DE(clash)    DE(int)     intcor
      8.93     -13.92       1.55        0.00     106.67       3.61       2.55       2.43       ----

> <Gold.Chemscore.Fitness>
8.9340

> <Gold.Chemscore.DG>
-13.9155

> <Gold.Chemscore.ZeroCoef>
-5.4800

> <Gold.Chemscore.Hbond>
1.5536

> <Gold.Chemscore.Metal>
0.0000

> <Gold.Chemscore.Lipo>
106.6724

> <Gold.Chemscore.Internal_Hbond>
0.0000

> <Gold.Chemscore.DEClash>
2.5501

> <Gold.Chemscore.DEInternal>
2.4314

> <Gold.Chemscore.Rot>
3.6071

> <Gold.Chemscore.Internal.Correction>
   9.000000E+99

> <Gold.Chemscore.Hbonds>
donor molecule, donor type, donor heavy atom, donor atom, acceptor molecule, acceptor atom, score
      L1  H    17    44       P1 10195  0.37
      P1  H  6896  6908       L1     1  0.85

> <Gold.Chemscore.Hbond.Weighted>
-5.1890

> <Gold.Chemscore.Metal.Weighted>
-0.0000

> <Gold.Chemscore.Lipo.Weighted>
-12.4807

> <Gold.Chemscore.Internal_Hbond.Weighted>
0.0000

> <Gold.Chemscore.DEClash.Weighted>
2.5501

> <Gold.Chemscore.DEInternal.Weighted>
2.4314

> <Gold.Chemscore.Rot.Weighted>
9.2342

> <Gold.Chemscore.Internal.Correction.Weighted>
   9.000000E+99

> <Gold.Protein.RotatedTorsions>
[ 6907 6896 6895 6894 ] final   59.77 input  -60.11 | X-H torsion
[ 7974 7965 7964 7962 ] final  -43.92 input  175.53 | X-H torsion
[ 8008 7997 7996 7995 ] final -123.48 input   59.86 | X-H torsion
[ 10167 10162 10161 10158 ] final  -90.98 input  -65.29 | X-H torsion
[ 10718 10713 10712 10709 ] final  175.17 input   66.30 | X-H torsion
[ 10763 10752 10751 10750 ] final   55.27 input  -60.55 | X-H torsion
[ 11005 11000 10999 10996 ] final  134.52 input  -57.11 | X-H torsion

> <Gold.Protein.ActiveResidues>
 VAL166  LYS551  ARG553  GLY616  TRP617  ASP618  TYR619  PRO620  LYS621  CYS622 
 ASP623  PHE694  ASN695  SER759  ASP760  ASP761  ALA762  ILE779  LEU786  VAL792 
 PHE793  MET794  SER795  GLU796  ALA797  LYS798  CYS799  TRP800  GLU811  SER814 

> <Gold.Protein.RotatedAtoms>
  152.3944  134.6389  160.0094 H   0  0  0  0  0  0  0  0  0  0  0  0  # atno 6907 bound_to 6896
  151.6613  133.3311  159.3182 H   0  0  0  0  0  0  0  0  0  0  0  0  # atno 6908 bound_to 6896
  150.7854  134.6878  159.6525 H   0  0  0  0  0  0  0  0  0  0  0  0  # atno 6909 bound_to 6896
  145.9971  140.7116  142.9288 H   0  0  0  0  0  0  0  0  0  0  0  0  # atno 7974 bound_to 7965
  155.1813  140.0410  157.2882 H   0  0  0  0  0  0  0  0  0  0  0  0  # atno 8008 bound_to 7997
  154.6202  140.2498  155.7532 H   0  0  0  0  0  0  0  0  0  0  0  0  # atno 8009 bound_to 7997
  156.2429  140.2896  156.0506 H   0  0  0  0  0  0  0  0  0  0  0  0  # atno 8010 bound_to 7997
  140.3495  143.2899  151.9743 H   0  0  0  0  0  0  0  0  0  0  0  0  # atno 10167 bound_to 10162
  156.9388  130.9995  151.2972 H   0  0  0  0  0  0  0  0  0  0  0  0  # atno 10718 bound_to 10713
  152.9814  135.5716  154.5039 H   0  0  0  0  0  0  0  0  0  0  0  0  # atno 10763 bound_to 10752
  154.4554  135.2780  155.1753 H   0  0  0  0  0  0  0  0  0  0  0  0  # atno 10764 bound_to 10752
  154.3364  135.6238  153.5629 H   0  0  0  0  0  0  0  0  0  0  0  0  # atno 10765 bound_to 10752
  139.9920  134.9511  156.9878 H   0  0  0  0  0  0  0  0  0  0  0  0  # atno 11005 bound_to 11000
  144.6907  140.3169  143.7239 LP  0  0  0  0  0  0  0  0  0  0  0  0  # atno 17320 bound_to 7965
  145.7543  139.1804  143.2303 LP  0  0  0  0  0  0  0  0  0  0  0  0  # atno 17321 bound_to 7965
  139.4828  144.6088  151.7471 LP  0  0  0  0  0  0  0  0  0  0  0  0  # atno 17342 bound_to 10162
  140.5233  144.0845  150.6029 LP  0  0  0  0  0  0  0  0  0  0  0  0  # atno 17343 bound_to 10162
  157.5798  130.8368  149.8507 LP  0  0  0  0  0  0  0  0  0  0  0  0  # atno 17370 bound_to 10713
  156.0413  130.3738  150.1427 LP  0  0  0  0  0  0  0  0  0  0  0  0  # atno 17371 bound_to 10713
  140.4890  134.1212  155.7229 LP  0  0  0  0  0  0  0  0  0  0  0  0  # atno 17394 bound_to 11000
  141.1574  133.8858  157.1942 LP  0  0  0  0  0  0  0  0  0  0  0  0  # atno 17395 bound_to 11000

$$$$
