AV-unprocessed.smi:2592|AV-procd|sdf|10160|dock2
  -GOLD-   2272014173D 1   1.00000     0.00000
 Structure written by MMmdl.
 42 43  0  0  0  0  0  0  0  0  1 V2000
  152.2734  144.2657  161.2692 C   0  0  0  0  0  0  0  0  0  0  0  0
  152.1811  143.3085  160.1206 C   0  0  0  0  0  0  0  0  0  0  0  0
  151.2950  143.5721  159.0718 N   0  0  0  0  0  0  0  0  0  0  0  0
  151.3306  142.6254  158.1288 C   0  0  0  0  0  0  0  0  0  0  0  0
  150.5349  142.6342  156.9532 N   0  0  0  0  0  0  0  0  0  0  0  0
  150.2468  141.6056  156.1367 C   0  0  0  0  0  0  0  0  0  0  0  0
  150.6396  140.4478  156.2840 O   0  0  0  0  0  0  0  0  0  0  0  0
  149.4620  141.9965  155.1222 N   0  0  0  0  0  0  0  0  0  0  0  0
  148.9637  141.1244  154.0646 C   0  0  0  0  0  0  0  0  0  0  0  0
  147.5489  141.5269  153.6187 C   0  0  0  0  0  0  0  0  0  0  0  0
  146.5597  141.5677  154.7959 C   0  0  0  0  0  0  0  0  0  0  0  0
  145.3927  142.4258  154.5949 N   0  0  0  0  0  0  0  0  0  0  0  0
  144.7512  142.8075  155.8514 C   0  0  0  0  0  0  0  0  0  0  0  0
  143.5455  143.7362  155.6227 C   0  0  0  0  0  0  0  0  0  0  0  0
  143.9575  144.8865  154.8918 O   0  0  0  0  0  0  0  0  0  0  0  0
  144.5437  144.5569  153.6370 C   0  0  0  0  0  0  0  0  0  0  0  0
  145.7546  143.6348  153.8620 C   0  0  0  0  0  0  0  0  0  0  0  0
  152.4680  141.3332  158.4710 S   0  0  0  0  0  0  0  0  0  0  0  0
  152.8953  142.1439  159.9575 C   0  0  0  0  0  0  0  0  0  0  0  0
  153.9187  141.5661  160.8774 C   0  0  0  0  0  0  0  0  0  0  0  0
  152.1605  143.7479  162.2219 H   0  0  0  0  0  0  0  0  0  0  0  0
  151.4994  145.0327  161.2197 H   0  0  0  0  0  0  0  0  0  0  0  0
  153.2386  144.7720  161.2800 H   0  0  0  0  0  0  0  0  0  0  0  0
  150.1371  143.5282  156.7067 H   0  0  0  0  0  0  0  0  0  0  0  0
  149.1874  142.9669  155.0785 H   0  0  0  0  0  0  0  0  0  0  0  0
  149.6510  141.1915  153.2210 H   0  0  0  0  0  0  0  0  0  0  0  0
  148.9802  140.0847  154.3961 H   0  0  0  0  0  0  0  0  0  0  0  0
  147.5800  142.5078  153.1423 H   0  0  0  0  0  0  0  0  0  0  0  0
  147.2057  140.8230  152.8608 H   0  0  0  0  0  0  0  0  0  0  0  0
  146.2355  140.5541  155.0362 H   0  0  0  0  0  0  0  0  0  0  0  0
  147.1053  141.9223  155.6715 H   0  0  0  0  0  0  0  0  0  0  0  0
  144.4095  141.9226  156.3872 H   0  0  0  0  0  0  0  0  0  0  0  0
  145.4734  143.3072  156.4992 H   0  0  0  0  0  0  0  0  0  0  0  0
  142.7547  143.2157  155.0800 H   0  0  0  0  0  0  0  0  0  0  0  0
  143.1247  144.0525  156.5772 H   0  0  0  0  0  0  0  0  0  0  0  0
  143.8036  144.0749  152.9962 H   0  0  0  0  0  0  0  0  0  0  0  0
  144.8532  145.4741  153.1361 H   0  0  0  0  0  0  0  0  0  0  0  0
  146.5258  144.1811  154.4078 H   0  0  0  0  0  0  0  0  0  0  0  0
  146.1862  143.3677  152.8968 H   0  0  0  0  0  0  0  0  0  0  0  0
  154.6517  142.3202  161.1652 H   0  0  0  0  0  0  0  0  0  0  0  0
  154.4544  140.7425  160.4051 H   0  0  0  0  0  0  0  0  0  0  0  0
  153.4496  141.1863  161.7852 H   0  0  0  0  0  0  0  0  0  0  0  0
  1  2  1  0  0  0  0
  1 21  1  0  0  0  0
  1 22  1  0  0  0  0
  1 23  1  0  0  0  0
  2 19  2  0  0  0  0
  2  3  1  0  0  0  0
  3  4  2  0  0  0  0
  4  5  1  0  0  0  0
  4 18  1  0  0  0  0
  5  6  1  0  0  0  0
  5 24  1  0  0  0  0
  6  7  2  0  0  0  0
  6  8  1  0  0  0  0
  8  9  1  0  0  0  0
  8 25  1  0  0  0  0
  9 10  1  0  0  0  0
  9 26  1  0  0  0  0
  9 27  1  0  0  0  0
 10 11  1  0  0  0  0
 10 28  1  0  0  0  0
 10 29  1  0  0  0  0
 11 12  1  0  0  0  0
 11 30  1  0  0  0  0
 11 31  1  0  0  0  0
 12 17  1  0  0  0  0
 12 13  1  0  0  0  0
 13 14  1  0  0  0  0
 13 32  1  0  0  0  0
 13 33  1  0  0  0  0
 14 15  1  0  0  0  0
 14 34  1  0  0  0  0
 14 35  1  0  0  0  0
 15 16  1  0  0  0  0
 16 17  1  0  0  0  0
 16 36  1  0  0  0  0
 16 37  1  0  0  0  0
 17 38  1  0  0  0  0
 17 39  1  0  0  0  0
 18 19  1  0  0  0  0
 19 20  1  0  0  0  0
 20 40  1  0  0  0  0
 20 41  1  0  0  0  0
 20 42  1  0  0  0  0
M  END
> <s_m_source_file>
AV-unprocessed.smi

> <i_m_source_file_index>
2592

> <i_lp_mmshare_version>
43012

> <i_f3d_flags>
0

> <s_epik_input>
W0NIM11jMW5jKHNjMVtDSDNdKVtOSF1DKD1PKVtOSF1bQ0gyXVtDSDJdW0NIMl1OMltDSDJdW0NIMl1PW0NIMl1bQ0gyXTI=

> <s_epik_cmdline>
J2VwaWtfcHl0aG9uJywgJy1waCcsICc3LjAnLCAnLXRuJywgJzgnLCAnLW1hJywgJzIwMCcsICctbWV0YWxfYmluZGluZycsICctaW1hZScsICc8aW5maWxlLm1hZT4nLCAnLW9tYWUnLCAnPG91dGZpbGUubWFlPic=

> <r_lp_tautomer_probability>
0.999

> <r_epik_Ionization_Penalty>
0.575986

> <r_epik_Ionization_Penalty_Charging>
0

> <r_epik_Ionization_Penalty_Neutral>
0.575986

> <r_epik_State_Penalty>
0.588115

> <r_epik_Charging_Adjusted_Penalty>
0.588115

> <i_epik_Tot_Q>
0

> <i_epik_Tot_abs_Q>
0

> <r_epik_Metal_State_Penalty>
0.606929

> <b_epik_Metal_Only>
0

> <s_lp_Force_Field>
OPLS_2005

> <r_lp_Energy>
19.7719

> <b_lp_Chiralities_Consistent>
1

> <s_lp_Variant>
AV-unprocessed.smi:2592-2

> <Gold.Version>
5.8.1

> <Gold.Id.Protein>
6NUR|6NUR_protein|mol2

> <Gold.PLP.Fitness>
47.0441

> <Gold.PLP.PLP>
-42.1907

> <Gold.PLP.part.hbond>
-2.0000

> <Gold.PLP.part.metal>
0.0000

> <Gold.PLP.part.buried>
-6.1065

> <Gold.PLP.part.nonpolar>
-34.0888

> <Gold.PLP.part.repulsive>
0.5843

> <Gold.PLP.ligand.clash>
0.0000

> <Gold.PLP.ligand.torsion>
0.5950

> <Gold.PLP.Chemscore.Hbond>
2.0000

> <Gold.PLP.Chemscore.CHOScore>
0.0000

> <Gold.PLP.Chemscore.Metal>
0.0000

> <Gold.Chemscore.Hbonds>
donor molecule, donor type, donor heavy atom, donor atom, acceptor molecule, acceptor atom, score
      L1  H     5    24       P1  8028  1.00
      L1  H     8    25       P1  8028  1.00

> <Gold.PLP.Chemscore.Internal.Correction>
0.0434

> <Gold.Rescore>
     Score         DG    S(hbond)    S(metal)    S(lipo)     H(rot)  DE(clash)    DE(int)     intcor
     17.40     -19.18       1.95        0.00      98.24       1.69       0.07       1.71       ----

> <Gold.Chemscore.Fitness>
17.4001

> <Gold.Chemscore.DG>
-19.1781

> <Gold.Chemscore.ZeroCoef>
-5.4800

> <Gold.Chemscore.Hbond>
1.9545

> <Gold.Chemscore.Metal>
0.0000

> <Gold.Chemscore.Lipo>
98.2428

> <Gold.Chemscore.Internal_Hbond>
0.0000

> <Gold.Chemscore.DEClash>
0.0650

> <Gold.Chemscore.DEInternal>
1.7130

> <Gold.Chemscore.Rot>
1.6892

> <Gold.Chemscore.Internal.Correction>
   9.000000E+99

> <Gold.Chemscore.Hbonds>
donor molecule, donor type, donor heavy atom, donor atom, acceptor molecule, acceptor atom, score
      L1  H     5    24       P1  8028  0.93
      L1  H     8    25       P1  8028  1.00

> <Gold.Chemscore.Hbond.Weighted>
-6.5281

> <Gold.Chemscore.Metal.Weighted>
-0.0000

> <Gold.Chemscore.Lipo.Weighted>
-11.4944

> <Gold.Chemscore.Internal_Hbond.Weighted>
0.0000

> <Gold.Chemscore.DEClash.Weighted>
0.0650

> <Gold.Chemscore.DEInternal.Weighted>
1.7130

> <Gold.Chemscore.Rot.Weighted>
4.3243

> <Gold.Chemscore.Internal.Correction.Weighted>
   9.000000E+99

> <Gold.Protein.RotatedTorsions>
[ 6907 6896 6895 6894 ] final -120.59 input  -60.11 | X-H torsion
[ 7974 7965 7964 7962 ] final    6.92 input  175.53 | X-H torsion
[ 8008 7997 7996 7995 ] final  160.21 input   59.86 | X-H torsion
[ 10167 10162 10161 10158 ] final  -80.86 input  -65.29 | X-H torsion
[ 10718 10713 10712 10709 ] final  139.04 input   66.30 | X-H torsion
[ 10763 10752 10751 10750 ] final -164.96 input  -60.55 | X-H torsion
[ 11005 11000 10999 10996 ] final -163.81 input  -57.11 | X-H torsion

> <Gold.Protein.ActiveResidues>
 VAL166  LYS551  ARG553  GLY616  TRP617  ASP618  TYR619  PRO620  LYS621  CYS622 
 ASP623  PHE694  ASN695  SER759  ASP760  ASP761  ALA762  ILE779  LEU786  VAL792 
 PHE793  MET794  SER795  GLU796  ALA797  LYS798  CYS799  TRP800  GLU811  SER814 

> <Gold.Protein.RotatedAtoms>
  150.8406  133.7942  159.3062 H   0  0  0  0  0  0  0  0  0  0  0  0  # atno 6907 bound_to 6896
  151.5644  135.1063  159.9990 H   0  0  0  0  0  0  0  0  0  0  0  0  # atno 6908 bound_to 6896
  152.4471  133.7514  159.6752 H   0  0  0  0  0  0  0  0  0  0  0  0  # atno 6909 bound_to 6896
  146.2431  140.0161  142.8402 H   0  0  0  0  0  0  0  0  0  0  0  0  # atno 7974 bound_to 7965
  156.2187  140.1810  156.7528 H   0  0  0  0  0  0  0  0  0  0  0  0  # atno 8008 bound_to 7997
  154.5832  140.0663  156.9162 H   0  0  0  0  0  0  0  0  0  0  0  0  # atno 8009 bound_to 7997
  155.2466  140.3326  155.4289 H   0  0  0  0  0  0  0  0  0  0  0  0  # atno 8010 bound_to 7997
  140.4464  143.2497  151.8552 H   0  0  0  0  0  0  0  0  0  0  0  0  # atno 10167 bound_to 10162
  157.4188  131.1036  151.0376 H   0  0  0  0  0  0  0  0  0  0  0  0  # atno 10718 bound_to 10713
  154.6978  135.2982  154.9386 H   0  0  0  0  0  0  0  0  0  0  0  0  # atno 10763 bound_to 10752
  154.0328  135.6668  153.4786 H   0  0  0  0  0  0  0  0  0  0  0  0  # atno 10764 bound_to 10752
  153.0658  135.5089  154.8105 H   0  0  0  0  0  0  0  0  0  0  0  0  # atno 10765 bound_to 10752
  140.5940  134.5016  157.5196 H   0  0  0  0  0  0  0  0  0  0  0  0  # atno 11005 bound_to 11000
  145.1283  140.9503  143.4559 LP  0  0  0  0  0  0  0  0  0  0  0  0  # atno 17320 bound_to 7965
  145.0412  139.3258  143.5975 LP  0  0  0  0  0  0  0  0  0  0  0  0  # atno 17321 bound_to 7965
  139.4793  144.5170  151.8854 LP  0  0  0  0  0  0  0  0  0  0  0  0  # atno 17342 bound_to 10162
  140.4258  144.2182  150.5887 LP  0  0  0  0  0  0  0  0  0  0  0  0  # atno 17343 bound_to 10162
  157.1314  130.6104  149.5530 LP  0  0  0  0  0  0  0  0  0  0  0  0  # atno 17370 bound_to 10713
  155.9874  130.4913  150.7122 LP  0  0  0  0  0  0  0  0  0  0  0  0  # atno 17371 bound_to 10713
  139.9261  134.8052  156.1064 LP  0  0  0  0  0  0  0  0  0  0  0  0  # atno 17394 bound_to 11000
  141.0916  133.6712  156.2553 LP  0  0  0  0  0  0  0  0  0  0  0  0  # atno 17395 bound_to 11000

$$$$
