AV-unprocessed.smi:564|AV-procd|sdf|2950|dock9
  -GOLD-   2262023453D 1   1.00000     0.00000
 Structure written by MMmdl.
 50 51  0  0  0  0  0  0  0  0  2 V2000
  143.9905  132.8986  148.6449 C   0  0  0  0  0  0  0  0  0  0  0  0
  144.8525  132.6237  149.8443 C   0  0  0  0  0  0  0  0  0  0  0  0
  144.9922  131.3793  150.2688 N   0  0  0  0  0  0  0  0  0  0  0  0
  145.8086  131.4688  151.3376 N   0  0  0  0  0  0  0  0  0  0  0  0
  146.1715  130.2642  152.0585 C   0  0  0  0  0  0  0  0  0  0  0  0
  146.1940  132.7718  151.5831 C   0  0  0  0  0  0  0  0  0  0  0  0
  147.1048  133.1358  152.7110 C   0  0  0  0  0  0  0  0  0  0  0  0
  145.5974  133.5526  150.6292 C   0  0  0  0  0  0  0  0  0  0  0  0
  145.7066  135.0441  150.4321 C   0  0  0  0  0  0  0  0  0  0  0  0
  145.2731  135.7423  151.7195 C   0  0  0  0  0  0  0  0  0  0  0  0
  144.1489  135.5488  152.1805 O   0  0  0  0  0  0  0  0  0  0  0  0
  146.1956  136.5130  152.3157 N   0  0  0  0  0  0  0  0  0  0  0  0
  146.0575  137.1217  153.6346 C   0  0  0  0  0  0  0  0  0  0  0  0
  147.0590  136.5441  154.6610 C   0  0  0  0  0  0  0  0  0  0  0  0
  148.4592  137.0220  154.4590 N   0  3  1  0  0  0  0  0  0  0  0  0
  148.5507  138.4988  154.6407 C   0  0  0  0  0  0  0  0  0  0  0  0
  149.9503  139.0385  154.3196 C   0  0  0  0  0  0  0  0  0  0  0  0
  150.9995  138.3464  155.1880 C   0  0  0  0  0  0  0  0  0  0  0  0
  150.9054  136.8337  154.9807 C   0  0  0  0  0  0  0  0  0  0  0  0
  149.4882  136.2871  155.2648 C   0  0  2  0  0  0  0  0  0  0  0  0
  149.4937  134.7684  154.9914 C   0  0  0  0  0  0  0  0  0  0  0  0
  144.5976  133.1840  147.7860 H   0  0  0  0  0  0  0  0  0  0  0  0
  143.2918  133.7113  148.8438 H   0  0  0  0  0  0  0  0  0  0  0  0
  143.4048  132.0240  148.3591 H   0  0  0  0  0  0  0  0  0  0  0  0
  145.8750  130.3586  153.1033 H   0  0  0  0  0  0  0  0  0  0  0  0
  147.2501  130.1162  152.0054 H   0  0  0  0  0  0  0  0  0  0  0  0
  145.6754  129.3929  151.6284 H   0  0  0  0  0  0  0  0  0  0  0  0
  147.4738  134.1562  152.6067 H   0  0  0  0  0  0  0  0  0  0  0  0
  147.9705  132.4740  152.7457 H   0  0  0  0  0  0  0  0  0  0  0  0
  146.5842  133.0629  153.6659 H   0  0  0  0  0  0  0  0  0  0  0  0
  146.7249  135.3454  150.1841 H   0  0  0  0  0  0  0  0  0  0  0  0
  145.0800  135.3858  149.6073 H   0  0  0  0  0  0  0  0  0  0  0  0
  147.0840  136.6301  151.8495 H   0  0  0  0  0  0  0  0  0  0  0  0
  146.2090  138.1952  153.5229 H   0  0  0  0  0  0  0  0  0  0  0  0
  145.0350  137.0007  153.9952 H   0  0  0  0  0  0  0  0  0  0  0  0
  146.7315  136.7602  155.6788 H   0  0  0  0  0  0  0  0  0  0  0  0
  147.0021  135.4640  154.5586 H   0  0  0  0  0  0  0  0  0  0  0  0
  147.8344  139.0040  153.9938 H   0  0  0  0  0  0  0  0  0  0  0  0
  148.2820  138.7547  155.6669 H   0  0  0  0  0  0  0  0  0  0  0  0
  150.1779  138.8795  153.2655 H   0  0  0  0  0  0  0  0  0  0  0  0
  149.9823  140.1158  154.4846 H   0  0  0  0  0  0  0  0  0  0  0  0
  151.9977  138.7016  154.9296 H   0  0  0  0  0  0  0  0  0  0  0  0
  150.8383  138.5914  156.2385 H   0  0  0  0  0  0  0  0  0  0  0  0
  151.1911  136.5955  153.9563 H   0  0  0  0  0  0  0  0  0  0  0  0
  151.6343  136.3379  155.6227 H   0  0  0  0  0  0  0  0  0  0  0  0
  149.2658  136.4461  156.3213 H   0  0  0  0  0  0  0  0  0  0  0  0
  150.3703  134.2955  155.4349 H   0  0  0  0  0  0  0  0  0  0  0  0
  149.5144  134.5578  153.9220 H   0  0  0  0  0  0  0  0  0  0  0  0
  148.6314  134.2615  155.4226 H   0  0  0  0  0  0  0  0  0  0  0  0
  148.6843  136.8337  153.4922 H   0  0  0  0  0  0  0  0  0  0  0  0
  1  2  1  0  0  0  0
  1 22  1  0  0  0  0
  1 23  1  0  0  0  0
  1 24  1  0  0  0  0
  2  8  1  0  0  0  0
  2  3  2  0  0  0  0
  3  4  1  0  0  0  0
  4  5  1  0  0  0  0
  4  6  1  0  0  0  0
  5 25  1  0  0  0  0
  5 26  1  0  0  0  0
  5 27  1  0  0  0  0
  6  7  1  0  0  0  0
  6  8  2  0  0  0  0
  7 28  1  0  0  0  0
  7 29  1  0  0  0  0
  7 30  1  0  0  0  0
  8  9  1  0  0  0  0
  9 10  1  0  0  0  0
  9 31  1  0  0  0  0
  9 32  1  0  0  0  0
 10 11  2  0  0  0  0
 10 12  1  0  0  0  0
 12 13  1  0  0  0  0
 12 33  1  0  0  0  0
 13 14  1  0  0  0  0
 13 34  1  0  0  0  0
 13 35  1  0  0  0  0
 14 15  1  0  0  0  0
 14 36  1  0  0  0  0
 14 37  1  0  0  0  0
 15 20  1  0  0  0  0
 15 16  1  0  0  0  0
 15 50  1  0  0  0  0
 16 17  1  0  0  0  0
 16 38  1  0  0  0  0
 16 39  1  0  0  0  0
 17 18  1  0  0  0  0
 17 40  1  0  0  0  0
 17 41  1  0  0  0  0
 18 19  1  0  0  0  0
 18 42  1  0  0  0  0
 18 43  1  0  0  0  0
 19 20  1  0  0  0  0
 19 44  1  0  0  0  0
 19 45  1  0  0  0  0
 20 21  1  0  0  0  0
 20 46  1  0  0  0  0
 21 47  1  0  0  0  0
 21 48  1  0  0  0  0
 21 49  1  0  0  0  0
M  CHG  1  15   1
M  END
> <s_m_source_file>
AV-unprocessed.smi

> <i_m_source_file_index>
564

> <i_lp_mmshare_version>
43012

> <i_f3d_flags>
0

> <s_epik_input>
W0NIM11jMW5uKFtDSDNdKWMoW0NIM10pYzFbQ0gyXUMoPU8pW05IXVtDSDJdW0NIMl1OMltDSDJdW0NIMl1bQ0gyXVtDSDJdW0NASF0yW0NIM10=

> <s_epik_cmdline>
J2VwaWtfcHl0aG9uJywgJy1waCcsICc3LjAnLCAnLXRuJywgJzgnLCAnLW1hJywgJzIwMCcsICctbWV0YWxfYmluZGluZycsICctaW1hZScsICc8aW5maWxlLm1hZT4nLCAnLW9tYWUnLCAnPG91dGZpbGUubWFlPic=

> <r_lp_tautomer_probability>
1

> <r_epik_Ionization_Penalty>
0.00456826

> <r_epik_Ionization_Penalty_Charging>
0.00240401

> <r_epik_Ionization_Penalty_Neutral>
0.00216425

> <r_epik_State_Penalty>
-0

> <r_epik_Charging_Adjusted_Penalty>
0.00240401

> <i_epik_Tot_Q>
1

> <i_epik_Tot_abs_Q>
1

> <r_epik_Metal_State_Penalty>
-0

> <b_epik_Metal_Only>
0

> <s_lp_Force_Field>
OPLS_2005

> <r_lp_Energy>
16.3925

> <b_lp_Chiralities_Consistent>
1

> <s_lp_Variant>
AV-unprocessed.smi:564-4

> <Gold.Version>
5.8.1

> <Gold.Id.Protein>
6NUR|6NUR_protein|mol2

> <Gold.PLP.Fitness>
44.8123

> <Gold.PLP.PLP>
-36.2678

> <Gold.PLP.part.hbond>
-2.4234

> <Gold.PLP.part.metal>
0.0000

> <Gold.PLP.part.buried>
-2.5646

> <Gold.PLP.part.nonpolar>
-31.8466

> <Gold.PLP.part.repulsive>
0.2371

> <Gold.PLP.ligand.clash>
0.0000

> <Gold.PLP.ligand.torsion>
0.1148

> <Gold.PLP.Chemscore.Hbond>
2.9120

> <Gold.PLP.Chemscore.CHOScore>
0.0000

> <Gold.PLP.Chemscore.Metal>
0.0000

> <Gold.Chemscore.Hbonds>
donor molecule, donor type, donor heavy atom, donor atom, acceptor molecule, acceptor atom, score
      L1  H    12    33       P1  7948  0.96
      L1  H    15    50       P1  7948  2.00

> <Gold.PLP.Chemscore.Internal.Correction>
0.0381

> <Gold.Rescore>
     Score         DG    S(hbond)    S(metal)    S(lipo)     H(rot)  DE(clash)    DE(int)     intcor
     18.13     -18.28       1.95        0.00      88.98       1.61       0.01       0.14       ----

> <Gold.Chemscore.Fitness>
18.1320

> <Gold.Chemscore.DG>
-18.2831

> <Gold.Chemscore.ZeroCoef>
-5.4800

> <Gold.Chemscore.Hbond>
1.9537

> <Gold.Chemscore.Metal>
0.0000

> <Gold.Chemscore.Lipo>
88.9770

> <Gold.Chemscore.Internal_Hbond>
0.0000

> <Gold.Chemscore.DEClash>
0.0126

> <Gold.Chemscore.DEInternal>
0.1384

> <Gold.Chemscore.Rot>
1.6142

> <Gold.Chemscore.Internal.Correction>
   9.000000E+99

> <Gold.Chemscore.Hbonds>
donor molecule, donor type, donor heavy atom, donor atom, acceptor molecule, acceptor atom, score
      L1  H    12    33       P1  7948  0.92
      L1  H    15    50       P1  7948  1.00

> <Gold.Chemscore.Hbond.Weighted>
-6.5252

> <Gold.Chemscore.Metal.Weighted>
-0.0000

> <Gold.Chemscore.Lipo.Weighted>
-10.4103

> <Gold.Chemscore.Internal_Hbond.Weighted>
0.0000

> <Gold.Chemscore.DEClash.Weighted>
0.0126

> <Gold.Chemscore.DEInternal.Weighted>
0.1384

> <Gold.Chemscore.Rot.Weighted>
4.1324

> <Gold.Chemscore.Internal.Correction.Weighted>
   9.000000E+99

> <Gold.Protein.RotatedTorsions>
[ 6907 6896 6895 6894 ] final -172.81 input  -60.11 | X-H torsion
[ 7974 7965 7964 7962 ] final  -87.10 input  175.53 | X-H torsion
[ 8008 7997 7996 7995 ] final   35.06 input   59.86 | X-H torsion
[ 10167 10162 10161 10158 ] final -106.51 input  -65.29 | X-H torsion
[ 10718 10713 10712 10709 ] final  -60.65 input   66.30 | X-H torsion
[ 10763 10752 10751 10750 ] final  169.90 input  -60.55 | X-H torsion
[ 11005 11000 10999 10996 ] final   -4.60 input  -57.11 | X-H torsion

> <Gold.Protein.ActiveResidues>
 VAL166  LYS551  ARG553  GLY616  TRP617  ASP618  TYR619  PRO620  LYS621  CYS622 
 ASP623  PHE694  ASN695  SER759  ASP760  ASP761  ALA762  ILE779  LEU786  VAL792 
 PHE793  MET794  SER795  GLU796  ALA797  LYS798  CYS799  TRP800  GLU811  SER814 

> <Gold.Protein.RotatedAtoms>
  151.5459  133.3425  159.2943 H   0  0  0  0  0  0  0  0  0  0  0  0  # atno 6907 bound_to 6896
  150.8507  134.7834  159.7018 H   0  0  0  0  0  0  0  0  0  0  0  0  # atno 6908 bound_to 6896
  152.4554  134.5311  159.9863 H   0  0  0  0  0  0  0  0  0  0  0  0  # atno 6909 bound_to 6896
  145.4711  140.9559  143.1916 H   0  0  0  0  0  0  0  0  0  0  0  0  # atno 7974 bound_to 7965
  155.1649  140.3286  155.4404 H   0  0  0  0  0  0  0  0  0  0  0  0  # atno 8008 bound_to 7997
  156.2530  140.1953  156.6706 H   0  0  0  0  0  0  0  0  0  0  0  0  # atno 8009 bound_to 7997
  154.6378  140.0574  156.9796 H   0  0  0  0  0  0  0  0  0  0  0  0  # atno 8010 bound_to 7997
  140.1870  143.3922  152.1237 H   0  0  0  0  0  0  0  0  0  0  0  0  # atno 10167 bound_to 10162
  156.0976  130.4191  150.0883 H   0  0  0  0  0  0  0  0  0  0  0  0  # atno 10718 bound_to 10713
  154.3898  135.2754  155.2162 H   0  0  0  0  0  0  0  0  0  0  0  0  # atno 10763 bound_to 10752
  154.4233  135.5995  153.6027 H   0  0  0  0  0  0  0  0  0  0  0  0  # atno 10764 bound_to 10752
  152.9832  135.5978  154.4151 H   0  0  0  0  0  0  0  0  0  0  0  0  # atno 10765 bound_to 10752
  140.6820  133.9145  155.8562 H   0  0  0  0  0  0  0  0  0  0  0  0  # atno 11005 bound_to 11000
  144.7945  139.6262  143.7099 LP  0  0  0  0  0  0  0  0  0  0  0  0  # atno 17320 bound_to 7965
  146.2396  139.5974  142.9500 LP  0  0  0  0  0  0  0  0  0  0  0  0  # atno 17321 bound_to 7965
  139.5272  144.7116  151.5187 LP  0  0  0  0  0  0  0  0  0  0  0  0  # atno 17342 bound_to 10162
  140.6481  143.8752  150.6758 LP  0  0  0  0  0  0  0  0  0  0  0  0  # atno 17343 bound_to 10162
  156.8879  130.9578  151.3592 LP  0  0  0  0  0  0  0  0  0  0  0  0  # atno 17370 bound_to 10713
  157.6140  130.8604  149.8998 LP  0  0  0  0  0  0  0  0  0  0  0  0  # atno 17371 bound_to 10713
  141.0309  134.0757  157.4014 LP  0  0  0  0  0  0  0  0  0  0  0  0  # atno 17394 bound_to 11000
  139.8949  135.0138  156.6973 LP  0  0  0  0  0  0  0  0  0  0  0  0  # atno 17395 bound_to 11000

$$$$
