AV-unprocessed.smi:640|AV-procd|sdf|3150|dock6
  -GOLD-   22720 0 73D 1   1.00000     0.00000
 Structure written by MMmdl.
 38 40  0  0  0  0  0  0  0  0  3 V2000
  150.9980  141.1483  155.5562 O   0  0  0  0  0  0  0  0  0  0  0  0
  150.2303  141.0618  156.5153 C   0  0  0  0  0  0  0  0  0  0  0  0
  148.8698  140.3677  156.3645 C   0  0  0  0  0  0  0  0  0  0  0  0
  147.8747  141.2044  155.6732 N   0  0  0  0  0  0  0  0  0  0  0  0
  146.6960  141.5173  156.3792 C   0  0  0  0  0  0  0  0  0  0  0  0
  145.7236  142.2821  155.8450 C   0  0  0  0  0  0  0  0  0  0  0  0
  144.5228  142.6000  156.5863 N   0  3  0  0  0  0  0  0  0  0  0  0
  144.4044  142.1675  157.7283 O   0  0  0  0  0  0  0  0  0  0  0  0
  143.6596  143.2913  156.0536 O   0  5  0  0  0  0  0  0  0  0  0  0
  145.9225  142.7824  154.4984 C   0  0  0  0  0  0  0  0  0  0  0  0
  147.0494  142.4900  153.8199 C   0  0  0  0  0  0  0  0  0  0  0  0
  148.1092  141.6627  154.4057 C   0  0  0  0  0  0  0  0  0  0  0  0
  149.1443  141.3981  153.7939 O   0  0  0  0  0  0  0  0  0  0  0  0
  150.5010  141.5723  157.7266 N   0  0  0  0  0  0  0  0  0  0  0  0
  151.7192  142.2849  158.0969 C   0  0  0  0  0  0  0  0  0  0  0  0
  152.0761  142.0634  159.5553 C   0  0  0  0  0  0  0  0  0  0  0  0
  153.3670  142.5888  160.1381 C   0  0  0  0  0  0  0  0  0  0  0  0
  153.1692  141.1008  159.9524 C   0  0  0  0  0  0  0  0  0  0  0  0
  151.6334  143.7708  157.7919 C   0  0  0  0  0  0  0  0  0  0  0  0
  152.8096  144.6894  158.0234 C   0  0  0  0  0  0  0  0  0  0  0  0
  151.5807  144.7994  158.8971 C   0  0  0  0  0  0  0  0  0  0  0  0
  148.9949  139.4191  155.8388 H   0  0  0  0  0  0  0  0  0  0  0  0
  148.5176  140.0962  157.3607 H   0  0  0  0  0  0  0  0  0  0  0  0
  146.6475  141.1033  157.3760 H   0  0  0  0  0  0  0  0  0  0  0  0
  145.1705  143.3959  154.0244 H   0  0  0  0  0  0  0  0  0  0  0  0
  147.1774  142.8740  152.8184 H   0  0  0  0  0  0  0  0  0  0  0  0
  149.8072  141.4579  158.4513 H   0  0  0  0  0  0  0  0  0  0  0  0
  152.5458  141.8792  157.5096 H   0  0  0  0  0  0  0  0  0  0  0  0
  151.2151  142.0954  160.2207 H   0  0  0  0  0  0  0  0  0  0  0  0
  154.0662  143.0857  159.4684 H   0  0  0  0  0  0  0  0  0  0  0  0
  153.3374  142.9782  161.1536 H   0  0  0  0  0  0  0  0  0  0  0  0
  153.0084  140.4990  160.8444 H   0  0  0  0  0  0  0  0  0  0  0  0
  153.7297  140.6143  159.1562 H   0  0  0  0  0  0  0  0  0  0  0  0
  151.0277  143.9960  156.9158 H   0  0  0  0  0  0  0  0  0  0  0  0
  153.7059  144.2656  158.4717 H   0  0  0  0  0  0  0  0  0  0  0  0
  152.9814  145.4769  157.2926 H   0  0  0  0  0  0  0  0  0  0  0  0
  150.9339  145.6618  158.7499 H   0  0  0  0  0  0  0  0  0  0  0  0
  151.6685  144.4519  159.9245 H   0  0  0  0  0  0  0  0  0  0  0  0
  1  2  2  0  0  0  0
  2  3  1  0  0  0  0
  2 14  1  0  0  0  0
  3  4  1  0  0  0  0
  3 22  1  0  0  0  0
  3 23  1  0  0  0  0
  4 12  1  0  0  0  0
  4  5  1  0  0  0  0
  5  6  2  0  0  0  0
  5 24  1  0  0  0  0
  6  7  1  0  0  0  0
  6 10  1  0  0  0  0
  7  8  2  0  0  0  0
  7  9  1  0  0  0  0
 10 11  2  0  0  0  0
 10 25  1  0  0  0  0
 11 12  1  0  0  0  0
 11 26  1  0  0  0  0
 12 13  2  0  0  0  0
 14 15  1  0  0  0  0
 14 27  1  0  0  0  0
 15 16  1  0  0  0  0
 15 19  1  0  0  0  0
 15 28  1  0  0  0  0
 16 18  1  0  0  0  0
 16 17  1  0  0  0  0
 16 29  1  0  0  0  0
 17 18  1  0  0  0  0
 17 30  1  0  0  0  0
 17 31  1  0  0  0  0
 18 32  1  0  0  0  0
 18 33  1  0  0  0  0
 19 21  1  0  0  0  0
 19 20  1  0  0  0  0
 19 34  1  0  0  0  0
 20 21  1  0  0  0  0
 20 35  1  0  0  0  0
 20 36  1  0  0  0  0
 21 37  1  0  0  0  0
 21 38  1  0  0  0  0
M  CHG  1   7   1
M  CHG  1   9  -1
M  END
> <s_m_source_file>
AV-unprocessed.smi

> <i_m_source_file_index>
640

> <i_lp_mmshare_version>
43012

> <i_f3d_flags>
0

> <s_epik_input>
W0NIMl0xW0NIMl1bQ0hdMVtDSF0oW0NIXTJbQ0gyXVtDSDJdMilbTkhdQyg9TylbQ0gyXW4zW2NIXWMoW04rXSg9TylbTy1dKVtjSF1bY0hdYzM9Tw==

> <s_epik_cmdline>
J2VwaWtfcHl0aG9uJywgJy1waCcsICc3LjAnLCAnLXRuJywgJzgnLCAnLW1hJywgJzIwMCcsICctbWV0YWxfYmluZGluZycsICctaW1hZScsICc8aW5maWxlLm1hZT4nLCAnLW9tYWUnLCAnPG91dGZpbGUubWFlPic=

> <r_lp_tautomer_probability>
1

> <r_epik_Ionization_Penalty>
2.04963e-08

> <r_epik_Ionization_Penalty_Charging>
8.36809e-11

> <r_epik_Ionization_Penalty_Neutral>
2.04126e-08

> <r_epik_State_Penalty>
-0

> <r_epik_Charging_Adjusted_Penalty>
8.36809e-11

> <i_epik_Tot_Q>
0

> <i_epik_Tot_abs_Q>
2

> <r_epik_Metal_State_Penalty>
-0

> <b_epik_Metal_Only>
0

> <s_lp_Force_Field>
OPLS_2005

> <r_lp_Energy>
35.0527

> <b_lp_Chiralities_Consistent>
1

> <s_lp_Variant>
AV-unprocessed.smi:640-1

> <Gold.Version>
5.8.1

> <Gold.Id.Protein>
6NUR|6NUR_protein|mol2

> <Gold.PLP.Fitness>
45.0234

> <Gold.PLP.PLP>
-43.2088

> <Gold.PLP.part.hbond>
-3.0000

> <Gold.PLP.part.metal>
0.0000

> <Gold.PLP.part.buried>
-6.4661

> <Gold.PLP.part.nonpolar>
-34.9974

> <Gold.PLP.part.repulsive>
1.2406

> <Gold.PLP.ligand.clash>
0.0000

> <Gold.PLP.ligand.torsion>
1.9403

> <Gold.PLP.Chemscore.Hbond>
1.1853

> <Gold.PLP.Chemscore.CHOScore>
0.0000

> <Gold.PLP.Chemscore.Metal>
0.0000

> <Gold.Chemscore.Hbonds>
donor molecule, donor type, donor heavy atom, donor atom, acceptor molecule, acceptor atom, score
      P1  H  7989  7998       L1     1  0.41
      P1  H  8011  8017       L1    13  0.80

> <Gold.PLP.Chemscore.Internal.Correction>
2.1392

> <Gold.Rescore>
     Score         DG    S(hbond)    S(metal)    S(lipo)     H(rot)  DE(clash)    DE(int)     intcor
     11.90     -16.89       1.30        0.00     102.72       1.94       0.98       4.02       ----

> <Gold.Chemscore.Fitness>
11.8955

> <Gold.Chemscore.DG>
-16.8919

> <Gold.Chemscore.ZeroCoef>
-5.4800

> <Gold.Chemscore.Hbond>
1.3038

> <Gold.Chemscore.Metal>
0.0000

> <Gold.Chemscore.Lipo>
102.7232

> <Gold.Chemscore.Internal_Hbond>
0.0000

> <Gold.Chemscore.DEClash>
0.9762

> <Gold.Chemscore.DEInternal>
4.0202

> <Gold.Chemscore.Rot>
1.9380

> <Gold.Chemscore.Internal.Correction>
   9.000000E+99

> <Gold.Chemscore.Hbonds>
donor molecule, donor type, donor heavy atom, donor atom, acceptor molecule, acceptor atom, score
      P1  H  7989  7998       L1     1  0.41
      P1  H  8011  8017       L1    13  0.79

> <Gold.Chemscore.Hbond.Weighted>
-4.3546

> <Gold.Chemscore.Metal.Weighted>
-0.0000

> <Gold.Chemscore.Lipo.Weighted>
-12.0186

> <Gold.Chemscore.Internal_Hbond.Weighted>
0.0000

> <Gold.Chemscore.DEClash.Weighted>
0.9762

> <Gold.Chemscore.DEInternal.Weighted>
4.0202

> <Gold.Chemscore.Rot.Weighted>
4.9613

> <Gold.Chemscore.Internal.Correction.Weighted>
   9.000000E+99

> <Gold.Protein.RotatedTorsions>
[ 6907 6896 6895 6894 ] final -171.43 input  -60.11 | X-H torsion
[ 7974 7965 7964 7962 ] final  100.97 input  175.53 | X-H torsion
[ 8008 7997 7996 7995 ] final -104.56 input   59.86 | X-H torsion
[ 10167 10162 10161 10158 ] final  164.76 input  -65.29 | X-H torsion
[ 10718 10713 10712 10709 ] final  117.77 input   66.30 | X-H torsion
[ 10763 10752 10751 10750 ] final   -4.70 input  -60.55 | X-H torsion
[ 11005 11000 10999 10996 ] final -151.44 input  -57.11 | X-H torsion

> <Gold.Protein.ActiveResidues>
 VAL166  LYS551  ARG553  GLY616  TRP617  ASP618  TYR619  PRO620  LYS621  CYS622 
 ASP623  PHE694  ASN695  SER759  ASP760  ASP761  ALA762  ILE779  LEU786  VAL792 
 PHE793  MET794  SER795  GLU796  ALA797  LYS798  CYS799  TRP800  GLU811  SER814 

> <Gold.Protein.RotatedAtoms>
  151.5236  133.3462  159.2905 H   0  0  0  0  0  0  0  0  0  0  0  0  # atno 6907 bound_to 6896
  150.8637  134.7997  159.7113 H   0  0  0  0  0  0  0  0  0  0  0  0  # atno 6908 bound_to 6896
  152.4648  134.5110  159.9805 H   0  0  0  0  0  0  0  0  0  0  0  0  # atno 6909 bound_to 6896
  145.3785  139.2384  143.3416 H   0  0  0  0  0  0  0  0  0  0  0  0  # atno 7974 bound_to 7965
  154.8871  140.0417  157.1817 H   0  0  0  0  0  0  0  0  0  0  0  0  # atno 8008 bound_to 7997
  154.8578  140.2939  155.5536 H   0  0  0  0  0  0  0  0  0  0  0  0  # atno 8009 bound_to 7997
  156.2998  140.2452  156.3548 H   0  0  0  0  0  0  0  0  0  0  0  0  # atno 8010 bound_to 7997
  139.4894  144.4202  151.9196 H   0  0  0  0  0  0  0  0  0  0  0  0  # atno 10167 bound_to 10162
  157.6075  131.1041  150.7662 H   0  0  0  0  0  0  0  0  0  0  0  0  # atno 10718 bound_to 10713
  153.3885  135.7001  153.6512 H   0  0  0  0  0  0  0  0  0  0  0  0  # atno 10763 bound_to 10752
  153.5095  135.3635  155.2580 H   0  0  0  0  0  0  0  0  0  0  0  0  # atno 10764 bound_to 10752
  154.8700  135.4131  154.3197 H   0  0  0  0  0  0  0  0  0  0  0  0  # atno 10765 bound_to 10752
  140.7295  134.3636  157.5169 H   0  0  0  0  0  0  0  0  0  0  0  0  # atno 11005 bound_to 11000
  146.2853  140.4448  142.8760 LP  0  0  0  0  0  0  0  0  0  0  0  0  # atno 17320 bound_to 7965
  144.8525  140.7022  143.6159 LP  0  0  0  0  0  0  0  0  0  0  0  0  # atno 17321 bound_to 7965
  140.3646  144.2931  150.5928 LP  0  0  0  0  0  0  0  0  0  0  0  0  # atno 17342 bound_to 10162
  140.5373  143.2230  151.8142 LP  0  0  0  0  0  0  0  0  0  0  0  0  # atno 17343 bound_to 10162
  156.8047  130.4932  149.5364 LP  0  0  0  0  0  0  0  0  0  0  0  0  # atno 17370 bound_to 10713
  156.1166  130.6079  151.0129 LP  0  0  0  0  0  0  0  0  0  0  0  0  # atno 17371 bound_to 10713
  139.8829  134.9009  156.2799 LP  0  0  0  0  0  0  0  0  0  0  0  0  # atno 17394 bound_to 11000
  140.9933  133.7195  156.0847 LP  0  0  0  0  0  0  0  0  0  0  0  0  # atno 17395 bound_to 11000

$$$$
