AV-unprocessed.smi:2973|AV-procd|sdf|11347|dock7
  -GOLD-   2272016263D 1   1.00000     0.00000
 Structure written by MMmdl.
 48 50  0  0  0  0  0  0  0  0  2 V2000
  151.3091  142.2305  157.5232 C   0  0  0  0  0  0  0  0  0  0  0  0
  151.6148  141.1732  158.6076 C   0  0  2  0  0  0  0  0  0  0  0  0
  152.7652  141.6421  159.5247 C   0  0  0  0  0  0  0  0  0  0  0  0
  153.0106  140.6606  160.6804 C   0  0  0  0  0  0  0  0  0  0  0  0
  153.2951  139.2477  160.1552 C   0  0  0  0  0  0  0  0  0  0  0  0
  152.1587  138.7527  159.2434 C   0  0  0  0  0  0  0  0  0  0  0  0
  151.8648  139.7252  158.0712 C   0  0  2  0  0  0  0  0  0  0  0  0
  152.9491  139.6849  157.1024 N   0  5  0  0  0  0  0  0  0  0  0  0
  152.4728  139.2147  155.9267 C   0  0  0  0  0  0  0  0  0  0  0  0
  153.1086  139.0582  154.8852 O   0  0  0  0  0  0  0  0  0  0  0  0
  151.1578  138.9369  156.0145 N   0  0  0  0  0  0  0  0  0  0  0  0
  150.3192  138.4480  154.9085 C   0  0  0  0  0  0  0  0  0  0  0  0
  149.9184  136.9651  155.0034 C   0  0  0  0  0  0  0  0  0  0  0  0
  150.4267  136.2647  155.8785 O   0  0  0  0  0  0  0  0  0  0  0  0
  149.0260  136.4869  154.1194 N   0  0  0  0  0  0  0  0  0  0  0  0
  148.5615  135.1074  154.0488 C   0  0  0  0  0  0  0  0  0  0  0  0
  147.9354  134.7944  152.6793 C   0  0  0  0  0  0  0  0  0  0  0  0
  146.8617  133.7265  152.7662 C   0  0  0  0  0  0  0  0  0  0  0  0
  147.1722  132.4298  153.2291 C   0  0  0  0  0  0  0  0  0  0  0  0
  146.1387  131.4752  153.2947 C   0  0  0  0  0  0  0  0  0  0  0  0
  144.8415  131.8519  152.8972 C   0  0  0  0  0  0  0  0  0  0  0  0
  144.6340  133.1728  152.4517 C   0  0  0  0  0  0  0  0  0  0  0  0
  145.6174  134.0961  152.3869 N   0  0  0  0  0  0  0  0  0  0  0  0
  150.6993  139.2051  157.2421 C   0  0  0  0  0  0  0  0  0  0  0  0
  149.5459  139.0804  157.6563 O   0  0  0  0  0  0  0  0  0  0  0  0
  152.1446  142.3533  156.8337 H   0  0  0  0  0  0  0  0  0  0  0  0
  151.1132  143.2033  157.9741 H   0  0  0  0  0  0  0  0  0  0  0  0
  150.4279  141.9700  156.9372 H   0  0  0  0  0  0  0  0  0  0  0  0
  150.7247  141.1271  159.2377 H   0  0  0  0  0  0  0  0  0  0  0  0
  153.6807  141.7575  158.9431 H   0  0  0  0  0  0  0  0  0  0  0  0
  152.5375  142.6270  159.9336 H   0  0  0  0  0  0  0  0  0  0  0  0
  153.8470  141.0055  161.2887 H   0  0  0  0  0  0  0  0  0  0  0  0
  152.1391  140.6394  161.3357 H   0  0  0  0  0  0  0  0  0  0  0  0
  154.2380  139.2441  159.6069 H   0  0  0  0  0  0  0  0  0  0  0  0
  153.4251  138.5603  160.9912 H   0  0  0  0  0  0  0  0  0  0  0  0
  152.4012  137.7570  158.8676 H   0  0  0  0  0  0  0  0  0  0  0  0
  151.2598  138.6313  159.8500 H   0  0  0  0  0  0  0  0  0  0  0  0
  149.4082  139.0455  154.8491 H   0  0  0  0  0  0  0  0  0  0  0  0
  150.8298  138.6037  153.9568 H   0  0  0  0  0  0  0  0  0  0  0  0
  148.6586  137.1278  153.4301 H   0  0  0  0  0  0  0  0  0  0  0  0
  149.3850  134.4233  154.2602 H   0  0  0  0  0  0  0  0  0  0  0  0
  147.8239  134.9611  154.8384 H   0  0  0  0  0  0  0  0  0  0  0  0
  147.5010  135.6995  152.2521 H   0  0  0  0  0  0  0  0  0  0  0  0
  148.7044  134.4660  151.9788 H   0  0  0  0  0  0  0  0  0  0  0  0
  148.1777  132.1721  153.5283 H   0  0  0  0  0  0  0  0  0  0  0  0
  146.3382  130.4726  153.6432 H   0  0  0  0  0  0  0  0  0  0  0  0
  144.0250  131.1459  152.9328 H   0  0  0  0  0  0  0  0  0  0  0  0
  143.6522  133.4961  152.1388 H   0  0  0  0  0  0  0  0  0  0  0  0
  1  2  1  0  0  0  0
  1 26  1  0  0  0  0
  1 27  1  0  0  0  0
  1 28  1  0  0  0  0
  2  7  1  0  0  0  0
  2  3  1  0  0  0  0
  2 29  1  0  0  0  0
  3  4  1  0  0  0  0
  3 30  1  0  0  0  0
  3 31  1  0  0  0  0
  4  5  1  0  0  0  0
  4 32  1  0  0  0  0
  4 33  1  0  0  0  0
  5  6  1  0  0  0  0
  5 34  1  0  0  0  0
  5 35  1  0  0  0  0
  6  7  1  0  0  0  0
  6 36  1  0  0  0  0
  6 37  1  0  0  0  0
  7 24  1  0  0  0  0
  7  8  1  0  0  0  0
  8  9  1  0  0  0  0
  9 10  2  0  0  0  0
  9 11  1  0  0  0  0
 11 12  1  0  0  0  0
 11 24  1  0  0  0  0
 12 13  1  0  0  0  0
 12 38  1  0  0  0  0
 12 39  1  0  0  0  0
 13 14  2  0  0  0  0
 13 15  1  0  0  0  0
 15 16  1  0  0  0  0
 15 40  1  0  0  0  0
 16 17  1  0  0  0  0
 16 41  1  0  0  0  0
 16 42  1  0  0  0  0
 17 18  1  0  0  0  0
 17 43  1  0  0  0  0
 17 44  1  0  0  0  0
 18 23  1  0  0  0  0
 18 19  2  0  0  0  0
 19 20  1  0  0  0  0
 19 45  1  0  0  0  0
 20 21  2  0  0  0  0
 20 46  1  0  0  0  0
 21 22  1  0  0  0  0
 21 47  1  0  0  0  0
 22 23  2  0  0  0  0
 22 48  1  0  0  0  0
 24 25  2  0  0  0  0
M  CHG  1   8  -1
M  END
> <s_m_source_file>
AV-unprocessed.smi

> <i_m_source_file_index>
2973

> <i_lp_mmshare_version>
43012

> <i_f3d_flags>
0

> <s_epik_input>
W0NIMl0xW0NIMl1bQ0gyXVtDSDJdW0NAQEhdKFtDSDNdKVtDQF0xMltOSF1DKD1PKU4oQzI9TylbQ0gyXUMoPU8pW05IXVtDSDJdW0NIMl1jM1tjSF1bY0hdW2NIXVtjSF1uMw==

> <s_epik_cmdline>
J2VwaWtfcHl0aG9uJywgJy1waCcsICc3LjAnLCAnLXRuJywgJzgnLCAnLW1hJywgJzIwMCcsICctbWV0YWxfYmluZGluZycsICctaW1hZScsICc8aW5maWxlLm1hZT4nLCAnLW9tYWUnLCAnPG91dGZpbGUubWFlPic=

> <r_lp_tautomer_probability>
1

> <r_epik_Ionization_Penalty>
6.04175

> <r_epik_Ionization_Penalty_Charging>
6.01728

> <r_epik_Ionization_Penalty_Neutral>
0.0244696

> <r_epik_State_Penalty>
6.03712

> <r_epik_Charging_Adjusted_Penalty>
12.0544

> <i_epik_Tot_Q>
-1

> <i_epik_Tot_abs_Q>
1

> <r_epik_Metal_State_Penalty>
2.01153

> <b_epik_Metal_Only>
1

> <s_lp_Force_Field>
OPLS_2005

> <r_lp_Energy>
17.3345

> <b_lp_Chiralities_Consistent>
1

> <s_lp_Variant>
AV-unprocessed.smi:2973-11

> <Gold.Version>
5.8.1

> <Gold.Id.Protein>
6NUR|6NUR_protein|mol2

> <Gold.PLP.Fitness>
50.5110

> <Gold.PLP.PLP>
-37.5368

> <Gold.PLP.part.hbond>
-3.6160

> <Gold.PLP.part.metal>
0.0000

> <Gold.PLP.part.buried>
-4.9456

> <Gold.PLP.part.nonpolar>
-28.6046

> <Gold.PLP.part.repulsive>
0.2079

> <Gold.PLP.ligand.clash>
0.0000

> <Gold.PLP.ligand.torsion>
0.5517

> <Gold.PLP.Chemscore.Hbond>
3.7360

> <Gold.PLP.Chemscore.CHOScore>
0.9460

> <Gold.PLP.Chemscore.Metal>
0.0000

> <Gold.Chemscore.Hbonds>
donor molecule, donor type, donor heavy atom, donor atom, acceptor molecule, acceptor atom, score
      L1  H    15    40       P1  7948  0.05
      P1  H  7997  8009       L1     8  1.10

> <Gold.PLP.Chemscore.Internal.Correction>
0.0317

> <Gold.Rescore>
     Score         DG    S(hbond)    S(metal)    S(lipo)     H(rot)  DE(clash)    DE(int)     intcor
     19.25     -19.78       2.82        0.00      81.21       1.81       0.00       0.53       ----

> <Gold.Chemscore.Fitness>
19.2475

> <Gold.Chemscore.DG>
-19.7823

> <Gold.Chemscore.ZeroCoef>
-5.4800

> <Gold.Chemscore.Hbond>
2.8240

> <Gold.Chemscore.Metal>
0.0000

> <Gold.Chemscore.Lipo>
81.2067

> <Gold.Chemscore.Internal_Hbond>
0.0000

> <Gold.Chemscore.DEClash>
0.0048

> <Gold.Chemscore.DEInternal>
0.5300

> <Gold.Chemscore.Rot>
1.8090

> <Gold.Chemscore.Internal.Correction>
   9.000000E+99

> <Gold.Chemscore.Hbonds>
donor molecule, donor type, donor heavy atom, donor atom, acceptor molecule, acceptor atom, score
      L1  H    15    40       P1  7948  0.08
      P1  H  7997  8009       L1     8  0.03

> <Gold.Chemscore.Hbond.Weighted>
-9.4321

> <Gold.Chemscore.Metal.Weighted>
-0.0000

> <Gold.Chemscore.Lipo.Weighted>
-9.5012

> <Gold.Chemscore.Internal_Hbond.Weighted>
0.0000

> <Gold.Chemscore.DEClash.Weighted>
0.0048

> <Gold.Chemscore.DEInternal.Weighted>
0.5300

> <Gold.Chemscore.Rot.Weighted>
4.6310

> <Gold.Chemscore.Internal.Correction.Weighted>
   9.000000E+99

> <Gold.Protein.RotatedTorsions>
[ 6907 6896 6895 6894 ] final -171.66 input  -60.11 | X-H torsion
[ 7974 7965 7964 7962 ] final  117.69 input  175.53 | X-H torsion
[ 8008 7997 7996 7995 ] final -164.77 input   59.86 | X-H torsion
[ 10167 10162 10161 10158 ] final -156.81 input  -65.29 | X-H torsion
[ 10718 10713 10712 10709 ] final  -78.45 input   66.30 | X-H torsion
[ 10763 10752 10751 10750 ] final -157.73 input  -60.55 | X-H torsion
[ 11005 11000 10999 10996 ] final -131.89 input  -57.11 | X-H torsion

> <Gold.Protein.ActiveResidues>
 VAL166  LYS551  ARG553  GLY616  TRP617  ASP618  TYR619  PRO620  LYS621  CYS622 
 ASP623  PHE694  ASN695  SER759  ASP760  ASP761  ALA762  ILE779  LEU786  VAL792 
 PHE793  MET794  SER795  GLU796  ALA797  LYS798  CYS799  TRP800  GLU811  SER814 

> <Gold.Protein.RotatedAtoms>
  151.5275  133.3455  159.2911 H   0  0  0  0  0  0  0  0  0  0  0  0  # atno 6907 bound_to 6896
  150.8614  134.7969  159.7097 H   0  0  0  0  0  0  0  0  0  0  0  0  # atno 6908 bound_to 6896
  152.4632  134.5144  159.9815 H   0  0  0  0  0  0  0  0  0  0  0  0  # atno 6909 bound_to 6896
  145.1643  139.3137  143.4501 H   0  0  0  0  0  0  0  0  0  0  0  0  # atno 7974 bound_to 7965
  155.8403  140.0947  157.1738 H   0  0  0  0  0  0  0  0  0  0  0  0  # atno 8008 bound_to 7997
  154.3982  140.1402  156.3782 H   0  0  0  0  0  0  0  0  0  0  0  0  # atno 8009 bound_to 7997
  155.8071  140.3451  155.5439 H   0  0  0  0  0  0  0  0  0  0  0  0  # atno 8010 bound_to 7997
  139.6820  143.9564  152.2342 H   0  0  0  0  0  0  0  0  0  0  0  0  # atno 10167 bound_to 10162
  156.0117  130.4518  150.3499 H   0  0  0  0  0  0  0  0  0  0  0  0  # atno 10718 bound_to 10713
  154.7613  135.3118  154.8373 H   0  0  0  0  0  0  0  0  0  0  0  0  # atno 10763 bound_to 10752
  153.9134  135.6803  153.4754 H   0  0  0  0  0  0  0  0  0  0  0  0  # atno 10764 bound_to 10752
  153.1214  135.4821  154.9132 H   0  0  0  0  0  0  0  0  0  0  0  0  # atno 10765 bound_to 10752
  140.9219  134.1433  157.4307 H   0  0  0  0  0  0  0  0  0  0  0  0  # atno 11005 bound_to 11000
  146.3478  140.1765  142.8589 LP  0  0  0  0  0  0  0  0  0  0  0  0  # atno 17320 bound_to 7965
  145.0299  140.8862  143.5116 LP  0  0  0  0  0  0  0  0  0  0  0  0  # atno 17321 bound_to 7965
  139.9357  144.6713  150.8317 LP  0  0  0  0  0  0  0  0  0  0  0  0  # atno 17342 bound_to 10162
  140.7655  143.3278  151.2477 LP  0  0  0  0  0  0  0  0  0  0  0  0  # atno 17343 bound_to 10162
  157.1591  131.0340  151.2849 LP  0  0  0  0  0  0  0  0  0  0  0  0  # atno 17370 bound_to 10713
  157.4326  130.7499  149.7002 LP  0  0  0  0  0  0  0  0  0  0  0  0  # atno 17371 bound_to 10713
  139.8777  134.9974  156.5847 LP  0  0  0  0  0  0  0  0  0  0  0  0  # atno 17394 bound_to 11000
  140.7976  133.8531  155.8699 LP  0  0  0  0  0  0  0  0  0  0  0  0  # atno 17395 bound_to 11000

$$$$
