AV-unprocessed.smi:3111|AV-procd|sdf|11834|dock8
  -GOLD-   2272017213D 1   1.00000     0.00000
 Structure written by MMmdl.
 30 30  0  0  0  0  0  0  0  0  2 V2000
  148.4582  127.0587  150.4461 C   0  0  0  0  0  0  0  0  0  0  0  0
  147.9266  128.2544  151.0819 N   0  0  0  0  0  0  0  0  0  0  0  0
  147.3787  128.2777  152.3048 C   0  0  0  0  0  0  0  0  0  0  0  0
  147.2820  127.2780  153.0183 O   0  0  0  0  0  0  0  0  0  0  0  0
  146.8864  129.6443  152.7982 C   0  0  0  0  0  0  0  0  0  0  0  0
  146.0449  130.3307  151.8206 N   0  0  0  0  0  0  0  0  0  0  0  0
  145.6049  131.5944  151.9324 C   0  0  0  0  0  0  0  0  0  0  0  0
  145.8466  132.3074  152.9070 O   0  0  0  0  0  0  0  0  0  0  0  0
  144.7565  132.1289  150.7685 C   0  0  2  0  0  0  0  0  0  0  0  0
  145.4856  132.0348  149.4145 C   0  0  0  0  0  0  0  0  0  0  0  0
  144.2954  133.4994  151.0459 N   0  0  0  0  0  0  0  0  0  0  0  0
  143.5595  133.9172  152.1263 C   0  0  0  0  0  0  0  0  0  0  0  0
  143.3706  135.2670  151.9764 C   0  0  0  0  0  0  0  0  0  0  0  0
  144.0011  135.6198  150.8138 N   0  3  0  0  0  0  0  0  0  0  0  0
  144.5637  134.5462  150.2502 C   0  0  0  0  0  0  0  0  0  0  0  0
  148.7949  127.2925  149.4359 H   0  0  0  0  0  0  0  0  0  0  0  0
  147.6965  126.2805  150.3794 H   0  0  0  0  0  0  0  0  0  0  0  0
  149.3080  126.6678  151.0073 H   0  0  0  0  0  0  0  0  0  0  0  0
  147.9754  129.1167  150.5587 H   0  0  0  0  0  0  0  0  0  0  0  0
  146.3032  129.4938  153.7067 H   0  0  0  0  0  0  0  0  0  0  0  0
  147.7357  130.2732  153.0716 H   0  0  0  0  0  0  0  0  0  0  0  0
  145.8068  129.8147  150.9860 H   0  0  0  0  0  0  0  0  0  0  0  0
  143.8624  131.5066  150.6990 H   0  0  0  0  0  0  0  0  0  0  0  0
  145.7913  131.0091  149.2041 H   0  0  0  0  0  0  0  0  0  0  0  0
  146.3802  132.6579  149.3851 H   0  0  0  0  0  0  0  0  0  0  0  0
  144.8349  132.3539  148.5999 H   0  0  0  0  0  0  0  0  0  0  0  0
  143.2318  133.2408  152.9025 H   0  0  0  0  0  0  0  0  0  0  0  0
  142.8497  135.9839  152.5944 H   0  0  0  0  0  0  0  0  0  0  0  0
  145.1268  134.5287  149.3336 H   0  0  0  0  0  0  0  0  0  0  0  0
  144.0394  136.5573  150.4337 H   0  0  0  0  0  0  0  0  0  0  0  0
  1  2  1  0  0  0  0
  1 16  1  0  0  0  0
  1 17  1  0  0  0  0
  1 18  1  0  0  0  0
  2  3  1  0  0  0  0
  2 19  1  0  0  0  0
  3  4  2  0  0  0  0
  3  5  1  0  0  0  0
  5  6  1  0  0  0  0
  5 20  1  0  0  0  0
  5 21  1  0  0  0  0
  6  7  1  0  0  0  0
  6 22  1  0  0  0  0
  7  8  2  0  0  0  0
  7  9  1  0  0  0  0
  9 10  1  0  0  0  0
  9 11  1  0  0  0  0
  9 23  1  0  0  0  0
 10 24  1  0  0  0  0
 10 25  1  0  0  0  0
 10 26  1  0  0  0  0
 11 15  1  0  0  0  0
 11 12  1  0  0  0  0
 12 13  2  0  0  0  0
 12 27  1  0  0  0  0
 13 14  1  0  0  0  0
 13 28  1  0  0  0  0
 14 15  2  0  0  0  0
 14 30  1  0  0  0  0
 15 29  1  0  0  0  0
M  CHG  1  14   1
M  END
> <s_m_source_file>
AV-unprocessed.smi

> <i_m_source_file_index>
3111

> <i_lp_mmshare_version>
43012

> <i_f3d_flags>
0

> <s_epik_input>
W0NIM11bTkhdQyg9TylbQ0gyXVtOSF1DKD1PKVtDQEhdKFtDSDNdKW4xW2NIXVtjSF1uW2NIXTE=

> <s_epik_cmdline>
J2VwaWtfcHl0aG9uJywgJy1waCcsICc3LjAnLCAnLXRuJywgJzgnLCAnLW1hJywgJzIwMCcsICctbWV0YWxfYmluZGluZycsICctaW1hZScsICc8aW5maWxlLm1hZT4nLCAnLW9tYWUnLCAnPG91dGZpbGUubWFlPic=

> <r_lp_tautomer_probability>
1

> <r_epik_Ionization_Penalty>
0.581414

> <r_epik_Ionization_Penalty_Charging>
0

> <r_epik_Ionization_Penalty_Neutral>
0.581414

> <r_epik_State_Penalty>
0.594207

> <r_epik_Charging_Adjusted_Penalty>
0.594207

> <i_epik_Tot_Q>
1

> <i_epik_Tot_abs_Q>
1

> <r_epik_Metal_State_Penalty>
0.784638

> <b_epik_Metal_Only>
0

> <s_lp_Force_Field>
OPLS_2005

> <r_lp_Energy>
6.41512

> <b_lp_Chiralities_Consistent>
1

> <s_lp_Variant>
AV-unprocessed.smi:3111-3

> <Gold.Version>
5.8.1

> <Gold.Id.Protein>
6NUR|6NUR_protein|mol2

> <Gold.PLP.Fitness>
40.7828

> <Gold.PLP.PLP>
-30.0400

> <Gold.PLP.part.hbond>
-1.9851

> <Gold.PLP.part.metal>
0.0000

> <Gold.PLP.part.buried>
-4.9413

> <Gold.PLP.part.nonpolar>
-22.8641

> <Gold.PLP.part.repulsive>
0.3769

> <Gold.PLP.ligand.clash>
0.0000

> <Gold.PLP.ligand.torsion>
0.1796

> <Gold.PLP.Chemscore.Hbond>
1.6825

> <Gold.PLP.Chemscore.CHOScore>
1.9903

> <Gold.PLP.Chemscore.Metal>
0.0000

> <Gold.Chemscore.Hbonds>
donor molecule, donor type, donor heavy atom, donor atom, acceptor molecule, acceptor atom, score
      L1  H     2    19       P1 10747  0.91
      L1  H    14    30       P1 10171  0.80
      L1  C    12    27       P1 10957  1.00
      L1  C    15    29       P1  7921  0.91

> <Gold.PLP.Chemscore.Internal.Correction>
0.0835

> <Gold.Rescore>
     Score         DG    S(hbond)    S(metal)    S(lipo)     H(rot)  DE(clash)    DE(int)     intcor
      8.39     -10.40       1.57        0.00      48.35       2.33       0.27       1.73       ----

> <Gold.Chemscore.Fitness>
8.3947

> <Gold.Chemscore.DG>
-10.3988

> <Gold.Chemscore.ZeroCoef>
-5.4800

> <Gold.Chemscore.Hbond>
1.5657

> <Gold.Chemscore.Metal>
0.0000

> <Gold.Chemscore.Lipo>
48.3489

> <Gold.Chemscore.Internal_Hbond>
0.0000

> <Gold.Chemscore.DEClash>
0.2741

> <Gold.Chemscore.DEInternal>
1.7299

> <Gold.Chemscore.Rot>
2.3311

> <Gold.Chemscore.Internal.Correction>
   9.000000E+99

> <Gold.Chemscore.Hbonds>
donor molecule, donor type, donor heavy atom, donor atom, acceptor molecule, acceptor atom, score
      L1  H     2    19       P1 10747  0.26
      L1  H    14    30       P1 10171  0.79

> <Gold.Chemscore.Hbond.Weighted>
-5.2295

> <Gold.Chemscore.Metal.Weighted>
-0.0000

> <Gold.Chemscore.Lipo.Weighted>
-5.6568

> <Gold.Chemscore.Internal_Hbond.Weighted>
0.0000

> <Gold.Chemscore.DEClash.Weighted>
0.2741

> <Gold.Chemscore.DEInternal.Weighted>
1.7299

> <Gold.Chemscore.Rot.Weighted>
5.9676

> <Gold.Chemscore.Internal.Correction.Weighted>
   9.000000E+99

> <Gold.Protein.RotatedTorsions>
[ 6907 6896 6895 6894 ] final  -57.99 input  -60.11 | X-H torsion
[ 7974 7965 7964 7962 ] final   50.16 input  175.53 | X-H torsion
[ 8008 7997 7996 7995 ] final   -3.14 input   59.86 | X-H torsion
[ 10167 10162 10161 10158 ] final  -72.68 input  -65.29 | X-H torsion
[ 10718 10713 10712 10709 ] final  -85.89 input   66.30 | X-H torsion
[ 10763 10752 10751 10750 ] final  174.90 input  -60.55 | X-H torsion
[ 11005 11000 10999 10996 ] final -111.05 input  -57.11 | X-H torsion

> <Gold.Protein.ActiveResidues>
 VAL166  LYS551  ARG553  GLY616  TRP617  ASP618  TYR619  PRO620  LYS621  CYS622 
 ASP623  PHE694  ASN695  SER759  ASP760  ASP761  ALA762  ILE779  LEU786  VAL792 
 PHE793  MET794  SER795  GLU796  ALA797  LYS798  CYS799  TRP800  GLU811  SER814 

> <Gold.Protein.RotatedAtoms>
  150.8042  134.7156  159.6628 H   0  0  0  0  0  0  0  0  0  0  0  0  # atno 6907 bound_to 6896
  152.4161  134.6036  160.0016 H   0  0  0  0  0  0  0  0  0  0  0  0  # atno 6908 bound_to 6896
  151.6265  133.3298  159.3135 H   0  0  0  0  0  0  0  0  0  0  0  0  # atno 6909 bound_to 6896
  146.0039  139.4469  142.9998 H   0  0  0  0  0  0  0  0  0  0  0  0  # atno 7974 bound_to 7965
  154.6281  140.2517  155.7467 H   0  0  0  0  0  0  0  0  0  0  0  0  # atno 8008 bound_to 7997
  156.2464  140.2912  156.0540 H   0  0  0  0  0  0  0  0  0  0  0  0  # atno 8009 bound_to 7997
  155.1788  140.0388  157.2868 H   0  0  0  0  0  0  0  0  0  0  0  0  # atno 8010 bound_to 7997
  140.5172  143.2336  151.7492 H   0  0  0  0  0  0  0  0  0  0  0  0  # atno 10167 bound_to 10162
  155.9993  130.4746  150.4632 H   0  0  0  0  0  0  0  0  0  0  0  0  # atno 10718 bound_to 10713
  154.4602  135.2767  155.1718 H   0  0  0  0  0  0  0  0  0  0  0  0  # atno 10763 bound_to 10752
  154.3509  135.6150  153.5646 H   0  0  0  0  0  0  0  0  0  0  0  0  # atno 10764 bound_to 10752
  152.9854  135.5811  154.4963 H   0  0  0  0  0  0  0  0  0  0  0  0  # atno 10765 bound_to 10752
  141.0757  133.9305  157.2395 H   0  0  0  0  0  0  0  0  0  0  0  0  # atno 11005 bound_to 11000
  145.7445  140.9995  143.1283 LP  0  0  0  0  0  0  0  0  0  0  0  0  # atno 17320 bound_to 7965
  144.6929  139.9140  143.7465 LP  0  0  0  0  0  0  0  0  0  0  0  0  # atno 17321 bound_to 7965
  139.4913  144.4306  151.9876 LP  0  0  0  0  0  0  0  0  0  0  0  0  # atno 17342 bound_to 10162
  140.3401  144.3214  150.5969 LP  0  0  0  0  0  0  0  0  0  0  0  0  # atno 17343 bound_to 10162
  157.2654  131.0576  151.2294 LP  0  0  0  0  0  0  0  0  0  0  0  0  # atno 17370 bound_to 10713
  157.3393  130.7025  149.6372 LP  0  0  0  0  0  0  0  0  0  0  0  0  # atno 17371 bound_to 10713
  139.9569  135.0163  156.9153 LP  0  0  0  0  0  0  0  0  0  0  0  0  # atno 17394 bound_to 11000
  140.5579  134.0564  155.7389 LP  0  0  0  0  0  0  0  0  0  0  0  0  # atno 17395 bound_to 11000

$$$$
