AV-unprocessed.smi:234|AV-procd|sdf|1799|dock7
  -GOLD-   2262020373D 1   1.00000     0.00000
 Structure written by MMmdl.
 59 62  0  0  0  0  0  0  0  0  1 V2000
  143.4606  134.3948  163.1001 C   0  0  0  0  0  0  0  0  0  0  0  0
  144.9106  133.9918  162.7999 C   0  0  0  0  0  0  0  0  0  0  0  0
  145.7513  135.1246  162.6280 O   0  0  0  0  0  0  0  0  0  0  0  0
  147.0125  134.8503  162.0318 C   0  0  2  0  0  0  0  0  0  0  0  0
  147.5640  136.0712  161.2993 C   0  0  0  0  0  0  0  0  0  0  0  0
  148.1155  135.0741  160.2713 C   0  0  2  0  0  0  0  0  0  0  0  0
  148.0665  135.5491  158.8853 N   0  0  0  0  0  0  0  0  0  0  0  0
  147.0392  136.5196  158.5257 C   0  0  0  0  0  0  0  0  0  0  0  0
  148.2668  134.6467  157.8942 C   0  0  0  0  0  0  0  0  0  0  0  0
  149.4776  134.0347  157.8566 N   0  0  0  0  0  0  0  0  0  0  0  0
  149.7492  133.1392  156.9033 C   0  0  0  0  0  0  0  0  0  0  0  0
  148.9690  132.7203  155.9056 N   0  0  0  0  0  0  0  0  0  0  0  0
  147.7537  133.3392  155.9311 C   0  0  0  0  0  0  0  0  0  0  0  0
  147.3245  134.3133  156.8770 C   0  0  0  0  0  0  0  0  0  0  0  0
  146.0393  134.7369  156.5604 N   0  0  0  0  0  0  0  0  0  0  0  0
  145.7220  134.0417  155.5032 C   0  0  0  0  0  0  0  0  0  0  0  0
  146.6881  133.1651  155.0629 N   0  0  0  0  0  0  0  0  0  0  0  0
  146.6178  132.2682  153.9152 C   0  0  0  0  0  0  0  0  0  0  0  0
  146.3282  132.9804  152.5660 C   0  0  2  0  0  0  0  0  0  0  0  0
  147.3884  133.8854  152.3060 O   0  0  0  0  0  0  0  0  0  0  0  0
  145.0234  133.7585  152.5619 C   0  0  0  0  0  0  0  0  0  0  0  0
  144.7161  133.9189  151.0739 C   0  0  0  0  0  0  0  0  0  0  0  0
  145.4320  132.8859  150.3992 O   0  0  0  0  0  0  0  0  0  0  0  0
  146.1697  132.0842  151.3202 C   0  0  2  0  0  0  0  0  0  0  0  0
  145.3280  130.8086  151.5138 C   0  0  0  0  0  0  0  0  0  0  0  0
  146.9684  134.1014  160.6728 C   0  0  0  0  0  0  0  0  0  0  0  0
  147.3375  132.6172  160.7324 C   0  0  0  0  0  0  0  0  0  0  0  0
  145.6448  134.2120  159.8947 C   0  0  0  0  0  0  0  0  0  0  0  0
  142.8156  133.5163  163.1250 H   0  0  0  0  0  0  0  0  0  0  0  0
  143.0757  135.0681  162.3339 H   0  0  0  0  0  0  0  0  0  0  0  0
  143.3676  134.8934  164.0645 H   0  0  0  0  0  0  0  0  0  0  0  0
  145.2983  133.3256  163.5700 H   0  0  0  0  0  0  0  0  0  0  0  0
  144.9316  133.4275  161.8675 H   0  0  0  0  0  0  0  0  0  0  0  0
  147.7529  134.4450  162.7242 H   0  0  0  0  0  0  0  0  0  0  0  0
  146.7861  136.7293  160.9078 H   0  0  0  0  0  0  0  0  0  0  0  0
  148.3195  136.6266  161.8552 H   0  0  0  0  0  0  0  0  0  0  0  0
  149.0923  134.6866  160.5671 H   0  0  0  0  0  0  0  0  0  0  0  0
  146.1658  136.0250  158.0984 H   0  0  0  0  0  0  0  0  0  0  0  0
  147.4265  137.2275  157.7923 H   0  0  0  0  0  0  0  0  0  0  0  0
  146.7066  137.0891  159.3916 H   0  0  0  0  0  0  0  0  0  0  0  0
  150.7330  132.6955  156.9455 H   0  0  0  0  0  0  0  0  0  0  0  0
  144.7682  134.1656  155.0157 H   0  0  0  0  0  0  0  0  0  0  0  0
  147.5392  131.6880  153.8671 H   0  0  0  0  0  0  0  0  0  0  0  0
  145.8273  131.5432  154.1145 H   0  0  0  0  0  0  0  0  0  0  0  0
  147.7109  134.2123  153.1319 H   0  0  0  0  0  0  0  0  0  0  0  0
  144.2357  133.1712  153.0356 H   0  0  0  0  0  0  0  0  0  0  0  0
  145.0833  134.7116  153.0891 H   0  0  0  0  0  0  0  0  0  0  0  0
  143.6470  133.8536  150.8699 H   0  0  0  0  0  0  0  0  0  0  0  0
  145.0705  134.8830  150.7080 H   0  0  0  0  0  0  0  0  0  0  0  0
  147.1365  131.8103  150.8953 H   0  0  0  0  0  0  0  0  0  0  0  0
  145.8028  130.0979  152.1848 H   0  0  0  0  0  0  0  0  0  0  0  0
  145.1841  130.2996  150.5606 H   0  0  0  0  0  0  0  0  0  0  0  0
  144.3394  131.0320  151.9150 H   0  0  0  0  0  0  0  0  0  0  0  0
  147.4316  132.1806  159.7385 H   0  0  0  0  0  0  0  0  0  0  0  0
  146.5862  132.0364  161.2669 H   0  0  0  0  0  0  0  0  0  0  0  0
  148.2876  132.4617  161.2441 H   0  0  0  0  0  0  0  0  0  0  0  0
  145.7347  133.8082  158.8862 H   0  0  0  0  0  0  0  0  0  0  0  0
  145.3100  135.2449  159.7975 H   0  0  0  0  0  0  0  0  0  0  0  0
  144.8435  133.6632  160.3899 H   0  0  0  0  0  0  0  0  0  0  0  0
  1  2  1  0  0  0  0
  1 29  1  0  0  0  0
  1 30  1  0  0  0  0
  1 31  1  0  0  0  0
  2  3  1  0  0  0  0
  2 32  1  0  0  0  0
  2 33  1  0  0  0  0
  3  4  1  0  0  0  0
  4 26  1  0  0  0  0
  4  5  1  0  0  0  0
  4 34  1  0  0  0  0
  5  6  1  0  0  0  0
  5 35  1  0  0  0  0
  5 36  1  0  0  0  0
  6  7  1  0  0  0  0
  6 26  1  0  0  0  0
  6 37  1  0  0  0  0
  7  8  1  0  0  0  0
  7  9  1  0  0  0  0
  8 38  1  0  0  0  0
  8 39  1  0  0  0  0
  8 40  1  0  0  0  0
  9 14  1  0  0  0  0
  9 10  2  0  0  0  0
 10 11  1  0  0  0  0
 11 12  2  0  0  0  0
 11 41  1  0  0  0  0
 12 13  1  0  0  0  0
 13 17  1  0  0  0  0
 13 14  2  0  0  0  0
 14 15  1  0  0  0  0
 15 16  2  0  0  0  0
 16 17  1  0  0  0  0
 16 42  1  0  0  0  0
 17 18  1  0  0  0  0
 18 19  1  0  0  0  0
 18 43  1  0  0  0  0
 18 44  1  0  0  0  0
 19 24  1  0  0  0  0
 19 20  1  0  0  0  0
 19 21  1  0  0  0  0
 20 45  1  0  0  0  0
 21 22  1  0  0  0  0
 21 46  1  0  0  0  0
 21 47  1  0  0  0  0
 22 23  1  0  0  0  0
 22 48  1  0  0  0  0
 22 49  1  0  0  0  0
 23 24  1  0  0  0  0
 24 25  1  0  0  0  0
 24 50  1  0  0  0  0
 25 51  1  0  0  0  0
 25 52  1  0  0  0  0
 25 53  1  0  0  0  0
 26 27  1  0  0  0  0
 26 28  1  0  0  0  0
 27 54  1  0  0  0  0
 27 55  1  0  0  0  0
 27 56  1  0  0  0  0
 28 57  1  0  0  0  0
 28 58  1  0  0  0  0
 28 59  1  0  0  0  0
M  END
> <s_m_source_file>
AV-unprocessed.smi

> <i_m_source_file_index>
234

> <i_lp_mmshare_version>
43012

> <i_f3d_flags>
0

> <s_epik_input>
W0NIM11bQ0gyXU9bQ0BASF0oQzEoW0NIM10pW0NIM10pW0NIMl1bQ0BIXTFOKFtDSDNdKWMobltjSF1uMiljKGMyMyluW2NIXW4zW0NIMl1bQ0BAXTQoW09IXSlbQ0gyXVtDSDJdT1tDQEhdNFtDSDNd

> <s_epik_cmdline>
J2VwaWtfcHl0aG9uJywgJy1waCcsICc3LjAnLCAnLXRuJywgJzgnLCAnLW1hJywgJzIwMCcsICctbWV0YWxfYmluZGluZycsICctaW1hZScsICc8aW5maWxlLm1hZT4nLCAnLW9tYWUnLCAnPG91dGZpbGUubWFlPic=

> <r_lp_tautomer_probability>
1

> <r_epik_Ionization_Penalty>
0.00349132

> <r_epik_Ionization_Penalty_Charging>
0

> <r_epik_Ionization_Penalty_Neutral>
0.00349132

> <r_epik_State_Penalty>
0.00242418

> <r_epik_Charging_Adjusted_Penalty>
0.00242418

> <i_epik_Tot_Q>
0

> <i_epik_Tot_abs_Q>
0

> <r_epik_Metal_State_Penalty>
-0

> <b_epik_Metal_Only>
0

> <s_lp_Force_Field>
OPLS_2005

> <r_lp_Energy>
51.2497

> <b_lp_Chiralities_Consistent>
1

> <s_lp_Variant>
AV-unprocessed.smi:234-15

> <Gold.Version>
5.8.1

> <Gold.Id.Protein>
6NUR|6NUR_protein|mol2

> <Gold.PLP.Fitness>
35.6794

> <Gold.PLP.PLP>
-33.3866

> <Gold.PLP.part.hbond>
-2.0000

> <Gold.PLP.part.metal>
0.0000

> <Gold.PLP.part.buried>
-5.9992

> <Gold.PLP.part.nonpolar>
-25.4946

> <Gold.PLP.part.repulsive>
0.1470

> <Gold.PLP.ligand.clash>
0.0000

> <Gold.PLP.ligand.torsion>
0.8752

> <Gold.PLP.Chemscore.Hbond>
1.0000

> <Gold.PLP.Chemscore.CHOScore>
0.0000

> <Gold.PLP.Chemscore.Metal>
0.0000

> <Gold.Chemscore.Hbonds>
donor molecule, donor type, donor heavy atom, donor atom, acceptor molecule, acceptor atom, score
      P1  H  6896  6909       L1    10  1.00

> <Gold.PLP.Chemscore.Internal.Correction>
1.0432

> <Gold.Rescore>
     Score         DG    S(hbond)    S(metal)    S(lipo)     H(rot)  DE(clash)    DE(int)     intcor
      9.32     -12.31       0.95        0.00      88.52       2.62       0.00       2.99       ----

> <Gold.Chemscore.Fitness>
9.3161

> <Gold.Chemscore.DG>
-12.3142

> <Gold.Chemscore.ZeroCoef>
-5.4800

> <Gold.Chemscore.Hbond>
0.9548

> <Gold.Chemscore.Metal>
0.0000

> <Gold.Chemscore.Lipo>
88.5226

> <Gold.Chemscore.Internal_Hbond>
0.0000

> <Gold.Chemscore.DEClash>
0.0047

> <Gold.Chemscore.DEInternal>
2.9934

> <Gold.Chemscore.Rot>
2.6219

> <Gold.Chemscore.Internal.Correction>
   9.000000E+99

> <Gold.Chemscore.Hbonds>
donor molecule, donor type, donor heavy atom, donor atom, acceptor molecule, acceptor atom, score
      P1  H  6896  6909       L1    10  0.82

> <Gold.Chemscore.Hbond.Weighted>
-3.1892

> <Gold.Chemscore.Metal.Weighted>
-0.0000

> <Gold.Chemscore.Lipo.Weighted>
-10.3571

> <Gold.Chemscore.Internal_Hbond.Weighted>
0.0000

> <Gold.Chemscore.DEClash.Weighted>
0.0047

> <Gold.Chemscore.DEInternal.Weighted>
2.9934

> <Gold.Chemscore.Rot.Weighted>
6.7121

> <Gold.Chemscore.Internal.Correction.Weighted>
   9.000000E+99

> <Gold.Protein.RotatedTorsions>
[ 6907 6896 6895 6894 ] final    9.06 input  -60.11 | X-H torsion
[ 7974 7965 7964 7962 ] final   22.24 input  175.53 | X-H torsion
[ 8008 7997 7996 7995 ] final  -63.42 input   59.86 | X-H torsion
[ 10167 10162 10161 10158 ] final   17.87 input  -65.29 | X-H torsion
[ 10718 10713 10712 10709 ] final  -58.89 input   66.30 | X-H torsion
[ 10763 10752 10751 10750 ] final  -57.50 input  -60.55 | X-H torsion
[ 11005 11000 10999 10996 ] final -130.15 input  -57.11 | X-H torsion

> <Gold.Protein.ActiveResidues>
 VAL166  LYS551  ARG553  GLY616  TRP617  ASP618  TYR619  PRO620  LYS621  CYS622 
 ASP623  PHE694  ASN695  SER759  ASP760  ASP761  ALA762  ILE779  LEU786  VAL792 
 PHE793  MET794  SER795  GLU796  ALA797  LYS798  CYS799  TRP800  GLU811  SER814 

> <Gold.Protein.RotatedAtoms>
  151.7161  135.0903  160.0275 H   0  0  0  0  0  0  0  0  0  0  0  0  # atno 6907 bound_to 6896
  152.3631  133.6318  159.6039 H   0  0  0  0  0  0  0  0  0  0  0  0  # atno 6908 bound_to 6896
  150.7619  133.9307  159.3467 H   0  0  0  0  0  0  0  0  0  0  0  0  # atno 6909 bound_to 6896
  146.2037  139.7914  142.8742 H   0  0  0  0  0  0  0  0  0  0  0  0  # atno 7974 bound_to 7965
  154.4554  140.0975  156.6740 H   0  0  0  0  0  0  0  0  0  0  0  0  # atno 8008 bound_to 7997
  155.5156  140.3477  155.4378 H   0  0  0  0  0  0  0  0  0  0  0  0  # atno 8009 bound_to 7997
  156.0766  140.1362  156.9753 H   0  0  0  0  0  0  0  0  0  0  0  0  # atno 8010 bound_to 7997
  140.5695  143.9188  150.6702 H   0  0  0  0  0  0  0  0  0  0  0  0  # atno 10167 bound_to 10162
  156.1102  130.4176  150.0639 H   0  0  0  0  0  0  0  0  0  0  0  0  # atno 10718 bound_to 10713
  154.2234  135.6374  153.5152 H   0  0  0  0  0  0  0  0  0  0  0  0  # atno 10763 bound_to 10752
  152.9964  135.5502  154.6090 H   0  0  0  0  0  0  0  0  0  0  0  0  # atno 10764 bound_to 10752
  154.5556  135.2905  155.0942 H   0  0  0  0  0  0  0  0  0  0  0  0  # atno 10765 bound_to 10752
  140.9370  134.1243  157.4184 H   0  0  0  0  0  0  0  0  0  0  0  0  # atno 11005 bound_to 11000
  145.3394  141.0284  143.3401 LP  0  0  0  0  0  0  0  0  0  0  0  0  # atno 17320 bound_to 7965
  144.8743  139.4994  143.6753 LP  0  0  0  0  0  0  0  0  0  0  0  0  # atno 17321 bound_to 7965
  140.2660  143.3490  152.1281 LP  0  0  0  0  0  0  0  0  0  0  0  0  # atno 17342 bound_to 10162
  139.5110  144.6893  151.5802 LP  0  0  0  0  0  0  0  0  0  0  0  0  # atno 17343 bound_to 10162
  156.8605  130.9490  151.3618 LP  0  0  0  0  0  0  0  0  0  0  0  0  # atno 17370 bound_to 10713
  157.6282  130.8708  149.9227 LP  0  0  0  0  0  0  0  0  0  0  0  0  # atno 17371 bound_to 10713
  139.8810  135.0024  156.6125 LP  0  0  0  0  0  0  0  0  0  0  0  0  # atno 17394 bound_to 11000
  140.7785  133.8679  155.8549 LP  0  0  0  0  0  0  0  0  0  0  0  0  # atno 17395 bound_to 11000

$$$$
