AV-unprocessed.smi:2085|AV-procd|sdf|8516|dock2
  -GOLD-   2272011233D 1   1.00000     0.00000
 Structure written by MMmdl.
 30 31  0  0  0  0  0  0  0  0  1 V2000
  147.0942  141.4883  154.0973 C   0  0  0  0  0  0  0  0  0  0  0  0
  148.2050  141.7017  154.9618 O   0  0  0  0  0  0  0  0  0  0  0  0
  149.2406  140.7866  154.9441 C   0  0  0  0  0  0  0  0  0  0  0  0
  149.1249  139.6980  154.1425 N   0  0  0  0  0  0  0  0  0  0  0  0
  150.1314  138.8005  154.1278 C   0  0  0  0  0  0  0  0  0  0  0  0
  151.2939  138.9346  154.9081 C   0  0  0  0  0  0  0  0  0  0  0  0
  151.4166  140.0624  155.7405 C   0  0  0  0  0  0  0  0  0  0  0  0
  150.3747  141.0215  155.7566 C   0  0  0  0  0  0  0  0  0  0  0  0
  150.3840  142.1858  156.5745 N   0  0  0  0  0  0  0  0  0  0  0  0
  151.0901  142.4316  157.6939 C   0  0  0  0  0  0  0  0  0  0  0  0
  151.9201  141.6613  158.1762 O   0  0  0  0  0  0  0  0  0  0  0  0
  150.8549  143.7975  158.3560 C   0  0  2  0  0  0  0  0  0  0  0  0
  152.1022  144.6905  158.4071 C   0  0  0  0  0  0  0  0  0  0  0  0
  151.8849  145.4717  159.6836 C   0  0  0  0  0  0  0  0  0  0  0  0
  151.2476  144.4194  160.5814 C   0  0  0  0  0  0  0  0  0  0  0  0
  150.4432  143.6266  159.7153 O   0  0  0  0  0  0  0  0  0  0  0  0
  146.3727  142.2939  154.2326 H   0  0  0  0  0  0  0  0  0  0  0  0
  146.5869  140.5493  154.3229 H   0  0  0  0  0  0  0  0  0  0  0  0
  147.3979  141.4891  153.0494 H   0  0  0  0  0  0  0  0  0  0  0  0
  150.0032  137.9461  153.4798 H   0  0  0  0  0  0  0  0  0  0  0  0
  152.0718  138.1861  154.8739 H   0  0  0  0  0  0  0  0  0  0  0  0
  152.2962  140.1582  156.3575 H   0  0  0  0  0  0  0  0  0  0  0  0
  149.8134  142.9503  156.2421 H   0  0  0  0  0  0  0  0  0  0  0  0
  150.0516  144.3139  157.8290 H   0  0  0  0  0  0  0  0  0  0  0  0
  153.0150  144.0974  158.4888 H   0  0  0  0  0  0  0  0  0  0  0  0
  152.1938  145.3361  157.5332 H   0  0  0  0  0  0  0  0  0  0  0  0
  152.8051  145.8861  160.0965 H   0  0  0  0  0  0  0  0  0  0  0  0
  151.1862  146.2908  159.5085 H   0  0  0  0  0  0  0  0  0  0  0  0
  152.0147  143.7840  161.0259 H   0  0  0  0  0  0  0  0  0  0  0  0
  150.6577  144.8556  161.3877 H   0  0  0  0  0  0  0  0  0  0  0  0
  1  2  1  0  0  0  0
  1 17  1  0  0  0  0
  1 18  1  0  0  0  0
  1 19  1  0  0  0  0
  2  3  1  0  0  0  0
  3  8  1  0  0  0  0
  3  4  2  0  0  0  0
  4  5  1  0  0  0  0
  5  6  2  0  0  0  0
  5 20  1  0  0  0  0
  6  7  1  0  0  0  0
  6 21  1  0  0  0  0
  7  8  2  0  0  0  0
  7 22  1  0  0  0  0
  8  9  1  0  0  0  0
  9 10  1  0  0  0  0
  9 23  1  0  0  0  0
 10 11  2  0  0  0  0
 10 12  1  0  0  0  0
 12 16  1  0  0  0  0
 12 13  1  0  0  0  0
 12 24  1  0  0  0  0
 13 14  1  0  0  0  0
 13 25  1  0  0  0  0
 13 26  1  0  0  0  0
 14 15  1  0  0  0  0
 14 27  1  0  0  0  0
 14 28  1  0  0  0  0
 15 16  1  0  0  0  0
 15 29  1  0  0  0  0
 15 30  1  0  0  0  0
M  END
> <s_m_source_file>
AV-unprocessed.smi

> <i_m_source_file_index>
2085

> <i_lp_mmshare_version>
43012

> <i_f3d_flags>
0

> <s_epik_input>
W0NIM11PYzFuW2NIXVtjSF1bY0hdYzFbTkhdQyg9TylbQ0BASF0yW0NIMl1bQ0gyXVtDSDJdTzI=

> <s_epik_cmdline>
J2VwaWtfcHl0aG9uJywgJy1waCcsICc3LjAnLCAnLXRuJywgJzgnLCAnLW1hJywgJzIwMCcsICctbWV0YWxfYmluZGluZycsICctaW1hZScsICc8aW5maWxlLm1hZT4nLCAnLW9tYWUnLCAnPG91dGZpbGUubWFlPic=

> <r_lp_tautomer_probability>
1

> <r_epik_Ionization_Penalty>
2.59253e-05

> <r_epik_Ionization_Penalty_Charging>
0

> <r_epik_Ionization_Penalty_Neutral>
2.59253e-05

> <r_epik_State_Penalty>
-0

> <r_epik_Charging_Adjusted_Penalty>
0

> <i_epik_Tot_Q>
0

> <i_epik_Tot_abs_Q>
0

> <r_epik_Metal_State_Penalty>
-0

> <b_epik_Metal_Only>
0

> <s_lp_Force_Field>
OPLS_2005

> <r_lp_Energy>
24.0215

> <b_lp_Chiralities_Consistent>
1

> <s_lp_Variant>
AV-unprocessed.smi:2085-1

> <Gold.Version>
5.8.1

> <Gold.Id.Protein>
6NUR|6NUR_protein|mol2

> <Gold.PLP.Fitness>
43.2963

> <Gold.PLP.PLP>
-37.7852

> <Gold.PLP.part.hbond>
-1.3288

> <Gold.PLP.part.metal>
0.0000

> <Gold.PLP.part.buried>
-6.3449

> <Gold.PLP.part.nonpolar>
-32.8655

> <Gold.PLP.part.repulsive>
1.4785

> <Gold.PLP.ligand.clash>
0.0000

> <Gold.PLP.ligand.torsion>
0.1198

> <Gold.PLP.Chemscore.Hbond>
0.9263

> <Gold.PLP.Chemscore.CHOScore>
0.9882

> <Gold.PLP.Chemscore.Metal>
0.0000

> <Gold.Chemscore.Hbonds>
donor molecule, donor type, donor heavy atom, donor atom, acceptor molecule, acceptor atom, score
      L1  H     9    23       P1  8028  0.88
      L1  C     5    20       P1  7948  0.98

> <Gold.PLP.Chemscore.Internal.Correction>
0.0072

> <Gold.Rescore>
     Score         DG    S(hbond)    S(metal)    S(lipo)     H(rot)  DE(clash)    DE(int)     intcor
     14.06     -15.35       0.93        0.00      84.80       1.24       0.03       1.27       ----

> <Gold.Chemscore.Fitness>
14.0613

> <Gold.Chemscore.DG>
-15.3542

> <Gold.Chemscore.ZeroCoef>
-5.4800

> <Gold.Chemscore.Hbond>
0.9347

> <Gold.Chemscore.Metal>
0.0000

> <Gold.Chemscore.Lipo>
84.8025

> <Gold.Chemscore.Internal_Hbond>
0.0000

> <Gold.Chemscore.DEClash>
0.0256

> <Gold.Chemscore.DEInternal>
1.2674

> <Gold.Chemscore.Rot>
1.2381

> <Gold.Chemscore.Internal.Correction>
   9.000000E+99

> <Gold.Chemscore.Hbonds>
donor molecule, donor type, donor heavy atom, donor atom, acceptor molecule, acceptor atom, score
      L1  H     9    23       P1  8028  0.86

> <Gold.Chemscore.Hbond.Weighted>
-3.1218

> <Gold.Chemscore.Metal.Weighted>
-0.0000

> <Gold.Chemscore.Lipo.Weighted>
-9.9219

> <Gold.Chemscore.Internal_Hbond.Weighted>
0.0000

> <Gold.Chemscore.DEClash.Weighted>
0.0256

> <Gold.Chemscore.DEInternal.Weighted>
1.2674

> <Gold.Chemscore.Rot.Weighted>
3.1694

> <Gold.Chemscore.Internal.Correction.Weighted>
   9.000000E+99

> <Gold.Protein.RotatedTorsions>
[ 6907 6896 6895 6894 ] final  144.38 input  -60.11 | X-H torsion
[ 7974 7965 7964 7962 ] final  148.05 input  175.53 | X-H torsion
[ 8008 7997 7996 7995 ] final  121.14 input   59.86 | X-H torsion
[ 10167 10162 10161 10158 ] final  142.78 input  -65.29 | X-H torsion
[ 10718 10713 10712 10709 ] final   77.01 input   66.30 | X-H torsion
[ 10763 10752 10751 10750 ] final -106.59 input  -60.55 | X-H torsion
[ 11005 11000 10999 10996 ] final -152.12 input  -57.11 | X-H torsion

> <Gold.Protein.ActiveResidues>
 VAL166  LYS551  ARG553  GLY616  TRP617  ASP618  TYR619  PRO620  LYS621  CYS622 
 ASP623  PHE694  ASN695  SER759  ASP760  ASP761  ALA762  ILE779  LEU786  VAL792 
 PHE793  MET794  SER795  GLU796  ALA797  LYS798  CYS799  TRP800  GLU811  SER814 

> <Gold.Protein.RotatedAtoms>
  152.1943  133.4795  159.5024 H   0  0  0  0  0  0  0  0  0  0  0  0  # atno 6907 bound_to 6896
  150.6957  134.1672  159.4207 H   0  0  0  0  0  0  0  0  0  0  0  0  # atno 6908 bound_to 6896
  151.9587  135.0134  160.0597 H   0  0  0  0  0  0  0  0  0  0  0  0  # atno 6909 bound_to 6896
  144.8544  139.6105  143.5959 H   0  0  0  0  0  0  0  0  0  0  0  0  # atno 7974 bound_to 7965
  156.2674  140.2815  156.1261 H   0  0  0  0  0  0  0  0  0  0  0  0  # atno 8008 bound_to 7997
  155.1104  140.0391  157.2740 H   0  0  0  0  0  0  0  0  0  0  0  0  # atno 8009 bound_to 7997
  154.6747  140.2595  155.6976 H   0  0  0  0  0  0  0  0  0  0  0  0  # atno 8010 bound_to 7997
  139.4985  144.6084  151.6327 H   0  0  0  0  0  0  0  0  0  0  0  0  # atno 10167 bound_to 10162
  157.6695  130.9801  150.1579 H   0  0  0  0  0  0  0  0  0  0  0  0  # atno 10718 bound_to 10713
  154.8022  135.4706  154.0303 H   0  0  0  0  0  0  0  0  0  0  0  0  # atno 10763 bound_to 10752
  153.1800  135.6839  153.8498 H   0  0  0  0  0  0  0  0  0  0  0  0  # atno 10764 bound_to 10752
  153.8052  135.3224  155.3372 H   0  0  0  0  0  0  0  0  0  0  0  0  # atno 10765 bound_to 10752
  140.7223  134.3714  157.5181 H   0  0  0  0  0  0  0  0  0  0  0  0  # atno 11005 bound_to 11000
  146.2811  139.6879  142.9228 LP  0  0  0  0  0  0  0  0  0  0  0  0  # atno 17320 bound_to 7965
  145.4436  141.0424  143.2843 LP  0  0  0  0  0  0  0  0  0  0  0  0  # atno 17321 bound_to 7965
  140.5752  144.0041  150.6238 LP  0  0  0  0  0  0  0  0  0  0  0  0  # atno 17342 bound_to 10162
  140.3171  143.3160  152.0821 LP  0  0  0  0  0  0  0  0  0  0  0  0  # atno 17343 bound_to 10162
  156.2363  130.3686  149.8388 LP  0  0  0  0  0  0  0  0  0  0  0  0  # atno 17370 bound_to 10713
  156.6200  130.8622  151.3473 LP  0  0  0  0  0  0  0  0  0  0  0  0  # atno 17371 bound_to 10713
  139.8845  134.8963  156.2698 LP  0  0  0  0  0  0  0  0  0  0  0  0  # atno 17394 bound_to 11000
  140.9993  133.7161  156.0935 LP  0  0  0  0  0  0  0  0  0  0  0  0  # atno 17395 bound_to 11000

$$$$
