AV-unprocessed.smi:598|AV-procd|sdf|3024|dock1
  -GOLD-   2262023533D 1   1.00000     0.00000
 Structure written by MMmdl.
 43 44  0  0  0  0  0  0  0  0  3 V2000
  150.3865  143.9182  158.8528 C   0  0  0  0  0  0  0  0  0  0  0  0
  151.8400  143.5177  158.5263 C   0  0  1  0  0  0  0  0  0  0  0  0
  152.7819  143.7801  159.7188 C   0  0  0  0  0  0  0  0  0  0  0  0
  152.5743  142.7678  160.8559 C   0  0  0  0  0  0  0  0  0  0  0  0
  152.7355  141.3283  160.3496 C   0  0  0  0  0  0  0  0  0  0  0  0
  151.8014  141.0270  159.1618 C   0  0  2  0  0  0  0  0  0  0  0  0
  152.0692  139.6662  158.6966 N   0  0  0  0  0  0  0  0  0  0  0  0
  153.2800  139.1052  158.5528 C   0  0  0  0  0  0  0  0  0  0  0  0
  154.3322  139.6803  158.8344 O   0  0  0  0  0  0  0  0  0  0  0  0
  153.2899  137.6615  158.0304 C   0  0  0  0  0  0  0  0  0  0  0  0
  152.4597  137.4713  156.8288 N   0  0  0  0  0  0  0  0  0  0  0  0
  151.5918  136.3614  156.8181 C   0  0  0  0  0  0  0  0  0  0  0  0
  150.7913  136.0886  155.7690 C   0  0  0  0  0  0  0  0  0  0  0  0
  149.9070  134.9439  155.7746 N   0  3  0  0  0  0  0  0  0  0  0  0
  149.2464  134.7061  154.7687 O   0  0  0  0  0  0  0  0  0  0  0  0
  149.8418  134.2465  156.7825 O   0  5  0  0  0  0  0  0  0  0  0  0
  150.8467  136.9822  154.6283 C   0  0  0  0  0  0  0  0  0  0  0  0
  151.6765  138.0441  154.6315 C   0  0  0  0  0  0  0  0  0  0  0  0
  152.5465  138.3393  155.7745 C   0  0  0  0  0  0  0  0  0  0  0  0
  153.3071  139.3074  155.7833 O   0  0  0  0  0  0  0  0  0  0  0  0
  151.9988  142.0590  158.0186 C   0  0  1  0  0  0  0  0  0  0  0  0
  151.1230  141.7728  156.7824 C   0  0  0  0  0  0  0  0  0  0  0  0
  149.9426  143.2778  159.6142 H   0  0  0  0  0  0  0  0  0  0  0  0
  149.7498  143.8705  157.9698 H   0  0  0  0  0  0  0  0  0  0  0  0
  150.3401  144.9435  159.2205 H   0  0  0  0  0  0  0  0  0  0  0  0
  152.1635  144.1793  157.7214 H   0  0  0  0  0  0  0  0  0  0  0  0
  153.8164  143.7228  159.3775 H   0  0  0  0  0  0  0  0  0  0  0  0
  152.6451  144.7950  160.0937 H   0  0  0  0  0  0  0  0  0  0  0  0
  153.2900  142.9592  161.6559 H   0  0  0  0  0  0  0  0  0  0  0  0
  151.5848  142.8954  161.2955 H   0  0  0  0  0  0  0  0  0  0  0  0
  153.7733  141.1697  160.0523 H   0  0  0  0  0  0  0  0  0  0  0  0
  152.5396  140.6307  161.1649 H   0  0  0  0  0  0  0  0  0  0  0  0
  150.7739  141.0959  159.5219 H   0  0  0  0  0  0  0  0  0  0  0  0
  151.2636  139.1098  158.4493 H   0  0  0  0  0  0  0  0  0  0  0  0
  154.3251  137.3808  157.8310 H   0  0  0  0  0  0  0  0  0  0  0  0
  152.9600  136.9873  158.8231 H   0  0  0  0  0  0  0  0  0  0  0  0
  151.6294  135.7543  157.7113 H   0  0  0  0  0  0  0  0  0  0  0  0
  150.2257  136.8059  153.7626 H   0  0  0  0  0  0  0  0  0  0  0  0
  151.7029  138.6959  153.7704 H   0  0  0  0  0  0  0  0  0  0  0  0
  153.0329  141.9650  157.6824 H   0  0  0  0  0  0  0  0  0  0  0  0
  150.0670  141.7072  157.0452 H   0  0  0  0  0  0  0  0  0  0  0  0
  151.3997  140.8320  156.3067 H   0  0  0  0  0  0  0  0  0  0  0  0
  151.2344  142.5554  156.0314 H   0  0  0  0  0  0  0  0  0  0  0  0
  1  2  1  0  0  0  0
  1 23  1  0  0  0  0
  1 24  1  0  0  0  0
  1 25  1  0  0  0  0
  2 21  1  0  0  0  0
  2  3  1  0  0  0  0
  2 26  1  0  0  0  0
  3  4  1  0  0  0  0
  3 27  1  0  0  0  0
  3 28  1  0  0  0  0
  4  5  1  0  0  0  0
  4 29  1  0  0  0  0
  4 30  1  0  0  0  0
  5  6  1  0  0  0  0
  5 31  1  0  0  0  0
  5 32  1  0  0  0  0
  6  7  1  0  0  0  0
  6 21  1  0  0  0  0
  6 33  1  0  0  0  0
  7  8  1  0  0  0  0
  7 34  1  0  0  0  0
  8  9  2  0  0  0  0
  8 10  1  0  0  0  0
 10 11  1  0  0  0  0
 10 35  1  0  0  0  0
 10 36  1  0  0  0  0
 11 19  1  0  0  0  0
 11 12  1  0  0  0  0
 12 13  2  0  0  0  0
 12 37  1  0  0  0  0
 13 14  1  0  0  0  0
 13 17  1  0  0  0  0
 14 15  2  0  0  0  0
 14 16  1  0  0  0  0
 17 18  2  0  0  0  0
 17 38  1  0  0  0  0
 18 19  1  0  0  0  0
 18 39  1  0  0  0  0
 19 20  2  0  0  0  0
 21 22  1  0  0  0  0
 21 40  1  0  0  0  0
 22 41  1  0  0  0  0
 22 42  1  0  0  0  0
 22 43  1  0  0  0  0
M  CHG  1  14   1
M  CHG  1  16  -1
M  END
> <s_m_source_file>
AV-unprocessed.smi

> <i_m_source_file_index>
598

> <i_lp_mmshare_version>
43012

> <i_f3d_flags>
0

> <s_epik_input>
W0NIM11bQ0BASF0xW0NIMl1bQ0gyXVtDSDJdW0NASF0oW0NASF0xW0NIM10pW05IXUMoPU8pW0NIMl1uMltjSF1jKFtOK10oPU8pW08tXSlbY0hdW2NIXWMyPU8=

> <s_epik_cmdline>
J2VwaWtfcHl0aG9uJywgJy1waCcsICc3LjAnLCAnLXRuJywgJzgnLCAnLW1hJywgJzIwMCcsICctbWV0YWxfYmluZGluZycsICctaW1hZScsICc8aW5maWxlLm1hZT4nLCAnLW9tYWUnLCAnPG91dGZpbGUubWFlPic=

> <r_lp_tautomer_probability>
1

> <r_epik_Ionization_Penalty>
1.91291e-08

> <r_epik_Ionization_Penalty_Charging>
8.21931e-11

> <r_epik_Ionization_Penalty_Neutral>
1.90469e-08

> <r_epik_State_Penalty>
-0

> <r_epik_Charging_Adjusted_Penalty>
8.21931e-11

> <i_epik_Tot_Q>
0

> <i_epik_Tot_abs_Q>
2

> <r_epik_Metal_State_Penalty>
-0

> <b_epik_Metal_Only>
0

> <s_lp_Force_Field>
OPLS_2005

> <r_lp_Energy>
25.417

> <b_lp_Chiralities_Consistent>
1

> <s_lp_Variant>
AV-unprocessed.smi:598-4

> <Gold.Version>
5.8.1

> <Gold.Id.Protein>
6NUR|6NUR_protein|mol2

> <Gold.PLP.Fitness>
42.2745

> <Gold.PLP.PLP>
-37.7554

> <Gold.PLP.part.hbond>
-1.8712

> <Gold.PLP.part.metal>
0.0000

> <Gold.PLP.part.buried>
-5.4469

> <Gold.PLP.part.nonpolar>
-30.5157

> <Gold.PLP.part.repulsive>
0.2357

> <Gold.PLP.ligand.clash>
0.0099

> <Gold.PLP.ligand.torsion>
0.5356

> <Gold.PLP.Chemscore.Hbond>
1.8560

> <Gold.PLP.Chemscore.CHOScore>
0.0000

> <Gold.PLP.Chemscore.Metal>
0.0000

> <Gold.Chemscore.Hbonds>
donor molecule, donor type, donor heavy atom, donor atom, acceptor molecule, acceptor atom, score
      P1  H  7997  8008       L1     9  0.96
      P1  H  7997  8009       L1    20  0.79

> <Gold.PLP.Chemscore.Internal.Correction>
0.0322

> <Gold.Rescore>
     Score         DG    S(hbond)    S(metal)    S(lipo)     H(rot)  DE(clash)    DE(int)     intcor
     16.28     -19.41       1.84        0.00     100.07       1.54       0.03       3.10       ----

> <Gold.Chemscore.Fitness>
16.2791

> <Gold.Chemscore.DG>
-19.4083

> <Gold.Chemscore.ZeroCoef>
-5.4800

> <Gold.Chemscore.Hbond>
1.8445

> <Gold.Chemscore.Metal>
0.0000

> <Gold.Chemscore.Lipo>
100.0720

> <Gold.Chemscore.Internal_Hbond>
0.0000

> <Gold.Chemscore.DEClash>
0.0251

> <Gold.Chemscore.DEInternal>
3.1042

> <Gold.Chemscore.Rot>
1.5393

> <Gold.Chemscore.Internal.Correction>
   9.000000E+99

> <Gold.Chemscore.Hbonds>
donor molecule, donor type, donor heavy atom, donor atom, acceptor molecule, acceptor atom, score
      P1  H  7997  8008       L1     9  0.69
      P1  H  7997  8009       L1    20  0.74

> <Gold.Chemscore.Hbond.Weighted>
-6.1606

> <Gold.Chemscore.Metal.Weighted>
-0.0000

> <Gold.Chemscore.Lipo.Weighted>
-11.7084

> <Gold.Chemscore.Internal_Hbond.Weighted>
0.0000

> <Gold.Chemscore.DEClash.Weighted>
0.0251

> <Gold.Chemscore.DEInternal.Weighted>
3.1042

> <Gold.Chemscore.Rot.Weighted>
3.9407

> <Gold.Chemscore.Internal.Correction.Weighted>
   9.000000E+99

> <Gold.Protein.RotatedTorsions>
[ 6907 6896 6895 6894 ] final  178.38 input  -60.11 | X-H torsion
[ 7974 7965 7964 7962 ] final   92.27 input  175.53 | X-H torsion
[ 8008 7997 7996 7995 ] final -130.10 input   59.86 | X-H torsion
[ 10167 10162 10161 10158 ] final   20.48 input  -65.29 | X-H torsion
[ 10718 10713 10712 10709 ] final  115.90 input   66.30 | X-H torsion
[ 10763 10752 10751 10750 ] final  -55.77 input  -60.55 | X-H torsion
[ 11005 11000 10999 10996 ] final   96.34 input  -57.11 | X-H torsion

> <Gold.Protein.ActiveResidues>
 VAL166  LYS551  ARG553  GLY616  TRP617  ASP618  TYR619  PRO620  LYS621  CYS622 
 ASP623  PHE694  ASN695  SER759  ASP760  ASP761  ALA762  ILE779  LEU786  VAL792 
 PHE793  MET794  SER795  GLU796  ALA797  LYS798  CYS799  TRP800  GLU811  SER814 

> <Gold.Protein.RotatedAtoms>
  151.6888  133.3311  159.3237 H   0  0  0  0  0  0  0  0  0  0  0  0  # atno 6907 bound_to 6896
  150.7788  134.6716  159.6404 H   0  0  0  0  0  0  0  0  0  0  0  0  # atno 6908 bound_to 6896
  152.3839  134.6550  160.0185 H   0  0  0  0  0  0  0  0  0  0  0  0  # atno 6909 bound_to 6896
  145.4945  139.2276  143.2811 H   0  0  0  0  0  0  0  0  0  0  0  0  # atno 7974 bound_to 7965
  155.2901  140.0448  157.3022 H   0  0  0  0  0  0  0  0  0  0  0  0  # atno 8008 bound_to 7997
  154.5546  140.2328  155.8398 H   0  0  0  0  0  0  0  0  0  0  0  0  # atno 8009 bound_to 7997
  156.1996  140.3029  155.9506 H   0  0  0  0  0  0  0  0  0  0  0  0  # atno 8010 bound_to 7997
  140.5500  143.9526  150.6572 H   0  0  0  0  0  0  0  0  0  0  0  0  # atno 10167 bound_to 10162
  157.6194  131.1018  150.7395 H   0  0  0  0  0  0  0  0  0  0  0  0  # atno 10718 bound_to 10713
  154.1961  135.6419  153.5073 H   0  0  0  0  0  0  0  0  0  0  0  0  # atno 10763 bound_to 10752
  153.0023  135.5440  154.6364 H   0  0  0  0  0  0  0  0  0  0  0  0  # atno 10764 bound_to 10752
  154.5766  135.2921  155.0748 H   0  0  0  0  0  0  0  0  0  0  0  0  # atno 10765 bound_to 10752
  139.8782  134.8946  156.4145 H   0  0  0  0  0  0  0  0  0  0  0  0  # atno 11005 bound_to 11000
  146.2264  140.5741  142.8994 LP  0  0  0  0  0  0  0  0  0  0  0  0  # atno 17320 bound_to 7965
  144.7815  140.5850  143.6602 LP  0  0  0  0  0  0  0  0  0  0  0  0  # atno 17321 bound_to 7965
  140.2949  143.3299  152.1027 LP  0  0  0  0  0  0  0  0  0  0  0  0  # atno 17342 bound_to 10162
  139.5023  144.6732  151.6191 LP  0  0  0  0  0  0  0  0  0  0  0  0  # atno 17343 bound_to 10162
  156.7756  130.4843  149.5410 LP  0  0  0  0  0  0  0  0  0  0  0  0  # atno 17370 bound_to 10713
  156.1332  130.6192  151.0362 LP  0  0  0  0  0  0  0  0  0  0  0  0  # atno 17371 bound_to 10713
  140.9177  133.7667  155.9868 LP  0  0  0  0  0  0  0  0  0  0  0  0  # atno 17394 bound_to 11000
  140.8475  134.2994  157.5289 LP  0  0  0  0  0  0  0  0  0  0  0  0  # atno 17395 bound_to 11000

$$$$
