AV-unprocessed.smi:2232|AV-procd|sdf|9038|dock8
  -GOLD-   2272012243D 1   1.00000     0.00000
 Structure written by MMmdl.
 42 43  0  0  0  0  0  0  0  0  1 V2000
  144.1018  132.8611  149.7671 C   0  0  0  0  0  0  0  0  0  0  0  0
  145.1162  132.3321  150.7592 C   0  0  0  0  0  0  0  0  0  0  0  0
  145.1316  130.9717  151.1213 C   0  0  0  0  0  0  0  0  0  0  0  0
  146.1014  130.5412  152.0477 C   0  0  0  0  0  0  0  0  0  0  0  0
  146.1758  129.0918  152.4797 C   0  0  0  0  0  0  0  0  0  0  0  0
  147.0097  131.3716  152.6029 N   0  0  0  0  0  0  0  0  0  0  0  0
  147.0039  132.6843  152.2623 C   0  0  0  0  0  0  0  0  0  0  0  0
  147.9192  133.6371  152.7834 N   0  0  0  0  0  0  0  0  0  0  0  0
  148.6806  133.5395  153.8877 C   0  0  0  0  0  0  0  0  0  0  0  0
  148.6880  132.5856  154.6668 O   0  0  0  0  0  0  0  0  0  0  0  0
  149.4476  134.6279  154.0465 N   0  0  0  0  0  0  0  0  0  0  0  0
  150.3846  134.8385  155.1436 C   0  0  0  0  0  0  0  0  0  0  0  0
  150.0244  136.0960  155.9577 C   0  0  0  0  0  0  0  0  0  0  0  0
  150.9917  137.1885  155.8654 N   0  0  0  0  0  0  0  0  0  0  0  0
  150.4984  138.4296  156.4598 C   0  0  0  0  0  0  0  0  0  0  0  0
  151.5130  139.5788  156.3211 C   0  0  0  0  0  0  0  0  0  0  0  0
  151.8438  139.7649  154.9490 O   0  0  0  0  0  0  0  0  0  0  0  0
  152.3779  138.5886  154.3507 C   0  0  0  0  0  0  0  0  0  0  0  0
  151.3602  137.4420  154.4765 C   0  0  0  0  0  0  0  0  0  0  0  0
  146.0659  133.1976  151.3384 C   0  0  0  0  0  0  0  0  0  0  0  0
  143.4948  132.0553  149.3529 H   0  0  0  0  0  0  0  0  0  0  0  0
  144.6063  133.3652  148.9427 H   0  0  0  0  0  0  0  0  0  0  0  0
  143.4364  133.5757  150.2522 H   0  0  0  0  0  0  0  0  0  0  0  0
  144.4201  130.2766  150.6999 H   0  0  0  0  0  0  0  0  0  0  0  0
  145.5324  128.4629  151.8637 H   0  0  0  0  0  0  0  0  0  0  0  0
  145.8596  128.9904  153.5180 H   0  0  0  0  0  0  0  0  0  0  0  0
  147.1968  128.7190  152.3928 H   0  0  0  0  0  0  0  0  0  0  0  0
  148.0092  134.4888  152.2498 H   0  0  0  0  0  0  0  0  0  0  0  0
  149.3779  135.3648  153.3600 H   0  0  0  0  0  0  0  0  0  0  0  0
  150.3525  133.9481  155.7703 H   0  0  0  0  0  0  0  0  0  0  0  0
  151.4024  134.9124  154.7565 H   0  0  0  0  0  0  0  0  0  0  0  0
  149.0584  136.4586  155.6033 H   0  0  0  0  0  0  0  0  0  0  0  0
  149.8746  135.8251  157.0042 H   0  0  0  0  0  0  0  0  0  0  0  0
  149.5595  138.7197  155.9856 H   0  0  0  0  0  0  0  0  0  0  0  0
  150.2828  138.2843  157.5178 H   0  0  0  0  0  0  0  0  0  0  0  0
  151.0937  140.5046  156.7155 H   0  0  0  0  0  0  0  0  0  0  0  0
  152.4170  139.3676  156.8943 H   0  0  0  0  0  0  0  0  0  0  0  0
  152.5971  138.7885  153.3019 H   0  0  0  0  0  0  0  0  0  0  0  0
  153.3212  138.3231  154.8308 H   0  0  0  0  0  0  0  0  0  0  0  0
  151.7822  136.5384  154.0350 H   0  0  0  0  0  0  0  0  0  0  0  0
  150.4697  137.6859  153.8952 H   0  0  0  0  0  0  0  0  0  0  0  0
  146.0718  134.2455  151.0747 H   0  0  0  0  0  0  0  0  0  0  0  0
  1  2  1  0  0  0  0
  1 21  1  0  0  0  0
  1 22  1  0  0  0  0
  1 23  1  0  0  0  0
  2 20  1  0  0  0  0
  2  3  2  0  0  0  0
  3  4  1  0  0  0  0
  3 24  1  0  0  0  0
  4  5  1  0  0  0  0
  4  6  2  0  0  0  0
  5 25  1  0  0  0  0
  5 26  1  0  0  0  0
  5 27  1  0  0  0  0
  6  7  1  0  0  0  0
  7  8  1  0  0  0  0
  7 20  2  0  0  0  0
  8  9  1  0  0  0  0
  8 28  1  0  0  0  0
  9 10  2  0  0  0  0
  9 11  1  0  0  0  0
 11 12  1  0  0  0  0
 11 29  1  0  0  0  0
 12 13  1  0  0  0  0
 12 30  1  0  0  0  0
 12 31  1  0  0  0  0
 13 14  1  0  0  0  0
 13 32  1  0  0  0  0
 13 33  1  0  0  0  0
 14 19  1  0  0  0  0
 14 15  1  0  0  0  0
 15 16  1  0  0  0  0
 15 34  1  0  0  0  0
 15 35  1  0  0  0  0
 16 17  1  0  0  0  0
 16 36  1  0  0  0  0
 16 37  1  0  0  0  0
 17 18  1  0  0  0  0
 18 19  1  0  0  0  0
 18 38  1  0  0  0  0
 18 39  1  0  0  0  0
 19 40  1  0  0  0  0
 19 41  1  0  0  0  0
 20 42  1  0  0  0  0
M  END
> <s_m_source_file>
AV-unprocessed.smi

> <i_m_source_file_index>
2232

> <i_lp_mmshare_version>
43012

> <i_f3d_flags>
0

> <s_epik_input>
W0NIM11jMVtjSF1jKFtDSDNdKW5jKFtjSF0xKVtOSF1DKD1PKVtOSF1bQ0gyXVtDSDJdTjJbQ0gyXVtDSDJdT1tDSDJdW0NIMl0y

> <s_epik_cmdline>
J2VwaWtfcHl0aG9uJywgJy1waCcsICc3LjAnLCAnLXRuJywgJzgnLCAnLW1hJywgJzIwMCcsICctbWV0YWxfYmluZGluZycsICctaW1hZScsICc8aW5maWxlLm1hZT4nLCAnLW9tYWUnLCAnPG91dGZpbGUubWFlPic=

> <r_epik_Ionization_Penalty>
0.26623

> <r_epik_Ionization_Penalty_Charging>
0

> <r_epik_Ionization_Penalty_Neutral>
0.26623

> <r_epik_State_Penalty>
0.257924

> <r_epik_Charging_Adjusted_Penalty>
0.257924

> <i_epik_Tot_Q>
0

> <i_epik_Tot_abs_Q>
0

> <r_epik_Metal_State_Penalty>
0.257909

> <b_epik_Metal_Only>
0

> <s_lp_Force_Field>
OPLS_2005

> <r_lp_Energy>
21.9386

> <b_lp_Chiralities_Consistent>
1

> <s_lp_Variant>
AV-unprocessed.smi:2232-1

> <Gold.Version>
5.8.1

> <Gold.Id.Protein>
6NUR|6NUR_protein|mol2

> <Gold.PLP.Fitness>
44.9055

> <Gold.PLP.PLP>
-37.0464

> <Gold.PLP.part.hbond>
-3.0000

> <Gold.PLP.part.metal>
0.0000

> <Gold.PLP.part.buried>
-6.5800

> <Gold.PLP.part.nonpolar>
-27.3986

> <Gold.PLP.part.repulsive>
0.2551

> <Gold.PLP.ligand.clash>
0.0000

> <Gold.PLP.ligand.torsion>
0.4989

> <Gold.PLP.Chemscore.Hbond>
2.9500

> <Gold.PLP.Chemscore.CHOScore>
0.0000

> <Gold.PLP.Chemscore.Metal>
0.0000

> <Gold.Chemscore.Hbonds>
donor molecule, donor type, donor heavy atom, donor atom, acceptor molecule, acceptor atom, score
      L1  H     8    28       P1  7948  1.00
      L1  H    11    29       P1  7948  0.80
      P1  H  7989  7998       L1    17  0.99

> <Gold.PLP.Chemscore.Internal.Correction>
0.0070

> <Gold.Rescore>
     Score         DG    S(hbond)    S(metal)    S(lipo)     H(rot)  DE(clash)    DE(int)     intcor
     18.07     -20.15       2.59        0.00      83.00       1.44       0.07       2.02       ----

> <Gold.Chemscore.Fitness>
18.0662

> <Gold.Chemscore.DG>
-20.1539

> <Gold.Chemscore.ZeroCoef>
-5.4800

> <Gold.Chemscore.Hbond>
2.5920

> <Gold.Chemscore.Metal>
0.0000

> <Gold.Chemscore.Lipo>
83.0048

> <Gold.Chemscore.Internal_Hbond>
0.0000

> <Gold.Chemscore.DEClash>
0.0668

> <Gold.Chemscore.DEInternal>
2.0209

> <Gold.Chemscore.Rot>
1.4433

> <Gold.Chemscore.Internal.Correction>
   9.000000E+99

> <Gold.Chemscore.Hbonds>
donor molecule, donor type, donor heavy atom, donor atom, acceptor molecule, acceptor atom, score
      L1  H     8    28       P1  7948  0.24
      L1  H    11    29       P1  7948  0.12
      P1  H  7989  7998       L1    17  0.28

> <Gold.Chemscore.Hbond.Weighted>
-8.6572

> <Gold.Chemscore.Metal.Weighted>
-0.0000

> <Gold.Chemscore.Lipo.Weighted>
-9.7116

> <Gold.Chemscore.Internal_Hbond.Weighted>
0.0000

> <Gold.Chemscore.DEClash.Weighted>
0.0668

> <Gold.Chemscore.DEInternal.Weighted>
2.0209

> <Gold.Chemscore.Rot.Weighted>
3.6948

> <Gold.Chemscore.Internal.Correction.Weighted>
   9.000000E+99

> <Gold.Protein.RotatedTorsions>
[ 6907 6896 6895 6894 ] final  131.16 input  -60.11 | X-H torsion
[ 7974 7965 7964 7962 ] final   71.96 input  175.53 | X-H torsion
[ 8008 7997 7996 7995 ] final  -19.17 input   59.86 | X-H torsion
[ 10167 10162 10161 10158 ] final  -80.70 input  -65.29 | X-H torsion
[ 10718 10713 10712 10709 ] final  -31.03 input   66.30 | X-H torsion
[ 10763 10752 10751 10750 ] final  -41.34 input  -60.55 | X-H torsion
[ 11005 11000 10999 10996 ] final  177.58 input  -57.11 | X-H torsion

> <Gold.Protein.ActiveResidues>
 VAL166  LYS551  ARG553  GLY616  TRP617  ASP618  TYR619  PRO620  LYS621  CYS622 
 ASP623  PHE694  ASN695  SER759  ASP760  ASP761  ALA762  ILE779  LEU786  VAL792 
 PHE793  MET794  SER795  GLU796  ALA797  LYS798  CYS799  TRP800  GLU811  SER814 

> <Gold.Protein.RotatedAtoms>
  152.3453  133.6115  159.5905 H   0  0  0  0  0  0  0  0  0  0  0  0  # atno 6907 bound_to 6896
  150.7504  133.9658  159.3539 H   0  0  0  0  0  0  0  0  0  0  0  0  # atno 6908 bound_to 6896
  151.7517  135.0832  160.0383 H   0  0  0  0  0  0  0  0  0  0  0  0  # atno 6909 bound_to 6896
  145.7594  139.2794  143.1385 H   0  0  0  0  0  0  0  0  0  0  0  0  # atno 7974 bound_to 7965
  154.4855  140.2096  155.9665 H   0  0  0  0  0  0  0  0  0  0  0  0  # atno 8008 bound_to 7997
  156.1229  140.3210  155.8204 H   0  0  0  0  0  0  0  0  0  0  0  0  # atno 8009 bound_to 7997
  155.4435  140.0512  157.2999 H   0  0  0  0  0  0  0  0  0  0  0  0  # atno 8010 bound_to 7997
  140.4479  143.2493  151.8532 H   0  0  0  0  0  0  0  0  0  0  0  0  # atno 10167 bound_to 10162
  156.3923  130.4375  149.7385 H   0  0  0  0  0  0  0  0  0  0  0  0  # atno 10718 bound_to 10713
  153.9608  135.6740  153.4745 H   0  0  0  0  0  0  0  0  0  0  0  0  # atno 10763 bound_to 10752
  153.0839  135.4909  154.8554 H   0  0  0  0  0  0  0  0  0  0  0  0  # atno 10764 bound_to 10752
  154.7273  135.3130  154.8909 H   0  0  0  0  0  0  0  0  0  0  0  0  # atno 10765 bound_to 10752
  140.3856  134.6907  157.4477 H   0  0  0  0  0  0  0  0  0  0  0  0  # atno 11005 bound_to 11000
  146.0279  140.8286  142.9890 LP  0  0  0  0  0  0  0  0  0  0  0  0  # atno 17320 bound_to 7965
  144.6833  140.2725  143.7304 LP  0  0  0  0  0  0  0  0  0  0  0  0  # atno 17321 bound_to 7965
  139.4794  144.5154  151.8875 LP  0  0  0  0  0  0  0  0  0  0  0  0  # atno 17342 bound_to 10162
  140.4242  144.2203  150.5887 LP  0  0  0  0  0  0  0  0  0  0  0  0  # atno 17343 bound_to 10162
  156.4434  130.7872  151.2893 LP  0  0  0  0  0  0  0  0  0  0  0  0  # atno 17370 bound_to 10713
  157.7499  131.0118  150.3359 LP  0  0  0  0  0  0  0  0  0  0  0  0  # atno 17371 bound_to 10713
  140.0445  134.6219  155.8938 LP  0  0  0  0  0  0  0  0  0  0  0  0  # atno 17394 bound_to 11000
  141.1908  133.6570  156.5430 LP  0  0  0  0  0  0  0  0  0  0  0  0  # atno 17395 bound_to 11000

$$$$
