AV-unprocessed.smi:910|AV-procd|sdf|4124|dock5
  -GOLD-   22720 2 23D 1   1.00000     0.00000
 Structure written by MMmdl.
 46 47  0  0  0  0  0  0  0  0  1 V2000
  147.4261  133.7246  153.1711 C   0  0  0  0  0  0  0  0  0  0  0  0
  148.7257  133.8821  153.9294 C   0  0  0  0  0  0  0  0  0  0  0  0
  149.2898  135.1069  154.1563 N   0  0  0  0  0  0  0  0  0  0  0  0
  150.4686  134.9183  154.8741 C   0  0  0  0  0  0  0  0  0  0  0  0
  151.3624  135.7375  155.3375 N   0  0  0  0  0  0  0  0  0  0  0  0
  151.2309  137.1015  155.1195 C   0  0  0  0  0  0  0  0  0  0  0  0
  150.4387  137.6863  154.3740 O   0  0  0  0  0  0  0  0  0  0  0  0
  152.1107  137.7751  155.8754 N   0  0  0  0  0  0  0  0  0  0  0  0
  152.2480  139.2271  155.9310 C   0  0  0  0  0  0  0  0  0  0  0  0
  151.6613  139.8062  157.2264 C   0  0  0  0  0  0  0  0  0  0  0  0
  152.5545  140.7855  157.7358 O   0  0  0  0  0  0  0  0  0  0  0  0
  151.9315  141.8188  158.4877 C   0  0  2  0  0  0  0  0  0  0  0  0
  151.3249  142.8612  157.5251 C   0  0  0  0  0  0  0  0  0  0  0  0
  150.7635  144.0722  158.2844 C   0  0  0  0  0  0  0  0  0  0  0  0
  151.8377  144.7094  159.1770 C   0  0  0  0  0  0  0  0  0  0  0  0
  152.4355  143.6757  160.1436 C   0  0  0  0  0  0  0  0  0  0  0  0
  153.0082  142.4554  159.3948 C   0  0  1  0  0  0  0  0  0  0  0  0
  153.5930  141.4347  160.3857 C   0  0  0  0  0  0  0  0  0  0  0  0
  150.5870  133.5645  155.0648 O   0  0  0  0  0  0  0  0  0  0  0  0
  149.5147  132.9625  154.4785 C   0  0  0  0  0  0  0  0  0  0  0  0
  149.4005  131.4562  154.5429 C   0  0  0  0  0  0  0  0  0  0  0  0
  146.6754  133.2515  153.8044 H   0  0  0  0  0  0  0  0  0  0  0  0
  147.5767  133.1002  152.2904 H   0  0  0  0  0  0  0  0  0  0  0  0
  147.0417  134.6919  152.8462 H   0  0  0  0  0  0  0  0  0  0  0  0
  148.8860  135.9758  153.8375 H   0  0  0  0  0  0  0  0  0  0  0  0
  152.7252  137.2393  156.4711 H   0  0  0  0  0  0  0  0  0  0  0  0
  153.3073  139.4755  155.8607 H   0  0  0  0  0  0  0  0  0  0  0  0
  151.7656  139.6790  155.0629 H   0  0  0  0  0  0  0  0  0  0  0  0
  150.6886  140.2522  157.0196 H   0  0  0  0  0  0  0  0  0  0  0  0
  151.5052  139.0126  157.9584 H   0  0  0  0  0  0  0  0  0  0  0  0
  151.1465  141.4066  159.1249 H   0  0  0  0  0  0  0  0  0  0  0  0
  152.0892  143.1971  156.8231 H   0  0  0  0  0  0  0  0  0  0  0  0
  150.5322  142.4135  156.9262 H   0  0  0  0  0  0  0  0  0  0  0  0
  150.3814  144.8094  157.5778 H   0  0  0  0  0  0  0  0  0  0  0  0
  149.9157  143.7603  158.8959 H   0  0  0  0  0  0  0  0  0  0  0  0
  152.6291  145.1300  158.5552 H   0  0  0  0  0  0  0  0  0  0  0  0
  151.4099  145.5405  159.7383 H   0  0  0  0  0  0  0  0  0  0  0  0
  153.2164  144.1464  160.7418 H   0  0  0  0  0  0  0  0  0  0  0  0
  151.6659  143.3497  160.8447 H   0  0  0  0  0  0  0  0  0  0  0  0
  153.8234  142.8050  158.7592 H   0  0  0  0  0  0  0  0  0  0  0  0
  152.8242  141.0450  161.0535 H   0  0  0  0  0  0  0  0  0  0  0  0
  154.3704  141.8879  161.0011 H   0  0  0  0  0  0  0  0  0  0  0  0
  154.0418  140.5868  159.8673 H   0  0  0  0  0  0  0  0  0  0  0  0
  149.0344  131.0607  153.5953 H   0  0  0  0  0  0  0  0  0  0  0  0
  148.7074  131.1641  155.3320 H   0  0  0  0  0  0  0  0  0  0  0  0
  150.3722  131.0076  154.7510 H   0  0  0  0  0  0  0  0  0  0  0  0
  1 22  1  0  0  0  0
  1 23  1  0  0  0  0
  1 24  1  0  0  0  0
  1  2  1  0  0  0  0
  2  3  1  0  0  0  0
  2 20  2  0  0  0  0
  3 25  1  0  0  0  0
  3  4  1  0  0  0  0
  4 19  1  0  0  0  0
  4  5  2  0  0  0  0
  5  6  1  0  0  0  0
  6  8  1  0  0  0  0
  6  7  2  0  0  0  0
  8  9  1  0  0  0  0
  8 26  1  0  0  0  0
  9 10  1  0  0  0  0
  9 27  1  0  0  0  0
  9 28  1  0  0  0  0
 10 11  1  0  0  0  0
 10 29  1  0  0  0  0
 10 30  1  0  0  0  0
 11 12  1  0  0  0  0
 12 17  1  0  0  0  0
 12 13  1  0  0  0  0
 12 31  1  0  0  0  0
 13 14  1  0  0  0  0
 13 32  1  0  0  0  0
 13 33  1  0  0  0  0
 14 15  1  0  0  0  0
 14 34  1  0  0  0  0
 14 35  1  0  0  0  0
 15 16  1  0  0  0  0
 15 36  1  0  0  0  0
 15 37  1  0  0  0  0
 16 17  1  0  0  0  0
 16 38  1  0  0  0  0
 16 39  1  0  0  0  0
 17 18  1  0  0  0  0
 17 40  1  0  0  0  0
 18 41  1  0  0  0  0
 18 42  1  0  0  0  0
 18 43  1  0  0  0  0
 19 20  1  0  0  0  0
 20 21  1  0  0  0  0
 21 44  1  0  0  0  0
 21 45  1  0  0  0  0
 21 46  1  0  0  0  0
M  END
> <s_m_source_file>
AV-unprocessed.smi

> <i_m_source_file_index>
910

> <i_lp_mmshare_version>
43012

> <i_f3d_flags>
0

> <s_epik_input>
W0NIM11jMW5jKG9jMVtDSDNdKVtOSF1DKD1PKVtOSF1bQ0gyXVtDSDJdT1tDQEBIXTJbQ0gyXVtDSDJdW0NIMl1bQ0gyXVtDQEhdMltDSDNd

> <s_epik_cmdline>
J2VwaWtfcHl0aG9uJywgJy1waCcsICc3LjAnLCAnLXRuJywgJzgnLCAnLW1hJywgJzIwMCcsICctbWV0YWxfYmluZGluZycsICctaW1hZScsICc8aW5maWxlLm1hZT4nLCAnLW9tYWUnLCAnPG91dGZpbGUubWFlPic=

> <r_lp_tautomer_probability>
0.107061

> <r_epik_Ionization_Penalty>
0.727192

> <r_epik_Ionization_Penalty_Charging>
0.726719

> <r_epik_Ionization_Penalty_Neutral>
0.000473387

> <r_epik_State_Penalty>
2.53712

> <r_epik_Charging_Adjusted_Penalty>
3.26383

> <i_epik_Tot_Q>
0

> <i_epik_Tot_abs_Q>
0

> <r_epik_Metal_State_Penalty>
3.71015

> <b_epik_Metal_Only>
0

> <s_lp_Force_Field>
OPLS_2005

> <r_lp_Energy>
31.238

> <b_lp_Chiralities_Consistent>
1

> <s_lp_Variant>
AV-unprocessed.smi:910-9

> <Gold.Version>
5.8.1

> <Gold.Id.Protein>
6NUR|6NUR_protein|mol2

> <Gold.PLP.Fitness>
43.9835

> <Gold.PLP.PLP>
-40.8645

> <Gold.PLP.part.hbond>
-3.0000

> <Gold.PLP.part.metal>
0.0000

> <Gold.PLP.part.buried>
-1.3683

> <Gold.PLP.part.nonpolar>
-36.1236

> <Gold.PLP.part.repulsive>
0.5003

> <Gold.PLP.ligand.clash>
0.0000

> <Gold.PLP.ligand.torsion>
0.8051

> <Gold.PLP.Chemscore.Hbond>
1.5655

> <Gold.PLP.Chemscore.CHOScore>
0.0000

> <Gold.PLP.Chemscore.Metal>
0.0000

> <Gold.Chemscore.Hbonds>
donor molecule, donor type, donor heavy atom, donor atom, acceptor molecule, acceptor atom, score
      L1  H     3    25       P1  7948  0.26
      P1  H  7997  8010       L1    11  0.38
      P1  H 10752 10764       L1     5  1.00

> <Gold.PLP.Chemscore.Internal.Correction>
0.0326

> <Gold.Rescore>
     Score         DG    S(hbond)    S(metal)    S(lipo)     H(rot)  DE(clash)    DE(int)     intcor
     13.75     -16.07       0.73        0.00     105.83       1.66       0.20       2.13       ----

> <Gold.Chemscore.Fitness>
13.7476

> <Gold.Chemscore.DG>
-16.0692

> <Gold.Chemscore.ZeroCoef>
-5.4800

> <Gold.Chemscore.Hbond>
0.7338

> <Gold.Chemscore.Metal>
0.0000

> <Gold.Chemscore.Lipo>
105.8294

> <Gold.Chemscore.Internal_Hbond>
0.0000

> <Gold.Chemscore.DEClash>
0.1952

> <Gold.Chemscore.DEInternal>
2.1265

> <Gold.Chemscore.Rot>
1.6576

> <Gold.Chemscore.Internal.Correction>
   9.000000E+99

> <Gold.Chemscore.Hbonds>
donor molecule, donor type, donor heavy atom, donor atom, acceptor molecule, acceptor atom, score
      L1  H     3    25       P1  7948  0.25
      P1  H  7997  8010       L1    11  0.08
      P1  H 10752 10764       L1     5  0.29

> <Gold.Chemscore.Hbond.Weighted>
-2.4508

> <Gold.Chemscore.Metal.Weighted>
-0.0000

> <Gold.Chemscore.Lipo.Weighted>
-12.3820

> <Gold.Chemscore.Internal_Hbond.Weighted>
0.0000

> <Gold.Chemscore.DEClash.Weighted>
0.1952

> <Gold.Chemscore.DEInternal.Weighted>
2.1265

> <Gold.Chemscore.Rot.Weighted>
4.2436

> <Gold.Chemscore.Internal.Correction.Weighted>
   9.000000E+99

> <Gold.Protein.RotatedTorsions>
[ 6907 6896 6895 6894 ] final -129.67 input  -60.11 | X-H torsion
[ 7974 7965 7964 7962 ] final   29.49 input  175.53 | X-H torsion
[ 8008 7997 7996 7995 ] final   54.39 input   59.86 | X-H torsion
[ 10167 10162 10161 10158 ] final -106.23 input  -65.29 | X-H torsion
[ 10718 10713 10712 10709 ] final -141.60 input   66.30 | X-H torsion
[ 10763 10752 10751 10750 ] final  -37.90 input  -60.55 | X-H torsion
[ 11005 11000 10999 10996 ] final -117.68 input  -57.11 | X-H torsion

> <Gold.Protein.ActiveResidues>
 VAL166  LYS551  ARG553  GLY616  TRP617  ASP618  TYR619  PRO620  LYS621  CYS622 
 ASP623  PHE694  ASN695  SER759  ASP760  ASP761  ALA762  ILE779  LEU786  VAL792 
 PHE793  MET794  SER795  GLU796  ALA797  LYS798  CYS799  TRP800  GLU811  SER814 

> <Gold.Protein.RotatedAtoms>
  150.9312  133.6764  159.2810 H   0  0  0  0  0  0  0  0  0  0  0  0  # atno 6907 bound_to 6896
  151.4185  135.0993  159.9616 H   0  0  0  0  0  0  0  0  0  0  0  0  # atno 6908 bound_to 6896
  152.5027  133.8769  159.7382 H   0  0  0  0  0  0  0  0  0  0  0  0  # atno 6909 bound_to 6896
  146.1668  139.6914  142.8995 H   0  0  0  0  0  0  0  0  0  0  0  0  # atno 7974 bound_to 7965
  155.4839  140.3469  155.4344 H   0  0  0  0  0  0  0  0  0  0  0  0  # atno 8008 bound_to 7997
  156.1021  140.1438  156.9482 H   0  0  0  0  0  0  0  0  0  0  0  0  # atno 8009 bound_to 7997
  154.4700  140.0904  156.7099 H   0  0  0  0  0  0  0  0  0  0  0  0  # atno 8010 bound_to 7997
  140.1900  143.3899  152.1214 H   0  0  0  0  0  0  0  0  0  0  0  0  # atno 10167 bound_to 10162
  156.3360  130.7612  151.1739 H   0  0  0  0  0  0  0  0  0  0  0  0  # atno 10718 bound_to 10713
  153.9039  135.6799  153.4754 H   0  0  0  0  0  0  0  0  0  0  0  0  # atno 10763 bound_to 10752
  153.1114  135.4781  154.9039 H   0  0  0  0  0  0  0  0  0  0  0  0  # atno 10764 bound_to 10752
  154.7561  135.3198  154.8421 H   0  0  0  0  0  0  0  0  0  0  0  0  # atno 10765 bound_to 10752
  141.0338  133.9941  157.3102 H   0  0  0  0  0  0  0  0  0  0  0  0  # atno 11005 bound_to 11000
  145.4446  141.0424  143.2838 LP  0  0  0  0  0  0  0  0  0  0  0  0  # atno 17320 bound_to 7965
  144.8104  139.5973  143.7032 LP  0  0  0  0  0  0  0  0  0  0  0  0  # atno 17321 bound_to 7965
  139.5260  144.7102  151.5229 LP  0  0  0  0  0  0  0  0  0  0  0  0  # atno 17342 bound_to 10162
  140.6462  143.8789  150.6740 LP  0  0  0  0  0  0  0  0  0  0  0  0  # atno 17343 bound_to 10162
  157.7439  131.0468  150.4911 LP  0  0  0  0  0  0  0  0  0  0  0  0  # atno 17370 bound_to 10713
  156.5084  130.4133  149.6314 LP  0  0  0  0  0  0  0  0  0  0  0  0  # atno 17371 bound_to 10713
  139.9226  135.0201  156.8120 LP  0  0  0  0  0  0  0  0  0  0  0  0  # atno 17394 bound_to 11000
  140.6359  133.9863  155.7684 LP  0  0  0  0  0  0  0  0  0  0  0  0  # atno 17395 bound_to 11000

$$$$
