AV-unprocessed.smi:1605|AV-procd|sdf|6453|dock2
  -GOLD-   22720 7103D 1   1.00000     0.00000
 Structure written by MMmdl.
 51 53  0  0  0  0  0  0  0  0  2 V2000
  146.6578  135.7793  154.6985 C   0  0  0  0  0  0  0  0  0  0  0  0
  146.9651  136.7691  153.7289 O   0  0  0  0  0  0  0  0  0  0  0  0
  145.8286  137.4181  153.1700 C   0  0  2  0  0  0  0  0  0  0  0  0
  146.3217  138.3804  152.0784 C   0  0  0  0  0  0  0  0  0  0  0  0
  147.1204  139.5543  152.6725 C   0  0  0  0  0  0  0  0  0  0  0  0
  146.3249  140.2864  153.6914 N   0  3  2  0  0  0  0  0  0  0  0  0
  147.0171  141.5071  154.1804 C   0  0  0  0  0  0  0  0  0  0  0  0
  148.0561  141.1938  155.2750 C   0  0  2  0  0  0  0  0  0  0  0  0
  147.9318  142.1496  156.3111 O   0  0  0  0  0  0  0  0  0  0  0  0
  149.4969  141.2197  154.7299 C   0  0  0  0  0  0  0  0  0  0  0  0
  150.4324  140.5580  155.6213 N   0  0  0  0  0  0  0  0  0  0  0  0
  150.8993  139.2979  155.5276 C   0  0  0  0  0  0  0  0  0  0  0  0
  151.7614  138.8979  156.4578 N   0  0  0  0  0  0  0  0  0  0  0  0
  151.8629  140.0287  157.2501 C   0  0  0  0  0  0  0  0  0  0  0  0
  152.6252  140.2688  158.4141 C   0  0  0  0  0  0  0  0  0  0  0  0
  152.5717  141.5193  159.0706 C   0  0  0  0  0  0  0  0  0  0  0  0
  153.4091  141.7345  160.3190 C   0  0  0  0  0  0  0  0  0  0  0  0
  151.7449  142.5537  158.5630 C   0  0  0  0  0  0  0  0  0  0  0  0
  151.6690  143.9040  159.2535 C   0  0  0  0  0  0  0  0  0  0  0  0
  150.9788  142.3316  157.3996 C   0  0  0  0  0  0  0  0  0  0  0  0
  151.0411  141.0833  156.7556 C   0  0  0  0  0  0  0  0  0  0  0  0
  145.8785  139.3837  154.7861 C   0  0  0  0  0  0  0  0  0  0  0  0
  145.0479  138.2123  154.2345 C   0  0  0  0  0  0  0  0  0  0  0  0
  147.5807  135.3134  155.0438 H   0  0  0  0  0  0  0  0  0  0  0  0
  146.0267  134.9956  154.2777 H   0  0  0  0  0  0  0  0  0  0  0  0
  146.1572  136.2030  155.5686 H   0  0  0  0  0  0  0  0  0  0  0  0
  145.1768  136.6757  152.7061 H   0  0  0  0  0  0  0  0  0  0  0  0
  146.9323  137.8412  151.3532 H   0  0  0  0  0  0  0  0  0  0  0  0
  145.4656  138.7707  151.5263 H   0  0  0  0  0  0  0  0  0  0  0  0
  148.0473  139.1941  153.1218 H   0  0  0  0  0  0  0  0  0  0  0  0
  147.4026  140.2341  151.8677 H   0  0  0  0  0  0  0  0  0  0  0  0
  147.4888  142.0127  153.3365 H   0  0  0  0  0  0  0  0  0  0  0  0
  146.2899  142.2122  154.5862 H   0  0  0  0  0  0  0  0  0  0  0  0
  147.8678  140.2094  155.7017 H   0  0  0  0  0  0  0  0  0  0  0  0
  148.3680  142.9448  156.0449 H   0  0  0  0  0  0  0  0  0  0  0  0
  149.5431  140.7187  153.7621 H   0  0  0  0  0  0  0  0  0  0  0  0
  149.8304  142.2457  154.5667 H   0  0  0  0  0  0  0  0  0  0  0  0
  150.5931  138.6382  154.7287 H   0  0  0  0  0  0  0  0  0  0  0  0
  153.2544  139.4807  158.8006 H   0  0  0  0  0  0  0  0  0  0  0  0
  154.1096  142.5569  160.1721 H   0  0  0  0  0  0  0  0  0  0  0  0
  153.9863  140.8441  160.5697 H   0  0  0  0  0  0  0  0  0  0  0  0
  152.7718  141.9701  161.1715 H   0  0  0  0  0  0  0  0  0  0  0  0
  150.9728  144.5722  158.7456 H   0  0  0  0  0  0  0  0  0  0  0  0
  152.6479  144.3838  159.2627 H   0  0  0  0  0  0  0  0  0  0  0  0
  151.3298  143.7885  160.2831 H   0  0  0  0  0  0  0  0  0  0  0  0
  150.3465  143.1114  157.0018 H   0  0  0  0  0  0  0  0  0  0  0  0
  146.7475  139.0056  155.3270 H   0  0  0  0  0  0  0  0  0  0  0  0
  145.2747  139.9304  155.5092 H   0  0  0  0  0  0  0  0  0  0  0  0
  144.1332  138.6046  153.7884 H   0  0  0  0  0  0  0  0  0  0  0  0
  144.7261  137.5647  155.0494 H   0  0  0  0  0  0  0  0  0  0  0  0
  145.4930  140.6094  153.2176 H   0  0  0  0  0  0  0  0  0  0  0  0
  1  2  1  0  0  0  0
  1 24  1  0  0  0  0
  1 25  1  0  0  0  0
  1 26  1  0  0  0  0
  2  3  1  0  0  0  0
  3 23  1  0  0  0  0
  3  4  1  0  0  0  0
  3 27  1  0  0  0  0
  4  5  1  0  0  0  0
  4 28  1  0  0  0  0
  4 29  1  0  0  0  0
  5  6  1  0  0  0  0
  5 30  1  0  0  0  0
  5 31  1  0  0  0  0
  6  7  1  0  0  0  0
  6 22  1  0  0  0  0
  6 51  1  0  0  0  0
  7  8  1  0  0  0  0
  7 32  1  0  0  0  0
  7 33  1  0  0  0  0
  8  9  1  0  0  0  0
  8 10  1  0  0  0  0
  8 34  1  0  0  0  0
  9 35  1  0  0  0  0
 10 11  1  0  0  0  0
 10 36  1  0  0  0  0
 10 37  1  0  0  0  0
 11 21  1  0  0  0  0
 11 12  1  0  0  0  0
 12 13  2  0  0  0  0
 12 38  1  0  0  0  0
 13 14  1  0  0  0  0
 14 21  2  0  0  0  0
 14 15  1  0  0  0  0
 15 16  2  0  0  0  0
 15 39  1  0  0  0  0
 16 17  1  0  0  0  0
 16 18  1  0  0  0  0
 17 40  1  0  0  0  0
 17 41  1  0  0  0  0
 17 42  1  0  0  0  0
 18 19  1  0  0  0  0
 18 20  2  0  0  0  0
 19 43  1  0  0  0  0
 19 44  1  0  0  0  0
 19 45  1  0  0  0  0
 20 21  1  0  0  0  0
 20 46  1  0  0  0  0
 22 23  1  0  0  0  0
 22 47  1  0  0  0  0
 22 48  1  0  0  0  0
 23 49  1  0  0  0  0
 23 50  1  0  0  0  0
M  CHG  1   6   1
M  END
> <s_m_source_file>
AV-unprocessed.smi

> <i_m_source_file_index>
1605

> <i_lp_mmshare_version>
43012

> <i_f3d_flags>
0

> <s_epik_input>
W0NIM11PW0NIXTFbQ0gyXVtDSDJdTihbQ0gyXVtDSDJdMSlbQ0gyXVtDQEhdKFtPSF0pW0NIMl1uKFtjSF1uMiljKGMyMylbY0hdYyhbQ0gzXSljKFtjSF0zKVtDSDNd

> <s_epik_cmdline>
J2VwaWtfcHl0aG9uJywgJy1waCcsICc3LjAnLCAnLXRuJywgJzgnLCAnLW1hJywgJzIwMCcsICctbWV0YWxfYmluZGluZycsICctaW1hZScsICc8aW5maWxlLm1hZT4nLCAnLW9tYWUnLCAnPG91dGZpbGUubWFlPic=

> <r_epik_Ionization_Penalty>
0.110943

> <r_epik_Ionization_Penalty_Charging>
0.0229283

> <r_epik_Ionization_Penalty_Neutral>
0.0880146

> <r_epik_State_Penalty>
0.0947554

> <r_epik_Charging_Adjusted_Penalty>
0.117684

> <i_epik_Tot_Q>
1

> <i_epik_Tot_abs_Q>
1

> <r_epik_Metal_State_Penalty>
0.0192456

> <b_epik_Metal_Only>
0

> <s_lp_Force_Field>
OPLS_2005

> <r_lp_Energy>
23.6879

> <b_lp_Chiralities_Consistent>
1

> <s_lp_Variant>
AV-unprocessed.smi:1605-3

> <Gold.Version>
5.8.1

> <Gold.Id.Protein>
6NUR|6NUR_protein|mol2

> <Gold.PLP.Fitness>
48.5562

> <Gold.PLP.PLP>
-41.9208

> <Gold.PLP.part.hbond>
-1.7122

> <Gold.PLP.part.metal>
0.0000

> <Gold.PLP.part.buried>
-1.4456

> <Gold.PLP.part.nonpolar>
-39.2724

> <Gold.PLP.part.repulsive>
0.0966

> <Gold.PLP.ligand.clash>
0.0000

> <Gold.PLP.ligand.torsion>
1.2273

> <Gold.PLP.Chemscore.Hbond>
3.0000

> <Gold.PLP.Chemscore.CHOScore>
0.0000

> <Gold.PLP.Chemscore.Metal>
0.0000

> <Gold.Chemscore.Hbonds>
donor molecule, donor type, donor heavy atom, donor atom, acceptor molecule, acceptor atom, score
      L1  H     6    51       P1 10175  2.00
      L1  H     9    35       P1  8028  1.00

> <Gold.PLP.Chemscore.Internal.Correction>
0.0901

> <Gold.Rescore>
     Score         DG    S(hbond)    S(metal)    S(lipo)     H(rot)  DE(clash)    DE(int)     intcor
     17.84     -19.66       1.91        0.00     115.13       2.22       0.30       1.52       ----

> <Gold.Chemscore.Fitness>
17.8434

> <Gold.Chemscore.DG>
-19.6579

> <Gold.Chemscore.ZeroCoef>
-5.4800

> <Gold.Chemscore.Hbond>
1.9111

> <Gold.Chemscore.Metal>
0.0000

> <Gold.Chemscore.Lipo>
115.1301

> <Gold.Chemscore.Internal_Hbond>
0.0000

> <Gold.Chemscore.DEClash>
0.2981

> <Gold.Chemscore.DEInternal>
1.5164

> <Gold.Chemscore.Rot>
2.2169

> <Gold.Chemscore.Internal.Correction>
   9.000000E+99

> <Gold.Chemscore.Hbonds>
donor molecule, donor type, donor heavy atom, donor atom, acceptor molecule, acceptor atom, score
      L1  H     6    51       P1 10175  0.86
      L1  H     9    35       P1  8028  0.93

> <Gold.Chemscore.Hbond.Weighted>
-6.3830

> <Gold.Chemscore.Metal.Weighted>
-0.0000

> <Gold.Chemscore.Lipo.Weighted>
-13.4702

> <Gold.Chemscore.Internal_Hbond.Weighted>
0.0000

> <Gold.Chemscore.DEClash.Weighted>
0.2981

> <Gold.Chemscore.DEInternal.Weighted>
1.5164

> <Gold.Chemscore.Rot.Weighted>
5.6753

> <Gold.Chemscore.Internal.Correction.Weighted>
   9.000000E+99

> <Gold.Protein.RotatedTorsions>
[ 6907 6896 6895 6894 ] final -155.26 input  -60.11 | X-H torsion
[ 7974 7965 7964 7962 ] final  -65.92 input  175.53 | X-H torsion
[ 8008 7997 7996 7995 ] final  -92.74 input   59.86 | X-H torsion
[ 10167 10162 10161 10158 ] final  -98.02 input  -65.29 | X-H torsion
[ 10718 10713 10712 10709 ] final -163.28 input   66.30 | X-H torsion
[ 10763 10752 10751 10750 ] final  127.69 input  -60.55 | X-H torsion
[ 11005 11000 10999 10996 ] final  -45.72 input  -57.11 | X-H torsion

> <Gold.Protein.ActiveResidues>
 VAL166  LYS551  ARG553  GLY616  TRP617  ASP618  TYR619  PRO620  LYS621  CYS622 
 ASP623  PHE694  ASN695  SER759  ASP760  ASP761  ALA762  ILE779  LEU786  VAL792 
 PHE793  MET794  SER795  GLU796  ALA797  LYS798  CYS799  TRP800  GLU811  SER814 

> <Gold.Protein.RotatedAtoms>
  151.2698  133.4261  159.2620 H   0  0  0  0  0  0  0  0  0  0  0  0  # atno 6907 bound_to 6896
  151.0455  134.9637  159.8194 H   0  0  0  0  0  0  0  0  0  0  0  0  # atno 6908 bound_to 6896
  152.5373  134.2654  159.9004 H   0  0  0  0  0  0  0  0  0  0  0  0  # atno 6909 bound_to 6896
  145.7482  140.8921  143.0494 H   0  0  0  0  0  0  0  0  0  0  0  0  # atno 7974 bound_to 7965
  154.7269  140.0506  157.0691 H   0  0  0  0  0  0  0  0  0  0  0  0  # atno 8008 bound_to 7997
  155.0353  140.3162  155.4724 H   0  0  0  0  0  0  0  0  0  0  0  0  # atno 8009 bound_to 7997
  156.2831  140.2142  156.5475 H   0  0  0  0  0  0  0  0  0  0  0  0  # atno 8010 bound_to 7997
  140.2773  143.3305  152.0476 H   0  0  0  0  0  0  0  0  0  0  0  0  # atno 10167 bound_to 10162
  156.6224  130.8896  151.2960 H   0  0  0  0  0  0  0  0  0  0  0  0  # atno 10718 bound_to 10713
  153.7135  135.3264  155.3251 H   0  0  0  0  0  0  0  0  0  0  0  0  # atno 10763 bound_to 10752
  154.8378  135.4482  154.1290 H   0  0  0  0  0  0  0  0  0  0  0  0  # atno 10764 bound_to 10752
  153.2390  135.6969  153.7883 H   0  0  0  0  0  0  0  0  0  0  0  0  # atno 10765 bound_to 10752
  141.0533  133.6735  156.3052 H   0  0  0  0  0  0  0  0  0  0  0  0  # atno 11005 bound_to 11000
  144.6855  139.9555  143.7479 LP  0  0  0  0  0  0  0  0  0  0  0  0  # atno 17320 bound_to 7965
  146.0382  139.3397  143.0713 LP  0  0  0  0  0  0  0  0  0  0  0  0  # atno 17321 bound_to 7965
  139.4972  144.6616  151.6452 LP  0  0  0  0  0  0  0  0  0  0  0  0  # atno 17342 bound_to 10162
  140.5841  143.9895  150.6285 LP  0  0  0  0  0  0  0  0  0  0  0  0  # atno 17343 bound_to 10162
  157.7224  130.9576  150.1491 LP  0  0  0  0  0  0  0  0  0  0  0  0  # atno 17370 bound_to 10713
  156.2300  130.3681  149.8455 LP  0  0  0  0  0  0  0  0  0  0  0  0  # atno 17371 bound_to 10713
  140.6013  134.5552  157.5518 LP  0  0  0  0  0  0  0  0  0  0  0  0  # atno 17394 bound_to 11000
  139.9369  134.7859  156.0780 LP  0  0  0  0  0  0  0  0  0  0  0  0  # atno 17395 bound_to 11000

$$$$
