AV-unprocessed.smi:2854|AV-procd|sdf|10975|dock3
  -GOLD-   2272015433D 1   1.00000     0.00000
 Structure written by MMmdl.
 27 28  0  0  0  0  0  0  0  0  2 V2000
  152.0287  145.2980  161.2933 N   0  0  0  0  0  0  0  0  0  0  0  0
  151.4349  144.5332  160.2871 C   0  0  0  0  0  0  0  0  0  0  0  0
  150.3448  145.0646  159.5661 C   0  0  0  0  0  0  0  0  0  0  0  0
  149.7594  144.3376  158.5905 N   0  3  0  0  0  0  0  0  0  0  0  0
  150.1710  143.0960  158.2575 C   0  0  0  0  0  0  0  0  0  0  0  0
  151.2550  142.5097  158.9406 C   0  0  0  0  0  0  0  0  0  0  0  0
  151.9032  143.2315  159.9722 C   0  0  0  0  0  0  0  0  0  0  0  0
  152.9856  142.6761  160.6740 N   0  0  0  0  0  0  0  0  0  0  0  0
  152.7270  142.4907  162.0963 C   0  0  0  0  0  0  0  0  0  0  0  0
  154.0059  142.0114  162.8046 C   0  0  0  0  0  0  0  0  0  0  0  0
  154.4815  140.8242  162.1766 O   0  0  0  0  0  0  0  0  0  0  0  0
  154.8071  141.0372  160.8058 C   0  0  0  0  0  0  0  0  0  0  0  0
  153.5496  141.4892  160.0433 C   0  0  0  0  0  0  0  0  0  0  0  0
  152.8106  144.9562  161.8334 H   0  0  0  0  0  0  0  0  0  0  0  0
  151.6944  146.2268  161.5101 H   0  0  0  0  0  0  0  0  0  0  0  0
  149.9237  146.0446  159.7384 H   0  0  0  0  0  0  0  0  0  0  0  0
  149.6250  142.6117  157.4610 H   0  0  0  0  0  0  0  0  0  0  0  0
  151.5820  141.5155  158.6727 H   0  0  0  0  0  0  0  0  0  0  0  0
  152.3850  143.4285  162.5359 H   0  0  0  0  0  0  0  0  0  0  0  0
  151.9316  141.7576  162.2370 H   0  0  0  0  0  0  0  0  0  0  0  0
  154.7776  142.7827  162.7797 H   0  0  0  0  0  0  0  0  0  0  0  0
  153.7989  141.8012  163.8539 H   0  0  0  0  0  0  0  0  0  0  0  0
  155.6024  141.7796  160.7212 H   0  0  0  0  0  0  0  0  0  0  0  0
  155.1910  140.1090  160.3823 H   0  0  0  0  0  0  0  0  0  0  0  0
  152.8134  140.6844  160.0387 H   0  0  0  0  0  0  0  0  0  0  0  0
  153.7999  141.7058  159.0041 H   0  0  0  0  0  0  0  0  0  0  0  0
  148.9725  144.7444  158.0840 H   0  0  0  0  0  0  0  0  0  0  0  0
  1  2  1  0  0  0  0
  1 14  1  0  0  0  0
  1 15  1  0  0  0  0
  2  7  1  0  0  0  0
  2  3  2  0  0  0  0
  3  4  1  0  0  0  0
  3 16  1  0  0  0  0
  4  5  2  0  0  0  0
  4 27  1  0  0  0  0
  5  6  1  0  0  0  0
  5 17  1  0  0  0  0
  6  7  2  0  0  0  0
  6 18  1  0  0  0  0
  7  8  1  0  0  0  0
  8 13  1  0  0  0  0
  8  9  1  0  0  0  0
  9 10  1  0  0  0  0
  9 19  1  0  0  0  0
  9 20  1  0  0  0  0
 10 11  1  0  0  0  0
 10 21  1  0  0  0  0
 10 22  1  0  0  0  0
 11 12  1  0  0  0  0
 12 13  1  0  0  0  0
 12 23  1  0  0  0  0
 12 24  1  0  0  0  0
 13 25  1  0  0  0  0
 13 26  1  0  0  0  0
M  CHG  1   4   1
M  END
> <s_m_source_file>
AV-unprocessed.smi

> <i_m_source_file_index>
2854

> <i_lp_mmshare_version>
43012

> <i_f3d_flags>
0

> <s_epik_input>
W05IMl1jMVtjSF1uW2NIXVtjSF1jMU4yW0NIMl1bQ0gyXU9bQ0gyXVtDSDJdMg==

> <s_epik_cmdline>
J2VwaWtfcHl0aG9uJywgJy1waCcsICc3LjAnLCAnLXRuJywgJzgnLCAnLW1hJywgJzIwMCcsICctbWV0YWxfYmluZGluZycsICctaW1hZScsICc8aW5maWxlLm1hZT4nLCAnLW9tYWUnLCAnPG91dGZpbGUubWFlPic=

> <r_lp_tautomer_probability>
0.999846

> <r_epik_Ionization_Penalty>
0.0229726

> <r_epik_Ionization_Penalty_Charging>
0.0229724

> <r_epik_Ionization_Penalty_Neutral>
1.97994e-07

> <r_epik_State_Penalty>
0.0185659

> <r_epik_Charging_Adjusted_Penalty>
0.0415384

> <i_epik_Tot_Q>
1

> <i_epik_Tot_abs_Q>
1

> <r_epik_Metal_State_Penalty>
2.0686

> <b_epik_Metal_Only>
0

> <s_lp_Force_Field>
OPLS_2005

> <r_lp_Energy>
29.6275

> <b_lp_Chiralities_Consistent>
1

> <s_lp_Variant>
AV-unprocessed.smi:2854-1

> <Gold.Version>
5.8.1

> <Gold.Id.Protein>
6NUR|6NUR_protein|mol2

> <Gold.PLP.Fitness>
34.5743

> <Gold.PLP.PLP>
-29.0634

> <Gold.PLP.part.hbond>
-3.3519

> <Gold.PLP.part.metal>
0.0000

> <Gold.PLP.part.buried>
-1.4939

> <Gold.PLP.part.nonpolar>
-24.5233

> <Gold.PLP.part.repulsive>
0.2214

> <Gold.PLP.ligand.clash>
0.2661

> <Gold.PLP.ligand.torsion>
0.1726

> <Gold.PLP.Chemscore.Hbond>
2.0000

> <Gold.PLP.Chemscore.CHOScore>
0.0000

> <Gold.PLP.Chemscore.Metal>
0.0000

> <Gold.Chemscore.Hbonds>
donor molecule, donor type, donor heavy atom, donor atom, acceptor molecule, acceptor atom, score
      L1  H     4    27       P1  8029  2.00

> <Gold.PLP.Chemscore.Internal.Correction>
0.1224

> <Gold.Rescore>
     Score         DG    S(hbond)    S(metal)    S(lipo)     H(rot)  DE(clash)    DE(int)     intcor
     13.21     -15.90       0.95        0.00      83.93       1.00       1.52       1.17       ----

> <Gold.Chemscore.Fitness>
13.2116

> <Gold.Chemscore.DG>
-15.9019

> <Gold.Chemscore.ZeroCoef>
-5.4800

> <Gold.Chemscore.Hbond>
0.9467

> <Gold.Chemscore.Metal>
0.0000

> <Gold.Chemscore.Lipo>
83.9306

> <Gold.Chemscore.Internal_Hbond>
0.0000

> <Gold.Chemscore.DEClash>
1.5205

> <Gold.Chemscore.DEInternal>
1.1697

> <Gold.Chemscore.Rot>
1.0000

> <Gold.Chemscore.Internal.Correction>
   9.000000E+99

> <Gold.Chemscore.Hbonds>
donor molecule, donor type, donor heavy atom, donor atom, acceptor molecule, acceptor atom, score
      L1  H     4    27       P1  8029  0.26

> <Gold.Chemscore.Hbond.Weighted>
-3.1620

> <Gold.Chemscore.Metal.Weighted>
-0.0000

> <Gold.Chemscore.Lipo.Weighted>
-9.8199

> <Gold.Chemscore.Internal_Hbond.Weighted>
0.0000

> <Gold.Chemscore.DEClash.Weighted>
1.5205

> <Gold.Chemscore.DEInternal.Weighted>
1.1697

> <Gold.Chemscore.Rot.Weighted>
2.5600

> <Gold.Chemscore.Internal.Correction.Weighted>
   9.000000E+99

> <Gold.Protein.RotatedTorsions>
[ 6907 6896 6895 6894 ] final  -57.74 input  -60.11 | X-H torsion
[ 7974 7965 7964 7962 ] final  -66.71 input  175.53 | X-H torsion
[ 8008 7997 7996 7995 ] final  -10.80 input   59.86 | X-H torsion
[ 10167 10162 10161 10158 ] final   75.75 input  -65.29 | X-H torsion
[ 10718 10713 10712 10709 ] final  -15.10 input   66.30 | X-H torsion
[ 10763 10752 10751 10750 ] final   25.20 input  -60.55 | X-H torsion
[ 11005 11000 10999 10996 ] final  122.98 input  -57.11 | X-H torsion

> <Gold.Protein.ActiveResidues>
 VAL166  LYS551  ARG553  GLY616  TRP617  ASP618  TYR619  PRO620  LYS621  CYS622 
 ASP623  PHE694  ASN695  SER759  ASP760  ASP761  ALA762  ILE779  LEU786  VAL792 
 PHE793  MET794  SER795  GLU796  ALA797  LYS798  CYS799  TRP800  GLU811  SER814 

> <Gold.Protein.RotatedAtoms>
  150.8062  134.7189  159.6646 H   0  0  0  0  0  0  0  0  0  0  0  0  # atno 6907 bound_to 6896
  152.4182  134.6001  160.0007 H   0  0  0  0  0  0  0  0  0  0  0  0  # atno 6908 bound_to 6896
  151.6224  133.3301  159.3127 H   0  0  0  0  0  0  0  0  0  0  0  0  # atno 6909 bound_to 6896
  145.7383  140.8965  143.0543 H   0  0  0  0  0  0  0  0  0  0  0  0  # atno 7974 bound_to 7965
  154.5522  140.2319  155.8467 H   0  0  0  0  0  0  0  0  0  0  0  0  # atno 8008 bound_to 7997
  156.1957  140.3066  155.9382 H   0  0  0  0  0  0  0  0  0  0  0  0  # atno 8009 bound_to 7997
  155.3049  140.0433  157.3022 H   0  0  0  0  0  0  0  0  0  0  0  0  # atno 8010 bound_to 7997
  139.9996  144.5696  150.7748 H   0  0  0  0  0  0  0  0  0  0  0  0  # atno 10167 bound_to 10162
  156.6065  130.4838  149.6219 H   0  0  0  0  0  0  0  0  0  0  0  0  # atno 10718 bound_to 10713
  153.0709  135.6588  154.0250 H   0  0  0  0  0  0  0  0  0  0  0  0  # atno 10763 bound_to 10752
  153.9895  135.2947  155.3414 H   0  0  0  0  0  0  0  0  0  0  0  0  # atno 10764 bound_to 10752
  154.7083  135.5216  153.8698 H   0  0  0  0  0  0  0  0  0  0  0  0  # atno 10765 bound_to 10752
  139.9292  134.9641  156.8191 H   0  0  0  0  0  0  0  0  0  0  0  0  # atno 11005 bound_to 11000
  144.6876  139.9426  143.7475 LP  0  0  0  0  0  0  0  0  0  0  0  0  # atno 17320 bound_to 7965
  146.0472  139.3476  143.0661 LP  0  0  0  0  0  0  0  0  0  0  0  0  # atno 17321 bound_to 7965
  140.7424  143.2831  151.3541 LP  0  0  0  0  0  0  0  0  0  0  0  0  # atno 17342 bound_to 10162
  139.6281  144.0774  152.2452 LP  0  0  0  0  0  0  0  0  0  0  0  0  # atno 17343 bound_to 10162
  156.2425  130.6860  151.1569 LP  0  0  0  0  0  0  0  0  0  0  0  0  # atno 17370 bound_to 10713
  157.7266  131.0645  150.5904 LP  0  0  0  0  0  0  0  0  0  0  0  0  # atno 17371 bound_to 10713
  140.6249  133.9959  155.7635 LP  0  0  0  0  0  0  0  0  0  0  0  0  # atno 17394 bound_to 11000
  141.0870  133.9975  157.3297 LP  0  0  0  0  0  0  0  0  0  0  0  0  # atno 17395 bound_to 11000

$$$$
