AV-unprocessed.smi:17|AV-procd|sdf|104|dock2
  -GOLD-   2262015253D 1   1.00000     0.00000
 Structure written by MMmdl.
 57 59  0  0  0  0  0  0  0  0  1 V2000
  147.8617  135.7692  162.7276 C   0  0  0  0  0  0  0  0  0  0  0  0
  146.9179  134.7860  162.0150 C   0  0  0  0  0  0  0  0  0  0  0  0
  147.0827  134.7639  160.5598 N   0  0  0  0  0  0  0  0  0  0  0  0
  147.1363  135.9818  159.9613 C   0  0  0  0  0  0  0  0  0  0  0  0
  145.9824  136.6912  159.8872 N   0  0  0  0  0  0  0  0  0  0  0  0
  145.9645  137.8916  159.3020 C   0  0  0  0  0  0  0  0  0  0  0  0
  146.9708  138.5568  158.7322 N   0  0  0  0  0  0  0  0  0  0  0  0
  148.1323  137.8449  158.7941 C   0  0  0  0  0  0  0  0  0  0  0  0
  148.3038  136.5590  159.3811 C   0  0  0  0  0  0  0  0  0  0  0  0
  149.6276  136.1551  159.2485 N   0  0  0  0  0  0  0  0  0  0  0  0
  150.2042  137.1431  158.6214 C   0  0  0  0  0  0  0  0  0  0  0  0
  149.3840  138.2084  158.3284 N   0  0  0  0  0  0  0  0  0  0  0  0
  149.7636  139.4289  157.6389 C   0  0  0  0  0  0  0  0  0  0  0  0
  151.2707  139.5160  157.2722 C   0  0  1  0  0  0  0  0  0  0  0  0
  151.4309  139.3632  155.7404 C   0  0  0  0  0  0  0  0  0  0  0  0
  150.7582  140.3950  155.0481 O   0  0  0  0  0  0  0  0  0  0  0  0
  151.9443  140.8245  157.7846 C   0  0  2  0  0  0  0  0  0  0  0  0
  152.0815  140.9291  159.2970 C   0  0  0  0  0  0  0  0  0  0  0  0
  152.2981  142.4207  159.5015 C   0  0  0  0  0  0  0  0  0  0  0  0
  151.4302  143.0296  158.5600 O   0  0  0  0  0  0  0  0  0  0  0  0
  151.1915  142.1321  157.4796 C   0  0  0  0  0  0  0  0  0  0  0  0
  146.3436  133.7168  159.8360 C   0  0  1  0  0  0  0  0  0  0  0  0
  146.5115  132.3190  160.4622 C   0  0  0  0  0  0  0  0  0  0  0  0
  144.8534  134.0487  159.6030 C   0  0  0  0  0  0  0  0  0  0  0  0
  144.0677  132.8723  158.4159 S   0  0  0  0  0  0  0  0  0  0  0  0
  145.1046  133.1045  156.9159 C   0  0  0  0  0  0  0  0  0  0  0  0
  144.2596  131.4976  158.9019 O   0  0  0  0  0  0  0  0  0  0  0  0
  142.7084  133.3519  158.1227 O   0  0  0  0  0  0  0  0  0  0  0  0
  147.7557  135.6855  163.8092 H   0  0  0  0  0  0  0  0  0  0  0  0
  147.6515  136.8050  162.4603 H   0  0  0  0  0  0  0  0  0  0  0  0
  148.9032  135.5620  162.4798 H   0  0  0  0  0  0  0  0  0  0  0  0
  147.1187  133.7843  162.3958 H   0  0  0  0  0  0  0  0  0  0  0  0
  145.8836  135.0037  162.2778 H   0  0  0  0  0  0  0  0  0  0  0  0
  145.0062  138.3895  159.2886 H   0  0  0  0  0  0  0  0  0  0  0  0
  151.2529  137.1267  158.3623 H   0  0  0  0  0  0  0  0  0  0  0  0
  149.1462  139.4803  156.7421 H   0  0  0  0  0  0  0  0  0  0  0  0
  149.4779  140.2864  158.2489 H   0  0  0  0  0  0  0  0  0  0  0  0
  151.7904  138.6742  157.7324 H   0  0  0  0  0  0  0  0  0  0  0  0
  152.4843  139.3648  155.4579 H   0  0  0  0  0  0  0  0  0  0  0  0
  151.0048  138.4266  155.3838 H   0  0  0  0  0  0  0  0  0  0  0  0
  150.1219  140.7819  155.6300 H   0  0  0  0  0  0  0  0  0  0  0  0
  152.9454  140.8983  157.3566 H   0  0  0  0  0  0  0  0  0  0  0  0
  151.1607  140.6138  159.7898 H   0  0  0  0  0  0  0  0  0  0  0  0
  152.9067  140.3398  159.6977 H   0  0  0  0  0  0  0  0  0  0  0  0
  152.0797  142.7449  160.5193 H   0  0  0  0  0  0  0  0  0  0  0  0
  153.3279  142.6940  159.2670 H   0  0  0  0  0  0  0  0  0  0  0  0
  151.5236  142.5832  156.5452 H   0  0  0  0  0  0  0  0  0  0  0  0
  150.1156  141.9684  157.4143 H   0  0  0  0  0  0  0  0  0  0  0  0
  146.7978  133.6550  158.8465 H   0  0  0  0  0  0  0  0  0  0  0  0
  146.0614  131.5542  159.8291 H   0  0  0  0  0  0  0  0  0  0  0  0
  146.0319  132.2541  161.4391 H   0  0  0  0  0  0  0  0  0  0  0  0
  147.5627  132.0572  160.5841 H   0  0  0  0  0  0  0  0  0  0  0  0
  144.3037  133.9541  160.5396 H   0  0  0  0  0  0  0  0  0  0  0  0
  144.6981  135.0693  159.2557 H   0  0  0  0  0  0  0  0  0  0  0  0
  144.7349  132.4610  156.1181 H   0  0  0  0  0  0  0  0  0  0  0  0
  146.1375  132.8411  157.1432 H   0  0  0  0  0  0  0  0  0  0  0  0
  145.0554  134.1446  156.5945 H   0  0  0  0  0  0  0  0  0  0  0  0
  1  2  1  0  0  0  0
  1 29  1  0  0  0  0
  1 30  1  0  0  0  0
  1 31  1  0  0  0  0
  2  3  1  0  0  0  0
  2 32  1  0  0  0  0
  2 33  1  0  0  0  0
  3  4  1  0  0  0  0
  3 22  1  0  0  0  0
  4  9  1  0  0  0  0
  4  5  2  0  0  0  0
  5  6  1  0  0  0  0
  6  7  2  0  0  0  0
  6 34  1  0  0  0  0
  7  8  1  0  0  0  0
  8 12  1  0  0  0  0
  8  9  2  0  0  0  0
  9 10  1  0  0  0  0
 10 11  2  0  0  0  0
 11 12  1  0  0  0  0
 11 35  1  0  0  0  0
 12 13  1  0  0  0  0
 13 14  1  0  0  0  0
 13 36  1  0  0  0  0
 13 37  1  0  0  0  0
 14 15  1  0  0  0  0
 14 17  1  0  0  0  0
 14 38  1  0  0  0  0
 15 16  1  0  0  0  0
 15 39  1  0  0  0  0
 15 40  1  0  0  0  0
 16 41  1  0  0  0  0
 17 21  1  0  0  0  0
 17 18  1  0  0  0  0
 17 42  1  0  0  0  0
 18 19  1  0  0  0  0
 18 43  1  0  0  0  0
 18 44  1  0  0  0  0
 19 20  1  0  0  0  0
 19 45  1  0  0  0  0
 19 46  1  0  0  0  0
 20 21  1  0  0  0  0
 21 47  1  0  0  0  0
 21 48  1  0  0  0  0
 22 23  1  0  0  0  0
 22 24  1  0  0  0  0
 22 49  1  0  0  0  0
 23 50  1  0  0  0  0
 23 51  1  0  0  0  0
 23 52  1  0  0  0  0
 24 25  1  0  0  0  0
 24 53  1  0  0  0  0
 24 54  1  0  0  0  0
 25 26  1  0  0  0  0
 25 27  2  0  0  0  0
 25 28  2  0  0  0  0
 26 55  1  0  0  0  0
 26 56  1  0  0  0  0
 26 57  1  0  0  0  0
M  END
> <s_m_source_file>
AV-unprocessed.smi

> <i_m_source_file_index>
17

> <i_lp_mmshare_version>
43012

> <i_f3d_flags>
0

> <s_epik_input>
W0NIM11TKD1PKSg9TylbQ0gyXVtDQEBIXShbQ0gzXSlOKFtDSDJdW0NIM10pYyhuW2NIXW4xKWMoYzEyKW5bY0hdbjJbQ0gyXVtDQEhdKFtDSDJdW09IXSlbQ0BASF0zW0NIMl1bQ0gyXU9bQ0gyXTM=

> <s_epik_cmdline>
J2VwaWtfcHl0aG9uJywgJy1waCcsICc3LjAnLCAnLXRuJywgJzgnLCAnLW1hJywgJzIwMCcsICctbWV0YWxfYmluZGluZycsICctaW1hZScsICc8aW5maWxlLm1hZT4nLCAnLW9tYWUnLCAnPG91dGZpbGUubWFlPic=

> <r_lp_tautomer_probability>
1

> <r_epik_Ionization_Penalty>
0.00119955

> <r_epik_Ionization_Penalty_Charging>
0

> <r_epik_Ionization_Penalty_Neutral>
0.00119955

> <r_epik_State_Penalty>
0.000665399

> <r_epik_Charging_Adjusted_Penalty>
0.000665399

> <i_epik_Tot_Q>
0

> <i_epik_Tot_abs_Q>
0

> <r_epik_Metal_State_Penalty>
-0

> <b_epik_Metal_Only>
0

> <s_lp_Force_Field>
OPLS_2005

> <r_lp_Energy>
33.8653

> <b_lp_Chiralities_Consistent>
1

> <s_lp_Variant>
AV-unprocessed.smi:17-6

> <Gold.Version>
5.8.1

> <Gold.Id.Protein>
6NUR|6NUR_protein|mol2

> <Gold.PLP.Fitness>
43.8832

> <Gold.PLP.PLP>
-36.2645

> <Gold.PLP.part.hbond>
-4.0000

> <Gold.PLP.part.metal>
0.0000

> <Gold.PLP.part.buried>
-6.3779

> <Gold.PLP.part.nonpolar>
-26.7640

> <Gold.PLP.part.repulsive>
0.2310

> <Gold.PLP.ligand.clash>
0.0000

> <Gold.PLP.ligand.torsion>
1.3369

> <Gold.PLP.Chemscore.Hbond>
3.0000

> <Gold.PLP.Chemscore.CHOScore>
0.0000

> <Gold.PLP.Chemscore.Metal>
0.0000

> <Gold.Chemscore.Hbonds>
donor molecule, donor type, donor heavy atom, donor atom, acceptor molecule, acceptor atom, score
      P1  H  6896  6907       L1    10  1.00
      P1  H  7989  7998       L1    16  1.00
      P1  H 11000 11005       L1    28  1.00

> <Gold.PLP.Chemscore.Internal.Correction>
1.2924

> <Gold.Rescore>
     Score         DG    S(hbond)    S(metal)    S(lipo)     H(rot)  DE(clash)    DE(int)     intcor
     11.80     -14.88       2.89        0.00      80.80       3.79       0.01       3.07       ----

> <Gold.Chemscore.Fitness>
11.8043

> <Gold.Chemscore.DG>
-14.8845

> <Gold.Chemscore.ZeroCoef>
-5.4800

> <Gold.Chemscore.Hbond>
2.8897

> <Gold.Chemscore.Metal>
0.0000

> <Gold.Chemscore.Lipo>
80.8039

> <Gold.Chemscore.Internal_Hbond>
0.0000

> <Gold.Chemscore.DEClash>
0.0095

> <Gold.Chemscore.DEInternal>
3.0707

> <Gold.Chemscore.Rot>
3.7894

> <Gold.Chemscore.Internal.Correction>
   9.000000E+99

> <Gold.Chemscore.Hbonds>
donor molecule, donor type, donor heavy atom, donor atom, acceptor molecule, acceptor atom, score
      P1  H  6896  6907       L1    10  0.90
      P1  H  7989  7998       L1    16  0.80
      P1  H 11000 11005       L1    28  0.99

> <Gold.Chemscore.Hbond.Weighted>
-9.6514

> <Gold.Chemscore.Metal.Weighted>
-0.0000

> <Gold.Chemscore.Lipo.Weighted>
-9.4541

> <Gold.Chemscore.Internal_Hbond.Weighted>
0.0000

> <Gold.Chemscore.DEClash.Weighted>
0.0095

> <Gold.Chemscore.DEInternal.Weighted>
3.0707

> <Gold.Chemscore.Rot.Weighted>
9.7010

> <Gold.Chemscore.Internal.Correction.Weighted>
   9.000000E+99

> <Gold.Protein.RotatedTorsions>
[ 6907 6896 6895 6894 ] final  -63.58 input  -60.11 | X-H torsion
[ 7974 7965 7964 7962 ] final -129.21 input  175.53 | X-H torsion
[ 8008 7997 7996 7995 ] final  -85.59 input   59.86 | X-H torsion
[ 10167 10162 10161 10158 ] final  126.01 input  -65.29 | X-H torsion
[ 10718 10713 10712 10709 ] final -114.02 input   66.30 | X-H torsion
[ 10763 10752 10751 10750 ] final  -56.77 input  -60.55 | X-H torsion
[ 11005 11000 10999 10996 ] final  -90.36 input  -57.11 | X-H torsion

> <Gold.Protein.ActiveResidues>
 VAL166  LYS551  ARG553  GLY616  TRP617  ASP618  TYR619  PRO620  LYS621  CYS622 
 ASP623  PHE694  ASN695  SER759  ASP760  ASP761  ALA762  ILE779  LEU786  VAL792 
 PHE793  MET794  SER795  GLU796  ALA797  LYS798  CYS799  TRP800  GLU811  SER814 

> <Gold.Protein.RotatedAtoms>
  150.7640  134.6416  159.6239 H   0  0  0  0  0  0  0  0  0  0  0  0  # atno 6907 bound_to 6896
  152.3662  134.6797  160.0200 H   0  0  0  0  0  0  0  0  0  0  0  0  # atno 6908 bound_to 6896
  151.7171  133.3277  159.3342 H   0  0  0  0  0  0  0  0  0  0  0  0  # atno 6909 bound_to 6896
  144.9594  140.7431  143.4738 H   0  0  0  0  0  0  0  0  0  0  0  0  # atno 7974 bound_to 7965
  154.6424  140.0589  156.9861 H   0  0  0  0  0  0  0  0  0  0  0  0  # atno 8008 bound_to 7997
  155.1496  140.3273  155.4415 H   0  0  0  0  0  0  0  0  0  0  0  0  # atno 8009 bound_to 7997
  156.2537  140.1950  156.6608 H   0  0  0  0  0  0  0  0  0  0  0  0  # atno 8010 bound_to 7997
  139.5654  144.6908  151.3925 H   0  0  0  0  0  0  0  0  0  0  0  0  # atno 10167 bound_to 10162
  156.0803  130.6004  150.8720 H   0  0  0  0  0  0  0  0  0  0  0  0  # atno 10718 bound_to 10713
  154.2119  135.6393  153.5118 H   0  0  0  0  0  0  0  0  0  0  0  0  # atno 10763 bound_to 10752
  152.9988  135.5476  154.6206 H   0  0  0  0  0  0  0  0  0  0  0  0  # atno 10764 bound_to 10752
  154.5645  135.2911  155.0861 H   0  0  0  0  0  0  0  0  0  0  0  0  # atno 10765 bound_to 10752
  141.1567  133.7687  156.9727 H   0  0  0  0  0  0  0  0  0  0  0  0  # atno 11005 bound_to 11000
  145.2723  139.1950  143.4835 LP  0  0  0  0  0  0  0  0  0  0  0  0  # atno 17320 bound_to 7965
  146.3348  140.2671  142.8604 LP  0  0  0  0  0  0  0  0  0  0  0  0  # atno 17321 bound_to 7965
  140.6937  143.7800  150.7294 LP  0  0  0  0  0  0  0  0  0  0  0  0  # atno 17342 bound_to 10162
  140.1290  143.4543  152.2266 LP  0  0  0  0  0  0  0  0  0  0  0  0  # atno 17343 bound_to 10162
  157.5917  131.0944  150.9107 LP  0  0  0  0  0  0  0  0  0  0  0  0  # atno 17370 bound_to 10713
  156.9282  130.5340  149.5279 LP  0  0  0  0  0  0  0  0  0  0  0  0  # atno 17371 bound_to 10713
  140.1118  134.9472  157.2077 LP  0  0  0  0  0  0  0  0  0  0  0  0  # atno 17394 bound_to 11000
  140.3183  134.2945  155.7251 LP  0  0  0  0  0  0  0  0  0  0  0  0  # atno 17395 bound_to 11000

$$$$
