AV-unprocessed.smi:332|AV-procd|sdf|2356|dock3
  -GOLD-   2262022263D 1   1.00000     0.00000
 Structure written by MMmdl.
 42 44  0  0  0  0  0  0  0  0  1 V2000
  152.7825  140.0327  159.5103 C   0  0  0  0  0  0  0  0  0  0  0  0
  151.7153  141.1061  159.2367 C   0  0  2  0  0  0  0  0  0  0  0  0
  150.8052  140.6518  158.1914 N   0  0  0  0  0  0  0  0  0  0  0  0
  151.1573  140.1754  156.9857 C   0  0  0  0  0  0  0  0  0  0  0  0
  152.3212  140.1563  156.5875 O   0  0  0  0  0  0  0  0  0  0  0  0
  150.0448  139.6084  156.0868 C   0  0  0  0  0  0  0  0  0  0  0  0
  148.9277  140.5380  155.8347 N   0  0  0  0  0  0  0  0  0  0  0  0
  148.0378  140.7760  156.9011 C   0  0  0  0  0  0  0  0  0  0  0  0
  146.9786  141.5907  156.7732 C   0  0  0  0  0  0  0  0  0  0  0  0
  146.7614  142.2337  155.4989 C   0  0  0  0  0  0  0  0  0  0  0  0
  147.6037  142.0096  154.4708 C   0  0  0  0  0  0  0  0  0  0  0  0
  148.7602  141.1165  154.6044 C   0  0  0  0  0  0  0  0  0  0  0  0
  149.5251  140.8931  153.6659 O   0  0  0  0  0  0  0  0  0  0  0  0
  152.3432  142.4541  158.8120 C   0  0  2  0  0  0  0  0  0  0  0  0
  152.8448  143.3312  159.9807 C   0  0  0  0  0  0  0  0  0  0  0  0
  152.2047  144.7004  159.6841 C   0  0  2  0  0  0  0  0  0  0  0  0
  150.6978  144.6304  159.9945 C   0  0  0  0  0  0  0  0  0  0  0  0
  150.1524  143.7774  158.8348 C   0  0  0  0  0  0  0  0  0  0  0  0
  151.4263  143.4351  158.0361 C   0  0  1  0  0  0  0  0  0  0  0  0
  152.2118  144.7361  158.1599 C   0  0  0  0  0  0  0  0  0  0  0  0
  153.4623  140.3449  160.3031 H   0  0  0  0  0  0  0  0  0  0  0  0
  153.3802  139.8301  158.6209 H   0  0  0  0  0  0  0  0  0  0  0  0
  152.3269  139.0938  159.8259 H   0  0  0  0  0  0  0  0  0  0  0  0
  151.1460  141.2579  160.1552 H   0  0  0  0  0  0  0  0  0  0  0  0
  149.8239  140.6356  158.4292 H   0  0  0  0  0  0  0  0  0  0  0  0
  150.4993  139.2977  155.1453 H   0  0  0  0  0  0  0  0  0  0  0  0
  149.6702  138.6869  156.5360 H   0  0  0  0  0  0  0  0  0  0  0  0
  148.2666  140.2509  157.8172 H   0  0  0  0  0  0  0  0  0  0  0  0
  146.3045  141.7572  157.6005 H   0  0  0  0  0  0  0  0  0  0  0  0
  145.9193  142.8974  155.3691 H   0  0  0  0  0  0  0  0  0  0  0  0
  147.4244  142.4980  153.5240 H   0  0  0  0  0  0  0  0  0  0  0  0
  153.1939  142.2337  158.1641 H   0  0  0  0  0  0  0  0  0  0  0  0
  152.5490  142.9512  160.9593 H   0  0  0  0  0  0  0  0  0  0  0  0
  153.9335  143.3973  159.9677 H   0  0  0  0  0  0  0  0  0  0  0  0
  152.7122  145.5348  160.1686 H   0  0  0  0  0  0  0  0  0  0  0  0
  150.4959  144.1843  160.9691 H   0  0  0  0  0  0  0  0  0  0  0  0
  150.2496  145.6246  159.9829 H   0  0  0  0  0  0  0  0  0  0  0  0
  149.6046  142.8991  159.1750 H   0  0  0  0  0  0  0  0  0  0  0  0
  149.4683  144.3659  158.2220 H   0  0  0  0  0  0  0  0  0  0  0  0
  151.2260  143.1286  157.0090 H   0  0  0  0  0  0  0  0  0  0  0  0
  151.6898  145.5995  157.7437 H   0  0  0  0  0  0  0  0  0  0  0  0
  153.2134  144.6825  157.7295 H   0  0  0  0  0  0  0  0  0  0  0  0
  1  2  1  0  0  0  0
  1 21  1  0  0  0  0
  1 22  1  0  0  0  0
  1 23  1  0  0  0  0
  2  3  1  0  0  0  0
  2 14  1  0  0  0  0
  2 24  1  0  0  0  0
  3  4  1  0  0  0  0
  3 25  1  0  0  0  0
  4  5  2  0  0  0  0
  4  6  1  0  0  0  0
  6  7  1  0  0  0  0
  6 26  1  0  0  0  0
  6 27  1  0  0  0  0
  7 12  1  0  0  0  0
  7  8  1  0  0  0  0
  8  9  2  0  0  0  0
  8 28  1  0  0  0  0
  9 10  1  0  0  0  0
  9 29  1  0  0  0  0
 10 11  2  0  0  0  0
 10 30  1  0  0  0  0
 11 12  1  0  0  0  0
 11 31  1  0  0  0  0
 12 13  2  0  0  0  0
 14 19  1  0  0  0  0
 14 15  1  0  0  0  0
 14 32  1  0  0  0  0
 15 16  1  0  0  0  0
 15 33  1  0  0  0  0
 15 34  1  0  0  0  0
 16 20  1  0  0  0  0
 16 17  1  0  0  0  0
 16 35  1  0  0  0  0
 17 18  1  0  0  0  0
 17 36  1  0  0  0  0
 17 37  1  0  0  0  0
 18 19  1  0  0  0  0
 18 38  1  0  0  0  0
 18 39  1  0  0  0  0
 19 20  1  0  0  0  0
 19 40  1  0  0  0  0
 20 41  1  0  0  0  0
 20 42  1  0  0  0  0
M  END
> <s_m_source_file>
AV-unprocessed.smi

> <i_m_source_file_index>
332

> <i_lp_mmshare_version>
43012

> <i_f3d_flags>
0

> <s_epik_input>
W0NIMl0xW0NIMl1bQ0BIXShbQ0gyXTIpW0NAQEhdKFtDSDJdW0NAQEhdMTIpW0NASF0oW0NIM10pW05IXUMoPU8pW0NIMl1uM1tjSF1bY0hdW2NIXVtjSF1jMz1P

> <s_epik_cmdline>
J2VwaWtfcHl0aG9uJywgJy1waCcsICc3LjAnLCAnLXRuJywgJzgnLCAnLW1hJywgJzIwMCcsICctbWV0YWxfYmluZGluZycsICctaW1hZScsICc8aW5maWxlLm1hZT4nLCAnLW9tYWUnLCAnPG91dGZpbGUubWFlPic=

> <r_lp_tautomer_probability>
1

> <r_epik_Ionization_Penalty>
4.05802e-07

> <r_epik_Ionization_Penalty_Charging>
3.84175e-07

> <r_epik_Ionization_Penalty_Neutral>
2.16269e-08

> <r_epik_State_Penalty>
-0

> <r_epik_Charging_Adjusted_Penalty>
3.84175e-07

> <i_epik_Tot_Q>
0

> <i_epik_Tot_abs_Q>
0

> <r_epik_Metal_State_Penalty>
-0

> <b_epik_Metal_Only>
0

> <s_lp_Force_Field>
OPLS_2005

> <r_lp_Energy>
59.3935

> <b_lp_Chiralities_Consistent>
1

> <s_lp_Variant>
AV-unprocessed.smi:332-5

> <Gold.Version>
5.8.1

> <Gold.Id.Protein>
6NUR|6NUR_protein|mol2

> <Gold.PLP.Fitness>
45.2435

> <Gold.PLP.PLP>
-39.5913

> <Gold.PLP.part.hbond>
-3.0000

> <Gold.PLP.part.metal>
0.0000

> <Gold.PLP.part.buried>
-4.2954

> <Gold.PLP.part.nonpolar>
-35.7898

> <Gold.PLP.part.repulsive>
3.4200

> <Gold.PLP.ligand.clash>
0.0000

> <Gold.PLP.ligand.torsion>
0.7340

> <Gold.PLP.Chemscore.Hbond>
2.3520

> <Gold.PLP.Chemscore.CHOScore>
0.0000

> <Gold.PLP.Chemscore.Metal>
0.0000

> <Gold.Chemscore.Hbonds>
donor molecule, donor type, donor heavy atom, donor atom, acceptor molecule, acceptor atom, score
      P1  H  7989  7998       L1    13  0.32
      P1  H  7997  8008       L1     5  0.98
      P1  H  8011  8017       L1    13  0.98

> <Gold.PLP.Chemscore.Internal.Correction>
0.0642

> <Gold.Rescore>
     Score         DG    S(hbond)    S(metal)    S(lipo)     H(rot)  DE(clash)    DE(int)     intcor
     18.50     -21.77       2.20        0.00     110.06       1.54       1.58       1.69       ----

> <Gold.Chemscore.Fitness>
18.5022

> <Gold.Chemscore.DG>
-21.7724

> <Gold.Chemscore.ZeroCoef>
-5.4800

> <Gold.Chemscore.Hbond>
2.2027

> <Gold.Chemscore.Metal>
0.0000

> <Gold.Chemscore.Lipo>
110.0617

> <Gold.Chemscore.Internal_Hbond>
0.0000

> <Gold.Chemscore.DEClash>
1.5766

> <Gold.Chemscore.DEInternal>
1.6936

> <Gold.Chemscore.Rot>
1.5398

> <Gold.Chemscore.Internal.Correction>
   9.000000E+99

> <Gold.Chemscore.Hbonds>
donor molecule, donor type, donor heavy atom, donor atom, acceptor molecule, acceptor atom, score
      P1  H  7989  7998       L1    13  0.31
      P1  H  7997  8008       L1     5  0.89
      P1  H  8011  8017       L1    13  0.84

> <Gold.Chemscore.Hbond.Weighted>
-7.3571

> <Gold.Chemscore.Metal.Weighted>
-0.0000

> <Gold.Chemscore.Lipo.Weighted>
-12.8772

> <Gold.Chemscore.Internal_Hbond.Weighted>
0.0000

> <Gold.Chemscore.DEClash.Weighted>
1.5766

> <Gold.Chemscore.DEInternal.Weighted>
1.6936

> <Gold.Chemscore.Rot.Weighted>
3.9419

> <Gold.Chemscore.Internal.Correction.Weighted>
   9.000000E+99

> <Gold.Protein.RotatedTorsions>
[ 6907 6896 6895 6894 ] final    1.18 input  -60.11 | X-H torsion
[ 7974 7965 7964 7962 ] final   81.10 input  175.53 | X-H torsion
[ 8008 7997 7996 7995 ] final  -38.21 input   59.86 | X-H torsion
[ 10167 10162 10161 10158 ] final  132.93 input  -65.29 | X-H torsion
[ 10718 10713 10712 10709 ] final    4.81 input   66.30 | X-H torsion
[ 10763 10752 10751 10750 ] final   13.01 input  -60.55 | X-H torsion
[ 11005 11000 10999 10996 ] final  168.23 input  -57.11 | X-H torsion

> <Gold.Protein.ActiveResidues>
 VAL166  LYS551  ARG553  GLY616  TRP617  ASP618  TYR619  PRO620  LYS621  CYS622 
 ASP623  PHE694  ASN695  SER759  ASP760  ASP761  ALA762  ILE779  LEU786  VAL792 
 PHE793  MET794  SER795  GLU796  ALA797  LYS798  CYS799  TRP800  GLU811  SER814 

> <Gold.Protein.RotatedAtoms>
  151.5884  135.1055  160.0033 H   0  0  0  0  0  0  0  0  0  0  0  0  # atno 6907 bound_to 6896
  152.4319  133.7288  159.6586 H   0  0  0  0  0  0  0  0  0  0  0  0  # atno 6908 bound_to 6896
  150.8212  133.8179  159.3161 H   0  0  0  0  0  0  0  0  0  0  0  0  # atno 6909 bound_to 6896
  145.6425  139.2429  143.2022 H   0  0  0  0  0  0  0  0  0  0  0  0  # atno 7974 bound_to 7965
  154.4040  140.1584  156.2663 H   0  0  0  0  0  0  0  0  0  0  0  0  # atno 8008 bound_to 7997
  155.8993  140.3434  155.5992 H   0  0  0  0  0  0  0  0  0  0  0  0  # atno 8009 bound_to 7997
  155.7467  140.0799  157.2211 H   0  0  0  0  0  0  0  0  0  0  0  0  # atno 8010 bound_to 7997
  139.5318  144.6639  151.4922 H   0  0  0  0  0  0  0  0  0  0  0  0  # atno 10167 bound_to 10162
  156.8982  130.5712  149.5648 H   0  0  0  0  0  0  0  0  0  0  0  0  # atno 10718 bound_to 10713
  153.1764  135.6821  153.8537 H   0  0  0  0  0  0  0  0  0  0  0  0  # atno 10763 bound_to 10752
  153.7883  135.3172  155.3376 H   0  0  0  0  0  0  0  0  0  0  0  0  # atno 10764 bound_to 10752
  154.8032  135.4765  154.0420 H   0  0  0  0  0  0  0  0  0  0  0  0  # atno 10765 bound_to 10752
  140.2851  134.7719  157.3791 H   0  0  0  0  0  0  0  0  0  0  0  0  # atno 11005 bound_to 11000
  146.1269  140.7236  142.9431 LP  0  0  0  0  0  0  0  0  0  0  0  0  # atno 17320 bound_to 7965
  144.7152  140.4184  143.7050 LP  0  0  0  0  0  0  0  0  0  0  0  0  # atno 17321 bound_to 7965
  140.6501  143.8713  150.6777 LP  0  0  0  0  0  0  0  0  0  0  0  0  # atno 17342 bound_to 10162
  140.2075  143.3910  152.1744 LP  0  0  0  0  0  0  0  0  0  0  0  0  # atno 17343 bound_to 10162
  156.0595  130.5650  150.9163 LP  0  0  0  0  0  0  0  0  0  0  0  0  # atno 17370 bound_to 10713
  157.6042  131.0940  150.8907 LP  0  0  0  0  0  0  0  0  0  0  0  0  # atno 17371 bound_to 10713
  140.1247  134.5173  155.8154 LP  0  0  0  0  0  0  0  0  0  0  0  0  # atno 17394 bound_to 11000
  141.2156  133.6768  156.6930 LP  0  0  0  0  0  0  0  0  0  0  0  0  # atno 17395 bound_to 11000

$$$$
