AV-unprocessed.smi:287|AV-procd|sdf|2196|dock6
  -GOLD-   2262022 03D 1   1.00000     0.00000
 Structure written by MMmdl.
 55 58  0  0  0  0  0  0  0  0  1 V2000
  133.0954  141.8356  152.8267 C   0  0  0  0  0  0  0  0  0  0  0  0
  134.3156  141.1550  153.3448 C   0  0  0  0  0  0  0  0  0  0  0  0
  134.5683  139.9010  153.8194 C   0  0  0  0  0  0  0  0  0  0  0  0
  135.9501  139.8483  154.1707 C   0  0  0  0  0  0  0  0  0  0  0  0
  136.6810  138.6377  154.7367 C   0  0  2  0  0  0  0  0  0  0  0  0
  135.6899  137.4882  154.9919 C   0  0  0  0  0  0  0  0  0  0  0  0
  137.2754  138.8917  155.9949 O   0  0  0  0  0  0  0  0  0  0  0  0
  137.8181  138.1602  153.8060 C   0  0  0  0  0  0  0  0  0  0  0  0
  138.6822  137.1663  154.4297 N   0  0  0  0  0  0  0  0  0  0  0  0
  140.0063  137.1321  154.1720 C   0  0  0  0  0  0  0  0  0  0  0  0
  140.6370  138.3282  154.2285 N   0  0  0  0  0  0  0  0  0  0  0  0
  141.9459  138.4066  153.9825 C   0  0  0  0  0  0  0  0  0  0  0  0
  142.7928  137.4263  153.6700 N   0  0  0  0  0  0  0  0  0  0  0  0
  142.1746  136.2107  153.6116 C   0  0  0  0  0  0  0  0  0  0  0  0
  140.7866  135.9812  153.8495 C   0  0  0  0  0  0  0  0  0  0  0  0
  140.5137  134.6272  153.7011 N   0  0  0  0  0  0  0  0  0  0  0  0
  141.6629  134.0986  153.3865 C   0  0  0  0  0  0  0  0  0  0  0  0
  142.7252  134.9717  153.3206 N   0  0  0  0  0  0  0  0  0  0  0  0
  144.1364  134.6050  152.9436 C   0  0  1  0  0  0  0  0  0  0  0  0
  144.1029  133.4157  152.2219 O   0  0  0  0  0  0  0  0  0  0  0  0
  144.0833  133.7000  150.8304 C   0  0  2  0  0  0  0  0  0  0  0  0
  144.6005  132.4853  150.0450 C   0  0  0  0  0  0  0  0  0  0  0  0
  143.5432  131.5839  149.7940 O   0  0  0  0  0  0  0  0  0  0  0  0
  144.9951  134.9324  150.7198 C   0  0  1  0  0  0  0  0  0  0  0  0
  144.5746  135.7617  149.6555 O   0  0  0  0  0  0  0  0  0  0  0  0
  144.8434  135.6516  152.0646 C   0  0  2  0  0  0  0  0  0  0  0  0
  146.1163  135.9788  152.5852 O   0  0  0  0  0  0  0  0  0  0  0  0
  136.4364  141.0980  153.8680 C   0  0  0  0  0  0  0  0  0  0  0  0
  137.7813  141.7401  153.9617 C   0  0  0  0  0  0  0  0  0  0  0  0
  135.4513  141.8964  153.3704 O   0  0  0  0  0  0  0  0  0  0  0  0
  144.6277  134.4474  153.9049 H   0  0  0  0  0  0  0  0  0  0  0  0
  143.0660  133.9438  150.5241 H   0  0  0  0  0  0  0  0  0  0  0  0
  146.0291  134.6213  150.5595 H   0  0  0  0  0  0  0  0  0  0  0  0
  144.2578  136.5685  152.0065 H   0  0  0  0  0  0  0  0  0  0  0  0
  132.2728  141.1287  152.7154 H   0  0  0  0  0  0  0  0  0  0  0  0
  133.2874  142.2859  151.8526 H   0  0  0  0  0  0  0  0  0  0  0  0
  132.7743  142.6237  153.5079 H   0  0  0  0  0  0  0  0  0  0  0  0
  133.8419  139.1062  153.9040 H   0  0  0  0  0  0  0  0  0  0  0  0
  135.2034  137.1683  154.0697 H   0  0  0  0  0  0  0  0  0  0  0  0
  134.9060  137.7876  155.6891 H   0  0  0  0  0  0  0  0  0  0  0  0
  136.1903  136.6152  155.4130 H   0  0  0  0  0  0  0  0  0  0  0  0
  138.1670  138.5797  155.9733 H   0  0  0  0  0  0  0  0  0  0  0  0
  137.4162  137.7814  152.8652 H   0  0  0  0  0  0  0  0  0  0  0  0
  138.4454  139.0188  153.5620 H   0  0  0  0  0  0  0  0  0  0  0  0
  138.2363  136.5659  155.1082 H   0  0  0  0  0  0  0  0  0  0  0  0
  142.3767  139.3949  154.0436 H   0  0  0  0  0  0  0  0  0  0  0  0
  141.7672  133.0416  153.1887 H   0  0  0  0  0  0  0  0  0  0  0  0
  144.9927  132.8046  149.0790 H   0  0  0  0  0  0  0  0  0  0  0  0
  145.4108  131.9839  150.5751 H   0  0  0  0  0  0  0  0  0  0  0  0
  142.7406  131.9629  150.1182 H   0  0  0  0  0  0  0  0  0  0  0  0
  144.9565  135.4372  148.8544 H   0  0  0  0  0  0  0  0  0  0  0  0
  146.7758  135.5909  152.0304 H   0  0  0  0  0  0  0  0  0  0  0  0
  138.1169  141.7846  154.9978 H   0  0  0  0  0  0  0  0  0  0  0  0
  137.7621  142.7582  153.5716 H   0  0  0  0  0  0  0  0  0  0  0  0
  138.5185  141.1766  153.3894 H   0  0  0  0  0  0  0  0  0  0  0  0
  1  2  1  0  0  0  0
  1 35  1  0  0  0  0
  1 36  1  0  0  0  0
  1 37  1  0  0  0  0
  2 30  1  0  0  0  0
  2  3  2  0  0  0  0
  3  4  1  0  0  0  0
  3 38  1  0  0  0  0
  4  5  1  0  0  0  0
  4 28  2  0  0  0  0
  5  6  1  0  0  0  0
  5  7  1  0  0  0  0
  5  8  1  0  0  0  0
  6 39  1  0  0  0  0
  6 40  1  0  0  0  0
  6 41  1  0  0  0  0
  7 42  1  0  0  0  0
  8  9  1  0  0  0  0
  8 43  1  0  0  0  0
  8 44  1  0  0  0  0
  9 10  1  0  0  0  0
  9 45  1  0  0  0  0
 10 15  1  0  0  0  0
 10 11  2  0  0  0  0
 11 12  1  0  0  0  0
 12 13  2  0  0  0  0
 12 46  1  0  0  0  0
 13 14  1  0  0  0  0
 14 18  1  0  0  0  0
 14 15  2  0  0  0  0
 15 16  1  0  0  0  0
 16 17  2  0  0  0  0
 17 18  1  0  0  0  0
 17 47  1  0  0  0  0
 18 19  1  0  0  0  0
 19 31  1  0  0  0  0
 19 26  1  0  0  0  0
 19 20  1  0  0  0  0
 20 21  1  0  0  0  0
 21 32  1  0  0  0  0
 21 22  1  0  0  0  0
 21 24  1  0  0  0  0
 22 23  1  0  0  0  0
 22 48  1  0  0  0  0
 22 49  1  0  0  0  0
 23 50  1  0  0  0  0
 24 33  1  0  0  0  0
 24 25  1  0  0  0  0
 24 26  1  0  0  0  0
 25 51  1  0  0  0  0
 26 34  1  0  0  0  0
 26 27  1  0  0  0  0
 27 52  1  0  0  0  0
 28 29  1  0  0  0  0
 28 30  1  0  0  0  0
 29 53  1  0  0  0  0
 29 54  1  0  0  0  0
 29 55  1  0  0  0  0
M  END
> <s_m_source_file>
AV-unprocessed.smi

> <i_m_source_file_index>
287

> <i_lp_mmshare_version>
43012

> <i_f3d_flags>
0

> <s_epik_input>
W0NIM11jMVtjSF1jKGMobzEpW0NIM10pW0NAQF0oW0NIM10pKFtPSF0pW0NIMl1bTkhdYyhuW2NIXW4yKWMoYzIzKW5bY0hdbjNbQ0BASF00T1tDQEhdKFtDSDJdW09IXSlbQ0BASF0oW09IXSlbQ0BIXTRbT0hd

> <s_epik_cmdline>
J2VwaWtfcHl0aG9uJywgJy1waCcsICc3LjAnLCAnLXRuJywgJzgnLCAnLW1hJywgJzIwMCcsICctbWV0YWxfYmluZGluZycsICctaW1hZScsICc8aW5maWxlLm1hZT4nLCAnLW9tYWUnLCAnPG91dGZpbGUubWFlPic=

> <r_lp_tautomer_probability>
1

> <r_epik_Ionization_Penalty>
0.000992612

> <r_epik_Ionization_Penalty_Charging>
0

> <r_epik_Ionization_Penalty_Neutral>
0.000992612

> <r_epik_State_Penalty>
-0

> <r_epik_Charging_Adjusted_Penalty>
0

> <i_epik_Tot_Q>
0

> <i_epik_Tot_abs_Q>
0

> <r_epik_Metal_State_Penalty>
-0

> <b_epik_Metal_Only>
0

> <s_epik_Chemistry_Notes>
This compound contains an acetal/aminal-like group ( X-CH(R)-Y where X, Y are N, S, or O) that may be acid/base labile, releasing an aldehyde.

> <s_lp_Force_Field>
OPLS_2005

> <r_lp_Energy>
37.3025

> <b_lp_Chiralities_Consistent>
1

> <s_lp_Variant>
AV-unprocessed.smi:287-20

> <Gold.Version>
5.8.1

> <Gold.Id.Protein>
6NUR|6NUR_protein|mol2

> <Gold.PLP.Fitness>
58.9647

> <Gold.PLP.PLP>
-46.6655

> <Gold.PLP.part.hbond>
-6.8267

> <Gold.PLP.part.metal>
0.0000

> <Gold.PLP.part.buried>
-5.7554

> <Gold.PLP.part.nonpolar>
-36.1820

> <Gold.PLP.part.repulsive>
0.7100

> <Gold.PLP.ligand.clash>
0.0000

> <Gold.PLP.ligand.torsion>
1.5775

> <Gold.PLP.Chemscore.Hbond>
3.2389

> <Gold.PLP.Chemscore.CHOScore>
1.8817

> <Gold.PLP.Chemscore.Metal>
0.0000

> <Gold.Chemscore.Hbonds>
donor molecule, donor type, donor heavy atom, donor atom, acceptor molecule, acceptor atom, score
      L1  H    25    51       P1  7921  1.00
      L1  H    27    52       P1  7948  0.25
      P1  H 10785 10796       L1    23  0.96
      P1  H 10995 11001       L1    16  0.09
      P1  H 11000 11005       L1    16  0.77
      L1  C    12    46       P1 10175  0.96
      L1  C    17    47       P1 10957  0.78

> <Gold.PLP.Chemscore.Internal.Correction>
0.0924

> <Gold.Rescore>
     Score         DG    S(hbond)    S(metal)    S(lipo)     H(rot)  DE(clash)    DE(int)     intcor
      7.34      -9.56       2.10        0.00      90.01       5.27       0.30       1.92       ----

> <Gold.Chemscore.Fitness>
7.3407

> <Gold.Chemscore.DG>
-9.5570

> <Gold.Chemscore.ZeroCoef>
-5.4800

> <Gold.Chemscore.Hbond>
2.1049

> <Gold.Chemscore.Metal>
0.0000

> <Gold.Chemscore.Lipo>
90.0051

> <Gold.Chemscore.Internal_Hbond>
0.0000

> <Gold.Chemscore.DEClash>
0.2990

> <Gold.Chemscore.DEInternal>
1.9173

> <Gold.Chemscore.Rot>
5.2672

> <Gold.Chemscore.Internal.Correction>
   9.000000E+99

> <Gold.Chemscore.Hbonds>
donor molecule, donor type, donor heavy atom, donor atom, acceptor molecule, acceptor atom, score
      L1  H    25    51       P1  7921  1.00
      L1  H    27    52       P1  7948  0.26
      P1  H 10785 10796       L1    23  0.72
      P1  H 10995 11001       L1    16  0.04
      P1  H 11000 11005       L1    16  0.04

> <Gold.Chemscore.Hbond.Weighted>
-7.0303

> <Gold.Chemscore.Metal.Weighted>
-0.0000

> <Gold.Chemscore.Lipo.Weighted>
-10.5306

> <Gold.Chemscore.Internal_Hbond.Weighted>
0.0000

> <Gold.Chemscore.DEClash.Weighted>
0.2990

> <Gold.Chemscore.DEInternal.Weighted>
1.9173

> <Gold.Chemscore.Rot.Weighted>
13.4839

> <Gold.Chemscore.Internal.Correction.Weighted>
   9.000000E+99

> <Gold.Protein.RotatedTorsions>
[ 6907 6896 6895 6894 ] final   72.66 input  -60.11 | X-H torsion
[ 7974 7965 7964 7962 ] final   82.22 input  175.53 | X-H torsion
[ 8008 7997 7996 7995 ] final  159.55 input   59.86 | X-H torsion
[ 10167 10162 10161 10158 ] final -109.29 input  -65.29 | X-H torsion
[ 10718 10713 10712 10709 ] final  144.55 input   66.30 | X-H torsion
[ 10763 10752 10751 10750 ] final   84.41 input  -60.55 | X-H torsion
[ 11005 11000 10999 10996 ] final   21.37 input  -57.11 | X-H torsion

> <Gold.Protein.ActiveResidues>
 VAL166  LYS551  ARG553  GLY616  TRP617  ASP618  TYR619  PRO620  LYS621  CYS622 
 ASP623  PHE694  ASN695  SER759  ASP760  ASP761  ALA762  ILE779  LEU786  VAL792 
 PHE793  MET794  SER795  GLU796  ALA797  LYS798  CYS799  TRP800  GLU811  SER814 

> <Gold.Protein.RotatedAtoms>
  152.4880  134.4537  159.9582 H   0  0  0  0  0  0  0  0  0  0  0  0  # atno 6907 bound_to 6896
  151.4530  133.3606  159.2806 H   0  0  0  0  0  0  0  0  0  0  0  0  # atno 6908 bound_to 6896
  150.9008  134.8445  159.7419 H   0  0  0  0  0  0  0  0  0  0  0  0  # atno 6909 bound_to 6896
  145.6279  139.2399  143.2101 H   0  0  0  0  0  0  0  0  0  0  0  0  # atno 7974 bound_to 7965
  156.2232  140.1828  156.7427 H   0  0  0  0  0  0  0  0  0  0  0  0  # atno 8008 bound_to 7997
  154.5898  140.0652  156.9251 H   0  0  0  0  0  0  0  0  0  0  0  0  # atno 8009 bound_to 7997
  155.2356  140.3318  155.4300 H   0  0  0  0  0  0  0  0  0  0  0  0  # atno 8010 bound_to 7997
  140.1569  143.4152  152.1454 H   0  0  0  0  0  0  0  0  0  0  0  0  # atno 10167 bound_to 10162
  157.3558  131.0958  151.0959 H   0  0  0  0  0  0  0  0  0  0  0  0  # atno 10718 bound_to 10713
  153.1379  135.4655  154.9451 H   0  0  0  0  0  0  0  0  0  0  0  0  # atno 10763 bound_to 10752
  154.7722  135.3162  154.8168 H   0  0  0  0  0  0  0  0  0  0  0  0  # atno 10764 bound_to 10752
  153.8697  135.6905  153.4829 H   0  0  0  0  0  0  0  0  0  0  0  0  # atno 10765 bound_to 10752
  140.3923  134.1805  155.7663 H   0  0  0  0  0  0  0  0  0  0  0  0  # atno 11005 bound_to 11000
  146.1380  140.7097  142.9381 LP  0  0  0  0  0  0  0  0  0  0  0  0  # atno 17320 bound_to 7965
  144.7205  140.4357  143.7012 LP  0  0  0  0  0  0  0  0  0  0  0  0  # atno 17321 bound_to 7965
  139.5399  144.7246  151.4768 LP  0  0  0  0  0  0  0  0  0  0  0  0  # atno 17342 bound_to 10162
  140.6667  143.8382  150.6950 LP  0  0  0  0  0  0  0  0  0  0  0  0  # atno 17343 bound_to 10162
  157.2117  130.6441  149.5777 LP  0  0  0  0  0  0  0  0  0  0  0  0  # atno 17370 bound_to 10713
  155.9729  130.4657  150.6265 LP  0  0  0  0  0  0  0  0  0  0  0  0  # atno 17371 bound_to 10713
  141.1886  133.8256  157.0988 LP  0  0  0  0  0  0  0  0  0  0  0  0  # atno 17394 bound_to 11000
  140.0397  134.9860  157.0938 LP  0  0  0  0  0  0  0  0  0  0  0  0  # atno 17395 bound_to 11000

$$$$
