AV-unprocessed.smi:704|AV-procd|sdf|3442|dock6
  -GOLD-   22720 0433D 1   1.00000     0.00000
 Structure written by MMmdl.
 38 39  0  0  0  0  0  0  0  0  1 V2000
  151.4943  145.6027  160.0924 C   0  0  0  0  0  0  0  0  0  0  0  0
  151.3588  144.4561  159.2597 O   0  0  0  0  0  0  0  0  0  0  0  0
  152.1169  143.3373  159.5488 C   0  0  0  0  0  0  0  0  0  0  0  0
  152.9245  143.3692  160.6386 N   0  0  0  0  0  0  0  0  0  0  0  0
  153.6681  142.2797  160.9202 C   0  0  0  0  0  0  0  0  0  0  0  0
  153.6524  141.1125  160.1350 C   0  0  0  0  0  0  0  0  0  0  0  0
  152.8150  141.0763  159.0045 C   0  0  0  0  0  0  0  0  0  0  0  0
  152.0172  142.2069  158.7043 C   0  0  0  0  0  0  0  0  0  0  0  0
  151.1518  142.2824  157.5785 N   0  0  0  0  0  0  0  0  0  0  0  0
  150.9212  141.3508  156.6383 C   0  0  0  0  0  0  0  0  0  0  0  0
  151.4483  140.2395  156.5923 O   0  0  0  0  0  0  0  0  0  0  0  0
  150.0104  141.7747  155.7509 N   0  0  0  0  0  0  0  0  0  0  0  0
  149.5126  140.9957  154.6194 C   0  0  2  0  0  0  0  0  0  0  0  0
  148.3406  141.7089  153.9283 C   0  0  0  0  0  0  0  0  0  0  0  0
  147.4178  140.5896  153.4561 C   0  0  0  0  0  0  0  0  0  0  0  0
  147.5241  139.5361  154.5557 C   0  0  0  0  0  0  0  0  0  0  0  0
  148.9787  139.6044  155.0607 C   0  0  1  0  0  0  0  0  0  0  0  0
  149.8403  138.4548  154.5122 C   0  0  0  0  0  0  0  0  0  0  0  0
  150.0014  138.3942  153.1879 N   0  0  0  0  0  0  0  0  0  0  0  0
  150.3548  137.6351  155.2710 O   0  0  0  0  0  0  0  0  0  0  0  0
  150.8303  146.3891  159.7334 H   0  0  0  0  0  0  0  0  0  0  0  0
  152.5123  145.9943  160.0706 H   0  0  0  0  0  0  0  0  0  0  0  0
  151.2171  145.3814  161.1240 H   0  0  0  0  0  0  0  0  0  0  0  0
  154.2993  142.3423  161.7943 H   0  0  0  0  0  0  0  0  0  0  0  0
  154.2723  140.2659  160.3908 H   0  0  0  0  0  0  0  0  0  0  0  0
  152.8129  140.1924  158.3859 H   0  0  0  0  0  0  0  0  0  0  0  0
  150.5808  143.1137  157.5299 H   0  0  0  0  0  0  0  0  0  0  0  0
  149.6259  142.7008  155.8689 H   0  0  0  0  0  0  0  0  0  0  0  0
  150.3153  140.8902  153.8858 H   0  0  0  0  0  0  0  0  0  0  0  0
  147.8006  142.3341  154.6414 H   0  0  0  0  0  0  0  0  0  0  0  0
  148.6673  142.3516  153.1102 H   0  0  0  0  0  0  0  0  0  0  0  0
  146.3938  140.9279  153.2951 H   0  0  0  0  0  0  0  0  0  0  0  0
  147.7870  140.1801  152.5149 H   0  0  0  0  0  0  0  0  0  0  0  0
  146.8467  139.7924  155.3713 H   0  0  0  0  0  0  0  0  0  0  0  0
  147.2313  138.5476  154.1982 H   0  0  0  0  0  0  0  0  0  0  0  0
  148.9592  139.5268  156.1498 H   0  0  0  0  0  0  0  0  0  0  0  0
  150.5706  137.6657  152.7818 H   0  0  0  0  0  0  0  0  0  0  0  0
  149.5643  139.0871  152.5980 H   0  0  0  0  0  0  0  0  0  0  0  0
  1  2  1  0  0  0  0
  1 21  1  0  0  0  0
  1 22  1  0  0  0  0
  1 23  1  0  0  0  0
  2  3  1  0  0  0  0
  3  8  1  0  0  0  0
  3  4  2  0  0  0  0
  4  5  1  0  0  0  0
  5  6  2  0  0  0  0
  5 24  1  0  0  0  0
  6  7  1  0  0  0  0
  6 25  1  0  0  0  0
  7  8  2  0  0  0  0
  7 26  1  0  0  0  0
  8  9  1  0  0  0  0
  9 10  1  0  0  0  0
  9 27  1  0  0  0  0
 10 11  2  0  0  0  0
 10 12  1  0  0  0  0
 12 13  1  0  0  0  0
 12 28  1  0  0  0  0
 13 17  1  0  0  0  0
 13 14  1  0  0  0  0
 13 29  1  0  0  0  0
 14 15  1  0  0  0  0
 14 30  1  0  0  0  0
 14 31  1  0  0  0  0
 15 16  1  0  0  0  0
 15 32  1  0  0  0  0
 15 33  1  0  0  0  0
 16 17  1  0  0  0  0
 16 34  1  0  0  0  0
 16 35  1  0  0  0  0
 17 18  1  0  0  0  0
 17 36  1  0  0  0  0
 18 19  1  0  0  0  0
 18 20  2  0  0  0  0
 19 37  1  0  0  0  0
 19 38  1  0  0  0  0
M  END
> <s_m_source_file>
AV-unprocessed.smi

> <i_m_source_file_index>
704

> <i_lp_mmshare_version>
43012

> <i_f3d_flags>
0

> <s_epik_input>
W0NIM11PYzFuW2NIXVtjSF1bY0hdYzFbTkhdQyg9TylbTkhdW0NAQEhdMltDSDJdW0NIMl1bQ0gyXVtDQEhdMkMoPU8pW05IMl0=

> <s_epik_cmdline>
J2VwaWtfcHl0aG9uJywgJy1waCcsICc3LjAnLCAnLXRuJywgJzgnLCAnLW1hJywgJzIwMCcsICctbWV0YWxfYmluZGluZycsICctaW1hZScsICc8aW5maWxlLm1hZT4nLCAnLW9tYWUnLCAnPG91dGZpbGUubWFlPic=

> <r_lp_tautomer_probability>
1

> <r_epik_Ionization_Penalty>
9.09123e-05

> <r_epik_Ionization_Penalty_Charging>
0

> <r_epik_Ionization_Penalty_Neutral>
9.09123e-05

> <r_epik_State_Penalty>
-0

> <r_epik_Charging_Adjusted_Penalty>
0

> <i_epik_Tot_Q>
0

> <i_epik_Tot_abs_Q>
0

> <r_epik_Metal_State_Penalty>
-0

> <b_epik_Metal_Only>
0

> <s_lp_Force_Field>
OPLS_2005

> <r_lp_Energy>
16.6187

> <b_lp_Chiralities_Consistent>
1

> <s_lp_Variant>
AV-unprocessed.smi:704-1

> <Gold.Version>
5.8.1

> <Gold.Id.Protein>
6NUR|6NUR_protein|mol2

> <Gold.PLP.Fitness>
43.4502

> <Gold.PLP.PLP>
-37.7550

> <Gold.PLP.part.hbond>
-3.1807

> <Gold.PLP.part.metal>
0.0000

> <Gold.PLP.part.buried>
-1.6105

> <Gold.PLP.part.nonpolar>
-31.1773

> <Gold.PLP.part.repulsive>
0.4903

> <Gold.PLP.ligand.clash>
0.0000

> <Gold.PLP.ligand.torsion>
0.0711

> <Gold.PLP.Chemscore.Hbond>
1.9431

> <Gold.PLP.Chemscore.CHOScore>
0.0000

> <Gold.PLP.Chemscore.Metal>
0.0000

> <Gold.Chemscore.Hbonds>
donor molecule, donor type, donor heavy atom, donor atom, acceptor molecule, acceptor atom, score
      L1  H    12    28       P1  8028  0.68
      L1  H    19    37       P1  7949  0.27
      L1  H    19    38       P1  7957  0.96

> <Gold.PLP.Chemscore.Internal.Correction>
0.0080

> <Gold.Rescore>
     Score         DG    S(hbond)    S(metal)    S(lipo)     H(rot)  DE(clash)    DE(int)     intcor
     16.52     -18.09       2.45        0.00      78.55       1.86       0.21       1.37       ----

> <Gold.Chemscore.Fitness>
16.5169

> <Gold.Chemscore.DG>
-18.0907

> <Gold.Chemscore.ZeroCoef>
-5.4800

> <Gold.Chemscore.Hbond>
2.4533

> <Gold.Chemscore.Metal>
0.0000

> <Gold.Chemscore.Lipo>
78.5521

> <Gold.Chemscore.Internal_Hbond>
0.0000

> <Gold.Chemscore.DEClash>
0.2066

> <Gold.Chemscore.DEInternal>
1.3672

> <Gold.Chemscore.Rot>
1.8648

> <Gold.Chemscore.Internal.Correction>
   9.000000E+99

> <Gold.Chemscore.Hbonds>
donor molecule, donor type, donor heavy atom, donor atom, acceptor molecule, acceptor atom, score
      L1  H    12    28       P1  8028  0.67
      L1  H    19    37       P1  7949  0.01
      L1  H    19    38       P1  7957  0.87

> <Gold.Chemscore.Hbond.Weighted>
-8.1940

> <Gold.Chemscore.Metal.Weighted>
-0.0000

> <Gold.Chemscore.Lipo.Weighted>
-9.1906

> <Gold.Chemscore.Internal_Hbond.Weighted>
0.0000

> <Gold.Chemscore.DEClash.Weighted>
0.2066

> <Gold.Chemscore.DEInternal.Weighted>
1.3672

> <Gold.Chemscore.Rot.Weighted>
4.7739

> <Gold.Chemscore.Internal.Correction.Weighted>
   9.000000E+99

> <Gold.Protein.RotatedTorsions>
[ 6907 6896 6895 6894 ] final  150.79 input  -60.11 | X-H torsion
[ 7974 7965 7964 7962 ] final -172.27 input  175.53 | X-H torsion
[ 8008 7997 7996 7995 ] final  -66.73 input   59.86 | X-H torsion
[ 10167 10162 10161 10158 ] final   68.92 input  -65.29 | X-H torsion
[ 10718 10713 10712 10709 ] final    0.04 input   66.30 | X-H torsion
[ 10763 10752 10751 10750 ] final  -91.06 input  -60.55 | X-H torsion
[ 11005 11000 10999 10996 ] final -121.38 input  -57.11 | X-H torsion

> <Gold.Protein.ActiveResidues>
 VAL166  LYS551  ARG553  GLY616  TRP617  ASP618  TYR619  PRO620  LYS621  CYS622 
 ASP623  PHE694  ASN695  SER759  ASP760  ASP761  ALA762  ILE779  LEU786  VAL792 
 PHE793  MET794  SER795  GLU796  ALA797  LYS798  CYS799  TRP800  GLU811  SER814 

> <Gold.Protein.RotatedAtoms>
  152.1096  133.4293  159.4624 H   0  0  0  0  0  0  0  0  0  0  0  0  # atno 6907 bound_to 6896
  150.6867  134.2664  159.4579 H   0  0  0  0  0  0  0  0  0  0  0  0  # atno 6908 bound_to 6896
  152.0531  134.9640  160.0625 H   0  0  0  0  0  0  0  0  0  0  0  0  # atno 6909 bound_to 6896
  144.7148  140.1798  143.6359 H   0  0  0  0  0  0  0  0  0  0  0  0  # atno 7974 bound_to 7965
  154.4753  140.0907  156.7247 H   0  0  0  0  0  0  0  0  0  0  0  0  # atno 8008 bound_to 7997
  155.4613  140.3461  155.4295 H   0  0  0  0  0  0  0  0  0  0  0  0  # atno 8009 bound_to 7997
  156.1106  140.1447  156.9332 H   0  0  0  0  0  0  0  0  0  0  0  0  # atno 8010 bound_to 7997
  140.0734  144.5133  150.7211 H   0  0  0  0  0  0  0  0  0  0  0  0  # atno 10167 bound_to 10162
  156.8275  130.5477  149.5690 H   0  0  0  0  0  0  0  0  0  0  0  0  # atno 10718 bound_to 10713
  154.6722  135.5281  153.8153 H   0  0  0  0  0  0  0  0  0  0  0  0  # atno 10763 bound_to 10752
  153.0509  135.6532  154.0707 H   0  0  0  0  0  0  0  0  0  0  0  0  # atno 10764 bound_to 10752
  154.0604  135.2962  155.3305 H   0  0  0  0  0  0  0  0  0  0  0  0  # atno 10765 bound_to 10752
  141.0074  134.0314  157.3458 H   0  0  0  0  0  0  0  0  0  0  0  0  # atno 11005 bound_to 11000
  145.8867  139.2353  143.1573 LP  0  0  0  0  0  0  0  0  0  0  0  0  # atno 17320 bound_to 7965
  145.9943  140.8576  143.0050 LP  0  0  0  0  0  0  0  0  0  0  0  0  # atno 17321 bound_to 7965
  140.7114  143.2508  151.4569 LP  0  0  0  0  0  0  0  0  0  0  0  0  # atno 17342 bound_to 10162
  139.5822  144.1684  152.1983 LP  0  0  0  0  0  0  0  0  0  0  0  0  # atno 17343 bound_to 10162
  156.0953  130.5927  150.9803 LP  0  0  0  0  0  0  0  0  0  0  0  0  # atno 17370 bound_to 10713
  157.6424  131.0908  150.8223 LP  0  0  0  0  0  0  0  0  0  0  0  0  # atno 17371 bound_to 10713
  139.9071  135.0182  156.7533 LP  0  0  0  0  0  0  0  0  0  0  0  0  # atno 17394 bound_to 11000
  140.6789  133.9492  155.7899 LP  0  0  0  0  0  0  0  0  0  0  0  0  # atno 17395 bound_to 11000

$$$$
