AV-unprocessed.smi:71|AV-procd|sdf|662|dock8
  -GOLD-   2262016563D 1   1.00000     0.00000
 Structure written by MMmdl.
 31 32  0  0  0  0  0  0  0  0  1 V2000
  150.5877  144.4525  157.8245 N   0  0  0  0  0  0  0  0  0  0  0  0
  151.2023  143.2374  158.1146 C   0  0  0  0  0  0  0  0  0  0  0  0
  151.7332  143.0017  159.3986 C   0  0  0  0  0  0  0  0  0  0  0  0
  152.3521  141.7625  159.6496 C   0  0  0  0  0  0  0  0  0  0  0  0
  152.4114  140.8111  158.6135 C   0  0  0  0  0  0  0  0  0  0  0  0
  151.8381  141.1345  157.3625 C   0  0  0  0  0  0  0  0  0  0  0  0
  151.8961  140.1611  156.2220 C   0  0  0  0  0  0  0  0  0  0  0  0
  152.9659  139.6135  155.9539 O   0  0  0  0  0  0  0  0  0  0  0  0
  150.7564  139.9335  155.5273 N   0  0  0  0  0  0  0  0  0  0  0  0
  149.5137  140.7008  155.6556 C   0  0  0  0  0  0  0  0  0  0  0  0
  148.5402  140.1097  154.6374 C   0  0  0  0  0  0  0  0  0  0  0  0
  149.4374  139.4476  153.6034 C   0  0  0  0  0  0  0  0  0  0  0  0
  150.6750  139.0035  154.3941 C   0  0  2  0  0  0  0  0  0  0  0  0
  150.5822  137.5448  154.8901 C   0  0  0  0  0  0  0  0  0  0  0  0
  151.3691  136.6990  154.0785 O   0  0  0  0  0  0  0  0  0  0  0  0
  151.2549  142.3302  157.1166 N   0  0  0  0  0  0  0  0  0  0  0  0
  150.2005  144.6453  156.9120 H   0  0  0  0  0  0  0  0  0  0  0  0
  150.4804  145.1674  158.5294 H   0  0  0  0  0  0  0  0  0  0  0  0
  151.6735  143.7519  160.1736 H   0  0  0  0  0  0  0  0  0  0  0  0
  152.7768  141.5469  160.6188 H   0  0  0  0  0  0  0  0  0  0  0  0
  152.8896  139.8562  158.7769 H   0  0  0  0  0  0  0  0  0  0  0  0
  149.0894  140.6475  156.6578 H   0  0  0  0  0  0  0  0  0  0  0  0
  149.7141  141.7487  155.4260 H   0  0  0  0  0  0  0  0  0  0  0  0
  147.9204  139.3527  155.1199 H   0  0  0  0  0  0  0  0  0  0  0  0
  147.8753  140.8574  154.2041 H   0  0  0  0  0  0  0  0  0  0  0  0
  148.9405  138.6332  153.0755 H   0  0  0  0  0  0  0  0  0  0  0  0
  149.7316  140.1875  152.8577 H   0  0  0  0  0  0  0  0  0  0  0  0
  151.5596  139.1117  153.7628 H   0  0  0  0  0  0  0  0  0  0  0  0
  150.9518  137.4583  155.9120 H   0  0  0  0  0  0  0  0  0  0  0  0
  149.5496  137.1943  154.8920 H   0  0  0  0  0  0  0  0  0  0  0  0
  151.1427  136.8539  153.1741 H   0  0  0  0  0  0  0  0  0  0  0  0
  1  2  1  0  0  0  0
  1 17  1  0  0  0  0
  1 18  1  0  0  0  0
  2 16  1  0  0  0  0
  2  3  2  0  0  0  0
  3  4  1  0  0  0  0
  3 19  1  0  0  0  0
  4  5  2  0  0  0  0
  4 20  1  0  0  0  0
  5  6  1  0  0  0  0
  5 21  1  0  0  0  0
  6  7  1  0  0  0  0
  6 16  2  0  0  0  0
  7  8  2  0  0  0  0
  7  9  1  0  0  0  0
  9 13  1  0  0  0  0
  9 10  1  0  0  0  0
 10 11  1  0  0  0  0
 10 22  1  0  0  0  0
 10 23  1  0  0  0  0
 11 12  1  0  0  0  0
 11 24  1  0  0  0  0
 11 25  1  0  0  0  0
 12 13  1  0  0  0  0
 12 26  1  0  0  0  0
 12 27  1  0  0  0  0
 13 14  1  0  0  0  0
 13 28  1  0  0  0  0
 14 15  1  0  0  0  0
 14 29  1  0  0  0  0
 14 30  1  0  0  0  0
 15 31  1  0  0  0  0
M  END
> <s_m_source_file>
AV-unprocessed.smi

> <i_m_source_file_index>
71

> <i_lp_mmshare_version>
43012

> <i_f3d_flags>
0

> <s_epik_input>
W05IMl1jMVtjSF1bY0hdW2NIXWMobjEpQyg9TylOMltDSDJdW0NIMl1bQ0gyXVtDQEhdMltDSDJdW09IXQ==

> <s_epik_cmdline>
J2VwaWtfcHl0aG9uJywgJy1waCcsICc3LjAnLCAnLXRuJywgJzgnLCAnLW1hJywgJzIwMCcsICctbWV0YWxfYmluZGluZycsICctaW1hZScsICc8aW5maWxlLm1hZT4nLCAnLW9tYWUnLCAnPG91dGZpbGUubWFlPic=

> <r_lp_tautomer_probability>
1

> <r_epik_Ionization_Penalty>
2.21614e-05

> <r_epik_Ionization_Penalty_Charging>
0

> <r_epik_Ionization_Penalty_Neutral>
2.21614e-05

> <r_epik_State_Penalty>
-0

> <r_epik_Charging_Adjusted_Penalty>
0

> <i_epik_Tot_Q>
0

> <i_epik_Tot_abs_Q>
0

> <r_epik_Metal_State_Penalty>
-0

> <b_epik_Metal_Only>
0

> <s_lp_Force_Field>
OPLS_2005

> <r_lp_Energy>
36.7339

> <b_lp_Chiralities_Consistent>
1

> <s_lp_Variant>
AV-unprocessed.smi:71-2

> <Gold.Version>
5.8.1

> <Gold.Id.Protein>
6NUR|6NUR_protein|mol2

> <Gold.PLP.Fitness>
39.6176

> <Gold.PLP.PLP>
-29.6983

> <Gold.PLP.part.hbond>
-4.7379

> <Gold.PLP.part.metal>
0.0000

> <Gold.PLP.part.buried>
0.2370

> <Gold.PLP.part.nonpolar>
-25.2149

> <Gold.PLP.part.repulsive>
0.1489

> <Gold.PLP.ligand.clash>
0.0000

> <Gold.PLP.ligand.torsion>
1.4391

> <Gold.PLP.Chemscore.Hbond>
3.8720

> <Gold.PLP.Chemscore.CHOScore>
0.0000

> <Gold.PLP.Chemscore.Metal>
0.0000

> <Gold.Chemscore.Hbonds>
donor molecule, donor type, donor heavy atom, donor atom, acceptor molecule, acceptor atom, score
      L1  H     1    17       P1  8028  1.00
      L1  H    15    31       P1  7949  0.82
      P1  H  7997  8010       L1     8  0.96
      P1  H 10752 10763       L1    15  1.00

> <Gold.PLP.Chemscore.Internal.Correction>
1.1814

> <Gold.Rescore>
     Score         DG    S(hbond)    S(metal)    S(lipo)     H(rot)  DE(clash)    DE(int)     intcor
     17.04     -21.45       3.63        0.00      65.51       1.50       1.54       2.87       ----

> <Gold.Chemscore.Fitness>
17.0392

> <Gold.Chemscore.DG>
-21.4458

> <Gold.Chemscore.ZeroCoef>
-5.4800

> <Gold.Chemscore.Hbond>
3.6318

> <Gold.Chemscore.Metal>
0.0000

> <Gold.Chemscore.Lipo>
65.5132

> <Gold.Chemscore.Internal_Hbond>
0.0000

> <Gold.Chemscore.DEClash>
1.5407

> <Gold.Chemscore.DEInternal>
2.8659

> <Gold.Chemscore.Rot>
1.4959

> <Gold.Chemscore.Internal.Correction>
   9.000000E+99

> <Gold.Chemscore.Hbonds>
donor molecule, donor type, donor heavy atom, donor atom, acceptor molecule, acceptor atom, score
      L1  H     1    17       P1  8028  0.64
      L1  H    15    31       P1  7949  0.36
      P1  H  7997  8010       L1     8  0.90
      P1  H 10752 10763       L1    15  0.85

> <Gold.Chemscore.Hbond.Weighted>
-12.1302

> <Gold.Chemscore.Metal.Weighted>
-0.0000

> <Gold.Chemscore.Lipo.Weighted>
-7.6650

> <Gold.Chemscore.Internal_Hbond.Weighted>
0.0000

> <Gold.Chemscore.DEClash.Weighted>
1.5407

> <Gold.Chemscore.DEInternal.Weighted>
2.8659

> <Gold.Chemscore.Rot.Weighted>
3.8295

> <Gold.Chemscore.Internal.Correction.Weighted>
   9.000000E+99

> <Gold.Protein.RotatedTorsions>
[ 6907 6896 6895 6894 ] final  -29.92 input  -60.11 | X-H torsion
[ 7974 7965 7964 7962 ] final   75.24 input  175.53 | X-H torsion
[ 8008 7997 7996 7995 ] final   91.39 input   59.86 | X-H torsion
[ 10167 10162 10161 10158 ] final  -13.98 input  -65.29 | X-H torsion
[ 10718 10713 10712 10709 ] final  153.61 input   66.30 | X-H torsion
[ 10763 10752 10751 10750 ] final   41.71 input  -60.55 | X-H torsion
[ 11005 11000 10999 10996 ] final  133.82 input  -57.11 | X-H torsion

> <Gold.Protein.ActiveResidues>
 VAL166  LYS551  ARG553  GLY616  TRP617  ASP618  TYR619  PRO620  LYS621  CYS622 
 ASP623  PHE694  ASN695  SER759  ASP760  ASP761  ALA762  ILE779  LEU786  VAL792 
 PHE793  MET794  SER795  GLU796  ALA797  LYS798  CYS799  TRP800  GLU811  SER814 

> <Gold.Protein.RotatedAtoms>
  151.1126  135.0035  159.8500 H   0  0  0  0  0  0  0  0  0  0  0  0  # atno 6907 bound_to 6896
  152.5444  134.1818  159.8648 H   0  0  0  0  0  0  0  0  0  0  0  0  # atno 6908 bound_to 6896
  151.1869  133.4646  159.2627 H   0  0  0  0  0  0  0  0  0  0  0  0  # atno 6909 bound_to 6896
  145.7181  139.2638  143.1612 H   0  0  0  0  0  0  0  0  0  0  0  0  # atno 7974 bound_to 7965
  156.0232  140.3338  155.7060 H   0  0  0  0  0  0  0  0  0  0  0  0  # atno 8008 bound_to 7997
  155.5993  140.0654  157.2755 H   0  0  0  0  0  0  0  0  0  0  0  0  # atno 8009 bound_to 7997
  154.4324  140.1813  156.1144 H   0  0  0  0  0  0  0  0  0  0  0  0  # atno 8010 bound_to 7997
  140.7193  143.5369  150.9454 H   0  0  0  0  0  0  0  0  0  0  0  0  # atno 10167 bound_to 10162
  157.2424  131.0762  151.1783 H   0  0  0  0  0  0  0  0  0  0  0  0  # atno 10718 bound_to 10713
  152.9901  135.6154  154.2831 H   0  0  0  0  0  0  0  0  0  0  0  0  # atno 10763 bound_to 10752
  154.2559  135.2784  155.2799 H   0  0  0  0  0  0  0  0  0  0  0  0  # atno 10764 bound_to 10752
  154.5247  135.5805  153.6767 H   0  0  0  0  0  0  0  0  0  0  0  0  # atno 10765 bound_to 10752
  139.9876  134.9527  156.9779 H   0  0  0  0  0  0  0  0  0  0  0  0  # atno 11005 bound_to 11000
  146.0651  140.7929  142.9715 LP  0  0  0  0  0  0  0  0  0  0  0  0  # atno 17320 bound_to 7965
  144.6924  140.3256  143.7225 LP  0  0  0  0  0  0  0  0  0  0  0  0  # atno 17321 bound_to 7965
  139.9091  143.6742  152.3118 LP  0  0  0  0  0  0  0  0  0  0  0  0  # atno 17342 bound_to 10162
  139.7119  144.7619  151.1098 LP  0  0  0  0  0  0  0  0  0  0  0  0  # atno 17343 bound_to 10162
  157.3364  130.7011  149.6355 LP  0  0  0  0  0  0  0  0  0  0  0  0  # atno 17370 bound_to 10713
  155.9669  130.4292  150.4824 LP  0  0  0  0  0  0  0  0  0  0  0  0  # atno 17371 bound_to 10713
  140.4972  134.1133  155.7243 LP  0  0  0  0  0  0  0  0  0  0  0  0  # atno 17394 bound_to 11000
  141.1538  133.8921  157.2031 LP  0  0  0  0  0  0  0  0  0  0  0  0  # atno 17395 bound_to 11000

$$$$
