AV-unprocessed.smi:1216|AV-procd|sdf|5100|dock4
  -GOLD-   22720 4153D 1   1.00000     0.00000
 Structure written by MMmdl.
 42 43  0  0  0  0  0  0  0  0  1 V2000
  145.4405  137.9037  155.8231 C   0  0  0  0  0  0  0  0  0  0  0  0
  146.9241  138.1463  156.1303 C   0  0  2  0  0  0  0  0  0  0  0  0
  147.7498  138.2914  154.8334 C   0  0  0  0  0  0  0  0  0  0  0  0
  148.1076  139.6688  154.5444 N   0  0  0  0  0  0  0  0  0  0  0  0
  147.2630  140.7710  154.5354 C   0  0  0  0  0  0  0  0  0  0  0  0
  148.0431  141.8616  154.2235 C   0  0  0  0  0  0  0  0  0  0  0  0
  149.3607  141.4552  154.0271 N   0  0  0  0  0  0  0  0  0  0  0  0
  149.3200  140.1444  154.2285 C   0  0  0  0  0  0  0  0  0  0  0  0
  147.4275  137.0421  156.9465 N   0  0  0  0  0  0  0  0  0  0  0  0
  147.8846  137.1456  158.2046 C   0  0  0  0  0  0  0  0  0  0  0  0
  147.8817  138.1987  158.8431 O   0  0  0  0  0  0  0  0  0  0  0  0
  148.4233  135.8596  158.8412 C   0  0  0  0  0  0  0  0  0  0  0  0
  147.5404  135.3666  159.9084 N   0  0  0  0  0  0  0  0  0  0  0  0
  146.8769  134.0731  159.6774 C   0  0  0  0  0  0  0  0  0  0  0  0
  147.3742  132.9397  160.6042 C   0  0  0  0  0  0  0  0  0  0  0  0
  147.8653  133.3672  162.0014 C   0  0  0  0  0  0  0  0  0  0  0  0
  146.8801  134.2463  162.7997 C   0  0  0  0  0  0  0  0  0  0  0  0
  146.3685  135.5255  162.0952 C   0  0  0  0  0  0  0  0  0  0  0  0
  147.3259  136.0926  161.0346 C   0  0  0  0  0  0  0  0  0  0  0  0
  147.8615  137.1818  161.2430 O   0  0  0  0  0  0  0  0  0  0  0  0
  145.0222  138.7235  155.2384 H   0  0  0  0  0  0  0  0  0  0  0  0
  144.8566  137.8242  156.7407 H   0  0  0  0  0  0  0  0  0  0  0  0
  145.2970  136.9837  155.2554 H   0  0  0  0  0  0  0  0  0  0  0  0
  146.9867  139.0806  156.6912 H   0  0  0  0  0  0  0  0  0  0  0  0
  148.6616  137.6949  154.8913 H   0  0  0  0  0  0  0  0  0  0  0  0
  147.1819  137.9110  153.9836 H   0  0  0  0  0  0  0  0  0  0  0  0
  146.2088  140.6919  154.7555 H   0  0  0  0  0  0  0  0  0  0  0  0
  147.7594  142.8991  154.1249 H   0  0  0  0  0  0  0  0  0  0  0  0
  150.1958  139.5168  154.1540 H   0  0  0  0  0  0  0  0  0  0  0  0
  147.4639  136.1338  156.5067 H   0  0  0  0  0  0  0  0  0  0  0  0
  148.5315  135.1061  158.0603 H   0  0  0  0  0  0  0  0  0  0  0  0
  149.4317  136.0219  159.2268 H   0  0  0  0  0  0  0  0  0  0  0  0
  145.7998  134.1983  159.7907 H   0  0  0  0  0  0  0  0  0  0  0  0
  146.9953  133.7603  158.6393 H   0  0  0  0  0  0  0  0  0  0  0  0
  146.5825  132.1967  160.7060 H   0  0  0  0  0  0  0  0  0  0  0  0
  148.1975  132.4243  160.1086 H   0  0  0  0  0  0  0  0  0  0  0  0
  148.0894  132.4724  162.5828 H   0  0  0  0  0  0  0  0  0  0  0  0
  148.8198  133.8864  161.9052 H   0  0  0  0  0  0  0  0  0  0  0  0
  146.0191  133.6416  163.0864 H   0  0  0  0  0  0  0  0  0  0  0  0
  147.3607  134.5315  163.7361 H   0  0  0  0  0  0  0  0  0  0  0  0
  145.4002  135.3377  161.6317 H   0  0  0  0  0  0  0  0  0  0  0  0
  146.1713  136.2930  162.8449 H   0  0  0  0  0  0  0  0  0  0  0  0
  1  2  1  0  0  0  0
  1 21  1  0  0  0  0
  1 22  1  0  0  0  0
  1 23  1  0  0  0  0
  2  3  1  0  0  0  0
  2  9  1  0  0  0  0
  2 24  1  0  0  0  0
  3  4  1  0  0  0  0
  3 25  1  0  0  0  0
  3 26  1  0  0  0  0
  4  8  1  0  0  0  0
  4  5  1  0  0  0  0
  5  6  2  0  0  0  0
  5 27  1  0  0  0  0
  6  7  1  0  0  0  0
  6 28  1  0  0  0  0
  7  8  2  0  0  0  0
  8 29  1  0  0  0  0
  9 10  1  0  0  0  0
  9 30  1  0  0  0  0
 10 11  2  0  0  0  0
 10 12  1  0  0  0  0
 12 13  1  0  0  0  0
 12 31  1  0  0  0  0
 12 32  1  0  0  0  0
 13 19  1  0  0  0  0
 13 14  1  0  0  0  0
 14 15  1  0  0  0  0
 14 33  1  0  0  0  0
 14 34  1  0  0  0  0
 15 16  1  0  0  0  0
 15 35  1  0  0  0  0
 15 36  1  0  0  0  0
 16 17  1  0  0  0  0
 16 37  1  0  0  0  0
 16 38  1  0  0  0  0
 17 18  1  0  0  0  0
 17 39  1  0  0  0  0
 17 40  1  0  0  0  0
 18 19  1  0  0  0  0
 18 41  1  0  0  0  0
 18 42  1  0  0  0  0
 19 20  2  0  0  0  0
M  END
> <s_m_source_file>
AV-unprocessed.smi

> <i_m_source_file_index>
1216

> <i_lp_mmshare_version>
43012

> <i_f3d_flags>
0

> <s_epik_input>
W2NIXTFuW2NIXVtjSF1uMVtDSDJdW0NAQEhdKFtDSDNdKVtOSF1DKD1PKVtDSDJdTjJbQ0gyXVtDSDJdW0NIMl1bQ0gyXVtDSDJdQzI9Tw==

> <s_epik_cmdline>
J2VwaWtfcHl0aG9uJywgJy1waCcsICc3LjAnLCAnLXRuJywgJzgnLCAnLW1hJywgJzIwMCcsICctbWV0YWxfYmluZGluZycsICctaW1hZScsICc8aW5maWxlLm1hZT4nLCAnLW9tYWUnLCAnPG91dGZpbGUubWFlPic=

> <r_lp_tautomer_probability>
1

> <r_epik_Ionization_Penalty>
0.623868

> <r_epik_Ionization_Penalty_Charging>
0.623868

> <r_epik_Ionization_Penalty_Neutral>
4.50838e-08

> <r_epik_State_Penalty>
0.640129

> <r_epik_Charging_Adjusted_Penalty>
1.264

> <i_epik_Tot_Q>
0

> <i_epik_Tot_abs_Q>
0

> <r_epik_Metal_State_Penalty>
0.307431

> <b_epik_Metal_Only>
0

> <s_lp_Force_Field>
OPLS_2005

> <r_lp_Energy>
19.0473

> <b_lp_Chiralities_Consistent>
1

> <s_lp_Variant>
AV-unprocessed.smi:1216-3

> <Gold.Version>
5.8.1

> <Gold.Id.Protein>
6NUR|6NUR_protein|mol2

> <Gold.PLP.Fitness>
36.6485

> <Gold.PLP.PLP>
-28.4270

> <Gold.PLP.part.hbond>
-5.0000

> <Gold.PLP.part.metal>
0.0000

> <Gold.PLP.part.buried>
-1.1355

> <Gold.PLP.part.nonpolar>
-22.5280

> <Gold.PLP.part.repulsive>
0.1937

> <Gold.PLP.ligand.clash>
0.0000

> <Gold.PLP.ligand.torsion>
0.8602

> <Gold.PLP.Chemscore.Hbond>
2.4640

> <Gold.PLP.Chemscore.CHOScore>
0.8252

> <Gold.PLP.Chemscore.Metal>
0.0000

> <Gold.Chemscore.Hbonds>
donor molecule, donor type, donor heavy atom, donor atom, acceptor molecule, acceptor atom, score
      P1  H  6931  6943       L1    20  1.00
      P1  H  6934  6947       L1    20  0.77
      P1  H  8011  8017       L1     7  0.70
      L1  C     6    28       P1  8028  0.70

> <Gold.PLP.Chemscore.Internal.Correction>
0.0745

> <Gold.Rescore>
     Score         DG    S(hbond)    S(metal)    S(lipo)     H(rot)  DE(clash)    DE(int)     intcor
     10.63     -13.80       2.34        0.00      51.11       2.13       0.10       3.08       ----

> <Gold.Chemscore.Fitness>
10.6310

> <Gold.Chemscore.DG>
-13.8034

> <Gold.Chemscore.ZeroCoef>
-5.4800

> <Gold.Chemscore.Hbond>
2.3371

> <Gold.Chemscore.Metal>
0.0000

> <Gold.Chemscore.Lipo>
51.1099

> <Gold.Chemscore.Internal_Hbond>
0.0000

> <Gold.Chemscore.DEClash>
0.0970

> <Gold.Chemscore.DEInternal>
3.0754

> <Gold.Chemscore.Rot>
2.1338

> <Gold.Chemscore.Internal.Correction>
   9.000000E+99

> <Gold.Chemscore.Hbonds>
donor molecule, donor type, donor heavy atom, donor atom, acceptor molecule, acceptor atom, score
      P1  H  6931  6943       L1    20  0.94
      P1  H  6934  6947       L1    20  0.74
      P1  H  8011  8017       L1     7  0.20

> <Gold.Chemscore.Hbond.Weighted>
-7.8060

> <Gold.Chemscore.Metal.Weighted>
-0.0000

> <Gold.Chemscore.Lipo.Weighted>
-5.9799

> <Gold.Chemscore.Internal_Hbond.Weighted>
0.0000

> <Gold.Chemscore.DEClash.Weighted>
0.0970

> <Gold.Chemscore.DEInternal.Weighted>
3.0754

> <Gold.Chemscore.Rot.Weighted>
5.4625

> <Gold.Chemscore.Internal.Correction.Weighted>
   9.000000E+99

> <Gold.Protein.RotatedTorsions>
[ 6907 6896 6895 6894 ] final  125.25 input  -60.11 | X-H torsion
[ 7974 7965 7964 7962 ] final  142.29 input  175.53 | X-H torsion
[ 8008 7997 7996 7995 ] final  -54.83 input   59.86 | X-H torsion
[ 10167 10162 10161 10158 ] final   22.21 input  -65.29 | X-H torsion
[ 10718 10713 10712 10709 ] final   57.91 input   66.30 | X-H torsion
[ 10763 10752 10751 10750 ] final -134.22 input  -60.55 | X-H torsion
[ 11005 11000 10999 10996 ] final  177.13 input  -57.11 | X-H torsion

> <Gold.Protein.ActiveResidues>
 VAL166  LYS551  ARG553  GLY616  TRP617  ASP618  TYR619  PRO620  LYS621  CYS622 
 ASP623  PHE694  ASN695  SER759  ASP760  ASP761  ALA762  ILE779  LEU786  VAL792 
 PHE793  MET794  SER795  GLU796  ALA797  LYS798  CYS799  TRP800  GLU811  SER814 

> <Gold.Protein.RotatedAtoms>
  152.4008  133.6816  159.6314 H   0  0  0  0  0  0  0  0  0  0  0  0  # atno 6907 bound_to 6896
  150.7900  133.8794  159.3290 H   0  0  0  0  0  0  0  0  0  0  0  0  # atno 6908 bound_to 6896
  151.6559  135.0997  160.0221 H   0  0  0  0  0  0  0  0  0  0  0  0  # atno 6909 bound_to 6896
  144.9021  139.5409  143.5749 H   0  0  0  0  0  0  0  0  0  0  0  0  # atno 7974 bound_to 7965
  154.4175  140.1167  156.5378 H   0  0  0  0  0  0  0  0  0  0  0  0  # atno 8008 bound_to 7997
  155.6539  140.3496  155.4739 H   0  0  0  0  0  0  0  0  0  0  0  0  # atno 8009 bound_to 7997
  155.9770  140.1152  157.0751 H   0  0  0  0  0  0  0  0  0  0  0  0  # atno 8010 bound_to 7997
  140.5366  143.9750  150.6495 H   0  0  0  0  0  0  0  0  0  0  0  0  # atno 10167 bound_to 10162
  157.5553  130.8796  149.9026 H   0  0  0  0  0  0  0  0  0  0  0  0  # atno 10718 bound_to 10713
  154.8722  135.3741  154.4700 H   0  0  0  0  0  0  0  0  0  0  0  0  # atno 10763 bound_to 10752
  153.5362  135.7027  153.5664 H   0  0  0  0  0  0  0  0  0  0  0  0  # atno 10764 bound_to 10752
  153.3846  135.3988  155.1846 H   0  0  0  0  0  0  0  0  0  0  0  0  # atno 10765 bound_to 10752
  140.3807  134.6949  157.4449 H   0  0  0  0  0  0  0  0  0  0  0  0  # atno 11005 bound_to 11000
  146.3114  139.7759  142.9017 LP  0  0  0  0  0  0  0  0  0  0  0  0  # atno 17320 bound_to 7965
  145.3598  141.0324  143.3291 LP  0  0  0  0  0  0  0  0  0  0  0  0  # atno 17321 bound_to 7965
  140.3139  143.3180  152.0852 LP  0  0  0  0  0  0  0  0  0  0  0  0  # atno 17342 bound_to 10162
  139.4973  144.6618  151.6447 LP  0  0  0  0  0  0  0  0  0  0  0  0  # atno 17343 bound_to 10162
  156.0613  130.3699  150.0976 LP  0  0  0  0  0  0  0  0  0  0  0  0  # atno 17370 bound_to 10713
  156.9145  130.9662  151.3558 LP  0  0  0  0  0  0  0  0  0  0  0  0  # atno 17371 bound_to 10713
  140.0481  134.6170  155.8896 LP  0  0  0  0  0  0  0  0  0  0  0  0  # atno 17394 bound_to 11000
  141.1924  133.6575  156.5502 LP  0  0  0  0  0  0  0  0  0  0  0  0  # atno 17395 bound_to 11000

$$$$
