AV-unprocessed.smi:189|AV-procd|sdf|1487|dock1
  -GOLD-   2262019303D 1   1.00000     0.00000
 Structure written by MMmdl.
 53 57  0  0  0  0  0  0  0  0  1 V2000
  152.5611  138.4755  159.7160 C   0  0  0  0  0  0  0  0  0  0  0  0
  152.9664  139.8909  159.2799 C   0  0  2  0  0  0  0  0  0  0  0  0
  153.4419  140.7918  160.4455 C   0  0  0  0  0  0  0  0  0  0  0  0
  152.5224  142.0100  160.3578 C   0  0  1  0  0  0  0  0  0  0  0  0
  153.0684  143.3849  160.7606 C   0  0  0  0  0  0  0  0  0  0  0  0
  151.9827  144.4521  160.5024 C   0  0  0  0  0  0  0  0  0  0  0  0
  151.4362  144.4045  159.0559 C   0  0  0  0  0  0  0  0  0  0  0  0
  150.9780  142.9899  158.6415 C   0  0  0  0  0  0  0  0  0  0  0  0
  152.1293  142.0033  158.8908 C   0  0  2  0  0  0  0  0  0  0  0  0
  151.8572  140.6008  158.6357 N   0  0  0  0  0  0  0  0  0  0  0  0
  151.6089  140.2861  157.3444 C   0  0  0  0  0  0  0  0  0  0  0  0
  152.5087  139.5683  156.6213 N   0  0  0  0  0  0  0  0  0  0  0  0
  152.2520  139.2723  155.3435 C   0  0  0  0  0  0  0  0  0  0  0  0
  151.1831  139.5928  154.6101 N   0  0  0  0  0  0  0  0  0  0  0  0
  150.2846  140.3213  155.3339 C   0  0  0  0  0  0  0  0  0  0  0  0
  150.4191  140.7063  156.6966 C   0  0  0  0  0  0  0  0  0  0  0  0
  149.3094  141.4364  157.1006 N   0  0  0  0  0  0  0  0  0  0  0  0
  148.5577  141.4801  156.0345 C   0  0  0  0  0  0  0  0  0  0  0  0
  149.0699  140.8443  154.9249 N   0  0  0  0  0  0  0  0  0  0  0  0
  148.4435  140.7399  153.6155 C   0  0  0  0  0  0  0  0  0  0  0  0
  147.0741  140.0182  153.6366 C   0  0  2  0  0  0  0  0  0  0  0  0
  146.0484  140.9845  153.7800 O   0  0  0  0  0  0  0  0  0  0  0  0
  146.9656  139.0055  154.7787 C   0  0  0  0  0  0  0  0  0  0  0  0
  147.0041  137.6576  154.0688 C   0  0  0  0  0  0  0  0  0  0  0  0
  146.3201  137.9255  152.8580 O   0  0  0  0  0  0  0  0  0  0  0  0
  146.7999  139.1726  152.3768 C   0  0  0  0  0  0  0  0  0  0  0  0
  153.3893  137.9673  160.2100 H   0  0  0  0  0  0  0  0  0  0  0  0
  152.2649  137.8687  158.8601 H   0  0  0  0  0  0  0  0  0  0  0  0
  151.7220  138.5029  160.4121 H   0  0  0  0  0  0  0  0  0  0  0  0
  153.7958  139.7997  158.5769 H   0  0  0  0  0  0  0  0  0  0  0  0
  153.3683  140.3057  161.4189 H   0  0  0  0  0  0  0  0  0  0  0  0
  154.4835  141.0779  160.2935 H   0  0  0  0  0  0  0  0  0  0  0  0
  151.6362  141.7980  160.9602 H   0  0  0  0  0  0  0  0  0  0  0  0
  153.3576  143.3863  161.8119 H   0  0  0  0  0  0  0  0  0  0  0  0
  153.9650  143.6172  160.1847 H   0  0  0  0  0  0  0  0  0  0  0  0
  151.1578  144.2982  161.1992 H   0  0  0  0  0  0  0  0  0  0  0  0
  152.3811  145.4444  160.7158 H   0  0  0  0  0  0  0  0  0  0  0  0
  150.6105  145.1082  158.9479 H   0  0  0  0  0  0  0  0  0  0  0  0
  152.2154  144.7412  158.3708 H   0  0  0  0  0  0  0  0  0  0  0  0
  150.0977  142.6972  159.2154 H   0  0  0  0  0  0  0  0  0  0  0  0
  150.6865  142.9847  157.5907 H   0  0  0  0  0  0  0  0  0  0  0  0
  152.9875  142.3058  158.2865 H   0  0  0  0  0  0  0  0  0  0  0  0
  153.0128  138.6983  154.8354 H   0  0  0  0  0  0  0  0  0  0  0  0
  147.6028  141.9852  156.0262 H   0  0  0  0  0  0  0  0  0  0  0  0
  148.3287  141.7459  153.2096 H   0  0  0  0  0  0  0  0  0  0  0  0
  149.1344  140.2210  152.9495 H   0  0  0  0  0  0  0  0  0  0  0  0
  145.2537  140.6327  153.4085 H   0  0  0  0  0  0  0  0  0  0  0  0
  147.7562  139.1033  155.5237 H   0  0  0  0  0  0  0  0  0  0  0  0
  146.0121  139.1033  155.3009 H   0  0  0  0  0  0  0  0  0  0  0  0
  148.0306  137.3552  153.8548 H   0  0  0  0  0  0  0  0  0  0  0  0
  146.5202  136.8654  154.6404 H   0  0  0  0  0  0  0  0  0  0  0  0
  146.0934  139.6330  151.6849 H   0  0  0  0  0  0  0  0  0  0  0  0
  147.7194  138.9770  151.8252 H   0  0  0  0  0  0  0  0  0  0  0  0
  1  2  1  0  0  0  0
  1 27  1  0  0  0  0
  1 28  1  0  0  0  0
  1 29  1  0  0  0  0
  2 10  1  0  0  0  0
  2  3  1  0  0  0  0
  2 30  1  0  0  0  0
  3  4  1  0  0  0  0
  3 31  1  0  0  0  0
  3 32  1  0  0  0  0
  4  9  1  0  0  0  0
  4  5  1  0  0  0  0
  4 33  1  0  0  0  0
  5  6  1  0  0  0  0
  5 34  1  0  0  0  0
  5 35  1  0  0  0  0
  6  7  1  0  0  0  0
  6 36  1  0  0  0  0
  6 37  1  0  0  0  0
  7  8  1  0  0  0  0
  7 38  1  0  0  0  0
  7 39  1  0  0  0  0
  8  9  1  0  0  0  0
  8 40  1  0  0  0  0
  8 41  1  0  0  0  0
  9 10  1  0  0  0  0
  9 42  1  0  0  0  0
 10 11  1  0  0  0  0
 11 16  1  0  0  0  0
 11 12  2  0  0  0  0
 12 13  1  0  0  0  0
 13 14  2  0  0  0  0
 13 43  1  0  0  0  0
 14 15  1  0  0  0  0
 15 19  1  0  0  0  0
 15 16  2  0  0  0  0
 16 17  1  0  0  0  0
 17 18  2  0  0  0  0
 18 19  1  0  0  0  0
 18 44  1  0  0  0  0
 19 20  1  0  0  0  0
 20 21  1  0  0  0  0
 20 45  1  0  0  0  0
 20 46  1  0  0  0  0
 21 26  1  0  0  0  0
 21 22  1  0  0  0  0
 21 23  1  0  0  0  0
 22 47  1  0  0  0  0
 23 24  1  0  0  0  0
 23 48  1  0  0  0  0
 23 49  1  0  0  0  0
 24 25  1  0  0  0  0
 24 50  1  0  0  0  0
 24 51  1  0  0  0  0
 25 26  1  0  0  0  0
 26 52  1  0  0  0  0
 26 53  1  0  0  0  0
M  END
> <s_m_source_file>
AV-unprocessed.smi

> <i_m_source_file_index>
189

> <i_lp_mmshare_version>
43012

> <i_f3d_flags>
0

> <s_epik_input>
W0NIMl0xW0NIMl1bQ0gyXVtDSDJdW0NASF0oW0NASF0xMilOKFtDQEhdKFtDSDNdKVtDSDJdMiljKG5bY0hdbjMpYyhjMzQpbltjSF1uNFtDSDJdW0NAQF01KFtPSF0pW0NIMl1bQ0gyXU9bQ0gyXTU=

> <s_epik_cmdline>
J2VwaWtfcHl0aG9uJywgJy1waCcsICc3LjAnLCAnLXRuJywgJzgnLCAnLW1hJywgJzIwMCcsICctbWV0YWxfYmluZGluZycsICctaW1hZScsICc8aW5maWxlLm1hZT4nLCAnLW9tYWUnLCAnPG91dGZpbGUubWFlPic=

> <r_lp_tautomer_probability>
1

> <r_epik_Ionization_Penalty>
0.00594261

> <r_epik_Ionization_Penalty_Charging>
0

> <r_epik_Ionization_Penalty_Neutral>
0.00594261

> <r_epik_State_Penalty>
0.00429776

> <r_epik_Charging_Adjusted_Penalty>
0.00429776

> <i_epik_Tot_Q>
0

> <i_epik_Tot_abs_Q>
0

> <r_epik_Metal_State_Penalty>
-0

> <b_epik_Metal_Only>
0

> <s_lp_Force_Field>
OPLS_2005

> <r_lp_Energy>
58.4812

> <b_lp_Chiralities_Consistent>
1

> <s_lp_Variant>
AV-unprocessed.smi:189-13

> <Gold.Version>
5.8.1

> <Gold.Id.Protein>
6NUR|6NUR_protein|mol2

> <Gold.PLP.Fitness>
53.7523

> <Gold.PLP.PLP>
-46.4736

> <Gold.PLP.part.hbond>
-3.0000

> <Gold.PLP.part.metal>
0.0000

> <Gold.PLP.part.buried>
-2.8742

> <Gold.PLP.part.nonpolar>
-41.5147

> <Gold.PLP.part.repulsive>
0.4440

> <Gold.PLP.ligand.clash>
0.0000

> <Gold.PLP.ligand.torsion>
0.8839

> <Gold.PLP.Chemscore.Hbond>
3.0000

> <Gold.PLP.Chemscore.CHOScore>
0.0000

> <Gold.PLP.Chemscore.Metal>
0.0000

> <Gold.Chemscore.Hbonds>
donor molecule, donor type, donor heavy atom, donor atom, acceptor molecule, acceptor atom, score
      L1  H    22    47       P1 10175  1.00
      P1  H  7989  7998       L1    14  0.85
      P1  H  7997  8008       L1    12  0.90

> <Gold.PLP.Chemscore.Internal.Correction>
0.0465

> <Gold.Rescore>
     Score         DG    S(hbond)    S(metal)    S(lipo)     H(rot)  DE(clash)    DE(int)     intcor
     15.62     -19.69       1.60        0.00     120.12       2.03       1.29       2.78       ----

> <Gold.Chemscore.Fitness>
15.6223

> <Gold.Chemscore.DG>
-19.6949

> <Gold.Chemscore.ZeroCoef>
-5.4800

> <Gold.Chemscore.Hbond>
1.6037

> <Gold.Chemscore.Metal>
0.0000

> <Gold.Chemscore.Lipo>
120.1231

> <Gold.Chemscore.Internal_Hbond>
0.0000

> <Gold.Chemscore.DEClash>
1.2880

> <Gold.Chemscore.DEInternal>
2.7845

> <Gold.Chemscore.Rot>
2.0297

> <Gold.Chemscore.Internal.Correction>
   9.000000E+99

> <Gold.Chemscore.Hbonds>
donor molecule, donor type, donor heavy atom, donor atom, acceptor molecule, acceptor atom, score
      L1  H    22    47       P1 10175  0.94
      P1  H  7989  7998       L1    14  0.10
      P1  H  7997  8008       L1    12  0.18

> <Gold.Chemscore.Hbond.Weighted>
-5.3565

> <Gold.Chemscore.Metal.Weighted>
-0.0000

> <Gold.Chemscore.Lipo.Weighted>
-14.0544

> <Gold.Chemscore.Internal_Hbond.Weighted>
0.0000

> <Gold.Chemscore.DEClash.Weighted>
1.2880

> <Gold.Chemscore.DEInternal.Weighted>
2.7845

> <Gold.Chemscore.Rot.Weighted>
5.1960

> <Gold.Chemscore.Internal.Correction.Weighted>
   9.000000E+99

> <Gold.Protein.RotatedTorsions>
[ 6907 6896 6895 6894 ] final  120.37 input  -60.11 | X-H torsion
[ 7974 7965 7964 7962 ] final  -53.29 input  175.53 | X-H torsion
[ 8008 7997 7996 7995 ] final  -46.26 input   59.86 | X-H torsion
[ 10167 10162 10161 10158 ] final  161.60 input  -65.29 | X-H torsion
[ 10718 10713 10712 10709 ] final   -9.54 input   66.30 | X-H torsion
[ 10763 10752 10751 10750 ] final   88.66 input  -60.55 | X-H torsion
[ 11005 11000 10999 10996 ] final  156.07 input  -57.11 | X-H torsion

> <Gold.Protein.ActiveResidues>
 VAL166  LYS551  ARG553  GLY616  TRP617  ASP618  TYR619  PRO620  LYS621  CYS622 
 ASP623  PHE694  ASN695  SER759  ASP760  ASP761  ALA762  ILE779  LEU786  VAL792 
 PHE793  MET794  SER795  GLU796  ALA797  LYS798  CYS799  TRP800  GLU811  SER814 

> <Gold.Protein.RotatedAtoms>
  152.4403  133.7435  159.6653 H   0  0  0  0  0  0  0  0  0  0  0  0  # atno 6907 bound_to 6896
  150.8292  133.8109  159.3112 H   0  0  0  0  0  0  0  0  0  0  0  0  # atno 6908 bound_to 6896
  151.5768  135.1062  160.0059 H   0  0  0  0  0  0  0  0  0  0  0  0  # atno 6909 bound_to 6896
  145.8984  140.8014  142.9755 H   0  0  0  0  0  0  0  0  0  0  0  0  # atno 7974 bound_to 7965
  154.4006  140.1376  156.3982 H   0  0  0  0  0  0  0  0  0  0  0  0  # atno 8008 bound_to 7997
  155.7849  140.3480  155.5297 H   0  0  0  0  0  0  0  0  0  0  0  0  # atno 8009 bound_to 7997
  155.8637  140.0960  157.1587 H   0  0  0  0  0  0  0  0  0  0  0  0  # atno 8010 bound_to 7997
  139.4851  144.4520  151.8817 H   0  0  0  0  0  0  0  0  0  0  0  0  # atno 10167 bound_to 10162
  156.6865  130.5052  149.5956 H   0  0  0  0  0  0  0  0  0  0  0  0  # atno 10718 bound_to 10713
  153.1791  135.4499  155.0004 H   0  0  0  0  0  0  0  0  0  0  0  0  # atno 10763 bound_to 10752
  154.8018  135.3258  154.7534 H   0  0  0  0  0  0  0  0  0  0  0  0  # atno 10764 bound_to 10752
  153.8001  135.6963  153.4912 H   0  0  0  0  0  0  0  0  0  0  0  0  # atno 10765 bound_to 10752
  140.1640  134.8590  157.2609 H   0  0  0  0  0  0  0  0  0  0  0  0  # atno 11005 bound_to 11000
  144.6734  140.1639  143.7420 LP  0  0  0  0  0  0  0  0  0  0  0  0  # atno 17320 bound_to 7965
  145.8821  139.2329  143.1599 LP  0  0  0  0  0  0  0  0  0  0  0  0  # atno 17321 bound_to 7965
  140.3977  144.2533  150.5895 LP  0  0  0  0  0  0  0  0  0  0  0  0  # atno 17342 bound_to 10162
  140.5086  143.2297  151.8570 LP  0  0  0  0  0  0  0  0  0  0  0  0  # atno 17343 bound_to 10162
  156.1829  130.6510  151.0972 LP  0  0  0  0  0  0  0  0  0  0  0  0  # atno 17370 bound_to 10713
  157.7024  131.0770  150.6776 LP  0  0  0  0  0  0  0  0  0  0  0  0  # atno 17371 bound_to 10713
  140.2456  134.3744  155.7463 LP  0  0  0  0  0  0  0  0  0  0  0  0  # atno 17394 bound_to 11000
  141.2212  133.7288  156.8856 LP  0  0  0  0  0  0  0  0  0  0  0  0  # atno 17395 bound_to 11000

$$$$
