AV-unprocessed.smi:486|AV-procd|sdf|2698|dock4
  -GOLD-   2262023133D 1   1.00000     0.00000
 Structure written by MMmdl.
 44 46  0  0  0  0  0  0  0  0  2 V2000
  146.0352  131.7530  161.1852 C   0  0  0  0  0  0  0  0  0  0  0  0
  146.1885  132.9156  161.9862 O   0  0  0  0  0  0  0  0  0  0  0  0
  146.8333  134.0025  161.4356 C   0  0  0  0  0  0  0  0  0  0  0  0
  146.9914  135.1377  162.2544 C   0  0  0  0  0  0  0  0  0  0  0  0
  147.6398  136.2901  161.7713 C   0  0  0  0  0  0  0  0  0  0  0  0
  148.1473  136.3352  160.4582 C   0  0  0  0  0  0  0  0  0  0  0  0
  148.7696  137.5011  160.0663 O   0  0  0  0  0  0  0  0  0  0  0  0
  149.3592  137.5486  158.7736 C   0  0  0  0  0  0  0  0  0  0  0  0
  150.4617  138.6190  158.7711 C   0  0  1  0  0  0  0  0  0  0  0  0
  151.6443  138.0446  159.2914 O   0  0  0  0  0  0  0  0  0  0  0  0
  150.7384  139.1531  157.3515 C   0  0  0  0  0  0  0  0  0  0  0  0
  150.7987  140.6228  157.2934 N   0  0  0  0  0  0  0  0  0  0  0  0
  150.1125  141.4941  156.5001 C   0  0  0  0  0  0  0  0  0  0  0  0
  149.0969  141.1451  155.4648 C   0  0  0  0  0  0  0  0  0  0  0  0
  150.5275  142.7507  156.8248 N   0  3  0  0  0  0  0  0  0  0  0  0
  151.4859  142.6842  157.8367 C   0  0  0  0  0  0  0  0  0  0  0  0
  152.1911  143.6907  158.4893 C   0  0  0  0  0  0  0  0  0  0  0  0
  153.1004  143.2816  159.4866 C   0  0  0  0  0  0  0  0  0  0  0  0
  153.2803  141.9192  159.8018 C   0  0  0  0  0  0  0  0  0  0  0  0
  152.5611  140.9076  159.1316 C   0  0  0  0  0  0  0  0  0  0  0  0
  151.6647  141.3198  158.1453 C   0  0  0  0  0  0  0  0  0  0  0  0
  147.9896  135.1965  159.6302 C   0  0  0  0  0  0  0  0  0  0  0  0
  147.3394  134.0439  160.1132 C   0  0  0  0  0  0  0  0  0  0  0  0
  145.5175  130.9858  161.7605 H   0  0  0  0  0  0  0  0  0  0  0  0
  147.0010  131.3441  160.8858 H   0  0  0  0  0  0  0  0  0  0  0  0
  145.4375  131.9578  160.2960 H   0  0  0  0  0  0  0  0  0  0  0  0
  146.6122  135.1257  163.2658 H   0  0  0  0  0  0  0  0  0  0  0  0
  147.7495  137.1485  162.4176 H   0  0  0  0  0  0  0  0  0  0  0  0
  149.7612  136.5780  158.4764 H   0  0  0  0  0  0  0  0  0  0  0  0
  148.5872  137.8249  158.0535 H   0  0  0  0  0  0  0  0  0  0  0  0
  150.1634  139.4510  159.4103 H   0  0  0  0  0  0  0  0  0  0  0  0
  151.4017  137.3862  159.9252 H   0  0  0  0  0  0  0  0  0  0  0  0
  151.6585  138.7353  156.9425 H   0  0  0  0  0  0  0  0  0  0  0  0
  149.9408  138.8403  156.6767 H   0  0  0  0  0  0  0  0  0  0  0  0
  148.6604  142.0472  155.0354 H   0  0  0  0  0  0  0  0  0  0  0  0
  148.2973  140.5501  155.9062 H   0  0  0  0  0  0  0  0  0  0  0  0
  149.5604  140.5681  154.6644 H   0  0  0  0  0  0  0  0  0  0  0  0
  152.0531  144.7351  158.2508 H   0  0  0  0  0  0  0  0  0  0  0  0
  153.6696  144.0279  160.0221 H   0  0  0  0  0  0  0  0  0  0  0  0
  153.9829  141.6435  160.5747 H   0  0  0  0  0  0  0  0  0  0  0  0
  152.7027  139.8679  159.3867 H   0  0  0  0  0  0  0  0  0  0  0  0
  148.3588  135.1801  158.6163 H   0  0  0  0  0  0  0  0  0  0  0  0
  147.2426  133.2010  159.4461 H   0  0  0  0  0  0  0  0  0  0  0  0
  150.1782  143.5922  156.3847 H   0  0  0  0  0  0  0  0  0  0  0  0
  1  2  1  0  0  0  0
  1 24  1  0  0  0  0
  1 25  1  0  0  0  0
  1 26  1  0  0  0  0
  2  3  1  0  0  0  0
  3 23  1  0  0  0  0
  3  4  2  0  0  0  0
  4  5  1  0  0  0  0
  4 27  1  0  0  0  0
  5  6  2  0  0  0  0
  5 28  1  0  0  0  0
  6  7  1  0  0  0  0
  6 22  1  0  0  0  0
  7  8  1  0  0  0  0
  8  9  1  0  0  0  0
  8 29  1  0  0  0  0
  8 30  1  0  0  0  0
  9 10  1  0  0  0  0
  9 11  1  0  0  0  0
  9 31  1  0  0  0  0
 10 32  1  0  0  0  0
 11 12  1  0  0  0  0
 11 33  1  0  0  0  0
 11 34  1  0  0  0  0
 12 21  1  0  0  0  0
 12 13  1  0  0  0  0
 13 14  1  0  0  0  0
 13 15  2  0  0  0  0
 14 35  1  0  0  0  0
 14 36  1  0  0  0  0
 14 37  1  0  0  0  0
 15 16  1  0  0  0  0
 15 44  1  0  0  0  0
 16 21  2  0  0  0  0
 16 17  1  0  0  0  0
 17 18  2  0  0  0  0
 17 38  1  0  0  0  0
 18 19  1  0  0  0  0
 18 39  1  0  0  0  0
 19 20  2  0  0  0  0
 19 40  1  0  0  0  0
 20 21  1  0  0  0  0
 20 41  1  0  0  0  0
 22 23  2  0  0  0  0
 22 42  1  0  0  0  0
 23 43  1  0  0  0  0
M  CHG  1  15   1
M  END
> <s_m_source_file>
AV-unprocessed.smi

> <i_m_source_file_index>
486

> <i_lp_mmshare_version>
43012

> <i_f3d_flags>
0

> <s_epik_input>
W0NIM11PYzFbY0hdW2NIXWMoW2NIXVtjSF0xKU9bQ0gyXVtDQEhdKFtPSF0pW0NIMl1uKGMobjIpW0NIM10pYyhjMjMpW2NIXVtjSF1bY0hdW2NIXTM=

> <s_epik_cmdline>
J2VwaWtfcHl0aG9uJywgJy1waCcsICc3LjAnLCAnLXRuJywgJzgnLCAnLW1hJywgJzIwMCcsICctbWV0YWxfYmluZGluZycsICctaW1hZScsICc8aW5maWxlLm1hZT4nLCAnLW9tYWUnLCAnPG91dGZpbGUubWFlPic=

> <r_lp_tautomer_probability>
1

> <r_epik_Ionization_Penalty>
1.03234

> <r_epik_Ionization_Penalty_Charging>
1.03234

> <r_epik_Ionization_Penalty_Neutral>
2.3993e-06

> <r_epik_State_Penalty>
1.0836

> <r_epik_Charging_Adjusted_Penalty>
2.11594

> <i_epik_Tot_Q>
1

> <i_epik_Tot_abs_Q>
1

> <r_epik_Metal_State_Penalty>
5.07275

> <b_epik_Metal_Only>
0

> <s_lp_Force_Field>
OPLS_2005

> <r_lp_Energy>
23.3843

> <b_lp_Chiralities_Consistent>
1

> <s_lp_Variant>
AV-unprocessed.smi:486-4

> <Gold.Version>
5.8.1

> <Gold.Id.Protein>
6NUR|6NUR_protein|mol2

> <Gold.PLP.Fitness>
50.6823

> <Gold.PLP.PLP>
-45.5086

> <Gold.PLP.part.hbond>
-3.0000

> <Gold.PLP.part.metal>
0.0000

> <Gold.PLP.part.buried>
-6.0896

> <Gold.PLP.part.nonpolar>
-37.6912

> <Gold.PLP.part.repulsive>
0.0753

> <Gold.PLP.ligand.clash>
0.0000

> <Gold.PLP.ligand.torsion>
1.1048

> <Gold.PLP.Chemscore.Hbond>
2.4171

> <Gold.PLP.Chemscore.CHOScore>
0.0000

> <Gold.PLP.Chemscore.Metal>
0.0000

> <Gold.Chemscore.Hbonds>
donor molecule, donor type, donor heavy atom, donor atom, acceptor molecule, acceptor atom, score
      L1  H    15    44       P1  8028  2.00
      P1  H  6931  6943       L1     7  0.36
      P1  H  6934  6947       L1     7  0.07

> <Gold.PLP.Chemscore.Internal.Correction>
0.1321

> <Gold.Rescore>
     Score         DG    S(hbond)    S(metal)    S(lipo)     H(rot)  DE(clash)    DE(int)     intcor
     16.85     -18.00       1.34        0.00     121.26       2.40       0.08       1.07       ----

> <Gold.Chemscore.Fitness>
16.8523

> <Gold.Chemscore.DG>
-18.0035

> <Gold.Chemscore.ZeroCoef>
-5.4800

> <Gold.Chemscore.Hbond>
1.3376

> <Gold.Chemscore.Metal>
0.0000

> <Gold.Chemscore.Lipo>
121.2620

> <Gold.Chemscore.Internal_Hbond>
0.0000

> <Gold.Chemscore.DEClash>
0.0794

> <Gold.Chemscore.DEInternal>
1.0718

> <Gold.Chemscore.Rot>
2.3952

> <Gold.Chemscore.Internal.Correction>
   9.000000E+99

> <Gold.Chemscore.Hbonds>
donor molecule, donor type, donor heavy atom, donor atom, acceptor molecule, acceptor atom, score
      L1  H    15    44       P1  8028  0.99
      P1  H  6931  6943       L1     7  0.07
      P1  H  6934  6947       L1     7  0.02

> <Gold.Chemscore.Hbond.Weighted>
-4.4675

> <Gold.Chemscore.Metal.Weighted>
-0.0000

> <Gold.Chemscore.Lipo.Weighted>
-14.1877

> <Gold.Chemscore.Internal_Hbond.Weighted>
0.0000

> <Gold.Chemscore.DEClash.Weighted>
0.0794

> <Gold.Chemscore.DEInternal.Weighted>
1.0718

> <Gold.Chemscore.Rot.Weighted>
6.1316

> <Gold.Chemscore.Internal.Correction.Weighted>
   9.000000E+99

> <Gold.Protein.RotatedTorsions>
[ 6907 6896 6895 6894 ] final    4.33 input  -60.11 | X-H torsion
[ 7974 7965 7964 7962 ] final  -83.01 input  175.53 | X-H torsion
[ 8008 7997 7996 7995 ] final  105.82 input   59.86 | X-H torsion
[ 10167 10162 10161 10158 ] final   83.35 input  -65.29 | X-H torsion
[ 10718 10713 10712 10709 ] final  123.85 input   66.30 | X-H torsion
[ 10763 10752 10751 10750 ] final -161.21 input  -60.55 | X-H torsion
[ 11005 11000 10999 10996 ] final   72.91 input  -57.11 | X-H torsion

> <Gold.Protein.ActiveResidues>
 VAL166  LYS551  ARG553  GLY616  TRP617  ASP618  TYR619  PRO620  LYS621  CYS622 
 ASP623  PHE694  ASN695  SER759  ASP760  ASP761  ALA762  ILE779  LEU786  VAL792 
 PHE793  MET794  SER795  GLU796  ALA797  LYS798  CYS799  TRP800  GLU811  SER814 

> <Gold.Protein.RotatedAtoms>
  151.6395  135.1014  160.0138 H   0  0  0  0  0  0  0  0  0  0  0  0  # atno 6907 bound_to 6896
  152.4062  133.6888  159.6366 H   0  0  0  0  0  0  0  0  0  0  0  0  # atno 6908 bound_to 6896
  150.7956  133.8622  159.3276 H   0  0  0  0  0  0  0  0  0  0  0  0  # atno 6909 bound_to 6896
  145.5257  140.9527  143.1631 H   0  0  0  0  0  0  0  0  0  0  0  0  # atno 7974 bound_to 7965
  156.1691  140.3124  155.8941 H   0  0  0  0  0  0  0  0  0  0  0  0  # atno 8008 bound_to 7997
  155.3624  140.0477  157.3063 H   0  0  0  0  0  0  0  0  0  0  0  0  # atno 8009 bound_to 7997
  154.5222  140.2202  155.8965 H   0  0  0  0  0  0  0  0  0  0  0  0  # atno 8010 bound_to 7997
  139.9193  144.6223  150.8456 H   0  0  0  0  0  0  0  0  0  0  0  0  # atno 10167 bound_to 10162
  157.5632  131.1088  150.8502 H   0  0  0  0  0  0  0  0  0  0  0  0  # atno 10718 bound_to 10713
  154.7324  135.3049  154.8869 H   0  0  0  0  0  0  0  0  0  0  0  0  # atno 10763 bound_to 10752
  153.9708  135.6742  153.4751 H   0  0  0  0  0  0  0  0  0  0  0  0  # atno 10764 bound_to 10752
  153.0930  135.4949  154.8648 H   0  0  0  0  0  0  0  0  0  0  0  0  # atno 10765 bound_to 10752
  139.9467  134.7301  156.0962 H   0  0  0  0  0  0  0  0  0  0  0  0  # atno 11005 bound_to 11000
  144.7652  139.6861  143.7217 LP  0  0  0  0  0  0  0  0  0  0  0  0  # atno 17320 bound_to 7965
  146.2077  139.5412  142.9701 LP  0  0  0  0  0  0  0  0  0  0  0  0  # atno 17321 bound_to 7965
  140.7666  143.3308  151.2413 LP  0  0  0  0  0  0  0  0  0  0  0  0  # atno 17342 bound_to 10162
  139.6875  143.9748  152.2842 LP  0  0  0  0  0  0  0  0  0  0  0  0  # atno 17343 bound_to 10162
  156.8994  130.5241  149.5283 LP  0  0  0  0  0  0  0  0  0  0  0  0  # atno 17370 bound_to 10713
  156.0682  130.5721  150.9331 LP  0  0  0  0  0  0  0  0  0  0  0  0  # atno 17371 bound_to 10713
  141.1119  133.6640  156.2999 LP  0  0  0  0  0  0  0  0  0  0  0  0  # atno 17394 bound_to 11000
  140.5818  134.5738  157.5481 LP  0  0  0  0  0  0  0  0  0  0  0  0  # atno 17395 bound_to 11000

$$$$
