AV-unprocessed.smi:244|AV-procd|sdf|1869|dock9
  -GOLD-   2262020503D 1   1.00000     0.00000
 Structure written by MMmdl.
 57 61  0  0  0  0  0  0  0  0  2 V2000
  145.0625  133.2528  159.0754 C   0  0  0  0  0  0  0  0  0  0  0  0
  146.0651  132.5391  159.8997 N   0  3  2  0  0  0  0  0  0  0  0  0
  145.6417  132.3242  161.3060 C   0  0  0  0  0  0  0  0  0  0  0  0
  145.7823  133.6023  162.1479 C   0  0  0  0  0  0  0  0  0  0  0  0
  147.2261  134.1392  162.0879 C   0  0  2  0  0  0  0  0  0  0  0  0
  147.4024  135.3201  162.8714 O   0  0  0  0  0  0  0  0  0  0  0  0
  146.7838  136.4856  162.3347 C   0  0  0  0  0  0  0  0  0  0  0  0
  147.3146  136.7508  160.9203 C   0  0  0  0  0  0  0  0  0  0  0  0
  147.1234  135.5811  160.0711 N   0  0  0  0  0  0  0  0  0  0  0  0
  147.4180  135.8844  158.7847 C   0  0  0  0  0  0  0  0  0  0  0  0
  146.4900  135.7138  157.8062 N   0  0  0  0  0  0  0  0  0  0  0  0
  146.7939  136.0093  156.5384 C   0  0  0  0  0  0  0  0  0  0  0  0
  147.9411  136.4785  156.0428 N   0  0  0  0  0  0  0  0  0  0  0  0
  148.8752  136.6421  157.0233 C   0  0  0  0  0  0  0  0  0  0  0  0
  148.6998  136.3628  158.4067 C   0  0  0  0  0  0  0  0  0  0  0  0
  149.8678  136.6422  159.1038 N   0  0  0  0  0  0  0  0  0  0  0  0
  150.6898  137.0665  158.1828 C   0  0  0  0  0  0  0  0  0  0  0  0
  150.1711  137.1126  156.9078 N   0  0  0  0  0  0  0  0  0  0  0  0
  150.8567  137.5565  155.7042 C   0  0  0  0  0  0  0  0  0  0  0  0
  150.7336  139.0776  155.4368 C   0  0  0  0  0  0  0  0  0  0  0  0
  151.7861  139.4530  154.5651 O   0  0  0  0  0  0  0  0  0  0  0  0
  149.3942  139.4577  154.7676 C   0  0  0  0  0  0  0  0  0  0  0  0
  149.1910  140.9821  154.7022 C   0  0  0  0  0  0  0  0  0  0  0  0
  149.3028  141.5473  156.0025 O   0  0  0  0  0  0  0  0  0  0  0  0
  150.5953  141.3674  156.5685 C   0  0  0  0  0  0  0  0  0  0  0  0
  150.8835  139.8668  156.7530 C   0  0  0  0  0  0  0  0  0  0  0  0
  147.7067  134.3558  160.6327 C   0  0  2  0  0  0  0  0  0  0  0  0
  147.4487  133.0749  159.7873 C   0  0  0  0  0  0  0  0  0  0  0  0
  144.8487  134.2482  159.4616 H   0  0  0  0  0  0  0  0  0  0  0  0
  144.1253  132.6962  159.0545 H   0  0  0  0  0  0  0  0  0  0  0  0
  145.4092  133.3539  158.0464 H   0  0  0  0  0  0  0  0  0  0  0  0
  144.6146  131.9582  161.3349 H   0  0  0  0  0  0  0  0  0  0  0  0
  146.2601  131.5351  161.7356 H   0  0  0  0  0  0  0  0  0  0  0  0
  145.0696  134.3441  161.7908 H   0  0  0  0  0  0  0  0  0  0  0  0
  145.5109  133.3925  163.1829 H   0  0  0  0  0  0  0  0  0  0  0  0
  147.8689  133.3832  162.5407 H   0  0  0  0  0  0  0  0  0  0  0  0
  145.6984  136.3900  162.3339 H   0  0  0  0  0  0  0  0  0  0  0  0
  147.0164  137.3315  162.9818 H   0  0  0  0  0  0  0  0  0  0  0  0
  146.8050  137.6172  160.4955 H   0  0  0  0  0  0  0  0  0  0  0  0
  148.3774  136.9942  160.9641 H   0  0  0  0  0  0  0  0  0  0  0  0
  146.0049  135.8486  155.8187 H   0  0  0  0  0  0  0  0  0  0  0  0
  151.7009  137.3715  158.4105 H   0  0  0  0  0  0  0  0  0  0  0  0
  151.9076  137.2784  155.7968 H   0  0  0  0  0  0  0  0  0  0  0  0
  150.4673  136.9883  154.8581 H   0  0  0  0  0  0  0  0  0  0  0  0
  152.2000  138.6689  154.2375 H   0  0  0  0  0  0  0  0  0  0  0  0
  149.3284  139.0398  153.7624 H   0  0  0  0  0  0  0  0  0  0  0  0
  148.5719  139.0222  155.3370 H   0  0  0  0  0  0  0  0  0  0  0  0
  149.9127  141.4458  154.0280 H   0  0  0  0  0  0  0  0  0  0  0  0
  148.2010  141.2084  154.3062 H   0  0  0  0  0  0  0  0  0  0  0  0
  151.3509  141.8404  155.9394 H   0  0  0  0  0  0  0  0  0  0  0  0
  150.6274  141.8733  157.5337 H   0  0  0  0  0  0  0  0  0  0  0  0
  150.1833  139.4723  157.4906 H   0  0  0  0  0  0  0  0  0  0  0  0
  151.8799  139.7262  157.1739 H   0  0  0  0  0  0  0  0  0  0  0  0
  148.7856  134.5158  160.6698 H   0  0  0  0  0  0  0  0  0  0  0  0
  148.1165  132.2934  160.1516 H   0  0  0  0  0  0  0  0  0  0  0  0
  147.7135  133.2061  158.7384 H   0  0  0  0  0  0  0  0  0  0  0  0
  146.1090  131.6166  159.4905 H   0  0  0  0  0  0  0  0  0  0  0  0
  1  2  1  0  0  0  0
  1 29  1  0  0  0  0
  1 30  1  0  0  0  0
  1 31  1  0  0  0  0
  2 28  1  0  0  0  0
  2  3  1  0  0  0  0
  2 57  1  0  0  0  0
  3  4  1  0  0  0  0
  3 32  1  0  0  0  0
  3 33  1  0  0  0  0
  4  5  1  0  0  0  0
  4 34  1  0  0  0  0
  4 35  1  0  0  0  0
  5 27  1  0  0  0  0
  5  6  1  0  0  0  0
  5 36  1  0  0  0  0
  6  7  1  0  0  0  0
  7  8  1  0  0  0  0
  7 37  1  0  0  0  0
  7 38  1  0  0  0  0
  8  9  1  0  0  0  0
  8 39  1  0  0  0  0
  8 40  1  0  0  0  0
  9 10  1  0  0  0  0
  9 27  1  0  0  0  0
 10 15  1  0  0  0  0
 10 11  2  0  0  0  0
 11 12  1  0  0  0  0
 12 13  2  0  0  0  0
 12 41  1  0  0  0  0
 13 14  1  0  0  0  0
 14 18  1  0  0  0  0
 14 15  2  0  0  0  0
 15 16  1  0  0  0  0
 16 17  2  0  0  0  0
 17 18  1  0  0  0  0
 17 42  1  0  0  0  0
 18 19  1  0  0  0  0
 19 20  1  0  0  0  0
 19 43  1  0  0  0  0
 19 44  1  0  0  0  0
 20 26  1  0  0  0  0
 20 21  1  0  0  0  0
 20 22  1  0  0  0  0
 21 45  1  0  0  0  0
 22 23  1  0  0  0  0
 22 46  1  0  0  0  0
 22 47  1  0  0  0  0
 23 24  1  0  0  0  0
 23 48  1  0  0  0  0
 23 49  1  0  0  0  0
 24 25  1  0  0  0  0
 25 26  1  0  0  0  0
 25 50  1  0  0  0  0
 25 51  1  0  0  0  0
 26 52  1  0  0  0  0
 26 53  1  0  0  0  0
 27 28  1  0  0  0  0
 27 54  1  0  0  0  0
 28 55  1  0  0  0  0
 28 56  1  0  0  0  0
M  CHG  1   2   1
M  END
> <s_m_source_file>
AV-unprocessed.smi

> <i_m_source_file_index>
244

> <i_lp_mmshare_version>
43012

> <i_f3d_flags>
0

> <s_epik_input>
W0NIMl0xW0NIMl1OKFtDSDNdKVtDSDJdW0NAQEhdKFtDQEhdMTIpTihbQ0gyXVtDSDJdTzIpYyhuW2NIXW4zKWMoYzM0KW5bY0hdbjRbQ0gyXUM1KFtPSF0pW0NIMl1bQ0gyXU9bQ0gyXVtDSDJdNQ==

> <s_epik_cmdline>
J2VwaWtfcHl0aG9uJywgJy1waCcsICc3LjAnLCAnLXRuJywgJzgnLCAnLW1hJywgJzIwMCcsICctbWV0YWxfYmluZGluZycsICctaW1hZScsICc8aW5maWxlLm1hZT4nLCAnLW9tYWUnLCAnPG91dGZpbGUubWFlPic=

> <r_lp_tautomer_probability>
1

> <r_epik_Ionization_Penalty>
0.0136215

> <r_epik_Ionization_Penalty_Charging>
0.0131385

> <r_epik_Ionization_Penalty_Neutral>
0.000483022

> <r_epik_State_Penalty>
0.0104001

> <r_epik_Charging_Adjusted_Penalty>
0.0235387

> <i_epik_Tot_Q>
1

> <i_epik_Tot_abs_Q>
1

> <r_epik_Metal_State_Penalty>
0.0104469

> <b_epik_Metal_Only>
0

> <s_lp_Force_Field>
OPLS_2005

> <r_lp_Energy>
50.9375

> <b_lp_Chiralities_Consistent>
1

> <s_lp_Variant>
AV-unprocessed.smi:244-6

> <Gold.Version>
5.8.1

> <Gold.Id.Protein>
6NUR|6NUR_protein|mol2

> <Gold.PLP.Fitness>
38.9148

> <Gold.PLP.PLP>
-34.7980

> <Gold.PLP.part.hbond>
-1.9617

> <Gold.PLP.part.metal>
0.0000

> <Gold.PLP.part.buried>
-6.2305

> <Gold.PLP.part.nonpolar>
-27.2800

> <Gold.PLP.part.repulsive>
0.1335

> <Gold.PLP.ligand.clash>
0.0000

> <Gold.PLP.ligand.torsion>
0.8207

> <Gold.PLP.Chemscore.Hbond>
1.8710

> <Gold.PLP.Chemscore.CHOScore>
0.0000

> <Gold.PLP.Chemscore.Metal>
0.0000

> <Gold.Chemscore.Hbonds>
donor molecule, donor type, donor heavy atom, donor atom, acceptor molecule, acceptor atom, score
      P1  H  6896  6907       L1    16  0.66
      P1  H  7989  7998       L1    21  1.00

> <Gold.PLP.Chemscore.Internal.Correction>
0.1452

> <Gold.Rescore>
     Score         DG    S(hbond)    S(metal)    S(lipo)     H(rot)  DE(clash)    DE(int)     intcor
     13.40     -14.04       1.00        0.00      90.47       2.09       0.02       0.62       ----

> <Gold.Chemscore.Fitness>
13.3976

> <Gold.Chemscore.DG>
-14.0402

> <Gold.Chemscore.ZeroCoef>
-5.4800

> <Gold.Chemscore.Hbond>
0.9963

> <Gold.Chemscore.Metal>
0.0000

> <Gold.Chemscore.Lipo>
90.4745

> <Gold.Chemscore.Internal_Hbond>
0.0000

> <Gold.Chemscore.DEClash>
0.0241

> <Gold.Chemscore.DEInternal>
0.6184

> <Gold.Chemscore.Rot>
2.0911

> <Gold.Chemscore.Internal.Correction>
   9.000000E+99

> <Gold.Chemscore.Hbonds>
donor molecule, donor type, donor heavy atom, donor atom, acceptor molecule, acceptor atom, score
      P1  H  6896  6907       L1    16  0.11
      P1  H  7989  7998       L1    21  0.90

> <Gold.Chemscore.Hbond.Weighted>
-3.3278

> <Gold.Chemscore.Metal.Weighted>
-0.0000

> <Gold.Chemscore.Lipo.Weighted>
-10.5855

> <Gold.Chemscore.Internal_Hbond.Weighted>
0.0000

> <Gold.Chemscore.DEClash.Weighted>
0.0241

> <Gold.Chemscore.DEInternal.Weighted>
0.6184

> <Gold.Chemscore.Rot.Weighted>
5.3531

> <Gold.Chemscore.Internal.Correction.Weighted>
   9.000000E+99

> <Gold.Protein.RotatedTorsions>
[ 6907 6896 6895 6894 ] final  -30.76 input  -60.11 | X-H torsion
[ 7974 7965 7964 7962 ] final  170.20 input  175.53 | X-H torsion
[ 8008 7997 7996 7995 ] final   40.81 input   59.86 | X-H torsion
[ 10167 10162 10161 10158 ] final -143.26 input  -65.29 | X-H torsion
[ 10718 10713 10712 10709 ] final    9.21 input   66.30 | X-H torsion
[ 10763 10752 10751 10750 ] final   86.93 input  -60.55 | X-H torsion
[ 11005 11000 10999 10996 ] final   48.14 input  -57.11 | X-H torsion

> <Gold.Protein.ActiveResidues>
 VAL166  LYS551  ARG553  GLY616  TRP617  ASP618  TYR619  PRO620  LYS621  CYS622 
 ASP623  PHE694  ASN695  SER759  ASP760  ASP761  ALA762  ILE779  LEU786  VAL792 
 PHE793  MET794  SER795  GLU796  ALA797  LYS798  CYS799  TRP800  GLU811  SER814 

> <Gold.Protein.RotatedAtoms>
  151.1012  134.9973  159.8449 H   0  0  0  0  0  0  0  0  0  0  0  0  # atno 6907 bound_to 6896
  152.5437  134.1948  159.8698 H   0  0  0  0  0  0  0  0  0  0  0  0  # atno 6908 bound_to 6896
  151.1991  133.4577  159.2629 H   0  0  0  0  0  0  0  0  0  0  0  0  # atno 6909 bound_to 6896
  144.7331  139.9166  143.6418 H   0  0  0  0  0  0  0  0  0  0  0  0  # atno 7974 bound_to 7965
  155.2593  140.3358  155.4274 H   0  0  0  0  0  0  0  0  0  0  0  0  # atno 8008 bound_to 7997
  156.2182  140.1798  156.7583 H   0  0  0  0  0  0  0  0  0  0  0  0  # atno 8009 bound_to 7997
  154.5785  140.0658  156.9054 H   0  0  0  0  0  0  0  0  0  0  0  0  # atno 8010 bound_to 7997
  139.8010  143.7834  152.2658 H   0  0  0  0  0  0  0  0  0  0  0  0  # atno 10167 bound_to 10162
  156.9629  130.5940  149.5663 H   0  0  0  0  0  0  0  0  0  0  0  0  # atno 10718 bound_to 10713
  153.1618  135.4562  154.9782 H   0  0  0  0  0  0  0  0  0  0  0  0  # atno 10763 bound_to 10752
  154.7903  135.3218  154.7795 H   0  0  0  0  0  0  0  0  0  0  0  0  # atno 10764 bound_to 10752
  153.8284  135.6941  153.4872 H   0  0  0  0  0  0  0  0  0  0  0  0  # atno 10765 bound_to 10752
  140.1217  134.4821  155.8592 H   0  0  0  0  0  0  0  0  0  0  0  0  # atno 11005 bound_to 11000
  146.0961  139.3953  143.0376 LP  0  0  0  0  0  0  0  0  0  0  0  0  # atno 17320 bound_to 7965
  145.7644  140.9922  143.1183 LP  0  0  0  0  0  0  0  0  0  0  0  0  # atno 17321 bound_to 7965
  139.7954  144.7394  150.9898 LP  0  0  0  0  0  0  0  0  0  0  0  0  # atno 17342 bound_to 10162
  140.7820  143.4399  151.0567 LP  0  0  0  0  0  0  0  0  0  0  0  0  # atno 17343 bound_to 10162
  156.0314  130.5405  150.8545 LP  0  0  0  0  0  0  0  0  0  0  0  0  # atno 17370 bound_to 10713
  157.5645  131.0946  150.9510 LP  0  0  0  0  0  0  0  0  0  0  0  0  # atno 17371 bound_to 10713
  141.2153  133.6763  156.6900 LP  0  0  0  0  0  0  0  0  0  0  0  0  # atno 17394 bound_to 11000
  140.2957  134.8204  157.4055 LP  0  0  0  0  0  0  0  0  0  0  0  0  # atno 17395 bound_to 11000

$$$$
