AV-unprocessed.smi:856|AV-procd|sdf|3959|dock3
  -GOLD-   22720 1433D 1   1.00000     0.00000
 Structure written by MMmdl.
 42 44  0  0  0  0  0  0  0  0  1 V2000
  153.7853  141.7872  161.2028 C   0  0  0  0  0  0  0  0  0  0  0  0
  152.9267  141.9114  160.0100 N   0  0  0  0  0  0  0  0  0  0  0  0
  152.6552  140.7813  159.2843 C   0  0  0  0  0  0  0  0  0  0  0  0
  153.0794  139.6566  159.5515 O   0  0  0  0  0  0  0  0  0  0  0  0
  151.7891  141.0145  158.1224 C   0  0  0  0  0  0  0  0  0  0  0  0
  151.3042  142.2385  157.7975 C   0  0  0  0  0  0  0  0  0  0  0  0
  150.5086  142.1798  156.6583 N   0  0  0  0  0  0  0  0  0  0  0  0
  150.5564  140.8838  156.3504 C   0  0  0  0  0  0  0  0  0  0  0  0
  151.2983  140.1165  157.1741 N   0  0  0  0  0  0  0  0  0  0  0  0
  151.4994  138.6799  157.0512 C   0  0  0  0  0  0  0  0  0  0  0  0
  150.8167  137.8847  158.1824 C   0  0  2  0  0  0  0  0  0  0  0  0
  151.5494  136.7026  158.4384 O   0  0  0  0  0  0  0  0  0  0  0  0
  149.3798  137.4882  157.8128 C   0  0  0  0  0  0  0  0  0  0  0  0
  148.5977  137.4344  158.9988 O   0  0  0  0  0  0  0  0  0  0  0  0
  148.9278  136.3582  159.8668 C   0  0  0  0  0  0  0  0  0  0  0  0
  147.8544  136.2442  160.9015 C   0  0  0  0  0  0  0  0  0  0  0  0
  146.9716  135.2544  161.2353 C   0  0  0  0  0  0  0  0  0  0  0  0
  146.1921  135.7592  162.3126 C   0  0  0  0  0  0  0  0  0  0  0  0
  146.6584  137.0197  162.5562 C   0  0  0  0  0  0  0  0  0  0  0  0
  147.6736  137.3305  161.7049 O   0  0  0  0  0  0  0  0  0  0  0  0
  151.6513  143.3430  158.6178 N   0  0  0  0  0  0  0  0  0  0  0  0
  151.1380  144.6732  158.2788 C   0  0  0  0  0  0  0  0  0  0  0  0
  152.4529  143.1790  159.7195 C   0  0  0  0  0  0  0  0  0  0  0  0
  152.7401  144.1465  160.4305 O   0  0  0  0  0  0  0  0  0  0  0  0
  154.1814  140.7870  161.3815 H   0  0  0  0  0  0  0  0  0  0  0  0
  153.2298  142.0679  162.0992 H   0  0  0  0  0  0  0  0  0  0  0  0
  154.6496  142.4488  161.1233 H   0  0  0  0  0  0  0  0  0  0  0  0
  150.0316  140.4776  155.4981 H   0  0  0  0  0  0  0  0  0  0  0  0
  151.0925  138.3681  156.0883 H   0  0  0  0  0  0  0  0  0  0  0  0
  152.5653  138.4612  157.0054 H   0  0  0  0  0  0  0  0  0  0  0  0
  150.8073  138.4948  159.0867 H   0  0  0  0  0  0  0  0  0  0  0  0
  152.0989  136.5244  157.6902 H   0  0  0  0  0  0  0  0  0  0  0  0
  148.9483  138.2446  157.1557 H   0  0  0  0  0  0  0  0  0  0  0  0
  149.3678  136.5437  157.2662 H   0  0  0  0  0  0  0  0  0  0  0  0
  148.9695  135.4395  159.2816 H   0  0  0  0  0  0  0  0  0  0  0  0
  149.9113  136.4963  160.3188 H   0  0  0  0  0  0  0  0  0  0  0  0
  146.8954  134.2877  160.7601 H   0  0  0  0  0  0  0  0  0  0  0  0
  145.3915  135.2637  162.8419 H   0  0  0  0  0  0  0  0  0  0  0  0
  146.3953  137.7935  163.2622 H   0  0  0  0  0  0  0  0  0  0  0  0
  151.9615  145.3665  158.1011 H   0  0  0  0  0  0  0  0  0  0  0  0
  150.5294  145.0679  159.0937 H   0  0  0  0  0  0  0  0  0  0  0  0
  150.5184  144.6720  157.3820 H   0  0  0  0  0  0  0  0  0  0  0  0
  1  2  1  0  0  0  0
  1 25  1  0  0  0  0
  1 26  1  0  0  0  0
  1 27  1  0  0  0  0
  2 23  1  0  0  0  0
  2  3  1  0  0  0  0
  3  4  2  0  0  0  0
  3  5  1  0  0  0  0
  5  9  1  0  0  0  0
  5  6  2  0  0  0  0
  6  7  1  0  0  0  0
  6 21  1  0  0  0  0
  7  8  2  0  0  0  0
  8  9  1  0  0  0  0
  8 28  1  0  0  0  0
  9 10  1  0  0  0  0
 10 11  1  0  0  0  0
 10 29  1  0  0  0  0
 10 30  1  0  0  0  0
 11 12  1  0  0  0  0
 11 13  1  0  0  0  0
 11 31  1  0  0  0  0
 12 32  1  0  0  0  0
 13 14  1  0  0  0  0
 13 33  1  0  0  0  0
 13 34  1  0  0  0  0
 14 15  1  0  0  0  0
 15 16  1  0  0  0  0
 15 35  1  0  0  0  0
 15 36  1  0  0  0  0
 16 20  1  0  0  0  0
 16 17  2  0  0  0  0
 17 18  1  0  0  0  0
 17 37  1  0  0  0  0
 18 19  2  0  0  0  0
 18 38  1  0  0  0  0
 19 20  1  0  0  0  0
 19 39  1  0  0  0  0
 21 22  1  0  0  0  0
 21 23  1  0  0  0  0
 22 40  1  0  0  0  0
 22 41  1  0  0  0  0
 22 42  1  0  0  0  0
 23 24  2  0  0  0  0
M  END
> <s_m_source_file>
AV-unprocessed.smi

> <i_m_source_file_index>
856

> <i_lp_mmshare_version>
43012

> <i_f3d_flags>
0

> <s_epik_input>
Tz1jMW4oW0NIM10pYyg9TyluKFtDSDNdKWMoYzEyKW5bY0hdbjJbQ0gyXVtDQEhdKFtPSF0pW0NIMl1PW0NIMl1jM1tjSF1bY0hdW2NIXW8z

> <s_epik_cmdline>
J2VwaWtfcHl0aG9uJywgJy1waCcsICc3LjAnLCAnLXRuJywgJzgnLCAnLW1hJywgJzIwMCcsICctbWV0YWxfYmluZGluZycsICctaW1hZScsICc8aW5maWxlLm1hZT4nLCAnLW9tYWUnLCAnPG91dGZpbGUubWFlPic=

> <r_lp_tautomer_probability>
1

> <r_epik_Ionization_Penalty>
1.33189e-06

> <r_epik_Ionization_Penalty_Charging>
3.64616e-09

> <r_epik_Ionization_Penalty_Neutral>
1.32824e-06

> <r_epik_State_Penalty>
-0

> <r_epik_Charging_Adjusted_Penalty>
3.64616e-09

> <i_epik_Tot_Q>
0

> <i_epik_Tot_abs_Q>
0

> <r_epik_Metal_State_Penalty>
-0

> <b_epik_Metal_Only>
0

> <s_lp_Force_Field>
OPLS_2005

> <r_lp_Energy>
33.5677

> <b_lp_Chiralities_Consistent>
1

> <s_lp_Variant>
AV-unprocessed.smi:856-1

> <Gold.Version>
5.8.1

> <Gold.Id.Protein>
6NUR|6NUR_protein|mol2

> <Gold.PLP.Fitness>
51.2830

> <Gold.PLP.PLP>
-45.6764

> <Gold.PLP.part.hbond>
-3.0000

> <Gold.PLP.part.metal>
0.0000

> <Gold.PLP.part.buried>
-5.9028

> <Gold.PLP.part.nonpolar>
-37.2515

> <Gold.PLP.part.repulsive>
0.1777

> <Gold.PLP.ligand.clash>
0.0000

> <Gold.PLP.ligand.torsion>
0.8905

> <Gold.PLP.Chemscore.Hbond>
2.4418

> <Gold.PLP.Chemscore.CHOScore>
0.0000

> <Gold.PLP.Chemscore.Metal>
0.0000

> <Gold.Chemscore.Hbonds>
donor molecule, donor type, donor heavy atom, donor atom, acceptor molecule, acceptor atom, score
      P1  H  6896  6908       L1    12  0.48
      P1  H  6931  6943       L1    20  0.94
      P1  H  6934  6947       L1    20  0.69

> <Gold.PLP.Chemscore.Internal.Correction>
0.0621

> <Gold.Rescore>
     Score         DG    S(hbond)    S(metal)    S(lipo)     H(rot)  DE(clash)    DE(int)     intcor
     11.30     -12.37       1.99        0.00      71.13       3.16       0.03       1.05       ----

> <Gold.Chemscore.Fitness>
11.2983

> <Gold.Chemscore.DG>
-12.3737

> <Gold.Chemscore.ZeroCoef>
-5.4800

> <Gold.Chemscore.Hbond>
1.9943

> <Gold.Chemscore.Metal>
0.0000

> <Gold.Chemscore.Lipo>
71.1283

> <Gold.Chemscore.Internal_Hbond>
0.0000

> <Gold.Chemscore.DEClash>
0.0270

> <Gold.Chemscore.DEInternal>
1.0484

> <Gold.Chemscore.Rot>
3.1599

> <Gold.Chemscore.Internal.Correction>
   9.000000E+99

> <Gold.Chemscore.Hbonds>
donor molecule, donor type, donor heavy atom, donor atom, acceptor molecule, acceptor atom, score
      P1  H  6896  6908       L1    12  0.46
      P1  H  6931  6943       L1    20  0.82
      P1  H  6934  6947       L1    20  0.33

> <Gold.Chemscore.Hbond.Weighted>
-6.6610

> <Gold.Chemscore.Metal.Weighted>
-0.0000

> <Gold.Chemscore.Lipo.Weighted>
-8.3220

> <Gold.Chemscore.Internal_Hbond.Weighted>
0.0000

> <Gold.Chemscore.DEClash.Weighted>
0.0270

> <Gold.Chemscore.DEInternal.Weighted>
1.0484

> <Gold.Chemscore.Rot.Weighted>
8.0893

> <Gold.Chemscore.Internal.Correction.Weighted>
   9.000000E+99

> <Gold.Protein.RotatedTorsions>
[ 6907 6896 6895 6894 ] final -140.93 input  -60.11 | X-H torsion
[ 7974 7965 7964 7962 ] final -141.94 input  175.53 | X-H torsion
[ 8008 7997 7996 7995 ] final -114.71 input   59.86 | X-H torsion
[ 10167 10162 10161 10158 ] final -103.09 input  -65.29 | X-H torsion
[ 10718 10713 10712 10709 ] final  -81.54 input   66.30 | X-H torsion
[ 10763 10752 10751 10750 ] final  -66.85 input  -60.55 | X-H torsion
[ 11005 11000 10999 10996 ] final  -30.27 input  -57.11 | X-H torsion

> <Gold.Protein.ActiveResidues>
 VAL166  LYS551  ARG553  GLY616  TRP617  ASP618  TYR619  PRO620  LYS621  CYS622 
 ASP623  PHE694  ASN695  SER759  ASP760  ASP761  ALA762  ILE779  LEU786  VAL792 
 PHE793  MET794  SER795  GLU796  ALA797  LYS798  CYS799  TRP800  GLU811  SER814 

> <Gold.Protein.RotatedAtoms>
  151.0672  133.5496  159.2629 H   0  0  0  0  0  0  0  0  0  0  0  0  # atno 6907 bound_to 6896
  151.2449  135.0601  159.9049 H   0  0  0  0  0  0  0  0  0  0  0  0  # atno 6908 bound_to 6896
  152.5406  134.0441  159.8134 H   0  0  0  0  0  0  0  0  0  0  0  0  # atno 6909 bound_to 6896
  144.8481  140.6019  143.5408 H   0  0  0  0  0  0  0  0  0  0  0  0  # atno 7974 bound_to 7965
  155.0406  140.0392  157.2508 H   0  0  0  0  0  0  0  0  0  0  0  0  # atno 8008 bound_to 7997
  154.7220  140.2713  155.6509 H   0  0  0  0  0  0  0  0  0  0  0  0  # atno 8009 bound_to 7997
  156.2819  140.2701  156.1894 H   0  0  0  0  0  0  0  0  0  0  0  0  # atno 8010 bound_to 7997
  140.2237  143.3657  152.0947 H   0  0  0  0  0  0  0  0  0  0  0  0  # atno 10167 bound_to 10162
  156.0048  130.4607  150.3968 H   0  0  0  0  0  0  0  0  0  0  0  0  # atno 10718 bound_to 10713
  154.3658  135.6106  153.5714 H   0  0  0  0  0  0  0  0  0  0  0  0  # atno 10763 bound_to 10752
  152.9792  135.5826  154.4579 H   0  0  0  0  0  0  0  0  0  0  0  0  # atno 10764 bound_to 10752
  154.4325  135.2848  155.1880 H   0  0  0  0  0  0  0  0  0  0  0  0  # atno 10765 bound_to 10752
  140.9369  133.7303  156.1017 H   0  0  0  0  0  0  0  0  0  0  0  0  # atno 11005 bound_to 11000
  145.4556  139.1518  143.3895 LP  0  0  0  0  0  0  0  0  0  0  0  0  # atno 17320 bound_to 7965
  146.2761  140.4683  142.8795 LP  0  0  0  0  0  0  0  0  0  0  0  0  # atno 17321 bound_to 7965
  139.5135  144.6933  151.5700 LP  0  0  0  0  0  0  0  0  0  0  0  0  # atno 17342 bound_to 10162
  140.6236  143.9211  150.6546 LP  0  0  0  0  0  0  0  0  0  0  0  0  # atno 17343 bound_to 10162
  157.2039  131.0444  151.2635 LP  0  0  0  0  0  0  0  0  0  0  0  0  # atno 17370 bound_to 10713
  157.3950  130.7302  149.6725 LP  0  0  0  0  0  0  0  0  0  0  0  0  # atno 17371 bound_to 10713
  140.7788  134.3749  157.5492 LP  0  0  0  0  0  0  0  0  0  0  0  0  # atno 17394 bound_to 11000
  139.8810  134.9068  156.2931 LP  0  0  0  0  0  0  0  0  0  0  0  0  # atno 17395 bound_to 11000

$$$$
