AV-unprocessed.smi:3133|AV-procd|sdf|11937|dock9
  -GOLD-   2272017323D 1   1.00000     0.00000
 Structure written by MMmdl.
 32 33  0  0  0  0  0  0  0  0  1 V2000
  149.3955  141.6449  154.7050 C   0  0  0  0  0  0  0  0  0  0  0  0
  150.0090  140.8167  155.8526 C   0  0  2  0  0  0  0  0  0  0  0  0
  151.0004  141.6202  156.7122 C   0  0  0  0  0  0  0  0  0  0  0  0
  151.9013  141.0529  157.3310 O   0  0  0  0  0  0  0  0  0  0  0  0
  150.8254  142.9517  156.7312 N   0  0  0  0  0  0  0  0  0  0  0  0
  151.6397  143.9050  157.4781 C   0  0  0  0  0  0  0  0  0  0  0  0
  151.4283  143.7701  158.9952 C   0  0  2  0  0  0  0  0  0  0  0  0
  152.0828  144.8639  159.8418 C   0  0  0  0  0  0  0  0  0  0  0  0
  152.2757  144.1536  161.1616 C   0  0  0  0  0  0  0  0  0  0  0  0
  152.6720  142.7554  160.6994 C   0  0  0  0  0  0  0  0  0  0  0  0
  151.9945  142.5478  159.4626 O   0  0  0  0  0  0  0  0  0  0  0  0
  150.6292  139.5896  155.3663 N   0  0  0  0  0  0  0  0  0  0  0  0
  151.2289  138.6058  156.0404 C   0  0  0  0  0  0  0  0  0  0  0  0
  151.7254  137.6487  155.2692 N   0  0  0  0  0  0  0  0  0  0  0  0
  151.3811  138.1425  154.0430 C   0  0  0  0  0  0  0  0  0  0  0  0
  150.7306  139.3058  154.0436 N   0  0  0  0  0  0  0  0  0  0  0  0
  148.8818  142.5279  155.0868 H   0  0  0  0  0  0  0  0  0  0  0  0
  148.6635  141.0569  154.1508 H   0  0  0  0  0  0  0  0  0  0  0  0
  150.1516  141.9833  153.9951 H   0  0  0  0  0  0  0  0  0  0  0  0
  149.1894  140.5220  156.5099 H   0  0  0  0  0  0  0  0  0  0  0  0
  150.0630  143.3351  156.1919 H   0  0  0  0  0  0  0  0  0  0  0  0
  152.6842  143.7042  157.2393 H   0  0  0  0  0  0  0  0  0  0  0  0
  151.4470  144.9292  157.1543 H   0  0  0  0  0  0  0  0  0  0  0  0
  150.3609  143.7365  159.2191 H   0  0  0  0  0  0  0  0  0  0  0  0
  153.0520  145.1449  159.4275 H   0  0  0  0  0  0  0  0  0  0  0  0
  151.4721  145.7633  159.9238 H   0  0  0  0  0  0  0  0  0  0  0  0
  153.0267  144.6227  161.7978 H   0  0  0  0  0  0  0  0  0  0  0  0
  151.3333  144.1173  161.7098 H   0  0  0  0  0  0  0  0  0  0  0  0
  153.7462  142.7068  160.5169 H   0  0  0  0  0  0  0  0  0  0  0  0
  152.4170  141.9869  161.4294 H   0  0  0  0  0  0  0  0  0  0  0  0
  151.3080  138.5917  157.1175 H   0  0  0  0  0  0  0  0  0  0  0  0
  151.6221  137.6317  153.1224 H   0  0  0  0  0  0  0  0  0  0  0  0
  1  2  1  0  0  0  0
  1 17  1  0  0  0  0
  1 18  1  0  0  0  0
  1 19  1  0  0  0  0
  2  3  1  0  0  0  0
  2 12  1  0  0  0  0
  2 20  1  0  0  0  0
  3  4  2  0  0  0  0
  3  5  1  0  0  0  0
  5  6  1  0  0  0  0
  5 21  1  0  0  0  0
  6  7  1  0  0  0  0
  6 22  1  0  0  0  0
  6 23  1  0  0  0  0
  7 11  1  0  0  0  0
  7  8  1  0  0  0  0
  7 24  1  0  0  0  0
  8  9  1  0  0  0  0
  8 25  1  0  0  0  0
  8 26  1  0  0  0  0
  9 10  1  0  0  0  0
  9 27  1  0  0  0  0
  9 28  1  0  0  0  0
 10 11  1  0  0  0  0
 10 29  1  0  0  0  0
 10 30  1  0  0  0  0
 12 16  1  0  0  0  0
 12 13  1  0  0  0  0
 13 14  2  0  0  0  0
 13 31  1  0  0  0  0
 14 15  1  0  0  0  0
 15 16  2  0  0  0  0
 15 32  1  0  0  0  0
M  END
> <s_m_source_file>
AV-unprocessed.smi

> <i_m_source_file_index>
3133

> <i_lp_mmshare_version>
43012

> <i_f3d_flags>
0

> <s_epik_input>
bjFbY0hdbltjSF1uMVtDQEhdKFtDSDNdKUMoPU8pW05IXVtDSDJdW0NAQEhdMltDSDJdW0NIMl1bQ0gyXU8y

> <s_epik_cmdline>
J2VwaWtfcHl0aG9uJywgJy1waCcsICc3LjAnLCAnLXRuJywgJzgnLCAnLW1hJywgJzIwMCcsICctbWV0YWxfYmluZGluZycsICctaW1hZScsICc8aW5maWxlLm1hZT4nLCAnLW9tYWUnLCAnPG91dGZpbGUubWFlPic=

> <r_lp_tautomer_probability>
1

> <r_epik_Ionization_Penalty>
1.2027e-05

> <r_epik_Ionization_Penalty_Charging>
0

> <r_epik_Ionization_Penalty_Neutral>
1.2027e-05

> <r_epik_State_Penalty>
-0

> <r_epik_Charging_Adjusted_Penalty>
0

> <i_epik_Tot_Q>
0

> <i_epik_Tot_abs_Q>
0

> <r_epik_Metal_State_Penalty>
-0

> <b_epik_Metal_Only>
0

> <s_lp_Force_Field>
OPLS_2005

> <r_lp_Energy>
23.5717

> <b_lp_Chiralities_Consistent>
1

> <s_lp_Variant>
AV-unprocessed.smi:3133-1

> <Gold.Version>
5.8.1

> <Gold.Id.Protein>
6NUR|6NUR_protein|mol2

> <Gold.PLP.Fitness>
43.1133

> <Gold.PLP.PLP>
-35.6804

> <Gold.PLP.part.hbond>
-2.0000

> <Gold.PLP.part.metal>
0.0000

> <Gold.PLP.part.buried>
-2.9982

> <Gold.PLP.part.nonpolar>
-29.2606

> <Gold.PLP.part.repulsive>
0.2914

> <Gold.PLP.ligand.clash>
0.0000

> <Gold.PLP.ligand.torsion>
0.8383

> <Gold.PLP.Chemscore.Hbond>
2.0000

> <Gold.PLP.Chemscore.CHOScore>
1.0000

> <Gold.PLP.Chemscore.Metal>
0.0000

> <Gold.Chemscore.Hbonds>
donor molecule, donor type, donor heavy atom, donor atom, acceptor molecule, acceptor atom, score
      L1  H     5    21       P1  8028  1.00
      P1  H  7989  7998       L1    16  0.95
      L1  C    15    32       P1  7949  1.00

> <Gold.PLP.Chemscore.Internal.Correction>
0.1096

> <Gold.Rescore>
     Score         DG    S(hbond)    S(metal)    S(lipo)     H(rot)  DE(clash)    DE(int)     intcor
     11.20     -14.76       1.98        0.00      72.30       2.26       0.01       3.55       ----

> <Gold.Chemscore.Fitness>
11.1962

> <Gold.Chemscore.DG>
-14.7617

> <Gold.Chemscore.ZeroCoef>
-5.4800

> <Gold.Chemscore.Hbond>
1.9751

> <Gold.Chemscore.Metal>
0.0000

> <Gold.Chemscore.Lipo>
72.3030

> <Gold.Chemscore.Internal_Hbond>
0.0000

> <Gold.Chemscore.DEClash>
0.0137

> <Gold.Chemscore.DEInternal>
3.5518

> <Gold.Chemscore.Rot>
2.2558

> <Gold.Chemscore.Internal.Correction>
   9.000000E+99

> <Gold.Chemscore.Hbonds>
donor molecule, donor type, donor heavy atom, donor atom, acceptor molecule, acceptor atom, score
      L1  H     5    21       P1  8028  0.97
      P1  H  7989  7998       L1    16  0.21
      P1  H 10752 10764       L1    14  0.01

> <Gold.Chemscore.Hbond.Weighted>
-6.5969

> <Gold.Chemscore.Metal.Weighted>
-0.0000

> <Gold.Chemscore.Lipo.Weighted>
-8.4595

> <Gold.Chemscore.Internal_Hbond.Weighted>
0.0000

> <Gold.Chemscore.DEClash.Weighted>
0.0137

> <Gold.Chemscore.DEInternal.Weighted>
3.5518

> <Gold.Chemscore.Rot.Weighted>
5.7747

> <Gold.Chemscore.Internal.Correction.Weighted>
   9.000000E+99

> <Gold.Protein.RotatedTorsions>
[ 6907 6896 6895 6894 ] final -113.13 input  -60.11 | X-H torsion
[ 7974 7965 7964 7962 ] final   28.86 input  175.53 | X-H torsion
[ 8008 7997 7996 7995 ] final  166.24 input   59.86 | X-H torsion
[ 10167 10162 10161 10158 ] final -136.07 input  -65.29 | X-H torsion
[ 10718 10713 10712 10709 ] final  -66.88 input   66.30 | X-H torsion
[ 10763 10752 10751 10750 ] final  -57.06 input  -60.55 | X-H torsion
[ 11005 11000 10999 10996 ] final  160.64 input  -57.11 | X-H torsion

> <Gold.Protein.ActiveResidues>
 VAL166  LYS551  ARG553  GLY616  TRP617  ASP618  TYR619  PRO620  LYS621  CYS622 
 ASP623  PHE694  ASN695  SER759  ASP760  ASP761  ALA762  ILE779  LEU786  VAL792 
 PHE793  MET794  SER795  GLU796  ALA797  LYS798  CYS799  TRP800  GLU811  SER814 

> <Gold.Protein.RotatedAtoms>
  150.7807  133.8989  159.3335 H   0  0  0  0  0  0  0  0  0  0  0  0  # atno 6907 bound_to 6896
  151.6852  135.0953  160.0233 H   0  0  0  0  0  0  0  0  0  0  0  0  # atno 6908 bound_to 6896
  152.3858  133.6570  159.6233 H   0  0  0  0  0  0  0  0  0  0  0  0  # atno 6909 bound_to 6896
  146.1705  139.6999  142.8971 H   0  0  0  0  0  0  0  0  0  0  0  0  # atno 7974 bound_to 7965
  156.1734  140.1648  156.8406 H   0  0  0  0  0  0  0  0  0  0  0  0  # atno 8008 bound_to 7997
  154.5281  140.0763  156.8330 H   0  0  0  0  0  0  0  0  0  0  0  0  # atno 8009 bound_to 7997
  155.3464  140.3387  155.4241 H   0  0  0  0  0  0  0  0  0  0  0  0  # atno 8010 bound_to 7997
  139.8714  143.6952  152.2639 H   0  0  0  0  0  0  0  0  0  0  0  0  # atno 10167 bound_to 10162
  156.0588  130.4269  150.1773 H   0  0  0  0  0  0  0  0  0  0  0  0  # atno 10718 bound_to 10713
  154.2165  135.6385  153.5131 H   0  0  0  0  0  0  0  0  0  0  0  0  # atno 10763 bound_to 10752
  152.9978  135.5486  154.6160 H   0  0  0  0  0  0  0  0  0  0  0  0  # atno 10764 bound_to 10752
  154.5609  135.2909  155.0893 H   0  0  0  0  0  0  0  0  0  0  0  0  # atno 10765 bound_to 10752
  140.2079  134.8289  157.3089 H   0  0  0  0  0  0  0  0  0  0  0  0  # atno 11005 bound_to 11000
  145.4353  141.0418  143.2887 LP  0  0  0  0  0  0  0  0  0  0  0  0  # atno 17320 bound_to 7965
  144.8156  139.5884  143.7010 LP  0  0  0  0  0  0  0  0  0  0  0  0  # atno 17321 bound_to 7965
  139.7280  144.7588  151.0848 LP  0  0  0  0  0  0  0  0  0  0  0  0  # atno 17342 bound_to 10162
  140.7760  143.5124  150.9636 LP  0  0  0  0  0  0  0  0  0  0  0  0  # atno 17343 bound_to 10162
  156.9845  130.9874  151.3429 LP  0  0  0  0  0  0  0  0  0  0  0  0  # atno 17370 bound_to 10713
  157.5580  130.8226  149.8229 LP  0  0  0  0  0  0  0  0  0  0  0  0  # atno 17371 bound_to 10713
  140.1983  134.4286  155.7677 LP  0  0  0  0  0  0  0  0  0  0  0  0  # atno 17394 bound_to 11000
  141.2227  133.7060  156.8141 LP  0  0  0  0  0  0  0  0  0  0  0  0  # atno 17395 bound_to 11000

$$$$
