AV-unprocessed.smi:890|AV-procd|sdf|4057|dock7
  -GOLD-   22720 1543D 1   1.00000     0.00000
 Structure written by MMmdl.
 52 55  0  0  0  0  0  0  0  0  2 V2000
  150.2234  134.2247  155.7450 O   0  0  0  0  0  0  0  0  0  0  0  0
  149.7861  134.7688  154.7315 C   0  0  0  0  0  0  0  0  0  0  0  0
  149.0753  134.1630  153.7661 N   0  0  0  0  0  0  0  0  0  0  0  0
  148.7092  132.7902  153.6586 C   0  0  0  0  0  0  0  0  0  0  0  0
  149.4742  131.7476  154.2371 C   0  0  0  0  0  0  0  0  0  0  0  0
  149.0298  130.4193  154.1141 C   0  0  0  0  0  0  0  0  0  0  0  0
  147.8289  130.1787  153.4247 C   0  0  0  0  0  0  0  0  0  0  0  0
  147.0816  131.1603  152.8810 N   0  0  0  0  0  0  0  0  0  0  0  0
  147.4995  132.4448  152.9966 C   0  0  0  0  0  0  0  0  0  0  0  0
  146.7114  133.4468  152.3914 N   0  0  0  0  0  0  0  0  0  0  0  0
  146.6096  133.3112  150.9405 C   0  0  0  0  0  0  0  0  0  0  0  0
  145.1773  133.6979  150.5657 C   0  0  0  0  0  0  0  0  0  0  0  0
  144.3911  133.3821  151.8319 C   0  0  0  0  0  0  0  0  0  0  0  0
  145.3859  133.7426  152.9332 C   0  0  0  0  0  0  0  0  0  0  0  0
  149.9844  136.0638  154.4454 N   0  0  0  0  0  0  0  0  0  0  0  0
  150.7187  137.0064  155.2845 C   0  0  2  0  0  0  0  0  0  0  0  0
  149.8319  137.4682  156.4527 C   0  0  0  0  0  0  0  0  0  0  0  0
  150.5511  138.5213  157.3126 C   0  0  0  0  0  0  0  0  0  0  0  0
  150.9766  139.6813  156.4904 N   0  3  1  0  0  0  0  0  0  0  0  0
  151.5761  140.7570  157.3099 C   0  0  0  0  0  0  0  0  0  0  0  0
  152.3331  140.2548  158.5174 C   0  0  0  0  0  0  0  0  0  0  0  0
  150.9665  140.8809  158.6868 C   0  0  0  0  0  0  0  0  0  0  0  0
  151.8658  139.2692  155.3763 C   0  0  0  0  0  0  0  0  0  0  0  0
  151.1779  138.2330  154.4726 C   0  0  0  0  0  0  0  0  0  0  0  0
  148.8510  134.7277  152.9598 H   0  0  0  0  0  0  0  0  0  0  0  0
  150.3826  131.9408  154.7862 H   0  0  0  0  0  0  0  0  0  0  0  0
  149.5942  129.6050  154.5436 H   0  0  0  0  0  0  0  0  0  0  0  0
  147.4551  129.1720  153.3107 H   0  0  0  0  0  0  0  0  0  0  0  0
  147.3366  133.9473  150.4350 H   0  0  0  0  0  0  0  0  0  0  0  0
  146.8061  132.2795  150.6435 H   0  0  0  0  0  0  0  0  0  0  0  0
  145.1243  134.7674  150.3573 H   0  0  0  0  0  0  0  0  0  0  0  0
  144.8098  133.1639  149.6891 H   0  0  0  0  0  0  0  0  0  0  0  0
  143.4549  133.9362  151.9056 H   0  0  0  0  0  0  0  0  0  0  0  0
  144.1617  132.3162  151.8713 H   0  0  0  0  0  0  0  0  0  0  0  0
  145.1563  133.2358  153.8707 H   0  0  0  0  0  0  0  0  0  0  0  0
  145.3432  134.8132  153.1355 H   0  0  0  0  0  0  0  0  0  0  0  0
  149.5919  136.4246  153.5880 H   0  0  0  0  0  0  0  0  0  0  0  0
  151.5952  136.5021  155.6969 H   0  0  0  0  0  0  0  0  0  0  0  0
  148.9009  137.8892  156.0693 H   0  0  0  0  0  0  0  0  0  0  0  0
  149.5535  136.6147  157.0722 H   0  0  0  0  0  0  0  0  0  0  0  0
  149.8837  138.8603  158.1057 H   0  0  0  0  0  0  0  0  0  0  0  0
  151.4221  138.0792  157.7991 H   0  0  0  0  0  0  0  0  0  0  0  0
  151.9150  141.6420  156.7740 H   0  0  0  0  0  0  0  0  0  0  0  0
  152.4143  139.1796  158.6660 H   0  0  0  0  0  0  0  0  0  0  0  0
  153.1913  140.8357  158.8494 H   0  0  0  0  0  0  0  0  0  0  0  0
  150.9249  141.8741  159.1297 H   0  0  0  0  0  0  0  0  0  0  0  0
  150.1411  140.2207  158.9477 H   0  0  0  0  0  0  0  0  0  0  0  0
  152.1398  140.1433  154.7843 H   0  0  0  0  0  0  0  0  0  0  0  0
  152.7921  138.8581  155.7810 H   0  0  0  0  0  0  0  0  0  0  0  0
  151.8647  137.9293  153.6818 H   0  0  0  0  0  0  0  0  0  0  0  0
  150.3215  138.6936  153.9776 H   0  0  0  0  0  0  0  0  0  0  0  0
  150.1415  140.0662  156.0724 H   0  0  0  0  0  0  0  0  0  0  0  0
  1  2  2  0  0  0  0
  2  3  1  0  0  0  0
  2 15  1  0  0  0  0
  3  4  1  0  0  0  0
  3 25  1  0  0  0  0
  4  9  1  0  0  0  0
  4  5  2  0  0  0  0
  5  6  1  0  0  0  0
  5 26  1  0  0  0  0
  6  7  2  0  0  0  0
  6 27  1  0  0  0  0
  7  8  1  0  0  0  0
  7 28  1  0  0  0  0
  8  9  2  0  0  0  0
  9 10  1  0  0  0  0
 10 14  1  0  0  0  0
 10 11  1  0  0  0  0
 11 12  1  0  0  0  0
 11 29  1  0  0  0  0
 11 30  1  0  0  0  0
 12 13  1  0  0  0  0
 12 31  1  0  0  0  0
 12 32  1  0  0  0  0
 13 14  1  0  0  0  0
 13 33  1  0  0  0  0
 13 34  1  0  0  0  0
 14 35  1  0  0  0  0
 14 36  1  0  0  0  0
 15 16  1  0  0  0  0
 15 37  1  0  0  0  0
 16 24  1  0  0  0  0
 16 17  1  0  0  0  0
 16 38  1  0  0  0  0
 17 18  1  0  0  0  0
 17 39  1  0  0  0  0
 17 40  1  0  0  0  0
 18 19  1  0  0  0  0
 18 41  1  0  0  0  0
 18 42  1  0  0  0  0
 19 20  1  0  0  0  0
 19 23  1  0  0  0  0
 19 52  1  0  0  0  0
 20 22  1  0  0  0  0
 20 21  1  0  0  0  0
 20 43  1  0  0  0  0
 21 22  1  0  0  0  0
 21 44  1  0  0  0  0
 21 45  1  0  0  0  0
 22 46  1  0  0  0  0
 22 47  1  0  0  0  0
 23 24  1  0  0  0  0
 23 48  1  0  0  0  0
 23 49  1  0  0  0  0
 24 50  1  0  0  0  0
 24 51  1  0  0  0  0
M  CHG  1  19   1
M  END
> <s_m_source_file>
AV-unprocessed.smi

> <i_m_source_file_index>
890

> <i_lp_mmshare_version>
43012

> <i_f3d_flags>
0

> <s_epik_input>
W0NIMl0xW0NIMl1bQ0hdMU4oW0NIMl1bQ0gyXTIpW0NIMl1bQ0gyXVtDSF0yW05IXUMoPU8pW05IXWMzW2NIXVtjSF1bY0hdbmMzTjRbQ0gyXVtDSDJdW0NIMl1bQ0gyXTQ=

> <s_epik_cmdline>
J2VwaWtfcHl0aG9uJywgJy1waCcsICc3LjAnLCAnLXRuJywgJzgnLCAnLW1hJywgJzIwMCcsICctbWV0YWxfYmluZGluZycsICctaW1hZScsICc8aW5maWxlLm1hZT4nLCAnLW9tYWUnLCAnPG91dGZpbGUubWFlPic=

> <r_lp_tautomer_probability>
1

> <r_epik_Ionization_Penalty>
0.193768

> <r_epik_Ionization_Penalty_Charging>
0.115549

> <r_epik_Ionization_Penalty_Neutral>
0.078219

> <r_epik_State_Penalty>
0.174811

> <r_epik_Charging_Adjusted_Penalty>
0.29036

> <i_epik_Tot_Q>
1

> <i_epik_Tot_abs_Q>
1

> <r_epik_Metal_State_Penalty>
0.169761

> <b_epik_Metal_Only>
0

> <s_lp_Force_Field>
OPLS_2005

> <r_lp_Energy>
54.8622

> <b_lp_Chiralities_Consistent>
1

> <s_lp_Variant>
AV-unprocessed.smi:890-1

> <Gold.Version>
5.8.1

> <Gold.Id.Protein>
6NUR|6NUR_protein|mol2

> <Gold.PLP.Fitness>
42.7033

> <Gold.PLP.PLP>
-38.3452

> <Gold.PLP.part.hbond>
-2.6750

> <Gold.PLP.part.metal>
0.0000

> <Gold.PLP.part.buried>
-4.3506

> <Gold.PLP.part.nonpolar>
-31.1649

> <Gold.PLP.part.repulsive>
0.4272

> <Gold.PLP.ligand.clash>
0.0000

> <Gold.PLP.ligand.torsion>
1.1374

> <Gold.PLP.Chemscore.Hbond>
1.7500

> <Gold.PLP.Chemscore.CHOScore>
0.0000

> <Gold.PLP.Chemscore.Metal>
0.0000

> <Gold.Chemscore.Hbonds>
donor molecule, donor type, donor heavy atom, donor atom, acceptor molecule, acceptor atom, score
      L1  H     3    25       P1  7948  0.75
      L1  H    15    37       P1  7948  1.00

> <Gold.PLP.Chemscore.Internal.Correction>
1.3830

> <Gold.Rescore>
     Score         DG    S(hbond)    S(metal)    S(lipo)     H(rot)  DE(clash)    DE(int)     intcor
     14.06     -16.41       1.31        0.00      85.05       1.33       0.20       2.14       ----

> <Gold.Chemscore.Fitness>
14.0630

> <Gold.Chemscore.DG>
-16.4068

> <Gold.Chemscore.ZeroCoef>
-5.4800

> <Gold.Chemscore.Hbond>
1.3111

> <Gold.Chemscore.Metal>
0.0000

> <Gold.Chemscore.Lipo>
85.0512

> <Gold.Chemscore.Internal_Hbond>
0.0000

> <Gold.Chemscore.DEClash>
0.2044

> <Gold.Chemscore.DEInternal>
2.1393

> <Gold.Chemscore.Rot>
1.3294

> <Gold.Chemscore.Internal.Correction>
   9.000000E+99

> <Gold.Chemscore.Hbonds>
donor molecule, donor type, donor heavy atom, donor atom, acceptor molecule, acceptor atom, score
      L1  H     3    25       P1  7948  0.09
      L1  H    15    37       P1  7948  0.58

> <Gold.Chemscore.Hbond.Weighted>
-4.3789

> <Gold.Chemscore.Metal.Weighted>
-0.0000

> <Gold.Chemscore.Lipo.Weighted>
-9.9510

> <Gold.Chemscore.Internal_Hbond.Weighted>
0.0000

> <Gold.Chemscore.DEClash.Weighted>
0.2044

> <Gold.Chemscore.DEInternal.Weighted>
2.1393

> <Gold.Chemscore.Rot.Weighted>
3.4032

> <Gold.Chemscore.Internal.Correction.Weighted>
   9.000000E+99

> <Gold.Protein.RotatedTorsions>
[ 6907 6896 6895 6894 ] final  107.16 input  -60.11 | X-H torsion
[ 7974 7965 7964 7962 ] final  149.62 input  175.53 | X-H torsion
[ 8008 7997 7996 7995 ] final  144.22 input   59.86 | X-H torsion
[ 10167 10162 10161 10158 ] final  131.05 input  -65.29 | X-H torsion
[ 10718 10713 10712 10709 ] final  -29.04 input   66.30 | X-H torsion
[ 10763 10752 10751 10750 ] final   63.93 input  -60.55 | X-H torsion
[ 11005 11000 10999 10996 ] final  -76.59 input  -57.11 | X-H torsion

> <Gold.Protein.ActiveResidues>
 VAL166  LYS551  ARG553  GLY616  TRP617  ASP618  TYR619  PRO620  LYS621  CYS622 
 ASP623  PHE694  ASN695  SER759  ASP760  ASP761  ALA762  ILE779  LEU786  VAL792 
 PHE793  MET794  SER795  GLU796  ALA797  LYS798  CYS799  TRP800  GLU811  SER814 

> <Gold.Protein.RotatedAtoms>
  152.5165  133.9274  159.7563 H   0  0  0  0  0  0  0  0  0  0  0  0  # atno 6907 bound_to 6896
  150.9632  133.6414  159.2757 H   0  0  0  0  0  0  0  0  0  0  0  0  # atno 6908 bound_to 6896
  151.3651  135.0917  159.9500 H   0  0  0  0  0  0  0  0  0  0  0  0  # atno 6909 bound_to 6896
  144.8424  139.6304  143.6010 H   0  0  0  0  0  0  0  0  0  0  0  0  # atno 7974 bound_to 7965
  156.2913  140.2241  156.5018 H   0  0  0  0  0  0  0  0  0  0  0  0  # atno 8008 bound_to 7997
  154.7683  140.0468  157.1052 H   0  0  0  0  0  0  0  0  0  0  0  0  # atno 8009 bound_to 7997
  154.9906  140.3089  155.4911 H   0  0  0  0  0  0  0  0  0  0  0  0  # atno 8010 bound_to 7997
  139.5401  144.6722  151.4652 H   0  0  0  0  0  0  0  0  0  0  0  0  # atno 10167 bound_to 10162
  156.4176  130.4420  149.7207 H   0  0  0  0  0  0  0  0  0  0  0  0  # atno 10718 bound_to 10713
  153.0036  135.5411  154.6429 H   0  0  0  0  0  0  0  0  0  0  0  0  # atno 10763 bound_to 10752
  154.5680  135.2839  155.0857 H   0  0  0  0  0  0  0  0  0  0  0  0  # atno 10764 bound_to 10752
  154.2034  135.6480  153.5146 H   0  0  0  0  0  0  0  0  0  0  0  0  # atno 10765 bound_to 10752
  141.1655  133.6989  156.7692 H   0  0  0  0  0  0  0  0  0  0  0  0  # atno 11005 bound_to 11000
  146.2714  139.6646  142.9293 LP  0  0  0  0  0  0  0  0  0  0  0  0  # atno 17320 bound_to 7965
  145.4666  141.0435  143.2722 LP  0  0  0  0  0  0  0  0  0  0  0  0  # atno 17321 bound_to 7965
  140.6627  143.8463  150.6906 LP  0  0  0  0  0  0  0  0  0  0  0  0  # atno 17342 bound_to 10162
  140.1863  143.4073  152.1896 LP  0  0  0  0  0  0  0  0  0  0  0  0  # atno 17343 bound_to 10162
  156.4161  130.7746  151.2761 LP  0  0  0  0  0  0  0  0  0  0  0  0  # atno 17370 bound_to 10713
  157.7508  131.0197  150.3677 LP  0  0  0  0  0  0  0  0  0  0  0  0  # atno 17371 bound_to 10713
  140.2477  134.8565  157.3636 LP  0  0  0  0  0  0  0  0  0  0  0  0  # atno 17394 bound_to 11000
  140.1734  134.4580  155.7817 LP  0  0  0  0  0  0  0  0  0  0  0  0  # atno 17395 bound_to 11000

$$$$
