AV-unprocessed.smi:116|AV-procd|sdf|1128|dock7
  -GOLD-   2262018253D 1   1.00000     0.00000
 Structure written by MMmdl.
 38 41  0  0  0  0  0  0  0  0  1 V2000
  150.3055  140.2975  154.2340 O   0  0  0  0  0  0  0  0  0  0  0  0
  150.1253  139.1349  154.5998 C   0  0  0  0  0  0  0  0  0  0  0  0
  148.8670  138.4226  154.4065 C   0  0  0  0  0  0  0  0  0  0  0  0
  147.8306  139.0508  153.8258 F   0  0  0  0  0  0  0  0  0  0  0  0
  148.7226  137.1403  154.8037 C   0  0  0  0  0  0  0  0  0  0  0  0
  149.7373  136.4183  155.4085 N   0  0  0  0  0  0  0  0  0  0  0  0
  149.5323  134.9817  155.8350 C   0  0  1  0  0  0  0  0  0  0  0  0
  148.0644  134.5797  155.6539 C   0  0  0  0  0  0  0  0  0  0  0  0
  148.0857  133.9264  154.2891 C   0  0  0  0  0  0  0  0  0  0  0  0
  149.4571  133.2612  154.2905 C   0  0  0  0  0  0  0  0  0  0  0  0
  150.3031  134.1484  155.0172 O   0  0  0  0  0  0  0  0  0  0  0  0
  150.9836  137.0340  155.6566 C   0  0  0  0  0  0  0  0  0  0  0  0
  151.8933  136.4145  156.2127 O   0  0  0  0  0  0  0  0  0  0  0  0
  151.1376  138.3791  155.2426 N   0  0  0  0  0  0  0  0  0  0  0  0
  152.4324  139.0092  155.4497 C   0  0  0  0  0  0  0  0  0  0  0  0
  152.3834  139.9534  156.6127 C   0  0  0  0  0  0  0  0  0  0  0  0
  153.1333  139.7716  157.7077 N   0  0  0  0  0  0  0  0  0  0  0  0
  152.9023  140.7934  158.6238 C   0  0  0  0  0  0  0  0  0  0  0  0
  153.5112  140.9532  159.8905 C   0  0  0  0  0  0  0  0  0  0  0  0
  153.1851  142.0420  160.7236 C   0  0  0  0  0  0  0  0  0  0  0  0
  152.2388  142.9964  160.3048 C   0  0  0  0  0  0  0  0  0  0  0  0
  151.6168  142.8622  159.0501 C   0  0  0  0  0  0  0  0  0  0  0  0
  151.9469  141.7730  158.2224 C   0  0  0  0  0  0  0  0  0  0  0  0
  151.3245  141.3711  156.6256 S   0  0  0  0  0  0  0  0  0  0  0  0
  147.7649  136.6699  154.6380 H   0  0  0  0  0  0  0  0  0  0  0  0
  149.8877  134.9124  156.8642 H   0  0  0  0  0  0  0  0  0  0  0  0
  147.8068  133.8501  156.4224 H   0  0  0  0  0  0  0  0  0  0  0  0
  147.3859  135.4302  155.7310 H   0  0  0  0  0  0  0  0  0  0  0  0
  147.2690  133.2200  154.1387 H   0  0  0  0  0  0  0  0  0  0  0  0
  148.0320  134.6834  153.5060 H   0  0  0  0  0  0  0  0  0  0  0  0
  149.4152  132.3073  154.8180 H   0  0  0  0  0  0  0  0  0  0  0  0
  149.8377  133.0779  153.2855 H   0  0  0  0  0  0  0  0  0  0  0  0
  153.1830  138.2335  155.6067 H   0  0  0  0  0  0  0  0  0  0  0  0
  152.7187  139.5248  154.5314 H   0  0  0  0  0  0  0  0  0  0  0  0
  154.2390  140.2284  160.2242 H   0  0  0  0  0  0  0  0  0  0  0  0
  153.6629  142.1443  161.6868 H   0  0  0  0  0  0  0  0  0  0  0  0
  151.9906  143.8297  160.9456 H   0  0  0  0  0  0  0  0  0  0  0  0
  150.8900  143.5908  158.7229 H   0  0  0  0  0  0  0  0  0  0  0  0
  1  2  2  0  0  0  0
  2 14  1  0  0  0  0
  2  3  1  0  0  0  0
  3  4  1  0  0  0  0
  3  5  2  0  0  0  0
  5  6  1  0  0  0  0
  5 25  1  0  0  0  0
  6  7  1  0  0  0  0
  6 12  1  0  0  0  0
  7 11  1  0  0  0  0
  7  8  1  0  0  0  0
  7 26  1  0  0  0  0
  8  9  1  0  0  0  0
  8 27  1  0  0  0  0
  8 28  1  0  0  0  0
  9 10  1  0  0  0  0
  9 29  1  0  0  0  0
  9 30  1  0  0  0  0
 10 11  1  0  0  0  0
 10 31  1  0  0  0  0
 10 32  1  0  0  0  0
 12 13  2  0  0  0  0
 12 14  1  0  0  0  0
 14 15  1  0  0  0  0
 15 16  1  0  0  0  0
 15 33  1  0  0  0  0
 15 34  1  0  0  0  0
 16 24  1  0  0  0  0
 16 17  2  0  0  0  0
 17 18  1  0  0  0  0
 18 23  2  0  0  0  0
 18 19  1  0  0  0  0
 19 20  2  0  0  0  0
 19 35  1  0  0  0  0
 20 21  1  0  0  0  0
 20 36  1  0  0  0  0
 21 22  2  0  0  0  0
 21 37  1  0  0  0  0
 22 23  1  0  0  0  0
 22 38  1  0  0  0  0
 23 24  1  0  0  0  0
M  END
> <s_m_source_file>
AV-unprocessed.smi

> <i_m_source_file_index>
116

> <i_lp_mmshare_version>
43012

> <i_f3d_flags>
0

> <s_epik_input>
TzFbQ0gyXVtDSDJdW0NIMl1bQ0BIXTFuKFtjSF1jKEYpYzI9TyljKD1PKW4yW0NIMl1jKG4zKXNjKGMzNClbY0hdW2NIXVtjSF1bY0hdNA==

> <s_epik_cmdline>
J2VwaWtfcHl0aG9uJywgJy1waCcsICc3LjAnLCAnLXRuJywgJzgnLCAnLW1hJywgJzIwMCcsICctbWV0YWxfYmluZGluZycsICctaW1hZScsICc8aW5maWxlLm1hZT4nLCAnLW9tYWUnLCAnPG91dGZpbGUubWFlPic=

> <r_lp_tautomer_probability>
1

> <r_epik_Ionization_Penalty>
4.2492e-05

> <r_epik_Ionization_Penalty_Charging>
2.84664e-09

> <r_epik_Ionization_Penalty_Neutral>
4.24891e-05

> <r_epik_State_Penalty>
-0

> <r_epik_Charging_Adjusted_Penalty>
2.84664e-09

> <i_epik_Tot_Q>
0

> <i_epik_Tot_abs_Q>
0

> <r_epik_Metal_State_Penalty>
-0

> <b_epik_Metal_Only>
0

> <s_epik_Chemistry_Notes>
This compound contains an acetal/aminal-like group ( X-CH(R)-Y where X, Y are N, S, or O) that may be acid/base labile, releasing an aldehyde.

> <s_lp_Force_Field>
OPLS_2005

> <r_lp_Energy>
30.7685

> <b_lp_Chiralities_Consistent>
1

> <s_lp_Variant>
AV-unprocessed.smi:116-2

> <Gold.Version>
5.8.1

> <Gold.Id.Protein>
6NUR|6NUR_protein|mol2

> <Gold.PLP.Fitness>
48.4145

> <Gold.PLP.PLP>
-40.1367

> <Gold.PLP.part.hbond>
-3.0000

> <Gold.PLP.part.metal>
0.0000

> <Gold.PLP.part.buried>
-1.8778

> <Gold.PLP.part.nonpolar>
-34.6205

> <Gold.PLP.part.repulsive>
0.2374

> <Gold.PLP.ligand.clash>
0.0000

> <Gold.PLP.ligand.torsion>
0.3670

> <Gold.PLP.Chemscore.Hbond>
3.0000

> <Gold.PLP.Chemscore.CHOScore>
0.0000

> <Gold.PLP.Chemscore.Metal>
0.0000

> <Gold.Chemscore.Hbonds>
donor molecule, donor type, donor heavy atom, donor atom, acceptor molecule, acceptor atom, score
      P1  H  7989  7998       L1     1  0.99
      P1  H  7997  8010       L1    17  0.98
      P1  H 10752 10764       L1    13  1.00

> <Gold.PLP.Chemscore.Internal.Correction>
0.0118

> <Gold.Rescore>
     Score         DG    S(hbond)    S(metal)    S(lipo)     H(rot)  DE(clash)    DE(int)     intcor
     18.03     -20.21       2.24        0.00      95.27       1.52       0.27       1.91       ----

> <Gold.Chemscore.Fitness>
18.0252

> <Gold.Chemscore.DG>
-20.2110

> <Gold.Chemscore.ZeroCoef>
-5.4800

> <Gold.Chemscore.Hbond>
2.2360

> <Gold.Chemscore.Metal>
0.0000

> <Gold.Chemscore.Lipo>
95.2723

> <Gold.Chemscore.Internal_Hbond>
0.0000

> <Gold.Chemscore.DEClash>
0.2725

> <Gold.Chemscore.DEInternal>
1.9133

> <Gold.Chemscore.Rot>
1.5172

> <Gold.Chemscore.Internal.Correction>
   9.000000E+99

> <Gold.Chemscore.Hbonds>
donor molecule, donor type, donor heavy atom, donor atom, acceptor molecule, acceptor atom, score
      P1  H  7989  7998       L1     1  0.93
      P1  H  7997  8010       L1    17  0.15
      P1  H 10752 10764       L1    13  0.62

> <Gold.Chemscore.Hbond.Weighted>
-7.4682

> <Gold.Chemscore.Metal.Weighted>
-0.0000

> <Gold.Chemscore.Lipo.Weighted>
-11.1469

> <Gold.Chemscore.Internal_Hbond.Weighted>
0.0000

> <Gold.Chemscore.DEClash.Weighted>
0.2725

> <Gold.Chemscore.DEInternal.Weighted>
1.9133

> <Gold.Chemscore.Rot.Weighted>
3.8841

> <Gold.Chemscore.Internal.Correction.Weighted>
   9.000000E+99

> <Gold.Protein.RotatedTorsions>
[ 6907 6896 6895 6894 ] final  108.93 input  -60.11 | X-H torsion
[ 7974 7965 7964 7962 ] final  -51.04 input  175.53 | X-H torsion
[ 8008 7997 7996 7995 ] final   27.09 input   59.86 | X-H torsion
[ 10167 10162 10161 10158 ] final  -20.50 input  -65.29 | X-H torsion
[ 10718 10713 10712 10709 ] final  179.89 input   66.30 | X-H torsion
[ 10763 10752 10751 10750 ] final  -48.58 input  -60.55 | X-H torsion
[ 11005 11000 10999 10996 ] final  -99.04 input  -57.11 | X-H torsion

> <Gold.Protein.ActiveResidues>
 VAL166  LYS551  ARG553  GLY616  TRP617  ASP618  TYR619  PRO620  LYS621  CYS622 
 ASP623  PHE694  ASN695  SER759  ASP760  ASP761  ALA762  ILE779  LEU786  VAL792 
 PHE793  MET794  SER795  GLU796  ALA797  LYS798  CYS799  TRP800  GLU811  SER814 

> <Gold.Protein.RotatedAtoms>
  152.5090  133.9018  159.7444 H   0  0  0  0  0  0  0  0  0  0  0  0  # atno 6907 bound_to 6896
  150.9432  133.6624  159.2793 H   0  0  0  0  0  0  0  0  0  0  0  0  # atno 6908 bound_to 6896
  151.3928  135.0964  159.9584 H   0  0  0  0  0  0  0  0  0  0  0  0  # atno 6909 bound_to 6896
  145.9233  140.7814  142.9636 H   0  0  0  0  0  0  0  0  0  0  0  0  # atno 7974 bound_to 7965
  155.0375  140.3165  155.4736 H   0  0  0  0  0  0  0  0  0  0  0  0  # atno 8008 bound_to 7997
  156.2861  140.2169  156.5441 H   0  0  0  0  0  0  0  0  0  0  0  0  # atno 8009 bound_to 7997
  154.7318  140.0481  157.0721 H   0  0  0  0  0  0  0  0  0  0  0  0  # atno 8010 bound_to 7997
  140.7276  143.4717  151.0238 H   0  0  0  0  0  0  0  0  0  0  0  0  # atno 10167 bound_to 10162
  156.8691  130.9777  151.3075 H   0  0  0  0  0  0  0  0  0  0  0  0  # atno 10718 bound_to 10713
  154.0800  135.6592  153.4836 H   0  0  0  0  0  0  0  0  0  0  0  0  # atno 10763 bound_to 10752
  153.0359  135.5177  154.7483 H   0  0  0  0  0  0  0  0  0  0  0  0  # atno 10764 bound_to 10752
  154.6575  135.3010  154.9877 H   0  0  0  0  0  0  0  0  0  0  0  0  # atno 10765 bound_to 10752
  141.1323  133.8291  157.0919 H   0  0  0  0  0  0  0  0  0  0  0  0  # atno 11005 bound_to 11000
  144.6755  140.2011  143.7387 LP  0  0  0  0  0  0  0  0  0  0  0  0  # atno 17320 bound_to 7965
  145.8521  139.2181  143.1766 LP  0  0  0  0  0  0  0  0  0  0  0  0  # atno 17321 bound_to 7965
  139.8409  143.7565  152.3180 LP  0  0  0  0  0  0  0  0  0  0  0  0  # atno 17342 bound_to 10162
  139.7713  144.7475  151.0220 LP  0  0  0  0  0  0  0  0  0  0  0  0  # atno 17343 bound_to 10162
  157.6206  130.8652  149.9103 LP  0  0  0  0  0  0  0  0  0  0  0  0  # atno 17370 bound_to 10713
  156.0736  130.3682  150.0724 LP  0  0  0  0  0  0  0  0  0  0  0  0  # atno 17371 bound_to 10713
  140.0387  134.9865  157.0920 LP  0  0  0  0  0  0  0  0  0  0  0  0  # atno 17394 bound_to 11000
  140.4170  134.1921  155.7163 LP  0  0  0  0  0  0  0  0  0  0  0  0  # atno 17395 bound_to 11000

$$$$
