AV-unprocessed.smi:2520|AV-procd|sdf|9910|dock2
  -GOLD-   2272013543D 1   1.00000     0.00000
 Structure written by MMmdl.
 41 44  0  0  0  0  0  0  0  0  1 V2000
  147.2205  142.1221  159.6211 O   0  0  0  0  0  0  0  0  0  0  0  0
  147.4345  143.2116  159.0922 C   0  0  0  0  0  0  0  0  0  0  0  0
  146.5971  144.2537  159.2794 N   0  0  0  0  0  0  0  0  0  0  0  0
  145.3965  144.3699  160.0390 C   0  0  0  0  0  0  0  0  0  0  0  0
  145.4158  143.7006  161.2815 C   0  0  0  0  0  0  0  0  0  0  0  0
  144.2747  143.7725  162.0987 C   0  0  0  0  0  0  0  0  0  0  0  0
  143.1840  144.5158  161.6170 C   0  0  0  0  0  0  0  0  0  0  0  0
  143.2084  145.1458  160.4229 N   0  0  0  0  0  0  0  0  0  0  0  0
  144.2987  145.0730  159.6523 N   0  0  0  0  0  0  0  0  0  0  0  0
  148.4962  143.4383  158.3029 N   0  0  0  0  0  0  0  0  0  0  0  0
  149.5373  142.4627  158.0055 C   0  0  1  0  0  0  0  0  0  0  0  0
  149.7568  142.2847  156.4942 C   0  0  2  0  0  0  0  0  0  0  0  0
  149.4346  140.9689  155.8406 C   0  0  0  0  0  0  0  0  0  0  0  0
  150.7872  140.2510  155.8342 C   0  0  0  0  0  0  0  0  0  0  0  0
  151.5417  140.8941  156.8591 O   0  0  0  0  0  0  0  0  0  0  0  0
  151.2481  142.2877  156.7964 C   0  0  2  0  0  0  0  0  0  0  0  0
  150.9799  143.0057  158.1359 C   0  0  0  0  0  0  0  0  0  0  0  0
  151.8163  142.5806  159.3399 C   0  0  0  0  0  0  0  0  0  0  0  0
  153.0354  143.5082  159.4020 C   0  0  0  0  0  0  0  0  0  0  0  0
  152.6867  144.7183  158.5297 C   0  0  0  0  0  0  0  0  0  0  0  0
  151.2258  144.5172  158.1267 C   0  0  0  0  0  0  0  0  0  0  0  0
  146.8387  145.0815  158.7542 H   0  0  0  0  0  0  0  0  0  0  0  0
  146.2835  143.1432  161.6031 H   0  0  0  0  0  0  0  0  0  0  0  0
  144.2369  143.2772  163.0576 H   0  0  0  0  0  0  0  0  0  0  0  0
  142.2782  144.6086  162.1974 H   0  0  0  0  0  0  0  0  0  0  0  0
  148.6014  144.3593  157.9012 H   0  0  0  0  0  0  0  0  0  0  0  0
  149.4106  141.5044  158.5148 H   0  0  0  0  0  0  0  0  0  0  0  0
  149.4629  143.1653  155.9194 H   0  0  0  0  0  0  0  0  0  0  0  0
  148.7019  140.4126  156.4261 H   0  0  0  0  0  0  0  0  0  0  0  0
  149.0386  141.0872  154.8316 H   0  0  0  0  0  0  0  0  0  0  0  0
  150.6963  139.1798  156.0145 H   0  0  0  0  0  0  0  0  0  0  0  0
  151.2932  140.3956  154.8787 H   0  0  0  0  0  0  0  0  0  0  0  0
  151.8515  142.8308  156.0674 H   0  0  0  0  0  0  0  0  0  0  0  0
  151.2298  142.6942  160.2527 H   0  0  0  0  0  0  0  0  0  0  0  0
  152.1172  141.5338  159.2944 H   0  0  0  0  0  0  0  0  0  0  0  0
  153.2505  143.8013  160.4300 H   0  0  0  0  0  0  0  0  0  0  0  0
  153.9214  143.0071  159.0106 H   0  0  0  0  0  0  0  0  0  0  0  0
  152.8410  145.6646  159.0491 H   0  0  0  0  0  0  0  0  0  0  0  0
  153.3181  144.7231  157.6404 H   0  0  0  0  0  0  0  0  0  0  0  0
  151.0099  144.9737  157.1600 H   0  0  0  0  0  0  0  0  0  0  0  0
  150.5910  145.0148  158.8609 H   0  0  0  0  0  0  0  0  0  0  0  0
  1  2  2  0  0  0  0
  2  3  1  0  0  0  0
  2 10  1  0  0  0  0
  3  4  1  0  0  0  0
  3 22  1  0  0  0  0
  4  9  1  0  0  0  0
  4  5  2  0  0  0  0
  5  6  1  0  0  0  0
  5 23  1  0  0  0  0
  6  7  2  0  0  0  0
  6 24  1  0  0  0  0
  7  8  1  0  0  0  0
  7 25  1  0  0  0  0
  8  9  2  0  0  0  0
 10 11  1  0  0  0  0
 10 26  1  0  0  0  0
 11 17  1  0  0  0  0
 11 12  1  0  0  0  0
 11 27  1  0  0  0  0
 12 16  1  0  0  0  0
 12 13  1  0  0  0  0
 12 28  1  0  0  0  0
 13 14  1  0  0  0  0
 13 29  1  0  0  0  0
 13 30  1  0  0  0  0
 14 15  1  0  0  0  0
 14 31  1  0  0  0  0
 14 32  1  0  0  0  0
 15 16  1  0  0  0  0
 16 17  1  0  0  0  0
 16 33  1  0  0  0  0
 17 21  1  0  0  0  0
 17 18  1  0  0  0  0
 18 19  1  0  0  0  0
 18 34  1  0  0  0  0
 18 35  1  0  0  0  0
 19 20  1  0  0  0  0
 19 36  1  0  0  0  0
 19 37  1  0  0  0  0
 20 21  1  0  0  0  0
 20 38  1  0  0  0  0
 20 39  1  0  0  0  0
 21 40  1  0  0  0  0
 21 41  1  0  0  0  0
M  END
> <s_m_source_file>
AV-unprocessed.smi

> <i_m_source_file_index>
2520

> <i_lp_mmshare_version>
43012

> <i_f3d_flags>
0

> <s_epik_input>
bjFuW2NIXVtjSF1bY0hdYzFbTkhdQyg9TylbTkhdW0NAQEhdMltDQEBIXShbQ0gyXVtDSDJdTzMpW0NASF0zQzI0W0NIMl1bQ0gyXVtDSDJdW0NIMl00

> <s_epik_cmdline>
J2VwaWtfcHl0aG9uJywgJy1waCcsICc3LjAnLCAnLXRuJywgJzgnLCAnLW1hJywgJzIwMCcsICctbWV0YWxfYmluZGluZycsICctaW1hZScsICc8aW5maWxlLm1hZT4nLCAnLW9tYWUnLCAnPG91dGZpbGUubWFlPic=

> <r_lp_tautomer_probability>
1

> <r_epik_Ionization_Penalty>
0.00552561

> <r_epik_Ionization_Penalty_Charging>
0

> <r_epik_Ionization_Penalty_Neutral>
0.00552561

> <r_epik_State_Penalty>
-0

> <r_epik_Charging_Adjusted_Penalty>
0

> <i_epik_Tot_Q>
0

> <i_epik_Tot_abs_Q>
0

> <r_epik_Metal_State_Penalty>
-0

> <b_epik_Metal_Only>
0

> <s_lp_Force_Field>
OPLS_2005

> <r_lp_Energy>
61.147

> <b_lp_Chiralities_Consistent>
1

> <s_lp_Variant>
AV-unprocessed.smi:2520-4

> <Gold.Version>
5.8.1

> <Gold.Id.Protein>
6NUR|6NUR_protein|mol2

> <Gold.PLP.Fitness>
41.6534

> <Gold.PLP.PLP>
-34.6330

> <Gold.PLP.part.hbond>
-4.8818

> <Gold.PLP.part.metal>
0.0000

> <Gold.PLP.part.buried>
1.9461

> <Gold.PLP.part.nonpolar>
-31.8668

> <Gold.PLP.part.repulsive>
0.3451

> <Gold.PLP.ligand.clash>
0.0000

> <Gold.PLP.ligand.torsion>
0.3913

> <Gold.PLP.Chemscore.Hbond>
2.5390

> <Gold.PLP.Chemscore.CHOScore>
0.0000

> <Gold.PLP.Chemscore.Metal>
0.0000

> <Gold.Chemscore.Hbonds>
donor molecule, donor type, donor heavy atom, donor atom, acceptor molecule, acceptor atom, score
      L1  H     3    22       P1  8029  1.00
      L1  H    10    26       P1  8029  0.65
      P1  H  6933  6944       L1     1  0.22
      P1  H  6934  6946       L1     1  0.67

> <Gold.PLP.Chemscore.Internal.Correction>
0.1860

> <Gold.Rescore>
     Score         DG    S(hbond)    S(metal)    S(lipo)     H(rot)  DE(clash)    DE(int)     intcor
     19.77     -21.80       1.91        0.00     106.90       1.00       0.42       1.62       ----

> <Gold.Chemscore.Fitness>
19.7694

> <Gold.Chemscore.DG>
-21.8040

> <Gold.Chemscore.ZeroCoef>
-5.4800

> <Gold.Chemscore.Hbond>
1.9092

> <Gold.Chemscore.Metal>
0.0000

> <Gold.Chemscore.Lipo>
106.8999

> <Gold.Chemscore.Internal_Hbond>
0.0000

> <Gold.Chemscore.DEClash>
0.4154

> <Gold.Chemscore.DEInternal>
1.6191

> <Gold.Chemscore.Rot>
1.0000

> <Gold.Chemscore.Internal.Correction>
   9.000000E+99

> <Gold.Chemscore.Hbonds>
donor molecule, donor type, donor heavy atom, donor atom, acceptor molecule, acceptor atom, score
      L1  H     3    22       P1  8029  0.91
      L1  H    10    26       P1  8029  0.05
      P1  H  6933  6944       L1     1  0.06
      P1  H  6934  6946       L1     1  0.66

> <Gold.Chemscore.Hbond.Weighted>
-6.3767

> <Gold.Chemscore.Metal.Weighted>
-0.0000

> <Gold.Chemscore.Lipo.Weighted>
-12.5073

> <Gold.Chemscore.Internal_Hbond.Weighted>
0.0000

> <Gold.Chemscore.DEClash.Weighted>
0.4154

> <Gold.Chemscore.DEInternal.Weighted>
1.6191

> <Gold.Chemscore.Rot.Weighted>
2.5600

> <Gold.Chemscore.Internal.Correction.Weighted>
   9.000000E+99

> <Gold.Protein.RotatedTorsions>
[ 6907 6896 6895 6894 ] final -128.52 input  -60.11 | X-H torsion
[ 7974 7965 7964 7962 ] final  -32.85 input  175.53 | X-H torsion
[ 8008 7997 7996 7995 ] final  120.79 input   59.86 | X-H torsion
[ 10167 10162 10161 10158 ] final  141.02 input  -65.29 | X-H torsion
[ 10718 10713 10712 10709 ] final  -87.31 input   66.30 | X-H torsion
[ 10763 10752 10751 10750 ] final  152.43 input  -60.55 | X-H torsion
[ 11005 11000 10999 10996 ] final -122.06 input  -57.11 | X-H torsion

> <Gold.Protein.ActiveResidues>
 VAL166  LYS551  ARG553  GLY616  TRP617  ASP618  TYR619  PRO620  LYS621  CYS622 
 ASP623  PHE694  ASN695  SER759  ASP760  ASP761  ALA762  ILE779  LEU786  VAL792 
 PHE793  MET794  SER795  GLU796  ALA797  LYS798  CYS799  TRP800  GLU811  SER814 

> <Gold.Protein.RotatedAtoms>
  150.9188  133.6906  159.2836 H   0  0  0  0  0  0  0  0  0  0  0  0  # atno 6907 bound_to 6896
  151.4368  135.1014  159.9668 H   0  0  0  0  0  0  0  0  0  0  0  0  # atno 6908 bound_to 6896
  152.4968  133.8605  159.7303 H   0  0  0  0  0  0  0  0  0  0  0  0  # atno 6909 bound_to 6896
  146.0957  140.5844  142.8844 H   0  0  0  0  0  0  0  0  0  0  0  0  # atno 7974 bound_to 7965
  156.2658  140.2823  156.1205 H   0  0  0  0  0  0  0  0  0  0  0  0  # atno 8008 bound_to 7997
  155.1160  140.0391  157.2754 H   0  0  0  0  0  0  0  0  0  0  0  0  # atno 8009 bound_to 7997
  154.6706  140.2587  155.7017 H   0  0  0  0  0  0  0  0  0  0  0  0  # atno 8010 bound_to 7997
  139.5032  144.6198  151.6078 H   0  0  0  0  0  0  0  0  0  0  0  0  # atno 10167 bound_to 10162
  155.9986  130.4795  150.4848 H   0  0  0  0  0  0  0  0  0  0  0  0  # atno 10718 bound_to 10713
  154.1199  135.2833  155.3211 H   0  0  0  0  0  0  0  0  0  0  0  0  # atno 10763 bound_to 10752
  154.6430  135.5395  153.7815 H   0  0  0  0  0  0  0  0  0  0  0  0  # atno 10764 bound_to 10752
  153.0316  135.6491  154.1354 H   0  0  0  0  0  0  0  0  0  0  0  0  # atno 10765 bound_to 10752
  141.0023  134.0384  157.3521 H   0  0  0  0  0  0  0  0  0  0  0  0  # atno 11005 bound_to 11000
  144.7393  140.4898  143.6880 LP  0  0  0  0  0  0  0  0  0  0  0  0  # atno 17320 bound_to 7965
  145.5953  139.1499  143.3159 LP  0  0  0  0  0  0  0  0  0  0  0  0  # atno 17321 bound_to 7965
  140.5897  143.9802  150.6317 LP  0  0  0  0  0  0  0  0  0  0  0  0  # atno 17342 bound_to 10162
  140.2978  143.3281  152.1001 LP  0  0  0  0  0  0  0  0  0  0  0  0  # atno 17343 bound_to 10162
  157.2849  131.0614  151.2173 LP  0  0  0  0  0  0  0  0  0  0  0  0  # atno 17370 bound_to 10713
  157.3206  130.6935  149.6267 LP  0  0  0  0  0  0  0  0  0  0  0  0  # atno 17371 bound_to 10713
  139.9045  135.0175  156.7424 LP  0  0  0  0  0  0  0  0  0  0  0  0  # atno 17394 bound_to 11000
  140.6869  133.9425  155.7943 LP  0  0  0  0  0  0  0  0  0  0  0  0  # atno 17395 bound_to 11000

$$$$
