AV-unprocessed.smi:1943|AV-procd|sdf|7852|dock3
  -GOLD-   22720 9593D 1   1.00000     0.00000
 Structure written by MMmdl.
 47 48  0  0  0  0  0  0  0  0  3 V2000
  145.4791  137.4266  152.6447 C   0  0  0  0  0  0  0  0  0  0  0  0
  145.9120  138.8331  152.3933 N   0  3  0  0  0  0  0  0  0  0  0  0
  146.5377  138.9226  151.0476 C   0  0  0  0  0  0  0  0  0  0  0  0
  146.6507  139.5229  153.5234 C   0  0  0  0  0  0  0  0  0  0  0  0
  146.9287  141.0110  153.1595 C   0  0  0  0  0  0  0  0  0  0  0  0
  145.8019  139.5251  154.8360 C   0  0  0  0  0  0  0  0  0  0  0  0
  147.9793  138.7229  153.7825 C   0  0  0  0  0  0  0  0  0  0  0  0
  148.7314  139.2614  154.9129 N   0  5  0  0  0  0  0  0  0  0  0  0
  149.7324  140.1769  154.7906 C   0  0  0  0  0  0  0  0  0  0  0  0
  149.7775  141.2191  154.1277 O   0  0  0  0  0  0  0  0  0  0  0  0
  150.9042  139.8517  155.6729 C   0  0  0  0  0  0  0  0  0  0  0  0
  151.0982  140.6671  156.7353 N   0  0  0  0  0  0  0  0  0  0  0  0
  152.1244  140.4163  157.5567 C   0  0  0  0  0  0  0  0  0  0  0  0
  152.2963  141.2678  158.6563 N   0  0  0  0  0  0  0  0  0  0  0  0
  151.4061  142.4060  158.9001 C   0  0  0  0  0  0  0  0  0  0  0  0
  152.1574  143.5485  159.6040 C   0  0  0  0  0  0  0  0  0  0  0  0
  152.7611  143.0655  160.7979 O   0  0  0  0  0  0  0  0  0  0  0  0
  153.7163  142.0479  160.5244 C   0  0  0  0  0  0  0  0  0  0  0  0
  153.0244  140.8479  159.8562 C   0  0  0  0  0  0  0  0  0  0  0  0
  152.9977  139.4127  157.4047 N   0  0  0  0  0  0  0  0  0  0  0  0
  152.8353  138.5955  156.3434 C   0  0  0  0  0  0  0  0  0  0  0  0
  151.7883  138.7701  155.4190 C   0  0  0  0  0  0  0  0  0  0  0  0
  151.6607  137.7165  154.0511 Cl  0  0  0  0  0  0  0  0  0  0  0  0
  146.3270  136.7409  152.6247 H   0  0  0  0  0  0  0  0  0  0  0  0
  144.7811  137.1047  151.8712 H   0  0  0  0  0  0  0  0  0  0  0  0
  144.9651  137.3023  153.5973 H   0  0  0  0  0  0  0  0  0  0  0  0
  147.5396  138.4916  151.0508 H   0  0  0  0  0  0  0  0  0  0  0  0
  146.5947  139.9505  150.6899 H   0  0  0  0  0  0  0  0  0  0  0  0
  145.9460  138.3797  150.3097 H   0  0  0  0  0  0  0  0  0  0  0  0
  147.3507  141.5669  153.9991 H   0  0  0  0  0  0  0  0  0  0  0  0
  146.0050  141.5235  152.8897 H   0  0  0  0  0  0  0  0  0  0  0  0
  147.6205  141.1327  152.3238 H   0  0  0  0  0  0  0  0  0  0  0  0
  146.3212  139.9908  155.6763 H   0  0  0  0  0  0  0  0  0  0  0  0
  145.5133  138.5214  155.1558 H   0  0  0  0  0  0  0  0  0  0  0  0
  144.8860  140.1059  154.7239 H   0  0  0  0  0  0  0  0  0  0  0  0
  147.7251  137.6731  153.9367 H   0  0  0  0  0  0  0  0  0  0  0  0
  148.5878  138.7384  152.8782 H   0  0  0  0  0  0  0  0  0  0  0  0
  150.9772  142.7990  157.9787 H   0  0  0  0  0  0  0  0  0  0  0  0
  150.5722  142.0699  159.5172 H   0  0  0  0  0  0  0  0  0  0  0  0
  152.9150  143.9781  158.9466 H   0  0  0  0  0  0  0  0  0  0  0  0
  151.4645  144.3512  159.8569 H   0  0  0  0  0  0  0  0  0  0  0  0
  154.5122  142.4408  159.8895 H   0  0  0  0  0  0  0  0  0  0  0  0
  154.1813  141.7383  161.4605 H   0  0  0  0  0  0  0  0  0  0  0  0
  152.3181  140.3890  160.5489 H   0  0  0  0  0  0  0  0  0  0  0  0
  153.7828  140.0975  159.6351 H   0  0  0  0  0  0  0  0  0  0  0  0
  153.5560  137.7996  156.2265 H   0  0  0  0  0  0  0  0  0  0  0  0
  145.0551  139.3615  152.3073 H   0  0  0  0  0  0  0  0  0  0  0  0
  1  2  1  0  0  0  0
  1 24  1  0  0  0  0
  1 25  1  0  0  0  0
  1 26  1  0  0  0  0
  2  3  1  0  0  0  0
  2  4  1  0  0  0  0
  2 47  1  0  0  0  0
  3 27  1  0  0  0  0
  3 28  1  0  0  0  0
  3 29  1  0  0  0  0
  4  5  1  0  0  0  0
  4  6  1  0  0  0  0
  4  7  1  0  0  0  0
  5 30  1  0  0  0  0
  5 31  1  0  0  0  0
  5 32  1  0  0  0  0
  6 33  1  0  0  0  0
  6 34  1  0  0  0  0
  6 35  1  0  0  0  0
  7  8  1  0  0  0  0
  7 36  1  0  0  0  0
  7 37  1  0  0  0  0
  8  9  1  0  0  0  0
  9 10  2  0  0  0  0
  9 11  1  0  0  0  0
 11 22  1  0  0  0  0
 11 12  2  0  0  0  0
 12 13  1  0  0  0  0
 13 14  1  0  0  0  0
 13 20  2  0  0  0  0
 14 19  1  0  0  0  0
 14 15  1  0  0  0  0
 15 16  1  0  0  0  0
 15 38  1  0  0  0  0
 15 39  1  0  0  0  0
 16 17  1  0  0  0  0
 16 40  1  0  0  0  0
 16 41  1  0  0  0  0
 17 18  1  0  0  0  0
 18 19  1  0  0  0  0
 18 42  1  0  0  0  0
 18 43  1  0  0  0  0
 19 44  1  0  0  0  0
 19 45  1  0  0  0  0
 20 21  1  0  0  0  0
 21 22  2  0  0  0  0
 21 46  1  0  0  0  0
 22 23  1  0  0  0  0
M  CHG  1   2   1
M  CHG  1   8  -1
M  END
> <s_m_source_file>
AV-unprocessed.smi

> <i_m_source_file_index>
1943

> <i_lp_mmshare_version>
43012

> <i_f3d_flags>
0

> <s_epik_input>
W0NIM11OKFtDSDNdKUMoW0NIM10pKFtDSDNdKVtDSDJdW05IXUMoPU8pYzFuYyhuW2NIXWMxQ2wpTjJbQ0gyXVtDSDJdT1tDSDJdW0NIMl0y

> <s_epik_cmdline>
J2VwaWtfcHl0aG9uJywgJy1waCcsICc3LjAnLCAnLXRuJywgJzgnLCAnLW1hJywgJzIwMCcsICctbWV0YWxfYmluZGluZycsICctaW1hZScsICc8aW5maWxlLm1hZT4nLCAnLW9tYWUnLCAnPG91dGZpbGUubWFlPic=

> <r_lp_tautomer_probability>
1

> <r_epik_Ionization_Penalty>
4.9942

> <r_epik_Ionization_Penalty_Charging>
4.9942

> <r_epik_Ionization_Penalty_Neutral>
6.27513e-06

> <r_epik_State_Penalty>
4.99795

> <r_epik_Charging_Adjusted_Penalty>
9.99215

> <i_epik_Tot_Q>
0

> <i_epik_Tot_abs_Q>
2

> <r_epik_Metal_State_Penalty>
1.11486

> <b_epik_Metal_Only>
1

> <s_lp_Force_Field>
OPLS_2005

> <r_lp_Energy>
33.8194

> <b_lp_Chiralities_Consistent>
1

> <s_lp_Variant>
AV-unprocessed.smi:1943-2

> <Gold.Version>
5.8.1

> <Gold.Id.Protein>
6NUR|6NUR_protein|mol2

> <Gold.PLP.Fitness>
47.0946

> <Gold.PLP.PLP>
-39.4991

> <Gold.PLP.part.hbond>
-4.0822

> <Gold.PLP.part.metal>
0.0000

> <Gold.PLP.part.buried>
1.3087

> <Gold.PLP.part.nonpolar>
-36.7296

> <Gold.PLP.part.repulsive>
0.3370

> <Gold.PLP.ligand.clash>
0.0000

> <Gold.PLP.ligand.torsion>
2.0405

> <Gold.PLP.Chemscore.Hbond>
3.7986

> <Gold.PLP.Chemscore.CHOScore>
0.0000

> <Gold.PLP.Chemscore.Metal>
0.0000

> <Gold.Chemscore.Hbonds>
donor molecule, donor type, donor heavy atom, donor atom, acceptor molecule, acceptor atom, score
      L1  H     2    47       P1 10175  2.00
      P1  H  7989  7998       L1    10  0.29
      P1  H  7997  8010       L1    20  0.90
      P1  H  8011  8017       L1    10  0.51

> <Gold.PLP.Chemscore.Internal.Correction>
0.2807

> <Gold.Rescore>
     Score         DG    S(hbond)    S(metal)    S(lipo)     H(rot)  DE(clash)    DE(int)     intcor
     16.77     -20.07       1.79        0.00     104.50       1.41       1.29       2.01       ----

> <Gold.Chemscore.Fitness>
16.7716

> <Gold.Chemscore.DG>
-20.0712

> <Gold.Chemscore.ZeroCoef>
-5.4800

> <Gold.Chemscore.Hbond>
1.7858

> <Gold.Chemscore.Metal>
0.0000

> <Gold.Chemscore.Lipo>
104.4959

> <Gold.Chemscore.Internal_Hbond>
0.0000

> <Gold.Chemscore.DEClash>
1.2937

> <Gold.Chemscore.DEInternal>
2.0059

> <Gold.Chemscore.Rot>
1.4060

> <Gold.Chemscore.Internal.Correction>
   9.000000E+99

> <Gold.Chemscore.Hbonds>
donor molecule, donor type, donor heavy atom, donor atom, acceptor molecule, acceptor atom, score
      L1  H     2    47       P1 10175  1.00
      P1  H  7989  7998       L1    10  0.04
      P1  H  7997  8010       L1    20  0.14
      P1  H  8011  8017       L1    10  0.49

> <Gold.Chemscore.Hbond.Weighted>
-5.9646

> <Gold.Chemscore.Metal.Weighted>
-0.0000

> <Gold.Chemscore.Lipo.Weighted>
-12.2260

> <Gold.Chemscore.Internal_Hbond.Weighted>
0.0000

> <Gold.Chemscore.DEClash.Weighted>
1.2937

> <Gold.Chemscore.DEInternal.Weighted>
2.0059

> <Gold.Chemscore.Rot.Weighted>
3.5994

> <Gold.Chemscore.Internal.Correction.Weighted>
   9.000000E+99

> <Gold.Protein.RotatedTorsions>
[ 6907 6896 6895 6894 ] final   93.12 input  -60.11 | X-H torsion
[ 7974 7965 7964 7962 ] final   72.75 input  175.53 | X-H torsion
[ 8008 7997 7996 7995 ] final   33.67 input   59.86 | X-H torsion
[ 10167 10162 10161 10158 ] final  -66.62 input  -65.29 | X-H torsion
[ 10718 10713 10712 10709 ] final -170.54 input   66.30 | X-H torsion
[ 10763 10752 10751 10750 ] final  -35.33 input  -60.55 | X-H torsion
[ 11005 11000 10999 10996 ] final  -75.29 input  -57.11 | X-H torsion

> <Gold.Protein.ActiveResidues>
 VAL166  LYS551  ARG553  GLY616  TRP617  ASP618  TYR619  PRO620  LYS621  CYS622 
 ASP623  PHE694  ASN695  SER759  ASP760  ASP761  ALA762  ILE779  LEU786  VAL792 
 PHE793  MET794  SER795  GLU796  ALA797  LYS798  CYS799  TRP800  GLU811  SER814 

> <Gold.Protein.RotatedAtoms>
  152.5453  134.1397  159.8473 H   0  0  0  0  0  0  0  0  0  0  0  0  # atno 6907 bound_to 6896
  151.1434  133.4949  159.2604 H   0  0  0  0  0  0  0  0  0  0  0  0  # atno 6908 bound_to 6896
  151.1549  135.0255  159.8739 H   0  0  0  0  0  0  0  0  0  0  0  0  # atno 6909 bound_to 6896
  145.7494  139.2754  143.1440 H   0  0  0  0  0  0  0  0  0  0  0  0  # atno 7974 bound_to 7965
  155.1424  140.3267  155.4449 H   0  0  0  0  0  0  0  0  0  0  0  0  # atno 8008 bound_to 7997
  156.2600  140.1991  156.6489 H   0  0  0  0  0  0  0  0  0  0  0  0  # atno 8009 bound_to 7997
  154.6532  140.0556  156.9966 H   0  0  0  0  0  0  0  0  0  0  0  0  # atno 8010 bound_to 7997
  140.5643  143.2314  151.6665 H   0  0  0  0  0  0  0  0  0  0  0  0  # atno 10167 bound_to 10162
  156.7276  130.9294  151.3102 H   0  0  0  0  0  0  0  0  0  0  0  0  # atno 10718 bound_to 10713
  153.8615  135.6839  153.4782 H   0  0  0  0  0  0  0  0  0  0  0  0  # atno 10763 bound_to 10752
  153.1339  135.4686  154.9390 H   0  0  0  0  0  0  0  0  0  0  0  0  # atno 10764 bound_to 10752
  154.7756  135.3252  154.8048 H   0  0  0  0  0  0  0  0  0  0  0  0  # atno 10765 bound_to 10752
  141.1644  133.6941  156.7495 H   0  0  0  0  0  0  0  0  0  0  0  0  # atno 11005 bound_to 11000
  146.0371  140.8201  142.9847 LP  0  0  0  0  0  0  0  0  0  0  0  0  # atno 17320 bound_to 7965
  144.6853  140.2855  143.7286 LP  0  0  0  0  0  0  0  0  0  0  0  0  # atno 17321 bound_to 7965
  139.5085  144.3608  152.0564 LP  0  0  0  0  0  0  0  0  0  0  0  0  # atno 17342 bound_to 10162
  140.2738  144.3935  150.6142 LP  0  0  0  0  0  0  0  0  0  0  0  0  # atno 17343 bound_to 10162
  157.6872  130.9197  150.0418 LP  0  0  0  0  0  0  0  0  0  0  0  0  # atno 17370 bound_to 10713
  156.1551  130.3643  149.9381 LP  0  0  0  0  0  0  0  0  0  0  0  0  # atno 17371 bound_to 10713
  140.2615  134.8463  157.3762 LP  0  0  0  0  0  0  0  0  0  0  0  0  # atno 17394 bound_to 11000
  140.1607  134.4732  155.7897 LP  0  0  0  0  0  0  0  0  0  0  0  0  # atno 17395 bound_to 11000

$$$$
