AV-unprocessed.smi:1473|AV-procd|sdf|5970|dock10
  -GOLD-   22720 6 63D 1   1.00000     0.00000
 Structure written by MMmdl.
 33 34  0  0  0  0  0  0  0  0  2 V2000
  146.0732  140.7332  153.8476 N   0  5  0  0  0  0  0  0  0  0  0  0
  146.2642  141.9522  154.8855 S   0  0  0  0  0  0  0  0  0  0  0  0
  145.6810  143.2216  154.4240 O   0  0  0  0  0  0  0  0  0  0  0  0
  146.0661  141.5664  156.2910 O   0  0  0  0  0  0  0  0  0  0  0  0
  147.9638  142.1094  154.6789 N   0  0  0  0  0  0  0  0  0  0  0  0
  148.7842  140.9693  154.2837 C   0  0  0  0  0  0  0  0  0  0  0  0
  149.9757  140.7831  155.1990 C   0  0  0  0  0  0  0  0  0  0  0  0
  150.8698  139.7113  155.0048 C   0  0  0  0  0  0  0  0  0  0  0  0
  151.9536  139.5740  155.8936 C   0  0  0  0  0  0  0  0  0  0  0  0
  152.1780  140.4165  156.9245 N   0  0  0  0  0  0  0  0  0  0  0  0
  151.3136  141.4429  157.1141 C   0  0  0  0  0  0  0  0  0  0  0  0
  151.5371  142.3133  158.1905 N   0  0  0  0  0  0  0  0  0  0  0  0
  152.6441  141.9066  159.0472 C   0  0  0  0  0  0  0  0  0  0  0  0
  152.7380  142.8421  160.2647 C   0  0  0  0  0  0  0  0  0  0  0  0
  152.8643  144.1904  159.8212 O   0  0  0  0  0  0  0  0  0  0  0  0
  151.7433  144.6052  159.0451 C   0  0  0  0  0  0  0  0  0  0  0  0
  151.6213  143.7141  157.7965 C   0  0  0  0  0  0  0  0  0  0  0  0
  150.2009  141.6647  156.2758 C   0  0  0  0  0  0  0  0  0  0  0  0
  145.0859  140.7038  153.5655 H   0  0  0  0  0  0  0  0  0  0  0  0
  148.4154  142.8359  155.2338 H   0  0  0  0  0  0  0  0  0  0  0  0
  148.1753  140.0647  154.3036 H   0  0  0  0  0  0  0  0  0  0  0  0
  149.1144  141.1066  153.2536 H   0  0  0  0  0  0  0  0  0  0  0  0
  150.7278  139.0087  154.1967 H   0  0  0  0  0  0  0  0  0  0  0  0
  152.6582  138.7642  155.7750 H   0  0  0  0  0  0  0  0  0  0  0  0
  152.4978  140.8767  159.3754 H   0  0  0  0  0  0  0  0  0  0  0  0
  153.5787  141.9377  158.4851 H   0  0  0  0  0  0  0  0  0  0  0  0
  151.8595  142.7392  160.9038 H   0  0  0  0  0  0  0  0  0  0  0  0
  153.6059  142.5838  160.8712 H   0  0  0  0  0  0  0  0  0  0  0  0
  150.8345  144.5581  159.6473 H   0  0  0  0  0  0  0  0  0  0  0  0
  151.8786  145.6465  158.7527 H   0  0  0  0  0  0  0  0  0  0  0  0
  152.4864  143.8644  157.1491 H   0  0  0  0  0  0  0  0  0  0  0  0
  150.7356  143.9910  157.2232 H   0  0  0  0  0  0  0  0  0  0  0  0
  149.5291  142.4911  156.4585 H   0  0  0  0  0  0  0  0  0  0  0  0
  1  2  1  0  0  0  0
  1 19  1  0  0  0  0
  2  3  2  0  0  0  0
  2  4  2  0  0  0  0
  2  5  1  0  0  0  0
  5  6  1  0  0  0  0
  5 20  1  0  0  0  0
  6  7  1  0  0  0  0
  6 21  1  0  0  0  0
  6 22  1  0  0  0  0
  7 18  1  0  0  0  0
  7  8  2  0  0  0  0
  8  9  1  0  0  0  0
  8 23  1  0  0  0  0
  9 10  2  0  0  0  0
  9 24  1  0  0  0  0
 10 11  1  0  0  0  0
 11 12  1  0  0  0  0
 11 18  2  0  0  0  0
 12 17  1  0  0  0  0
 12 13  1  0  0  0  0
 13 14  1  0  0  0  0
 13 25  1  0  0  0  0
 13 26  1  0  0  0  0
 14 15  1  0  0  0  0
 14 27  1  0  0  0  0
 14 28  1  0  0  0  0
 15 16  1  0  0  0  0
 16 17  1  0  0  0  0
 16 29  1  0  0  0  0
 16 30  1  0  0  0  0
 17 31  1  0  0  0  0
 17 32  1  0  0  0  0
 18 33  1  0  0  0  0
M  CHG  1   1  -1
M  END
> <s_m_source_file>
AV-unprocessed.smi

> <i_m_source_file_index>
1473

> <i_lp_mmshare_version>
43012

> <i_f3d_flags>
0

> <s_epik_input>
W05IMl1TKD1PKSg9TylbTkhdW0NIMl1jMVtjSF1bY0hdbmMoW2NIXTEpTjJbQ0gyXVtDSDJdT1tDSDJdW0NIMl0y

> <s_epik_cmdline>
J2VwaWtfcHl0aG9uJywgJy1waCcsICc3LjAnLCAnLXRuJywgJzgnLCAnLW1hJywgJzIwMCcsICctbWV0YWxfYmluZGluZycsICctaW1hZScsICc8aW5maWxlLm1hZT4nLCAnLW9tYWUnLCAnPG91dGZpbGUubWFlPic=

> <r_lp_tautomer_probability>
1

> <r_epik_Ionization_Penalty>
2.7939

> <r_epik_Ionization_Penalty_Charging>
2.75358

> <r_epik_Ionization_Penalty_Neutral>
0.0403146

> <r_epik_State_Penalty>
2.98411

> <r_epik_Charging_Adjusted_Penalty>
5.73769

> <i_epik_Tot_Q>
-1

> <i_epik_Tot_abs_Q>
1

> <r_epik_Metal_State_Penalty>
0.875881

> <b_epik_Metal_Only>
1

> <s_lp_Force_Field>
OPLS_2005

> <r_lp_Energy>
15.423

> <b_lp_Chiralities_Consistent>
1

> <s_lp_Variant>
AV-unprocessed.smi:1473-5

> <Gold.Version>
5.8.1

> <Gold.Id.Protein>
6NUR|6NUR_protein|mol2

> <Gold.PLP.Fitness>
43.0149

> <Gold.PLP.PLP>
-36.7345

> <Gold.PLP.part.hbond>
-2.4576

> <Gold.PLP.part.metal>
0.0000

> <Gold.PLP.part.buried>
-0.3821

> <Gold.PLP.part.nonpolar>
-32.9141

> <Gold.PLP.part.repulsive>
0.5611

> <Gold.PLP.ligand.clash>
0.0000

> <Gold.PLP.ligand.torsion>
0.6738

> <Gold.PLP.Chemscore.Hbond>
2.1544

> <Gold.PLP.Chemscore.CHOScore>
0.0000

> <Gold.PLP.Chemscore.Metal>
0.0000

> <Gold.Chemscore.Hbonds>
donor molecule, donor type, donor heavy atom, donor atom, acceptor molecule, acceptor atom, score
      L1  H     1    19       P1 10175  1.00
      L1  H     5    20       P1  8028  1.00
      P1  H  7997  8010       L1    10  0.20

> <Gold.PLP.Chemscore.Internal.Correction>
1.1647

> <Gold.Rescore>
     Score         DG    S(hbond)    S(metal)    S(lipo)     H(rot)  DE(clash)    DE(int)     intcor
     16.17     -16.91       1.95        0.00      83.28       1.88       0.04       0.70       ----

> <Gold.Chemscore.Fitness>
16.1735

> <Gold.Chemscore.DG>
-16.9123

> <Gold.Chemscore.ZeroCoef>
-5.4800

> <Gold.Chemscore.Hbond>
1.9476

> <Gold.Chemscore.Metal>
0.0000

> <Gold.Chemscore.Lipo>
83.2797

> <Gold.Chemscore.Internal_Hbond>
0.0000

> <Gold.Chemscore.DEClash>
0.0402

> <Gold.Chemscore.DEInternal>
0.6987

> <Gold.Chemscore.Rot>
1.8814

> <Gold.Chemscore.Internal.Correction>
   9.000000E+99

> <Gold.Chemscore.Hbonds>
donor molecule, donor type, donor heavy atom, donor atom, acceptor molecule, acceptor atom, score
      L1  H     1    19       P1 10175  0.94
      L1  H     5    20       P1  8028  0.94
      P1  H  7997  8010       L1    10  0.01

> <Gold.Chemscore.Hbond.Weighted>
-6.5050

> <Gold.Chemscore.Metal.Weighted>
-0.0000

> <Gold.Chemscore.Lipo.Weighted>
-9.7437

> <Gold.Chemscore.Internal_Hbond.Weighted>
0.0000

> <Gold.Chemscore.DEClash.Weighted>
0.0402

> <Gold.Chemscore.DEInternal.Weighted>
0.6987

> <Gold.Chemscore.Rot.Weighted>
4.8165

> <Gold.Chemscore.Internal.Correction.Weighted>
   9.000000E+99

> <Gold.Protein.RotatedTorsions>
[ 6907 6896 6895 6894 ] final   49.68 input  -60.11 | X-H torsion
[ 7974 7965 7964 7962 ] final  162.72 input  175.53 | X-H torsion
[ 8008 7997 7996 7995 ] final   59.65 input   59.86 | X-H torsion
[ 10167 10162 10161 10158 ] final  -81.48 input  -65.29 | X-H torsion
[ 10718 10713 10712 10709 ] final -170.61 input   66.30 | X-H torsion
[ 10763 10752 10751 10750 ] final -100.31 input  -60.55 | X-H torsion
[ 11005 11000 10999 10996 ] final -115.21 input  -57.11 | X-H torsion

> <Gold.Protein.ActiveResidues>
 VAL166  LYS551  ARG553  GLY616  TRP617  ASP618  TYR619  PRO620  LYS621  CYS622 
 ASP623  PHE694  ASN695  SER759  ASP760  ASP761  ALA762  ILE779  LEU786  VAL792 
 PHE793  MET794  SER795  GLU796  ALA797  LYS798  CYS799  TRP800  GLU811  SER814 

> <Gold.Protein.RotatedAtoms>
  152.2934  134.7695  160.0372 H   0  0  0  0  0  0  0  0  0  0  0  0  # atno 6907 bound_to 6896
  151.8233  133.3392  159.3599 H   0  0  0  0  0  0  0  0  0  0  0  0  # atno 6908 bound_to 6896
  150.7240  134.5482  159.5826 H   0  0  0  0  0  0  0  0  0  0  0  0  # atno 6909 bound_to 6896
  144.7623  139.8080  143.6328 H   0  0  0  0  0  0  0  0  0  0  0  0  # atno 7974 bound_to 7965
  155.5696  140.3489  155.4512 H   0  0  0  0  0  0  0  0  0  0  0  0  # atno 8008 bound_to 7997
  156.0454  140.1305  157.0135 H   0  0  0  0  0  0  0  0  0  0  0  0  # atno 8009 bound_to 7997
  154.4410  140.1015  156.6283 H   0  0  0  0  0  0  0  0  0  0  0  0  # atno 8010 bound_to 7997
  140.4408  143.2515  151.8629 H   0  0  0  0  0  0  0  0  0  0  0  0  # atno 10167 bound_to 10162
  156.7288  130.9298  151.3103 H   0  0  0  0  0  0  0  0  0  0  0  0  # atno 10718 bound_to 10713
  154.7569  135.4939  153.9391 H   0  0  0  0  0  0  0  0  0  0  0  0  # atno 10763 bound_to 10752
  153.1206  135.6731  153.9350 H   0  0  0  0  0  0  0  0  0  0  0  0  # atno 10764 bound_to 10752
  153.9083  135.3102  155.3427 H   0  0  0  0  0  0  0  0  0  0  0  0  # atno 10765 bound_to 10752
  141.0502  133.9699  157.2849 H   0  0  0  0  0  0  0  0  0  0  0  0  # atno 11005 bound_to 11000
  146.1698  139.4844  142.9934 LP  0  0  0  0  0  0  0  0  0  0  0  0  # atno 17320 bound_to 7965
  145.6579  141.0247  143.1725 LP  0  0  0  0  0  0  0  0  0  0  0  0  # atno 17321 bound_to 7965
  139.4789  144.5231  151.8773 LP  0  0  0  0  0  0  0  0  0  0  0  0  # atno 17342 bound_to 10162
  140.4321  144.2102  150.5888 LP  0  0  0  0  0  0  0  0  0  0  0  0  # atno 17343 bound_to 10162
  157.6867  130.9193  150.0406 LP  0  0  0  0  0  0  0  0  0  0  0  0  # atno 17370 bound_to 10713
  156.1543  130.3643  149.9391 LP  0  0  0  0  0  0  0  0  0  0  0  0  # atno 17371 bound_to 10713
  139.9344  135.0197  156.8508 LP  0  0  0  0  0  0  0  0  0  0  0  0  # atno 17394 bound_to 11000
  140.6069  134.0119  155.7560 LP  0  0  0  0  0  0  0  0  0  0  0  0  # atno 17395 bound_to 11000

$$$$
