AV-unprocessed.smi:102|AV-procd|sdf|961|dock10
  -GOLD-   2262017503D 1   1.00000     0.00000
 Structure written by MMmdl.
 43 44  0  0  0  0  0  0  0  0  2 V2000
  144.8053  134.9683  151.2633 C   0  0  0  0  0  0  0  0  0  0  0  0
  145.6042  133.6738  151.3309 C   0  0  0  0  0  0  0  0  0  0  0  0
  145.5050  132.8123  150.4573 O   0  0  0  0  0  0  0  0  0  0  0  0
  146.3886  133.6129  152.4219 O   0  0  0  0  0  0  0  0  0  0  0  0
  147.2554  132.5053  152.6271 C   0  0  0  0  0  0  0  0  0  0  0  0
  147.9868  132.6302  153.9721 C   0  0  2  0  0  0  0  0  0  0  0  0
  148.6253  133.8979  154.0799 O   0  0  0  0  0  0  0  0  0  0  0  0
  149.6797  133.8263  154.9960 C   0  0  1  0  0  0  0  0  0  0  0  0
  149.3092  134.5897  156.2539 N   0  0  0  0  0  0  0  0  0  0  0  0
  148.0578  134.4655  156.8357 C   0  0  0  0  0  0  0  0  0  0  0  0
  147.7409  135.1387  157.9603 C   0  0  0  0  0  0  0  0  0  0  0  0
  146.5191  134.9972  158.5025 F   0  0  0  0  0  0  0  0  0  0  0  0
  148.7307  136.0169  158.5814 C   0  0  0  0  0  0  0  0  0  0  0  0
  148.4353  136.6278  159.6073 O   0  0  0  0  0  0  0  0  0  0  0  0
  149.9546  136.1200  157.9870 N   0  5  0  0  0  0  0  0  0  0  0  0
  150.2810  135.4384  156.8501 C   0  0  0  0  0  0  0  0  0  0  0  0
  151.3859  135.5130  156.3123 O   0  0  0  0  0  0  0  0  0  0  0  0
  149.9521  132.3259  155.2571 C   0  0  1  0  0  0  0  0  0  0  0  0
  149.4376  131.9269  156.5295 O   0  0  0  0  0  0  0  0  0  0  0  0
  150.1518  132.1143  157.6525 C   0  0  0  0  0  0  0  0  0  0  0  0
  149.3974  131.6696  158.8980 C   0  0  0  0  0  0  0  0  0  0  0  0
  151.2886  132.5811  157.7230 O   0  0  0  0  0  0  0  0  0  0  0  0
  149.1689  131.6787  154.1190 C   0  0  1  0  0  0  0  0  0  0  0  0
  148.7554  130.3459  154.3989 O   0  0  0  0  0  0  0  0  0  0  0  0
  149.6711  129.3776  154.5737 C   0  0  0  0  0  0  0  0  0  0  0  0
  149.0443  127.9913  154.6353 C   0  0  0  0  0  0  0  0  0  0  0  0
  150.8859  129.5399  154.6876 O   0  0  0  0  0  0  0  0  0  0  0  0
  144.1428  135.0500  152.1248 H   0  0  0  0  0  0  0  0  0  0  0  0
  144.2003  134.9971  150.3569 H   0  0  0  0  0  0  0  0  0  0  0  0
  145.4764  135.8274  151.2578 H   0  0  0  0  0  0  0  0  0  0  0  0
  146.6293  131.6130  152.6434 H   0  0  0  0  0  0  0  0  0  0  0  0
  147.9571  132.3768  151.8016 H   0  0  0  0  0  0  0  0  0  0  0  0
  147.2940  132.4902  154.8041 H   0  0  0  0  0  0  0  0  0  0  0  0
  150.5323  134.3566  154.5687 H   0  0  0  0  0  0  0  0  0  0  0  0
  147.3111  133.8218  156.3966 H   0  0  0  0  0  0  0  0  0  0  0  0
  151.0231  132.1372  155.1718 H   0  0  0  0  0  0  0  0  0  0  0  0
  148.7168  130.8505  158.6641 H   0  0  0  0  0  0  0  0  0  0  0  0
  148.8152  132.4995  159.2987 H   0  0  0  0  0  0  0  0  0  0  0  0
  150.0941  131.3313  159.6652 H   0  0  0  0  0  0  0  0  0  0  0  0
  149.7590  131.7188  153.2017 H   0  0  0  0  0  0  0  0  0  0  0  0
  148.3924  127.8297  153.7766 H   0  0  0  0  0  0  0  0  0  0  0  0
  148.4537  127.8858  155.5454 H   0  0  0  0  0  0  0  0  0  0  0  0
  149.8162  127.2214  154.6329 H   0  0  0  0  0  0  0  0  0  0  0  0
  1  2  1  0  0  0  0
  1 28  1  0  0  0  0
  1 29  1  0  0  0  0
  1 30  1  0  0  0  0
  2  3  2  0  0  0  0
  2  4  1  0  0  0  0
  4  5  1  0  0  0  0
  5  6  1  0  0  0  0
  5 31  1  0  0  0  0
  5 32  1  0  0  0  0
  6 23  1  0  0  0  0
  6  7  1  0  0  0  0
  6 33  1  0  0  0  0
  7  8  1  0  0  0  0
  8  9  1  0  0  0  0
  8 18  1  0  0  0  0
  8 34  1  0  0  0  0
  9 16  1  0  0  0  0
  9 10  1  0  0  0  0
 10 11  2  0  0  0  0
 10 35  1  0  0  0  0
 11 12  1  0  0  0  0
 11 13  1  0  0  0  0
 13 14  2  0  0  0  0
 13 15  1  0  0  0  0
 15 16  1  0  0  0  0
 16 17  2  0  0  0  0
 18 19  1  0  0  0  0
 18 23  1  0  0  0  0
 18 36  1  0  0  0  0
 19 20  1  0  0  0  0
 20 21  1  0  0  0  0
 20 22  2  0  0  0  0
 21 37  1  0  0  0  0
 21 38  1  0  0  0  0
 21 39  1  0  0  0  0
 23 24  1  0  0  0  0
 23 40  1  0  0  0  0
 24 25  1  0  0  0  0
 25 26  1  0  0  0  0
 25 27  2  0  0  0  0
 26 41  1  0  0  0  0
 26 42  1  0  0  0  0
 26 43  1  0  0  0  0
M  CHG  1  15  -1
M  END
> <s_m_source_file>
AV-unprocessed.smi

> <i_m_source_file_index>
102

> <i_lp_mmshare_version>
43012

> <i_f3d_flags>
0

> <s_epik_input>
W0NIM11DKD1PKU9bQ0gyXVtDQEBIXTFPW0NASF0oW0NAQEhdKE9DKD1PKVtDSDNdKVtDQEhdMU9DKD1PKVtDSDNdKW4yW2NIXWMoRiljKD1PKVtuSF1jMj1P

> <s_epik_cmdline>
J2VwaWtfcHl0aG9uJywgJy1waCcsICc3LjAnLCAnLXRuJywgJzgnLCAnLW1hJywgJzIwMCcsICctbWV0YWxfYmluZGluZycsICctaW1hZScsICc8aW5maWxlLm1hZT4nLCAnLW9tYWUnLCAnPG91dGZpbGUubWFlPic=

> <r_epik_Ionization_Penalty>
1.40304

> <r_epik_Ionization_Penalty_Charging>
1.43915e-08

> <r_epik_Ionization_Penalty_Neutral>
1.40304

> <r_epik_State_Penalty>
1.48536

> <r_epik_Charging_Adjusted_Penalty>
1.48536

> <i_epik_Tot_Q>
-1

> <i_epik_Tot_abs_Q>
1

> <r_epik_Metal_State_Penalty>
0.00663881

> <b_epik_Metal_Only>
0

> <s_epik_Chemistry_Notes>
This compound has an ester and may undergo hydrolysis at high or low pH. This compound contains an acetal/aminal-like group ( X-CH(R)-Y where X, Y are N, S, or O) that may be acid/base labile, releasing an aldehyde.

> <s_lp_Force_Field>
OPLS_2005

> <r_lp_Energy>
23.8996

> <b_lp_Chiralities_Consistent>
1

> <s_lp_Variant>
AV-unprocessed.smi:102-17

> <Gold.Version>
5.8.1

> <Gold.Id.Protein>
6NUR|6NUR_protein|mol2

> <Gold.PLP.Fitness>
36.2364

> <Gold.PLP.PLP>
-28.5453

> <Gold.PLP.part.hbond>
-2.9120

> <Gold.PLP.part.metal>
0.0000

> <Gold.PLP.part.buried>
-6.0872

> <Gold.PLP.part.nonpolar>
-22.5848

> <Gold.PLP.part.repulsive>
2.1391

> <Gold.PLP.ligand.clash>
0.0000

> <Gold.PLP.ligand.torsion>
0.7695

> <Gold.PLP.Chemscore.Hbond>
2.8358

> <Gold.PLP.Chemscore.CHOScore>
0.0000

> <Gold.PLP.Chemscore.Metal>
0.0000

> <Gold.Chemscore.Hbonds>
donor molecule, donor type, donor heavy atom, donor atom, acceptor molecule, acceptor atom, score
      P1  H  6896  6907       L1    15  0.31
      P1  H  6896  6909       L1    22  1.00
      P1  H 10752 10764       L1    17  0.67

> <Gold.PLP.Chemscore.Internal.Correction>
0.7226

> <Gold.Rescore>
     Score         DG    S(hbond)    S(metal)    S(lipo)     H(rot)  DE(clash)    DE(int)     intcor
      2.66      -5.78       1.94        0.00      34.47       4.00       0.14       2.99       ----

> <Gold.Chemscore.Fitness>
2.6562

> <Gold.Chemscore.DG>
-5.7765

> <Gold.Chemscore.ZeroCoef>
-5.4800

> <Gold.Chemscore.Hbond>
1.9432

> <Gold.Chemscore.Metal>
0.0000

> <Gold.Chemscore.Lipo>
34.4746

> <Gold.Chemscore.Internal_Hbond>
0.0000

> <Gold.Chemscore.DEClash>
0.1353

> <Gold.Chemscore.DEInternal>
2.9851

> <Gold.Chemscore.Rot>
3.9951

> <Gold.Chemscore.Internal.Correction>
   9.000000E+99

> <Gold.Chemscore.Hbonds>
donor molecule, donor type, donor heavy atom, donor atom, acceptor molecule, acceptor atom, score
      P1  H  6896  6909       L1    22  0.65
      P1  H 10752 10764       L1    17  0.67

> <Gold.Chemscore.Hbond.Weighted>
-6.4904

> <Gold.Chemscore.Metal.Weighted>
-0.0000

> <Gold.Chemscore.Lipo.Weighted>
-4.0335

> <Gold.Chemscore.Internal_Hbond.Weighted>
0.0000

> <Gold.Chemscore.DEClash.Weighted>
0.1353

> <Gold.Chemscore.DEInternal.Weighted>
2.9851

> <Gold.Chemscore.Rot.Weighted>
10.2274

> <Gold.Chemscore.Internal.Correction.Weighted>
   9.000000E+99

> <Gold.Protein.RotatedTorsions>
[ 6907 6896 6895 6894 ] final  -46.65 input  -60.11 | X-H torsion
[ 7974 7965 7964 7962 ] final  -54.52 input  175.53 | X-H torsion
[ 8008 7997 7996 7995 ] final  -46.45 input   59.86 | X-H torsion
[ 10167 10162 10161 10158 ] final -164.13 input  -65.29 | X-H torsion
[ 10718 10713 10712 10709 ] final   70.74 input   66.30 | X-H torsion
[ 10763 10752 10751 10750 ] final  -24.69 input  -60.55 | X-H torsion
[ 11005 11000 10999 10996 ] final   12.98 input  -57.11 | X-H torsion

> <Gold.Protein.ActiveResidues>
 VAL166  LYS551  ARG553  GLY616  TRP617  ASP618  TYR619  PRO620  LYS621  CYS622 
 ASP623  PHE694  ASN695  SER759  ASP760  ASP761  ALA762  ILE779  LEU786  VAL792 
 PHE793  MET794  SER795  GLU796  ALA797  LYS798  CYS799  TRP800  GLU811  SER814 

> <Gold.Protein.RotatedAtoms>
  150.9090  134.8506  159.7411 H   0  0  0  0  0  0  0  0  0  0  0  0  # atno 6907 bound_to 6896
  152.4934  134.4388  159.9546 H   0  0  0  0  0  0  0  0  0  0  0  0  # atno 6908 bound_to 6896
  151.4432  133.3598  159.2820 H   0  0  0  0  0  0  0  0  0  0  0  0  # atno 6909 bound_to 6896
  145.8846  140.8118  142.9822 H   0  0  0  0  0  0  0  0  0  0  0  0  # atno 7974 bound_to 7965
  154.4007  140.1371  156.4013 H   0  0  0  0  0  0  0  0  0  0  0  0  # atno 8008 bound_to 7997
  155.7821  140.3481  155.5283 H   0  0  0  0  0  0  0  0  0  0  0  0  # atno 8009 bound_to 7997
  155.8663  140.0964  157.1570 H   0  0  0  0  0  0  0  0  0  0  0  0  # atno 8010 bound_to 7997
  139.6272  144.0510  152.1985 H   0  0  0  0  0  0  0  0  0  0  0  0  # atno 10167 bound_to 10162
  157.6415  130.9492  150.0692 H   0  0  0  0  0  0  0  0  0  0  0  0  # atno 10718 bound_to 10713
  153.6878  135.6963  153.5099 H   0  0  0  0  0  0  0  0  0  0  0  0  # atno 10763 bound_to 10752
  153.2436  135.4298  155.0723 H   0  0  0  0  0  0  0  0  0  0  0  0  # atno 10764 bound_to 10752
  154.8381  135.3514  154.6420 H   0  0  0  0  0  0  0  0  0  0  0  0  # atno 10765 bound_to 10752
  140.4859  134.0888  155.7761 H   0  0  0  0  0  0  0  0  0  0  0  0  # atno 11005 bound_to 11000
  144.6728  140.1437  143.7435 LP  0  0  0  0  0  0  0  0  0  0  0  0  # atno 17320 bound_to 7965
  145.8982  139.2415  143.1509 LP  0  0  0  0  0  0  0  0  0  0  0  0  # atno 17321 bound_to 7965
  140.0166  144.6184  150.7602 LP  0  0  0  0  0  0  0  0  0  0  0  0  # atno 17342 bound_to 10162
  140.7418  143.2823  151.3564 LP  0  0  0  0  0  0  0  0  0  0  0  0  # atno 17343 bound_to 10162
  156.1701  130.3646  149.9177 LP  0  0  0  0  0  0  0  0  0  0  0  0  # atno 17370 bound_to 10713
  156.7154  130.8986  151.3613 LP  0  0  0  0  0  0  0  0  0  0  0  0  # atno 17371 bound_to 10713
  141.1508  133.8972  157.2102 LP  0  0  0  0  0  0  0  0  0  0  0  0  # atno 17394 bound_to 11000
  139.9798  135.0102  156.9721 LP  0  0  0  0  0  0  0  0  0  0  0  0  # atno 17395 bound_to 11000

$$$$
