AV-unprocessed.smi:3283|AV-procd|sdf|12570|dock6
  -GOLD-   2272018493D 1   1.00000     0.00000
 Structure written by MMmdl.
 44 45  0  0  0  0  0  0  0  0  2 V2000
  152.2851  139.3867  158.1850 C   0  0  0  0  0  0  0  0  0  0  0  0
  152.3616  140.7576  158.8358 C   0  0  0  0  0  0  0  0  0  0  0  0
  152.9312  140.8897  160.0491 C   0  0  0  0  0  0  0  0  0  0  0  0
  153.1318  142.2095  160.7570 C   0  0  0  0  0  0  0  0  0  0  0  0
  153.0919  143.3752  159.7663 C   0  0  0  0  0  0  0  0  0  0  0  0
  151.8564  143.2954  158.8547 C   0  0  1  0  0  0  0  0  0  0  0  0
  151.8142  144.5363  157.9414 C   0  0  0  0  0  0  0  0  0  0  0  0
  151.7974  141.9597  158.0503 C   0  0  2  0  0  0  0  0  0  0  0  0
  150.3553  141.7145  157.5319 C   0  0  0  0  0  0  0  0  0  0  0  0
  150.0950  142.3662  156.2325 N   0  3  0  0  0  0  0  0  0  0  0  0
  149.5456  141.4654  155.2000 C   0  0  0  0  0  0  0  0  0  0  0  0
  148.1323  140.9835  155.5612 C   0  0  0  0  0  0  0  0  0  0  0  0
  147.0499  141.9377  155.1568 C   0  0  0  0  0  0  0  0  0  0  0  0
  146.7441  142.4304  153.9187 C   0  0  0  0  0  0  0  0  0  0  0  0
  145.6187  143.2690  154.1453 C   0  0  0  0  0  0  0  0  0  0  0  0
  145.2544  143.2937  155.4152 N   0  0  0  0  0  0  0  0  0  0  0  0
  146.1337  142.4833  156.0416 N   0  0  0  0  0  0  0  0  0  0  0  0
  146.0098  142.2926  157.4750 C   0  0  0  0  0  0  0  0  0  0  0  0
  152.6935  139.4213  157.1752 H   0  0  0  0  0  0  0  0  0  0  0  0
  151.2563  139.0303  158.1419 H   0  0  0  0  0  0  0  0  0  0  0  0
  152.8599  138.6493  158.7462 H   0  0  0  0  0  0  0  0  0  0  0  0
  153.2937  140.0173  160.5734 H   0  0  0  0  0  0  0  0  0  0  0  0
  152.3593  142.3188  161.5187 H   0  0  0  0  0  0  0  0  0  0  0  0
  154.0925  142.1972  161.2726 H   0  0  0  0  0  0  0  0  0  0  0  0
  153.1011  144.3170  160.3162 H   0  0  0  0  0  0  0  0  0  0  0  0
  153.9968  143.3653  159.1566 H   0  0  0  0  0  0  0  0  0  0  0  0
  150.9822  143.3353  159.5071 H   0  0  0  0  0  0  0  0  0  0  0  0
  152.6617  144.5499  157.2553 H   0  0  0  0  0  0  0  0  0  0  0  0
  151.8553  145.4538  158.5292 H   0  0  0  0  0  0  0  0  0  0  0  0
  150.9052  144.5854  157.3444 H   0  0  0  0  0  0  0  0  0  0  0  0
  152.4556  142.0756  157.1877 H   0  0  0  0  0  0  0  0  0  0  0  0
  150.1705  140.6424  157.4493 H   0  0  0  0  0  0  0  0  0  0  0  0
  149.6151  142.0988  158.2318 H   0  0  0  0  0  0  0  0  0  0  0  0
  149.4419  143.1231  156.3789 H   0  0  0  0  0  0  0  0  0  0  0  0
  149.5185  141.9949  154.2467 H   0  0  0  0  0  0  0  0  0  0  0  0
  150.2102  140.6096  155.0727 H   0  0  0  0  0  0  0  0  0  0  0  0
  147.9579  139.9999  155.1250 H   0  0  0  0  0  0  0  0  0  0  0  0
  148.0800  140.8341  156.6402 H   0  0  0  0  0  0  0  0  0  0  0  0
  147.2489  142.2205  152.9872 H   0  0  0  0  0  0  0  0  0  0  0  0
  145.0586  143.8535  153.4302 H   0  0  0  0  0  0  0  0  0  0  0  0
  146.9860  142.3828  157.9513 H   0  0  0  0  0  0  0  0  0  0  0  0
  145.5974  141.3054  157.6795 H   0  0  0  0  0  0  0  0  0  0  0  0
  145.3466  143.0445  157.9054 H   0  0  0  0  0  0  0  0  0  0  0  0
  150.9638  142.7515  155.8909 H   0  0  0  0  0  0  0  0  0  0  0  0
  1  2  1  0  0  0  0
  1 19  1  0  0  0  0
  1 20  1  0  0  0  0
  1 21  1  0  0  0  0
  2  8  1  0  0  0  0
  2  3  2  0  0  0  0
  3  4  1  0  0  0  0
  3 22  1  0  0  0  0
  4  5  1  0  0  0  0
  4 23  1  0  0  0  0
  4 24  1  0  0  0  0
  5  6  1  0  0  0  0
  5 25  1  0  0  0  0
  5 26  1  0  0  0  0
  6  7  1  0  0  0  0
  6  8  1  0  0  0  0
  6 27  1  0  0  0  0
  7 28  1  0  0  0  0
  7 29  1  0  0  0  0
  7 30  1  0  0  0  0
  8  9  1  0  0  0  0
  8 31  1  0  0  0  0
  9 10  1  0  0  0  0
  9 32  1  0  0  0  0
  9 33  1  0  0  0  0
 10 11  1  0  0  0  0
 10 34  1  0  0  0  0
 10 44  1  0  0  0  0
 11 12  1  0  0  0  0
 11 35  1  0  0  0  0
 11 36  1  0  0  0  0
 12 13  1  0  0  0  0
 12 37  1  0  0  0  0
 12 38  1  0  0  0  0
 13 17  1  0  0  0  0
 13 14  2  0  0  0  0
 14 15  1  0  0  0  0
 14 39  1  0  0  0  0
 15 16  2  0  0  0  0
 15 40  1  0  0  0  0
 16 17  1  0  0  0  0
 17 18  1  0  0  0  0
 18 41  1  0  0  0  0
 18 42  1  0  0  0  0
 18 43  1  0  0  0  0
M  CHG  1  10   1
M  END
> <s_m_source_file>
AV-unprocessed.smi

> <i_m_source_file_index>
3283

> <i_lp_mmshare_version>
43012

> <i_f3d_flags>
0

> <s_epik_input>
W0NIM11DMT1bQ0hdW0NIMl1bQ0gyXVtDQEBIXShbQ0gzXSlbQ0BIXTFbQ0gyXVtOSF1bQ0gyXVtDSDJdYzJbY0hdW2NIXW5uMltDSDNd

> <s_epik_cmdline>
J2VwaWtfcHl0aG9uJywgJy1waCcsICc3LjAnLCAnLXRuJywgJzgnLCAnLW1hJywgJzIwMCcsICctbWV0YWxfYmluZGluZycsICctaW1hZScsICc8aW5maWxlLm1hZT4nLCAnLW9tYWUnLCAnPG91dGZpbGUubWFlPic=

> <r_lp_tautomer_probability>
1

> <r_epik_Ionization_Penalty>
0.000866911

> <r_epik_Ionization_Penalty_Charging>
0.000836385

> <r_epik_Ionization_Penalty_Neutral>
3.05258e-05

> <r_epik_State_Penalty>
-0

> <r_epik_Charging_Adjusted_Penalty>
0.000836385

> <i_epik_Tot_Q>
1

> <i_epik_Tot_abs_Q>
1

> <r_epik_Metal_State_Penalty>
-0

> <b_epik_Metal_Only>
0

> <s_lp_Force_Field>
OPLS_2005

> <r_lp_Energy>
14.6104

> <b_lp_Chiralities_Consistent>
1

> <s_lp_Variant>
AV-unprocessed.smi:3283-3

> <Gold.Version>
5.8.1

> <Gold.Id.Protein>
6NUR|6NUR_protein|mol2

> <Gold.PLP.Fitness>
46.6383

> <Gold.PLP.PLP>
-42.3687

> <Gold.PLP.part.hbond>
-1.0000

> <Gold.PLP.part.metal>
0.0000

> <Gold.PLP.part.buried>
-6.9209

> <Gold.PLP.part.nonpolar>
-35.3115

> <Gold.PLP.part.repulsive>
0.3002

> <Gold.PLP.ligand.clash>
0.0000

> <Gold.PLP.ligand.torsion>
0.8915

> <Gold.PLP.Chemscore.Hbond>
2.0000

> <Gold.PLP.Chemscore.CHOScore>
0.0000

> <Gold.PLP.Chemscore.Metal>
0.0000

> <Gold.Chemscore.Hbonds>
donor molecule, donor type, donor heavy atom, donor atom, acceptor molecule, acceptor atom, score
      L1  H    10    34       P1  8028  1.70

> <Gold.PLP.Chemscore.Internal.Correction>
0.0527

> <Gold.Rescore>
     Score         DG    S(hbond)    S(metal)    S(lipo)     H(rot)  DE(clash)    DE(int)     intcor
     17.42     -18.70       0.98        0.00     117.66       1.48       0.19       1.10       ----

> <Gold.Chemscore.Fitness>
17.4161

> <Gold.Chemscore.DG>
-18.7031

> <Gold.Chemscore.ZeroCoef>
-5.4800

> <Gold.Chemscore.Hbond>
0.9755

> <Gold.Chemscore.Metal>
0.0000

> <Gold.Chemscore.Lipo>
117.6562

> <Gold.Chemscore.Internal_Hbond>
0.0000

> <Gold.Chemscore.DEClash>
0.1906

> <Gold.Chemscore.DEInternal>
1.0964

> <Gold.Chemscore.Rot>
1.4847

> <Gold.Chemscore.Internal.Correction>
   9.000000E+99

> <Gold.Chemscore.Hbonds>
donor molecule, donor type, donor heavy atom, donor atom, acceptor molecule, acceptor atom, score
      L1  H    10    34       P1  8028  0.83

> <Gold.Chemscore.Hbond.Weighted>
-3.2581

> <Gold.Chemscore.Metal.Weighted>
-0.0000

> <Gold.Chemscore.Lipo.Weighted>
-13.7658

> <Gold.Chemscore.Internal_Hbond.Weighted>
0.0000

> <Gold.Chemscore.DEClash.Weighted>
0.1906

> <Gold.Chemscore.DEInternal.Weighted>
1.0964

> <Gold.Chemscore.Rot.Weighted>
3.8008

> <Gold.Chemscore.Internal.Correction.Weighted>
   9.000000E+99

> <Gold.Protein.RotatedTorsions>
[ 6907 6896 6895 6894 ] final -147.24 input  -60.11 | X-H torsion
[ 7974 7965 7964 7962 ] final   66.30 input  175.53 | X-H torsion
[ 8008 7997 7996 7995 ] final   54.92 input   59.86 | X-H torsion
[ 10167 10162 10161 10158 ] final    5.18 input  -65.29 | X-H torsion
[ 10718 10713 10712 10709 ] final -144.71 input   66.30 | X-H torsion
[ 10763 10752 10751 10750 ] final  153.86 input  -60.55 | X-H torsion
[ 11005 11000 10999 10996 ] final  -96.50 input  -57.11 | X-H torsion

> <Gold.Protein.ActiveResidues>
 VAL166  LYS551  ARG553  GLY616  TRP617  ASP618  TYR619  PRO620  LYS621  CYS622 
 ASP623  PHE694  ASN695  SER759  ASP760  ASP761  ALA762  ILE779  LEU786  VAL792 
 PHE793  MET794  SER795  GLU796  ALA797  LYS798  CYS799  TRP800  GLU811  SER814 

> <Gold.Protein.RotatedAtoms>
  151.1529  133.4896  159.2594 H   0  0  0  0  0  0  0  0  0  0  0  0  # atno 6907 bound_to 6896
  151.1535  135.0238  159.8689 H   0  0  0  0  0  0  0  0  0  0  0  0  # atno 6908 bound_to 6896
  152.5463  134.1410  159.8532 H   0  0  0  0  0  0  0  0  0  0  0  0  # atno 6909 bound_to 6896
  145.8283  139.3124  143.1003 H   0  0  0  0  0  0  0  0  0  0  0  0  # atno 7974 bound_to 7965
  155.4926  140.3472  155.4357 H   0  0  0  0  0  0  0  0  0  0  0  0  # atno 8008 bound_to 7997
  156.0967  140.1424  156.9550 H   0  0  0  0  0  0  0  0  0  0  0  0  # atno 8009 bound_to 7997
  154.4668  140.0915  156.7018 H   0  0  0  0  0  0  0  0  0  0  0  0  # atno 8010 bound_to 7997
  140.6496  143.7578  150.7553 H   0  0  0  0  0  0  0  0  0  0  0  0  # atno 10167 bound_to 10162
  156.3735  130.7800  151.1984 H   0  0  0  0  0  0  0  0  0  0  0  0  # atno 10718 bound_to 10713
  154.1431  135.2819  155.3155 H   0  0  0  0  0  0  0  0  0  0  0  0  # atno 10763 bound_to 10752
  154.6273  135.5447  153.7644 H   0  0  0  0  0  0  0  0  0  0  0  0  # atno 10764 bound_to 10752
  153.0244  135.6454  154.1577 H   0  0  0  0  0  0  0  0  0  0  0  0  # atno 10765 bound_to 10752
  141.1409  133.8102  157.0580 H   0  0  0  0  0  0  0  0  0  0  0  0  # atno 11005 bound_to 11000
  145.9599  140.8843  143.0216 LP  0  0  0  0  0  0  0  0  0  0  0  0  # atno 17320 bound_to 7965
  144.6742  140.1798  143.7407 LP  0  0  0  0  0  0  0  0  0  0  0  0  # atno 17321 bound_to 7965
  140.1226  143.4598  152.2304 LP  0  0  0  0  0  0  0  0  0  0  0  0  # atno 17342 bound_to 10162
  139.5709  144.7462  151.3893 LP  0  0  0  0  0  0  0  0  0  0  0  0  # atno 17343 bound_to 10162
  157.7486  131.0365  150.4413 LP  0  0  0  0  0  0  0  0  0  0  0  0  # atno 17370 bound_to 10713
  156.4644  130.4039  149.6556 LP  0  0  0  0  0  0  0  0  0  0  0  0  # atno 17371 bound_to 10713
  140.0589  134.9765  157.1270 LP  0  0  0  0  0  0  0  0  0  0  0  0  # atno 17394 bound_to 11000
  140.3877  134.2218  155.7167 LP  0  0  0  0  0  0  0  0  0  0  0  0  # atno 17395 bound_to 11000

$$$$
