AV-unprocessed.smi:2090|AV-procd|sdf|8532|dock10
  -GOLD-   2272011253D 1   1.00000     0.00000
 Structure written by MMmdl.
 42 43  0  0  0  0  0  0  0  0  2 V2000
  138.1827  136.9411  154.2389 C   0  0  0  0  0  0  0  0  0  0  0  0
  139.6446  136.9558  153.9505 C   0  0  0  0  0  0  0  0  0  0  0  0
  140.4902  137.9204  153.4796 C   0  0  0  0  0  0  0  0  0  0  0  0
  141.7465  137.2587  153.4540 C   0  0  0  0  0  0  0  0  0  0  0  0
  142.9171  137.9350  153.0259 N   0  0  0  0  0  0  0  0  0  0  0  0
  144.1245  137.4002  152.7769 C   0  0  0  0  0  0  0  0  0  0  0  0
  144.4002  136.2022  152.8509 O   0  0  0  0  0  0  0  0  0  0  0  0
  145.0176  138.3412  152.4373 N   0  0  0  0  0  0  0  0  0  0  0  0
  146.4186  138.0820  152.1258 C   0  0  0  0  0  0  0  0  0  0  0  0
  147.3582  138.8962  153.0367 C   0  0  0  0  0  0  0  0  0  0  0  0
  148.4002  138.0543  153.6763 N   0  3  2  0  0  0  0  0  0  0  0  0
  147.8491  137.2254  154.7796 C   0  0  0  0  0  0  0  0  0  0  0  0
  148.9100  136.2609  155.3353 C   0  0  0  0  0  0  0  0  0  0  0  0
  150.1578  137.0211  155.8137 C   0  0  1  0  0  0  0  0  0  0  0  0
  151.2354  136.0676  156.3483 C   0  0  0  0  0  0  0  0  0  0  0  0
  150.6874  137.8945  154.6642 C   0  0  0  0  0  0  0  0  0  0  0  0
  149.5918  138.8263  154.1194 C   0  0  0  0  0  0  0  0  0  0  0  0
  141.6738  136.0026  153.8672 N   0  0  0  0  0  0  0  0  0  0  0  0
  140.3259  135.8017  154.1868 O   0  0  0  0  0  0  0  0  0  0  0  0
  137.7690  137.9490  154.2054 H   0  0  0  0  0  0  0  0  0  0  0  0
  137.9875  136.5289  155.2291 H   0  0  0  0  0  0  0  0  0  0  0  0
  137.6513  136.3325  153.5074 H   0  0  0  0  0  0  0  0  0  0  0  0
  140.2463  138.9356  153.2034 H   0  0  0  0  0  0  0  0  0  0  0  0
  142.8298  138.9345  152.9173 H   0  0  0  0  0  0  0  0  0  0  0  0
  144.7086  139.3016  152.3949 H   0  0  0  0  0  0  0  0  0  0  0  0
  146.6277  137.0146  152.2162 H   0  0  0  0  0  0  0  0  0  0  0  0
  146.5694  138.3410  151.0786 H   0  0  0  0  0  0  0  0  0  0  0  0
  147.8272  139.7107  152.4821 H   0  0  0  0  0  0  0  0  0  0  0  0
  146.7579  139.3641  153.8184 H   0  0  0  0  0  0  0  0  0  0  0  0
  147.4760  137.8747  155.5733 H   0  0  0  0  0  0  0  0  0  0  0  0
  146.9985  136.6462  154.4180 H   0  0  0  0  0  0  0  0  0  0  0  0
  148.4853  135.6838  156.1575 H   0  0  0  0  0  0  0  0  0  0  0  0
  149.1867  135.5405  154.5640 H   0  0  0  0  0  0  0  0  0  0  0  0
  149.8621  137.6789  156.6323 H   0  0  0  0  0  0  0  0  0  0  0  0
  151.5801  135.3813  155.5741 H   0  0  0  0  0  0  0  0  0  0  0  0
  150.8544  135.4699  157.1769 H   0  0  0  0  0  0  0  0  0  0  0  0
  152.1017  136.6207  156.7129 H   0  0  0  0  0  0  0  0  0  0  0  0
  151.5360  138.4878  155.0067 H   0  0  0  0  0  0  0  0  0  0  0  0
  151.0597  137.2608  153.8579 H   0  0  0  0  0  0  0  0  0  0  0  0
  150.0027  139.4016  153.2908 H   0  0  0  0  0  0  0  0  0  0  0  0
  149.2965  139.5449  154.8856 H   0  0  0  0  0  0  0  0  0  0  0  0
  148.7140  137.4045  152.9693 H   0  0  0  0  0  0  0  0  0  0  0  0
  1  2  1  0  0  0  0
  1 20  1  0  0  0  0
  1 21  1  0  0  0  0
  1 22  1  0  0  0  0
  2 19  1  0  0  0  0
  2  3  2  0  0  0  0
  3  4  1  0  0  0  0
  3 23  1  0  0  0  0
  4  5  1  0  0  0  0
  4 18  2  0  0  0  0
  5  6  1  0  0  0  0
  5 24  1  0  0  0  0
  6  7  2  0  0  0  0
  6  8  1  0  0  0  0
  8  9  1  0  0  0  0
  8 25  1  0  0  0  0
  9 10  1  0  0  0  0
  9 26  1  0  0  0  0
  9 27  1  0  0  0  0
 10 11  1  0  0  0  0
 10 28  1  0  0  0  0
 10 29  1  0  0  0  0
 11 17  1  0  0  0  0
 11 12  1  0  0  0  0
 11 42  1  0  0  0  0
 12 13  1  0  0  0  0
 12 30  1  0  0  0  0
 12 31  1  0  0  0  0
 13 14  1  0  0  0  0
 13 32  1  0  0  0  0
 13 33  1  0  0  0  0
 14 15  1  0  0  0  0
 14 16  1  0  0  0  0
 14 34  1  0  0  0  0
 15 35  1  0  0  0  0
 15 36  1  0  0  0  0
 15 37  1  0  0  0  0
 16 17  1  0  0  0  0
 16 38  1  0  0  0  0
 16 39  1  0  0  0  0
 17 40  1  0  0  0  0
 17 41  1  0  0  0  0
 18 19  1  0  0  0  0
M  CHG  1  11   1
M  END
> <s_m_source_file>
AV-unprocessed.smi

> <i_m_source_file_index>
2090

> <i_lp_mmshare_version>
43012

> <i_f3d_flags>
0

> <s_epik_input>
W0NIM11jMVtjSF1jKG5vMSlbTkhdQyg9TylbTkhdW0NIMl1bQ0gyXU4yW0NIMl1bQ0gyXVtDSF0oW0NIM10pW0NIMl1bQ0gyXTI=

> <s_epik_cmdline>
J2VwaWtfcHl0aG9uJywgJy1waCcsICc3LjAnLCAnLXRuJywgJzgnLCAnLW1hJywgJzIwMCcsICctbWV0YWxfYmluZGluZycsICctaW1hZScsICc8aW5maWxlLm1hZT4nLCAnLW9tYWUnLCAnPG91dGZpbGUubWFlPic=

> <r_epik_Ionization_Penalty>
0.00176265

> <r_epik_Ionization_Penalty_Charging>
0.00172695

> <r_epik_Ionization_Penalty_Neutral>
3.56992e-05

> <r_epik_State_Penalty>
0.00116803

> <r_epik_Charging_Adjusted_Penalty>
0.00289498

> <i_epik_Tot_Q>
1

> <i_epik_Tot_abs_Q>
1

> <r_epik_Metal_State_Penalty>
0.0215312

> <b_epik_Metal_Only>
0

> <s_lp_Force_Field>
OPLS_2005

> <r_lp_Energy>
12.7246

> <b_lp_Chiralities_Consistent>
1

> <s_lp_Variant>
AV-unprocessed.smi:2090-1

> <Gold.Version>
5.8.1

> <Gold.Id.Protein>
6NUR|6NUR_protein|mol2

> <Gold.PLP.Fitness>
43.3939

> <Gold.PLP.PLP>
-29.6307

> <Gold.PLP.part.hbond>
-4.8444

> <Gold.PLP.part.metal>
0.0000

> <Gold.PLP.part.buried>
-1.3531

> <Gold.PLP.part.nonpolar>
-23.2427

> <Gold.PLP.part.repulsive>
0.3432

> <Gold.PLP.ligand.clash>
0.0000

> <Gold.PLP.ligand.torsion>
0.5460

> <Gold.PLP.Chemscore.Hbond>
4.9440

> <Gold.PLP.Chemscore.CHOScore>
0.0000

> <Gold.PLP.Chemscore.Metal>
0.0000

> <Gold.Chemscore.Hbonds>
donor molecule, donor type, donor heavy atom, donor atom, acceptor molecule, acceptor atom, score
      L1  H     5    24       P1 10175  0.94
      L1  H     8    25       P1 10175  1.00
      L1  H    11    42       P1  7948  2.00
      P1  H 11000 11005       L1    19  0.89

> <Gold.PLP.Chemscore.Internal.Correction>
0.0232

> <Gold.Rescore>
     Score         DG    S(hbond)    S(metal)    S(lipo)     H(rot)  DE(clash)    DE(int)     intcor
     19.38     -21.74       3.83        0.00      64.06       1.57       0.61       1.74       ----

> <Gold.Chemscore.Fitness>
19.3815

> <Gold.Chemscore.DG>
-21.7365

> <Gold.Chemscore.ZeroCoef>
-5.4800

> <Gold.Chemscore.Hbond>
3.8265

> <Gold.Chemscore.Metal>
0.0000

> <Gold.Chemscore.Lipo>
64.0554

> <Gold.Chemscore.Internal_Hbond>
0.0000

> <Gold.Chemscore.DEClash>
0.6130

> <Gold.Chemscore.DEInternal>
1.7420

> <Gold.Chemscore.Rot>
1.5697

> <Gold.Chemscore.Internal.Correction>
   9.000000E+99

> <Gold.Chemscore.Hbonds>
donor molecule, donor type, donor heavy atom, donor atom, acceptor molecule, acceptor atom, score
      L1  H     5    24       P1 10175  0.91
      L1  H     8    25       P1 10175  0.93
      L1  H    11    42       P1  7948  0.99
      P1  H 11000 11005       L1    19  0.71

> <Gold.Chemscore.Hbond.Weighted>
-12.7805

> <Gold.Chemscore.Metal.Weighted>
-0.0000

> <Gold.Chemscore.Lipo.Weighted>
-7.4945

> <Gold.Chemscore.Internal_Hbond.Weighted>
0.0000

> <Gold.Chemscore.DEClash.Weighted>
0.6130

> <Gold.Chemscore.DEInternal.Weighted>
1.7420

> <Gold.Chemscore.Rot.Weighted>
4.0185

> <Gold.Chemscore.Internal.Correction.Weighted>
   9.000000E+99

> <Gold.Protein.RotatedTorsions>
[ 6907 6896 6895 6894 ] final   -4.76 input  -60.11 | X-H torsion
[ 7974 7965 7964 7962 ] final  -48.73 input  175.53 | X-H torsion
[ 8008 7997 7996 7995 ] final -139.00 input   59.86 | X-H torsion
[ 10167 10162 10161 10158 ] final   57.09 input  -65.29 | X-H torsion
[ 10718 10713 10712 10709 ] final -132.35 input   66.30 | X-H torsion
[ 10763 10752 10751 10750 ] final   59.60 input  -60.55 | X-H torsion
[ 11005 11000 10999 10996 ] final   52.03 input  -57.11 | X-H torsion

> <Gold.Protein.ActiveResidues>
 VAL166  LYS551  ARG553  GLY616  TRP617  ASP618  TYR619  PRO620  LYS621  CYS622 
 ASP623  PHE694  ASN695  SER759  ASP760  ASP761  ALA762  ILE779  LEU786  VAL792 
 PHE793  MET794  SER795  GLU796  ALA797  LYS798  CYS799  TRP800  GLU811  SER814 

> <Gold.Protein.RotatedAtoms>
  151.4924  135.1058  159.9806 H   0  0  0  0  0  0  0  0  0  0  0  0  # atno 6907 bound_to 6896
  152.4735  133.8081  159.6999 H   0  0  0  0  0  0  0  0  0  0  0  0  # atno 6908 bound_to 6896
  150.8759  133.7377  159.2973 H   0  0  0  0  0  0  0  0  0  0  0  0  # atno 6909 bound_to 6896
  145.9481  140.7598  142.9518 H   0  0  0  0  0  0  0  0  0  0  0  0  # atno 7974 bound_to 7965
  155.4377  140.0529  157.3013 H   0  0  0  0  0  0  0  0  0  0  0  0  # atno 8008 bound_to 7997
  154.4832  140.2090  155.9673 H   0  0  0  0  0  0  0  0  0  0  0  0  # atno 8009 bound_to 7997
  156.1236  140.3184  155.8249 H   0  0  0  0  0  0  0  0  0  0  0  0  # atno 8010 bound_to 7997
  140.2017  144.3981  150.6526 H   0  0  0  0  0  0  0  0  0  0  0  0  # atno 10167 bound_to 10162
  156.2337  130.7053  151.0885 H   0  0  0  0  0  0  0  0  0  0  0  0  # atno 10718 bound_to 10713
  152.9899  135.5566  154.5739 H   0  0  0  0  0  0  0  0  0  0  0  0  # atno 10763 bound_to 10752
  154.5134  135.2803  155.1326 H   0  0  0  0  0  0  0  0  0  0  0  0  # atno 10764 bound_to 10752
  154.2708  135.6363  153.5362 H   0  0  0  0  0  0  0  0  0  0  0  0  # atno 10765 bound_to 10752
  140.0883  134.5244  155.8877 H   0  0  0  0  0  0  0  0  0  0  0  0  # atno 11005 bound_to 11000
  144.6791  140.2390  143.7346 LP  0  0  0  0  0  0  0  0  0  0  0  0  # atno 17320 bound_to 7965
  145.8208  139.2043  143.1939 LP  0  0  0  0  0  0  0  0  0  0  0  0  # atno 17321 bound_to 7965
  140.6386  143.2199  151.6341 LP  0  0  0  0  0  0  0  0  0  0  0  0  # atno 17342 bound_to 10162
  139.5214  144.3192  152.0925 LP  0  0  0  0  0  0  0  0  0  0  0  0  # atno 17343 bound_to 10162
  157.7144  131.0717  150.6380 LP  0  0  0  0  0  0  0  0  0  0  0  0  # atno 17370 bound_to 10713
  156.6449  130.4469  149.5739 LP  0  0  0  0  0  0  0  0  0  0  0  0  # atno 17371 bound_to 10713
  141.2069  133.6660  156.6275 LP  0  0  0  0  0  0  0  0  0  0  0  0  # atno 17394 bound_to 11000
  140.3389  134.7866  157.4382 LP  0  0  0  0  0  0  0  0  0  0  0  0  # atno 17395 bound_to 11000

$$$$
