AV-unprocessed.smi:2565|AV-procd|sdf|10068|dock6
  -GOLD-   2272014103D 1   1.00000     0.00000
 Structure written by MMmdl.
 25 26  0  0  0  0  0  0  0  0  2 V2000
  150.0607  139.0502  154.4437 C   0  0  0  0  0  0  0  0  0  0  0  0
  151.1659  138.7538  155.3332 N   0  0  0  0  0  0  0  0  0  0  0  0
  152.1450  137.8501  155.1774 C   0  0  0  0  0  0  0  0  0  0  0  0
  153.0370  137.8100  156.1660 N   0  0  0  0  0  0  0  0  0  0  0  0
  152.6116  138.7745  157.0570 N   0  0  0  0  0  0  0  0  0  0  0  0
  151.4995  139.2966  156.5225 C   0  0  0  0  0  0  0  0  0  0  0  0
  150.7120  140.4081  157.1524 C   0  0  2  0  0  0  0  0  0  0  0  0
  150.6175  141.6460  156.2394 C   0  0  0  0  0  0  0  0  0  0  0  0
  149.9222  142.7416  156.9428 N   0  3  0  0  0  0  0  0  0  0  0  0
  150.5666  143.0485  158.2352 C   0  0  0  0  0  0  0  0  0  0  0  0
  150.6771  141.7726  159.0884 C   0  0  0  0  0  0  0  0  0  0  0  0
  151.3763  140.7667  158.3623 O   0  0  0  0  0  0  0  0  0  0  0  0
  150.1734  138.4990  153.5094 H   0  0  0  0  0  0  0  0  0  0  0  0
  150.0390  140.1177  154.2228 H   0  0  0  0  0  0  0  0  0  0  0  0
  149.1213  138.7596  154.9144 H   0  0  0  0  0  0  0  0  0  0  0  0
  152.2117  137.2049  154.3134 H   0  0  0  0  0  0  0  0  0  0  0  0
  149.7130  140.0433  157.3973 H   0  0  0  0  0  0  0  0  0  0  0  0
  151.6140  141.9844  155.9516 H   0  0  0  0  0  0  0  0  0  0  0  0
  150.0804  141.4085  155.3207 H   0  0  0  0  0  0  0  0  0  0  0  0
  149.9240  143.5684  156.3621 H   0  0  0  0  0  0  0  0  0  0  0  0
  151.5575  143.4663  158.0516 H   0  0  0  0  0  0  0  0  0  0  0  0
  149.9872  143.8105  158.7569 H   0  0  0  0  0  0  0  0  0  0  0  0
  151.2183  141.9833  160.0110 H   0  0  0  0  0  0  0  0  0  0  0  0
  149.6892  141.4086  159.3752 H   0  0  0  0  0  0  0  0  0  0  0  0
  148.9670  142.4626  157.1155 H   0  0  0  0  0  0  0  0  0  0  0  0
  1  2  1  0  0  0  0
  1 13  1  0  0  0  0
  1 14  1  0  0  0  0
  1 15  1  0  0  0  0
  2  6  1  0  0  0  0
  2  3  1  0  0  0  0
  3  4  2  0  0  0  0
  3 16  1  0  0  0  0
  4  5  1  0  0  0  0
  5  6  2  0  0  0  0
  6  7  1  0  0  0  0
  7 12  1  0  0  0  0
  7  8  1  0  0  0  0
  7 17  1  0  0  0  0
  8  9  1  0  0  0  0
  8 18  1  0  0  0  0
  8 19  1  0  0  0  0
  9 10  1  0  0  0  0
  9 20  1  0  0  0  0
  9 25  1  0  0  0  0
 10 11  1  0  0  0  0
 10 21  1  0  0  0  0
 10 22  1  0  0  0  0
 11 12  1  0  0  0  0
 11 23  1  0  0  0  0
 11 24  1  0  0  0  0
M  CHG  1   9   1
M  END
> <s_m_source_file>
AV-unprocessed.smi

> <i_m_source_file_index>
2565

> <i_lp_mmshare_version>
43012

> <i_f3d_flags>
0

> <s_epik_input>
W0NIM11uMVtjSF1ubmMxW0NAQEhdMltDSDJdW05IXVtDSDJdW0NIMl1PMg==

> <s_epik_cmdline>
J2VwaWtfcHl0aG9uJywgJy1waCcsICc3LjAnLCAnLXRuJywgJzgnLCAnLW1hJywgJzIwMCcsICctbWV0YWxfYmluZGluZycsICctaW1hZScsICc8aW5maWxlLm1hZT4nLCAnLW9tYWUnLCAnPG91dGZpbGUubWFlPic=

> <r_lp_tautomer_probability>
1

> <r_epik_Ionization_Penalty>
0.12571

> <r_epik_Ionization_Penalty_Charging>
0.125708

> <r_epik_Ionization_Penalty_Neutral>
1.64918e-06

> <r_epik_State_Penalty>
0.115169

> <r_epik_Charging_Adjusted_Penalty>
0.240877

> <i_epik_Tot_Q>
1

> <i_epik_Tot_abs_Q>
1

> <r_epik_Metal_State_Penalty>
0.115216

> <b_epik_Metal_Only>
0

> <s_lp_Force_Field>
OPLS_2005

> <r_lp_Energy>
13.9295

> <b_lp_Chiralities_Consistent>
1

> <s_lp_Variant>
AV-unprocessed.smi:2565-1

> <Gold.Version>
5.8.1

> <Gold.Id.Protein>
6NUR|6NUR_protein|mol2

> <Gold.PLP.Fitness>
37.4432

> <Gold.PLP.PLP>
-25.4522

> <Gold.PLP.part.hbond>
-3.0873

> <Gold.PLP.part.metal>
0.0000

> <Gold.PLP.part.buried>
-4.2147

> <Gold.PLP.part.nonpolar>
-18.2658

> <Gold.PLP.part.repulsive>
0.0510

> <Gold.PLP.ligand.clash>
0.0000

> <Gold.PLP.ligand.torsion>
0.0064

> <Gold.PLP.Chemscore.Hbond>
3.0000

> <Gold.PLP.Chemscore.CHOScore>
1.0000

> <Gold.PLP.Chemscore.Metal>
0.0000

> <Gold.Chemscore.Hbonds>
donor molecule, donor type, donor heavy atom, donor atom, acceptor molecule, acceptor atom, score
      L1  H     9    20       P1  8028  1.70
      P1  H  7997  8010       L1     5  0.26

> <Gold.PLP.Chemscore.Internal.Correction>
0.0039

> <Gold.Rescore>
     Score         DG    S(hbond)    S(metal)    S(lipo)     H(rot)  DE(clash)    DE(int)     intcor
     13.64     -13.72       1.96        0.00      36.32       1.00       0.07       0.00       ----

> <Gold.Chemscore.Fitness>
13.6437

> <Gold.Chemscore.DG>
-13.7222

> <Gold.Chemscore.ZeroCoef>
-5.4800

> <Gold.Chemscore.Hbond>
1.9620

> <Gold.Chemscore.Metal>
0.0000

> <Gold.Chemscore.Lipo>
36.3169

> <Gold.Chemscore.Internal_Hbond>
0.0000

> <Gold.Chemscore.DEClash>
0.0736

> <Gold.Chemscore.DEInternal>
0.0049

> <Gold.Chemscore.Rot>
1.0000

> <Gold.Chemscore.Internal.Correction>
   9.000000E+99

> <Gold.Chemscore.Hbonds>
donor molecule, donor type, donor heavy atom, donor atom, acceptor molecule, acceptor atom, score
      L1  H     9    20       P1  8028  0.85
      P1  H  7997  8010       L1     5  0.01

> <Gold.Chemscore.Hbond.Weighted>
-6.5531

> <Gold.Chemscore.Metal.Weighted>
-0.0000

> <Gold.Chemscore.Lipo.Weighted>
-4.2491

> <Gold.Chemscore.Internal_Hbond.Weighted>
0.0000

> <Gold.Chemscore.DEClash.Weighted>
0.0736

> <Gold.Chemscore.DEInternal.Weighted>
0.0049

> <Gold.Chemscore.Rot.Weighted>
2.5600

> <Gold.Chemscore.Internal.Correction.Weighted>
   9.000000E+99

> <Gold.Protein.RotatedTorsions>
[ 6907 6896 6895 6894 ] final -135.88 input  -60.11 | X-H torsion
[ 7974 7965 7964 7962 ] final  108.90 input  175.53 | X-H torsion
[ 8008 7997 7996 7995 ] final   66.90 input   59.86 | X-H torsion
[ 10167 10162 10161 10158 ] final  -44.27 input  -65.29 | X-H torsion
[ 10718 10713 10712 10709 ] final  -92.45 input   66.30 | X-H torsion
[ 10763 10752 10751 10750 ] final -154.22 input  -60.55 | X-H torsion
[ 11005 11000 10999 10996 ] final  123.90 input  -57.11 | X-H torsion

> <Gold.Protein.ActiveResidues>
 VAL166  LYS551  ARG553  GLY616  TRP617  ASP618  TYR619  PRO620  LYS621  CYS622 
 ASP623  PHE694  ASN695  SER759  ASP760  ASP761  ALA762  ILE779  LEU786  VAL792 
 PHE793  MET794  SER795  GLU796  ALA797  LYS798  CYS799  TRP800  GLU811  SER814 

> <Gold.Protein.RotatedAtoms>
  151.0033  133.6035  159.2691 H   0  0  0  0  0  0  0  0  0  0  0  0  # atno 6907 bound_to 6896
  151.3214  135.0818  159.9316 H   0  0  0  0  0  0  0  0  0  0  0  0  # atno 6908 bound_to 6896
  152.5280  133.9679  159.7802 H   0  0  0  0  0  0  0  0  0  0  0  0  # atno 6909 bound_to 6896
  145.2747  139.2654  143.3947 H   0  0  0  0  0  0  0  0  0  0  0  0  # atno 7974 bound_to 7965
  155.6846  140.3496  155.4869 H   0  0  0  0  0  0  0  0  0  0  0  0  # atno 8008 bound_to 7997
  155.9577  140.1131  157.0945 H   0  0  0  0  0  0  0  0  0  0  0  0  # atno 8009 bound_to 7997
  154.4136  140.1182  156.5123 H   0  0  0  0  0  0  0  0  0  0  0  0  # atno 8010 bound_to 7997
  140.6903  143.2939  151.3472 H   0  0  0  0  0  0  0  0  0  0  0  0  # atno 10167 bound_to 10162
  156.0002  130.4988  150.5628 H   0  0  0  0  0  0  0  0  0  0  0  0  # atno 10718 bound_to 10713
  154.7873  135.3195  154.7856 H   0  0  0  0  0  0  0  0  0  0  0  0  # atno 10763 bound_to 10752
  153.8553  135.6858  153.4792 H   0  0  0  0  0  0  0  0  0  0  0  0  # atno 10764 bound_to 10752
  153.1530  135.4691  154.9603 H   0  0  0  0  0  0  0  0  0  0  0  0  # atno 10765 bound_to 10752
  139.9334  134.9640  156.8329 H   0  0  0  0  0  0  0  0  0  0  0  0  # atno 11005 bound_to 11000
  146.3235  140.3199  142.8632 LP  0  0  0  0  0  0  0  0  0  0  0  0  # atno 17320 bound_to 7965
  144.9304  140.7969  143.5693 LP  0  0  0  0  0  0  0  0  0  0  0  0  # atno 17321 bound_to 7965
  139.6299  144.0741  152.2467 LP  0  0  0  0  0  0  0  0  0  0  0  0  # atno 17342 bound_to 10162
  140.0212  144.6151  150.7565 LP  0  0  0  0  0  0  0  0  0  0  0  0  # atno 17343 bound_to 10162
  157.3535  131.0737  151.1694 LP  0  0  0  0  0  0  0  0  0  0  0  0  # atno 17370 bound_to 10713
  157.2503  130.6611  149.5928 LP  0  0  0  0  0  0  0  0  0  0  0  0  # atno 17371 bound_to 10713
  140.6141  134.0055  155.7589 LP  0  0  0  0  0  0  0  0  0  0  0  0  # atno 17394 bound_to 11000
  141.0935  133.9880  157.3199 LP  0  0  0  0  0  0  0  0  0  0  0  0  # atno 17395 bound_to 11000

$$$$
