AV-unprocessed.smi:3134|AV-procd|sdf|11941|dock8
  -GOLD-   2272017333D 1   1.00000     0.00000
 Structure written by MMmdl.
 37 37  0  0  0  0  0  0  0  0  2 V2000
  145.0279  140.8956  155.9014 C   0  0  0  0  0  0  0  0  0  0  0  0
  146.3298  140.6801  155.1137 C   0  0  0  0  0  0  0  0  0  0  0  0
  146.9813  142.0128  154.7208 C   0  0  0  0  0  0  0  0  0  0  0  0
  146.0747  139.8917  153.9115 N   0  0  0  0  0  0  0  0  0  0  0  0
  146.6318  138.7038  153.6272 C   0  0  0  0  0  0  0  0  0  0  0  0
  147.4306  138.1347  154.3721 O   0  0  0  0  0  0  0  0  0  0  0  0
  146.2092  138.0523  152.3028 C   0  0  2  0  0  0  0  0  0  0  0  0
  146.4767  139.0150  151.1358 C   0  0  0  0  0  0  0  0  0  0  0  0
  144.7808  137.6607  152.3109 N   0  3  0  0  0  0  0  0  0  0  0  0
  144.5250  136.2187  152.1094 C   0  0  0  0  0  0  0  0  0  0  0  0
  145.3635  135.6691  150.9469 C   0  0  0  0  0  0  0  0  0  0  0  0
  145.2899  134.2230  150.8693 N   0  0  0  0  0  0  0  0  0  0  0  0
  144.1808  133.4288  150.6668 C   0  0  0  0  0  0  0  0  0  0  0  0
  144.6055  132.1311  150.6673 C   0  0  0  0  0  0  0  0  0  0  0  0
  146.0092  132.2345  150.8769 C   0  0  0  0  0  0  0  0  0  0  0  0
  146.4159  133.4883  150.9960 N   0  0  0  0  0  0  0  0  0  0  0  0
  145.2103  141.4771  156.8055 H   0  0  0  0  0  0  0  0  0  0  0  0
  144.5872  139.9463  156.2075 H   0  0  0  0  0  0  0  0  0  0  0  0
  144.2869  141.4304  155.3064 H   0  0  0  0  0  0  0  0  0  0  0  0
  147.0349  140.1417  155.7497 H   0  0  0  0  0  0  0  0  0  0  0  0
  147.2115  142.6108  155.6031 H   0  0  0  0  0  0  0  0  0  0  0  0
  146.3252  142.6039  154.0808 H   0  0  0  0  0  0  0  0  0  0  0  0
  147.9154  141.8510  154.1821 H   0  0  0  0  0  0  0  0  0  0  0  0
  145.4226  140.2815  153.2460 H   0  0  0  0  0  0  0  0  0  0  0  0
  146.8076  137.1534  152.1430 H   0  0  0  0  0  0  0  0  0  0  0  0
  147.5281  139.3022  151.0901 H   0  0  0  0  0  0  0  0  0  0  0  0
  145.8865  139.9282  151.2255 H   0  0  0  0  0  0  0  0  0  0  0  0
  146.2255  138.5514  150.1813 H   0  0  0  0  0  0  0  0  0  0  0  0
  144.3761  137.9486  153.1907 H   0  0  0  0  0  0  0  0  0  0  0  0
  144.7635  135.6833  153.0295 H   0  0  0  0  0  0  0  0  0  0  0  0
  143.4657  136.0554  151.9073 H   0  0  0  0  0  0  0  0  0  0  0  0
  145.0181  136.0853  149.9995 H   0  0  0  0  0  0  0  0  0  0  0  0
  146.4100  135.9571  151.0580 H   0  0  0  0  0  0  0  0  0  0  0  0
  143.1927  133.8470  150.5413 H   0  0  0  0  0  0  0  0  0  0  0  0
  144.0054  131.2428  150.5365 H   0  0  0  0  0  0  0  0  0  0  0  0
  146.7394  131.4415  150.9451 H   0  0  0  0  0  0  0  0  0  0  0  0
  144.3180  138.1587  151.5642 H   0  0  0  0  0  0  0  0  0  0  0  0
  1  2  1  0  0  0  0
  1 17  1  0  0  0  0
  1 18  1  0  0  0  0
  1 19  1  0  0  0  0
  2  3  1  0  0  0  0
  2  4  1  0  0  0  0
  2 20  1  0  0  0  0
  3 21  1  0  0  0  0
  3 22  1  0  0  0  0
  3 23  1  0  0  0  0
  4  5  1  0  0  0  0
  4 24  1  0  0  0  0
  5  6  2  0  0  0  0
  5  7  1  0  0  0  0
  7  8  1  0  0  0  0
  7  9  1  0  0  0  0
  7 25  1  0  0  0  0
  8 26  1  0  0  0  0
  8 27  1  0  0  0  0
  8 28  1  0  0  0  0
  9 10  1  0  0  0  0
  9 29  1  0  0  0  0
  9 37  1  0  0  0  0
 10 11  1  0  0  0  0
 10 30  1  0  0  0  0
 10 31  1  0  0  0  0
 11 12  1  0  0  0  0
 11 32  1  0  0  0  0
 11 33  1  0  0  0  0
 12 16  1  0  0  0  0
 12 13  1  0  0  0  0
 13 14  2  0  0  0  0
 13 34  1  0  0  0  0
 14 15  1  0  0  0  0
 14 35  1  0  0  0  0
 15 16  2  0  0  0  0
 15 36  1  0  0  0  0
M  CHG  1   9   1
M  END
> <s_m_source_file>
AV-unprocessed.smi

> <i_m_source_file_index>
3134

> <i_lp_mmshare_version>
43012

> <i_f3d_flags>
0

> <s_epik_input>
W0NIM11bQ0hdKFtDSDNdKVtOSF1DKD1PKVtDQEhdKFtDSDNdKVtOSF1bQ0gyXVtDSDJdbjFbY0hdW2NIXVtjSF1uMQ==

> <s_epik_cmdline>
J2VwaWtfcHl0aG9uJywgJy1waCcsICc3LjAnLCAnLXRuJywgJzgnLCAnLW1hJywgJzIwMCcsICctbWV0YWxfYmluZGluZycsICctaW1hZScsICc8aW5maWxlLm1hZT4nLCAnLW9tYWUnLCAnPG91dGZpbGUubWFlPic=

> <r_lp_tautomer_probability>
1

> <r_epik_Ionization_Penalty>
0.20398

> <r_epik_Ionization_Penalty_Charging>
0.203977

> <r_epik_Ionization_Penalty_Neutral>
3.23345e-06

> <r_epik_State_Penalty>
0.193898

> <r_epik_Charging_Adjusted_Penalty>
0.397875

> <i_epik_Tot_Q>
1

> <i_epik_Tot_abs_Q>
1

> <r_epik_Metal_State_Penalty>
0.194184

> <b_epik_Metal_Only>
0

> <s_lp_Force_Field>
OPLS_2005

> <r_lp_Energy>
4.26542

> <b_lp_Chiralities_Consistent>
1

> <s_lp_Variant>
AV-unprocessed.smi:3134-1

> <Gold.Version>
5.8.1

> <Gold.Id.Protein>
6NUR|6NUR_protein|mol2

> <Gold.PLP.Fitness>
40.8830

> <Gold.PLP.PLP>
-30.5832

> <Gold.PLP.part.hbond>
-3.0000

> <Gold.PLP.part.metal>
0.0000

> <Gold.PLP.part.buried>
-2.0499

> <Gold.PLP.part.nonpolar>
-26.2197

> <Gold.PLP.part.repulsive>
0.3433

> <Gold.PLP.ligand.clash>
0.0000

> <Gold.PLP.ligand.torsion>
0.8868

> <Gold.PLP.Chemscore.Hbond>
2.0000

> <Gold.PLP.Chemscore.CHOScore>
2.0000

> <Gold.PLP.Chemscore.Metal>
0.0000

> <Gold.Chemscore.Hbonds>
donor molecule, donor type, donor heavy atom, donor atom, acceptor molecule, acceptor atom, score
      L1  H     4    24       P1 10175  1.00
      L1  H     9    37       P1 10171  1.00
      L1  C    13    34       P1 10186  1.00
      L1  C    15    36       P1 10747  1.00

> <Gold.PLP.Chemscore.Internal.Correction>
0.0734

> <Gold.Rescore>
     Score         DG    S(hbond)    S(metal)    S(lipo)     H(rot)  DE(clash)    DE(int)     intcor
     13.28     -14.55       1.98        0.00      67.54       2.13       0.42       0.84       ----

> <Gold.Chemscore.Fitness>
13.2841

> <Gold.Chemscore.DG>
-14.5452

> <Gold.Chemscore.ZeroCoef>
-5.4800

> <Gold.Chemscore.Hbond>
1.9835

> <Gold.Chemscore.Metal>
0.0000

> <Gold.Chemscore.Lipo>
67.5366

> <Gold.Chemscore.Internal_Hbond>
0.0000

> <Gold.Chemscore.DEClash>
0.4183

> <Gold.Chemscore.DEInternal>
0.8427

> <Gold.Chemscore.Rot>
2.1334

> <Gold.Chemscore.Internal.Correction>
   9.000000E+99

> <Gold.Chemscore.Hbonds>
donor molecule, donor type, donor heavy atom, donor atom, acceptor molecule, acceptor atom, score
      L1  H     4    24       P1 10175  0.97
      L1  H     9    37       P1 10171  0.99

> <Gold.Chemscore.Hbond.Weighted>
-6.6249

> <Gold.Chemscore.Metal.Weighted>
-0.0000

> <Gold.Chemscore.Lipo.Weighted>
-7.9018

> <Gold.Chemscore.Internal_Hbond.Weighted>
0.0000

> <Gold.Chemscore.DEClash.Weighted>
0.4183

> <Gold.Chemscore.DEInternal.Weighted>
0.8427

> <Gold.Chemscore.Rot.Weighted>
5.4615

> <Gold.Chemscore.Internal.Correction.Weighted>
   9.000000E+99

> <Gold.Protein.RotatedTorsions>
[ 6907 6896 6895 6894 ] final  -84.34 input  -60.11 | X-H torsion
[ 7974 7965 7964 7962 ] final  164.68 input  175.53 | X-H torsion
[ 8008 7997 7996 7995 ] final   77.27 input   59.86 | X-H torsion
[ 10167 10162 10161 10158 ] final   32.45 input  -65.29 | X-H torsion
[ 10718 10713 10712 10709 ] final  -76.05 input   66.30 | X-H torsion
[ 10763 10752 10751 10750 ] final   42.05 input  -60.55 | X-H torsion
[ 11005 11000 10999 10996 ] final -119.13 input  -57.11 | X-H torsion

> <Gold.Protein.ActiveResidues>
 VAL166  LYS551  ARG553  GLY616  TRP617  ASP618  TYR619  PRO620  LYS621  CYS622 
 ASP623  PHE694  ASN695  SER759  ASP760  ASP761  ALA762  ILE779  LEU786  VAL792 
 PHE793  MET794  SER795  GLU796  ALA797  LYS798  CYS799  TRP800  GLU811  SER814 

> <Gold.Protein.RotatedAtoms>
  150.6877  134.3374  159.4852 H   0  0  0  0  0  0  0  0  0  0  0  0  # atno 6907 bound_to 6896
  152.1231  134.9188  160.0571 H   0  0  0  0  0  0  0  0  0  0  0  0  # atno 6908 bound_to 6896
  152.0386  133.3933  159.4364 H   0  0  0  0  0  0  0  0  0  0  0  0  # atno 6909 bound_to 6896
  144.7535  139.8360  143.6358 H   0  0  0  0  0  0  0  0  0  0  0  0  # atno 7974 bound_to 7965
  155.8392  140.3463  155.5621 H   0  0  0  0  0  0  0  0  0  0  0  0  # atno 8008 bound_to 7997
  155.8158  140.0905  157.1897 H   0  0  0  0  0  0  0  0  0  0  0  0  # atno 8009 bound_to 7997
  154.4005  140.1439  156.3429 H   0  0  0  0  0  0  0  0  0  0  0  0  # atno 8010 bound_to 7997
  140.4497  144.1066  150.6189 H   0  0  0  0  0  0  0  0  0  0  0  0  # atno 10167 bound_to 10162
  156.0187  130.4456  150.3135 H   0  0  0  0  0  0  0  0  0  0  0  0  # atno 10718 bound_to 10713
  152.9892  135.6143  154.2887 H   0  0  0  0  0  0  0  0  0  0  0  0  # atno 10763 bound_to 10752
  154.2613  135.2782  155.2778 H   0  0  0  0  0  0  0  0  0  0  0  0  # atno 10764 bound_to 10752
  154.5203  135.5816  153.6732 H   0  0  0  0  0  0  0  0  0  0  0  0  # atno 10765 bound_to 10752
  141.0237  134.0085  157.3245 H   0  0  0  0  0  0  0  0  0  0  0  0  # atno 11005 bound_to 11000
  146.1515  139.4600  143.0045 LP  0  0  0  0  0  0  0  0  0  0  0  0  # atno 17320 bound_to 7965
  145.6861  141.0177  143.1580 LP  0  0  0  0  0  0  0  0  0  0  0  0  # atno 17321 bound_to 7965
  140.4221  143.2607  151.9702 LP  0  0  0  0  0  0  0  0  0  0  0  0  # atno 17342 bound_to 10162
  139.4795  144.5821  151.7915 LP  0  0  0  0  0  0  0  0  0  0  0  0  # atno 17343 bound_to 10162
  157.1236  131.0253  151.2999 LP  0  0  0  0  0  0  0  0  0  0  0  0  # atno 17370 bound_to 10713
  157.4607  130.7652  149.7234 LP  0  0  0  0  0  0  0  0  0  0  0  0  # atno 17371 bound_to 10713
  139.9162  135.0197  156.7891 LP  0  0  0  0  0  0  0  0  0  0  0  0  # atno 17394 bound_to 11000
  140.6528  133.9716  155.7764 LP  0  0  0  0  0  0  0  0  0  0  0  0  # atno 17395 bound_to 11000

$$$$
