AV-unprocessed.smi:99|AV-procd|sdf|874|dock2
  -GOLD-   2262017343D 1   1.00000     0.00000
 Structure written by MMmdl.
 53 56  0  0  0  0  0  0  0  0  1 V2000
  151.9022  134.9984  156.5396 O   0  0  0  0  0  0  0  0  0  0  0  0
  150.9033  135.1512  155.8334 C   0  0  0  0  0  0  0  0  0  0  0  0
  150.3576  136.3536  155.5645 O   0  0  0  0  0  0  0  0  0  0  0  0
  151.0051  137.5377  155.9991 C   0  0  0  0  0  0  0  0  0  0  0  0
  150.2993  138.7543  155.3922 C   0  0  1  0  0  0  0  0  0  0  0  0
  149.5110  138.3543  154.2818 O   0  0  0  0  0  0  0  0  0  0  0  0
  148.4584  139.2502  154.1082 C   0  0  1  0  0  0  0  0  0  0  0  0
  147.2211  138.4432  153.7746 N   0  0  0  0  0  0  0  0  0  0  0  0
  146.8350  137.3806  154.5805 C   0  0  0  0  0  0  0  0  0  0  0  0
  145.7476  136.6159  154.3251 C   0  0  0  0  0  0  0  0  0  0  0  0
  144.9127  136.8840  153.1584 C   0  0  0  0  0  0  0  0  0  0  0  0
  143.9102  136.2467  152.8428 O   0  0  0  0  0  0  0  0  0  0  0  0
  145.3361  137.9636  152.3776 N   0  0  0  0  0  0  0  0  0  0  0  0
  146.4536  138.7610  152.6320 C   0  0  0  0  0  0  0  0  0  0  0  0
  146.7236  139.6960  151.8796 O   0  0  0  0  0  0  0  0  0  0  0  0
  148.3107  140.0799  155.4034 C   0  0  1  0  0  0  0  0  0  0  0  0
  147.0069  140.0896  155.9564 O   0  0  0  0  0  0  0  0  0  0  0  0
  149.2933  139.3976  156.3462 C   0  0  2  0  0  0  0  0  0  0  0  0
  149.9591  140.3557  157.1595 O   0  0  0  0  0  0  0  0  0  0  0  0
  150.6885  141.3459  156.6022 C   0  0  0  0  0  0  0  0  0  0  0  0
  150.8164  141.5002  155.3860 O   0  0  0  0  0  0  0  0  0  0  0  0
  151.3256  142.2364  157.6145 C   0  0  0  0  0  0  0  0  0  0  0  0
  151.7281  141.6946  158.8576 C   0  0  0  0  0  0  0  0  0  0  0  0
  152.3284  142.5109  159.8357 C   0  0  0  0  0  0  0  0  0  0  0  0
  152.5328  143.8798  159.5830 C   0  0  0  0  0  0  0  0  0  0  0  0
  152.1368  144.4311  158.3505 C   0  0  0  0  0  0  0  0  0  0  0  0
  151.5371  143.6160  157.3703 C   0  0  0  0  0  0  0  0  0  0  0  0
  150.1727  134.0235  155.1861 C   0  0  0  0  0  0  0  0  0  0  0  0
  150.6022  132.6959  155.4183 C   0  0  0  0  0  0  0  0  0  0  0  0
  149.9331  131.6104  154.8204 C   0  0  0  0  0  0  0  0  0  0  0  0
  148.8257  131.8391  153.9832 C   0  0  0  0  0  0  0  0  0  0  0  0
  148.3872  133.1547  153.7458 C   0  0  0  0  0  0  0  0  0  0  0  0
  149.0554  134.2417  154.3425 C   0  0  0  0  0  0  0  0  0  0  0  0
  144.7856  138.1872  151.5612 H   0  0  0  0  0  0  0  0  0  0  0  0
  151.0050  137.6023  157.0882 H   0  0  0  0  0  0  0  0  0  0  0  0
  152.0450  137.5108  155.6705 H   0  0  0  0  0  0  0  0  0  0  0  0
  151.0223  139.4998  155.0553 H   0  0  0  0  0  0  0  0  0  0  0  0
  148.6929  139.8718  153.2429 H   0  0  0  0  0  0  0  0  0  0  0  0
  147.4215  137.1481  155.4580 H   0  0  0  0  0  0  0  0  0  0  0  0
  145.4931  135.8012  154.9876 H   0  0  0  0  0  0  0  0  0  0  0  0
  148.6274  141.1010  155.1854 H   0  0  0  0  0  0  0  0  0  0  0  0
  146.6268  139.2319  155.8420 H   0  0  0  0  0  0  0  0  0  0  0  0
  148.7971  138.6152  156.9233 H   0  0  0  0  0  0  0  0  0  0  0  0
  151.5805  140.6466  159.0755 H   0  0  0  0  0  0  0  0  0  0  0  0
  152.6312  142.0859  160.7814 H   0  0  0  0  0  0  0  0  0  0  0  0
  152.9924  144.5058  160.3337 H   0  0  0  0  0  0  0  0  0  0  0  0
  152.2924  145.4822  158.1562 H   0  0  0  0  0  0  0  0  0  0  0  0
  151.2433  144.0716  156.4361 H   0  0  0  0  0  0  0  0  0  0  0  0
  151.4504  132.4951  156.0572 H   0  0  0  0  0  0  0  0  0  0  0  0
  150.2707  130.6012  155.0048 H   0  0  0  0  0  0  0  0  0  0  0  0
  148.3133  131.0065  153.5243 H   0  0  0  0  0  0  0  0  0  0  0  0
  147.5363  133.3309  153.1043 H   0  0  0  0  0  0  0  0  0  0  0  0
  148.6922  135.2385  154.1394 H   0  0  0  0  0  0  0  0  0  0  0  0
  1  2  2  0  0  0  0
  2  3  1  0  0  0  0
  2 28  1  0  0  0  0
  3  4  1  0  0  0  0
  4  5  1  0  0  0  0
  4 35  1  0  0  0  0
  4 36  1  0  0  0  0
  5 18  1  0  0  0  0
  5  6  1  0  0  0  0
  5 37  1  0  0  0  0
  6  7  1  0  0  0  0
  7  8  1  0  0  0  0
  7 16  1  0  0  0  0
  7 38  1  0  0  0  0
  8 14  1  0  0  0  0
  8  9  1  0  0  0  0
  9 10  2  0  0  0  0
  9 39  1  0  0  0  0
 10 11  1  0  0  0  0
 10 40  1  0  0  0  0
 11 12  2  0  0  0  0
 11 13  1  0  0  0  0
 13 34  1  0  0  0  0
 13 14  1  0  0  0  0
 14 15  2  0  0  0  0
 16 17  1  0  0  0  0
 16 18  1  0  0  0  0
 16 41  1  0  0  0  0
 17 42  1  0  0  0  0
 18 19  1  0  0  0  0
 18 43  1  0  0  0  0
 19 20  1  0  0  0  0
 20 21  2  0  0  0  0
 20 22  1  0  0  0  0
 22 27  1  0  0  0  0
 22 23  2  0  0  0  0
 23 24  1  0  0  0  0
 23 44  1  0  0  0  0
 24 25  2  0  0  0  0
 24 45  1  0  0  0  0
 25 26  1  0  0  0  0
 25 46  1  0  0  0  0
 26 27  2  0  0  0  0
 26 47  1  0  0  0  0
 27 48  1  0  0  0  0
 28 33  1  0  0  0  0
 28 29  2  0  0  0  0
 29 30  1  0  0  0  0
 29 49  1  0  0  0  0
 30 31  2  0  0  0  0
 30 50  1  0  0  0  0
 31 32  1  0  0  0  0
 31 51  1  0  0  0  0
 32 33  2  0  0  0  0
 32 52  1  0  0  0  0
 33 53  1  0  0  0  0
M  END
> <s_m_source_file>
AV-unprocessed.smi

> <i_m_source_file_index>
99

> <i_lp_mmshare_version>
43012

> <i_f3d_flags>
0

> <s_epik_input>
W2NIXTFbY0hdW2NIXVtjSF1bY0hdYzFDKD1PKU9bQ0gyXVtDQEBIXTJPW0NAQEhdKG4zW2NIXVtjSF1jKD1PKVtuSF1jMz1PKVtDQEBIXShbT0hdKVtDQEhdMk9DKD1PKWM0W2NIXVtjSF1bY0hdW2NIXVtjSF00

> <s_epik_cmdline>
J2VwaWtfcHl0aG9uJywgJy1waCcsICc3LjAnLCAnLXRuJywgJzgnLCAnLW1hJywgJzIwMCcsICctbWV0YWxfYmluZGluZycsICctaW1hZScsICc8aW5maWxlLm1hZT4nLCAnLW9tYWUnLCAnPG91dGZpbGUubWFlPic=

> <r_lp_tautomer_probability>
1

> <r_epik_Ionization_Penalty>
0.00454555

> <r_epik_Ionization_Penalty_Charging>
0.0045191

> <r_epik_Ionization_Penalty_Neutral>
2.64449e-05

> <r_epik_State_Penalty>
-0

> <r_epik_Charging_Adjusted_Penalty>
0.0045191

> <i_epik_Tot_Q>
0

> <i_epik_Tot_abs_Q>
0

> <r_epik_Metal_State_Penalty>
1.27877

> <b_epik_Metal_Only>
0

> <s_epik_Chemistry_Notes>
This compound has an ester and may undergo hydrolysis at high or low pH. This compound contains an acetal/aminal-like group ( X-CH(R)-Y where X, Y are N, S, or O) that may be acid/base labile, releasing an aldehyde.

> <s_lp_Force_Field>
OPLS_2005

> <r_lp_Energy>
37.9182

> <b_lp_Chiralities_Consistent>
1

> <s_lp_Variant>
AV-unprocessed.smi:99-10

> <Gold.Version>
5.8.1

> <Gold.Id.Protein>
6NUR|6NUR_protein|mol2

> <Gold.PLP.Fitness>
53.9463

> <Gold.PLP.PLP>
-48.4240

> <Gold.PLP.part.hbond>
-3.8760

> <Gold.PLP.part.metal>
0.0000

> <Gold.PLP.part.buried>
-5.7036

> <Gold.PLP.part.nonpolar>
-42.0948

> <Gold.PLP.part.repulsive>
2.4166

> <Gold.PLP.ligand.clash>
0.0000

> <Gold.PLP.ligand.torsion>
1.1625

> <Gold.PLP.Chemscore.Hbond>
2.3845

> <Gold.PLP.Chemscore.CHOScore>
0.0000

> <Gold.PLP.Chemscore.Metal>
0.0000

> <Gold.Chemscore.Hbonds>
donor molecule, donor type, donor heavy atom, donor atom, acceptor molecule, acceptor atom, score
      L1  H    13    34       P1 10171  1.00
      P1  H  7989  7998       L1    21  0.33
      P1  H 10752 10763       L1     1  0.99

> <Gold.PLP.Chemscore.Internal.Correction>
0.6938

> <Gold.Rescore>
     Score         DG    S(hbond)    S(metal)    S(lipo)     H(rot)  DE(clash)    DE(int)     intcor
     12.01     -17.79       2.17        0.00     113.12       3.19       1.88       3.91       ----

> <Gold.Chemscore.Fitness>
12.0054

> <Gold.Chemscore.DG>
-17.7926

> <Gold.Chemscore.ZeroCoef>
-5.4800

> <Gold.Chemscore.Hbond>
2.1692

> <Gold.Chemscore.Metal>
0.0000

> <Gold.Chemscore.Lipo>
113.1154

> <Gold.Chemscore.Internal_Hbond>
0.0000

> <Gold.Chemscore.DEClash>
1.8808

> <Gold.Chemscore.DEInternal>
3.9064

> <Gold.Chemscore.Rot>
3.1903

> <Gold.Chemscore.Internal.Correction>
   9.000000E+99

> <Gold.Chemscore.Hbonds>
donor molecule, donor type, donor heavy atom, donor atom, acceptor molecule, acceptor atom, score
      L1  H    13    34       P1 10171  0.95
      P1  H  7989  7998       L1    21  0.33
      P1  H 10752 10763       L1     1  0.32

> <Gold.Chemscore.Hbond.Weighted>
-7.2452

> <Gold.Chemscore.Metal.Weighted>
-0.0000

> <Gold.Chemscore.Lipo.Weighted>
-13.2345

> <Gold.Chemscore.Internal_Hbond.Weighted>
0.0000

> <Gold.Chemscore.DEClash.Weighted>
1.8808

> <Gold.Chemscore.DEInternal.Weighted>
3.9064

> <Gold.Chemscore.Rot.Weighted>
8.1671

> <Gold.Chemscore.Internal.Correction.Weighted>
   9.000000E+99

> <Gold.Protein.RotatedTorsions>
[ 6907 6896 6895 6894 ] final   32.77 input  -60.11 | X-H torsion
[ 7974 7965 7964 7962 ] final -175.61 input  175.53 | X-H torsion
[ 8008 7997 7996 7995 ] final   40.36 input   59.86 | X-H torsion
[ 10167 10162 10161 10158 ] final -138.28 input  -65.29 | X-H torsion
[ 10718 10713 10712 10709 ] final   69.26 input   66.30 | X-H torsion
[ 10763 10752 10751 10750 ] final  108.29 input  -60.55 | X-H torsion
[ 11005 11000 10999 10996 ] final  -61.49 input  -57.11 | X-H torsion

> <Gold.Protein.ActiveResidues>
 VAL166  LYS551  ARG553  GLY616  TRP617  ASP618  TYR619  PRO620  LYS621  CYS622 
 ASP623  PHE694  ASN695  SER759  ASP760  ASP761  ALA762  ILE779  LEU786  VAL792 
 PHE793  MET794  SER795  GLU796  ALA797  LYS798  CYS799  TRP800  GLU811  SER814 

> <Gold.Protein.RotatedAtoms>
  152.0792  134.9483  160.0573 H   0  0  0  0  0  0  0  0  0  0  0  0  # atno 6907 bound_to 6896
  152.0778  133.4133  159.4496 H   0  0  0  0  0  0  0  0  0  0  0  0  # atno 6908 bound_to 6896
  150.6836  134.2937  159.4721 H   0  0  0  0  0  0  0  0  0  0  0  0  # atno 6909 bound_to 6896
  144.7128  140.1295  143.6399 H   0  0  0  0  0  0  0  0  0  0  0  0  # atno 7974 bound_to 7965
  155.2519  140.3353  155.4281 H   0  0  0  0  0  0  0  0  0  0  0  0  # atno 8008 bound_to 7997
  156.2212  140.1810  156.7516 H   0  0  0  0  0  0  0  0  0  0  0  0  # atno 8009 bound_to 7997
  154.5828  140.0651  156.9113 H   0  0  0  0  0  0  0  0  0  0  0  0  # atno 8010 bound_to 7997
  139.8493  143.7219  152.2659 H   0  0  0  0  0  0  0  0  0  0  0  0  # atno 10167 bound_to 10162
  157.6336  130.9416  150.0489 H   0  0  0  0  0  0  0  0  0  0  0  0  # atno 10718 bound_to 10713
  153.4186  135.3817  155.2097 H   0  0  0  0  0  0  0  0  0  0  0  0  # atno 10763 bound_to 10752
  154.8743  135.3811  154.4412 H   0  0  0  0  0  0  0  0  0  0  0  0  # atno 10764 bound_to 10752
  153.4929  135.7088  153.5937 H   0  0  0  0  0  0  0  0  0  0  0  0  # atno 10765 bound_to 10752
  141.1326  133.6631  156.5383 H   0  0  0  0  0  0  0  0  0  0  0  0  # atno 11005 bound_to 11000
  145.9299  139.2599  143.1331 LP  0  0  0  0  0  0  0  0  0  0  0  0  # atno 17320 bound_to 7965
  145.9533  140.8892  143.0248 LP  0  0  0  0  0  0  0  0  0  0  0  0  # atno 17321 bound_to 7965
  139.7481  144.7542  151.0549 LP  0  0  0  0  0  0  0  0  0  0  0  0  # atno 17342 bound_to 10162
  140.7789  143.4892  150.9915 LP  0  0  0  0  0  0  0  0  0  0  0  0  # atno 17343 bound_to 10162
  156.1557  130.3643  149.9372 LP  0  0  0  0  0  0  0  0  0  0  0  0  # atno 17370 bound_to 10713
  156.7382  130.9069  151.3630 LP  0  0  0  0  0  0  0  0  0  0  0  0  # atno 17371 bound_to 10713
  140.4160  134.7230  157.4863 LP  0  0  0  0  0  0  0  0  0  0  0  0  # atno 17394 bound_to 11000
  140.0394  134.6290  155.9001 LP  0  0  0  0  0  0  0  0  0  0  0  0  # atno 17395 bound_to 11000

$$$$
