AV-unprocessed.smi:2162|AV-procd|sdf|8803|dock10
  -GOLD-   2272011583D 1   1.00000     0.00000
 Structure written by MMmdl.
 41 42  0  0  0  0  0  0  0  0  1 V2000
  153.3160  142.2133  160.7266 C   0  0  0  0  0  0  0  0  0  0  0  0
  152.7092  142.8075  159.5024 C   0  0  0  0  0  0  0  0  0  0  0  0
  152.2648  142.0832  158.4722 N   0  0  0  0  0  0  0  0  0  0  0  0
  151.7167  142.8724  157.4563 C   0  0  0  0  0  0  0  0  0  0  0  0
  151.1175  142.2235  156.2410 C   0  0  0  0  0  0  0  0  0  0  0  0
  149.8194  141.4397  156.5273 C   0  0  0  0  0  0  0  0  0  0  0  0
  150.0289  139.9930  156.5156 N   0  0  0  0  0  0  0  0  0  0  0  0
  150.8350  139.3349  155.6671 C   0  0  0  0  0  0  0  0  0  0  0  0
  151.4311  139.8823  154.7387 O   0  0  0  0  0  0  0  0  0  0  0  0
  151.0351  137.8347  155.9340 C   0  0  1  0  0  0  0  0  0  0  0  0
  151.5922  137.5652  157.3448 C   0  0  0  0  0  0  0  0  0  0  0  0
  150.3917  137.0270  158.1084 C   0  0  0  0  0  0  0  0  0  0  0  0
  150.4035  136.8537  159.3261 O   0  0  0  0  0  0  0  0  0  0  0  0
  149.3531  136.8144  157.2888 N   0  0  0  0  0  0  0  0  0  0  0  0
  148.0024  136.4119  157.7011 C   0  0  0  0  0  0  0  0  0  0  0  0
  147.3340  137.4451  158.6264 C   0  0  0  0  0  0  0  0  0  0  0  0
  148.0408  135.0129  158.3368 C   0  0  0  0  0  0  0  0  0  0  0  0
  149.6948  137.0751  155.8972 C   0  0  0  0  0  0  0  0  0  0  0  0
  151.7838  144.2180  157.7217 C   0  0  0  0  0  0  0  0  0  0  0  0
  152.5081  144.5398  159.2725 S   0  0  0  0  0  0  0  0  0  0  0  0
  153.0671  141.1543  160.8023 H   0  0  0  0  0  0  0  0  0  0  0  0
  152.9407  142.7225  161.6144 H   0  0  0  0  0  0  0  0  0  0  0  0
  154.4003  142.3188  160.6931 H   0  0  0  0  0  0  0  0  0  0  0  0
  150.9087  142.9843  155.4878 H   0  0  0  0  0  0  0  0  0  0  0  0
  151.8445  141.5522  155.7832 H   0  0  0  0  0  0  0  0  0  0  0  0
  149.4290  141.7223  157.5051 H   0  0  0  0  0  0  0  0  0  0  0  0
  149.0515  141.7204  155.8045 H   0  0  0  0  0  0  0  0  0  0  0  0
  149.5767  139.4623  157.2459 H   0  0  0  0  0  0  0  0  0  0  0  0
  151.7130  137.4274  155.1821 H   0  0  0  0  0  0  0  0  0  0  0  0
  152.3737  136.8052  157.3190 H   0  0  0  0  0  0  0  0  0  0  0  0
  152.0002  138.4510  157.8343 H   0  0  0  0  0  0  0  0  0  0  0  0
  147.3833  136.3509  156.8045 H   0  0  0  0  0  0  0  0  0  0  0  0
  146.2994  137.1681  158.8305 H   0  0  0  0  0  0  0  0  0  0  0  0
  147.3222  138.4349  158.1690 H   0  0  0  0  0  0  0  0  0  0  0  0
  147.8433  137.5228  159.5874 H   0  0  0  0  0  0  0  0  0  0  0  0
  147.0407  134.6811  158.6165 H   0  0  0  0  0  0  0  0  0  0  0  0
  148.6583  135.0039  159.2352 H   0  0  0  0  0  0  0  0  0  0  0  0
  148.4505  134.2746  157.6466 H   0  0  0  0  0  0  0  0  0  0  0  0
  148.9048  137.6415  155.4027 H   0  0  0  0  0  0  0  0  0  0  0  0
  149.8064  136.1291  155.3660 H   0  0  0  0  0  0  0  0  0  0  0  0
  151.4353  145.0358  157.1089 H   0  0  0  0  0  0  0  0  0  0  0  0
  1  2  1  0  0  0  0
  1 21  1  0  0  0  0
  1 22  1  0  0  0  0
  1 23  1  0  0  0  0
  2 20  1  0  0  0  0
  2  3  2  0  0  0  0
  3  4  1  0  0  0  0
  4  5  1  0  0  0  0
  4 19  2  0  0  0  0
  5  6  1  0  0  0  0
  5 24  1  0  0  0  0
  5 25  1  0  0  0  0
  6  7  1  0  0  0  0
  6 26  1  0  0  0  0
  6 27  1  0  0  0  0
  7  8  1  0  0  0  0
  7 28  1  0  0  0  0
  8  9  2  0  0  0  0
  8 10  1  0  0  0  0
 10 18  1  0  0  0  0
 10 11  1  0  0  0  0
 10 29  1  0  0  0  0
 11 12  1  0  0  0  0
 11 30  1  0  0  0  0
 11 31  1  0  0  0  0
 12 13  2  0  0  0  0
 12 14  1  0  0  0  0
 14 15  1  0  0  0  0
 14 18  1  0  0  0  0
 15 16  1  0  0  0  0
 15 17  1  0  0  0  0
 15 32  1  0  0  0  0
 16 33  1  0  0  0  0
 16 34  1  0  0  0  0
 16 35  1  0  0  0  0
 17 36  1  0  0  0  0
 17 37  1  0  0  0  0
 17 38  1  0  0  0  0
 18 39  1  0  0  0  0
 18 40  1  0  0  0  0
 19 20  1  0  0  0  0
 19 41  1  0  0  0  0
M  END
> <s_m_source_file>
AV-unprocessed.smi

> <i_m_source_file_index>
2162

> <i_lp_mmshare_version>
43012

> <i_f3d_flags>
0

> <s_epik_input>
W0NIM11jMW5jKFtjSF1zMSlbQ0gyXVtDSDJdW05IXUMoPU8pW0NAQEhdMltDSDJdQyg9TylOKFtDSDJdMilbQ0hdKFtDSDNdKVtDSDNd

> <s_epik_cmdline>
J2VwaWtfcHl0aG9uJywgJy1waCcsICc3LjAnLCAnLXRuJywgJzgnLCAnLW1hJywgJzIwMCcsICctbWV0YWxfYmluZGluZycsICctaW1hZScsICc8aW5maWxlLm1hZT4nLCAnLW9tYWUnLCAnPG91dGZpbGUubWFlPic=

> <r_epik_Ionization_Penalty>
0.000973993

> <r_epik_Ionization_Penalty_Charging>
0

> <r_epik_Ionization_Penalty_Neutral>
0.000973993

> <r_epik_State_Penalty>
0.000633765

> <r_epik_Charging_Adjusted_Penalty>
0.000633765

> <i_epik_Tot_Q>
0

> <i_epik_Tot_abs_Q>
0

> <r_epik_Metal_State_Penalty>
-0

> <b_epik_Metal_Only>
0

> <s_lp_Force_Field>
OPLS_2005

> <r_lp_Energy>
12.9276

> <b_lp_Chiralities_Consistent>
1

> <s_lp_Variant>
AV-unprocessed.smi:2162-2

> <Gold.Version>
5.8.1

> <Gold.Id.Protein>
6NUR|6NUR_protein|mol2

> <Gold.PLP.Fitness>
40.0317

> <Gold.PLP.PLP>
-32.6562

> <Gold.PLP.part.hbond>
-2.0000

> <Gold.PLP.part.metal>
0.0000

> <Gold.PLP.part.buried>
-5.5242

> <Gold.PLP.part.nonpolar>
-24.9092

> <Gold.PLP.part.repulsive>
0.0830

> <Gold.PLP.ligand.clash>
0.0000

> <Gold.PLP.ligand.torsion>
0.5768

> <Gold.PLP.Chemscore.Hbond>
2.0000

> <Gold.PLP.Chemscore.CHOScore>
0.8200

> <Gold.PLP.Chemscore.Metal>
0.0000

> <Gold.Chemscore.Hbonds>
donor molecule, donor type, donor heavy atom, donor atom, acceptor molecule, acceptor atom, score
      P1  H  6896  6909       L1    13  1.00
      P1  H  7989  7998       L1     9  1.00
      L1  C    19    41       P1  8028  0.06

> <Gold.PLP.Chemscore.Internal.Correction>
0.0691

> <Gold.Rescore>
     Score         DG    S(hbond)    S(metal)    S(lipo)     H(rot)  DE(clash)    DE(int)     intcor
     16.09     -18.19       1.99        0.00      88.00       1.66       0.02       2.08       ----

> <Gold.Chemscore.Fitness>
16.0898

> <Gold.Chemscore.DG>
-18.1927

> <Gold.Chemscore.ZeroCoef>
-5.4800

> <Gold.Chemscore.Hbond>
1.9949

> <Gold.Chemscore.Metal>
0.0000

> <Gold.Chemscore.Lipo>
87.9959

> <Gold.Chemscore.Internal_Hbond>
0.0000

> <Gold.Chemscore.DEClash>
0.0186

> <Gold.Chemscore.DEInternal>
2.0843

> <Gold.Chemscore.Rot>
1.6585

> <Gold.Chemscore.Internal.Correction>
   9.000000E+99

> <Gold.Chemscore.Hbonds>
donor molecule, donor type, donor heavy atom, donor atom, acceptor molecule, acceptor atom, score
      P1  H  6896  6909       L1    13  0.76
      P1  H  7989  7998       L1     9  0.98

> <Gold.Chemscore.Hbond.Weighted>
-6.6629

> <Gold.Chemscore.Metal.Weighted>
-0.0000

> <Gold.Chemscore.Lipo.Weighted>
-10.2955

> <Gold.Chemscore.Internal_Hbond.Weighted>
0.0000

> <Gold.Chemscore.DEClash.Weighted>
0.0186

> <Gold.Chemscore.DEInternal.Weighted>
2.0843

> <Gold.Chemscore.Rot.Weighted>
4.2457

> <Gold.Chemscore.Internal.Correction.Weighted>
   9.000000E+99

> <Gold.Protein.RotatedTorsions>
[ 6907 6896 6895 6894 ] final   82.75 input  -60.11 | X-H torsion
[ 7974 7965 7964 7962 ] final  140.28 input  175.53 | X-H torsion
[ 8008 7997 7996 7995 ] final   45.60 input   59.86 | X-H torsion
[ 10167 10162 10161 10158 ] final   87.58 input  -65.29 | X-H torsion
[ 10718 10713 10712 10709 ] final  108.17 input   66.30 | X-H torsion
[ 10763 10752 10751 10750 ] final   13.84 input  -60.55 | X-H torsion
[ 11005 11000 10999 10996 ] final -105.51 input  -57.11 | X-H torsion

> <Gold.Protein.ActiveResidues>
 VAL166  LYS551  ARG553  GLY616  TRP617  ASP618  TYR619  PRO620  LYS621  CYS622 
 ASP623  PHE694  ASN695  SER759  ASP760  ASP761  ALA762  ILE779  LEU786  VAL792 
 PHE793  MET794  SER795  GLU796  ALA797  LYS798  CYS799  TRP800  GLU811  SER814 

> <Gold.Protein.RotatedAtoms>
  152.5308  134.3001  159.9075 H   0  0  0  0  0  0  0  0  0  0  0  0  # atno 6907 bound_to 6896
  151.2952  133.4140  159.2643 H   0  0  0  0  0  0  0  0  0  0  0  0  # atno 6908 bound_to 6896
  151.0166  134.9453  159.8093 H   0  0  0  0  0  0  0  0  0  0  0  0  # atno 6909 bound_to 6896
  144.9201  139.5179  143.5667 H   0  0  0  0  0  0  0  0  0  0  0  0  # atno 7974 bound_to 7965
  155.3385  140.3407  155.4239 H   0  0  0  0  0  0  0  0  0  0  0  0  # atno 8008 bound_to 7997
  156.1825  140.1669  156.8283 H   0  0  0  0  0  0  0  0  0  0  0  0  # atno 8009 bound_to 7997
  154.5349  140.0737  156.8394 H   0  0  0  0  0  0  0  0  0  0  0  0  # atno 8010 bound_to 7997
  139.8760  144.6467  150.8896 H   0  0  0  0  0  0  0  0  0  0  0  0  # atno 10167 bound_to 10162
  157.6597  131.0888  150.6265 H   0  0  0  0  0  0  0  0  0  0  0  0  # atno 10718 bound_to 10713
  153.1681  135.6807  153.8647 H   0  0  0  0  0  0  0  0  0  0  0  0  # atno 10763 bound_to 10752
  153.8020  135.3154  155.3392 H   0  0  0  0  0  0  0  0  0  0  0  0  # atno 10764 bound_to 10752
  154.7979  135.4796  154.0296 H   0  0  0  0  0  0  0  0  0  0  0  0  # atno 10765 bound_to 10752
  141.1050  133.8814  157.1743 H   0  0  0  0  0  0  0  0  0  0  0  0  # atno 11005 bound_to 11000
  146.3200  139.8073  142.8953 LP  0  0  0  0  0  0  0  0  0  0  0  0  # atno 17320 bound_to 7965
  145.3311  141.0266  143.3446 LP  0  0  0  0  0  0  0  0  0  0  0  0  # atno 17321 bound_to 7965
  140.7753  143.3625  151.1801 LP  0  0  0  0  0  0  0  0  0  0  0  0  # atno 17342 bound_to 10162
  139.7240  143.9178  152.2996 LP  0  0  0  0  0  0  0  0  0  0  0  0  # atno 17343 bound_to 10162
  156.6569  130.4501  149.5700 LP  0  0  0  0  0  0  0  0  0  0  0  0  # atno 17370 bound_to 10713
  156.2096  130.6670  151.1255 LP  0  0  0  0  0  0  0  0  0  0  0  0  # atno 17371 bound_to 10713
  139.9916  135.0062  156.9988 LP  0  0  0  0  0  0  0  0  0  0  0  0  # atno 17394 bound_to 11000
  140.4926  134.1178  155.7235 LP  0  0  0  0  0  0  0  0  0  0  0  0  # atno 17395 bound_to 11000

$$$$
