AV-unprocessed.smi:199|AV-procd|sdf|1564|dock4
  -GOLD-   2262019433D 1   1.00000     0.00000
 Structure written by MMmdl.
 51 55  0  0  0  0  0  0  0  0  1 V2000
  152.0006  137.5553  154.1727 C   0  0  0  0  0  0  0  0  0  0  0  0
  150.7526  138.4517  154.1506 C   0  0  2  0  0  0  0  0  0  0  0  0
  151.0655  139.6477  154.8598 O   0  0  0  0  0  0  0  0  0  0  0  0
  149.8823  140.1485  155.4563 C   0  0  0  0  0  0  0  0  0  0  0  0
  149.2050  138.8797  155.9507 C   0  0  0  0  0  0  0  0  0  0  0  0
  149.4689  137.8859  154.8224 C   0  0  1  0  0  0  0  0  0  0  0  0
  148.4096  138.0021  153.8863 O   0  0  0  0  0  0  0  0  0  0  0  0
  149.5294  136.4096  155.2968 C   0  0  0  0  0  0  0  0  0  0  0  0
  149.2758  136.2484  156.7210 N   0  0  0  0  0  0  0  0  0  0  0  0
  150.2085  135.9877  157.6980 C   0  0  0  0  0  0  0  0  0  0  0  0
  149.7312  135.8794  158.9069 N   0  0  0  0  0  0  0  0  0  0  0  0
  148.3654  136.0950  158.7609 C   0  0  0  0  0  0  0  0  0  0  0  0
  147.2558  136.1202  159.6563 C   0  0  0  0  0  0  0  0  0  0  0  0
  147.3517  135.9102  160.9985 N   0  0  0  0  0  0  0  0  0  0  0  0
  147.0136  136.9631  161.9455 C   0  0  2  0  0  0  0  0  0  0  0  0
  147.4737  136.3595  163.2837 C   0  0  0  0  0  0  0  0  0  0  0  0
  147.1646  134.8711  163.0644 C   0  0  0  0  0  0  0  0  0  0  0  0
  146.5381  134.8962  161.6572 C   0  0  1  0  0  0  0  0  0  0  0  0
  145.1226  135.5305  161.6760 C   0  0  1  0  0  0  0  0  0  0  0  0
  144.1120  134.9153  162.6616 C   0  0  0  0  0  0  0  0  0  0  0  0
  142.8995  135.6372  162.6220 O   0  0  0  0  0  0  0  0  0  0  0  0
  145.4719  137.0102  161.9247 C   0  0  0  0  0  0  0  0  0  0  0  0
  146.0274  136.3376  159.1146 N   0  0  0  0  0  0  0  0  0  0  0  0
  145.8898  136.5491  157.8032 C   0  0  0  0  0  0  0  0  0  0  0  0
  146.8313  136.5713  156.8596 N   0  0  0  0  0  0  0  0  0  0  0  0
  148.0647  136.3284  157.3873 C   0  0  0  0  0  0  0  0  0  0  0  0
  151.8316  136.6218  153.6360 H   0  0  0  0  0  0  0  0  0  0  0  0
  152.3036  137.3147  155.1918 H   0  0  0  0  0  0  0  0  0  0  0  0
  152.8413  138.0575  153.6939 H   0  0  0  0  0  0  0  0  0  0  0  0
  150.5483  138.7288  153.1145 H   0  0  0  0  0  0  0  0  0  0  0  0
  150.1027  140.8514  156.2599 H   0  0  0  0  0  0  0  0  0  0  0  0
  149.2736  140.6561  154.7064 H   0  0  0  0  0  0  0  0  0  0  0  0
  149.7058  138.5533  156.8627 H   0  0  0  0  0  0  0  0  0  0  0  0
  148.1476  139.0167  156.1826 H   0  0  0  0  0  0  0  0  0  0  0  0
  148.3771  137.2108  153.3707 H   0  0  0  0  0  0  0  0  0  0  0  0
  148.8021  135.8053  154.7533 H   0  0  0  0  0  0  0  0  0  0  0  0
  150.5084  135.9793  155.0846 H   0  0  0  0  0  0  0  0  0  0  0  0
  151.2609  135.8716  157.4838 H   0  0  0  0  0  0  0  0  0  0  0  0
  147.4737  137.9325  161.7643 H   0  0  0  0  0  0  0  0  0  0  0  0
  148.5435  136.5102  163.4341 H   0  0  0  0  0  0  0  0  0  0  0  0
  146.9475  136.7820  164.1404 H   0  0  0  0  0  0  0  0  0  0  0  0
  148.0895  134.2928  163.0565 H   0  0  0  0  0  0  0  0  0  0  0  0
  146.5204  134.4445  163.8317 H   0  0  0  0  0  0  0  0  0  0  0  0
  146.5626  133.9162  161.1793 H   0  0  0  0  0  0  0  0  0  0  0  0
  144.7024  135.4377  160.6729 H   0  0  0  0  0  0  0  0  0  0  0  0
  143.9071  133.8784  162.3948 H   0  0  0  0  0  0  0  0  0  0  0  0
  144.4877  134.9242  163.6846 H   0  0  0  0  0  0  0  0  0  0  0  0
  142.2081  135.0502  162.3567 H   0  0  0  0  0  0  0  0  0  0  0  0
  145.0559  137.4049  162.8525 H   0  0  0  0  0  0  0  0  0  0  0  0
  145.1091  137.6311  161.1047 H   0  0  0  0  0  0  0  0  0  0  0  0
  144.8803  136.7246  157.4615 H   0  0  0  0  0  0  0  0  0  0  0  0
  1  2  1  0  0  0  0
  1 27  1  0  0  0  0
  1 28  1  0  0  0  0
  1 29  1  0  0  0  0
  2  6  1  0  0  0  0
  2  3  1  0  0  0  0
  2 30  1  0  0  0  0
  3  4  1  0  0  0  0
  4  5  1  0  0  0  0
  4 31  1  0  0  0  0
  4 32  1  0  0  0  0
  5  6  1  0  0  0  0
  5 33  1  0  0  0  0
  5 34  1  0  0  0  0
  6  7  1  0  0  0  0
  6  8  1  0  0  0  0
  7 35  1  0  0  0  0
  8  9  1  0  0  0  0
  8 36  1  0  0  0  0
  8 37  1  0  0  0  0
  9 26  1  0  0  0  0
  9 10  1  0  0  0  0
 10 11  2  0  0  0  0
 10 38  1  0  0  0  0
 11 12  1  0  0  0  0
 12 26  2  0  0  0  0
 12 13  1  0  0  0  0
 13 14  1  0  0  0  0
 13 23  2  0  0  0  0
 14 18  1  0  0  0  0
 14 15  1  0  0  0  0
 15 22  1  0  0  0  0
 15 16  1  0  0  0  0
 15 39  1  0  0  0  0
 16 17  1  0  0  0  0
 16 40  1  0  0  0  0
 16 41  1  0  0  0  0
 17 18  1  0  0  0  0
 17 42  1  0  0  0  0
 17 43  1  0  0  0  0
 18 19  1  0  0  0  0
 18 44  1  0  0  0  0
 19 20  1  0  0  0  0
 19 22  1  0  0  0  0
 19 45  1  0  0  0  0
 20 21  1  0  0  0  0
 20 46  1  0  0  0  0
 20 47  1  0  0  0  0
 21 48  1  0  0  0  0
 22 49  1  0  0  0  0
 22 50  1  0  0  0  0
 23 24  1  0  0  0  0
 24 25  2  0  0  0  0
 24 51  1  0  0  0  0
 25 26  1  0  0  0  0
M  END
> <s_m_source_file>
AV-unprocessed.smi

> <i_m_source_file_index>
199

> <i_lp_mmshare_version>
43012

> <i_f3d_flags>
0

> <s_epik_input>
W0NIMl0xW0NIMl1PW0NAQEhdKFtDSDNdKVtDQEBdMShbT0hdKVtDSDJdbihbY0hdbjIpYyhjMjMpbltjSF1uYzNOKFtDQEBIXTQ1KVtDQEhdKFtDSDJdW0NIMl00KVtDQEhdKFtDSDJdNSlbQ0gyXVtPSF0=

> <s_epik_cmdline>
J2VwaWtfcHl0aG9uJywgJy1waCcsICc3LjAnLCAnLXRuJywgJzgnLCAnLW1hJywgJzIwMCcsICctbWV0YWxfYmluZGluZycsICctaW1hZScsICc8aW5maWxlLm1hZT4nLCAnLW9tYWUnLCAnPG91dGZpbGUubWFlPic=

> <r_lp_tautomer_probability>
1

> <r_epik_Ionization_Penalty>
0.00583903

> <r_epik_Ionization_Penalty_Charging>
0

> <r_epik_Ionization_Penalty_Neutral>
0.00583903

> <r_epik_State_Penalty>
-0

> <r_epik_Charging_Adjusted_Penalty>
0

> <i_epik_Tot_Q>
0

> <i_epik_Tot_abs_Q>
0

> <r_epik_Metal_State_Penalty>
-0

> <b_epik_Metal_Only>
0

> <s_lp_Force_Field>
OPLS_2005

> <r_lp_Energy>
84.0593

> <b_lp_Chiralities_Consistent>
1

> <s_lp_Variant>
AV-unprocessed.smi:199-5

> <Gold.Version>
5.8.1

> <Gold.Id.Protein>
6NUR|6NUR_protein|mol2

> <Gold.PLP.Fitness>
40.9132

> <Gold.PLP.PLP>
-35.1152

> <Gold.PLP.part.hbond>
-3.0000

> <Gold.PLP.part.metal>
0.0000

> <Gold.PLP.part.buried>
-6.1555

> <Gold.PLP.part.nonpolar>
-25.6947

> <Gold.PLP.part.repulsive>
0.0681

> <Gold.PLP.ligand.clash>
0.0000

> <Gold.PLP.ligand.torsion>
1.3841

> <Gold.PLP.Chemscore.Hbond>
2.8500

> <Gold.PLP.Chemscore.CHOScore>
0.0000

> <Gold.PLP.Chemscore.Metal>
0.0000

> <Gold.Chemscore.Hbonds>
donor molecule, donor type, donor heavy atom, donor atom, acceptor molecule, acceptor atom, score
      L1  H     7    35       P1  7948  0.98
      P1  H  6896  6907       L1    11  1.00
      P1  H  7989  7998       L1     3  1.00

> <Gold.PLP.Chemscore.Internal.Correction>
0.0161

> <Gold.Rescore>
     Score         DG    S(hbond)    S(metal)    S(lipo)     H(rot)  DE(clash)    DE(int)     intcor
     10.47     -14.56       1.89        0.00      90.93       3.07       0.06       4.03       ----

> <Gold.Chemscore.Fitness>
10.4695

> <Gold.Chemscore.DG>
-14.5564

> <Gold.Chemscore.ZeroCoef>
-5.4800

> <Gold.Chemscore.Hbond>
1.8874

> <Gold.Chemscore.Metal>
0.0000

> <Gold.Chemscore.Lipo>
90.9336

> <Gold.Chemscore.Internal_Hbond>
0.0000

> <Gold.Chemscore.DEClash>
0.0611

> <Gold.Chemscore.DEInternal>
4.0258

> <Gold.Chemscore.Rot>
3.0729

> <Gold.Chemscore.Internal.Correction>
   9.000000E+99

> <Gold.Chemscore.Hbonds>
donor molecule, donor type, donor heavy atom, donor atom, acceptor molecule, acceptor atom, score
      L1  H     7    35       P1  7948  0.92
      P1  H  6896  6907       L1    11  0.45
      P1  H  7989  7998       L1     3  0.31

> <Gold.Chemscore.Hbond.Weighted>
-6.3038

> <Gold.Chemscore.Metal.Weighted>
-0.0000

> <Gold.Chemscore.Lipo.Weighted>
-10.6392

> <Gold.Chemscore.Internal_Hbond.Weighted>
0.0000

> <Gold.Chemscore.DEClash.Weighted>
0.0611

> <Gold.Chemscore.DEInternal.Weighted>
4.0258

> <Gold.Chemscore.Rot.Weighted>
7.8667

> <Gold.Chemscore.Internal.Correction.Weighted>
   9.000000E+99

> <Gold.Protein.RotatedTorsions>
[ 6907 6896 6895 6894 ] final  -46.28 input  -60.11 | X-H torsion
[ 7974 7965 7964 7962 ] final -165.08 input  175.53 | X-H torsion
[ 8008 7997 7996 7995 ] final  106.98 input   59.86 | X-H torsion
[ 10167 10162 10161 10158 ] final -119.11 input  -65.29 | X-H torsion
[ 10718 10713 10712 10709 ] final   -1.72 input   66.30 | X-H torsion
[ 10763 10752 10751 10750 ] final -114.83 input  -60.55 | X-H torsion
[ 11005 11000 10999 10996 ] final   70.61 input  -57.11 | X-H torsion

> <Gold.Protein.ActiveResidues>
 VAL166  LYS551  ARG553  GLY616  TRP617  ASP618  TYR619  PRO620  LYS621  CYS622 
 ASP623  PHE694  ASN695  SER759  ASP760  ASP761  ALA762  ILE779  LEU786  VAL792 
 PHE793  MET794  SER795  GLU796  ALA797  LYS798  CYS799  TRP800  GLU811  SER814 

> <Gold.Protein.RotatedAtoms>
  150.9129  134.8546  159.7437 H   0  0  0  0  0  0  0  0  0  0  0  0  # atno 6907 bound_to 6896
  152.4954  134.4332  159.9529 H   0  0  0  0  0  0  0  0  0  0  0  0  # atno 6908 bound_to 6896
  151.4372  133.3614  159.2812 H   0  0  0  0  0  0  0  0  0  0  0  0  # atno 6909 bound_to 6896
  144.7279  140.2867  143.6227 H   0  0  0  0  0  0  0  0  0  0  0  0  # atno 7974 bound_to 7965
  156.1787  140.3103  155.9108 H   0  0  0  0  0  0  0  0  0  0  0  0  # atno 8008 bound_to 7997
  155.3430  140.0467  157.3062 H   0  0  0  0  0  0  0  0  0  0  0  0  # atno 8009 bound_to 7997
  154.5319  140.2233  155.8800 H   0  0  0  0  0  0  0  0  0  0  0  0  # atno 8010 bound_to 7997
  140.0502  143.5067  152.2086 H   0  0  0  0  0  0  0  0  0  0  0  0  # atno 10167 bound_to 10162
  156.8015  130.5394  149.5721 H   0  0  0  0  0  0  0  0  0  0  0  0  # atno 10718 bound_to 10713
  154.8456  135.4403  154.1568 H   0  0  0  0  0  0  0  0  0  0  0  0  # atno 10763 bound_to 10752
  153.2715  135.6945  153.7482 H   0  0  0  0  0  0  0  0  0  0  0  0  # atno 10764 bound_to 10752
  153.6721  135.3417  155.3131 H   0  0  0  0  0  0  0  0  0  0  0  0  # atno 10765 bound_to 10752
  139.9588  134.7097  156.0692 H   0  0  0  0  0  0  0  0  0  0  0  0  # atno 11005 bound_to 11000
  145.7896  139.1922  143.2111 LP  0  0  0  0  0  0  0  0  0  0  0  0  # atno 17320 bound_to 7965
  146.0767  140.7809  142.9661 LP  0  0  0  0  0  0  0  0  0  0  0  0  # atno 17321 bound_to 7965
  139.5958  144.7566  151.3290 LP  0  0  0  0  0  0  0  0  0  0  0  0  # atno 17342 bound_to 10162
  140.7220  143.7109  150.7770 LP  0  0  0  0  0  0  0  0  0  0  0  0  # atno 17343 bound_to 10162
  156.1098  130.6032  151.0030 LP  0  0  0  0  0  0  0  0  0  0  0  0  # atno 17370 bound_to 10713
  157.6551  131.0890  150.7964 LP  0  0  0  0  0  0  0  0  0  0  0  0  # atno 17371 bound_to 10713
  141.1263  133.6598  156.3345 LP  0  0  0  0  0  0  0  0  0  0  0  0  # atno 17394 bound_to 11000
  140.5548  134.5992  157.5417 LP  0  0  0  0  0  0  0  0  0  0  0  0  # atno 17395 bound_to 11000

$$$$
