AV-unprocessed.smi:3337|AV-procd|sdf|12868|dock6
  -GOLD-   2272019263D 1   1.00000     0.00000
 Structure written by MMmdl.
 46 47  0  0  0  0  0  0  0  0  2 V2000
  150.0613  145.1787  160.2428 C   0  0  0  0  0  0  0  0  0  0  0  0
  151.3271  144.9375  159.4015 C   0  0  1  0  0  0  0  0  0  0  0  0
  152.4920  144.3559  160.2231 C   0  0  0  0  0  0  0  0  0  0  0  0
  152.2641  142.8720  160.5631 C   0  0  2  0  0  0  0  0  0  0  0  0
  153.4603  142.2838  161.3248 C   0  0  0  0  0  0  0  0  0  0  0  0
  151.9619  142.0704  159.2821 C   0  0  0  0  0  0  0  0  0  0  0  0
  150.8055  142.6414  158.5438 N   0  3  2  0  0  0  0  0  0  0  0  0
  150.3942  141.7896  157.3992 C   0  0  0  0  0  0  0  0  0  0  0  0
  150.2844  140.3011  157.7821 C   0  0  0  0  0  0  0  0  0  0  0  0
  150.4391  139.4363  156.6188 N   0  0  0  0  0  0  0  0  0  0  0  0
  151.6055  139.1644  156.0109 C   0  0  0  0  0  0  0  0  0  0  0  0
  152.6725  139.6672  156.3658 O   0  0  0  0  0  0  0  0  0  0  0  0
  151.5499  138.1877  154.8214 C   0  0  1  0  0  0  0  0  0  0  0  0
  152.8657  138.1365  154.0191 C   0  0  0  0  0  0  0  0  0  0  0  0
  151.1417  136.8565  155.2559 N   0  0  0  0  0  0  0  0  0  0  0  0
  150.0458  136.1539  154.9606 C   0  0  0  0  0  0  0  0  0  0  0  0
  149.9851  134.9735  155.5607 N   0  0  0  0  0  0  0  0  0  0  0  0
  151.1573  135.0126  156.2609 C   0  0  0  0  0  0  0  0  0  0  0  0
  151.8860  136.1196  156.1182 N   0  0  0  0  0  0  0  0  0  0  0  0
  151.0476  144.0598  158.1658 C   0  0  0  0  0  0  0  0  0  0  0  0
  149.6435  144.2494  160.6298 H   0  0  0  0  0  0  0  0  0  0  0  0
  149.2856  145.6645  159.6499 H   0  0  0  0  0  0  0  0  0  0  0  0
  150.2742  145.8262  161.0939 H   0  0  0  0  0  0  0  0  0  0  0  0
  151.6444  145.9167  159.0405 H   0  0  0  0  0  0  0  0  0  0  0  0
  153.4145  144.4545  159.6489 H   0  0  0  0  0  0  0  0  0  0  0  0
  152.6383  144.9376  161.1341 H   0  0  0  0  0  0  0  0  0  0  0  0
  151.3974  142.7978  161.2206 H   0  0  0  0  0  0  0  0  0  0  0  0
  154.3703  142.3190  160.7250 H   0  0  0  0  0  0  0  0  0  0  0  0
  153.2807  141.2433  161.5965 H   0  0  0  0  0  0  0  0  0  0  0  0
  153.6481  142.8354  162.2463 H   0  0  0  0  0  0  0  0  0  0  0  0
  152.8359  142.0506  158.6287 H   0  0  0  0  0  0  0  0  0  0  0  0
  151.7462  141.0360  159.5530 H   0  0  0  0  0  0  0  0  0  0  0  0
  149.4530  142.1546  156.9850 H   0  0  0  0  0  0  0  0  0  0  0  0
  151.1367  141.8836  156.6052 H   0  0  0  0  0  0  0  0  0  0  0  0
  151.0268  140.0450  158.5403 H   0  0  0  0  0  0  0  0  0  0  0  0
  149.3106  140.0796  158.2163 H   0  0  0  0  0  0  0  0  0  0  0  0
  149.6053  138.9878  156.2671 H   0  0  0  0  0  0  0  0  0  0  0  0
  150.7737  138.5585  154.1502 H   0  0  0  0  0  0  0  0  0  0  0  0
  153.1351  139.1212  153.6354 H   0  0  0  0  0  0  0  0  0  0  0  0
  152.7717  137.4690  153.1618 H   0  0  0  0  0  0  0  0  0  0  0  0
  153.6980  137.7775  154.6257 H   0  0  0  0  0  0  0  0  0  0  0  0
  149.2747  136.5142  154.2952 H   0  0  0  0  0  0  0  0  0  0  0  0
  151.4806  134.2035  156.8990 H   0  0  0  0  0  0  0  0  0  0  0  0
  150.1953  144.4689  157.6249 H   0  0  0  0  0  0  0  0  0  0  0  0
  151.8964  144.1053  157.4813 H   0  0  0  0  0  0  0  0  0  0  0  0
  150.0312  142.6375  159.1924 H   0  0  0  0  0  0  0  0  0  0  0  0
  1  2  1  0  0  0  0
  1 21  1  0  0  0  0
  1 22  1  0  0  0  0
  1 23  1  0  0  0  0
  2 20  1  0  0  0  0
  2  3  1  0  0  0  0
  2 24  1  0  0  0  0
  3  4  1  0  0  0  0
  3 25  1  0  0  0  0
  3 26  1  0  0  0  0
  4  5  1  0  0  0  0
  4  6  1  0  0  0  0
  4 27  1  0  0  0  0
  5 28  1  0  0  0  0
  5 29  1  0  0  0  0
  5 30  1  0  0  0  0
  6  7  1  0  0  0  0
  6 31  1  0  0  0  0
  6 32  1  0  0  0  0
  7  8  1  0  0  0  0
  7 20  1  0  0  0  0
  7 46  1  0  0  0  0
  8  9  1  0  0  0  0
  8 33  1  0  0  0  0
  8 34  1  0  0  0  0
  9 10  1  0  0  0  0
  9 35  1  0  0  0  0
  9 36  1  0  0  0  0
 10 11  1  0  0  0  0
 10 37  1  0  0  0  0
 11 12  2  0  0  0  0
 11 13  1  0  0  0  0
 13 14  1  0  0  0  0
 13 15  1  0  0  0  0
 13 38  1  0  0  0  0
 14 39  1  0  0  0  0
 14 40  1  0  0  0  0
 14 41  1  0  0  0  0
 15 19  1  0  0  0  0
 15 16  1  0  0  0  0
 16 17  2  0  0  0  0
 16 42  1  0  0  0  0
 17 18  1  0  0  0  0
 18 19  2  0  0  0  0
 18 43  1  0  0  0  0
 20 44  1  0  0  0  0
 20 45  1  0  0  0  0
M  CHG  1   7   1
M  END
> <s_m_source_file>
AV-unprocessed.smi

> <i_m_source_file_index>
3337

> <i_lp_mmshare_version>
43012

> <i_f3d_flags>
0

> <s_epik_input>
W0NIM11bQ0BASF0xW0NIMl1bQ0BASF0oW0NIM10pW0NIMl1OKFtDSDJdMSlbQ0gyXVtDSDJdW05IXUMoPU8pW0NASF0oW0NIM10pbjJbY0hdbltjSF1uMg==

> <s_epik_cmdline>
J2VwaWtfcHl0aG9uJywgJy1waCcsICc3LjAnLCAnLXRuJywgJzgnLCAnLW1hJywgJzIwMCcsICctbWV0YWxfYmluZGluZycsICctaW1hZScsICc8aW5maWxlLm1hZT4nLCAnLW9tYWUnLCAnPG91dGZpbGUubWFlPic=

> <r_lp_tautomer_probability>
1

> <r_epik_Ionization_Penalty>
0.00175613

> <r_epik_Ionization_Penalty_Charging>
0.00174812

> <r_epik_Ionization_Penalty_Neutral>
8.01354e-06

> <r_epik_State_Penalty>
0.00118332

> <r_epik_Charging_Adjusted_Penalty>
0.00293143

> <i_epik_Tot_Q>
1

> <i_epik_Tot_abs_Q>
1

> <r_epik_Metal_State_Penalty>
-0

> <b_epik_Metal_Only>
0

> <s_lp_Force_Field>
OPLS_2005

> <r_lp_Energy>
24.7561

> <b_lp_Chiralities_Consistent>
1

> <s_lp_Variant>
AV-unprocessed.smi:3337-8

> <Gold.Version>
5.8.1

> <Gold.Id.Protein>
6NUR|6NUR_protein|mol2

> <Gold.PLP.Fitness>
44.1613

> <Gold.PLP.PLP>
-35.9102

> <Gold.PLP.part.hbond>
-2.0000

> <Gold.PLP.part.metal>
0.0000

> <Gold.PLP.part.buried>
-4.6739

> <Gold.PLP.part.nonpolar>
-29.7779

> <Gold.PLP.part.repulsive>
0.1764

> <Gold.PLP.ligand.clash>
0.0000

> <Gold.PLP.ligand.torsion>
0.4339

> <Gold.PLP.Chemscore.Hbond>
2.0000

> <Gold.PLP.Chemscore.CHOScore>
0.9973

> <Gold.PLP.Chemscore.Metal>
0.0000

> <Gold.Chemscore.Hbonds>
donor molecule, donor type, donor heavy atom, donor atom, acceptor molecule, acceptor atom, score
      P1  H  7997  8010       L1    12  1.00
      P1  H 10752 10765       L1    19  0.95
      L1  C    16    42       P1  7948  1.00

> <Gold.PLP.Chemscore.Internal.Correction>
0.1270

> <Gold.Rescore>
     Score         DG    S(hbond)    S(metal)    S(lipo)     H(rot)  DE(clash)    DE(int)     intcor
     15.33     -16.37       1.66        0.00     100.74       2.51       0.54       0.50       ----

> <Gold.Chemscore.Fitness>
15.3321

> <Gold.Chemscore.DG>
-16.3684

> <Gold.Chemscore.ZeroCoef>
-5.4800

> <Gold.Chemscore.Hbond>
1.6570

> <Gold.Chemscore.Metal>
0.0000

> <Gold.Chemscore.Lipo>
100.7449

> <Gold.Chemscore.Internal_Hbond>
0.0000

> <Gold.Chemscore.DEClash>
0.5389

> <Gold.Chemscore.DEInternal>
0.4973

> <Gold.Chemscore.Rot>
2.5129

> <Gold.Chemscore.Internal.Correction>
   9.000000E+99

> <Gold.Chemscore.Hbonds>
donor molecule, donor type, donor heavy atom, donor atom, acceptor molecule, acceptor atom, score
      P1  H  7997  8010       L1    12  1.00
      P1  H 10752 10765       L1    19  0.13

> <Gold.Chemscore.Hbond.Weighted>
-5.5343

> <Gold.Chemscore.Metal.Weighted>
-0.0000

> <Gold.Chemscore.Lipo.Weighted>
-11.7872

> <Gold.Chemscore.Internal_Hbond.Weighted>
0.0000

> <Gold.Chemscore.DEClash.Weighted>
0.5389

> <Gold.Chemscore.DEInternal.Weighted>
0.4973

> <Gold.Chemscore.Rot.Weighted>
6.4331

> <Gold.Chemscore.Internal.Correction.Weighted>
   9.000000E+99

> <Gold.Protein.RotatedTorsions>
[ 6907 6896 6895 6894 ] final  147.80 input  -60.11 | X-H torsion
[ 7974 7965 7964 7962 ] final   65.02 input  175.53 | X-H torsion
[ 8008 7997 7996 7995 ] final   65.70 input   59.86 | X-H torsion
[ 10167 10162 10161 10158 ] final   53.26 input  -65.29 | X-H torsion
[ 10718 10713 10712 10709 ] final   10.10 input   66.30 | X-H torsion
[ 10763 10752 10751 10750 ] final -139.28 input  -60.55 | X-H torsion
[ 11005 11000 10999 10996 ] final    4.48 input  -57.11 | X-H torsion

> <Gold.Protein.ActiveResidues>
 VAL166  LYS551  ARG553  GLY616  TRP617  ASP618  TYR619  PRO620  LYS621  CYS622 
 ASP623  PHE694  ASN695  SER759  ASP760  ASP761  ALA762  ILE779  LEU786  VAL792 
 PHE793  MET794  SER795  GLU796  ALA797  LYS798  CYS799  TRP800  GLU811  SER814 

> <Gold.Protein.RotatedAtoms>
  152.1500  133.4516  159.4808 H   0  0  0  0  0  0  0  0  0  0  0  0  # atno 6907 bound_to 6896
  150.6894  134.2201  159.4402 H   0  0  0  0  0  0  0  0  0  0  0  0  # atno 6908 bound_to 6896
  152.0097  134.9883  160.0618 H   0  0  0  0  0  0  0  0  0  0  0  0  # atno 6909 bound_to 6896
  145.8434  139.3209  143.0918 H   0  0  0  0  0  0  0  0  0  0  0  0  # atno 7974 bound_to 7965
  155.6658  140.3497  155.4800 H   0  0  0  0  0  0  0  0  0  0  0  0  # atno 8008 bound_to 7997
  155.9730  140.1159  157.0818 H   0  0  0  0  0  0  0  0  0  0  0  0  # atno 8009 bound_to 7997
  154.4171  140.1153  156.5318 H   0  0  0  0  0  0  0  0  0  0  0  0  # atno 8010 bound_to 7997
  140.2426  144.3566  150.6375 H   0  0  0  0  0  0  0  0  0  0  0  0  # atno 10167 bound_to 10162
  156.9761  130.5987  149.5672 H   0  0  0  0  0  0  0  0  0  0  0  0  # atno 10718 bound_to 10713
  154.8613  135.3587  154.5521 H   0  0  0  0  0  0  0  0  0  0  0  0  # atno 10763 bound_to 10752
  153.6139  135.7008  153.5341 H   0  0  0  0  0  0  0  0  0  0  0  0  # atno 10764 bound_to 10752
  153.3186  135.4158  155.1358 H   0  0  0  0  0  0  0  0  0  0  0  0  # atno 10765 bound_to 10752
  140.5815  134.0009  155.8049 H   0  0  0  0  0  0  0  0  0  0  0  0  # atno 11005 bound_to 11000
  145.9440  140.8959  143.0293 LP  0  0  0  0  0  0  0  0  0  0  0  0  # atno 17320 bound_to 7965
  144.6732  140.1587  143.7424 LP  0  0  0  0  0  0  0  0  0  0  0  0  # atno 17321 bound_to 7965
  140.6102  143.2169  151.6902 LP  0  0  0  0  0  0  0  0  0  0  0  0  # atno 17342 bound_to 10162
  139.5072  144.3654  152.0522 LP  0  0  0  0  0  0  0  0  0  0  0  0  # atno 17343 bound_to 10162
  156.0263  130.5357  150.8415 LP  0  0  0  0  0  0  0  0  0  0  0  0  # atno 17370 bound_to 10713
  157.5559  131.0945  150.9629 LP  0  0  0  0  0  0  0  0  0  0  0  0  # atno 17371 bound_to 10713
  141.0993  133.9793  157.3106 LP  0  0  0  0  0  0  0  0  0  0  0  0  # atno 17394 bound_to 11000
  139.9315  135.0199  156.8416 LP  0  0  0  0  0  0  0  0  0  0  0  0  # atno 17395 bound_to 11000

$$$$
