AV-unprocessed.smi:2250|AV-procd|sdf|9100|dock7
  -GOLD-   2272012303D 1   1.00000     0.00000
 Structure written by MMmdl.
 43 44  0  0  0  0  0  0  0  0  1 V2000
  143.6631  143.8110  162.7320 C   0  0  0  0  0  0  0  0  0  0  0  0
  144.7075  143.6970  161.6417 C   0  0  0  0  0  0  0  0  0  0  0  0
  145.4416  144.8198  161.2148 C   0  0  0  0  0  0  0  0  0  0  0  0
  146.4020  144.6560  160.1983 C   0  0  0  0  0  0  0  0  0  0  0  0
  146.6051  143.3773  159.6321 C   0  0  0  0  0  0  0  0  0  0  0  0
  147.5959  143.3214  158.6163 N   0  0  0  0  0  0  0  0  0  0  0  0
  148.2093  142.2372  158.1099 C   0  0  0  0  0  0  0  0  0  0  0  0
  147.9867  141.0724  158.4417 O   0  0  0  0  0  0  0  0  0  0  0  0
  149.1076  142.5842  157.1780 N   0  0  0  0  0  0  0  0  0  0  0  0
  149.9485  141.6556  156.4323 C   0  0  0  0  0  0  0  0  0  0  0  0
  151.4330  142.0191  156.6171 C   0  0  0  0  0  0  0  0  0  0  0  0
  151.9136  141.9642  158.0781 C   0  0  0  0  0  0  0  0  0  0  0  0
  151.8333  140.8995  158.6930 O   0  0  0  0  0  0  0  0  0  0  0  0
  152.4057  143.0912  158.6488 N   0  0  0  0  0  0  0  0  0  0  0  0
  152.4881  144.4093  158.0041 C   0  0  0  0  0  0  0  0  0  0  0  0
  151.4331  145.3343  158.6376 C   0  0  0  0  0  0  0  0  0  0  0  0
  151.6302  145.4252  160.1632 C   0  0  0  0  0  0  0  0  0  0  0  0
  151.7466  144.0307  160.8086 C   0  0  0  0  0  0  0  0  0  0  0  0
  152.7803  143.1625  160.0673 C   0  0  0  0  0  0  0  0  0  0  0  0
  145.8943  142.3010  160.0514 N   0  0  0  0  0  0  0  0  0  0  0  0
  144.9746  142.4586  161.0263 C   0  0  0  0  0  0  0  0  0  0  0  0
  143.4309  144.8542  162.9490 H   0  0  0  0  0  0  0  0  0  0  0  0
  144.0224  143.3419  163.6480 H   0  0  0  0  0  0  0  0  0  0  0  0
  142.7410  143.3140  162.4296 H   0  0  0  0  0  0  0  0  0  0  0  0
  145.2747  145.7917  161.6557 H   0  0  0  0  0  0  0  0  0  0  0  0
  146.9738  145.5073  159.8587 H   0  0  0  0  0  0  0  0  0  0  0  0
  147.8722  144.2125  158.2315 H   0  0  0  0  0  0  0  0  0  0  0  0
  149.2179  143.5651  156.9668 H   0  0  0  0  0  0  0  0  0  0  0  0
  149.7757  140.6294  156.7629 H   0  0  0  0  0  0  0  0  0  0  0  0
  149.6659  141.7077  155.3799 H   0  0  0  0  0  0  0  0  0  0  0  0
  152.0493  141.3413  156.0250 H   0  0  0  0  0  0  0  0  0  0  0  0
  151.5934  143.0270  156.2315 H   0  0  0  0  0  0  0  0  0  0  0  0
  153.4857  144.8219  158.1618 H   0  0  0  0  0  0  0  0  0  0  0  0
  152.3596  144.3794  156.9234 H   0  0  0  0  0  0  0  0  0  0  0  0
  151.4890  146.3289  158.1941 H   0  0  0  0  0  0  0  0  0  0  0  0
  150.4350  144.9525  158.4187 H   0  0  0  0  0  0  0  0  0  0  0  0
  152.5406  145.9891  160.3705 H   0  0  0  0  0  0  0  0  0  0  0  0
  150.8118  145.9849  160.6169 H   0  0  0  0  0  0  0  0  0  0  0  0
  152.0208  144.1271  161.8595 H   0  0  0  0  0  0  0  0  0  0  0  0
  150.7747  143.5357  160.7865 H   0  0  0  0  0  0  0  0  0  0  0  0
  152.8472  142.1813  160.5389 H   0  0  0  0  0  0  0  0  0  0  0  0
  153.7749  143.6017  160.1577 H   0  0  0  0  0  0  0  0  0  0  0  0
  144.4372  141.5697  161.3231 H   0  0  0  0  0  0  0  0  0  0  0  0
  1  2  1  0  0  0  0
  1 22  1  0  0  0  0
  1 23  1  0  0  0  0
  1 24  1  0  0  0  0
  2 21  1  0  0  0  0
  2  3  2  0  0  0  0
  3  4  1  0  0  0  0
  3 25  1  0  0  0  0
  4  5  2  0  0  0  0
  4 26  1  0  0  0  0
  5  6  1  0  0  0  0
  5 20  1  0  0  0  0
  6  7  1  0  0  0  0
  6 27  1  0  0  0  0
  7  8  2  0  0  0  0
  7  9  1  0  0  0  0
  9 10  1  0  0  0  0
  9 28  1  0  0  0  0
 10 11  1  0  0  0  0
 10 29  1  0  0  0  0
 10 30  1  0  0  0  0
 11 12  1  0  0  0  0
 11 31  1  0  0  0  0
 11 32  1  0  0  0  0
 12 13  2  0  0  0  0
 12 14  1  0  0  0  0
 14 19  1  0  0  0  0
 14 15  1  0  0  0  0
 15 16  1  0  0  0  0
 15 33  1  0  0  0  0
 15 34  1  0  0  0  0
 16 17  1  0  0  0  0
 16 35  1  0  0  0  0
 16 36  1  0  0  0  0
 17 18  1  0  0  0  0
 17 37  1  0  0  0  0
 17 38  1  0  0  0  0
 18 19  1  0  0  0  0
 18 39  1  0  0  0  0
 18 40  1  0  0  0  0
 19 41  1  0  0  0  0
 19 42  1  0  0  0  0
 20 21  2  0  0  0  0
 21 43  1  0  0  0  0
M  END
> <s_m_source_file>
AV-unprocessed.smi

> <i_m_source_file_index>
2250

> <i_lp_mmshare_version>
43012

> <i_f3d_flags>
0

> <s_epik_input>
W0NIM11jMVtjSF1bY0hdYyhuW2NIXTEpW05IXUMoPU8pW05IXVtDSDJdW0NIMl1DKD1PKU4yW0NIMl1bQ0gyXVtDSDJdW0NIMl1bQ0gyXTI=

> <s_epik_cmdline>
J2VwaWtfcHl0aG9uJywgJy1waCcsICc3LjAnLCAnLXRuJywgJzgnLCAnLW1hJywgJzIwMCcsICctbWV0YWxfYmluZGluZycsICctaW1hZScsICc8aW5maWxlLm1hZT4nLCAnLW9tYWUnLCAnPG91dGZpbGUubWFlPic=

> <r_lp_tautomer_probability>
1

> <r_epik_Ionization_Penalty>
5.00358e-05

> <r_epik_Ionization_Penalty_Charging>
0

> <r_epik_Ionization_Penalty_Neutral>
5.00358e-05

> <r_epik_State_Penalty>
-0

> <r_epik_Charging_Adjusted_Penalty>
0

> <i_epik_Tot_Q>
0

> <i_epik_Tot_abs_Q>
0

> <r_epik_Metal_State_Penalty>
-0

> <b_epik_Metal_Only>
0

> <s_lp_Force_Field>
OPLS_2005

> <r_lp_Energy>
26.56

> <b_lp_Chiralities_Consistent>
1

> <s_lp_Variant>
AV-unprocessed.smi:2250-1

> <Gold.Version>
5.8.1

> <Gold.Id.Protein>
6NUR|6NUR_protein|mol2

> <Gold.PLP.Fitness>
55.8777

> <Gold.PLP.PLP>
-47.7438

> <Gold.PLP.part.hbond>
-4.0000

> <Gold.PLP.part.metal>
0.0000

> <Gold.PLP.part.buried>
-5.2469

> <Gold.PLP.part.nonpolar>
-37.7996

> <Gold.PLP.part.repulsive>
0.1423

> <Gold.PLP.ligand.clash>
0.0000

> <Gold.PLP.ligand.torsion>
0.0697

> <Gold.PLP.Chemscore.Hbond>
2.7520

> <Gold.PLP.Chemscore.CHOScore>
0.0000

> <Gold.PLP.Chemscore.Metal>
0.0000

> <Gold.Chemscore.Hbonds>
donor molecule, donor type, donor heavy atom, donor atom, acceptor molecule, acceptor atom, score
      L1  H     6    27       P1  8029  1.00
      L1  H     9    28       P1  8028  0.82
      P1  H  6934  6946       L1    20  1.00

> <Gold.PLP.Chemscore.Internal.Correction>
0.0172

> <Gold.Rescore>
     Score         DG    S(hbond)    S(metal)    S(lipo)     H(rot)  DE(clash)    DE(int)     intcor
     18.98     -20.68       1.91        0.00     108.46       1.51       0.42       1.29       ----

> <Gold.Chemscore.Fitness>
18.9768

> <Gold.Chemscore.DG>
-20.6840

> <Gold.Chemscore.ZeroCoef>
-5.4800

> <Gold.Chemscore.Hbond>
1.9124

> <Gold.Chemscore.Metal>
0.0000

> <Gold.Chemscore.Lipo>
108.4607

> <Gold.Chemscore.Internal_Hbond>
0.0000

> <Gold.Chemscore.DEClash>
0.4173

> <Gold.Chemscore.DEInternal>
1.2899

> <Gold.Chemscore.Rot>
1.5131

> <Gold.Chemscore.Internal.Correction>
   9.000000E+99

> <Gold.Chemscore.Hbonds>
donor molecule, donor type, donor heavy atom, donor atom, acceptor molecule, acceptor atom, score
      L1  H     6    27       P1  8029  0.44
      L1  H     9    28       P1  8028  0.64
      P1  H  6934  6946       L1    20  0.28

> <Gold.Chemscore.Hbond.Weighted>
-6.3876

> <Gold.Chemscore.Metal.Weighted>
-0.0000

> <Gold.Chemscore.Lipo.Weighted>
-12.6899

> <Gold.Chemscore.Internal_Hbond.Weighted>
0.0000

> <Gold.Chemscore.DEClash.Weighted>
0.4173

> <Gold.Chemscore.DEInternal.Weighted>
1.2899

> <Gold.Chemscore.Rot.Weighted>
3.8735

> <Gold.Chemscore.Internal.Correction.Weighted>
   9.000000E+99

> <Gold.Protein.RotatedTorsions>
[ 6907 6896 6895 6894 ] final   86.44 input  -60.11 | X-H torsion
[ 7974 7965 7964 7962 ] final -174.45 input  175.53 | X-H torsion
[ 8008 7997 7996 7995 ] final   31.61 input   59.86 | X-H torsion
[ 10167 10162 10161 10158 ] final -170.56 input  -65.29 | X-H torsion
[ 10718 10713 10712 10709 ] final  -34.68 input   66.30 | X-H torsion
[ 10763 10752 10751 10750 ] final   -5.41 input  -60.55 | X-H torsion
[ 11005 11000 10999 10996 ] final   -8.21 input  -57.11 | X-H torsion

> <Gold.Protein.ActiveResidues>
 VAL166  LYS551  ARG553  GLY616  TRP617  ASP618  TYR619  PRO620  LYS621  CYS622 
 ASP623  PHE694  ASN695  SER759  ASP760  ASP761  ALA762  ILE779  LEU786  VAL792 
 PHE793  MET794  SER795  GLU796  ALA797  LYS798  CYS799  TRP800  GLU811  SER814 

> <Gold.Protein.RotatedAtoms>
  152.5394  134.2431  159.8869 H   0  0  0  0  0  0  0  0  0  0  0  0  # atno 6907 bound_to 6896
  151.2398  133.4399  159.2614 H   0  0  0  0  0  0  0  0  0  0  0  0  # atno 6908 bound_to 6896
  151.0638  134.9767  159.8330 H   0  0  0  0  0  0  0  0  0  0  0  0  # atno 6909 bound_to 6896
  144.7132  140.1469  143.6387 H   0  0  0  0  0  0  0  0  0  0  0  0  # atno 7974 bound_to 7965
  155.1092  140.3237  155.4526 H   0  0  0  0  0  0  0  0  0  0  0  0  # atno 8008 bound_to 7997
  156.2695  140.2047  156.6164 H   0  0  0  0  0  0  0  0  0  0  0  0  # atno 8009 bound_to 7997
  154.6769  140.0530  157.0212 H   0  0  0  0  0  0  0  0  0  0  0  0  # atno 8010 bound_to 7997
  139.5854  144.1329  152.1569 H   0  0  0  0  0  0  0  0  0  0  0  0  # atno 10167 bound_to 10162
  156.3476  130.4303  149.7732 H   0  0  0  0  0  0  0  0  0  0  0  0  # atno 10718 bound_to 10713
  153.3981  135.7004  153.6446 H   0  0  0  0  0  0  0  0  0  0  0  0  # atno 10763 bound_to 10752
  153.4991  135.3656  155.2531 H   0  0  0  0  0  0  0  0  0  0  0  0  # atno 10764 bound_to 10752
  154.8708  135.4107  154.3310 H   0  0  0  0  0  0  0  0  0  0  0  0  # atno 10765 bound_to 10752
  140.7211  133.8828  155.8821 H   0  0  0  0  0  0  0  0  0  0  0  0  # atno 11005 bound_to 11000
  145.9151  139.2511  143.1414 LP  0  0  0  0  0  0  0  0  0  0  0  0  # atno 17320 bound_to 7965
  145.9676  140.8786  143.0179 LP  0  0  0  0  0  0  0  0  0  0  0  0  # atno 17321 bound_to 7965
  140.0892  144.5635  150.7067 LP  0  0  0  0  0  0  0  0  0  0  0  0  # atno 17342 bound_to 10162
  140.7127  143.2518  151.4532 LP  0  0  0  0  0  0  0  0  0  0  0  0  # atno 17343 bound_to 10162
  156.4945  130.8100  151.3108 LP  0  0  0  0  0  0  0  0  0  0  0  0  # atno 17370 bound_to 10713
  157.7456  130.9965  150.2781 LP  0  0  0  0  0  0  0  0  0  0  0  0  # atno 17371 bound_to 10713
  141.0003  134.1159  157.4324 LP  0  0  0  0  0  0  0  0  0  0  0  0  # atno 17394 bound_to 11000
  139.8848  135.0066  156.6392 LP  0  0  0  0  0  0  0  0  0  0  0  0  # atno 17395 bound_to 11000

$$$$
