AV-unprocessed.smi:1538|AV-procd|sdf|6195|dock1
  -GOLD-   22720 6363D 1   1.00000     0.00000
 Structure written by MMmdl.
 36 37  0  0  0  0  0  0  0  0  1 V2000
  151.9451  145.3689  160.3485 C   0  0  0  0  0  0  0  0  0  0  0  0
  152.0919  143.9862  159.8902 N   0  0  0  0  0  0  0  0  0  0  0  0
  152.4594  143.0210  160.9360 C   0  0  0  0  0  0  0  0  0  0  0  0
  153.0165  141.7022  160.3852 C   0  0  0  0  0  0  0  0  0  0  0  0
  152.1071  141.1732  159.2687 C   0  0  2  0  0  0  0  0  0  0  0  0
  152.6131  139.8208  158.7484 C   0  0  0  0  0  0  0  0  0  0  0  0
  153.8191  139.6250  158.5930 O   0  0  0  0  0  0  0  0  0  0  0  0
  151.6789  138.8952  158.4815 N   0  0  0  0  0  0  0  0  0  0  0  0
  151.9490  137.5562  157.9720 C   0  0  0  0  0  0  0  0  0  0  0  0
  152.7174  137.6031  156.6411 C   0  0  0  0  0  0  0  0  0  0  0  0
  151.9125  138.1803  155.5843 N   0  0  0  0  0  0  0  0  0  0  0  0
  151.3010  137.5070  154.5352 C   0  0  0  0  0  0  0  0  0  0  0  0
  150.6461  138.4588  153.7865 C   0  0  0  0  0  0  0  0  0  0  0  0
  150.8392  139.7162  154.3539 N   0  0  0  0  0  0  0  0  0  0  0  0
  151.5981  139.4717  155.4145 C   0  0  0  0  0  0  0  0  0  0  0  0
  152.0300  142.2094  158.1293 C   0  0  0  0  0  0  0  0  0  0  0  0
  151.8279  143.6591  158.6018 C   0  0  0  0  0  0  0  0  0  0  0  0
  151.4569  144.4903  157.7724 O   0  0  0  0  0  0  0  0  0  0  0  0
  150.9498  145.7521  160.1180 H   0  0  0  0  0  0  0  0  0  0  0  0
  152.6800  146.0112  159.8615 H   0  0  0  0  0  0  0  0  0  0  0  0
  152.0851  145.4629  161.4260 H   0  0  0  0  0  0  0  0  0  0  0  0
  153.1948  143.4610  161.6110 H   0  0  0  0  0  0  0  0  0  0  0  0
  151.5694  142.8191  161.5332 H   0  0  0  0  0  0  0  0  0  0  0  0
  154.0254  141.8682  160.0031 H   0  0  0  0  0  0  0  0  0  0  0  0
  153.1052  140.9736  161.1922 H   0  0  0  0  0  0  0  0  0  0  0  0
  151.1046  141.0342  159.6786 H   0  0  0  0  0  0  0  0  0  0  0  0
  150.7113  139.1374  158.6394 H   0  0  0  0  0  0  0  0  0  0  0  0
  152.5013  136.9777  158.7146 H   0  0  0  0  0  0  0  0  0  0  0  0
  150.9936  137.0493  157.8321 H   0  0  0  0  0  0  0  0  0  0  0  0
  153.6295  138.1922  156.7465 H   0  0  0  0  0  0  0  0  0  0  0  0
  153.0201  136.6015  156.3330 H   0  0  0  0  0  0  0  0  0  0  0  0
  151.3795  136.4367  154.4123 H   0  0  0  0  0  0  0  0  0  0  0  0
  150.0552  138.3362  152.8908 H   0  0  0  0  0  0  0  0  0  0  0  0
  151.9326  140.2506  156.0840 H   0  0  0  0  0  0  0  0  0  0  0  0
  152.9467  142.1950  157.5378 H   0  0  0  0  0  0  0  0  0  0  0  0
  151.2202  141.9466  157.4472 H   0  0  0  0  0  0  0  0  0  0  0  0
  1  2  1  0  0  0  0
  1 19  1  0  0  0  0
  1 20  1  0  0  0  0
  1 21  1  0  0  0  0
  2 17  1  0  0  0  0
  2  3  1  0  0  0  0
  3  4  1  0  0  0  0
  3 22  1  0  0  0  0
  3 23  1  0  0  0  0
  4  5  1  0  0  0  0
  4 24  1  0  0  0  0
  4 25  1  0  0  0  0
  5  6  1  0  0  0  0
  5 16  1  0  0  0  0
  5 26  1  0  0  0  0
  6  7  2  0  0  0  0
  6  8  1  0  0  0  0
  8  9  1  0  0  0  0
  8 27  1  0  0  0  0
  9 10  1  0  0  0  0
  9 28  1  0  0  0  0
  9 29  1  0  0  0  0
 10 11  1  0  0  0  0
 10 30  1  0  0  0  0
 10 31  1  0  0  0  0
 11 15  1  0  0  0  0
 11 12  1  0  0  0  0
 12 13  2  0  0  0  0
 12 32  1  0  0  0  0
 13 14  1  0  0  0  0
 13 33  1  0  0  0  0
 14 15  2  0  0  0  0
 15 34  1  0  0  0  0
 16 17  1  0  0  0  0
 16 35  1  0  0  0  0
 16 36  1  0  0  0  0
 17 18  2  0  0  0  0
M  END
> <s_m_source_file>
AV-unprocessed.smi

> <i_m_source_file_index>
1538

> <i_lp_mmshare_version>
43012

> <i_f3d_flags>
0

> <s_epik_input>
W0NIM11OMVtDSDJdW0NIMl1bQ0BIXShbQ0gyXUMxPU8pQyg9TylbTkhdW0NIMl1bQ0gyXW4yW2NIXVtjSF1uW2NIXTI=

> <s_epik_cmdline>
J2VwaWtfcHl0aG9uJywgJy1waCcsICc3LjAnLCAnLXRuJywgJzgnLCAnLW1hJywgJzIwMCcsICctbWV0YWxfYmluZGluZycsICctaW1hZScsICc8aW5maWxlLm1hZT4nLCAnLW9tYWUnLCAnPG91dGZpbGUubWFlPic=

> <r_lp_tautomer_probability>
1

> <r_epik_Ionization_Penalty>
0.590576

> <r_epik_Ionization_Penalty_Charging>
0.590576

> <r_epik_Ionization_Penalty_Neutral>
2.97775e-08

> <r_epik_State_Penalty>
0.604111

> <r_epik_Charging_Adjusted_Penalty>
1.19469

> <i_epik_Tot_Q>
0

> <i_epik_Tot_abs_Q>
0

> <r_epik_Metal_State_Penalty>
0.298544

> <b_epik_Metal_Only>
0

> <s_lp_Force_Field>
OPLS_2005

> <r_lp_Energy>
14.6501

> <b_lp_Chiralities_Consistent>
1

> <s_lp_Variant>
AV-unprocessed.smi:1538-4

> <Gold.Version>
5.8.1

> <Gold.Id.Protein>
6NUR|6NUR_protein|mol2

> <Gold.PLP.Fitness>
49.5293

> <Gold.PLP.PLP>
-39.2007

> <Gold.PLP.part.hbond>
-2.0000

> <Gold.PLP.part.metal>
0.0000

> <Gold.PLP.part.buried>
-6.2050

> <Gold.PLP.part.nonpolar>
-31.0873

> <Gold.PLP.part.repulsive>
0.3484

> <Gold.PLP.ligand.clash>
0.0000

> <Gold.PLP.ligand.torsion>
0.7680

> <Gold.PLP.Chemscore.Hbond>
2.0000

> <Gold.PLP.Chemscore.CHOScore>
1.9398

> <Gold.PLP.Chemscore.Metal>
0.0000

> <Gold.Chemscore.Hbonds>
donor molecule, donor type, donor heavy atom, donor atom, acceptor molecule, acceptor atom, score
      P1  H  7989  7998       L1    14  1.00
      P1  H  7997  8008       L1     7  1.00
      L1  C    13    33       P1  7948  0.99
      L1  C    13    33       P1  7957  0.95

> <Gold.PLP.Chemscore.Internal.Correction>
0.0453

> <Gold.Rescore>
     Score         DG    S(hbond)    S(metal)    S(lipo)     H(rot)  DE(clash)    DE(int)     intcor
     14.05     -15.92       1.93        0.00      77.42       1.98       0.19       1.69       ----

> <Gold.Chemscore.Fitness>
14.0471

> <Gold.Chemscore.DG>
-15.9217

> <Gold.Chemscore.ZeroCoef>
-5.4800

> <Gold.Chemscore.Hbond>
1.9303

> <Gold.Chemscore.Metal>
0.0000

> <Gold.Chemscore.Lipo>
77.4247

> <Gold.Chemscore.Internal_Hbond>
0.0000

> <Gold.Chemscore.DEClash>
0.1858

> <Gold.Chemscore.DEInternal>
1.6887

> <Gold.Chemscore.Rot>
1.9782

> <Gold.Chemscore.Internal.Correction>
   9.000000E+99

> <Gold.Chemscore.Hbonds>
donor molecule, donor type, donor heavy atom, donor atom, acceptor molecule, acceptor atom, score
      P1  H  7989  7998       L1    14  0.53
      P1  H  7997  8008       L1     7  0.96

> <Gold.Chemscore.Hbond.Weighted>
-6.4473

> <Gold.Chemscore.Metal.Weighted>
-0.0000

> <Gold.Chemscore.Lipo.Weighted>
-9.0587

> <Gold.Chemscore.Internal_Hbond.Weighted>
0.0000

> <Gold.Chemscore.DEClash.Weighted>
0.1858

> <Gold.Chemscore.DEInternal.Weighted>
1.6887

> <Gold.Chemscore.Rot.Weighted>
5.0643

> <Gold.Chemscore.Internal.Correction.Weighted>
   9.000000E+99

> <Gold.Protein.RotatedTorsions>
[ 6907 6896 6895 6894 ] final   -8.26 input  -60.11 | X-H torsion
[ 7974 7965 7964 7962 ] final   10.30 input  175.53 | X-H torsion
[ 8008 7997 7996 7995 ] final -115.60 input   59.86 | X-H torsion
[ 10167 10162 10161 10158 ] final  167.53 input  -65.29 | X-H torsion
[ 10718 10713 10712 10709 ] final   -7.16 input   66.30 | X-H torsion
[ 10763 10752 10751 10750 ] final   42.01 input  -60.55 | X-H torsion
[ 11005 11000 10999 10996 ] final   75.84 input  -57.11 | X-H torsion

> <Gold.Protein.ActiveResidues>
 VAL166  LYS551  ARG553  GLY616  TRP617  ASP618  TYR619  PRO620  LYS621  CYS622 
 ASP623  PHE694  ASN695  SER759  ASP760  ASP761  ALA762  ILE779  LEU786  VAL792 
 PHE793  MET794  SER795  GLU796  ALA797  LYS798  CYS799  TRP800  GLU811  SER814 

> <Gold.Protein.RotatedAtoms>
  151.4364  135.1015  159.9657 H   0  0  0  0  0  0  0  0  0  0  0  0  # atno 6907 bound_to 6896
  152.4938  133.8569  159.7241 H   0  0  0  0  0  0  0  0  0  0  0  0  # atno 6908 bound_to 6896
  150.9118  133.6929  159.2880 H   0  0  0  0  0  0  0  0  0  0  0  0  # atno 6909 bound_to 6896
  146.2390  139.9654  142.8453 H   0  0  0  0  0  0  0  0  0  0  0  0  # atno 7974 bound_to 7965
  155.0545  140.0393  157.2555 H   0  0  0  0  0  0  0  0  0  0  0  0  # atno 8008 bound_to 7997
  154.7110  140.2692  155.6605 H   0  0  0  0  0  0  0  0  0  0  0  0  # atno 8009 bound_to 7997
  156.2789  140.2721  156.1751 H   0  0  0  0  0  0  0  0  0  0  0  0  # atno 8010 bound_to 7997
  139.4947  144.3912  151.9515 H   0  0  0  0  0  0  0  0  0  0  0  0  # atno 10167 bound_to 10162
  156.7213  130.5151  149.5867 H   0  0  0  0  0  0  0  0  0  0  0  0  # atno 10718 bound_to 10713
  152.9893  135.6144  154.2880 H   0  0  0  0  0  0  0  0  0  0  0  0  # atno 10763 bound_to 10752
  154.2606  135.2782  155.2781 H   0  0  0  0  0  0  0  0  0  0  0  0  # atno 10764 bound_to 10752
  154.5209  135.5815  153.6737 H   0  0  0  0  0  0  0  0  0  0  0  0  # atno 10765 bound_to 10752
  139.9325  134.7551  156.1321 H   0  0  0  0  0  0  0  0  0  0  0  0  # atno 11005 bound_to 11000
  145.1731  140.9730  143.4310 LP  0  0  0  0  0  0  0  0  0  0  0  0  # atno 17320 bound_to 7965
  145.0010  139.3598  143.6167 LP  0  0  0  0  0  0  0  0  0  0  0  0  # atno 17321 bound_to 7965
  140.3349  144.3272  150.5979 LP  0  0  0  0  0  0  0  0  0  0  0  0  # atno 17342 bound_to 10162
  140.5614  143.2191  151.7759 LP  0  0  0  0  0  0  0  0  0  0  0  0  # atno 17343 bound_to 10162
  156.1593  130.6363  151.0697 LP  0  0  0  0  0  0  0  0  0  0  0  0  # atno 17370 bound_to 10713
  157.6897  131.0814  150.7143 LP  0  0  0  0  0  0  0  0  0  0  0  0  # atno 17371 bound_to 10713
  141.0922  133.6710  156.2565 LP  0  0  0  0  0  0  0  0  0  0  0  0  # atno 17394 bound_to 11000
  140.6163  134.5407  157.5541 LP  0  0  0  0  0  0  0  0  0  0  0  0  # atno 17395 bound_to 11000

$$$$
