AV-unprocessed.smi:3241|AV-procd|sdf|12389|dock6
  -GOLD-   2272018253D 1   1.00000     0.00000
 Structure written by MMmdl.
 43 44  0  0  0  0  0  0  0  0  1 V2000
  151.6327  144.2937  157.7903 C   0  0  0  0  0  0  0  0  0  0  0  0
  151.8117  143.2570  158.9126 C   0  0  2  0  0  0  0  0  0  0  0  0
  152.9781  143.6518  159.8403 C   0  0  0  0  0  0  0  0  0  0  0  0
  153.1782  142.6292  160.9691 C   0  0  0  0  0  0  0  0  0  0  0  0
  153.3934  141.2182  160.4036 C   0  0  0  0  0  0  0  0  0  0  0  0
  152.2333  140.8091  159.4836 C   0  0  0  0  0  0  0  0  0  0  0  0
  152.0207  141.8331  158.3488 C   0  0  1  0  0  0  0  0  0  0  0  0
  150.8584  141.4965  157.6030 O   0  0  0  0  0  0  0  0  0  0  0  0
  150.9727  141.6738  156.1987 C   0  0  0  0  0  0  0  0  0  0  0  0
  149.7221  141.0720  155.5515 C   0  0  0  0  0  0  0  0  0  0  0  0
  149.1815  141.9852  154.5515 N   0  0  0  0  0  0  0  0  0  0  0  0
  148.1435  141.3962  153.7119 C   0  0  0  0  0  0  0  0  0  0  0  0
  146.8890  141.0533  154.5319 C   0  0  0  0  0  0  0  0  0  0  0  0
  146.0519  142.2181  154.7646 N   0  0  0  0  0  0  0  0  0  0  0  0
  145.5399  143.1034  153.8393 C   0  0  0  0  0  0  0  0  0  0  0  0
  144.8012  144.0255  154.5240 C   0  0  0  0  0  0  0  0  0  0  0  0
  144.9241  143.6167  155.8813 C   0  0  0  0  0  0  0  0  0  0  0  0
  145.6731  142.5351  156.0222 N   0  0  0  0  0  0  0  0  0  0  0  0
  152.5097  144.3349  157.1436 H   0  0  0  0  0  0  0  0  0  0  0  0
  151.4731  145.2918  158.1988 H   0  0  0  0  0  0  0  0  0  0  0  0
  150.7712  144.0574  157.1654 H   0  0  0  0  0  0  0  0  0  0  0  0
  150.8976  143.2544  159.5085 H   0  0  0  0  0  0  0  0  0  0  0  0
  153.8983  143.7359  159.2603 H   0  0  0  0  0  0  0  0  0  0  0  0
  152.7952  144.6370  160.2709 H   0  0  0  0  0  0  0  0  0  0  0  0
  154.0307  142.9170  161.5850 H   0  0  0  0  0  0  0  0  0  0  0  0
  152.3067  142.6324  161.6250 H   0  0  0  0  0  0  0  0  0  0  0  0
  154.3311  141.1852  159.8473 H   0  0  0  0  0  0  0  0  0  0  0  0
  153.4916  140.5016  161.2195 H   0  0  0  0  0  0  0  0  0  0  0  0
  152.4338  139.8195  159.0733 H   0  0  0  0  0  0  0  0  0  0  0  0
  151.3184  140.7203  160.0711 H   0  0  0  0  0  0  0  0  0  0  0  0
  152.8962  141.8463  157.6966 H   0  0  0  0  0  0  0  0  0  0  0  0
  151.0666  142.7285  155.9342 H   0  0  0  0  0  0  0  0  0  0  0  0
  151.8620  141.1613  155.8321 H   0  0  0  0  0  0  0  0  0  0  0  0
  149.9710  140.1202  155.0813 H   0  0  0  0  0  0  0  0  0  0  0  0
  148.9796  140.8593  156.3216 H   0  0  0  0  0  0  0  0  0  0  0  0
  148.8150  142.8129  155.0122 H   0  0  0  0  0  0  0  0  0  0  0  0
  147.8797  142.0876  152.9111 H   0  0  0  0  0  0  0  0  0  0  0  0
  148.5175  140.4912  153.2318 H   0  0  0  0  0  0  0  0  0  0  0  0
  146.3032  140.2788  154.0339 H   0  0  0  0  0  0  0  0  0  0  0  0
  147.1813  140.6484  155.5013 H   0  0  0  0  0  0  0  0  0  0  0  0
  145.7383  143.0016  152.7826 H   0  0  0  0  0  0  0  0  0  0  0  0
  144.2550  144.8637  154.1174 H   0  0  0  0  0  0  0  0  0  0  0  0
  144.4922  144.0684  156.7622 H   0  0  0  0  0  0  0  0  0  0  0  0
  1  2  1  0  0  0  0
  1 19  1  0  0  0  0
  1 20  1  0  0  0  0
  1 21  1  0  0  0  0
  2  7  1  0  0  0  0
  2  3  1  0  0  0  0
  2 22  1  0  0  0  0
  3  4  1  0  0  0  0
  3 23  1  0  0  0  0
  3 24  1  0  0  0  0
  4  5  1  0  0  0  0
  4 25  1  0  0  0  0
  4 26  1  0  0  0  0
  5  6  1  0  0  0  0
  5 27  1  0  0  0  0
  5 28  1  0  0  0  0
  6  7  1  0  0  0  0
  6 29  1  0  0  0  0
  6 30  1  0  0  0  0
  7  8  1  0  0  0  0
  7 31  1  0  0  0  0
  8  9  1  0  0  0  0
  9 10  1  0  0  0  0
  9 32  1  0  0  0  0
  9 33  1  0  0  0  0
 10 11  1  0  0  0  0
 10 34  1  0  0  0  0
 10 35  1  0  0  0  0
 11 12  1  0  0  0  0
 11 36  1  0  0  0  0
 12 13  1  0  0  0  0
 12 37  1  0  0  0  0
 12 38  1  0  0  0  0
 13 14  1  0  0  0  0
 13 39  1  0  0  0  0
 13 40  1  0  0  0  0
 14 18  1  0  0  0  0
 14 15  1  0  0  0  0
 15 16  2  0  0  0  0
 15 41  1  0  0  0  0
 16 17  1  0  0  0  0
 16 42  1  0  0  0  0
 17 18  2  0  0  0  0
 17 43  1  0  0  0  0
M  END
> <s_m_source_file>
AV-unprocessed.smi

> <i_m_source_file_index>
3241

> <i_lp_mmshare_version>
43012

> <i_f3d_flags>
0

> <s_epik_input>
W0NIM11bQ0BASF0xW0NIMl1bQ0gyXVtDSDJdW0NIMl1bQ0BIXTFPW0NIMl1bQ0gyXVtOSF1bQ0gyXVtDSDJdbjJbY0hdW2NIXVtjSF1uMg==

> <s_epik_cmdline>
J2VwaWtfcHl0aG9uJywgJy1waCcsICc3LjAnLCAnLXRuJywgJzgnLCAnLW1hJywgJzIwMCcsICctbWV0YWxfYmluZGluZycsICctaW1hZScsICc8aW5maWxlLm1hZT4nLCAnLW9tYWUnLCAnPG91dGZpbGUubWFlPic=

> <r_lp_tautomer_probability>
1

> <r_epik_Ionization_Penalty>
2.47055

> <r_epik_Ionization_Penalty_Charging>
0

> <r_epik_Ionization_Penalty_Neutral>
2.47055

> <r_epik_State_Penalty>
2.6322

> <r_epik_Charging_Adjusted_Penalty>
2.6322

> <i_epik_Tot_Q>
0

> <i_epik_Tot_abs_Q>
0

> <r_epik_Metal_State_Penalty>
2.63108

> <b_epik_Metal_Only>
0

> <s_lp_Force_Field>
OPLS_2005

> <r_lp_Energy>
15.2111

> <b_lp_Chiralities_Consistent>
1

> <s_lp_Variant>
AV-unprocessed.smi:3241-5

> <Gold.Version>
5.8.1

> <Gold.Id.Protein>
6NUR|6NUR_protein|mol2

> <Gold.PLP.Fitness>
45.3536

> <Gold.PLP.PLP>
-44.4349

> <Gold.PLP.part.hbond>
-2.0627

> <Gold.PLP.part.metal>
0.0000

> <Gold.PLP.part.buried>
-5.5186

> <Gold.PLP.part.nonpolar>
-36.3353

> <Gold.PLP.part.repulsive>
0.1718

> <Gold.PLP.ligand.clash>
0.0000

> <Gold.PLP.ligand.torsion>
1.0769

> <Gold.PLP.Chemscore.Hbond>
1.0000

> <Gold.PLP.Chemscore.CHOScore>
0.0000

> <Gold.PLP.Chemscore.Metal>
0.0000

> <Gold.Chemscore.Hbonds>
donor molecule, donor type, donor heavy atom, donor atom, acceptor molecule, acceptor atom, score
      L1  H    11    36       P1  8028  1.00

> <Gold.PLP.Chemscore.Internal.Correction>
0.0725

> <Gold.Rescore>
     Score         DG    S(hbond)    S(metal)    S(lipo)     H(rot)  DE(clash)    DE(int)     intcor
     17.56     -18.66       0.99        0.00     123.45       1.79       0.02       1.07       ----

> <Gold.Chemscore.Fitness>
17.5639

> <Gold.Chemscore.DG>
-18.6564

> <Gold.Chemscore.ZeroCoef>
-5.4800

> <Gold.Chemscore.Hbond>
0.9926

> <Gold.Chemscore.Metal>
0.0000

> <Gold.Chemscore.Lipo>
123.4530

> <Gold.Chemscore.Internal_Hbond>
0.0000

> <Gold.Chemscore.DEClash>
0.0224

> <Gold.Chemscore.DEInternal>
1.0701

> <Gold.Chemscore.Rot>
1.7901

> <Gold.Chemscore.Internal.Correction>
   9.000000E+99

> <Gold.Chemscore.Hbonds>
donor molecule, donor type, donor heavy atom, donor atom, acceptor molecule, acceptor atom, score
      L1  H    11    36       P1  8028  0.94

> <Gold.Chemscore.Hbond.Weighted>
-3.3151

> <Gold.Chemscore.Metal.Weighted>
-0.0000

> <Gold.Chemscore.Lipo.Weighted>
-14.4440

> <Gold.Chemscore.Internal_Hbond.Weighted>
0.0000

> <Gold.Chemscore.DEClash.Weighted>
0.0224

> <Gold.Chemscore.DEInternal.Weighted>
1.0701

> <Gold.Chemscore.Rot.Weighted>
4.5827

> <Gold.Chemscore.Internal.Correction.Weighted>
   9.000000E+99

> <Gold.Protein.RotatedTorsions>
[ 6907 6896 6895 6894 ] final   24.14 input  -60.11 | X-H torsion
[ 7974 7965 7964 7962 ] final  -98.33 input  175.53 | X-H torsion
[ 8008 7997 7996 7995 ] final  159.25 input   59.86 | X-H torsion
[ 10167 10162 10161 10158 ] final -162.85 input  -65.29 | X-H torsion
[ 10718 10713 10712 10709 ] final   16.25 input   66.30 | X-H torsion
[ 10763 10752 10751 10750 ] final   26.77 input  -60.55 | X-H torsion
[ 11005 11000 10999 10996 ] final -118.94 input  -57.11 | X-H torsion

> <Gold.Protein.ActiveResidues>
 VAL166  LYS551  ARG553  GLY616  TRP617  ASP618  TYR619  PRO620  LYS621  CYS622 
 ASP623  PHE694  ASN695  SER759  ASP760  ASP761  ALA762  ILE779  LEU786  VAL792 
 PHE793  MET794  SER795  GLU796  ALA797  LYS798  CYS799  TRP800  GLU811  SER814 

> <Gold.Protein.RotatedAtoms>
  151.9530  135.0160  160.0542 H   0  0  0  0  0  0  0  0  0  0  0  0  # atno 6907 bound_to 6896
  152.1936  133.4786  159.5029 H   0  0  0  0  0  0  0  0  0  0  0  0  # atno 6908 bound_to 6896
  150.6940  134.1598  159.4214 H   0  0  0  0  0  0  0  0  0  0  0  0  # atno 6909 bound_to 6896
  145.3220  140.9424  143.2710 H   0  0  0  0  0  0  0  0  0  0  0  0  # atno 7974 bound_to 7965
  156.2251  140.1836  156.7383 H   0  0  0  0  0  0  0  0  0  0  0  0  # atno 8008 bound_to 7997
  154.5928  140.0648  156.9290 H   0  0  0  0  0  0  0  0  0  0  0  0  # atno 8009 bound_to 7997
  155.2307  140.3314  155.4306 H   0  0  0  0  0  0  0  0  0  0  0  0  # atno 8010 bound_to 7997
  139.6362  144.0345  152.2056 H   0  0  0  0  0  0  0  0  0  0  0  0  # atno 10167 bound_to 10162
  157.0652  130.6325  149.5794 H   0  0  0  0  0  0  0  0  0  0  0  0  # atno 10718 bound_to 10713
  153.0600  135.6552  154.0485 H   0  0  0  0  0  0  0  0  0  0  0  0  # atno 10763 bound_to 10752
  154.0155  135.2924  155.3389 H   0  0  0  0  0  0  0  0  0  0  0  0  # atno 10764 bound_to 10752
  154.6934  135.5273  153.8492 H   0  0  0  0  0  0  0  0  0  0  0  0  # atno 10765 bound_to 10752
  141.0251  134.0066  157.3227 H   0  0  0  0  0  0  0  0  0  0  0  0  # atno 11005 bound_to 11000
  144.8932  139.4747  143.6668 LP  0  0  0  0  0  0  0  0  0  0  0  0  # atno 17320 bound_to 7965
  146.3079  139.7642  142.9042 LP  0  0  0  0  0  0  0  0  0  0  0  0  # atno 17321 bound_to 7965
  140.0023  144.6284  150.7719 LP  0  0  0  0  0  0  0  0  0  0  0  0  # atno 17342 bound_to 10162
  140.7467  143.2894  151.3372 LP  0  0  0  0  0  0  0  0  0  0  0  0  # atno 17343 bound_to 10162
  155.9966  130.5036  150.7505 LP  0  0  0  0  0  0  0  0  0  0  0  0  # atno 17370 bound_to 10713
  157.4923  131.0912  151.0413 LP  0  0  0  0  0  0  0  0  0  0  0  0  # atno 17371 bound_to 10713
  139.9170  135.0197  156.7921 LP  0  0  0  0  0  0  0  0  0  0  0  0  # atno 17394 bound_to 11000
  140.6506  133.9735  155.7753 LP  0  0  0  0  0  0  0  0  0  0  0  0  # atno 17395 bound_to 11000

$$$$
