AV-unprocessed.smi:2777|AV-procd|sdf|10709|dock10
  -GOLD-   2272015143D 1   1.00000     0.00000
 Structure written by MMmdl.
 31 32  0  0  0  0  0  0  0  0  1 V2000
  154.7219  139.7709  160.6206 C   0  0  0  0  0  0  0  0  0  0  0  0
  153.6692  140.6690  160.1089 N   0  0  0  0  0  0  0  0  0  0  0  0
  153.0077  140.3063  158.9649 C   0  0  0  0  0  0  0  0  0  0  0  0
  153.2289  139.2818  158.3189 O   0  0  0  0  0  0  0  0  0  0  0  0
  151.9794  141.2642  158.5447 C   0  0  0  0  0  0  0  0  0  0  0  0
  151.7162  142.4064  159.2247 C   0  0  0  0  0  0  0  0  0  0  0  0
  150.7036  143.1384  158.6150 N   0  0  0  0  0  0  0  0  0  0  0  0
  150.4000  142.3722  157.5668 C   0  0  0  0  0  0  0  0  0  0  0  0
  151.1151  141.2346  157.4500 N   0  0  0  0  0  0  0  0  0  0  0  0
  150.9710  140.2394  156.3980 C   0  0  0  0  0  0  0  0  0  0  0  0
  149.9676  140.6676  155.3072 C   0  0  1  0  0  0  0  0  0  0  0  0
  150.3908  140.1960  154.0418 O   0  0  0  0  0  0  0  0  0  0  0  0
  148.5386  140.1628  155.5828 C   0  0  0  0  0  0  0  0  0  0  0  0
  148.5146  138.8299  155.5857 F   0  0  0  0  0  0  0  0  0  0  0  0
  148.0866  140.6209  156.7510 F   0  0  0  0  0  0  0  0  0  0  0  0
  147.7250  140.5863  154.6156 F   0  0  0  0  0  0  0  0  0  0  0  0
  152.4620  142.6890  160.3955 N   0  0  0  0  0  0  0  0  0  0  0  0
  152.1499  143.9349  161.1018 C   0  0  0  0  0  0  0  0  0  0  0  0
  153.4329  141.8229  160.8373 C   0  0  0  0  0  0  0  0  0  0  0  0
  154.0791  142.0693  161.8593 O   0  0  0  0  0  0  0  0  0  0  0  0
  154.8855  138.8694  160.0293 H   0  0  0  0  0  0  0  0  0  0  0  0
  154.4790  139.4375  161.6308 H   0  0  0  0  0  0  0  0  0  0  0  0
  155.6799  140.2921  160.6611 H   0  0  0  0  0  0  0  0  0  0  0  0
  149.6320  142.6475  156.8589 H   0  0  0  0  0  0  0  0  0  0  0  0
  151.9476  140.0190  155.9693 H   0  0  0  0  0  0  0  0  0  0  0  0
  150.6351  139.3107  156.8605 H   0  0  0  0  0  0  0  0  0  0  0  0
  149.9484  141.7571  155.2553 H   0  0  0  0  0  0  0  0  0  0  0  0
  149.6913  140.3304  153.4212 H   0  0  0  0  0  0  0  0  0  0  0  0
  152.7436  144.1054  162.0003 H   0  0  0  0  0  0  0  0  0  0  0  0
  151.1014  143.9392  161.4016 H   0  0  0  0  0  0  0  0  0  0  0  0
  152.3116  144.7867  160.4403 H   0  0  0  0  0  0  0  0  0  0  0  0
  1  2  1  0  0  0  0
  1 21  1  0  0  0  0
  1 22  1  0  0  0  0
  1 23  1  0  0  0  0
  2 19  1  0  0  0  0
  2  3  1  0  0  0  0
  3  4  2  0  0  0  0
  3  5  1  0  0  0  0
  5  9  1  0  0  0  0
  5  6  2  0  0  0  0
  6  7  1  0  0  0  0
  6 17  1  0  0  0  0
  7  8  2  0  0  0  0
  8  9  1  0  0  0  0
  8 24  1  0  0  0  0
  9 10  1  0  0  0  0
 10 11  1  0  0  0  0
 10 25  1  0  0  0  0
 10 26  1  0  0  0  0
 11 12  1  0  0  0  0
 11 13  1  0  0  0  0
 11 27  1  0  0  0  0
 12 28  1  0  0  0  0
 13 14  1  0  0  0  0
 13 15  1  0  0  0  0
 13 16  1  0  0  0  0
 17 18  1  0  0  0  0
 17 19  1  0  0  0  0
 18 29  1  0  0  0  0
 18 30  1  0  0  0  0
 18 31  1  0  0  0  0
 19 20  2  0  0  0  0
M  END
> <s_m_source_file>
AV-unprocessed.smi

> <i_m_source_file_index>
2777

> <i_lp_mmshare_version>
43012

> <i_f3d_flags>
0

> <s_epik_input>
Tz1jMW4oW0NIM10pYyg9TyluKFtDSDNdKWMoYzEyKW5bY0hdbjJbQ0gyXVtDQEhdKFtPSF0pQyhGKShGKUY=

> <s_epik_cmdline>
J2VwaWtfcHl0aG9uJywgJy1waCcsICc3LjAnLCAnLXRuJywgJzgnLCAnLW1hJywgJzIwMCcsICctbWV0YWxfYmluZGluZycsICctaW1hZScsICc8aW5maWxlLm1hZT4nLCAnLW9tYWUnLCAnPG91dGZpbGUubWFlPic=

> <r_epik_Ionization_Penalty>
0.000551612

> <r_epik_Ionization_Penalty_Charging>
2.619e-09

> <r_epik_Ionization_Penalty_Neutral>
0.00055161

> <r_epik_State_Penalty>
0.000345115

> <r_epik_Charging_Adjusted_Penalty>
0.000345118

> <i_epik_Tot_Q>
0

> <i_epik_Tot_abs_Q>
0

> <r_epik_Metal_State_Penalty>
-0

> <b_epik_Metal_Only>
0

> <s_lp_Force_Field>
OPLS_2005

> <r_lp_Energy>
33.5503

> <b_lp_Chiralities_Consistent>
1

> <s_lp_Variant>
AV-unprocessed.smi:2777-2

> <Gold.Version>
5.8.1

> <Gold.Id.Protein>
6NUR|6NUR_protein|mol2

> <Gold.PLP.Fitness>
44.6249

> <Gold.PLP.PLP>
-36.1824

> <Gold.PLP.part.hbond>
-3.6634

> <Gold.PLP.part.metal>
0.0000

> <Gold.PLP.part.buried>
-3.6325

> <Gold.PLP.part.nonpolar>
-29.3787

> <Gold.PLP.part.repulsive>
0.1068

> <Gold.PLP.ligand.clash>
0.0000

> <Gold.PLP.ligand.torsion>
0.4764

> <Gold.PLP.Chemscore.Hbond>
2.1283

> <Gold.PLP.Chemscore.CHOScore>
1.0000

> <Gold.PLP.Chemscore.Metal>
0.0000

> <Gold.Chemscore.Hbonds>
donor molecule, donor type, donor heavy atom, donor atom, acceptor molecule, acceptor atom, score
      L1  H    12    28       P1  7957  0.23
      P1  H  7989  7998       L1    12  0.92
      P1  H  7997  8008       L1     4  0.95
      L1  C     8    24       P1  8028  1.00

> <Gold.PLP.Chemscore.Internal.Correction>
0.0105

> <Gold.Rescore>
     Score         DG    S(hbond)    S(metal)    S(lipo)     H(rot)  DE(clash)    DE(int)     intcor
     11.59     -12.12       2.23        0.00      41.07       2.20       0.04       0.48       ----

> <Gold.Chemscore.Fitness>
11.5907

> <Gold.Chemscore.DG>
-12.1163

> <Gold.Chemscore.ZeroCoef>
-5.4800

> <Gold.Chemscore.Hbond>
2.2321

> <Gold.Chemscore.Metal>
0.0000

> <Gold.Chemscore.Lipo>
41.0695

> <Gold.Chemscore.Internal_Hbond>
0.0000

> <Gold.Chemscore.DEClash>
0.0416

> <Gold.Chemscore.DEInternal>
0.4840

> <Gold.Chemscore.Rot>
2.1969

> <Gold.Chemscore.Internal.Correction>
   9.000000E+99

> <Gold.Chemscore.Hbonds>
donor molecule, donor type, donor heavy atom, donor atom, acceptor molecule, acceptor atom, score
      L1  H    12    28       P1  7957  0.23
      P1  H  7989  7998       L1    12  0.46
      P1  H  7997  8008       L1     4  0.20

> <Gold.Chemscore.Hbond.Weighted>
-7.4551

> <Gold.Chemscore.Metal.Weighted>
-0.0000

> <Gold.Chemscore.Lipo.Weighted>
-4.8051

> <Gold.Chemscore.Internal_Hbond.Weighted>
0.0000

> <Gold.Chemscore.DEClash.Weighted>
0.0416

> <Gold.Chemscore.DEInternal.Weighted>
0.4840

> <Gold.Chemscore.Rot.Weighted>
5.6239

> <Gold.Chemscore.Internal.Correction.Weighted>
   9.000000E+99

> <Gold.Protein.RotatedTorsions>
[ 6907 6896 6895 6894 ] final  108.93 input  -60.11 | X-H torsion
[ 7974 7965 7964 7962 ] final   34.44 input  175.53 | X-H torsion
[ 8008 7997 7996 7995 ] final  -82.42 input   59.86 | X-H torsion
[ 10167 10162 10161 10158 ] final  113.75 input  -65.29 | X-H torsion
[ 10718 10713 10712 10709 ] final -145.11 input   66.30 | X-H torsion
[ 10763 10752 10751 10750 ] final   59.55 input  -60.55 | X-H torsion
[ 11005 11000 10999 10996 ] final  -46.36 input  -57.11 | X-H torsion

> <Gold.Protein.ActiveResidues>
 VAL166  LYS551  ARG553  GLY616  TRP617  ASP618  TYR619  PRO620  LYS621  CYS622 
 ASP623  PHE694  ASN695  SER759  ASP760  ASP761  ALA762  ILE779  LEU786  VAL792 
 PHE793  MET794  SER795  GLU796  ALA797  LYS798  CYS799  TRP800  GLU811  SER814 

> <Gold.Protein.RotatedAtoms>
  152.5090  133.9017  159.7444 H   0  0  0  0  0  0  0  0  0  0  0  0  # atno 6907 bound_to 6896
  150.9431  133.6625  159.2793 H   0  0  0  0  0  0  0  0  0  0  0  0  # atno 6908 bound_to 6896
  151.3929  135.0964  159.9584 H   0  0  0  0  0  0  0  0  0  0  0  0  # atno 6909 bound_to 6896
  146.1352  139.6269  142.9200 H   0  0  0  0  0  0  0  0  0  0  0  0  # atno 7974 bound_to 7965
  154.6085  140.0633  156.9462 H   0  0  0  0  0  0  0  0  0  0  0  0  # atno 8008 bound_to 7997
  155.2013  140.3315  155.4324 H   0  0  0  0  0  0  0  0  0  0  0  0  # atno 8009 bound_to 7997
  156.2362  140.1864  156.7096 H   0  0  0  0  0  0  0  0  0  0  0  0  # atno 8010 bound_to 7997
  139.6438  144.7125  151.2183 H   0  0  0  0  0  0  0  0  0  0  0  0  # atno 10167 bound_to 10162
  156.3784  130.7824  151.2013 H   0  0  0  0  0  0  0  0  0  0  0  0  # atno 10718 bound_to 10713
  152.9897  135.5567  154.5731 H   0  0  0  0  0  0  0  0  0  0  0  0  # atno 10763 bound_to 10752
  154.5127  135.2803  155.1331 H   0  0  0  0  0  0  0  0  0  0  0  0  # atno 10764 bound_to 10752
  154.2716  135.6362  153.5365 H   0  0  0  0  0  0  0  0  0  0  0  0  # atno 10765 bound_to 10752
  141.0574  133.6721  156.3144 H   0  0  0  0  0  0  0  0  0  0  0  0  # atno 11005 bound_to 11000
  145.5171  141.0433  143.2456 LP  0  0  0  0  0  0  0  0  0  0  0  0  # atno 17320 bound_to 7965
  144.7733  139.6687  143.7186 LP  0  0  0  0  0  0  0  0  0  0  0  0  # atno 17321 bound_to 7965
  140.7504  143.6266  150.8463 LP  0  0  0  0  0  0  0  0  0  0  0  0  # atno 17342 bound_to 10162
  139.9906  143.5851  152.2911 LP  0  0  0  0  0  0  0  0  0  0  0  0  # atno 17343 bound_to 10162
  157.7490  131.0351  150.4349 LP  0  0  0  0  0  0  0  0  0  0  0  0  # atno 17370 bound_to 10713
  156.4588  130.4027  149.6589 LP  0  0  0  0  0  0  0  0  0  0  0  0  # atno 17371 bound_to 10713
  140.5937  134.5625  157.5504 LP  0  0  0  0  0  0  0  0  0  0  0  0  # atno 17394 bound_to 11000
  139.9402  134.7801  156.0698 LP  0  0  0  0  0  0  0  0  0  0  0  0  # atno 17395 bound_to 11000

$$$$
