AV-unprocessed.smi:1039|AV-procd|sdf|4523|dock7
  -GOLD-   22720 2543D 1   1.00000     0.00000
 Structure written by MMmdl.
 41 42  0  0  0  0  0  0  0  0  2 V2000
  153.5049  140.5531  160.3235 C   0  0  0  0  0  0  0  0  0  0  0  0
  153.4410  142.0860  160.3635 C   0  0  0  0  0  0  0  0  0  0  0  0
  152.5213  142.5893  161.4970 C   0  0  0  0  0  0  0  0  0  0  0  0
  152.3817  144.1217  161.4600 C   0  0  0  0  0  0  0  0  0  0  0  0
  151.8732  144.5184  160.1358 N   0  0  0  0  0  0  0  0  0  0  0  0
  150.6196  144.9544  159.8526 C   0  0  0  0  0  0  0  0  0  0  0  0
  150.2403  145.2314  158.7143 O   0  0  0  0  0  0  0  0  0  0  0  0
  149.8198  145.0979  160.9225 N   0  0  0  0  0  0  0  0  0  0  0  0
  148.4414  145.5782  160.8934 C   0  0  0  0  0  0  0  0  0  0  0  0
  147.3963  144.4545  161.0571 C   0  0  0  0  0  0  0  0  0  0  0  0
  146.0855  144.7092  160.3712 C   0  0  0  0  0  0  0  0  0  0  0  0
  145.9505  145.2769  159.1664 N   0  3  0  0  0  0  0  0  0  0  0  0
  144.6291  145.3821  158.8315 C   0  0  0  0  0  0  0  0  0  0  0  0
  143.9226  144.8519  159.8784 C   0  0  0  0  0  0  0  0  0  0  0  0
  144.8422  144.4457  160.8119 N   0  0  0  0  0  0  0  0  0  0  0  0
  144.5381  143.8072  162.0967 C   0  0  0  0  0  0  0  0  0  0  0  0
  143.2202  143.7443  162.2851 F   0  0  0  0  0  0  0  0  0  0  0  0
  145.0761  142.5901  162.1553 F   0  0  0  0  0  0  0  0  0  0  0  0
  152.8442  144.2032  159.0807 C   0  0  0  0  0  0  0  0  0  0  0  0
  153.0138  142.6748  159.0014 C   0  0  0  0  0  0  0  0  0  0  0  0
  152.5272  140.1212  160.1079 H   0  0  0  0  0  0  0  0  0  0  0  0
  153.8439  140.1494  161.2778 H   0  0  0  0  0  0  0  0  0  0  0  0
  154.1980  140.2092  159.5554 H   0  0  0  0  0  0  0  0  0  0  0  0
  154.4475  142.4502  160.5747 H   0  0  0  0  0  0  0  0  0  0  0  0
  151.5344  142.1334  161.4041 H   0  0  0  0  0  0  0  0  0  0  0  0
  152.9162  142.2771  162.4642 H   0  0  0  0  0  0  0  0  0  0  0  0
  151.7634  144.4559  162.2929 H   0  0  0  0  0  0  0  0  0  0  0  0
  153.3551  144.5866  161.6228 H   0  0  0  0  0  0  0  0  0  0  0  0
  150.1963  144.8492  161.8259 H   0  0  0  0  0  0  0  0  0  0  0  0
  148.2937  146.3470  161.6532 H   0  0  0  0  0  0  0  0  0  0  0  0
  148.3005  146.0728  159.9334 H   0  0  0  0  0  0  0  0  0  0  0  0
  147.7808  143.5210  160.6443 H   0  0  0  0  0  0  0  0  0  0  0  0
  147.1939  144.2663  162.1109 H   0  0  0  0  0  0  0  0  0  0  0  0
  144.2999  145.8137  157.8974 H   0  0  0  0  0  0  0  0  0  0  0  0
  142.8583  144.7356  160.0239 H   0  0  0  0  0  0  0  0  0  0  0  0
  144.9641  144.3999  162.9070 H   0  0  0  0  0  0  0  0  0  0  0  0
  152.5519  144.5954  158.1056 H   0  0  0  0  0  0  0  0  0  0  0  0
  153.7996  144.6757  159.3134 H   0  0  0  0  0  0  0  0  0  0  0  0
  153.7509  142.4238  158.2381 H   0  0  0  0  0  0  0  0  0  0  0  0
  152.0730  142.2242  158.6816 H   0  0  0  0  0  0  0  0  0  0  0  0
  146.7222  145.5856  158.5881 H   0  0  0  0  0  0  0  0  0  0  0  0
  1  2  1  0  0  0  0
  1 21  1  0  0  0  0
  1 22  1  0  0  0  0
  1 23  1  0  0  0  0
  2 20  1  0  0  0  0
  2  3  1  0  0  0  0
  2 24  1  0  0  0  0
  3  4  1  0  0  0  0
  3 25  1  0  0  0  0
  3 26  1  0  0  0  0
  4  5  1  0  0  0  0
  4 27  1  0  0  0  0
  4 28  1  0  0  0  0
  5  6  1  0  0  0  0
  5 19  1  0  0  0  0
  6  7  2  0  0  0  0
  6  8  1  0  0  0  0
  8  9  1  0  0  0  0
  8 29  1  0  0  0  0
  9 10  1  0  0  0  0
  9 30  1  0  0  0  0
  9 31  1  0  0  0  0
 10 11  1  0  0  0  0
 10 32  1  0  0  0  0
 10 33  1  0  0  0  0
 11 15  1  0  0  0  0
 11 12  2  0  0  0  0
 12 13  1  0  0  0  0
 12 41  1  0  0  0  0
 13 14  2  0  0  0  0
 13 34  1  0  0  0  0
 14 15  1  0  0  0  0
 14 35  1  0  0  0  0
 15 16  1  0  0  0  0
 16 17  1  0  0  0  0
 16 18  1  0  0  0  0
 16 36  1  0  0  0  0
 19 20  1  0  0  0  0
 19 37  1  0  0  0  0
 19 38  1  0  0  0  0
 20 39  1  0  0  0  0
 20 40  1  0  0  0  0
M  CHG  1  12   1
M  END
> <s_m_source_file>
AV-unprocessed.smi

> <i_m_source_file_index>
1039

> <i_lp_mmshare_version>
43012

> <i_f3d_flags>
0

> <s_epik_input>
W0NIM11bQ0hdMVtDSDJdW0NIMl1OKFtDSDJdW0NIMl0xKUMoPU8pW05IXVtDSDJdW0NIMl1jMm5bY0hdW2NIXW4yW0NIXShGKUY=

> <s_epik_cmdline>
J2VwaWtfcHl0aG9uJywgJy1waCcsICc3LjAnLCAnLXRuJywgJzgnLCAnLW1hJywgJzIwMCcsICctbWV0YWxfYmluZGluZycsICctaW1hZScsICc8aW5maWxlLm1hZT4nLCAnLW9tYWUnLCAnPG91dGZpbGUubWFlPic=

> <r_lp_tautomer_probability>
1

> <r_epik_Ionization_Penalty>
1.09425

> <r_epik_Ionization_Penalty_Charging>
0

> <r_epik_Ionization_Penalty_Neutral>
1.09425

> <r_epik_State_Penalty>
1.15074

> <r_epik_Charging_Adjusted_Penalty>
1.15074

> <i_epik_Tot_Q>
1

> <i_epik_Tot_abs_Q>
1

> <r_epik_Metal_State_Penalty>
1.2388

> <b_epik_Metal_Only>
0

> <s_lp_Force_Field>
OPLS_2005

> <r_lp_Energy>
37.2769

> <b_lp_Chiralities_Consistent>
1

> <s_lp_Variant>
AV-unprocessed.smi:1039-2

> <Gold.Version>
5.8.1

> <Gold.Id.Protein>
6NUR|6NUR_protein|mol2

> <Gold.PLP.Fitness>
52.4864

> <Gold.PLP.PLP>
-47.9745

> <Gold.PLP.part.hbond>
-2.0042

> <Gold.PLP.part.metal>
0.0000

> <Gold.PLP.part.buried>
-5.1203

> <Gold.PLP.part.nonpolar>
-43.0090

> <Gold.PLP.part.repulsive>
1.9971

> <Gold.PLP.ligand.clash>
0.3304

> <Gold.PLP.ligand.torsion>
0.6017

> <Gold.PLP.Chemscore.Hbond>
2.0000

> <Gold.PLP.Chemscore.CHOScore>
0.0000

> <Gold.PLP.Chemscore.Metal>
0.0000

> <Gold.Chemscore.Hbonds>
donor molecule, donor type, donor heavy atom, donor atom, acceptor molecule, acceptor atom, score
      L1  H    12    41       P1  8029  2.00

> <Gold.PLP.Chemscore.Internal.Correction>
0.0457

> <Gold.Rescore>
     Score         DG    S(hbond)    S(metal)    S(lipo)     H(rot)  DE(clash)    DE(int)     intcor
     13.48     -15.62       0.99        0.00      93.45       1.61       1.51       0.63       ----

> <Gold.Chemscore.Fitness>
13.4781

> <Gold.Chemscore.DG>
-15.6210

> <Gold.Chemscore.ZeroCoef>
-5.4800

> <Gold.Chemscore.Hbond>
0.9931

> <Gold.Chemscore.Metal>
0.0000

> <Gold.Chemscore.Lipo>
93.4456

> <Gold.Chemscore.Internal_Hbond>
0.0000

> <Gold.Chemscore.DEClash>
1.5135

> <Gold.Chemscore.DEInternal>
0.6294

> <Gold.Chemscore.Rot>
1.6051

> <Gold.Chemscore.Internal.Correction>
   9.000000E+99

> <Gold.Chemscore.Hbonds>
donor molecule, donor type, donor heavy atom, donor atom, acceptor molecule, acceptor atom, score
      L1  H    12    41       P1  8029  1.00

> <Gold.Chemscore.Hbond.Weighted>
-3.3170

> <Gold.Chemscore.Metal.Weighted>
-0.0000

> <Gold.Chemscore.Lipo.Weighted>
-10.9331

> <Gold.Chemscore.Internal_Hbond.Weighted>
0.0000

> <Gold.Chemscore.DEClash.Weighted>
1.5135

> <Gold.Chemscore.DEInternal.Weighted>
0.6294

> <Gold.Chemscore.Rot.Weighted>
4.1092

> <Gold.Chemscore.Internal.Correction.Weighted>
   9.000000E+99

> <Gold.Protein.RotatedTorsions>
[ 6907 6896 6895 6894 ] final -150.61 input  -60.11 | X-H torsion
[ 7974 7965 7964 7962 ] final  -49.26 input  175.53 | X-H torsion
[ 8008 7997 7996 7995 ] final   99.84 input   59.86 | X-H torsion
[ 10167 10162 10161 10158 ] final -133.39 input  -65.29 | X-H torsion
[ 10718 10713 10712 10709 ] final -119.43 input   66.30 | X-H torsion
[ 10763 10752 10751 10750 ] final  140.75 input  -60.55 | X-H torsion
[ 11005 11000 10999 10996 ] final   64.61 input  -57.11 | X-H torsion

> <Gold.Protein.ActiveResidues>
 VAL166  LYS551  ARG553  GLY616  TRP617  ASP618  TYR619  PRO620  LYS621  CYS622 
 ASP623  PHE694  ASN695  SER759  ASP760  ASP761  ALA762  ILE779  LEU786  VAL792 
 PHE793  MET794  SER795  GLU796  ALA797  LYS798  CYS799  TRP800  GLU811  SER814 

> <Gold.Protein.RotatedAtoms>
  151.2011  133.4610  159.2596 H   0  0  0  0  0  0  0  0  0  0  0  0  # atno 6907 bound_to 6896
  151.1069  135.0004  159.8485 H   0  0  0  0  0  0  0  0  0  0  0  0  # atno 6908 bound_to 6896
  152.5447  134.1933  159.8735 H   0  0  0  0  0  0  0  0  0  0  0  0  # atno 6909 bound_to 6896
  145.9425  140.7649  142.9545 H   0  0  0  0  0  0  0  0  0  0  0  0  # atno 7974 bound_to 7965
  156.1144  140.3222  155.8118 H   0  0  0  0  0  0  0  0  0  0  0  0  # atno 8008 bound_to 7997
  155.4616  140.0540  157.3007 H   0  0  0  0  0  0  0  0  0  0  0  0  # atno 8009 bound_to 7997
  154.4782  140.2042  155.9840 H   0  0  0  0  0  0  0  0  0  0  0  0  # atno 8010 bound_to 7997
  139.8988  143.6633  152.2599 H   0  0  0  0  0  0  0  0  0  0  0  0  # atno 10167 bound_to 10162
  156.1181  130.6301  150.9415 H   0  0  0  0  0  0  0  0  0  0  0  0  # atno 10718 bound_to 10713
  153.9278  135.2993  155.3446 H   0  0  0  0  0  0  0  0  0  0  0  0  # atno 10763 bound_to 10752
  154.7542  135.4965  153.9348 H   0  0  0  0  0  0  0  0  0  0  0  0  # atno 10764 bound_to 10752
  153.1107  135.6758  153.9609 H   0  0  0  0  0  0  0  0  0  0  0  0  # atno 10765 bound_to 10752
  139.9947  134.6535  156.0030 H   0  0  0  0  0  0  0  0  0  0  0  0  # atno 11005 bound_to 11000
  144.6781  140.2302  143.7356 LP  0  0  0  0  0  0  0  0  0  0  0  0  # atno 17320 bound_to 7965
  145.8281  139.2073  143.1899 LP  0  0  0  0  0  0  0  0  0  0  0  0  # atno 17321 bound_to 7965
  139.7044  144.7630  151.1219 LP  0  0  0  0  0  0  0  0  0  0  0  0  # atno 17342 bound_to 10162
  140.7711  143.5415  150.9308 LP  0  0  0  0  0  0  0  0  0  0  0  0  # atno 17343 bound_to 10162
  157.6364  131.0915  150.8340 LP  0  0  0  0  0  0  0  0  0  0  0  0  # atno 17370 bound_to 10713
  156.8440  130.5058  149.5318 LP  0  0  0  0  0  0  0  0  0  0  0  0  # atno 17371 bound_to 10713
  141.1595  133.6540  156.4271 LP  0  0  0  0  0  0  0  0  0  0  0  0  # atno 17394 bound_to 11000
  140.4840  134.6638  157.5183 LP  0  0  0  0  0  0  0  0  0  0  0  0  # atno 17395 bound_to 11000

$$$$
