AV-unprocessed.smi:1915|AV-procd|sdf|7762|dock2
  -GOLD-   22720 9503D 1   1.00000     0.00000
 Structure written by MMmdl.
 45 46  0  0  0  0  0  0  0  0  2 V2000
  151.2372  140.1242  155.5650 C   0  0  0  0  0  0  0  0  0  0  0  0
  150.3853  141.3696  155.8644 C   0  0  0  0  0  0  0  0  0  0  0  0
  150.9221  142.1065  157.0999 C   0  0  0  0  0  0  0  0  0  0  0  0
  148.8801  141.0613  156.0279 C   0  0  0  0  0  0  0  0  0  0  0  0
  148.2467  140.6537  154.7752 N   0  0  0  0  0  0  0  0  0  0  0  0
  148.5128  139.3437  154.2066 C   0  0  0  0  0  0  0  0  0  0  0  0
  147.4728  139.1721  153.0811 C   0  0  1  0  0  0  0  0  0  0  0  0
  146.3175  138.2525  153.5093 C   0  0  0  0  0  0  0  0  0  0  0  0
  145.5170  138.6223  154.3695 O   0  0  0  0  0  0  0  0  0  0  0  0
  146.2561  137.0473  152.9209 N   0  0  0  0  0  0  0  0  0  0  0  0
  145.2452  136.0261  153.1887 C   0  0  0  0  0  0  0  0  0  0  0  0
  144.3415  135.7255  151.9742 C   0  0  0  0  0  0  0  0  0  0  0  0
  144.5528  134.3474  151.3703 C   0  0  0  0  0  0  0  0  0  0  0  0
  145.7491  133.6230  151.5630 C   0  0  0  0  0  0  0  0  0  0  0  0
  145.9053  132.3698  150.9344 C   0  0  0  0  0  0  0  0  0  0  0  0
  144.8623  131.8659  150.1303 C   0  0  0  0  0  0  0  0  0  0  0  0
  143.6870  132.6286  149.9760 C   0  0  0  0  0  0  0  0  0  0  0  0
  143.5767  133.8264  150.5912 N   0  3  0  0  0  0  0  0  0  0  0  0
  146.9844  140.6047  152.7852 C   0  0  0  0  0  0  0  0  0  0  0  0
  147.4641  141.4024  153.9883 C   0  0  0  0  0  0  0  0  0  0  0  0
  147.1343  142.5699  154.1898 O   0  0  0  0  0  0  0  0  0  0  0  0
  151.1254  139.3713  156.3457 H   0  0  0  0  0  0  0  0  0  0  0  0
  152.2948  140.3803  155.4981 H   0  0  0  0  0  0  0  0  0  0  0  0
  150.9606  139.6665  154.6153 H   0  0  0  0  0  0  0  0  0  0  0  0
  150.4941  142.0465  155.0173 H   0  0  0  0  0  0  0  0  0  0  0  0
  150.8520  141.4849  157.9931 H   0  0  0  0  0  0  0  0  0  0  0  0
  150.3606  143.0222  157.2870 H   0  0  0  0  0  0  0  0  0  0  0  0
  151.9684  142.3847  156.9692 H   0  0  0  0  0  0  0  0  0  0  0  0
  148.7381  140.2883  156.7853 H   0  0  0  0  0  0  0  0  0  0  0  0
  148.3614  141.9447  156.4028 H   0  0  0  0  0  0  0  0  0  0  0  0
  149.5260  139.3259  153.8030 H   0  0  0  0  0  0  0  0  0  0  0  0
  148.4487  138.5666  154.9695 H   0  0  0  0  0  0  0  0  0  0  0  0
  147.9514  138.7517  152.1951 H   0  0  0  0  0  0  0  0  0  0  0  0
  146.9530  136.8257  152.2242 H   0  0  0  0  0  0  0  0  0  0  0  0
  145.7195  135.1076  153.5387 H   0  0  0  0  0  0  0  0  0  0  0  0
  144.6288  136.3786  154.0159 H   0  0  0  0  0  0  0  0  0  0  0  0
  143.2960  135.8162  152.2703 H   0  0  0  0  0  0  0  0  0  0  0  0
  144.5013  136.4804  151.2028 H   0  0  0  0  0  0  0  0  0  0  0  0
  146.5439  134.0281  152.1721 H   0  0  0  0  0  0  0  0  0  0  0  0
  146.8166  131.8045  151.0636 H   0  0  0  0  0  0  0  0  0  0  0  0
  144.9642  130.9107  149.6362 H   0  0  0  0  0  0  0  0  0  0  0  0
  142.8423  132.3234  149.3759 H   0  0  0  0  0  0  0  0  0  0  0  0
  147.4509  140.9992  151.8820 H   0  0  0  0  0  0  0  0  0  0  0  0
  145.9027  140.6882  152.6687 H   0  0  0  0  0  0  0  0  0  0  0  0
  142.7218  134.3663  150.4560 H   0  0  0  0  0  0  0  0  0  0  0  0
  1  2  1  0  0  0  0
  1 22  1  0  0  0  0
  1 23  1  0  0  0  0
  1 24  1  0  0  0  0
  2  3  1  0  0  0  0
  2  4  1  0  0  0  0
  2 25  1  0  0  0  0
  3 26  1  0  0  0  0
  3 27  1  0  0  0  0
  3 28  1  0  0  0  0
  4  5  1  0  0  0  0
  4 29  1  0  0  0  0
  4 30  1  0  0  0  0
  5 20  1  0  0  0  0
  5  6  1  0  0  0  0
  6  7  1  0  0  0  0
  6 31  1  0  0  0  0
  6 32  1  0  0  0  0
  7  8  1  0  0  0  0
  7 19  1  0  0  0  0
  7 33  1  0  0  0  0
  8  9  2  0  0  0  0
  8 10  1  0  0  0  0
 10 11  1  0  0  0  0
 10 34  1  0  0  0  0
 11 12  1  0  0  0  0
 11 35  1  0  0  0  0
 11 36  1  0  0  0  0
 12 13  1  0  0  0  0
 12 37  1  0  0  0  0
 12 38  1  0  0  0  0
 13 18  1  0  0  0  0
 13 14  2  0  0  0  0
 14 15  1  0  0  0  0
 14 39  1  0  0  0  0
 15 16  2  0  0  0  0
 15 40  1  0  0  0  0
 16 17  1  0  0  0  0
 16 41  1  0  0  0  0
 17 18  2  0  0  0  0
 17 42  1  0  0  0  0
 18 45  1  0  0  0  0
 19 20  1  0  0  0  0
 19 43  1  0  0  0  0
 19 44  1  0  0  0  0
 20 21  2  0  0  0  0
M  CHG  1  18   1
M  END
> <s_m_source_file>
AV-unprocessed.smi

> <i_m_source_file_index>
1915

> <i_lp_mmshare_version>
43012

> <i_f3d_flags>
0

> <s_epik_input>
W0NIM11bQ0hdKFtDSDNdKVtDSDJdTjFbQ0gyXVtDQEhdKFtDSDJdQzE9TylDKD1PKVtOSF1bQ0gyXVtDSDJdYzJbY0hdW2NIXVtjSF1bY0hdbjI=

> <s_epik_cmdline>
J2VwaWtfcHl0aG9uJywgJy1waCcsICc3LjAnLCAnLXRuJywgJzgnLCAnLW1hJywgJzIwMCcsICctbWV0YWxfYmluZGluZycsICctaW1hZScsICc8aW5maWxlLm1hZT4nLCAnLW9tYWUnLCAnPG91dGZpbGUubWFlPic=

> <r_epik_Ionization_Penalty>
1.88249

> <r_epik_Ionization_Penalty_Charging>
1.88249

> <r_epik_Ionization_Penalty_Neutral>
3.64574e-08

> <r_epik_State_Penalty>
2.00238

> <r_epik_Charging_Adjusted_Penalty>
3.88487

> <i_epik_Tot_Q>
1

> <i_epik_Tot_abs_Q>
1

> <r_epik_Metal_State_Penalty>
2.02676

> <b_epik_Metal_Only>
0

> <s_lp_Force_Field>
OPLS_2005

> <r_lp_Energy>
19.4357

> <b_lp_Chiralities_Consistent>
1

> <s_lp_Variant>
AV-unprocessed.smi:1915-3

> <Gold.Version>
5.8.1

> <Gold.Id.Protein>
6NUR|6NUR_protein|mol2

> <Gold.PLP.Fitness>
45.1755

> <Gold.PLP.PLP>
-38.3559

> <Gold.PLP.part.hbond>
-2.0000

> <Gold.PLP.part.metal>
0.0000

> <Gold.PLP.part.buried>
-3.4459

> <Gold.PLP.part.nonpolar>
-33.6950

> <Gold.PLP.part.repulsive>
0.3386

> <Gold.PLP.ligand.clash>
0.0000

> <Gold.PLP.ligand.torsion>
1.1374

> <Gold.PLP.Chemscore.Hbond>
2.9760

> <Gold.PLP.Chemscore.CHOScore>
0.0000

> <Gold.PLP.Chemscore.Metal>
0.0000

> <Gold.Chemscore.Hbonds>
donor molecule, donor type, donor heavy atom, donor atom, acceptor molecule, acceptor atom, score
      L1  H    10    34       P1  7948  0.77
      L1  H    18    45       P1 10186  1.82

> <Gold.PLP.Chemscore.Internal.Correction>
0.1664

> <Gold.Rescore>
     Score         DG    S(hbond)    S(metal)    S(lipo)     H(rot)  DE(clash)    DE(int)     intcor
     16.34     -17.64       1.83        0.00      92.56       1.86       0.16       1.14       ----

> <Gold.Chemscore.Fitness>
16.3428

> <Gold.Chemscore.DG>
-17.6413

> <Gold.Chemscore.ZeroCoef>
-5.4800

> <Gold.Chemscore.Hbond>
1.8271

> <Gold.Chemscore.Metal>
0.0000

> <Gold.Chemscore.Lipo>
92.5644

> <Gold.Chemscore.Internal_Hbond>
0.0000

> <Gold.Chemscore.DEClash>
0.1628

> <Gold.Chemscore.DEInternal>
1.1357

> <Gold.Chemscore.Rot>
1.8638

> <Gold.Chemscore.Internal.Correction>
   9.000000E+99

> <Gold.Chemscore.Hbonds>
donor molecule, donor type, donor heavy atom, donor atom, acceptor molecule, acceptor atom, score
      L1  H    10    34       P1  7948  0.73
      L1  H    18    45       P1 10186  0.54

> <Gold.Chemscore.Hbond.Weighted>
-6.1026

> <Gold.Chemscore.Metal.Weighted>
-0.0000

> <Gold.Chemscore.Lipo.Weighted>
-10.8300

> <Gold.Chemscore.Internal_Hbond.Weighted>
0.0000

> <Gold.Chemscore.DEClash.Weighted>
0.1628

> <Gold.Chemscore.DEInternal.Weighted>
1.1357

> <Gold.Chemscore.Rot.Weighted>
4.7713

> <Gold.Chemscore.Internal.Correction.Weighted>
   9.000000E+99

> <Gold.Protein.RotatedTorsions>
[ 6907 6896 6895 6894 ] final -130.45 input  -60.11 | X-H torsion
[ 7974 7965 7964 7962 ] final  124.69 input  175.53 | X-H torsion
[ 8008 7997 7996 7995 ] final  160.16 input   59.86 | X-H torsion
[ 10167 10162 10161 10158 ] final   70.08 input  -65.29 | X-H torsion
[ 10718 10713 10712 10709 ] final -101.04 input   66.30 | X-H torsion
[ 10763 10752 10751 10750 ] final   72.69 input  -60.55 | X-H torsion
[ 11005 11000 10999 10996 ] final  -62.75 input  -57.11 | X-H torsion

> <Gold.Protein.ActiveResidues>
 VAL166  LYS551  ARG553  GLY616  TRP617  ASP618  TYR619  PRO620  LYS621  CYS622 
 ASP623  PHE694  ASN695  SER759  ASP760  ASP761  ALA762  ILE779  LEU786  VAL792 
 PHE793  MET794  SER795  GLU796  ALA797  LYS798  CYS799  TRP800  GLU811  SER814 

> <Gold.Protein.RotatedAtoms>
  150.9398  133.6669  159.2792 H   0  0  0  0  0  0  0  0  0  0  0  0  # atno 6907 bound_to 6896
  151.4062  135.0977  159.9581 H   0  0  0  0  0  0  0  0  0  0  0  0  # atno 6908 bound_to 6896
  152.5064  133.8881  159.7435 H   0  0  0  0  0  0  0  0  0  0  0  0  # atno 6909 bound_to 6896
  145.0816  139.3653  143.4906 H   0  0  0  0  0  0  0  0  0  0  0  0  # atno 7974 bound_to 7965
  156.2191  140.1812  156.7519 H   0  0  0  0  0  0  0  0  0  0  0  0  # atno 8008 bound_to 7997
  154.5837  140.0662  156.9170 H   0  0  0  0  0  0  0  0  0  0  0  0  # atno 8009 bound_to 7997
  155.2457  140.3325  155.4290 H   0  0  0  0  0  0  0  0  0  0  0  0  # atno 8010 bound_to 7997
  140.0609  144.5234  150.7295 H   0  0  0  0  0  0  0  0  0  0  0  0  # atno 10167 bound_to 10162
  156.0182  130.5355  150.6905 H   0  0  0  0  0  0  0  0  0  0  0  0  # atno 10718 bound_to 10713
  153.0474  135.5090  154.7781 H   0  0  0  0  0  0  0  0  0  0  0  0  # atno 10763 bound_to 10752
  154.6670  135.2947  154.9794 H   0  0  0  0  0  0  0  0  0  0  0  0  # atno 10764 bound_to 10752
  154.0625  135.6689  153.4866 H   0  0  0  0  0  0  0  0  0  0  0  0  # atno 10765 bound_to 10752
  141.1370  133.6643  156.5575 H   0  0  0  0  0  0  0  0  0  0  0  0  # atno 11005 bound_to 11000
  146.3531  140.0608  142.8629 LP  0  0  0  0  0  0  0  0  0  0  0  0  # atno 17320 bound_to 7965
  145.1172  140.9440  143.4622 LP  0  0  0  0  0  0  0  0  0  0  0  0  # atno 17321 bound_to 7965
  140.7172  143.2555  151.4395 LP  0  0  0  0  0  0  0  0  0  0  0  0  # atno 17342 bound_to 10162
  139.5895  144.1531  152.2070 LP  0  0  0  0  0  0  0  0  0  0  0  0  # atno 17343 bound_to 10162
  157.4587  131.0881  151.0768 LP  0  0  0  0  0  0  0  0  0  0  0  0  # atno 17370 bound_to 10713
  157.1262  130.6083  149.5518 LP  0  0  0  0  0  0  0  0  0  0  0  0  # atno 17371 bound_to 10713
  140.4014  134.7353  157.4782 LP  0  0  0  0  0  0  0  0  0  0  0  0  # atno 17394 bound_to 11000
  140.0493  134.6154  155.8882 LP  0  0  0  0  0  0  0  0  0  0  0  0  # atno 17395 bound_to 11000

$$$$
