AV-unprocessed.smi:2046|AV-procd|sdf|8313|dock4
  -GOLD-   2272010583D 1   1.00000     0.00000
 Structure written by MMmdl.
 29 30  0  0  0  0  0  0  0  0  2 V2000
  149.6485  136.2775  159.1200 O   0  0  0  0  0  0  0  0  0  0  0  0
  148.5324  136.6715  158.7733 C   0  0  0  0  0  0  0  0  0  0  0  0
  147.3718  136.4797  159.4410 N   0  5  0  0  0  0  0  0  0  0  0  0
  147.3891  136.2289  160.7605 C   0  0  0  0  0  0  0  0  0  0  0  0
  147.6532  137.1812  161.6694 N   0  0  0  0  0  0  0  0  0  0  0  0
  147.6139  136.7146  162.9765 N   0  0  0  0  0  0  0  0  0  0  0  0
  147.3103  135.4174  163.0203 C   0  0  0  0  0  0  0  0  0  0  0  0
  147.0441  134.6489  161.4700 S   0  0  0  0  0  0  0  0  0  0  0  0
  148.3905  137.3626  157.6319 N   0  0  0  0  0  0  0  0  0  0  0  0
  149.4570  137.7140  156.6915 C   0  0  2  0  0  0  0  0  0  0  0  0
  149.7877  139.2158  156.8819 C   0  0  0  0  0  0  0  0  0  0  0  0
  150.5856  139.8945  155.7459 C   0  0  0  0  0  0  0  0  0  0  0  0
  151.7773  139.0795  155.2029 C   0  0  0  0  0  0  0  0  0  0  0  0
  151.4498  137.6993  154.5760 C   0  0  0  0  0  0  0  0  0  0  0  0
  150.0312  137.4696  154.3013 N   0  0  0  0  0  0  0  0  0  0  0  0
  149.0540  137.4456  155.2237 C   0  0  0  0  0  0  0  0  0  0  0  0
  147.8811  137.2479  154.9083 O   0  0  0  0  0  0  0  0  0  0  0  0
  147.2402  134.9108  163.9712 H   0  0  0  0  0  0  0  0  0  0  0  0
  147.4569  137.6580  157.3874 H   0  0  0  0  0  0  0  0  0  0  0  0
  150.3360  137.1181  156.9403 H   0  0  0  0  0  0  0  0  0  0  0  0
  148.8667  139.7830  157.0259 H   0  0  0  0  0  0  0  0  0  0  0  0
  150.3451  139.3231  157.8134 H   0  0  0  0  0  0  0  0  0  0  0  0
  149.9133  140.1380  154.9219 H   0  0  0  0  0  0  0  0  0  0  0  0
  150.9491  140.8576  156.1053 H   0  0  0  0  0  0  0  0  0  0  0  0
  152.2748  139.6870  154.4461 H   0  0  0  0  0  0  0  0  0  0  0  0
  152.5146  138.9451  155.9949 H   0  0  0  0  0  0  0  0  0  0  0  0
  151.9988  137.5862  153.6409 H   0  0  0  0  0  0  0  0  0  0  0  0
  151.8148  136.8998  155.2221 H   0  0  0  0  0  0  0  0  0  0  0  0
  149.7723  137.3058  153.3394 H   0  0  0  0  0  0  0  0  0  0  0  0
  1  2  2  0  0  0  0
  2  3  1  0  0  0  0
  2  9  1  0  0  0  0
  3  4  1  0  0  0  0
  4  8  1  0  0  0  0
  4  5  2  0  0  0  0
  5  6  1  0  0  0  0
  6  7  2  0  0  0  0
  7  8  1  0  0  0  0
  7 18  1  0  0  0  0
  9 10  1  0  0  0  0
  9 19  1  0  0  0  0
 10 16  1  0  0  0  0
 10 11  1  0  0  0  0
 10 20  1  0  0  0  0
 11 12  1  0  0  0  0
 11 21  1  0  0  0  0
 11 22  1  0  0  0  0
 12 13  1  0  0  0  0
 12 23  1  0  0  0  0
 12 24  1  0  0  0  0
 13 14  1  0  0  0  0
 13 25  1  0  0  0  0
 13 26  1  0  0  0  0
 14 15  1  0  0  0  0
 14 27  1  0  0  0  0
 14 28  1  0  0  0  0
 15 16  1  0  0  0  0
 15 29  1  0  0  0  0
 16 17  2  0  0  0  0
M  CHG  1   3  -1
M  END
> <s_m_source_file>
AV-unprocessed.smi

> <i_m_source_file_index>
2046

> <i_lp_mmshare_version>
43012

> <i_f3d_flags>
0

> <s_epik_input>
czFbY0hdbm5jMVtOSF1DKD1PKVtOSF1bQ0BASF0yW0NIMl1bQ0gyXVtDSDJdW0NIMl1bTkhdQzI9Tw==

> <s_epik_cmdline>
J2VwaWtfcHl0aG9uJywgJy1waCcsICc3LjAnLCAnLXRuJywgJzgnLCAnLW1hJywgJzIwMCcsICctbWV0YWxfYmluZGluZycsICctaW1hZScsICc8aW5maWxlLm1hZT4nLCAnLW9tYWUnLCAnPG91dGZpbGUubWFlPic=

> <r_lp_tautomer_probability>
1

> <r_epik_Ionization_Penalty>
4.05949

> <r_epik_Ionization_Penalty_Charging>
4.01916

> <r_epik_Ionization_Penalty_Neutral>
0.0403285

> <r_epik_State_Penalty>
4.01849

> <r_epik_Charging_Adjusted_Penalty>
8.03765

> <i_epik_Tot_Q>
-1

> <i_epik_Tot_abs_Q>
1

> <r_epik_Metal_State_Penalty>
0.626741

> <b_epik_Metal_Only>
1

> <s_lp_Force_Field>
OPLS_2005

> <r_lp_Energy>
13.487

> <b_lp_Chiralities_Consistent>
1

> <s_lp_Variant>
AV-unprocessed.smi:2046-3

> <Gold.Version>
5.8.1

> <Gold.Id.Protein>
6NUR|6NUR_protein|mol2

> <Gold.PLP.Fitness>
35.1370

> <Gold.PLP.PLP>
-26.5671

> <Gold.PLP.part.hbond>
-4.6097

> <Gold.PLP.part.metal>
0.0000

> <Gold.PLP.part.buried>
-5.0467

> <Gold.PLP.part.nonpolar>
-18.2246

> <Gold.PLP.part.repulsive>
0.1853

> <Gold.PLP.ligand.clash>
0.0000

> <Gold.PLP.ligand.torsion>
0.9870

> <Gold.PLP.Chemscore.Hbond>
3.5137

> <Gold.PLP.Chemscore.CHOScore>
0.0000

> <Gold.PLP.Chemscore.Metal>
0.0000

> <Gold.Chemscore.Hbonds>
donor molecule, donor type, donor heavy atom, donor atom, acceptor molecule, acceptor atom, score
      L1  H    15    29       P1  7948  1.00
      P1  H  6896  6907       L1     1  1.00
      P1  H  6931  6943       L1     5  0.75
      P1  H  6934  6947       L1     5  0.73

> <Gold.PLP.Chemscore.Internal.Correction>
0.0028

> <Gold.Rescore>
     Score         DG    S(hbond)    S(metal)    S(lipo)     H(rot)  DE(clash)    DE(int)     intcor
     16.15     -17.27       2.79        0.00      43.09       1.00       0.00       1.12       ----

> <Gold.Chemscore.Fitness>
16.1505

> <Gold.Chemscore.DG>
-17.2746

> <Gold.Chemscore.ZeroCoef>
-5.4800

> <Gold.Chemscore.Hbond>
2.7882

> <Gold.Chemscore.Metal>
0.0000

> <Gold.Chemscore.Lipo>
43.0931

> <Gold.Chemscore.Internal_Hbond>
0.0000

> <Gold.Chemscore.DEClash>
0.0000

> <Gold.Chemscore.DEInternal>
1.1240

> <Gold.Chemscore.Rot>
1.0000

> <Gold.Chemscore.Internal.Correction>
   9.000000E+99

> <Gold.Chemscore.Hbonds>
donor molecule, donor type, donor heavy atom, donor atom, acceptor molecule, acceptor atom, score
      L1  H    15    29       P1  7948  0.58
      P1  H  6896  6907       L1     1  0.99
      P1  H  6931  6943       L1     5  0.09
      P1  H  6934  6947       L1     5  0.54

> <Gold.Chemscore.Hbond.Weighted>
-9.3127

> <Gold.Chemscore.Metal.Weighted>
-0.0000

> <Gold.Chemscore.Lipo.Weighted>
-5.0419

> <Gold.Chemscore.Internal_Hbond.Weighted>
0.0000

> <Gold.Chemscore.DEClash.Weighted>
0.0000

> <Gold.Chemscore.DEInternal.Weighted>
1.1240

> <Gold.Chemscore.Rot.Weighted>
2.5600

> <Gold.Chemscore.Internal.Correction.Weighted>
   9.000000E+99

> <Gold.Protein.RotatedTorsions>
[ 6907 6896 6895 6894 ] final  -49.41 input  -60.11 | X-H torsion
[ 7974 7965 7964 7962 ] final    0.62 input  175.53 | X-H torsion
[ 8008 7997 7996 7995 ] final  155.04 input   59.86 | X-H torsion
[ 10167 10162 10161 10158 ] final   27.22 input  -65.29 | X-H torsion
[ 10718 10713 10712 10709 ] final -103.46 input   66.30 | X-H torsion
[ 10763 10752 10751 10750 ] final  103.24 input  -60.55 | X-H torsion
[ 11005 11000 10999 10996 ] final  129.29 input  -57.11 | X-H torsion

> <Gold.Protein.ActiveResidues>
 VAL166  LYS551  ARG553  GLY616  TRP617  ASP618  TYR619  PRO620  LYS621  CYS622 
 ASP623  PHE694  ASN695  SER759  ASP760  ASP761  ALA762  ILE779  LEU786  VAL792 
 PHE793  MET794  SER795  GLU796  ALA797  LYS798  CYS799  TRP800  GLU811  SER814 

> <Gold.Protein.RotatedAtoms>
  150.8808  134.8199  159.7223 H   0  0  0  0  0  0  0  0  0  0  0  0  # atno 6907 bound_to 6896
  152.4776  134.4799  159.9672 H   0  0  0  0  0  0  0  0  0  0  0  0  # atno 6908 bound_to 6896
  151.4874  133.3494  159.2883 H   0  0  0  0  0  0  0  0  0  0  0  0  # atno 6909 bound_to 6896
  146.2435  140.1110  142.8344 H   0  0  0  0  0  0  0  0  0  0  0  0  # atno 7974 bound_to 7965
  156.2499  140.1950  156.6740 H   0  0  0  0  0  0  0  0  0  0  0  0  # atno 8008 bound_to 7997
  154.6371  140.0588  156.9828 H   0  0  0  0  0  0  0  0  0  0  0  0  # atno 8009 bound_to 7997
  155.1619  140.3260  155.4412 H   0  0  0  0  0  0  0  0  0  0  0  0  # atno 8010 bound_to 7997
  140.4956  144.0397  150.6313 H   0  0  0  0  0  0  0  0  0  0  0  0  # atno 10167 bound_to 10162
  156.0266  130.5468  150.7255 H   0  0  0  0  0  0  0  0  0  0  0  0  # atno 10718 bound_to 10713
  153.3501  135.3983  155.1639 H   0  0  0  0  0  0  0  0  0  0  0  0  # atno 10763 bound_to 10752
  154.8660  135.3654  154.5234 H   0  0  0  0  0  0  0  0  0  0  0  0  # atno 10764 bound_to 10752
  153.5685  135.7079  153.5575 H   0  0  0  0  0  0  0  0  0  0  0  0  # atno 10765 bound_to 10752
  139.9607  134.9603  156.9126 H   0  0  0  0  0  0  0  0  0  0  0  0  # atno 11005 bound_to 11000
  145.0487  140.9001  143.5009 LP  0  0  0  0  0  0  0  0  0  0  0  0  # atno 17320 bound_to 7965
  145.1204  139.2697  143.5591 LP  0  0  0  0  0  0  0  0  0  0  0  0  # atno 17321 bound_to 7965
  140.3678  143.2871  152.0312 LP  0  0  0  0  0  0  0  0  0  0  0  0  # atno 17342 bound_to 10162
  139.4860  144.6253  151.7176 LP  0  0  0  0  0  0  0  0  0  0  0  0  # atno 17343 bound_to 10162
  157.4860  131.0907  151.0481 LP  0  0  0  0  0  0  0  0  0  0  0  0  # atno 17370 bound_to 10713
  157.0901  130.5939  149.5438 LP  0  0  0  0  0  0  0  0  0  0  0  0  # atno 17371 bound_to 10713
  140.5506  134.0630  155.7368 LP  0  0  0  0  0  0  0  0  0  0  0  0  # atno 17394 bound_to 11000
  141.1284  133.9344  157.2587 LP  0  0  0  0  0  0  0  0  0  0  0  0  # atno 17395 bound_to 11000

$$$$
