AV-unprocessed.smi:90|AV-procd|sdf|829|dock2
  -GOLD-   2262017243D 1   1.00000     0.00000
 Structure written by MMmdl.
 64 67  0  0  0  0  0  0  0  0  2 V2000
  150.4983  132.5963  154.8323 C   0  0  0  0  0  0  0  0  0  0  0  0
  149.3223  133.1244  154.1506 N   0  0  0  0  0  0  0  0  0  0  0  0
  148.5713  132.2171  153.2811 C   0  0  0  0  0  0  0  0  0  0  0  0
  147.2909  131.6812  153.9533 C   0  0  0  0  0  0  0  0  0  0  0  0
  146.6419  130.4713  153.2327 C   0  0  2  0  0  0  0  0  0  0  0  0
  147.6014  129.2549  153.2126 C   0  0  0  0  0  0  0  0  0  0  0  0
  146.9945  128.0486  152.4874 C   0  0  0  0  0  0  0  0  0  0  0  0
  146.5692  128.4533  151.0759 C   0  0  0  0  0  0  0  0  0  0  0  0
  145.6062  129.6456  151.1333 C   0  0  0  0  0  0  0  0  0  0  0  0
  146.2138  130.8074  151.8355 N   0  3  1  0  0  0  0  0  0  0  0  0
  145.3331  131.9968  151.7308 C   0  0  0  0  0  0  0  0  0  0  0  0
  148.7700  134.2981  154.5770 C   0  0  0  0  0  0  0  0  0  0  0  0
  147.5104  134.6133  154.1692 N   0  0  0  0  0  0  0  0  0  0  0  0
  146.9211  135.7431  154.5671 C   0  0  0  0  0  0  0  0  0  0  0  0
  147.4040  136.6982  155.3603 N   0  0  0  0  0  0  0  0  0  0  0  0
  148.6725  136.4091  155.7657 C   0  0  0  0  0  0  0  0  0  0  0  0
  149.4221  135.2425  155.4304 C   0  0  0  0  0  0  0  0  0  0  0  0
  150.6710  135.3094  156.0404 N   0  0  0  0  0  0  0  0  0  0  0  0
  150.6555  136.4340  156.6995 C   0  0  0  0  0  0  0  0  0  0  0  0
  149.4996  137.1696  156.5758 N   0  0  0  0  0  0  0  0  0  0  0  0
  149.2176  138.4555  157.2014 C   0  0  0  0  0  0  0  0  0  0  0  0
  150.1860  139.6138  156.8095 C   0  0  0  0  0  0  0  0  0  0  0  0
  150.4837  139.4997  155.2836 C   0  0  0  0  0  0  0  0  0  0  0  0
  151.5434  140.3036  154.8146 O   0  0  0  0  0  0  0  0  0  0  0  0
  149.5308  140.9729  157.1707 C   0  0  0  0  0  0  0  0  0  0  0  0
  150.5285  142.1394  157.2769 C   0  0  0  0  0  0  0  0  0  0  0  0
  151.5575  141.8122  158.2006 O   0  0  0  0  0  0  0  0  0  0  0  0
  152.3402  140.7052  157.7763 C   0  0  0  0  0  0  0  0  0  0  0  0
  151.4649  139.4407  157.6729 C   0  0  0  0  0  0  0  0  0  0  0  0
  150.3811  132.6515  155.9151 H   0  0  0  0  0  0  0  0  0  0  0  0
  151.3893  133.1540  154.5442 H   0  0  0  0  0  0  0  0  0  0  0  0
  150.6668  131.5511  154.5718 H   0  0  0  0  0  0  0  0  0  0  0  0
  148.3469  132.7154  152.3383 H   0  0  0  0  0  0  0  0  0  0  0  0
  149.2202  131.3798  153.0220 H   0  0  0  0  0  0  0  0  0  0  0  0
  147.5655  131.3985  154.9683 H   0  0  0  0  0  0  0  0  0  0  0  0
  146.5596  132.4847  154.0465 H   0  0  0  0  0  0  0  0  0  0  0  0
  145.7470  130.1900  153.7906 H   0  0  0  0  0  0  0  0  0  0  0  0
  148.5407  129.5340  152.7331 H   0  0  0  0  0  0  0  0  0  0  0  0
  147.8533  128.9446  154.2260 H   0  0  0  0  0  0  0  0  0  0  0  0
  147.7147  127.2311  152.4451 H   0  0  0  0  0  0  0  0  0  0  0  0
  146.1317  127.6779  153.0424 H   0  0  0  0  0  0  0  0  0  0  0  0
  147.4476  128.7136  150.4840 H   0  0  0  0  0  0  0  0  0  0  0  0
  146.0931  127.6107  150.5735 H   0  0  0  0  0  0  0  0  0  0  0  0
  145.3372  129.9296  150.1151 H   0  0  0  0  0  0  0  0  0  0  0  0
  144.6807  129.3587  151.6353 H   0  0  0  0  0  0  0  0  0  0  0  0
  144.4669  131.9029  152.3871 H   0  0  0  0  0  0  0  0  0  0  0  0
  144.9705  132.1246  150.7102 H   0  0  0  0  0  0  0  0  0  0  0  0
  145.8656  132.9136  151.9809 H   0  0  0  0  0  0  0  0  0  0  0  0
  145.9196  135.9054  154.1966 H   0  0  0  0  0  0  0  0  0  0  0  0
  151.4974  136.7647  157.2902 H   0  0  0  0  0  0  0  0  0  0  0  0
  148.1871  138.7215  156.9620 H   0  0  0  0  0  0  0  0  0  0  0  0
  149.2373  138.3077  158.2823 H   0  0  0  0  0  0  0  0  0  0  0  0
  150.7208  138.4672  155.0260 H   0  0  0  0  0  0  0  0  0  0  0  0
  149.6047  139.7724  154.7001 H   0  0  0  0  0  0  0  0  0  0  0  0
  152.2969  140.1595  155.3662 H   0  0  0  0  0  0  0  0  0  0  0  0
  148.7441  141.2226  156.4580 H   0  0  0  0  0  0  0  0  0  0  0  0
  149.0418  140.8856  158.1416 H   0  0  0  0  0  0  0  0  0  0  0  0
  150.9532  142.4050  156.3093 H   0  0  0  0  0  0  0  0  0  0  0  0
  150.0127  143.0290  157.6389 H   0  0  0  0  0  0  0  0  0  0  0  0
  152.8455  140.9367  156.8397 H   0  0  0  0  0  0  0  0  0  0  0  0
  153.1293  140.5424  158.5107 H   0  0  0  0  0  0  0  0  0  0  0  0
  151.1763  139.1737  158.6905 H   0  0  0  0  0  0  0  0  0  0  0  0
  152.0608  138.6045  157.3054 H   0  0  0  0  0  0  0  0  0  0  0  0
  147.0556  131.0345  151.3253 H   0  0  0  0  0  0  0  0  0  0  0  0
  1  2  1  0  0  0  0
  1 30  1  0  0  0  0
  1 31  1  0  0  0  0
  1 32  1  0  0  0  0
  2  3  1  0  0  0  0
  2 12  1  0  0  0  0
  3  4  1  0  0  0  0
  3 33  1  0  0  0  0
  3 34  1  0  0  0  0
  4  5  1  0  0  0  0
  4 35  1  0  0  0  0
  4 36  1  0  0  0  0
  5 10  1  0  0  0  0
  5  6  1  0  0  0  0
  5 37  1  0  0  0  0
  6  7  1  0  0  0  0
  6 38  1  0  0  0  0
  6 39  1  0  0  0  0
  7  8  1  0  0  0  0
  7 40  1  0  0  0  0
  7 41  1  0  0  0  0
  8  9  1  0  0  0  0
  8 42  1  0  0  0  0
  8 43  1  0  0  0  0
  9 10  1  0  0  0  0
  9 44  1  0  0  0  0
  9 45  1  0  0  0  0
 10 11  1  0  0  0  0
 10 64  1  0  0  0  0
 11 46  1  0  0  0  0
 11 47  1  0  0  0  0
 11 48  1  0  0  0  0
 12 17  1  0  0  0  0
 12 13  2  0  0  0  0
 13 14  1  0  0  0  0
 14 15  2  0  0  0  0
 14 49  1  0  0  0  0
 15 16  1  0  0  0  0
 16 20  1  0  0  0  0
 16 17  2  0  0  0  0
 17 18  1  0  0  0  0
 18 19  2  0  0  0  0
 19 20  1  0  0  0  0
 19 50  1  0  0  0  0
 20 21  1  0  0  0  0
 21 22  1  0  0  0  0
 21 51  1  0  0  0  0
 21 52  1  0  0  0  0
 22 29  1  0  0  0  0
 22 23  1  0  0  0  0
 22 25  1  0  0  0  0
 23 24  1  0  0  0  0
 23 53  1  0  0  0  0
 23 54  1  0  0  0  0
 24 55  1  0  0  0  0
 25 26  1  0  0  0  0
 25 56  1  0  0  0  0
 25 57  1  0  0  0  0
 26 27  1  0  0  0  0
 26 58  1  0  0  0  0
 26 59  1  0  0  0  0
 27 28  1  0  0  0  0
 28 29  1  0  0  0  0
 28 60  1  0  0  0  0
 28 61  1  0  0  0  0
 29 62  1  0  0  0  0
 29 63  1  0  0  0  0
M  CHG  1  10   1
M  END
> <s_m_source_file>
AV-unprocessed.smi

> <i_m_source_file_index>
90

> <i_lp_mmshare_version>
43012

> <i_f3d_flags>
0

> <s_epik_input>
W0NIM11OMVtDSDJdW0NIMl1bQ0gyXVtDSDJdW0NASF0xW0NIMl1bQ0gyXU4oW0NIM10pYyhuW2NIXW4yKWMoYzIzKW5bY0hdbjNbQ0gyXUM0KFtDSDJdW09IXSlbQ0gyXVtDSDJdT1tDSDJdW0NIMl00

> <s_epik_cmdline>
J2VwaWtfcHl0aG9uJywgJy1waCcsICc3LjAnLCAnLXRuJywgJzgnLCAnLW1hJywgJzIwMCcsICctbWV0YWxfYmluZGluZycsICctaW1hZScsICc8aW5maWxlLm1hZT4nLCAnLW9tYWUnLCAnPG91dGZpbGUubWFlPic=

> <r_lp_tautomer_probability>
1

> <r_epik_Ionization_Penalty>
0.00234895

> <r_epik_Ionization_Penalty_Charging>
0.00106647

> <r_epik_Ionization_Penalty_Neutral>
0.00128248

> <r_epik_State_Penalty>
-0

> <r_epik_Charging_Adjusted_Penalty>
0.00106647

> <i_epik_Tot_Q>
1

> <i_epik_Tot_abs_Q>
1

> <r_epik_Metal_State_Penalty>
-0

> <b_epik_Metal_Only>
0

> <s_lp_Force_Field>
OPLS_2005

> <r_lp_Energy>
43.9513

> <b_lp_Chiralities_Consistent>
1

> <s_lp_Variant>
AV-unprocessed.smi:90-1

> <Gold.Version>
5.8.1

> <Gold.Id.Protein>
6NUR|6NUR_protein|mol2

> <Gold.PLP.Fitness>
44.0176

> <Gold.PLP.PLP>
-38.9885

> <Gold.PLP.part.hbond>
-2.0000

> <Gold.PLP.part.metal>
0.0000

> <Gold.PLP.part.buried>
-6.1155

> <Gold.PLP.part.nonpolar>
-30.2818

> <Gold.PLP.part.repulsive>
0.6087

> <Gold.PLP.ligand.clash>
0.0000

> <Gold.PLP.ligand.torsion>
0.5943

> <Gold.PLP.Chemscore.Hbond>
1.8960

> <Gold.PLP.Chemscore.CHOScore>
0.0000

> <Gold.PLP.Chemscore.Metal>
0.0000

> <Gold.Chemscore.Hbonds>
donor molecule, donor type, donor heavy atom, donor atom, acceptor molecule, acceptor atom, score
      L1  H    10    64       P1 10747  0.59
      P1  H  7989  7998       L1    24  0.75

> <Gold.PLP.Chemscore.Internal.Correction>
0.5297

> <Gold.Rescore>
     Score         DG    S(hbond)    S(metal)    S(lipo)     H(rot)  DE(clash)    DE(int)     intcor
     14.12     -15.89       1.86        0.00      95.74       2.73       0.03       1.74       ----

> <Gold.Chemscore.Fitness>
14.1177

> <Gold.Chemscore.DG>
-15.8859

> <Gold.Chemscore.ZeroCoef>
-5.4800

> <Gold.Chemscore.Hbond>
1.8577

> <Gold.Chemscore.Metal>
0.0000

> <Gold.Chemscore.Lipo>
95.7435

> <Gold.Chemscore.Internal_Hbond>
0.0000

> <Gold.Chemscore.DEClash>
0.0309

> <Gold.Chemscore.DEInternal>
1.7373

> <Gold.Chemscore.Rot>
2.7347

> <Gold.Chemscore.Internal.Correction>
   9.000000E+99

> <Gold.Chemscore.Hbonds>
donor molecule, donor type, donor heavy atom, donor atom, acceptor molecule, acceptor atom, score
      L1  H    10    64       P1 10747  0.58
      P1  H  7989  7998       L1    24  0.70

> <Gold.Chemscore.Hbond.Weighted>
-6.2048

> <Gold.Chemscore.Metal.Weighted>
-0.0000

> <Gold.Chemscore.Lipo.Weighted>
-11.2020

> <Gold.Chemscore.Internal_Hbond.Weighted>
0.0000

> <Gold.Chemscore.DEClash.Weighted>
0.0309

> <Gold.Chemscore.DEInternal.Weighted>
1.7373

> <Gold.Chemscore.Rot.Weighted>
7.0009

> <Gold.Chemscore.Internal.Correction.Weighted>
   9.000000E+99

> <Gold.Protein.RotatedTorsions>
[ 6907 6896 6895 6894 ] final   53.28 input  -60.11 | X-H torsion
[ 7974 7965 7964 7962 ] final    1.13 input  175.53 | X-H torsion
[ 8008 7997 7996 7995 ] final    0.25 input   59.86 | X-H torsion
[ 10167 10162 10161 10158 ] final   93.83 input  -65.29 | X-H torsion
[ 10718 10713 10712 10709 ] final -164.95 input   66.30 | X-H torsion
[ 10763 10752 10751 10750 ] final  166.87 input  -60.55 | X-H torsion
[ 11005 11000 10999 10996 ] final   69.43 input  -57.11 | X-H torsion

> <Gold.Protein.ActiveResidues>
 VAL166  LYS551  ARG553  GLY616  TRP617  ASP618  TYR619  PRO620  LYS621  CYS622 
 ASP623  PHE694  ASN695  SER759  ASP760  ASP761  ALA762  ILE779  LEU786  VAL792 
 PHE793  MET794  SER795  GLU796  ALA797  LYS798  CYS799  TRP800  GLU811  SER814 

> <Gold.Protein.RotatedAtoms>
  152.3320  134.7246  160.0286 H   0  0  0  0  0  0  0  0  0  0  0  0  # atno 6907 bound_to 6896
  151.7660  133.3332  159.3439 H   0  0  0  0  0  0  0  0  0  0  0  0  # atno 6908 bound_to 6896
  150.7429  134.5994  159.6073 H   0  0  0  0  0  0  0  0  0  0  0  0  # atno 6909 bound_to 6896
  146.2438  140.1033  142.8347 H   0  0  0  0  0  0  0  0  0  0  0  0  # atno 7974 bound_to 7965
  154.6659  140.2601  155.7058 H   0  0  0  0  0  0  0  0  0  0  0  0  # atno 8008 bound_to 7997
  156.2639  140.2839  156.1072 H   0  0  0  0  0  0  0  0  0  0  0  0  # atno 8009 bound_to 7997
  155.1239  140.0377  157.2747 H   0  0  0  0  0  0  0  0  0  0  0  0  # atno 8010 bound_to 7997
  139.8142  144.6760  150.9602 H   0  0  0  0  0  0  0  0  0  0  0  0  # atno 10167 bound_to 10162
  156.6465  130.8990  151.3005 H   0  0  0  0  0  0  0  0  0  0  0  0  # atno 10718 bound_to 10713
  154.3455  135.2753  155.2400 H   0  0  0  0  0  0  0  0  0  0  0  0  # atno 10763 bound_to 10752
  154.4652  135.5897  153.6286 H   0  0  0  0  0  0  0  0  0  0  0  0  # atno 10764 bound_to 10752
  152.9854  135.6074  154.3660 H   0  0  0  0  0  0  0  0  0  0  0  0  # atno 10765 bound_to 10752
  139.9654  134.6990  156.0557 H   0  0  0  0  0  0  0  0  0  0  0  0  # atno 11005 bound_to 11000
  145.0550  140.9046  143.4973 LP  0  0  0  0  0  0  0  0  0  0  0  0  # atno 17320 bound_to 7965
  145.1137  139.2739  143.5624 LP  0  0  0  0  0  0  0  0  0  0  0  0  # atno 17321 bound_to 7965
  140.7816  143.4155  151.0924 LP  0  0  0  0  0  0  0  0  0  0  0  0  # atno 17342 bound_to 10162
  139.7820  143.8342  152.3139 LP  0  0  0  0  0  0  0  0  0  0  0  0  # atno 17343 bound_to 10162
  157.7154  130.9491  150.1238 LP  0  0  0  0  0  0  0  0  0  0  0  0  # atno 17370 bound_to 10713
  156.2118  130.3667  149.8661 LP  0  0  0  0  0  0  0  0  0  0  0  0  # atno 17371 bound_to 10713
  141.1333  133.6581  156.3525 LP  0  0  0  0  0  0  0  0  0  0  0  0  # atno 17394 bound_to 11000
  140.5408  134.6122  157.5379 LP  0  0  0  0  0  0  0  0  0  0  0  0  # atno 17395 bound_to 11000

$$$$
