AV-unprocessed.smi:3290|AV-procd|sdf|12611|dock1
  -GOLD-   2272018543D 1   1.00000     0.00000
 Structure written by MMmdl.
 43 44  0  0  0  0  0  0  0  0  2 V2000
  152.4421  140.4268  159.2771 C   0  0  0  0  0  0  0  0  0  0  0  0
  152.3308  141.9579  159.1598 C   0  0  2  0  0  0  0  0  0  0  0  0
  152.5700  142.5972  160.5444 C   0  0  0  0  0  0  0  0  0  0  0  0
  152.5224  144.1299  160.4894 C   0  0  0  0  0  0  0  0  0  0  0  0
  151.1920  144.6113  159.9011 C   0  0  0  0  0  0  0  0  0  0  0  0
  150.9530  143.9929  158.5170 C   0  0  0  0  0  0  0  0  0  0  0  0
  150.9829  142.4480  158.5509 C   0  0  1  0  0  0  0  0  0  0  0  0
  150.7105  141.9036  157.1301 C   0  0  0  0  0  0  0  0  0  0  0  0
  149.3878  142.3130  156.6168 N   0  3  0  0  0  0  0  0  0  0  0  0
  148.7385  141.3043  155.7559 C   0  0  0  0  0  0  0  0  0  0  0  0
  149.5915  140.9834  154.5167 C   0  0  2  0  0  0  0  0  0  0  0  0
  148.7523  140.9676  153.3778 O   0  0  0  0  0  0  0  0  0  0  0  0
  150.3331  139.6672  154.6904 C   0  0  0  0  0  0  0  0  0  0  0  0
  149.6963  138.4430  154.3970 C   0  0  0  0  0  0  0  0  0  0  0  0
  150.4244  137.2475  154.5621 C   0  0  0  0  0  0  0  0  0  0  0  0
  151.7058  137.2125  154.9854 N   0  0  0  0  0  0  0  0  0  0  0  0
  152.3118  138.3865  155.2635 C   0  0  0  0  0  0  0  0  0  0  0  0
  151.6741  139.6362  155.1321 C   0  0  0  0  0  0  0  0  0  0  0  0
  151.6085  140.0087  159.8425 H   0  0  0  0  0  0  0  0  0  0  0  0
  153.3622  140.1405  159.7873 H   0  0  0  0  0  0  0  0  0  0  0  0
  152.4682  139.9460  158.2999 H   0  0  0  0  0  0  0  0  0  0  0  0
  153.1374  142.2901  158.5040 H   0  0  0  0  0  0  0  0  0  0  0  0
  151.8211  142.2369  161.2515 H   0  0  0  0  0  0  0  0  0  0  0  0
  153.5380  142.2848  160.9383 H   0  0  0  0  0  0  0  0  0  0  0  0
  152.6592  144.5434  161.4891 H   0  0  0  0  0  0  0  0  0  0  0  0
  153.3496  144.5021  159.8836 H   0  0  0  0  0  0  0  0  0  0  0  0
  150.3741  144.3429  160.5710 H   0  0  0  0  0  0  0  0  0  0  0  0
  151.1895  145.6994  159.8291 H   0  0  0  0  0  0  0  0  0  0  0  0
  149.9919  144.3408  158.1364 H   0  0  0  0  0  0  0  0  0  0  0  0
  151.7088  144.3605  157.8212 H   0  0  0  0  0  0  0  0  0  0  0  0
  150.1686  142.1268  159.2033 H   0  0  0  0  0  0  0  0  0  0  0  0
  151.4561  142.2867  156.4318 H   0  0  0  0  0  0  0  0  0  0  0  0
  150.8002  140.8165  157.1177 H   0  0  0  0  0  0  0  0  0  0  0  0
  148.7806  142.4872  157.4052 H   0  0  0  0  0  0  0  0  0  0  0  0
  148.5839  140.3971  156.3422 H   0  0  0  0  0  0  0  0  0  0  0  0
  147.7527  141.6627  155.4547 H   0  0  0  0  0  0  0  0  0  0  0  0
  150.3260  141.7765  154.3687 H   0  0  0  0  0  0  0  0  0  0  0  0
  149.2932  140.8688  152.6085 H   0  0  0  0  0  0  0  0  0  0  0  0
  148.6732  138.4136  154.0519 H   0  0  0  0  0  0  0  0  0  0  0  0
  149.9651  136.2942  154.3459 H   0  0  0  0  0  0  0  0  0  0  0  0
  153.3369  138.3291  155.5982 H   0  0  0  0  0  0  0  0  0  0  0  0
  152.2069  140.5467  155.3645 H   0  0  0  0  0  0  0  0  0  0  0  0
  149.4916  143.1711  156.0945 H   0  0  0  0  0  0  0  0  0  0  0  0
  1  2  1  0  0  0  0
  1 19  1  0  0  0  0
  1 20  1  0  0  0  0
  1 21  1  0  0  0  0
  2  7  1  0  0  0  0
  2  3  1  0  0  0  0
  2 22  1  0  0  0  0
  3  4  1  0  0  0  0
  3 23  1  0  0  0  0
  3 24  1  0  0  0  0
  4  5  1  0  0  0  0
  4 25  1  0  0  0  0
  4 26  1  0  0  0  0
  5  6  1  0  0  0  0
  5 27  1  0  0  0  0
  5 28  1  0  0  0  0
  6  7  1  0  0  0  0
  6 29  1  0  0  0  0
  6 30  1  0  0  0  0
  7  8  1  0  0  0  0
  7 31  1  0  0  0  0
  8  9  1  0  0  0  0
  8 32  1  0  0  0  0
  8 33  1  0  0  0  0
  9 10  1  0  0  0  0
  9 34  1  0  0  0  0
  9 43  1  0  0  0  0
 10 11  1  0  0  0  0
 10 35  1  0  0  0  0
 10 36  1  0  0  0  0
 11 12  1  0  0  0  0
 11 13  1  0  0  0  0
 11 37  1  0  0  0  0
 12 38  1  0  0  0  0
 13 18  1  0  0  0  0
 13 14  2  0  0  0  0
 14 15  1  0  0  0  0
 14 39  1  0  0  0  0
 15 16  2  0  0  0  0
 15 40  1  0  0  0  0
 16 17  1  0  0  0  0
 17 18  2  0  0  0  0
 17 41  1  0  0  0  0
 18 42  1  0  0  0  0
M  CHG  1   9   1
M  END
> <s_m_source_file>
AV-unprocessed.smi

> <i_m_source_file_index>
3290

> <i_lp_mmshare_version>
43012

> <i_f3d_flags>
0

> <s_epik_input>
W0NIM11bQ0BASF0xW0NIMl1bQ0gyXVtDSDJdW0NIMl1bQ0BIXTFbQ0gyXVtOSF1bQ0gyXVtDQEhdKFtPSF0pYzJbY0hdW2NIXW5bY0hdW2NIXTI=

> <s_epik_cmdline>
J2VwaWtfcHl0aG9uJywgJy1waCcsICc3LjAnLCAnLXRuJywgJzgnLCAnLW1hJywgJzIwMCcsICctbWV0YWxfYmluZGluZycsICctaW1hZScsICc8aW5maWxlLm1hZT4nLCAnLW9tYWUnLCAnPG91dGZpbGUubWFlPic=

> <r_lp_tautomer_probability>
1

> <r_epik_Ionization_Penalty>
0.00420552

> <r_epik_Ionization_Penalty_Charging>
0.00207255

> <r_epik_Ionization_Penalty_Neutral>
0.00213297

> <r_epik_State_Penalty>
-0

> <r_epik_Charging_Adjusted_Penalty>
0.00207255

> <i_epik_Tot_Q>
1

> <i_epik_Tot_abs_Q>
1

> <r_epik_Metal_State_Penalty>
-0

> <b_epik_Metal_Only>
0

> <s_lp_Force_Field>
OPLS_2005

> <r_lp_Energy>
17.3626

> <b_lp_Chiralities_Consistent>
1

> <s_lp_Variant>
AV-unprocessed.smi:3290-1

> <Gold.Version>
5.8.1

> <Gold.Id.Protein>
6NUR|6NUR_protein|mol2

> <Gold.PLP.Fitness>
52.0780

> <Gold.PLP.PLP>
-41.7430

> <Gold.PLP.part.hbond>
-3.9723

> <Gold.PLP.part.metal>
0.0000

> <Gold.PLP.part.buried>
-1.7079

> <Gold.PLP.part.nonpolar>
-36.7430

> <Gold.PLP.part.repulsive>
0.1303

> <Gold.PLP.ligand.clash>
0.0000

> <Gold.PLP.ligand.torsion>
1.4948

> <Gold.PLP.Chemscore.Hbond>
3.9840

> <Gold.PLP.Chemscore.CHOScore>
0.4064

> <Gold.PLP.Chemscore.Metal>
0.0000

> <Gold.Chemscore.Hbonds>
donor molecule, donor type, donor heavy atom, donor atom, acceptor molecule, acceptor atom, score
      L1  H     9    43       P1  8028  1.98
      L1  H    12    38       P1  7957  0.98
      P1  H 10752 10763       L1    16  0.91
      L1  C    15    40       P1  7948  0.44

> <Gold.PLP.Chemscore.Internal.Correction>
0.1533

> <Gold.Rescore>
     Score         DG    S(hbond)    S(metal)    S(lipo)     H(rot)  DE(clash)    DE(int)     intcor
     21.68     -24.05       2.83        0.00     122.82       2.05       1.36       1.02       ----

> <Gold.Chemscore.Fitness>
21.6777

> <Gold.Chemscore.DG>
-24.0534

> <Gold.Chemscore.ZeroCoef>
-5.4800

> <Gold.Chemscore.Hbond>
2.8296

> <Gold.Chemscore.Metal>
0.0000

> <Gold.Chemscore.Lipo>
122.8218

> <Gold.Chemscore.Internal_Hbond>
0.0000

> <Gold.Chemscore.DEClash>
1.3554

> <Gold.Chemscore.DEInternal>
1.0204

> <Gold.Chemscore.Rot>
2.0498

> <Gold.Chemscore.Internal.Correction>
   9.000000E+99

> <Gold.Chemscore.Hbonds>
donor molecule, donor type, donor heavy atom, donor atom, acceptor molecule, acceptor atom, score
      L1  H     9    43       P1  8028  0.93
      L1  H    12    38       P1  7957  0.93
      P1  H 10752 10763       L1    16  0.79

> <Gold.Chemscore.Hbond.Weighted>
-9.4508

> <Gold.Chemscore.Metal.Weighted>
-0.0000

> <Gold.Chemscore.Lipo.Weighted>
-14.3702

> <Gold.Chemscore.Internal_Hbond.Weighted>
0.0000

> <Gold.Chemscore.DEClash.Weighted>
1.3554

> <Gold.Chemscore.DEInternal.Weighted>
1.0204

> <Gold.Chemscore.Rot.Weighted>
5.2475

> <Gold.Chemscore.Internal.Correction.Weighted>
   9.000000E+99

> <Gold.Protein.RotatedTorsions>
[ 6907 6896 6895 6894 ] final   50.46 input  -60.11 | X-H torsion
[ 7974 7965 7964 7962 ] final  -51.65 input  175.53 | X-H torsion
[ 8008 7997 7996 7995 ] final  103.79 input   59.86 | X-H torsion
[ 10167 10162 10161 10158 ] final -100.52 input  -65.29 | X-H torsion
[ 10718 10713 10712 10709 ] final  -94.91 input   66.30 | X-H torsion
[ 10763 10752 10751 10750 ] final   56.03 input  -60.55 | X-H torsion
[ 11005 11000 10999 10996 ] final  -52.85 input  -57.11 | X-H torsion

> <Gold.Protein.ActiveResidues>
 VAL166  LYS551  ARG553  GLY616  TRP617  ASP618  TYR619  PRO620  LYS621  CYS622 
 ASP623  PHE694  ASN695  SER759  ASP760  ASP761  ALA762  ILE779  LEU786  VAL792 
 PHE793  MET794  SER795  GLU796  ALA797  LYS798  CYS799  TRP800  GLU811  SER814 

> <Gold.Protein.RotatedAtoms>
  152.3021  134.7599  160.0355 H   0  0  0  0  0  0  0  0  0  0  0  0  # atno 6907 bound_to 6896
  151.8109  133.3376  159.3563 H   0  0  0  0  0  0  0  0  0  0  0  0  # atno 6908 bound_to 6896
  150.7278  134.5595  159.5879 H   0  0  0  0  0  0  0  0  0  0  0  0  # atno 6909 bound_to 6896
  145.9166  140.7869  142.9668 H   0  0  0  0  0  0  0  0  0  0  0  0  # atno 7974 bound_to 7965
  156.1516  140.3159  155.8657 H   0  0  0  0  0  0  0  0  0  0  0  0  # atno 8008 bound_to 7997
  155.3960  140.0496  157.3056 H   0  0  0  0  0  0  0  0  0  0  0  0  # atno 8009 bound_to 7997
  154.5063  140.2148  155.9256 H   0  0  0  0  0  0  0  0  0  0  0  0  # atno 8010 bound_to 7997
  140.2510  143.3472  152.0714 H   0  0  0  0  0  0  0  0  0  0  0  0  # atno 10167 bound_to 10162
  156.0034  130.5087  150.5997 H   0  0  0  0  0  0  0  0  0  0  0  0  # atno 10718 bound_to 10713
  152.9825  135.5690  154.5163 H   0  0  0  0  0  0  0  0  0  0  0  0  # atno 10763 bound_to 10752
  154.4658  135.2783  155.1681 H   0  0  0  0  0  0  0  0  0  0  0  0  # atno 10764 bound_to 10752
  154.3250  135.6261  153.5578 H   0  0  0  0  0  0  0  0  0  0  0  0  # atno 10765 bound_to 10752
  141.0945  133.6627  156.4084 H   0  0  0  0  0  0  0  0  0  0  0  0  # atno 11005 bound_to 11000
  144.6748  140.1910  143.7396 LP  0  0  0  0  0  0  0  0  0  0  0  0  # atno 17320 bound_to 7965
  145.8603  139.2219  143.1720 LP  0  0  0  0  0  0  0  0  0  0  0  0  # atno 17321 bound_to 7965
  139.5046  144.6779  151.6083 LP  0  0  0  0  0  0  0  0  0  0  0  0  # atno 17342 bound_to 10162
  140.6040  143.9558  150.6406 LP  0  0  0  0  0  0  0  0  0  0  0  0  # atno 17343 bound_to 10162
  157.3848  131.0786  151.1445 LP  0  0  0  0  0  0  0  0  0  0  0  0  # atno 17370 bound_to 10713
  157.2156  130.6458  149.5791 LP  0  0  0  0  0  0  0  0  0  0  0  0  # atno 17371 bound_to 10713
  140.5172  134.6339  157.5305 LP  0  0  0  0  0  0  0  0  0  0  0  0  # atno 17394 bound_to 11000
  139.9779  134.7185  155.9915 LP  0  0  0  0  0  0  0  0  0  0  0  0  # atno 17395 bound_to 11000

$$$$
