AV-unprocessed.smi:1843|AV-procd|sdf|7503|dock7
  -GOLD-   22720 9203D 1   1.00000     0.00000
 Structure written by MMmdl.
 37 39  0  0  0  0  0  0  0  0  1 V2000
  152.9814  139.4327  157.1190 O   0  0  0  0  0  0  0  0  0  0  0  0
  151.8072  139.5456  157.4717 C   0  0  0  0  0  0  0  0  0  0  0  0
  150.8709  138.5850  157.3791 N   0  0  0  0  0  0  0  0  0  0  0  0
  151.0103  137.2657  156.8728 C   0  0  0  0  0  0  0  0  0  0  0  0
  152.0343  136.4558  157.1747 N   0  0  0  0  0  0  0  0  0  0  0  0
  151.9245  135.2248  156.5437 N   0  0  0  0  0  0  0  0  0  0  0  0
  150.8243  135.1381  155.7863 C   0  0  0  0  0  0  0  0  0  0  0  0
  150.4883  133.9094  155.0084 C   0  0  0  0  0  0  0  0  0  0  0  0
  149.3308  133.8782  154.0342 C   0  0  0  0  0  0  0  0  0  0  0  0
  149.2470  133.1088  155.3278 C   0  0  0  0  0  0  0  0  0  0  0  0
  149.8165  136.5820  155.7828 S   0  0  0  0  0  0  0  0  0  0  0  0
  151.2995  140.6665  158.0039 N   0  0  0  0  0  0  0  0  0  0  0  0
  152.0481  141.8979  158.2498 C   0  0  1  0  0  0  0  0  0  0  0  0
  151.3384  143.0662  157.5298 C   0  0  0  0  0  0  0  0  0  0  0  0
  151.9658  144.4264  157.8676 C   0  0  0  0  0  0  0  0  0  0  0  0
  151.9831  144.6613  159.3836 C   0  0  0  0  0  0  0  0  0  0  0  0
  152.7367  143.5308  160.0966 C   0  0  0  0  0  0  0  0  0  0  0  0
  152.1338  142.1505  159.7735 C   0  0  2  0  0  0  0  0  0  0  0  0
  152.9674  141.1760  160.3686 O   0  0  0  0  0  0  0  0  0  0  0  0
  149.9482  138.8260  157.7089 H   0  0  0  0  0  0  0  0  0  0  0  0
  151.3919  133.3638  154.7432 H   0  0  0  0  0  0  0  0  0  0  0  0
  148.7071  134.7655  153.9440 H   0  0  0  0  0  0  0  0  0  0  0  0
  149.4622  133.3070  153.1177 H   0  0  0  0  0  0  0  0  0  0  0  0
  149.3230  132.0246  155.2753 H   0  0  0  0  0  0  0  0  0  0  0  0
  148.5815  133.4933  156.0985 H   0  0  0  0  0  0  0  0  0  0  0  0
  150.3233  140.6719  158.2605 H   0  0  0  0  0  0  0  0  0  0  0  0
  153.0615  141.8063  157.8527 H   0  0  0  0  0  0  0  0  0  0  0  0
  151.3644  142.9119  156.4502 H   0  0  0  0  0  0  0  0  0  0  0  0
  150.2841  143.0842  157.8105 H   0  0  0  0  0  0  0  0  0  0  0  0
  152.9832  144.4685  157.4766 H   0  0  0  0  0  0  0  0  0  0  0  0
  151.4107  145.2248  157.3743 H   0  0  0  0  0  0  0  0  0  0  0  0
  152.4521  145.6199  159.6066 H   0  0  0  0  0  0  0  0  0  0  0  0
  150.9613  144.7192  159.7609 H   0  0  0  0  0  0  0  0  0  0  0  0
  153.7847  143.5563  159.7932 H   0  0  0  0  0  0  0  0  0  0  0  0
  152.7245  143.7015  161.1737 H   0  0  0  0  0  0  0  0  0  0  0  0
  151.1400  142.0809  160.2183 H   0  0  0  0  0  0  0  0  0  0  0  0
  153.8679  141.4243  160.2262 H   0  0  0  0  0  0  0  0  0  0  0  0
  1  2  2  0  0  0  0
  2  3  1  0  0  0  0
  2 12  1  0  0  0  0
  3  4  1  0  0  0  0
  3 20  1  0  0  0  0
  4 11  1  0  0  0  0
  4  5  2  0  0  0  0
  5  6  1  0  0  0  0
  6  7  2  0  0  0  0
  7  8  1  0  0  0  0
  7 11  1  0  0  0  0
  8 10  1  0  0  0  0
  8  9  1  0  0  0  0
  8 21  1  0  0  0  0
  9 10  1  0  0  0  0
  9 22  1  0  0  0  0
  9 23  1  0  0  0  0
 10 24  1  0  0  0  0
 10 25  1  0  0  0  0
 12 13  1  0  0  0  0
 12 26  1  0  0  0  0
 13 18  1  0  0  0  0
 13 14  1  0  0  0  0
 13 27  1  0  0  0  0
 14 15  1  0  0  0  0
 14 28  1  0  0  0  0
 14 29  1  0  0  0  0
 15 16  1  0  0  0  0
 15 30  1  0  0  0  0
 15 31  1  0  0  0  0
 16 17  1  0  0  0  0
 16 32  1  0  0  0  0
 16 33  1  0  0  0  0
 17 18  1  0  0  0  0
 17 34  1  0  0  0  0
 17 35  1  0  0  0  0
 18 19  1  0  0  0  0
 18 36  1  0  0  0  0
 19 37  1  0  0  0  0
M  END
> <s_m_source_file>
AV-unprocessed.smi

> <i_m_source_file_index>
1843

> <i_lp_mmshare_version>
43012

> <i_f3d_flags>
0

> <s_epik_input>
W09IXVtDQEBIXTFbQ0gyXVtDSDJdW0NIMl1bQ0gyXVtDQEhdMVtOSF1DKD1PKVtOSF1jMm5uYyhzMilbQ0hdM1tDSDJdW0NIMl0z

> <s_epik_cmdline>
J2VwaWtfcHl0aG9uJywgJy1waCcsICc3LjAnLCAnLXRuJywgJzgnLCAnLW1hJywgJzIwMCcsICctbWV0YWxfYmluZGluZycsICctaW1hZScsICc8aW5maWxlLm1hZT4nLCAnLW9tYWUnLCAnPG91dGZpbGUubWFlPic=

> <r_lp_tautomer_probability>
1

> <r_epik_Ionization_Penalty>
0.000257313

> <r_epik_Ionization_Penalty_Charging>
0

> <r_epik_Ionization_Penalty_Neutral>
0.000257313

> <r_epik_State_Penalty>
-0

> <r_epik_Charging_Adjusted_Penalty>
0

> <i_epik_Tot_Q>
0

> <i_epik_Tot_abs_Q>
0

> <r_epik_Metal_State_Penalty>
0.147479

> <b_epik_Metal_Only>
0

> <s_lp_Force_Field>
OPLS_2005

> <r_lp_Energy>
8.53895

> <b_lp_Chiralities_Consistent>
1

> <s_lp_Variant>
AV-unprocessed.smi:1843-4

> <Gold.Version>
5.8.1

> <Gold.Id.Protein>
6NUR|6NUR_protein|mol2

> <Gold.PLP.Fitness>
39.4507

> <Gold.PLP.PLP>
-34.2574

> <Gold.PLP.part.hbond>
-2.0000

> <Gold.PLP.part.metal>
0.0000

> <Gold.PLP.part.buried>
-5.1085

> <Gold.PLP.part.nonpolar>
-26.6002

> <Gold.PLP.part.repulsive>
0.1093

> <Gold.PLP.ligand.clash>
0.0000

> <Gold.PLP.ligand.torsion>
0.4676

> <Gold.PLP.Chemscore.Hbond>
2.0000

> <Gold.PLP.Chemscore.CHOScore>
0.0000

> <Gold.PLP.Chemscore.Metal>
0.0000

> <Gold.Chemscore.Hbonds>
donor molecule, donor type, donor heavy atom, donor atom, acceptor molecule, acceptor atom, score
      P1  H  7997  8009       L1     1  1.00
      P1  H 10752 10763       L1     6  0.95

> <Gold.PLP.Chemscore.Internal.Correction>
0.1285

> <Gold.Rescore>
     Score         DG    S(hbond)    S(metal)    S(lipo)     H(rot)  DE(clash)    DE(int)     intcor
     16.35     -16.87       1.57        0.00      90.62       1.74       0.02       0.50       ----

> <Gold.Chemscore.Fitness>
16.3532

> <Gold.Chemscore.DG>
-16.8737

> <Gold.Chemscore.ZeroCoef>
-5.4800

> <Gold.Chemscore.Hbond>
1.5708

> <Gold.Chemscore.Metal>
0.0000

> <Gold.Chemscore.Lipo>
90.6226

> <Gold.Chemscore.Internal_Hbond>
0.0000

> <Gold.Chemscore.DEClash>
0.0216

> <Gold.Chemscore.DEInternal>
0.4989

> <Gold.Chemscore.Rot>
1.7404

> <Gold.Chemscore.Internal.Correction>
   9.000000E+99

> <Gold.Chemscore.Hbonds>
donor molecule, donor type, donor heavy atom, donor atom, acceptor molecule, acceptor atom, score
      P1  H  7997  8009       L1     1  0.97
      P1  H 10752 10763       L1     6  0.06

> <Gold.Chemscore.Hbond.Weighted>
-5.2463

> <Gold.Chemscore.Metal.Weighted>
-0.0000

> <Gold.Chemscore.Lipo.Weighted>
-10.6028

> <Gold.Chemscore.Internal_Hbond.Weighted>
0.0000

> <Gold.Chemscore.DEClash.Weighted>
0.0216

> <Gold.Chemscore.DEInternal.Weighted>
0.4989

> <Gold.Chemscore.Rot.Weighted>
4.4555

> <Gold.Chemscore.Internal.Correction.Weighted>
   9.000000E+99

> <Gold.Protein.RotatedTorsions>
[ 6907 6896 6895 6894 ] final    9.29 input  -60.11 | X-H torsion
[ 7974 7965 7964 7962 ] final  -71.15 input  175.53 | X-H torsion
[ 8008 7997 7996 7995 ] final -165.45 input   59.86 | X-H torsion
[ 10167 10162 10161 10158 ] final  -10.09 input  -65.29 | X-H torsion
[ 10718 10713 10712 10709 ] final -124.72 input   66.30 | X-H torsion
[ 10763 10752 10751 10750 ] final   96.90 input  -60.55 | X-H torsion
[ 11005 11000 10999 10996 ] final -158.47 input  -57.11 | X-H torsion

> <Gold.Protein.ActiveResidues>
 VAL166  LYS551  ARG553  GLY616  TRP617  ASP618  TYR619  PRO620  LYS621  CYS622 
 ASP623  PHE694  ASN695  SER759  ASP760  ASP761  ALA762  ILE779  LEU786  VAL792 
 PHE793  MET794  SER795  GLU796  ALA797  LYS798  CYS799  TRP800  GLU811  SER814 

> <Gold.Protein.RotatedAtoms>
  151.7198  135.0896  160.0281 H   0  0  0  0  0  0  0  0  0  0  0  0  # atno 6907 bound_to 6896
  152.3609  133.6291  159.6023 H   0  0  0  0  0  0  0  0  0  0  0  0  # atno 6908 bound_to 6896
  150.7604  133.9341  159.3477 H   0  0  0  0  0  0  0  0  0  0  0  0  # atno 6909 bound_to 6896
  145.6818  140.9185  143.0828 H   0  0  0  0  0  0  0  0  0  0  0  0  # atno 7974 bound_to 7965
  155.8499  140.0961  157.1681 H   0  0  0  0  0  0  0  0  0  0  0  0  # atno 8008 bound_to 7997
  154.3985  140.1385  156.3894 H   0  0  0  0  0  0  0  0  0  0  0  0  # atno 8009 bound_to 7997
  155.7972  140.3454  155.5385 H   0  0  0  0  0  0  0  0  0  0  0  0  # atno 8010 bound_to 7997
  140.7104  143.5786  150.9015 H   0  0  0  0  0  0  0  0  0  0  0  0  # atno 10167 bound_to 10162
  156.1613  130.6603  151.0053 H   0  0  0  0  0  0  0  0  0  0  0  0  # atno 10718 bound_to 10713
  153.2705  135.4202  155.0983 H   0  0  0  0  0  0  0  0  0  0  0  0  # atno 10763 bound_to 10752
  154.8454  135.3471  154.6251 H   0  0  0  0  0  0  0  0  0  0  0  0  # atno 10764 bound_to 10752
  153.6671  135.7045  153.5216 H   0  0  0  0  0  0  0  0  0  0  0  0  # atno 10765 bound_to 10752
  140.6532  134.4428  157.5235 H   0  0  0  0  0  0  0  0  0  0  0  0  # atno 11005 bound_to 11000
  144.7024  139.8706  143.7440 LP  0  0  0  0  0  0  0  0  0  0  0  0  # atno 17320 bound_to 7965
  146.0958  139.3950  143.0377 LP  0  0  0  0  0  0  0  0  0  0  0  0  # atno 17321 bound_to 7965
  139.9512  143.6269  152.3028 LP  0  0  0  0  0  0  0  0  0  0  0  0  # atno 17342 bound_to 10162
  139.6789  144.7657  151.1645 LP  0  0  0  0  0  0  0  0  0  0  0  0  # atno 17343 bound_to 10162
  157.6734  131.0856  150.7555 LP  0  0  0  0  0  0  0  0  0  0  0  0  # atno 17370 bound_to 10713
  156.7618  130.4801  149.5435 LP  0  0  0  0  0  0  0  0  0  0  0  0  # atno 17371 bound_to 10713
  139.9038  134.8494  156.1786 LP  0  0  0  0  0  0  0  0  0  0  0  0  # atno 17394 bound_to 11000
  141.0521  133.6883  156.1791 LP  0  0  0  0  0  0  0  0  0  0  0  0  # atno 17395 bound_to 11000

$$$$
