AV-unprocessed.smi:2300|AV-procd|sdf|9232|dock6
  -GOLD-   2272012453D 1   1.00000     0.00000
 Structure written by MMmdl.
 51 52  0  0  0  0  0  0  0  0  1 V2000
  154.2497  138.2557  160.4862 C   0  0  0  0  0  0  0  0  0  0  0  0
  154.4236  139.7555  160.2719 C   0  0  0  0  0  0  0  0  0  0  0  0
  155.1923  140.1703  159.4050 O   0  0  0  0  0  0  0  0  0  0  0  0
  153.7039  140.5577  161.0702 N   0  0  0  0  0  0  0  0  0  0  0  0
  153.7164  142.0159  161.0238 C   0  0  0  0  0  0  0  0  0  0  0  0
  152.5923  142.5676  160.1309 C   0  0  2  0  0  0  0  0  0  0  0  0
  152.4266  141.7364  158.8446 C   0  0  0  0  0  0  0  0  0  0  0  0
  151.4243  142.3399  157.9684 N   0  0  0  0  0  0  0  0  0  0  0  0
  150.9602  141.5763  156.8756 C   0  0  0  0  0  0  0  0  0  0  0  0
  149.8482  142.0014  156.1105 C   0  0  0  0  0  0  0  0  0  0  0  0
  149.4544  141.1744  155.0372 C   0  0  0  0  0  0  0  0  0  0  0  0
  148.2685  141.5364  154.1542 C   0  0  0  0  0  0  0  0  0  0  0  0
  147.0379  141.9308  154.9856 C   0  0  0  0  0  0  0  0  0  0  0  0
  147.9557  140.4276  153.1372 C   0  0  0  0  0  0  0  0  0  0  0  0
  150.1086  140.0273  154.7512 N   0  0  0  0  0  0  0  0  0  0  0  0
  151.1428  139.7077  155.5339 C   0  0  0  0  0  0  0  0  0  0  0  0
  151.8785  138.4130  155.2147 C   0  0  0  0  0  0  0  0  0  0  0  0
  153.3270  138.6689  154.7710 C   0  0  0  0  0  0  0  0  0  0  0  0
  151.0933  137.5336  154.2292 C   0  0  0  0  0  0  0  0  0  0  0  0
  151.5950  140.4173  156.5719 N   0  0  0  0  0  0  0  0  0  0  0  0
  151.6646  143.7552  157.6994 C   0  0  0  0  0  0  0  0  0  0  0  0
  151.8760  144.5231  159.0150 C   0  0  0  0  0  0  0  0  0  0  0  0
  152.9146  143.9087  159.7699 O   0  0  0  0  0  0  0  0  0  0  0  0
  153.1947  137.9999  160.5903 H   0  0  0  0  0  0  0  0  0  0  0  0
  154.7730  137.9398  161.3889 H   0  0  0  0  0  0  0  0  0  0  0  0
  154.6533  137.6950  159.6423 H   0  0  0  0  0  0  0  0  0  0  0  0
  153.0941  140.1286  161.7508 H   0  0  0  0  0  0  0  0  0  0  0  0
  153.6067  142.3945  162.0403 H   0  0  0  0  0  0  0  0  0  0  0  0
  154.6878  142.3634  160.6682 H   0  0  0  0  0  0  0  0  0  0  0  0
  151.6530  142.5573  160.6875 H   0  0  0  0  0  0  0  0  0  0  0  0
  153.3766  141.6702  158.3123 H   0  0  0  0  0  0  0  0  0  0  0  0
  152.1294  140.7210  159.1100 H   0  0  0  0  0  0  0  0  0  0  0  0
  149.3065  142.9069  156.3383 H   0  0  0  0  0  0  0  0  0  0  0  0
  148.5541  142.4181  153.5789 H   0  0  0  0  0  0  0  0  0  0  0  0
  147.2672  142.7616  155.6539 H   0  0  0  0  0  0  0  0  0  0  0  0
  146.6852  141.0993  155.5967 H   0  0  0  0  0  0  0  0  0  0  0  0
  146.2139  142.2421  154.3433 H   0  0  0  0  0  0  0  0  0  0  0  0
  148.8256  140.2092  152.5172 H   0  0  0  0  0  0  0  0  0  0  0  0
  147.1431  140.7230  152.4730 H   0  0  0  0  0  0  0  0  0  0  0  0
  147.6586  139.5026  153.6325 H   0  0  0  0  0  0  0  0  0  0  0  0
  151.9429  137.8430  156.1435 H   0  0  0  0  0  0  0  0  0  0  0  0
  153.8759  139.2255  155.5311 H   0  0  0  0  0  0  0  0  0  0  0  0
  153.3649  139.2426  153.8445 H   0  0  0  0  0  0  0  0  0  0  0  0
  153.8565  137.7311  154.6012 H   0  0  0  0  0  0  0  0  0  0  0  0
  150.0975  137.3099  154.6128 H   0  0  0  0  0  0  0  0  0  0  0  0
  151.6023  136.5846  154.0591 H   0  0  0  0  0  0  0  0  0  0  0  0
  150.9760  138.0245  153.2625 H   0  0  0  0  0  0  0  0  0  0  0  0
  152.5491  143.8474  157.0681 H   0  0  0  0  0  0  0  0  0  0  0  0
  150.8381  144.2102  157.1555 H   0  0  0  0  0  0  0  0  0  0  0  0
  152.1538  145.5559  158.8051 H   0  0  0  0  0  0  0  0  0  0  0  0
  150.9556  144.5544  159.6001 H   0  0  0  0  0  0  0  0  0  0  0  0
  1  2  1  0  0  0  0
  1 24  1  0  0  0  0
  1 25  1  0  0  0  0
  1 26  1  0  0  0  0
  2  3  2  0  0  0  0
  2  4  1  0  0  0  0
  4  5  1  0  0  0  0
  4 27  1  0  0  0  0
  5  6  1  0  0  0  0
  5 28  1  0  0  0  0
  5 29  1  0  0  0  0
  6 23  1  0  0  0  0
  6  7  1  0  0  0  0
  6 30  1  0  0  0  0
  7  8  1  0  0  0  0
  7 31  1  0  0  0  0
  7 32  1  0  0  0  0
  8  9  1  0  0  0  0
  8 21  1  0  0  0  0
  9 20  1  0  0  0  0
  9 10  2  0  0  0  0
 10 11  1  0  0  0  0
 10 33  1  0  0  0  0
 11 12  1  0  0  0  0
 11 15  2  0  0  0  0
 12 13  1  0  0  0  0
 12 14  1  0  0  0  0
 12 34  1  0  0  0  0
 13 35  1  0  0  0  0
 13 36  1  0  0  0  0
 13 37  1  0  0  0  0
 14 38  1  0  0  0  0
 14 39  1  0  0  0  0
 14 40  1  0  0  0  0
 15 16  1  0  0  0  0
 16 17  1  0  0  0  0
 16 20  2  0  0  0  0
 17 18  1  0  0  0  0
 17 19  1  0  0  0  0
 17 41  1  0  0  0  0
 18 42  1  0  0  0  0
 18 43  1  0  0  0  0
 18 44  1  0  0  0  0
 19 45  1  0  0  0  0
 19 46  1  0  0  0  0
 19 47  1  0  0  0  0
 21 22  1  0  0  0  0
 21 48  1  0  0  0  0
 21 49  1  0  0  0  0
 22 23  1  0  0  0  0
 22 50  1  0  0  0  0
 22 51  1  0  0  0  0
M  END
> <s_m_source_file>
AV-unprocessed.smi

> <i_m_source_file_index>
2300

> <i_lp_mmshare_version>
43012

> <i_f3d_flags>
0

> <s_epik_input>
W0NIM11DKD1PKVtOSF1bQ0gyXVtDQEBIXTFbQ0gyXU4oW0NIMl1bQ0gyXU8xKWMyW2NIXWMoW0NIXShbQ0gzXSlbQ0gzXSluYyhuMilbQ0hdKFtDSDNdKVtDSDNd

> <s_epik_cmdline>
J2VwaWtfcHl0aG9uJywgJy1waCcsICc3LjAnLCAnLXRuJywgJzgnLCAnLW1hJywgJzIwMCcsICctbWV0YWxfYmluZGluZycsICctaW1hZScsICc8aW5maWxlLm1hZT4nLCAnLW9tYWUnLCAnPG91dGZpbGUubWFlPic=

> <r_lp_tautomer_probability>
1

> <r_epik_Ionization_Penalty>
0.0035465

> <r_epik_Ionization_Penalty_Charging>
0

> <r_epik_Ionization_Penalty_Neutral>
0.0035465

> <r_epik_State_Penalty>
0.00247846

> <r_epik_Charging_Adjusted_Penalty>
0.00247846

> <i_epik_Tot_Q>
0

> <i_epik_Tot_abs_Q>
0

> <r_epik_Metal_State_Penalty>
-0

> <b_epik_Metal_Only>
0

> <s_lp_Force_Field>
OPLS_2005

> <r_lp_Energy>
0.953056

> <b_lp_Chiralities_Consistent>
1

> <s_lp_Variant>
AV-unprocessed.smi:2300-1

> <Gold.Version>
5.8.1

> <Gold.Id.Protein>
6NUR|6NUR_protein|mol2

> <Gold.PLP.Fitness>
48.1918

> <Gold.PLP.PLP>
-46.1816

> <Gold.PLP.part.hbond>
-2.0000

> <Gold.PLP.part.metal>
0.0000

> <Gold.PLP.part.buried>
4.0151

> <Gold.PLP.part.nonpolar>
-48.4550

> <Gold.PLP.part.repulsive>
0.1678

> <Gold.PLP.ligand.clash>
0.0000

> <Gold.PLP.ligand.torsion>
0.8484

> <Gold.PLP.Chemscore.Hbond>
1.0813

> <Gold.PLP.Chemscore.CHOScore>
0.0000

> <Gold.PLP.Chemscore.Metal>
0.0000

> <Gold.Chemscore.Hbonds>
donor molecule, donor type, donor heavy atom, donor atom, acceptor molecule, acceptor atom, score
      P1  H  7989  7998       L1    15  0.12
      P1  H  7997  8008       L1     3  0.82

> <Gold.PLP.Chemscore.Internal.Correction>
0.4633

> <Gold.Rescore>
     Score         DG    S(hbond)    S(metal)    S(lipo)     H(rot)  DE(clash)    DE(int)     intcor
     15.49     -18.17       0.92        0.00     121.99       1.82       1.59       1.10       ----

> <Gold.Chemscore.Fitness>
15.4890

> <Gold.Chemscore.DG>
-18.1698

> <Gold.Chemscore.ZeroCoef>
-5.4800

> <Gold.Chemscore.Hbond>
0.9178

> <Gold.Chemscore.Metal>
0.0000

> <Gold.Chemscore.Lipo>
121.9867

> <Gold.Chemscore.Internal_Hbond>
0.0000

> <Gold.Chemscore.DEClash>
1.5855

> <Gold.Chemscore.DEInternal>
1.0953

> <Gold.Chemscore.Rot>
1.8156

> <Gold.Chemscore.Internal.Correction>
   9.000000E+99

> <Gold.Chemscore.Hbonds>
donor molecule, donor type, donor heavy atom, donor atom, acceptor molecule, acceptor atom, score
      P1  H  7997  8008       L1     3  0.78

> <Gold.Chemscore.Hbond.Weighted>
-3.0654

> <Gold.Chemscore.Metal.Weighted>
-0.0000

> <Gold.Chemscore.Lipo.Weighted>
-14.2724

> <Gold.Chemscore.Internal_Hbond.Weighted>
0.0000

> <Gold.Chemscore.DEClash.Weighted>
1.5855

> <Gold.Chemscore.DEInternal.Weighted>
1.0953

> <Gold.Chemscore.Rot.Weighted>
4.6481

> <Gold.Chemscore.Internal.Correction.Weighted>
   9.000000E+99

> <Gold.Protein.RotatedTorsions>
[ 6907 6896 6895 6894 ] final -142.62 input  -60.11 | X-H torsion
[ 7974 7965 7964 7962 ] final -102.04 input  175.53 | X-H torsion
[ 8008 7997 7996 7995 ] final -142.16 input   59.86 | X-H torsion
[ 10167 10162 10161 10158 ] final  169.76 input  -65.29 | X-H torsion
[ 10718 10713 10712 10709 ] final  158.82 input   66.30 | X-H torsion
[ 10763 10752 10751 10750 ] final  151.08 input  -60.55 | X-H torsion
[ 11005 11000 10999 10996 ] final -166.99 input  -57.11 | X-H torsion

> <Gold.Protein.ActiveResidues>
 VAL166  LYS551  ARG553  GLY616  TRP617  ASP618  TYR619  PRO620  LYS621  CYS622 
 ASP623  PHE694  ASN695  SER759  ASP760  ASP761  ALA762  ILE779  LEU786  VAL792 
 PHE793  MET794  SER795  GLU796  ALA797  LYS798  CYS799  TRP800  GLU811  SER814 

> <Gold.Protein.RotatedAtoms>
  151.0894  133.5327  159.2615 H   0  0  0  0  0  0  0  0  0  0  0  0  # atno 6907 bound_to 6896
  151.2200  135.0514  159.8956 H   0  0  0  0  0  0  0  0  0  0  0  0  # atno 6908 bound_to 6896
  152.5432  134.0698  159.8242 H   0  0  0  0  0  0  0  0  0  0  0  0  # atno 6909 bound_to 6896
  145.2739  140.9307  143.2971 H   0  0  0  0  0  0  0  0  0  0  0  0  # atno 7974 bound_to 7965
  155.4897  140.0567  157.2955 H   0  0  0  0  0  0  0  0  0  0  0  0  # atno 8008 bound_to 7997
  154.4628  140.2004  156.0150 H   0  0  0  0  0  0  0  0  0  0  0  0  # atno 8009 bound_to 7997
  156.0920  140.3232  155.7833 H   0  0  0  0  0  0  0  0  0  0  0  0  # atno 8010 bound_to 7997
  139.5000  144.3671  151.9764 H   0  0  0  0  0  0  0  0  0  0  0  0  # atno 10167 bound_to 10162
  157.1727  131.0614  151.2174 H   0  0  0  0  0  0  0  0  0  0  0  0  # atno 10718 bound_to 10713
  154.0980  135.2847  155.3258 H   0  0  0  0  0  0  0  0  0  0  0  0  # atno 10763 bound_to 10752
  154.6575  135.5346  153.7980 H   0  0  0  0  0  0  0  0  0  0  0  0  # atno 10764 bound_to 10752
  153.0389  135.6525  154.1145 H   0  0  0  0  0  0  0  0  0  0  0  0  # atno 10765 bound_to 10752
  140.5583  134.5359  157.5138 H   0  0  0  0  0  0  0  0  0  0  0  0  # atno 11005 bound_to 11000
  144.9311  139.4297  143.6494 LP  0  0  0  0  0  0  0  0  0  0  0  0  # atno 17320 bound_to 7965
  146.3238  139.8223  142.8924 LP  0  0  0  0  0  0  0  0  0  0  0  0  # atno 17321 bound_to 7965
  140.3107  144.3541  150.6035 LP  0  0  0  0  0  0  0  0  0  0  0  0  # atno 17342 bound_to 10162
  140.5801  143.2173  151.7444 LP  0  0  0  0  0  0  0  0  0  0  0  0  # atno 17343 bound_to 10162
  157.4028  130.7342  149.6780 LP  0  0  0  0  0  0  0  0  0  0  0  0  # atno 17370 bound_to 10713
  155.9736  130.4116  150.3990 LP  0  0  0  0  0  0  0  0  0  0  0  0  # atno 17371 bound_to 10713
  139.9420  134.7769  156.0654 LP  0  0  0  0  0  0  0  0  0  0  0  0  # atno 17394 bound_to 11000
  141.1130  133.6637  156.3025 LP  0  0  0  0  0  0  0  0  0  0  0  0  # atno 17395 bound_to 11000

$$$$
