AV-unprocessed.smi:2238|AV-procd|sdf|9054|dock3
  -GOLD-   2272012263D 1   1.00000     0.00000
 Structure written by MMmdl.
 38 39  0  0  0  0  0  0  0  0  1 V2000
  154.4228  140.6048  160.6899 C   0  0  0  0  0  0  0  0  0  0  0  0
  153.5157  141.8102  160.5523 C   0  0  0  0  0  0  0  0  0  0  0  0
  153.3348  142.6910  161.6367 C   0  0  0  0  0  0  0  0  0  0  0  0
  152.4906  143.8077  161.5002 C   0  0  0  0  0  0  0  0  0  0  0  0
  151.8246  144.0476  160.2826 C   0  0  0  0  0  0  0  0  0  0  0  0
  150.7918  145.4252  160.1427 Cl  0  0  0  0  0  0  0  0  0  0  0  0
  151.9936  143.1729  159.1865 C   0  0  0  0  0  0  0  0  0  0  0  0
  151.3075  143.4708  158.0281 O   0  0  0  0  0  0  0  0  0  0  0  0
  151.7348  142.8730  156.8103 C   0  0  0  0  0  0  0  0  0  0  0  0
  150.7863  141.7214  156.4343 C   0  0  2  0  0  0  0  0  0  0  0  0
  149.4710  142.2390  156.4313 O   0  0  0  0  0  0  0  0  0  0  0  0
  150.8924  140.5109  157.3901 C   0  0  0  0  0  0  0  0  0  0  0  0
  150.8117  139.2288  156.6712 N   0  0  0  0  0  0  0  0  0  0  0  0
  149.9134  138.2727  157.1857 C   0  0  0  0  0  0  0  0  0  0  0  0
  149.7614  137.1115  156.6323 N   0  0  0  0  0  0  0  0  0  0  0  0
  150.5060  136.7861  155.4945 C   0  0  0  0  0  0  0  0  0  0  0  0
  150.2841  135.4144  154.8912 C   0  0  0  0  0  0  0  0  0  0  0  0
  151.3904  137.6645  154.9676 C   0  0  0  0  0  0  0  0  0  0  0  0
  151.5846  138.9820  155.5738 C   0  0  0  0  0  0  0  0  0  0  0  0
  152.3858  139.8040  155.1292 O   0  0  0  0  0  0  0  0  0  0  0  0
  152.8477  142.0501  159.3341 C   0  0  0  0  0  0  0  0  0  0  0  0
  155.0396  140.6724  161.5866 H   0  0  0  0  0  0  0  0  0  0  0  0
  155.0866  140.5272  159.8283 H   0  0  0  0  0  0  0  0  0  0  0  0
  153.8299  139.6920  160.7507 H   0  0  0  0  0  0  0  0  0  0  0  0
  153.8405  142.5146  162.5748 H   0  0  0  0  0  0  0  0  0  0  0  0
  152.3537  144.4819  162.3331 H   0  0  0  0  0  0  0  0  0  0  0  0
  151.7827  143.6076  156.0044 H   0  0  0  0  0  0  0  0  0  0  0  0
  152.7382  142.4670  156.9487 H   0  0  0  0  0  0  0  0  0  0  0  0
  151.0192  141.4162  155.4131 H   0  0  0  0  0  0  0  0  0  0  0  0
  149.5153  143.1744  156.3017 H   0  0  0  0  0  0  0  0  0  0  0  0
  151.8423  140.5591  157.9266 H   0  0  0  0  0  0  0  0  0  0  0  0
  150.1399  140.5738  158.1787 H   0  0  0  0  0  0  0  0  0  0  0  0
  149.3638  138.5779  158.0778 H   0  0  0  0  0  0  0  0  0  0  0  0
  150.5684  135.3978  153.8385 H   0  0  0  0  0  0  0  0  0  0  0  0
  149.2344  135.1275  154.9611 H   0  0  0  0  0  0  0  0  0  0  0  0
  150.8796  134.6697  155.4195 H   0  0  0  0  0  0  0  0  0  0  0  0
  151.9622  137.3978  154.0909 H   0  0  0  0  0  0  0  0  0  0  0  0
  153.0064  141.3559  158.5230 H   0  0  0  0  0  0  0  0  0  0  0  0
  1  2  1  0  0  0  0
  1 22  1  0  0  0  0
  1 23  1  0  0  0  0
  1 24  1  0  0  0  0
  2 21  1  0  0  0  0
  2  3  2  0  0  0  0
  3  4  1  0  0  0  0
  3 25  1  0  0  0  0
  4  5  2  0  0  0  0
  4 26  1  0  0  0  0
  5  6  1  0  0  0  0
  5  7  1  0  0  0  0
  7  8  1  0  0  0  0
  7 21  2  0  0  0  0
  8  9  1  0  0  0  0
  9 10  1  0  0  0  0
  9 27  1  0  0  0  0
  9 28  1  0  0  0  0
 10 11  1  0  0  0  0
 10 12  1  0  0  0  0
 10 29  1  0  0  0  0
 11 30  1  0  0  0  0
 12 13  1  0  0  0  0
 12 31  1  0  0  0  0
 12 32  1  0  0  0  0
 13 19  1  0  0  0  0
 13 14  1  0  0  0  0
 14 15  2  0  0  0  0
 14 33  1  0  0  0  0
 15 16  1  0  0  0  0
 16 17  1  0  0  0  0
 16 18  2  0  0  0  0
 17 34  1  0  0  0  0
 17 35  1  0  0  0  0
 17 36  1  0  0  0  0
 18 19  1  0  0  0  0
 18 37  1  0  0  0  0
 19 20  2  0  0  0  0
 21 38  1  0  0  0  0
M  END
> <s_m_source_file>
AV-unprocessed.smi

> <i_m_source_file_index>
2238

> <i_lp_mmshare_version>
43012

> <i_f3d_flags>
0

> <s_epik_input>
W0NIM11jMVtjSF1bY0hdYyhDbCljKFtjSF0xKU9bQ0gyXVtDQEhdKFtPSF0pW0NIMl1uMltjSF1uYyhbQ0gzXSlbY0hdYzI9Tw==

> <s_epik_cmdline>
J2VwaWtfcHl0aG9uJywgJy1waCcsICc3LjAnLCAnLXRuJywgJzgnLCAnLW1hJywgJzIwMCcsICctbWV0YWxfYmluZGluZycsICctaW1hZScsICc8aW5maWxlLm1hZT4nLCAnLW9tYWUnLCAnPG91dGZpbGUubWFlPic=

> <r_lp_tautomer_probability>
1

> <r_epik_Ionization_Penalty>
1.78029e-05

> <r_epik_Ionization_Penalty_Charging>
3.78421e-08

> <r_epik_Ionization_Penalty_Neutral>
1.7765e-05

> <r_epik_State_Penalty>
-0

> <r_epik_Charging_Adjusted_Penalty>
3.78421e-08

> <i_epik_Tot_Q>
0

> <i_epik_Tot_abs_Q>
0

> <r_epik_Metal_State_Penalty>
-0

> <b_epik_Metal_Only>
0

> <s_lp_Force_Field>
OPLS_2005

> <r_lp_Energy>
23.6885

> <b_lp_Chiralities_Consistent>
1

> <s_lp_Variant>
AV-unprocessed.smi:2238-1

> <Gold.Version>
5.8.1

> <Gold.Id.Protein>
6NUR|6NUR_protein|mol2

> <Gold.PLP.Fitness>
49.0929

> <Gold.PLP.PLP>
-44.4693

> <Gold.PLP.part.hbond>
-2.7491

> <Gold.PLP.part.metal>
0.0000

> <Gold.PLP.part.buried>
-5.4130

> <Gold.PLP.part.nonpolar>
-37.0633

> <Gold.PLP.part.repulsive>
0.1442

> <Gold.PLP.ligand.clash>
0.0000

> <Gold.PLP.ligand.torsion>
1.2413

> <Gold.PLP.Chemscore.Hbond>
2.3467

> <Gold.PLP.Chemscore.CHOScore>
0.0000

> <Gold.PLP.Chemscore.Metal>
0.0000

> <Gold.Chemscore.Hbonds>
donor molecule, donor type, donor heavy atom, donor atom, acceptor molecule, acceptor atom, score
      L1  H    11    30       P1  8028  1.00
      P1  H  7989  7998       L1    20  0.63
      P1  H  7997  8009       L1    20  0.46

> <Gold.PLP.Chemscore.Internal.Correction>
0.0662

> <Gold.Rescore>
     Score         DG    S(hbond)    S(metal)    S(lipo)     H(rot)  DE(clash)    DE(int)     intcor
     17.08     -19.73       1.96        0.00     120.07       2.47       0.15       2.50       ----

> <Gold.Chemscore.Fitness>
17.0849

> <Gold.Chemscore.DG>
-19.7330

> <Gold.Chemscore.ZeroCoef>
-5.4800

> <Gold.Chemscore.Hbond>
1.9559

> <Gold.Chemscore.Metal>
0.0000

> <Gold.Chemscore.Lipo>
120.0712

> <Gold.Chemscore.Internal_Hbond>
0.0000

> <Gold.Chemscore.DEClash>
0.1470

> <Gold.Chemscore.DEInternal>
2.5011

> <Gold.Chemscore.Rot>
2.4718

> <Gold.Chemscore.Internal.Correction>
   9.000000E+99

> <Gold.Chemscore.Hbonds>
donor molecule, donor type, donor heavy atom, donor atom, acceptor molecule, acceptor atom, score
      L1  H    11    30       P1  8028  0.97
      P1  H  7989  7998       L1    20  0.52
      P1  H  7997  8009       L1    20  0.46

> <Gold.Chemscore.Hbond.Weighted>
-6.5326

> <Gold.Chemscore.Metal.Weighted>
-0.0000

> <Gold.Chemscore.Lipo.Weighted>
-14.0483

> <Gold.Chemscore.Internal_Hbond.Weighted>
0.0000

> <Gold.Chemscore.DEClash.Weighted>
0.1470

> <Gold.Chemscore.DEInternal.Weighted>
2.5011

> <Gold.Chemscore.Rot.Weighted>
6.3279

> <Gold.Chemscore.Internal.Correction.Weighted>
   9.000000E+99

> <Gold.Protein.RotatedTorsions>
[ 6907 6896 6895 6894 ] final  -56.15 input  -60.11 | X-H torsion
[ 7974 7965 7964 7962 ] final  -95.55 input  175.53 | X-H torsion
[ 8008 7997 7996 7995 ] final -130.92 input   59.86 | X-H torsion
[ 10167 10162 10161 10158 ] final  -99.74 input  -65.29 | X-H torsion
[ 10718 10713 10712 10709 ] final -167.61 input   66.30 | X-H torsion
[ 10763 10752 10751 10750 ] final  109.34 input  -60.55 | X-H torsion
[ 11005 11000 10999 10996 ] final  -22.17 input  -57.11 | X-H torsion

> <Gold.Protein.ActiveResidues>
 VAL166  LYS551  ARG553  GLY616  TRP617  ASP618  TYR619  PRO620  LYS621  CYS622 
 ASP623  PHE694  ASN695  SER759  ASP760  ASP761  ALA762  ILE779  LEU786  VAL792 
 PHE793  MET794  SER795  GLU796  ALA797  LYS798  CYS799  TRP800  GLU811  SER814 

> <Gold.Protein.RotatedAtoms>
  150.8191  134.7389  159.6756 H   0  0  0  0  0  0  0  0  0  0  0  0  # atno 6907 bound_to 6896
  152.4308  134.5778  159.9949 H   0  0  0  0  0  0  0  0  0  0  0  0  # atno 6908 bound_to 6896
  151.5967  133.3323  159.3075 H   0  0  0  0  0  0  0  0  0  0  0  0  # atno 6909 bound_to 6896
  145.3586  140.9488  143.2513 H   0  0  0  0  0  0  0  0  0  0  0  0  # atno 7974 bound_to 7965
  155.3038  140.0454  157.3031 H   0  0  0  0  0  0  0  0  0  0  0  0  # atno 8008 bound_to 7997
  154.5471  140.2306  155.8512 H   0  0  0  0  0  0  0  0  0  0  0  0  # atno 8009 bound_to 7997
  156.1934  140.3044  155.9385 H   0  0  0  0  0  0  0  0  0  0  0  0  # atno 8010 bound_to 7997
  140.2593  143.3418  152.0641 H   0  0  0  0  0  0  0  0  0  0  0  0  # atno 10167 bound_to 10162
  156.6849  130.9136  151.3062 H   0  0  0  0  0  0  0  0  0  0  0  0  # atno 10718 bound_to 10713
  153.4333  135.3783  155.2184 H   0  0  0  0  0  0  0  0  0  0  0  0  # atno 10763 bound_to 10752
  154.8751  135.3845  154.4241 H   0  0  0  0  0  0  0  0  0  0  0  0  # atno 10764 bound_to 10752
  153.4777  135.7088  153.6019 H   0  0  0  0  0  0  0  0  0  0  0  0  # atno 10765 bound_to 10752
  140.8631  133.7774  156.0098 H   0  0  0  0  0  0  0  0  0  0  0  0  # atno 11005 bound_to 11000
  144.8663  139.5103  143.6788 LP  0  0  0  0  0  0  0  0  0  0  0  0  # atno 17320 bound_to 7965
  146.2937  139.7214  142.9142 LP  0  0  0  0  0  0  0  0  0  0  0  0  # atno 17321 bound_to 7965
  139.5022  144.6729  151.6199 LP  0  0  0  0  0  0  0  0  0  0  0  0  # atno 17342 bound_to 10162
  140.5979  143.9664  150.6366 LP  0  0  0  0  0  0  0  0  0  0  0  0  # atno 17343 bound_to 10162
  157.7030  130.9354  150.0843 LP  0  0  0  0  0  0  0  0  0  0  0  0  # atno 17370 bound_to 10713
  156.1840  130.3651  149.8997 LP  0  0  0  0  0  0  0  0  0  0  0  0  # atno 17371 bound_to 10713
  140.8660  134.2784  157.5213 LP  0  0  0  0  0  0  0  0  0  0  0  0  # atno 17394 bound_to 11000
  139.8708  134.9542  156.4170 LP  0  0  0  0  0  0  0  0  0  0  0  0  # atno 17395 bound_to 11000

$$$$
