AV-unprocessed.smi:49|AV-procd|sdf|472|dock8
  -GOLD-   2262016343D 1   1.00000     0.00000
 Structure written by MMmdl.
 27 28  0  0  0  0  0  0  0  0  1 V2000
  152.5513  144.7386  158.1371 C   0  0  0  0  0  0  0  0  0  0  0  0
  151.5973  143.6589  158.6587 C   0  0  0  0  0  0  0  0  0  0  0  0
  151.3049  142.6099  157.6367 C   0  0  0  0  0  0  0  0  0  0  0  0
  151.8519  141.3995  157.6041 N   0  0  0  0  0  0  0  0  0  0  0  0
  151.2298  140.8802  156.5026 C   0  0  0  0  0  0  0  0  0  0  0  0
  151.4674  139.4738  156.0437 C   0  0  1  0  0  0  0  0  0  0  0  0
  150.2333  138.5793  156.2276 C   0  0  0  0  0  0  0  0  0  0  0  0
  150.4013  137.5474  155.1218 C   0  0  1  0  0  0  0  0  0  0  0  0
  149.1867  136.9259  154.7592 O   0  0  0  0  0  0  0  0  0  0  0  0
  150.9854  138.3872  153.9898 C   0  0  0  0  0  0  0  0  0  0  0  0
  151.8635  139.3613  154.6333 N   0  0  0  0  0  0  0  0  0  0  0  0
  150.3445  141.6789  155.9041 N   0  0  0  0  0  0  0  0  0  0  0  0
  150.4197  142.7967  156.6560 N   0  0  0  0  0  0  0  0  0  0  0  0
  152.2731  139.0570  156.6497 H   0  0  0  0  0  0  0  0  0  0  0  0
  151.1196  136.7863  155.4297 H   0  0  0  0  0  0  0  0  0  0  0  0
  149.8656  143.6216  156.4753 H   0  0  0  0  0  0  0  0  0  0  0  0
  152.7469  145.4881  158.9041 H   0  0  0  0  0  0  0  0  0  0  0  0
  152.1299  145.2503  157.2713 H   0  0  0  0  0  0  0  0  0  0  0  0
  153.5076  144.3077  157.8391 H   0  0  0  0  0  0  0  0  0  0  0  0
  152.0218  143.1851  159.5447 H   0  0  0  0  0  0  0  0  0  0  0  0
  150.6564  144.1140  158.9701 H   0  0  0  0  0  0  0  0  0  0  0  0
  150.1645  138.1446  157.2251 H   0  0  0  0  0  0  0  0  0  0  0  0
  149.3228  139.1553  156.0501 H   0  0  0  0  0  0  0  0  0  0  0  0
  149.2670  136.6018  153.8752 H   0  0  0  0  0  0  0  0  0  0  0  0
  151.5152  137.7864  153.2504 H   0  0  0  0  0  0  0  0  0  0  0  0
  150.1830  138.9159  153.4733 H   0  0  0  0  0  0  0  0  0  0  0  0
  152.8159  139.0131  154.5961 H   0  0  0  0  0  0  0  0  0  0  0  0
  1  2  1  0  0  0  0
  1 17  1  0  0  0  0
  1 18  1  0  0  0  0
  1 19  1  0  0  0  0
  2  3  1  0  0  0  0
  2 20  1  0  0  0  0
  2 21  1  0  0  0  0
  3 13  1  0  0  0  0
  3  4  2  0  0  0  0
  4  5  1  0  0  0  0
  5  6  1  0  0  0  0
  5 12  2  0  0  0  0
  6 14  1  0  0  0  0
  6 11  1  0  0  0  0
  6  7  1  0  0  0  0
  7  8  1  0  0  0  0
  7 22  1  0  0  0  0
  7 23  1  0  0  0  0
  8 15  1  0  0  0  0
  8  9  1  0  0  0  0
  8 10  1  0  0  0  0
  9 24  1  0  0  0  0
 10 11  1  0  0  0  0
 10 25  1  0  0  0  0
 10 26  1  0  0  0  0
 11 27  1  0  0  0  0
 12 13  1  0  0  0  0
 13 16  1  0  0  0  0
M  END
> <s_m_source_file>
AV-unprocessed.smi

> <i_m_source_file_index>
49

> <i_lp_mmshare_version>
43012

> <i_f3d_flags>
0

> <s_epik_input>
W0NIM11bQ0gyXWMxbmMobltuSF0xKVtDQEBIXTJbQ0gyXVtDQEBIXShbT0hdKVtDSDJdW05IXTI=

> <s_epik_cmdline>
J2VwaWtfcHl0aG9uJywgJy1waCcsICc3LjAnLCAnLXRuJywgJzgnLCAnLW1hJywgJzIwMCcsICctbWV0YWxfYmluZGluZycsICctaW1hZScsICc8aW5maWxlLm1hZT4nLCAnLW9tYWUnLCAnPG91dGZpbGUubWFlPic=

> <r_lp_tautomer_probability>
0.948284

> <r_epik_Ionization_Penalty>
1.6657

> <r_epik_Ionization_Penalty_Charging>
0

> <r_epik_Ionization_Penalty_Neutral>
1.6657

> <r_epik_State_Penalty>
2.01417

> <r_epik_Charging_Adjusted_Penalty>
2.01417

> <i_epik_Tot_Q>
0

> <i_epik_Tot_abs_Q>
0

> <r_epik_Metal_State_Penalty>
2.28256

> <b_epik_Metal_Only>
0

> <s_lp_Force_Field>
OPLS_2005

> <r_lp_Energy>
18.9273

> <b_lp_Chiralities_Consistent>
1

> <s_lp_Variant>
AV-unprocessed.smi:49-10

> <Gold.Version>
5.8.1

> <Gold.Id.Protein>
6NUR|6NUR_protein|mol2

> <Gold.PLP.Fitness>
32.6962

> <Gold.PLP.PLP>
-24.3667

> <Gold.PLP.part.hbond>
-3.0000

> <Gold.PLP.part.metal>
0.0000

> <Gold.PLP.part.buried>
-4.3953

> <Gold.PLP.part.nonpolar>
-17.0190

> <Gold.PLP.part.repulsive>
0.1444

> <Gold.PLP.ligand.clash>
0.0000

> <Gold.PLP.ligand.torsion>
0.3324

> <Gold.PLP.Chemscore.Hbond>
2.9920

> <Gold.PLP.Chemscore.CHOScore>
0.0000

> <Gold.PLP.Chemscore.Metal>
0.0000

> <Gold.Chemscore.Hbonds>
donor molecule, donor type, donor heavy atom, donor atom, acceptor molecule, acceptor atom, score
      L1  H     9    24       P1  7948  0.96
      L1  H    13    16       P1  8028  1.00
      P1  H  7989  7998       L1    11  0.99

> <Gold.PLP.Chemscore.Internal.Correction>
0.0182

> <Gold.Rescore>
     Score         DG    S(hbond)    S(metal)    S(lipo)     H(rot)  DE(clash)    DE(int)     intcor
     14.08     -14.40       2.34        0.00      49.91       1.86       0.03       0.29       ----

> <Gold.Chemscore.Fitness>
14.0834

> <Gold.Chemscore.DG>
-14.3989

> <Gold.Chemscore.ZeroCoef>
-5.4800

> <Gold.Chemscore.Hbond>
2.3443

> <Gold.Chemscore.Metal>
0.0000

> <Gold.Chemscore.Lipo>
49.9118

> <Gold.Chemscore.Internal_Hbond>
0.0000

> <Gold.Chemscore.DEClash>
0.0280

> <Gold.Chemscore.DEInternal>
0.2875

> <Gold.Chemscore.Rot>
1.8558

> <Gold.Chemscore.Internal.Correction>
   9.000000E+99

> <Gold.Chemscore.Hbonds>
donor molecule, donor type, donor heavy atom, donor atom, acceptor molecule, acceptor atom, score
      L1  H     9    24       P1  7948  0.86
      L1  H    13    16       P1  8028  1.00
      P1  H  7989  7998       L1    11  0.20

> <Gold.Chemscore.Hbond.Weighted>
-7.8300

> <Gold.Chemscore.Metal.Weighted>
-0.0000

> <Gold.Chemscore.Lipo.Weighted>
-5.8397

> <Gold.Chemscore.Internal_Hbond.Weighted>
0.0000

> <Gold.Chemscore.DEClash.Weighted>
0.0280

> <Gold.Chemscore.DEInternal.Weighted>
0.2875

> <Gold.Chemscore.Rot.Weighted>
4.7507

> <Gold.Chemscore.Internal.Correction.Weighted>
   9.000000E+99

> <Gold.Protein.RotatedTorsions>
[ 6907 6896 6895 6894 ] final  -22.83 input  -60.11 | X-H torsion
[ 7974 7965 7964 7962 ] final  -67.03 input  175.53 | X-H torsion
[ 8008 7997 7996 7995 ] final  -73.55 input   59.86 | X-H torsion
[ 10167 10162 10161 10158 ] final  -39.69 input  -65.29 | X-H torsion
[ 10718 10713 10712 10709 ] final  -57.57 input   66.30 | X-H torsion
[ 10763 10752 10751 10750 ] final   63.96 input  -60.55 | X-H torsion
[ 11005 11000 10999 10996 ] final  132.31 input  -57.11 | X-H torsion

> <Gold.Protein.ActiveResidues>
 VAL166  LYS551  ARG553  GLY616  TRP617  ASP618  TYR619  PRO620  LYS621  CYS622 
 ASP623  PHE694  ASN695  SER759  ASP760  ASP761  ALA762  ILE779  LEU786  VAL792 
 PHE793  MET794  SER795  GLU796  ALA797  LYS798  CYS799  TRP800  GLU811  SER814 

> <Gold.Protein.RotatedAtoms>
  151.2129  135.0488  159.8918 H   0  0  0  0  0  0  0  0  0  0  0  0  # atno 6907 bound_to 6896
  152.5423  134.0725  159.8210 H   0  0  0  0  0  0  0  0  0  0  0  0  # atno 6908 bound_to 6896
  151.0881  133.5289  159.2648 H   0  0  0  0  0  0  0  0  0  0  0  0  # atno 6909 bound_to 6896
  145.7343  140.8983  143.0563 H   0  0  0  0  0  0  0  0  0  0  0  0  # atno 7974 bound_to 7965
  154.5257  140.0777  156.8254 H   0  0  0  0  0  0  0  0  0  0  0  0  # atno 8008 bound_to 7997
  155.3481  140.3411  155.4221 H   0  0  0  0  0  0  0  0  0  0  0  0  # atno 8009 bound_to 7997
  156.1729  140.1625  156.8402 H   0  0  0  0  0  0  0  0  0  0  0  0  # atno 8010 bound_to 7997
  140.7057  143.3199  151.2818 H   0  0  0  0  0  0  0  0  0  0  0  0  # atno 10167 bound_to 10162
  156.1201  130.4167  150.0458 H   0  0  0  0  0  0  0  0  0  0  0  0  # atno 10718 bound_to 10713
  153.0037  135.5410  154.6435 H   0  0  0  0  0  0  0  0  0  0  0  0  # atno 10763 bound_to 10752
  154.5684  135.2839  155.0853 H   0  0  0  0  0  0  0  0  0  0  0  0  # atno 10764 bound_to 10752
  154.2028  135.6481  153.5145 H   0  0  0  0  0  0  0  0  0  0  0  0  # atno 10765 bound_to 10752
  139.9782  134.9556  156.9564 H   0  0  0  0  0  0  0  0  0  0  0  0  # atno 11005 bound_to 11000
  144.6885  139.9373  143.7474 LP  0  0  0  0  0  0  0  0  0  0  0  0  # atno 17320 bound_to 7965
  146.0508  139.3509  143.0640 LP  0  0  0  0  0  0  0  0  0  0  0  0  # atno 17321 bound_to 7965
  139.6649  144.0122  152.2716 LP  0  0  0  0  0  0  0  0  0  0  0  0  # atno 17342 bound_to 10162
  139.9702  144.6499  150.7996 LP  0  0  0  0  0  0  0  0  0  0  0  0  # atno 17343 bound_to 10162
  156.8399  130.9422  151.3632 LP  0  0  0  0  0  0  0  0  0  0  0  0  # atno 17370 bound_to 10713
  157.6384  130.8786  149.9402 LP  0  0  0  0  0  0  0  0  0  0  0  0  # atno 17371 bound_to 10713
  140.5150  134.0964  155.7279 LP  0  0  0  0  0  0  0  0  0  0  0  0  # atno 17394 bound_to 11000
  141.1457  133.9059  157.2220 LP  0  0  0  0  0  0  0  0  0  0  0  0  # atno 17395 bound_to 11000

$$$$
