AV-unprocessed.smi:1308|AV-procd|sdf|5438|dock6
  -GOLD-   22720 5 03D 1   1.00000     0.00000
 Structure written by MMmdl.
 45 45  0  0  0  0  0  0  0  0  1 V2000
  146.9620  138.8503  152.5796 C   0  0  0  0  0  0  0  0  0  0  0  0
  147.8682  138.6348  153.7727 C   0  0  0  0  0  0  0  0  0  0  0  0
  147.5181  137.9911  154.8367 N   0  0  0  0  0  0  0  0  0  0  0  0
  148.4494  137.8461  155.8739 C   0  0  0  0  0  0  0  0  0  0  0  0
  147.9708  137.0444  157.0716 C   0  0  0  0  0  0  0  0  0  0  0  0
  149.7068  138.3725  155.7870 C   0  0  0  0  0  0  0  0  0  0  0  0
  150.7634  138.1853  156.8774 C   0  0  0  0  0  0  0  0  0  0  0  0
  151.3999  139.4864  157.3667 C   0  0  0  0  0  0  0  0  0  0  0  0
  152.6068  139.6780  157.2234 O   0  0  0  0  0  0  0  0  0  0  0  0
  150.5551  140.3882  157.8906 N   0  0  0  0  0  0  0  0  0  0  0  0
  150.8482  141.7968  158.1378 C   0  0  2  0  0  0  0  0  0  0  0  0
  151.0296  142.5257  156.7995 C   0  0  0  0  0  0  0  0  0  0  0  0
  152.1011  141.9098  159.0304 C   0  0  0  0  0  0  0  0  0  0  0  0
  152.1200  143.1777  159.9105 C   0  0  0  0  0  0  0  0  0  0  0  0
  151.8560  144.4913  159.1495 C   0  0  0  0  0  0  0  0  0  0  0  0
  152.8058  144.6753  157.9533 C   0  0  0  0  0  0  0  0  0  0  0  0
  151.9654  145.6926  160.1010 C   0  0  0  0  0  0  0  0  0  0  0  0
  150.0919  139.1138  154.5701 C   0  0  0  0  0  0  0  0  0  0  0  0
  151.1967  139.6207  154.3835 O   0  0  0  0  0  0  0  0  0  0  0  0
  149.1335  139.1985  153.6207 N   0  0  0  0  0  0  0  0  0  0  0  0
  149.3501  139.6915  152.7667 H   0  0  0  0  0  0  0  0  0  0  0  0
  146.6851  137.8910  152.1420 H   0  0  0  0  0  0  0  0  0  0  0  0
  147.4469  139.4510  151.8088 H   0  0  0  0  0  0  0  0  0  0  0  0
  146.0507  139.3628  152.8884 H   0  0  0  0  0  0  0  0  0  0  0  0
  148.0610  137.6266  157.9885 H   0  0  0  0  0  0  0  0  0  0  0  0
  148.5558  136.1308  157.1784 H   0  0  0  0  0  0  0  0  0  0  0  0
  146.9241  136.7577  156.9625 H   0  0  0  0  0  0  0  0  0  0  0  0
  150.3492  137.6558  157.7360 H   0  0  0  0  0  0  0  0  0  0  0  0
  151.5499  137.5317  156.4998 H   0  0  0  0  0  0  0  0  0  0  0  0
  149.5891  140.1112  157.9918 H   0  0  0  0  0  0  0  0  0  0  0  0
  150.0163  142.2697  158.6623 H   0  0  0  0  0  0  0  0  0  0  0  0
  151.2335  143.5854  156.9551 H   0  0  0  0  0  0  0  0  0  0  0  0
  150.1308  142.4505  156.1866 H   0  0  0  0  0  0  0  0  0  0  0  0
  151.8589  142.1077  156.2277 H   0  0  0  0  0  0  0  0  0  0  0  0
  152.1657  141.0212  159.6586 H   0  0  0  0  0  0  0  0  0  0  0  0
  152.9910  141.9020  158.4001 H   0  0  0  0  0  0  0  0  0  0  0  0
  151.3679  143.0591  160.6915 H   0  0  0  0  0  0  0  0  0  0  0  0
  153.0746  143.2659  160.4280 H   0  0  0  0  0  0  0  0  0  0  0  0
  150.8336  144.4666  158.7702 H   0  0  0  0  0  0  0  0  0  0  0  0
  153.8491  144.6619  158.2703 H   0  0  0  0  0  0  0  0  0  0  0  0
  152.6244  145.6271  157.4533 H   0  0  0  0  0  0  0  0  0  0  0  0
  152.6734  143.8930  157.2069 H   0  0  0  0  0  0  0  0  0  0  0  0
  152.9678  145.7724  160.5235 H   0  0  0  0  0  0  0  0  0  0  0  0
  151.2616  145.6052  160.9293 H   0  0  0  0  0  0  0  0  0  0  0  0
  151.7467  146.6270  159.5833 H   0  0  0  0  0  0  0  0  0  0  0  0
  1  2  1  0  0  0  0
  1 22  1  0  0  0  0
  1 23  1  0  0  0  0
  1 24  1  0  0  0  0
  2 20  1  0  0  0  0
  2  3  2  0  0  0  0
  3  4  1  0  0  0  0
  4  5  1  0  0  0  0
  4  6  2  0  0  0  0
  5 25  1  0  0  0  0
  5 26  1  0  0  0  0
  5 27  1  0  0  0  0
  6  7  1  0  0  0  0
  6 18  1  0  0  0  0
  7  8  1  0  0  0  0
  7 28  1  0  0  0  0
  7 29  1  0  0  0  0
  8  9  2  0  0  0  0
  8 10  1  0  0  0  0
 10 11  1  0  0  0  0
 10 30  1  0  0  0  0
 11 12  1  0  0  0  0
 11 13  1  0  0  0  0
 11 31  1  0  0  0  0
 12 32  1  0  0  0  0
 12 33  1  0  0  0  0
 12 34  1  0  0  0  0
 13 14  1  0  0  0  0
 13 35  1  0  0  0  0
 13 36  1  0  0  0  0
 14 15  1  0  0  0  0
 14 37  1  0  0  0  0
 14 38  1  0  0  0  0
 15 16  1  0  0  0  0
 15 17  1  0  0  0  0
 15 39  1  0  0  0  0
 16 40  1  0  0  0  0
 16 41  1  0  0  0  0
 16 42  1  0  0  0  0
 17 43  1  0  0  0  0
 17 44  1  0  0  0  0
 17 45  1  0  0  0  0
 18 19  2  0  0  0  0
 18 20  1  0  0  0  0
 20 21  1  0  0  0  0
M  END
> <s_m_source_file>
AV-unprocessed.smi

> <i_m_source_file_index>
1308

> <i_lp_mmshare_version>
43012

> <i_f3d_flags>
0

> <s_epik_input>
W0NIM11jMW5jKFtDSDNdKWMoYyg9TylbbkhdMSlbQ0gyXUMoPU8pW05IXVtDQEhdKFtDSDNdKVtDSDJdW0NIMl1bQ0hdKFtDSDNdKVtDSDNd

> <s_epik_cmdline>
J2VwaWtfcHl0aG9uJywgJy1waCcsICc3LjAnLCAnLXRuJywgJzgnLCAnLW1hJywgJzIwMCcsICctbWV0YWxfYmluZGluZycsICctaW1hZScsICc8aW5maWxlLm1hZT4nLCAnLW9tYWUnLCAnPG91dGZpbGUubWFlPic=

> <r_lp_tautomer_probability>
0.839158

> <r_epik_Ionization_Penalty>
0.000390633

> <r_epik_Ionization_Penalty_Charging>
0.00035831

> <r_epik_Ionization_Penalty_Neutral>
3.23235e-05

> <r_epik_State_Penalty>
0.0470222

> <r_epik_Charging_Adjusted_Penalty>
0.0473805

> <i_epik_Tot_Q>
0

> <i_epik_Tot_abs_Q>
0

> <r_epik_Metal_State_Penalty>
0.223807

> <b_epik_Metal_Only>
0

> <s_lp_Force_Field>
OPLS_2005

> <r_lp_Energy>
5.21456

> <b_lp_Chiralities_Consistent>
1

> <s_lp_Variant>
AV-unprocessed.smi:1308-1

> <Gold.Version>
5.8.1

> <Gold.Id.Protein>
6NUR|6NUR_protein|mol2

> <Gold.PLP.Fitness>
44.6701

> <Gold.PLP.PLP>
-36.4485

> <Gold.PLP.part.hbond>
-3.0000

> <Gold.PLP.part.metal>
0.0000

> <Gold.PLP.part.buried>
-4.4883

> <Gold.PLP.part.nonpolar>
-29.2217

> <Gold.PLP.part.repulsive>
0.4008

> <Gold.PLP.ligand.clash>
0.0000

> <Gold.PLP.ligand.torsion>
0.4449

> <Gold.PLP.Chemscore.Hbond>
3.0000

> <Gold.PLP.Chemscore.CHOScore>
0.0000

> <Gold.PLP.Chemscore.Metal>
0.0000

> <Gold.Chemscore.Hbonds>
donor molecule, donor type, donor heavy atom, donor atom, acceptor molecule, acceptor atom, score
      L1  H    20    21       P1  7957  1.00
      P1  H  7989  7998       L1    19  1.00
      P1  H  7997  8009       L1     9  1.00

> <Gold.PLP.Chemscore.Internal.Correction>
0.1115

> <Gold.Rescore>
     Score         DG    S(hbond)    S(metal)    S(lipo)     H(rot)  DE(clash)    DE(int)     intcor
     19.09     -20.88       3.00        0.00      89.53       1.98       0.19       1.61       ----

> <Gold.Chemscore.Fitness>
19.0909

> <Gold.Chemscore.DG>
-20.8820

> <Gold.Chemscore.ZeroCoef>
-5.4800

> <Gold.Chemscore.Hbond>
2.9955

> <Gold.Chemscore.Metal>
0.0000

> <Gold.Chemscore.Lipo>
89.5283

> <Gold.Chemscore.Internal_Hbond>
0.0000

> <Gold.Chemscore.DEClash>
0.1853

> <Gold.Chemscore.DEInternal>
1.6059

> <Gold.Chemscore.Rot>
1.9835

> <Gold.Chemscore.Internal.Correction>
   9.000000E+99

> <Gold.Chemscore.Hbonds>
donor molecule, donor type, donor heavy atom, donor atom, acceptor molecule, acceptor atom, score
      L1  H    20    21       P1  7957  1.00
      P1  H  7989  7998       L1    19  0.98
      P1  H  7997  8009       L1     9  1.00

> <Gold.Chemscore.Hbond.Weighted>
-10.0050

> <Gold.Chemscore.Metal.Weighted>
-0.0000

> <Gold.Chemscore.Lipo.Weighted>
-10.4748

> <Gold.Chemscore.Internal_Hbond.Weighted>
0.0000

> <Gold.Chemscore.DEClash.Weighted>
0.1853

> <Gold.Chemscore.DEInternal.Weighted>
1.6059

> <Gold.Chemscore.Rot.Weighted>
5.0778

> <Gold.Chemscore.Internal.Correction.Weighted>
   9.000000E+99

> <Gold.Protein.RotatedTorsions>
[ 6907 6896 6895 6894 ] final   92.51 input  -60.11 | X-H torsion
[ 7974 7965 7964 7962 ] final  103.18 input  175.53 | X-H torsion
[ 8008 7997 7996 7995 ] final -174.72 input   59.86 | X-H torsion
[ 10167 10162 10161 10158 ] final  125.41 input  -65.29 | X-H torsion
[ 10718 10713 10712 10709 ] final   69.39 input   66.30 | X-H torsion
[ 10763 10752 10751 10750 ] final -105.15 input  -60.55 | X-H torsion
[ 11005 11000 10999 10996 ] final  172.27 input  -57.11 | X-H torsion

> <Gold.Protein.ActiveResidues>
 VAL166  LYS551  ARG553  GLY616  TRP617  ASP618  TYR619  PRO620  LYS621  CYS622 
 ASP623  PHE694  ASN695  SER759  ASP760  ASP761  ALA762  ILE779  LEU786  VAL792 
 PHE793  MET794  SER795  GLU796  ALA797  LYS798  CYS799  TRP800  GLU811  SER814 

> <Gold.Protein.RotatedAtoms>
  152.5452  134.1491  159.8510 H   0  0  0  0  0  0  0  0  0  0  0  0  # atno 6907 bound_to 6896
  151.1519  133.4894  159.2602 H   0  0  0  0  0  0  0  0  0  0  0  0  # atno 6908 bound_to 6896
  151.1463  135.0215  159.8703 H   0  0  0  0  0  0  0  0  0  0  0  0  # atno 6909 bound_to 6896
  145.3493  139.2443  143.3567 H   0  0  0  0  0  0  0  0  0  0  0  0  # atno 7974 bound_to 7965
  155.9736  140.1168  157.0790 H   0  0  0  0  0  0  0  0  0  0  0  0  # atno 8008 bound_to 7997
  154.4163  140.1158  156.5408 H   0  0  0  0  0  0  0  0  0  0  0  0  # atno 8009 bound_to 7997
  155.6564  140.3473  155.4769 H   0  0  0  0  0  0  0  0  0  0  0  0  # atno 8010 bound_to 7997
  139.5687  144.6926  151.3838 H   0  0  0  0  0  0  0  0  0  0  0  0  # atno 10167 bound_to 10162
  157.6343  130.9423  150.0507 H   0  0  0  0  0  0  0  0  0  0  0  0  # atno 10718 bound_to 10713
  154.7927  135.4759  154.0090 H   0  0  0  0  0  0  0  0  0  0  0  0  # atno 10763 bound_to 10752
  153.1656  135.6816  153.8687 H   0  0  0  0  0  0  0  0  0  0  0  0  # atno 10764 bound_to 10752
  153.8287  135.3194  155.3395 H   0  0  0  0  0  0  0  0  0  0  0  0  # atno 10765 bound_to 10752
  140.3280  134.7382  157.4113 H   0  0  0  0  0  0  0  0  0  0  0  0  # atno 11005 bound_to 11000
  146.2975  140.4106  142.8716 LP  0  0  0  0  0  0  0  0  0  0  0  0  # atno 17320 bound_to 7965
  144.8730  140.7298  143.6035 LP  0  0  0  0  0  0  0  0  0  0  0  0  # atno 17321 bound_to 7965
  140.6971  143.7722  150.7344 LP  0  0  0  0  0  0  0  0  0  0  0  0  # atno 17342 bound_to 10162
  140.1222  143.4602  152.2306 LP  0  0  0  0  0  0  0  0  0  0  0  0  # atno 17343 bound_to 10162
  156.1570  130.3643  149.9355 LP  0  0  0  0  0  0  0  0  0  0  0  0  # atno 17370 bound_to 10713
  156.7361  130.9062  151.3629 LP  0  0  0  0  0  0  0  0  0  0  0  0  # atno 17371 bound_to 10713
  140.0885  134.5633  155.8468 LP  0  0  0  0  0  0  0  0  0  0  0  0  # atno 17394 bound_to 11000
  141.2070  133.6660  156.6281 LP  0  0  0  0  0  0  0  0  0  0  0  0  # atno 17395 bound_to 11000

$$$$
