AV-unprocessed.smi:355|AV-procd|sdf|2407|dock6
  -GOLD-   2262022343D 1   1.00000     0.00000
 Structure written by MMmdl.
 39 40  0  0  0  0  0  0  0  0  1 V2000
  145.9274  142.7916  157.8176 C   0  0  0  0  0  0  0  0  0  0  0  0
  146.8063  142.2927  156.6890 C   0  0  0  0  0  0  0  0  0  0  0  0
  146.3606  142.3765  155.3550 C   0  0  0  0  0  0  0  0  0  0  0  0
  147.1800  141.9117  154.3099 C   0  0  0  0  0  0  0  0  0  0  0  0
  148.4437  141.3620  154.5968 C   0  0  0  0  0  0  0  0  0  0  0  0
  148.9035  141.2666  155.9261 C   0  0  0  0  0  0  0  0  0  0  0  0
  150.1517  140.7146  156.1155 O   0  0  0  0  0  0  0  0  0  0  0  0
  150.7053  140.7269  157.4238 C   0  0  0  0  0  0  0  0  0  0  0  0
  151.5852  141.9783  157.6167 C   0  0  0  0  0  0  0  0  0  0  0  0
  152.2606  141.9976  158.9369 N   0  0  0  0  0  0  0  0  0  0  0  0
  152.1102  143.1283  159.8015 C   0  0  0  0  0  0  0  0  0  0  0  0
  151.3085  144.3483  159.3232 C   0  0  0  0  0  0  0  0  0  0  0  0
  151.3214  145.3216  160.2350 F   0  0  0  0  0  0  0  0  0  0  0  0
  151.8390  144.8571  158.2106 F   0  0  0  0  0  0  0  0  0  0  0  0
  150.0282  144.0531  159.1026 F   0  0  0  0  0  0  0  0  0  0  0  0
  152.6791  143.1176  161.0212 C   0  0  0  0  0  0  0  0  0  0  0  0
  153.4420  141.9802  161.4538 C   0  0  0  0  0  0  0  0  0  0  0  0
  153.6186  140.9164  160.6379 C   0  0  0  0  0  0  0  0  0  0  0  0
  154.3979  139.7223  161.0390 C   0  0  0  0  0  0  0  0  0  0  0  0
  155.0444  139.8533  162.2042 N   0  0  0  0  0  0  0  0  0  0  0  0
  154.5020  138.6626  160.4214 O   0  0  0  0  0  0  0  0  0  0  0  0
  153.0179  140.8994  159.2789 C   0  0  0  0  0  0  0  0  0  0  0  0
  153.1650  139.9719  158.4775 O   0  0  0  0  0  0  0  0  0  0  0  0
  148.0716  141.7380  156.9734 C   0  0  0  0  0  0  0  0  0  0  0  0
  145.2168  143.5379  157.4607 H   0  0  0  0  0  0  0  0  0  0  0  0
  146.5299  143.2489  158.6031 H   0  0  0  0  0  0  0  0  0  0  0  0
  145.3670  141.9636  158.2519 H   0  0  0  0  0  0  0  0  0  0  0  0
  145.3913  142.7965  155.1291 H   0  0  0  0  0  0  0  0  0  0  0  0
  146.8397  141.9760  153.2869 H   0  0  0  0  0  0  0  0  0  0  0  0
  149.0664  141.0071  153.7886 H   0  0  0  0  0  0  0  0  0  0  0  0
  149.8953  140.7509  158.1543 H   0  0  0  0  0  0  0  0  0  0  0  0
  151.2853  139.8196  157.5962 H   0  0  0  0  0  0  0  0  0  0  0  0
  152.3014  142.0484  156.7962 H   0  0  0  0  0  0  0  0  0  0  0  0
  150.9750  142.8625  157.4624 H   0  0  0  0  0  0  0  0  0  0  0  0
  152.5834  143.9613  161.6885 H   0  0  0  0  0  0  0  0  0  0  0  0
  153.8620  142.0183  162.4480 H   0  0  0  0  0  0  0  0  0  0  0  0
  155.6010  139.0912  162.5624 H   0  0  0  0  0  0  0  0  0  0  0  0
  154.9698  140.7170  162.7221 H   0  0  0  0  0  0  0  0  0  0  0  0
  148.3855  141.6854  158.0048 H   0  0  0  0  0  0  0  0  0  0  0  0
  1  2  1  0  0  0  0
  1 25  1  0  0  0  0
  1 26  1  0  0  0  0
  1 27  1  0  0  0  0
  2 24  1  0  0  0  0
  2  3  2  0  0  0  0
  3  4  1  0  0  0  0
  3 28  1  0  0  0  0
  4  5  2  0  0  0  0
  4 29  1  0  0  0  0
  5  6  1  0  0  0  0
  5 30  1  0  0  0  0
  6  7  1  0  0  0  0
  6 24  2  0  0  0  0
  7  8  1  0  0  0  0
  8  9  1  0  0  0  0
  8 31  1  0  0  0  0
  8 32  1  0  0  0  0
  9 10  1  0  0  0  0
  9 33  1  0  0  0  0
  9 34  1  0  0  0  0
 10 22  1  0  0  0  0
 10 11  1  0  0  0  0
 11 12  1  0  0  0  0
 11 16  2  0  0  0  0
 12 13  1  0  0  0  0
 12 14  1  0  0  0  0
 12 15  1  0  0  0  0
 16 17  1  0  0  0  0
 16 35  1  0  0  0  0
 17 18  2  0  0  0  0
 17 36  1  0  0  0  0
 18 19  1  0  0  0  0
 18 22  1  0  0  0  0
 19 20  1  0  0  0  0
 19 21  2  0  0  0  0
 20 37  1  0  0  0  0
 20 38  1  0  0  0  0
 22 23  2  0  0  0  0
 24 39  1  0  0  0  0
M  END
> <s_m_source_file>
AV-unprocessed.smi

> <i_m_source_file_index>
355

> <i_lp_mmshare_version>
43012

> <i_f3d_flags>
0

> <s_epik_input>
W0NIM11jMVtjSF1bY0hdW2NIXWMoW2NIXTEpT1tDSDJdW0NIMl1uMmMoQyhGKShGKUYpW2NIXVtjSF1jKGMyPU8pQyg9TylbTkgyXQ==

> <s_epik_cmdline>
J2VwaWtfcHl0aG9uJywgJy1waCcsICc3LjAnLCAnLXRuJywgJzgnLCAnLW1hJywgJzIwMCcsICctbWV0YWxfYmluZGluZycsICctaW1hZScsICc8aW5maWxlLm1hZT4nLCAnLW9tYWUnLCAnPG91dGZpbGUubWFlPic=

> <r_lp_tautomer_probability>
1

> <r_epik_Ionization_Penalty>
1.75992e-06

> <r_epik_Ionization_Penalty_Charging>
1.13667e-09

> <r_epik_Ionization_Penalty_Neutral>
1.75878e-06

> <r_epik_State_Penalty>
-0

> <r_epik_Charging_Adjusted_Penalty>
1.13667e-09

> <i_epik_Tot_Q>
0

> <i_epik_Tot_abs_Q>
0

> <r_epik_Metal_State_Penalty>
-0

> <b_epik_Metal_Only>
0

> <s_lp_Force_Field>
OPLS_2005

> <r_lp_Energy>
35.0119

> <b_lp_Chiralities_Consistent>
1

> <s_lp_Variant>
AV-unprocessed.smi:355-1

> <Gold.Version>
5.8.1

> <Gold.Id.Protein>
6NUR|6NUR_protein|mol2

> <Gold.PLP.Fitness>
56.2962

> <Gold.PLP.PLP>
-53.9408

> <Gold.PLP.part.hbond>
-1.0000

> <Gold.PLP.part.metal>
0.0000

> <Gold.PLP.part.buried>
-7.5269

> <Gold.PLP.part.nonpolar>
-45.2691

> <Gold.PLP.part.repulsive>
0.0250

> <Gold.PLP.ligand.clash>
3.6023

> <Gold.PLP.ligand.torsion>
0.3344

> <Gold.PLP.Chemscore.Hbond>
1.0000

> <Gold.PLP.Chemscore.CHOScore>
0.0000

> <Gold.PLP.Chemscore.Metal>
0.0000

> <Gold.Chemscore.Hbonds>
donor molecule, donor type, donor heavy atom, donor atom, acceptor molecule, acceptor atom, score
      P1  H  7997  8010       L1    23  0.87

> <Gold.PLP.Chemscore.Internal.Correction>
3.6265

> <Gold.Rescore>
     Score         DG    S(hbond)    S(metal)    S(lipo)     H(rot)  DE(clash)    DE(int)     intcor
     11.28     -15.91       0.97        0.00     101.78       1.84       0.01       4.63       ----

> <Gold.Chemscore.Fitness>
11.2781

> <Gold.Chemscore.DG>
-15.9116

> <Gold.Chemscore.ZeroCoef>
-5.4800

> <Gold.Chemscore.Hbond>
0.9691

> <Gold.Chemscore.Metal>
0.0000

> <Gold.Chemscore.Lipo>
101.7801

> <Gold.Chemscore.Internal_Hbond>
0.0000

> <Gold.Chemscore.DEClash>
0.0082

> <Gold.Chemscore.DEInternal>
4.6252

> <Gold.Chemscore.Rot>
1.8412

> <Gold.Chemscore.Internal.Correction>
   9.000000E+99

> <Gold.Chemscore.Hbonds>
donor molecule, donor type, donor heavy atom, donor atom, acceptor molecule, acceptor atom, score
      P1  H  7997  8010       L1    23  0.77

> <Gold.Chemscore.Hbond.Weighted>
-3.2367

> <Gold.Chemscore.Metal.Weighted>
-0.0000

> <Gold.Chemscore.Lipo.Weighted>
-11.9083

> <Gold.Chemscore.Internal_Hbond.Weighted>
0.0000

> <Gold.Chemscore.DEClash.Weighted>
0.0082

> <Gold.Chemscore.DEInternal.Weighted>
4.6252

> <Gold.Chemscore.Rot.Weighted>
4.7134

> <Gold.Chemscore.Internal.Correction.Weighted>
   9.000000E+99

> <Gold.Protein.RotatedTorsions>
[ 6907 6896 6895 6894 ] final  -47.51 input  -60.11 | X-H torsion
[ 7974 7965 7964 7962 ] final  -78.91 input  175.53 | X-H torsion
[ 8008 7997 7996 7995 ] final   18.77 input   59.86 | X-H torsion
[ 10167 10162 10161 10158 ] final -113.34 input  -65.29 | X-H torsion
[ 10718 10713 10712 10709 ] final    3.71 input   66.30 | X-H torsion
[ 10763 10752 10751 10750 ] final   22.76 input  -60.55 | X-H torsion
[ 11005 11000 10999 10996 ] final   93.46 input  -57.11 | X-H torsion

> <Gold.Protein.ActiveResidues>
 VAL166  LYS551  ARG553  GLY616  TRP617  ASP618  TYR619  PRO620  LYS621  CYS622 
 ASP623  PHE694  ASN695  SER759  ASP760  ASP761  ALA762  ILE779  LEU786  VAL792 
 PHE793  MET794  SER795  GLU796  ALA797  LYS798  CYS799  TRP800  GLU811  SER814 

> <Gold.Protein.RotatedAtoms>
  150.9000  134.8412  159.7353 H   0  0  0  0  0  0  0  0  0  0  0  0  # atno 6907 bound_to 6896
  152.4887  134.4517  159.9586 H   0  0  0  0  0  0  0  0  0  0  0  0  # atno 6908 bound_to 6896
  151.4569  133.3563  159.2839 H   0  0  0  0  0  0  0  0  0  0  0  0  # atno 6909 bound_to 6896
  145.5802  140.9450  143.1348 H   0  0  0  0  0  0  0  0  0  0  0  0  # atno 7974 bound_to 7965
  154.9109  140.3014  155.5267 H   0  0  0  0  0  0  0  0  0  0  0  0  # atno 8008 bound_to 7997
  156.3015  140.2389  156.4083 H   0  0  0  0  0  0  0  0  0  0  0  0  # atno 8009 bound_to 7997
  154.8426  140.0413  157.1540 H   0  0  0  0  0  0  0  0  0  0  0  0  # atno 8010 bound_to 7997
  140.1129  143.4511  152.1741 H   0  0  0  0  0  0  0  0  0  0  0  0  # atno 10167 bound_to 10162
  156.8818  130.5656  149.5653 H   0  0  0  0  0  0  0  0  0  0  0  0  # atno 10718 bound_to 10713
  153.0890  135.6641  153.9891 H   0  0  0  0  0  0  0  0  0  0  0  0  # atno 10763 bound_to 10752
  153.9493  135.2985  155.3440 H   0  0  0  0  0  0  0  0  0  0  0  0  # atno 10764 bound_to 10752
  154.7302  135.5126  153.9024 H   0  0  0  0  0  0  0  0  0  0  0  0  # atno 10765 bound_to 10752
  139.8810  134.8791  156.3721 H   0  0  0  0  0  0  0  0  0  0  0  0  # atno 11005 bound_to 11000
  144.7397  139.7483  143.7315 LP  0  0  0  0  0  0  0  0  0  0  0  0  # atno 17320 bound_to 7965
  146.1722  139.4877  142.9920 LP  0  0  0  0  0  0  0  0  0  0  0  0  # atno 17321 bound_to 7965
  139.5609  144.7405  151.4157 LP  0  0  0  0  0  0  0  0  0  0  0  0  # atno 17342 bound_to 10162
  140.6915  143.7849  150.7263 LP  0  0  0  0  0  0  0  0  0  0  0  0  # atno 17343 bound_to 10162
  156.0673  130.5714  150.9314 LP  0  0  0  0  0  0  0  0  0  0  0  0  # atno 17370 bound_to 10713
  157.6136  131.0935  150.8751 LP  0  0  0  0  0  0  0  0  0  0  0  0  # atno 17371 bound_to 10713
  140.9457  133.7485  156.0205 LP  0  0  0  0  0  0  0  0  0  0  0  0  # atno 17394 bound_to 11000
  140.8166  134.3337  157.5395 LP  0  0  0  0  0  0  0  0  0  0  0  0  # atno 17395 bound_to 11000

$$$$
