AV-unprocessed.smi:21|AV-procd|sdf|126|dock9
  -GOLD-   2262015303D 1   1.00000     0.00000
 Structure written by MMmdl.
 62 65  0  0  0  0  0  0  0  0  2 V2000
  147.0745  129.7663  152.7060 C   0  0  0  0  0  0  0  0  0  0  0  0
  146.3580  130.9695  152.9315 O   0  0  0  0  0  0  0  0  0  0  0  0
  147.1794  132.1276  152.9266 C   0  0  2  0  0  0  0  0  0  0  0  0
  147.8557  132.3086  154.2813 C   0  0  0  0  0  0  0  0  0  0  0  0
  148.1381  133.8189  154.3859 C   0  0  1  0  0  0  0  0  0  0  0  0
  149.6141  134.1944  154.1147 C   0  0  0  0  0  0  0  0  0  0  0  0
  150.3748  134.5201  155.3231 N   0  0  0  0  0  0  0  0  0  0  0  0
  150.8850  133.4278  156.1485 C   0  0  0  0  0  0  0  0  0  0  0  0
  150.2356  135.7547  155.8840 C   0  0  0  0  0  0  0  0  0  0  0  0
  149.2356  135.9549  156.7841 N   0  0  0  0  0  0  0  0  0  0  0  0
  149.0189  137.1644  157.3073 C   0  0  0  0  0  0  0  0  0  0  0  0
  149.6664  138.3040  157.0653 N   0  0  0  0  0  0  0  0  0  0  0  0
  150.6848  138.1132  156.1804 C   0  0  0  0  0  0  0  0  0  0  0  0
  151.0499  136.8827  155.5620 C   0  0  0  0  0  0  0  0  0  0  0  0
  152.1577  137.0864  154.7451 N   0  0  0  0  0  0  0  0  0  0  0  0
  152.4130  138.3608  154.8513 C   0  0  0  0  0  0  0  0  0  0  0  0
  151.5488  139.0605  155.6602 N   0  0  0  0  0  0  0  0  0  0  0  0
  151.5675  140.4880  155.9194 C   0  0  0  0  0  0  0  0  0  0  0  0
  150.9036  140.9091  157.2616 C   0  0  1  0  0  0  0  0  0  0  0  0
  151.6226  140.1887  158.4281 C   0  0  0  0  0  0  0  0  0  0  0  0
  153.0235  140.1839  158.2451 O   0  0  0  0  0  0  0  0  0  0  0  0
  150.8647  142.4541  157.4791 C   0  0  2  0  0  0  0  0  0  0  0  0
  152.1492  143.0611  158.0254 C   0  0  0  0  0  0  0  0  0  0  0  0
  151.6778  144.4073  158.5552 C   0  0  0  0  0  0  0  0  0  0  0  0
  150.4030  144.1401  159.1168 O   0  0  0  0  0  0  0  0  0  0  0  0
  149.8599  142.9618  158.5303 C   0  0  0  0  0  0  0  0  0  0  0  0
  147.2612  134.4667  153.3788 N   0  3  2  0  0  0  0  0  0  0  0  0
  146.5277  135.6517  153.8738 C   0  0  0  0  0  0  0  0  0  0  0  0
  146.3931  133.4294  152.7861 C   0  0  0  0  0  0  0  0  0  0  0  0
  147.9460  132.0611  152.1519 H   0  0  0  0  0  0  0  0  0  0  0  0
  147.8424  134.1544  155.3809 H   0  0  0  0  0  0  0  0  0  0  0  0
  146.3884  128.9206  152.7491 H   0  0  0  0  0  0  0  0  0  0  0  0
  147.8407  129.6148  153.4674 H   0  0  0  0  0  0  0  0  0  0  0  0
  147.5496  129.7599  151.7247 H   0  0  0  0  0  0  0  0  0  0  0  0
  147.1629  132.0219  155.0740 H   0  0  0  0  0  0  0  0  0  0  0  0
  148.7405  131.6827  154.3869 H   0  0  0  0  0  0  0  0  0  0  0  0
  150.1022  133.3676  153.5975 H   0  0  0  0  0  0  0  0  0  0  0  0
  149.6758  135.0289  153.4183 H   0  0  0  0  0  0  0  0  0  0  0  0
  151.8392  133.7025  156.5996 H   0  0  0  0  0  0  0  0  0  0  0  0
  151.0493  132.5291  155.5538 H   0  0  0  0  0  0  0  0  0  0  0  0
  150.1860  133.1802  156.9479 H   0  0  0  0  0  0  0  0  0  0  0  0
  148.2008  137.2312  158.0097 H   0  0  0  0  0  0  0  0  0  0  0  0
  153.2228  138.8327  154.3140 H   0  0  0  0  0  0  0  0  0  0  0  0
  152.6114  140.8011  155.8922 H   0  0  0  0  0  0  0  0  0  0  0  0
  151.0757  140.9956  155.0887 H   0  0  0  0  0  0  0  0  0  0  0  0
  149.8719  140.5548  157.2603 H   0  0  0  0  0  0  0  0  0  0  0  0
  151.3840  140.6602  159.3819 H   0  0  0  0  0  0  0  0  0  0  0  0
  151.3201  139.1450  158.5015 H   0  0  0  0  0  0  0  0  0  0  0  0
  153.4349  140.4267  159.0606 H   0  0  0  0  0  0  0  0  0  0  0  0
  150.6476  142.9414  156.5270 H   0  0  0  0  0  0  0  0  0  0  0  0
  152.5424  142.4555  158.8436 H   0  0  0  0  0  0  0  0  0  0  0  0
  152.9295  143.1710  157.2718 H   0  0  0  0  0  0  0  0  0  0  0  0
  152.3595  144.8349  159.2909 H   0  0  0  0  0  0  0  0  0  0  0  0
  151.5630  145.1212  157.7383 H   0  0  0  0  0  0  0  0  0  0  0  0
  148.8883  143.1908  158.0964 H   0  0  0  0  0  0  0  0  0  0  0  0
  149.7130  142.2303  159.3255 H   0  0  0  0  0  0  0  0  0  0  0  0
  145.8497  135.3857  154.6862 H   0  0  0  0  0  0  0  0  0  0  0  0
  145.9421  136.0993  153.0705 H   0  0  0  0  0  0  0  0  0  0  0  0
  147.2236  136.4057  154.2422 H   0  0  0  0  0  0  0  0  0  0  0  0
  146.1393  133.6631  151.7519 H   0  0  0  0  0  0  0  0  0  0  0  0
  145.4644  133.3592  153.3556 H   0  0  0  0  0  0  0  0  0  0  0  0
  147.8728  134.7789  152.6380 H   0  0  0  0  0  0  0  0  0  0  0  0
  1  2  1  0  0  0  0
  1 32  1  0  0  0  0
  1 33  1  0  0  0  0
  1 34  1  0  0  0  0
  2  3  1  0  0  0  0
  3 30  1  0  0  0  0
  3 29  1  0  0  0  0
  3  4  1  0  0  0  0
  4  5  1  0  0  0  0
  4 35  1  0  0  0  0
  4 36  1  0  0  0  0
  5 31  1  0  0  0  0
  5  6  1  0  0  0  0
  5 27  1  0  0  0  0
  6  7  1  0  0  0  0
  6 37  1  0  0  0  0
  6 38  1  0  0  0  0
  7  8  1  0  0  0  0
  7  9  1  0  0  0  0
  8 39  1  0  0  0  0
  8 40  1  0  0  0  0
  8 41  1  0  0  0  0
  9 14  1  0  0  0  0
  9 10  2  0  0  0  0
 10 11  1  0  0  0  0
 11 12  2  0  0  0  0
 11 42  1  0  0  0  0
 12 13  1  0  0  0  0
 13 17  1  0  0  0  0
 13 14  2  0  0  0  0
 14 15  1  0  0  0  0
 15 16  2  0  0  0  0
 16 17  1  0  0  0  0
 16 43  1  0  0  0  0
 17 18  1  0  0  0  0
 18 19  1  0  0  0  0
 18 44  1  0  0  0  0
 18 45  1  0  0  0  0
 19 20  1  0  0  0  0
 19 22  1  0  0  0  0
 19 46  1  0  0  0  0
 20 21  1  0  0  0  0
 20 47  1  0  0  0  0
 20 48  1  0  0  0  0
 21 49  1  0  0  0  0
 22 26  1  0  0  0  0
 22 23  1  0  0  0  0
 22 50  1  0  0  0  0
 23 24  1  0  0  0  0
 23 51  1  0  0  0  0
 23 52  1  0  0  0  0
 24 25  1  0  0  0  0
 24 53  1  0  0  0  0
 24 54  1  0  0  0  0
 25 26  1  0  0  0  0
 26 55  1  0  0  0  0
 26 56  1  0  0  0  0
 27 28  1  0  0  0  0
 27 29  1  0  0  0  0
 27 62  1  0  0  0  0
 28 57  1  0  0  0  0
 28 58  1  0  0  0  0
 28 59  1  0  0  0  0
 29 60  1  0  0  0  0
 29 61  1  0  0  0  0
M  CHG  1  27   1
M  END
> <s_m_source_file>
AV-unprocessed.smi

> <i_m_source_file_index>
21

> <i_lp_mmshare_version>
43012

> <i_f3d_flags>
0

> <s_epik_input>
W0NIM11PW0NASF0xW0NIMl1bQ0BIXShOKFtDSDNdKVtDSDJdMSlbQ0gyXU4oW0NIM10pYyhuW2NIXW4yKWMoYzIzKW5bY0hdbjNbQ0gyXVtDQEhdKFtDSDJdW09IXSlbQ0BASF00W0NIMl1bQ0gyXU9bQ0gyXTQ=

> <s_epik_cmdline>
J2VwaWtfcHl0aG9uJywgJy1waCcsICc3LjAnLCAnLXRuJywgJzgnLCAnLW1hJywgJzIwMCcsICctbWV0YWxfYmluZGluZycsICctaW1hZScsICc8aW5maWxlLm1hZT4nLCAnLW9tYWUnLCAnPG91dGZpbGUubWFlPic=

> <r_lp_tautomer_probability>
1

> <r_epik_Ionization_Penalty>
0.0157465

> <r_epik_Ionization_Penalty_Charging>
0.015354

> <r_epik_Ionization_Penalty_Neutral>
0.000392529

> <r_epik_State_Penalty>
0.0120612

> <r_epik_Charging_Adjusted_Penalty>
0.0274152

> <i_epik_Tot_Q>
1

> <i_epik_Tot_abs_Q>
1

> <r_epik_Metal_State_Penalty>
0.0121253

> <b_epik_Metal_Only>
0

> <s_lp_Force_Field>
OPLS_2005

> <r_lp_Energy>
57.6991

> <b_lp_Chiralities_Consistent>
1

> <s_lp_Variant>
AV-unprocessed.smi:21-6

> <Gold.Version>
5.8.1

> <Gold.Id.Protein>
6NUR|6NUR_protein|mol2

> <Gold.PLP.Fitness>
47.6670

> <Gold.PLP.PLP>
-42.1068

> <Gold.PLP.part.hbond>
-3.0000

> <Gold.PLP.part.metal>
0.0000

> <Gold.PLP.part.buried>
-3.7775

> <Gold.PLP.part.nonpolar>
-34.7038

> <Gold.PLP.part.repulsive>
0.4244

> <Gold.PLP.ligand.clash>
0.0000

> <Gold.PLP.ligand.torsion>
3.3591

> <Gold.PLP.Chemscore.Hbond>
3.8560

> <Gold.PLP.Chemscore.CHOScore>
0.0000

> <Gold.PLP.Chemscore.Metal>
0.0000

> <Gold.Chemscore.Hbonds>
donor molecule, donor type, donor heavy atom, donor atom, acceptor molecule, acceptor atom, score
      L1  H    27    62       P1  7948  1.98
      P1  H  7997  8008       L1    21  0.98
      P1  H 10752 10765       L1    15  0.88

> <Gold.PLP.Chemscore.Internal.Correction>
0.7104

> <Gold.Rescore>
     Score         DG    S(hbond)    S(metal)    S(lipo)     H(rot)  DE(clash)    DE(int)     intcor
     11.76     -17.75       2.70        0.00      95.17       3.08       0.23       5.77       ----

> <Gold.Chemscore.Fitness>
11.7596

> <Gold.Chemscore.DG>
-17.7537

> <Gold.Chemscore.ZeroCoef>
-5.4800

> <Gold.Chemscore.Hbond>
2.6986

> <Gold.Chemscore.Metal>
0.0000

> <Gold.Chemscore.Lipo>
95.1654

> <Gold.Chemscore.Internal_Hbond>
0.0000

> <Gold.Chemscore.DEClash>
0.2273

> <Gold.Chemscore.DEInternal>
5.7668

> <Gold.Chemscore.Rot>
3.0758

> <Gold.Chemscore.Internal.Correction>
   9.000000E+99

> <Gold.Chemscore.Hbonds>
donor molecule, donor type, donor heavy atom, donor atom, acceptor molecule, acceptor atom, score
      L1  H    27    62       P1  7948  0.80
      P1  H  7997  8008       L1    21  0.36
      P1  H 10752 10765       L1    15  0.64

> <Gold.Chemscore.Hbond.Weighted>
-9.0135

> <Gold.Chemscore.Metal.Weighted>
-0.0000

> <Gold.Chemscore.Lipo.Weighted>
-11.1344

> <Gold.Chemscore.Internal_Hbond.Weighted>
0.0000

> <Gold.Chemscore.DEClash.Weighted>
0.2273

> <Gold.Chemscore.DEInternal.Weighted>
5.7668

> <Gold.Chemscore.Rot.Weighted>
7.8741

> <Gold.Chemscore.Internal.Correction.Weighted>
   9.000000E+99

> <Gold.Protein.RotatedTorsions>
[ 6907 6896 6895 6894 ] final  -93.60 input  -60.11 | X-H torsion
[ 7974 7965 7964 7962 ] final -128.59 input  175.53 | X-H torsion
[ 8008 7997 7996 7995 ] final  -83.53 input   59.86 | X-H torsion
[ 10167 10162 10161 10158 ] final  -70.37 input  -65.29 | X-H torsion
[ 10718 10713 10712 10709 ] final   83.52 input   66.30 | X-H torsion
[ 10763 10752 10751 10750 ] final  174.20 input  -60.55 | X-H torsion
[ 11005 11000 10999 10996 ] final -164.15 input  -57.11 | X-H torsion

> <Gold.Protein.ActiveResidues>
 VAL166  LYS551  ARG553  GLY616  TRP617  ASP618  TYR619  PRO620  LYS621  CYS622 
 ASP623  PHE694  ASN695  SER759  ASP760  ASP761  ALA762  ILE779  LEU786  VAL792 
 PHE793  MET794  SER795  GLU796  ALA797  LYS798  CYS799  TRP800  GLU811  SER814 

> <Gold.Protein.RotatedAtoms>
  150.6925  134.1942  159.4296 H   0  0  0  0  0  0  0  0  0  0  0  0  # atno 6907 bound_to 6896
  151.9912  134.9976  160.0571 H   0  0  0  0  0  0  0  0  0  0  0  0  # atno 6908 bound_to 6896
  152.1666  133.4581  159.4924 H   0  0  0  0  0  0  0  0  0  0  0  0  # atno 6909 bound_to 6896
  144.9656  140.7492  143.4702 H   0  0  0  0  0  0  0  0  0  0  0  0  # atno 7974 bound_to 7965
  154.6200  140.0617  156.9603 H   0  0  0  0  0  0  0  0  0  0  0  0  # atno 8008 bound_to 7997
  155.1833  140.3301  155.4353 H   0  0  0  0  0  0  0  0  0  0  0  0  # atno 8009 bound_to 7997
  156.2426  140.1894  156.6928 H   0  0  0  0  0  0  0  0  0  0  0  0  # atno 8010 bound_to 7997
  140.5358  143.2318  151.7180 H   0  0  0  0  0  0  0  0  0  0  0  0  # atno 10167 bound_to 10162
  157.6880  131.0094  150.2536 H   0  0  0  0  0  0  0  0  0  0  0  0  # atno 10718 bound_to 10713
  154.4506  135.2764  155.1784 H   0  0  0  0  0  0  0  0  0  0  0  0  # atno 10763 bound_to 10752
  154.3613  135.6129  153.5695 H   0  0  0  0  0  0  0  0  0  0  0  0  # atno 10764 bound_to 10752
  152.9847  135.5835  154.4849 H   0  0  0  0  0  0  0  0  0  0  0  0  # atno 10765 bound_to 10752
  140.5901  134.5053  157.5191 H   0  0  0  0  0  0  0  0  0  0  0  0  # atno 11005 bound_to 11000
  145.2635  139.1983  143.4879 LP  0  0  0  0  0  0  0  0  0  0  0  0  # atno 17320 bound_to 7965
  146.3366  140.2569  142.8600 LP  0  0  0  0  0  0  0  0  0  0  0  0  # atno 17321 bound_to 7965
  139.4970  144.4045  152.0146 LP  0  0  0  0  0  0  0  0  0  0  0  0  # atno 17342 bound_to 10162
  140.3150  144.3494  150.6024 LP  0  0  0  0  0  0  0  0  0  0  0  0  # atno 17343 bound_to 10162
  156.3128  130.3774  149.7646 LP  0  0  0  0  0  0  0  0  0  0  0  0  # atno 17370 bound_to 10713
  156.5241  130.8228  151.3214 LP  0  0  0  0  0  0  0  0  0  0  0  0  # atno 17371 bound_to 10713
  139.9278  134.8022  156.1018 LP  0  0  0  0  0  0  0  0  0  0  0  0  # atno 17394 bound_to 11000
  141.0940  133.6703  156.2604 LP  0  0  0  0  0  0  0  0  0  0  0  0  # atno 17395 bound_to 11000

$$$$
