AV-unprocessed.smi:1901|AV-procd|sdf|7718|dock6
  -GOLD-   22720 9463D 1   1.00000     0.00000
 Structure written by MMmdl.
 27 28  0  0  0  0  0  0  0  0  2 V2000
  152.5355  139.9935  155.7730 O   0  0  0  0  0  0  0  0  0  0  0  0
  151.3257  140.2080  155.6721 C   0  0  0  0  0  0  0  0  0  0  0  0
  150.6846  140.8317  156.6696 N   0  0  0  0  0  0  0  0  0  0  0  0
  151.3022  141.3001  157.9044 C   0  0  0  0  0  0  0  0  0  0  0  0
  151.3970  142.8345  157.9252 C   0  0  2  0  0  0  0  0  0  0  0  0
  152.5366  143.3893  158.7572 C   0  0  0  0  0  0  0  0  0  0  0  0
  152.0897  144.8309  158.9812 C   0  0  0  0  0  0  0  0  0  0  0  0
  150.6651  144.8005  158.9981 O   0  0  0  0  0  0  0  0  0  0  0  0
  150.1980  143.5219  158.5774 C   0  0  0  0  0  0  0  0  0  0  0  0
  150.5114  139.8825  154.6358 N   0  5  0  0  0  0  0  0  0  0  0  0
  149.3454  140.4961  154.3343 C   0  0  0  0  0  0  0  0  0  0  0  0
  149.0642  141.8035  154.4632 N   0  0  0  0  0  0  0  0  0  0  0  0
  147.7719  142.1495  154.0685 C   0  0  0  0  0  0  0  0  0  0  0  0
  147.0397  141.0825  153.6237 C   0  0  0  0  0  0  0  0  0  0  0  0
  147.9605  139.6080  153.6916 S   0  0  0  0  0  0  0  0  0  0  0  0
  149.6944  140.9933  156.5596 H   0  0  0  0  0  0  0  0  0  0  0  0
  150.7115  140.9548  158.7540 H   0  0  0  0  0  0  0  0  0  0  0  0
  152.2947  140.8574  158.0032 H   0  0  0  0  0  0  0  0  0  0  0  0
  151.4966  143.2062  156.9037 H   0  0  0  0  0  0  0  0  0  0  0  0
  152.6014  142.8643  159.7116 H   0  0  0  0  0  0  0  0  0  0  0  0
  153.5058  143.3188  158.2626 H   0  0  0  0  0  0  0  0  0  0  0  0
  152.4909  145.2526  159.9030 H   0  0  0  0  0  0  0  0  0  0  0  0
  152.4119  145.4613  158.1517 H   0  0  0  0  0  0  0  0  0  0  0  0
  149.3486  143.6114  157.8998 H   0  0  0  0  0  0  0  0  0  0  0  0
  149.8691  142.9710  159.4596 H   0  0  0  0  0  0  0  0  0  0  0  0
  147.4578  143.1801  154.1377 H   0  0  0  0  0  0  0  0  0  0  0  0
  146.0225  141.0721  153.2627 H   0  0  0  0  0  0  0  0  0  0  0  0
  1  2  2  0  0  0  0
  2  3  1  0  0  0  0
  2 10  1  0  0  0  0
  3  4  1  0  0  0  0
  3 16  1  0  0  0  0
  4  5  1  0  0  0  0
  4 17  1  0  0  0  0
  4 18  1  0  0  0  0
  5  9  1  0  0  0  0
  5  6  1  0  0  0  0
  5 19  1  0  0  0  0
  6  7  1  0  0  0  0
  6 20  1  0  0  0  0
  6 21  1  0  0  0  0
  7  8  1  0  0  0  0
  7 22  1  0  0  0  0
  7 23  1  0  0  0  0
  8  9  1  0  0  0  0
  9 24  1  0  0  0  0
  9 25  1  0  0  0  0
 10 11  1  0  0  0  0
 11 15  1  0  0  0  0
 11 12  2  0  0  0  0
 12 13  1  0  0  0  0
 13 14  2  0  0  0  0
 13 26  1  0  0  0  0
 14 15  1  0  0  0  0
 14 27  1  0  0  0  0
M  CHG  1  10  -1
M  END
> <s_m_source_file>
AV-unprocessed.smi

> <i_m_source_file_index>
1901

> <i_lp_mmshare_version>
43012

> <i_f3d_flags>
0

> <s_epik_input>
czFbY0hdW2NIXW5jMVtOSF1DKD1PKVtOSF1bQ0gyXVtDQEBIXTJbQ0gyXVtDSDJdT1tDSDJdMg==

> <s_epik_cmdline>
J2VwaWtfcHl0aG9uJywgJy1waCcsICc3LjAnLCAnLXRuJywgJzgnLCAnLW1hJywgJzIwMCcsICctbWV0YWxfYmluZGluZycsICctaW1hZScsICc8aW5maWxlLm1hZT4nLCAnLW9tYWUnLCAnPG91dGZpbGUubWFlPic=

> <r_lp_tautomer_probability>
0.999

> <r_epik_Ionization_Penalty>
8.4411

> <r_epik_Ionization_Penalty_Charging>
6.72681

> <r_epik_Ionization_Penalty_Neutral>
1.71429

> <r_epik_State_Penalty>
6.72698

> <r_epik_Charging_Adjusted_Penalty>
13.4538

> <i_epik_Tot_Q>
-1

> <i_epik_Tot_abs_Q>
1

> <r_epik_Metal_State_Penalty>
2.64812

> <b_epik_Metal_Only>
1

> <s_lp_Force_Field>
OPLS_2005

> <r_lp_Energy>
18.4833

> <b_lp_Chiralities_Consistent>
1

> <s_lp_Variant>
AV-unprocessed.smi:1901-3

> <Gold.Version>
5.8.1

> <Gold.Id.Protein>
6NUR|6NUR_protein|mol2

> <Gold.PLP.Fitness>
38.1951

> <Gold.PLP.PLP>
-31.5102

> <Gold.PLP.part.hbond>
-2.9796

> <Gold.PLP.part.metal>
0.0000

> <Gold.PLP.part.buried>
-2.3921

> <Gold.PLP.part.nonpolar>
-26.5757

> <Gold.PLP.part.repulsive>
0.4803

> <Gold.PLP.ligand.clash>
1.3397

> <Gold.PLP.ligand.torsion>
0.8104

> <Gold.PLP.Chemscore.Hbond>
1.4464

> <Gold.PLP.Chemscore.CHOScore>
1.7666

> <Gold.PLP.Chemscore.Metal>
0.0000

> <Gold.Chemscore.Hbonds>
donor molecule, donor type, donor heavy atom, donor atom, acceptor molecule, acceptor atom, score
      P1  H  7989  7998       L1    10  0.41
      P1  H  7997  8010       L1     1  1.00
      P1  H  8011  8017       L1    12  0.04
      L1  C    13    26       P1  8028  0.74
      L1  C    14    27       P1 10175  1.00

> <Gold.PLP.Chemscore.Internal.Correction>
0.0064

> <Gold.Rescore>
     Score         DG    S(hbond)    S(metal)    S(lipo)     H(rot)  DE(clash)    DE(int)     intcor
     12.05     -14.08       1.00        0.00      73.38       1.30       0.01       2.02       ----

> <Gold.Chemscore.Fitness>
12.0509

> <Gold.Chemscore.DG>
-14.0769

> <Gold.Chemscore.ZeroCoef>
-5.4800

> <Gold.Chemscore.Hbond>
1.0000

> <Gold.Chemscore.Metal>
0.0000

> <Gold.Chemscore.Lipo>
73.3751

> <Gold.Chemscore.Internal_Hbond>
0.0000

> <Gold.Chemscore.DEClash>
0.0093

> <Gold.Chemscore.DEInternal>
2.0168

> <Gold.Chemscore.Rot>
1.3000

> <Gold.Chemscore.Internal.Correction>
   9.000000E+99

> <Gold.Chemscore.Hbonds>
donor molecule, donor type, donor heavy atom, donor atom, acceptor molecule, acceptor atom, score
      P1  H  7997  8010       L1     1  0.97

> <Gold.Chemscore.Hbond.Weighted>
-3.3401

> <Gold.Chemscore.Metal.Weighted>
-0.0000

> <Gold.Chemscore.Lipo.Weighted>
-8.5849

> <Gold.Chemscore.Internal_Hbond.Weighted>
0.0000

> <Gold.Chemscore.DEClash.Weighted>
0.0093

> <Gold.Chemscore.DEInternal.Weighted>
2.0168

> <Gold.Chemscore.Rot.Weighted>
3.3280

> <Gold.Chemscore.Internal.Correction.Weighted>
   9.000000E+99

> <Gold.Protein.RotatedTorsions>
[ 6907 6896 6895 6894 ] final -155.14 input  -60.11 | X-H torsion
[ 7974 7965 7964 7962 ] final  -91.55 input  175.53 | X-H torsion
[ 8008 7997 7996 7995 ] final  101.84 input   59.86 | X-H torsion
[ 10167 10162 10161 10158 ] final   -0.41 input  -65.29 | X-H torsion
[ 10718 10713 10712 10709 ] final  157.59 input   66.30 | X-H torsion
[ 10763 10752 10751 10750 ] final  134.12 input  -60.55 | X-H torsion
[ 11005 11000 10999 10996 ] final  -45.44 input  -57.11 | X-H torsion

> <Gold.Protein.ActiveResidues>
 VAL166  LYS551  ARG553  GLY616  TRP617  ASP618  TYR619  PRO620  LYS621  CYS622 
 ASP623  PHE694  ASN695  SER759  ASP760  ASP761  ALA762  ILE779  LEU786  VAL792 
 PHE793  MET794  SER795  GLU796  ALA797  LYS798  CYS799  TRP800  GLU811  SER814 

> <Gold.Protein.RotatedAtoms>
  151.2681  133.4269  159.2619 H   0  0  0  0  0  0  0  0  0  0  0  0  # atno 6907 bound_to 6896
  151.0470  134.9647  159.8202 H   0  0  0  0  0  0  0  0  0  0  0  0  # atno 6908 bound_to 6896
  152.5376  134.2637  159.8997 H   0  0  0  0  0  0  0  0  0  0  0  0  # atno 6909 bound_to 6896
  145.4116  140.9545  143.2231 H   0  0  0  0  0  0  0  0  0  0  0  0  # atno 7974 bound_to 7965
  156.1337  140.3191  155.8387 H   0  0  0  0  0  0  0  0  0  0  0  0  # atno 8008 bound_to 7997
  155.4285  140.0517  157.3037 H   0  0  0  0  0  0  0  0  0  0  0  0  # atno 8009 bound_to 7997
  154.4919  140.2095  155.9542 H   0  0  0  0  0  0  0  0  0  0  0  0  # atno 8010 bound_to 7997
  140.6766  143.6897  150.8038 H   0  0  0  0  0  0  0  0  0  0  0  0  # atno 10167 bound_to 10162
  157.1894  131.0651  151.2087 H   0  0  0  0  0  0  0  0  0  0  0  0  # atno 10718 bound_to 10713
  153.8183  135.3119  155.3407 H   0  0  0  0  0  0  0  0  0  0  0  0  # atno 10763 bound_to 10752
  154.8023  135.4719  154.0309 H   0  0  0  0  0  0  0  0  0  0  0  0  # atno 10764 bound_to 10752
  153.1710  135.6877  153.8698 H   0  0  0  0  0  0  0  0  0  0  0  0  # atno 10765 bound_to 10752
  141.0515  133.6741  156.3013 H   0  0  0  0  0  0  0  0  0  0  0  0  # atno 11005 bound_to 11000
  144.8305  139.5637  143.6946 LP  0  0  0  0  0  0  0  0  0  0  0  0  # atno 17320 bound_to 7965
  146.2702  139.6616  142.9301 LP  0  0  0  0  0  0  0  0  0  0  0  0  # atno 17321 bound_to 7965
  140.0591  143.5173  152.2636 LP  0  0  0  0  0  0  0  0  0  0  0  0  # atno 17342 bound_to 10162
  139.6063  144.7597  151.3055 LP  0  0  0  0  0  0  0  0  0  0  0  0  # atno 17343 bound_to 10162
  157.3875  130.7264  149.6673 LP  0  0  0  0  0  0  0  0  0  0  0  0  # atno 17370 bound_to 10713
  155.9713  130.4155  150.4187 LP  0  0  0  0  0  0  0  0  0  0  0  0  # atno 17371 bound_to 10713
  140.6045  134.5521  157.5523 LP  0  0  0  0  0  0  0  0  0  0  0  0  # atno 17394 bound_to 11000
  139.9355  134.7884  156.0815 LP  0  0  0  0  0  0  0  0  0  0  0  0  # atno 17395 bound_to 11000

$$$$
