AV-unprocessed.smi:1817|AV-procd|sdf|7368|dock7
  -GOLD-   22720 9 33D 1   1.00000     0.00000
 Structure written by MMmdl.
 43 44  0  0  0  0  0  0  0  0  2 V2000
  145.8980  142.1754  156.7862 C   0  0  0  0  0  0  0  0  0  0  0  0
  147.2121  141.6926  157.4163 C   0  0  0  0  0  0  0  0  0  0  0  0
  148.3758  141.8503  156.5087 N   0  3  0  0  0  0  0  0  0  0  0  0
  148.2044  141.0943  155.2437 C   0  0  0  0  0  0  0  0  0  0  0  0
  149.4187  141.3092  154.3165 C   0  0  0  0  0  0  0  0  0  0  0  0
  150.6682  140.8537  154.9425 N   0  0  0  0  0  0  0  0  0  0  0  0
  150.7721  139.3977  155.1876 C   0  0  2  0  0  0  0  0  0  0  0  0
  151.8036  139.1133  156.3050 C   0  0  0  0  0  0  0  0  0  0  0  0
  151.1469  138.6102  153.9012 C   0  0  0  0  0  0  0  0  0  0  0  0
  150.5108  137.2973  153.8484 N   0  0  0  0  0  0  0  0  0  0  0  0
  150.7910  136.2832  154.6804 C   0  0  0  0  0  0  0  0  0  0  0  0
  151.6074  136.3690  155.5990 O   0  0  0  0  0  0  0  0  0  0  0  0
  150.0775  135.1860  154.3730 N   0  0  0  0  0  0  0  0  0  0  0  0
  150.1241  133.9070  154.9884 C   0  0  0  0  0  0  0  0  0  0  0  0
  150.6211  133.6901  156.2165 N   0  0  0  0  0  0  0  0  0  0  0  0
  150.5518  132.3504  156.5756 N   0  0  0  0  0  0  0  0  0  0  0  0
  150.0074  131.6107  155.6053 C   0  0  0  0  0  0  0  0  0  0  0  0
  149.5250  132.4786  154.1580 S   0  0  0  0  0  0  0  0  0  0  0  0
  150.8401  141.6888  156.1412 C   0  0  0  0  0  0  0  0  0  0  0  0
  149.6767  141.5176  157.1446 C   0  0  0  0  0  0  0  0  0  0  0  0
  145.0560  141.9530  157.4419 H   0  0  0  0  0  0  0  0  0  0  0  0
  145.7121  141.6807  155.8325 H   0  0  0  0  0  0  0  0  0  0  0  0
  145.8971  143.2516  156.6158 H   0  0  0  0  0  0  0  0  0  0  0  0
  147.3993  142.2107  158.3580 H   0  0  0  0  0  0  0  0  0  0  0  0
  147.0967  140.6363  157.6627 H   0  0  0  0  0  0  0  0  0  0  0  0
  148.0478  140.0350  155.4524 H   0  0  0  0  0  0  0  0  0  0  0  0
  147.3046  141.4452  154.7374 H   0  0  0  0  0  0  0  0  0  0  0  0
  149.2595  140.8359  153.3497 H   0  0  0  0  0  0  0  0  0  0  0  0
  149.5110  142.3721  154.0877 H   0  0  0  0  0  0  0  0  0  0  0  0
  149.8074  139.0257  155.5274 H   0  0  0  0  0  0  0  0  0  0  0  0
  151.9724  138.0452  156.4388 H   0  0  0  0  0  0  0  0  0  0  0  0
  151.4741  139.4786  157.2765 H   0  0  0  0  0  0  0  0  0  0  0  0
  152.7681  139.5693  156.0792 H   0  0  0  0  0  0  0  0  0  0  0  0
  150.8471  139.1329  152.9938 H   0  0  0  0  0  0  0  0  0  0  0  0
  152.2274  138.4756  153.8412 H   0  0  0  0  0  0  0  0  0  0  0  0
  149.8256  137.1489  153.1216 H   0  0  0  0  0  0  0  0  0  0  0  0
  149.4372  135.2693  153.5973 H   0  0  0  0  0  0  0  0  0  0  0  0
  149.8892  130.5462  155.7429 H   0  0  0  0  0  0  0  0  0  0  0  0
  151.7941  141.4930  156.6269 H   0  0  0  0  0  0  0  0  0  0  0  0
  150.8946  142.7335  155.8311 H   0  0  0  0  0  0  0  0  0  0  0  0
  149.8505  142.1836  157.9893 H   0  0  0  0  0  0  0  0  0  0  0  0
  149.6507  140.5069  157.5525 H   0  0  0  0  0  0  0  0  0  0  0  0
  148.4171  142.8254  156.2490 H   0  0  0  0  0  0  0  0  0  0  0  0
  1  2  1  0  0  0  0
  1 21  1  0  0  0  0
  1 22  1  0  0  0  0
  1 23  1  0  0  0  0
  2  3  1  0  0  0  0
  2 24  1  0  0  0  0
  2 25  1  0  0  0  0
  3 20  1  0  0  0  0
  3  4  1  0  0  0  0
  3 43  1  0  0  0  0
  4  5  1  0  0  0  0
  4 26  1  0  0  0  0
  4 27  1  0  0  0  0
  5  6  1  0  0  0  0
  5 28  1  0  0  0  0
  5 29  1  0  0  0  0
  6  7  1  0  0  0  0
  6 19  1  0  0  0  0
  7  8  1  0  0  0  0
  7  9  1  0  0  0  0
  7 30  1  0  0  0  0
  8 31  1  0  0  0  0
  8 32  1  0  0  0  0
  8 33  1  0  0  0  0
  9 10  1  0  0  0  0
  9 34  1  0  0  0  0
  9 35  1  0  0  0  0
 10 11  1  0  0  0  0
 10 36  1  0  0  0  0
 11 12  2  0  0  0  0
 11 13  1  0  0  0  0
 13 14  1  0  0  0  0
 13 37  1  0  0  0  0
 14 18  1  0  0  0  0
 14 15  2  0  0  0  0
 15 16  1  0  0  0  0
 16 17  2  0  0  0  0
 17 18  1  0  0  0  0
 17 38  1  0  0  0  0
 19 20  1  0  0  0  0
 19 39  1  0  0  0  0
 19 40  1  0  0  0  0
 20 41  1  0  0  0  0
 20 42  1  0  0  0  0
M  CHG  1   3   1
M  END
> <s_m_source_file>
AV-unprocessed.smi

> <i_m_source_file_index>
1817

> <i_lp_mmshare_version>
43012

> <i_f3d_flags>
0

> <s_epik_input>
W0NIM11bQ0gyXU4xW0NIMl1bQ0gyXU4oW0NIMl1bQ0gyXTEpW0NASF0oW0NIM10pW0NIMl1bTkhdQyg9TylbTkhdYzJubltjSF1zMg==

> <s_epik_cmdline>
J2VwaWtfcHl0aG9uJywgJy1waCcsICc3LjAnLCAnLXRuJywgJzgnLCAnLW1hJywgJzIwMCcsICctbWV0YWxfYmluZGluZycsICctaW1hZScsICc8aW5maWxlLm1hZT4nLCAnLW9tYWUnLCAnPG91dGZpbGUubWFlPic=

> <r_lp_tautomer_probability>
1

> <r_epik_Ionization_Penalty>
0.0474318

> <r_epik_Ionization_Penalty_Charging>
0.0451959

> <r_epik_Ionization_Penalty_Neutral>
0.00223598

> <r_epik_State_Penalty>
0.165541

> <r_epik_Charging_Adjusted_Penalty>
0.210737

> <i_epik_Tot_Q>
1

> <i_epik_Tot_abs_Q>
1

> <r_epik_Metal_State_Penalty>
0.500395

> <b_epik_Metal_Only>
0

> <s_lp_Force_Field>
OPLS_2005

> <r_lp_Energy>
19.2999

> <b_lp_Chiralities_Consistent>
1

> <s_lp_Variant>
AV-unprocessed.smi:1817-1

> <Gold.Version>
5.8.1

> <Gold.Id.Protein>
6NUR|6NUR_protein|mol2

> <Gold.PLP.Fitness>
44.9209

> <Gold.PLP.PLP>
-30.4777

> <Gold.PLP.part.hbond>
-6.3359

> <Gold.PLP.part.metal>
0.0000

> <Gold.PLP.part.buried>
0.5144

> <Gold.PLP.part.nonpolar>
-22.5336

> <Gold.PLP.part.repulsive>
0.2913

> <Gold.PLP.ligand.clash>
0.0000

> <Gold.PLP.ligand.torsion>
1.0205

> <Gold.PLP.Chemscore.Hbond>
5.4760

> <Gold.PLP.Chemscore.CHOScore>
0.0000

> <Gold.PLP.Chemscore.Metal>
0.0000

> <Gold.Chemscore.Hbonds>
donor molecule, donor type, donor heavy atom, donor atom, acceptor molecule, acceptor atom, score
      L1  H     3    43       P1  8028  2.00
      L1  H    10    36       P1  7948  1.00
      L1  H    13    37       P1  7948  0.79
      P1  H  7989  7998       L1     6  0.55
      P1  H 10752 10764       L1    12  1.00

> <Gold.PLP.Chemscore.Internal.Correction>
0.0562

> <Gold.Rescore>
     Score         DG    S(hbond)    S(metal)    S(lipo)     H(rot)  DE(clash)    DE(int)     intcor
     13.34     -16.86       2.86        0.00      57.46       1.92       0.13       3.39       ----

> <Gold.Chemscore.Fitness>
13.3442

> <Gold.Chemscore.DG>
-16.8575

> <Gold.Chemscore.ZeroCoef>
-5.4800

> <Gold.Chemscore.Hbond>
2.8648

> <Gold.Chemscore.Metal>
0.0000

> <Gold.Chemscore.Lipo>
57.4643

> <Gold.Chemscore.Internal_Hbond>
0.0000

> <Gold.Chemscore.DEClash>
0.1272

> <Gold.Chemscore.DEInternal>
3.3861

> <Gold.Chemscore.Rot>
1.9196

> <Gold.Chemscore.Internal.Correction>
   9.000000E+99

> <Gold.Chemscore.Hbonds>
donor molecule, donor type, donor heavy atom, donor atom, acceptor molecule, acceptor atom, score
      L1  H     3    43       P1  8028  0.85
      L1  H    10    36       P1  7948  0.34
      L1  H    13    37       P1  7948  0.13
      P1  H  7989  7998       L1     6  0.01
      P1  H 10752 10764       L1    12  0.58

> <Gold.Chemscore.Hbond.Weighted>
-9.5683

> <Gold.Chemscore.Metal.Weighted>
-0.0000

> <Gold.Chemscore.Lipo.Weighted>
-6.7233

> <Gold.Chemscore.Internal_Hbond.Weighted>
0.0000

> <Gold.Chemscore.DEClash.Weighted>
0.1272

> <Gold.Chemscore.DEInternal.Weighted>
3.3861

> <Gold.Chemscore.Rot.Weighted>
4.9141

> <Gold.Chemscore.Internal.Correction.Weighted>
   9.000000E+99

> <Gold.Protein.RotatedTorsions>
[ 6907 6896 6895 6894 ] final -129.49 input  -60.11 | X-H torsion
[ 7974 7965 7964 7962 ] final -177.42 input  175.53 | X-H torsion
[ 8008 7997 7996 7995 ] final  137.19 input   59.86 | X-H torsion
[ 10167 10162 10161 10158 ] final -168.77 input  -65.29 | X-H torsion
[ 10718 10713 10712 10709 ] final   73.16 input   66.30 | X-H torsion
[ 10763 10752 10751 10750 ] final  -28.01 input  -60.55 | X-H torsion
[ 11005 11000 10999 10996 ] final -179.28 input  -57.11 | X-H torsion

> <Gold.Protein.ActiveResidues>
 VAL166  LYS551  ARG553  GLY616  TRP617  ASP618  TYR619  PRO620  LYS621  CYS622 
 ASP623  PHE694  ASN695  SER759  ASP760  ASP761  ALA762  ILE779  LEU786  VAL792 
 PHE793  MET794  SER795  GLU796  ALA797  LYS798  CYS799  TRP800  GLU811  SER814 

> <Gold.Protein.RotatedAtoms>
  150.9293  133.6786  159.2814 H   0  0  0  0  0  0  0  0  0  0  0  0  # atno 6907 bound_to 6896
  151.4214  135.0997  159.9624 H   0  0  0  0  0  0  0  0  0  0  0  0  # atno 6908 bound_to 6896
  152.5018  133.8744  159.7369 H   0  0  0  0  0  0  0  0  0  0  0  0  # atno 6909 bound_to 6896
  144.7128  140.1022  143.6416 H   0  0  0  0  0  0  0  0  0  0  0  0  # atno 7974 bound_to 7965
  156.3003  140.2426  156.3869 H   0  0  0  0  0  0  0  0  0  0  0  0  # atno 8008 bound_to 7997
  154.8650  140.0418  157.1709 H   0  0  0  0  0  0  0  0  0  0  0  0  # atno 8009 bound_to 7997
  154.8856  140.2955  155.5404 H   0  0  0  0  0  0  0  0  0  0  0  0  # atno 8010 bound_to 7997
  139.5964  144.1103  152.1694 H   0  0  0  0  0  0  0  0  0  0  0  0  # atno 10167 bound_to 10162
  157.6535  130.9615  150.1030 H   0  0  0  0  0  0  0  0  0  0  0  0  # atno 10718 bound_to 10713
  153.7414  135.6932  153.4966 H   0  0  0  0  0  0  0  0  0  0  0  0  # atno 10763 bound_to 10752
  153.2066  135.4417  155.0329 H   0  0  0  0  0  0  0  0  0  0  0  0  # atno 10764 bound_to 10752
  154.8219  135.3426  154.6939 H   0  0  0  0  0  0  0  0  0  0  0  0  # atno 10765 bound_to 10752
  140.4203  134.6611  157.4661 H   0  0  0  0  0  0  0  0  0  0  0  0  # atno 11005 bound_to 11000
  145.9528  139.2745  143.1202 LP  0  0  0  0  0  0  0  0  0  0  0  0  # atno 17320 bound_to 7965
  145.9305  140.9052  143.0359 LP  0  0  0  0  0  0  0  0  0  0  0  0  # atno 17321 bound_to 7965
  140.0689  144.5795  150.7206 LP  0  0  0  0  0  0  0  0  0  0  0  0  # atno 17342 bound_to 10162
  140.7215  143.2594  151.4262 LP  0  0  0  0  0  0  0  0  0  0  0  0  # atno 17343 bound_to 10162
  156.1947  130.3656  149.8864 LP  0  0  0  0  0  0  0  0  0  0  0  0  # atno 17370 bound_to 10713
  156.6783  130.8848  151.3572 LP  0  0  0  0  0  0  0  0  0  0  0  0  # atno 17371 bound_to 10713
  140.0204  134.6555  155.9247 LP  0  0  0  0  0  0  0  0  0  0  0  0  # atno 17394 bound_to 11000
  141.1786  133.6543  156.4929 LP  0  0  0  0  0  0  0  0  0  0  0  0  # atno 17395 bound_to 11000

$$$$
