AV-unprocessed.smi:1720|AV-procd|sdf|6931|dock6
  -GOLD-   22720 8143D 1   1.00000     0.00000
 Structure written by MMmdl.
 32 33  0  0  0  0  0  0  0  0  1 V2000
  146.7811  138.9119  155.3823 C   0  0  0  0  0  0  0  0  0  0  0  0
  147.3917  139.1959  154.0013 C   0  0  2  0  0  0  0  0  0  0  0  0
  147.3081  137.9777  153.1982 N   0  0  0  0  0  0  0  0  0  0  0  0
  146.1765  137.3519  152.8435 C   0  0  0  0  0  0  0  0  0  0  0  0
  145.0521  137.7363  153.1657 O   0  0  0  0  0  0  0  0  0  0  0  0
  146.4354  136.2649  152.0985 N   0  0  0  0  0  0  0  0  0  0  0  0
  145.4972  135.3634  151.5350 C   0  0  0  0  0  0  0  0  0  0  0  0
  145.7368  133.9803  151.3120 C   0  0  0  0  0  0  0  0  0  0  0  0
  144.6810  133.3872  150.7730 N   0  0  0  0  0  0  0  0  0  0  0  0
  143.7697  134.3788  150.6505 N   0  0  0  0  0  0  0  0  0  0  0  0
  144.2225  135.5990  151.1014 C   0  0  0  0  0  0  0  0  0  0  0  0
  148.8589  139.6641  154.0958 C   0  0  2  0  0  0  0  0  0  0  0  0
  149.8658  138.5551  154.4038 C   0  0  0  0  0  0  0  0  0  0  0  0
  151.0324  139.2961  155.0374 C   0  0  0  0  0  0  0  0  0  0  0  0
  150.4440  140.6550  155.4257 C   0  0  0  0  0  0  0  0  0  0  0  0
  149.0465  140.5341  155.2018 O   0  0  0  0  0  0  0  0  0  0  0  0
  142.8532  134.2090  150.2612 H   0  0  0  0  0  0  0  0  0  0  0  0
  146.7608  139.8095  156.0006 H   0  0  0  0  0  0  0  0  0  0  0  0
  147.3486  138.1508  155.9189 H   0  0  0  0  0  0  0  0  0  0  0  0
  145.7533  138.5593  155.2911 H   0  0  0  0  0  0  0  0  0  0  0  0
  146.7988  139.9845  153.5343 H   0  0  0  0  0  0  0  0  0  0  0  0
  148.1827  137.5863  152.8815 H   0  0  0  0  0  0  0  0  0  0  0  0
  147.4063  136.0639  151.9093 H   0  0  0  0  0  0  0  0  0  0  0  0
  146.6234  133.3988  151.5184 H   0  0  0  0  0  0  0  0  0  0  0  0
  143.6125  136.4896  151.0710 H   0  0  0  0  0  0  0  0  0  0  0  0
  149.1520  140.1873  153.1832 H   0  0  0  0  0  0  0  0  0  0  0  0
  149.4447  137.8544  155.1261 H   0  0  0  0  0  0  0  0  0  0  0  0
  150.1568  137.9903  153.5175 H   0  0  0  0  0  0  0  0  0  0  0  0
  151.4149  138.7559  155.9039 H   0  0  0  0  0  0  0  0  0  0  0  0
  151.8535  139.4233  154.3310 H   0  0  0  0  0  0  0  0  0  0  0  0
  150.6518  140.9205  156.4624 H   0  0  0  0  0  0  0  0  0  0  0  0
  150.8435  141.4432  154.7859 H   0  0  0  0  0  0  0  0  0  0  0  0
  1  2  1  0  0  0  0
  1 18  1  0  0  0  0
  1 19  1  0  0  0  0
  1 20  1  0  0  0  0
  2  3  1  0  0  0  0
  2 12  1  0  0  0  0
  2 21  1  0  0  0  0
  3  4  1  0  0  0  0
  3 22  1  0  0  0  0
  4  5  2  0  0  0  0
  4  6  1  0  0  0  0
  6  7  1  0  0  0  0
  6 23  1  0  0  0  0
  7 11  2  0  0  0  0
  7  8  1  0  0  0  0
  8  9  2  0  0  0  0
  8 24  1  0  0  0  0
  9 10  1  0  0  0  0
 10 17  1  0  0  0  0
 10 11  1  0  0  0  0
 11 25  1  0  0  0  0
 12 16  1  0  0  0  0
 12 13  1  0  0  0  0
 12 26  1  0  0  0  0
 13 14  1  0  0  0  0
 13 27  1  0  0  0  0
 13 28  1  0  0  0  0
 14 15  1  0  0  0  0
 14 29  1  0  0  0  0
 14 30  1  0  0  0  0
 15 16  1  0  0  0  0
 15 31  1  0  0  0  0
 15 32  1  0  0  0  0
M  END
> <s_m_source_file>
AV-unprocessed.smi

> <i_m_source_file_index>
1720

> <i_lp_mmshare_version>
43012

> <i_f3d_flags>
0

> <s_epik_input>
TzFbQ0gyXVtDSDJdW0NIMl1bQ0BIXTFbQ0BIXShbQ0gzXSlbTkhdQyg9TylbTkhdYzJbY0hdbltuSF1bY0hdMg==

> <s_epik_cmdline>
J2VwaWtfcHl0aG9uJywgJy1waCcsICc3LjAnLCAnLXRuJywgJzgnLCAnLW1hJywgJzIwMCcsICctbWV0YWxfYmluZGluZycsICctaW1hZScsICc8aW5maWxlLm1hZT4nLCAnLW9tYWUnLCAnPG91dGZpbGUubWFlPic=

> <r_lp_tautomer_probability>
1

> <r_epik_Ionization_Penalty>
4.95841e-05

> <r_epik_Ionization_Penalty_Charging>
0

> <r_epik_Ionization_Penalty_Neutral>
4.95841e-05

> <r_epik_State_Penalty>
-0

> <r_epik_Charging_Adjusted_Penalty>
0

> <i_epik_Tot_Q>
0

> <i_epik_Tot_abs_Q>
0

> <r_epik_Metal_State_Penalty>
-0

> <b_epik_Metal_Only>
0

> <s_lp_Force_Field>
OPLS_2005

> <r_lp_Energy>
20.531

> <b_lp_Chiralities_Consistent>
1

> <s_lp_Variant>
AV-unprocessed.smi:1720-1

> <Gold.Version>
5.8.1

> <Gold.Id.Protein>
6NUR|6NUR_protein|mol2

> <Gold.PLP.Fitness>
33.0052

> <Gold.PLP.PLP>
-22.2655

> <Gold.PLP.part.hbond>
-2.9444

> <Gold.PLP.part.metal>
0.0000

> <Gold.PLP.part.buried>
-1.6135

> <Gold.PLP.part.nonpolar>
-18.2977

> <Gold.PLP.part.repulsive>
0.5597

> <Gold.PLP.ligand.clash>
0.0000

> <Gold.PLP.ligand.torsion>
0.5090

> <Gold.PLP.Chemscore.Hbond>
2.9120

> <Gold.PLP.Chemscore.CHOScore>
1.0000

> <Gold.PLP.Chemscore.Metal>
0.0000

> <Gold.Chemscore.Hbonds>
donor molecule, donor type, donor heavy atom, donor atom, acceptor molecule, acceptor atom, score
      L1  H     3    22       P1  7948  0.90
      L1  H     6    23       P1  7948  1.00
      L1  H    10    17       P1 10186  1.00
      L1  C    11    25       P1 10171  1.00

> <Gold.PLP.Chemscore.Internal.Correction>
0.0218

> <Gold.Rescore>
     Score         DG    S(hbond)    S(metal)    S(lipo)     H(rot)  DE(clash)    DE(int)     intcor
     16.01     -17.30       2.90        0.00      46.97       1.31       0.00       1.28       ----

> <Gold.Chemscore.Fitness>
16.0125

> <Gold.Chemscore.DG>
-17.2979

> <Gold.Chemscore.ZeroCoef>
-5.4800

> <Gold.Chemscore.Hbond>
2.8953

> <Gold.Chemscore.Metal>
0.0000

> <Gold.Chemscore.Lipo>
46.9737

> <Gold.Chemscore.Internal_Hbond>
0.0000

> <Gold.Chemscore.DEClash>
0.0044

> <Gold.Chemscore.DEInternal>
1.2810

> <Gold.Chemscore.Rot>
1.3079

> <Gold.Chemscore.Internal.Correction>
   9.000000E+99

> <Gold.Chemscore.Hbonds>
donor molecule, donor type, donor heavy atom, donor atom, acceptor molecule, acceptor atom, score
      L1  H     3    22       P1  7948  0.88
      L1  H     6    23       P1  7948  0.93
      L1  H    10    17       P1 10186  0.88

> <Gold.Chemscore.Hbond.Weighted>
-9.6703

> <Gold.Chemscore.Metal.Weighted>
-0.0000

> <Gold.Chemscore.Lipo.Weighted>
-5.4959

> <Gold.Chemscore.Internal_Hbond.Weighted>
0.0000

> <Gold.Chemscore.DEClash.Weighted>
0.0044

> <Gold.Chemscore.DEInternal.Weighted>
1.2810

> <Gold.Chemscore.Rot.Weighted>
3.3483

> <Gold.Chemscore.Internal.Correction.Weighted>
   9.000000E+99

> <Gold.Protein.RotatedTorsions>
[ 6907 6896 6895 6894 ] final -115.48 input  -60.11 | X-H torsion
[ 7974 7965 7964 7962 ] final -175.89 input  175.53 | X-H torsion
[ 8008 7997 7996 7995 ] final  152.64 input   59.86 | X-H torsion
[ 10167 10162 10161 10158 ] final   80.57 input  -65.29 | X-H torsion
[ 10718 10713 10712 10709 ] final  170.94 input   66.30 | X-H torsion
[ 10763 10752 10751 10750 ] final  -43.08 input  -60.55 | X-H torsion
[ 11005 11000 10999 10996 ] final   90.09 input  -57.11 | X-H torsion

> <Gold.Protein.ActiveResidues>
 VAL166  LYS551  ARG553  GLY616  TRP617  ASP618  TYR619  PRO620  LYS621  CYS622 
 ASP623  PHE694  ASN695  SER759  ASP760  ASP761  ALA762  ILE779  LEU786  VAL792 
 PHE793  MET794  SER795  GLU796  ALA797  LYS798  CYS799  TRP800  GLU811  SER814 

> <Gold.Protein.RotatedAtoms>
  150.7981  133.8652  159.3242 H   0  0  0  0  0  0  0  0  0  0  0  0  # atno 6907 bound_to 6896
  151.6472  135.1004  160.0163 H   0  0  0  0  0  0  0  0  0  0  0  0  # atno 6908 bound_to 6896
  152.4066  133.6858  159.6396 H   0  0  0  0  0  0  0  0  0  0  0  0  # atno 6909 bound_to 6896
  144.7127  140.1253  143.6402 H   0  0  0  0  0  0  0  0  0  0  0  0  # atno 7974 bound_to 7965
  156.2619  140.2015  156.6365 H   0  0  0  0  0  0  0  0  0  0  0  0  # atno 8008 bound_to 7997
  154.6642  140.0557  157.0120 H   0  0  0  0  0  0  0  0  0  0  0  0  # atno 8009 bound_to 7997
  155.1231  140.3226  155.4495 H   0  0  0  0  0  0  0  0  0  0  0  0  # atno 8010 bound_to 7997
  139.9484  144.6043  150.8184 H   0  0  0  0  0  0  0  0  0  0  0  0  # atno 10167 bound_to 10162
  157.0007  131.0175  151.2831 H   0  0  0  0  0  0  0  0  0  0  0  0  # atno 10718 bound_to 10713
  153.9896  135.6707  153.4753 H   0  0  0  0  0  0  0  0  0  0  0  0  # atno 10763 bound_to 10752
  153.0711  135.4974  154.8303 H   0  0  0  0  0  0  0  0  0  0  0  0  # atno 10764 bound_to 10752
  154.7117  135.3098  154.9149 H   0  0  0  0  0  0  0  0  0  0  0  0  # atno 10765 bound_to 10752
  139.8863  134.8592  156.3234 H   0  0  0  0  0  0  0  0  0  0  0  0  # atno 11005 bound_to 11000
  145.9335  139.2621  143.1311 LP  0  0  0  0  0  0  0  0  0  0  0  0  # atno 17320 bound_to 7965
  145.9498  140.8917  143.0265 LP  0  0  0  0  0  0  0  0  0  0  0  0  # atno 17321 bound_to 7965
  140.7590  143.3120  151.2823 LP  0  0  0  0  0  0  0  0  0  0  0  0  # atno 17342 bound_to 10162
  139.6648  144.0124  152.2716 LP  0  0  0  0  0  0  0  0  0  0  0  0  # atno 17343 bound_to 10162
  157.5392  130.8109  149.8008 LP  0  0  0  0  0  0  0  0  0  0  0  0  # atno 17370 bound_to 10713
  156.0172  130.3809  150.2074 LP  0  0  0  0  0  0  0  0  0  0  0  0  # atno 17371 bound_to 10713
  140.9771  133.7290  156.0618 LP  0  0  0  0  0  0  0  0  0  0  0  0  # atno 17394 bound_to 11000
  140.7797  134.3740  157.5490 LP  0  0  0  0  0  0  0  0  0  0  0  0  # atno 17395 bound_to 11000

$$$$
