AV-unprocessed.smi:1945|AV-procd|sdf|7858|dock7
  -GOLD-   2272010 03D 1   1.00000     0.00000
 Structure written by MMmdl.
 47 48  0  0  0  0  0  0  0  0  1 V2000
  145.8100  129.3370  152.1960 C   0  0  0  0  0  0  0  0  0  0  0  0
  146.2704  130.7646  152.1798 C   0  0  0  0  0  0  0  0  0  0  0  0
  147.3058  131.3613  152.9560 C   0  0  0  0  0  0  0  0  0  0  0  0
  147.2868  132.6624  152.5333 C   0  0  0  0  0  0  0  0  0  0  0  0
  148.0508  133.7045  152.9554 N   0  0  0  0  0  0  0  0  0  0  0  0
  148.6822  133.8449  154.1331 C   0  0  0  0  0  0  0  0  0  0  0  0
  148.8440  132.9489  154.9621 O   0  0  0  0  0  0  0  0  0  0  0  0
  149.1137  135.1025  154.3076 N   0  0  0  0  0  0  0  0  0  0  0  0
  149.6873  135.6231  155.5451 C   0  0  0  0  0  0  0  0  0  0  0  0
  149.0722  136.9840  155.9085 C   0  0  0  0  0  0  0  0  0  0  0  0
  150.1047  137.8362  156.3798 O   0  0  0  0  0  0  0  0  0  0  0  0
  150.9452  138.3989  155.3809 C   0  0  1  0  0  0  0  0  0  0  0  0
  150.1130  138.8519  154.1601 C   0  0  0  0  0  0  0  0  0  0  0  0
  149.1314  139.9798  154.5216 C   0  0  0  0  0  0  0  0  0  0  0  0
  149.8573  141.1688  155.1679 C   0  0  0  0  0  0  0  0  0  0  0  0
  150.6910  140.7255  156.3806 C   0  0  0  0  0  0  0  0  0  0  0  0
  151.6822  139.6034  156.0081 C   0  0  1  0  0  0  0  0  0  0  0  0
  152.5506  139.1884  157.2060 C   0  0  0  0  0  0  0  0  0  0  0  0
  146.2959  132.8097  151.5885 N   0  0  0  0  0  0  0  0  0  0  0  0
  145.8824  133.9938  150.8614 C   0  0  0  0  0  0  0  0  0  0  0  0
  145.6757  131.6305  151.3664 N   0  0  0  0  0  0  0  0  0  0  0  0
  146.3126  128.7702  152.9799 H   0  0  0  0  0  0  0  0  0  0  0  0
  146.0199  128.8467  151.2452 H   0  0  0  0  0  0  0  0  0  0  0  0
  144.7369  129.2714  152.3766 H   0  0  0  0  0  0  0  0  0  0  0  0
  147.9387  130.8978  153.6980 H   0  0  0  0  0  0  0  0  0  0  0  0
  148.0806  134.4984  152.3330 H   0  0  0  0  0  0  0  0  0  0  0  0
  148.9551  135.7684  153.5658 H   0  0  0  0  0  0  0  0  0  0  0  0
  149.5635  134.9117  156.3635 H   0  0  0  0  0  0  0  0  0  0  0  0
  150.7606  135.7374  155.3936 H   0  0  0  0  0  0  0  0  0  0  0  0
  148.6075  137.4337  155.0303 H   0  0  0  0  0  0  0  0  0  0  0  0
  148.2901  136.8470  156.6549 H   0  0  0  0  0  0  0  0  0  0  0  0
  151.6841  137.6590  155.0680 H   0  0  0  0  0  0  0  0  0  0  0  0
  150.7889  139.2057  153.3808 H   0  0  0  0  0  0  0  0  0  0  0  0
  149.5695  138.0157  153.7223 H   0  0  0  0  0  0  0  0  0  0  0  0
  148.6006  140.3110  153.6287 H   0  0  0  0  0  0  0  0  0  0  0  0
  148.3721  139.6014  155.2052 H   0  0  0  0  0  0  0  0  0  0  0  0
  150.5084  141.6417  154.4319 H   0  0  0  0  0  0  0  0  0  0  0  0
  149.1326  141.9248  155.4719 H   0  0  0  0  0  0  0  0  0  0  0  0
  151.2318  141.5832  156.7819 H   0  0  0  0  0  0  0  0  0  0  0  0
  150.0248  140.3856  157.1748 H   0  0  0  0  0  0  0  0  0  0  0  0
  152.3589  140.0029  155.2511 H   0  0  0  0  0  0  0  0  0  0  0  0
  151.9433  138.7967  158.0228 H   0  0  0  0  0  0  0  0  0  0  0  0
  153.1165  140.0364  157.5923 H   0  0  0  0  0  0  0  0  0  0  0  0
  153.2662  138.4158  156.9233 H   0  0  0  0  0  0  0  0  0  0  0  0
  145.7932  134.8365  151.5474 H   0  0  0  0  0  0  0  0  0  0  0  0
  144.9170  133.8299  150.3806 H   0  0  0  0  0  0  0  0  0  0  0  0
  146.6241  134.2306  150.0984 H   0  0  0  0  0  0  0  0  0  0  0  0
  1  2  1  0  0  0  0
  1 22  1  0  0  0  0
  1 23  1  0  0  0  0
  1 24  1  0  0  0  0
  2 21  2  0  0  0  0
  2  3  1  0  0  0  0
  3  4  2  0  0  0  0
  3 25  1  0  0  0  0
  4  5  1  0  0  0  0
  4 19  1  0  0  0  0
  5  6  1  0  0  0  0
  5 26  1  0  0  0  0
  6  7  2  0  0  0  0
  6  8  1  0  0  0  0
  8  9  1  0  0  0  0
  8 27  1  0  0  0  0
  9 10  1  0  0  0  0
  9 28  1  0  0  0  0
  9 29  1  0  0  0  0
 10 11  1  0  0  0  0
 10 30  1  0  0  0  0
 10 31  1  0  0  0  0
 11 12  1  0  0  0  0
 12 17  1  0  0  0  0
 12 13  1  0  0  0  0
 12 32  1  0  0  0  0
 13 14  1  0  0  0  0
 13 33  1  0  0  0  0
 13 34  1  0  0  0  0
 14 15  1  0  0  0  0
 14 35  1  0  0  0  0
 14 36  1  0  0  0  0
 15 16  1  0  0  0  0
 15 37  1  0  0  0  0
 15 38  1  0  0  0  0
 16 17  1  0  0  0  0
 16 39  1  0  0  0  0
 16 40  1  0  0  0  0
 17 18  1  0  0  0  0
 17 41  1  0  0  0  0
 18 42  1  0  0  0  0
 18 43  1  0  0  0  0
 18 44  1  0  0  0  0
 19 20  1  0  0  0  0
 19 21  1  0  0  0  0
 20 45  1  0  0  0  0
 20 46  1  0  0  0  0
 20 47  1  0  0  0  0
M  END
> <s_m_source_file>
AV-unprocessed.smi

> <i_m_source_file_index>
1945

> <i_lp_mmshare_version>
43012

> <i_f3d_flags>
0

> <s_epik_input>
W0NIM11jMVtjSF1jKG4objEpW0NIM10pW05IXUMoPU8pW05IXVtDSDJdW0NIMl1PW0NAQEhdMltDSDJdW0NIMl1bQ0gyXVtDSDJdW0NASF0yW0NIM10=

> <s_epik_cmdline>
J2VwaWtfcHl0aG9uJywgJy1waCcsICc3LjAnLCAnLXRuJywgJzgnLCAnLW1hJywgJzIwMCcsICctbWV0YWxfYmluZGluZycsICctaW1hZScsICc8aW5maWxlLm1hZT4nLCAnLW9tYWUnLCAnPG91dGZpbGUubWFlPic=

> <r_lp_tautomer_probability>
1

> <r_epik_Ionization_Penalty>
9.47735e-05

> <r_epik_Ionization_Penalty_Charging>
0

> <r_epik_Ionization_Penalty_Neutral>
9.47735e-05

> <r_epik_State_Penalty>
-0

> <r_epik_Charging_Adjusted_Penalty>
0

> <i_epik_Tot_Q>
0

> <i_epik_Tot_abs_Q>
0

> <r_epik_Metal_State_Penalty>
-0

> <b_epik_Metal_Only>
0

> <s_lp_Force_Field>
OPLS_2005

> <r_lp_Energy>
11.3834

> <b_lp_Chiralities_Consistent>
1

> <s_lp_Variant>
AV-unprocessed.smi:1945-2

> <Gold.Version>
5.8.1

> <Gold.Id.Protein>
6NUR|6NUR_protein|mol2

> <Gold.PLP.Fitness>
39.5028

> <Gold.PLP.PLP>
-35.0386

> <Gold.PLP.part.hbond>
-2.0000

> <Gold.PLP.part.metal>
0.0000

> <Gold.PLP.part.buried>
-1.1671

> <Gold.PLP.part.nonpolar>
-31.0533

> <Gold.PLP.part.repulsive>
0.1555

> <Gold.PLP.ligand.clash>
0.0000

> <Gold.PLP.ligand.torsion>
0.7255

> <Gold.PLP.Chemscore.Hbond>
1.9600

> <Gold.PLP.Chemscore.CHOScore>
0.0000

> <Gold.PLP.Chemscore.Metal>
0.0000

> <Gold.Chemscore.Hbonds>
donor molecule, donor type, donor heavy atom, donor atom, acceptor molecule, acceptor atom, score
      L1  H     5    26       P1  7948  0.94
      L1  H     8    27       P1  7948  1.00

> <Gold.PLP.Chemscore.Internal.Correction>
0.0352

> <Gold.Rescore>
     Score         DG    S(hbond)    S(metal)    S(lipo)     H(rot)  DE(clash)    DE(int)     intcor
     13.82     -15.44       1.53        0.00      77.28       1.63       0.04       1.58       ----

> <Gold.Chemscore.Fitness>
13.8190

> <Gold.Chemscore.DG>
-15.4389

> <Gold.Chemscore.ZeroCoef>
-5.4800

> <Gold.Chemscore.Hbond>
1.5252

> <Gold.Chemscore.Metal>
0.0000

> <Gold.Chemscore.Lipo>
77.2793

> <Gold.Chemscore.Internal_Hbond>
0.0000

> <Gold.Chemscore.DEClash>
0.0431

> <Gold.Chemscore.DEInternal>
1.5767

> <Gold.Chemscore.Rot>
1.6316

> <Gold.Chemscore.Internal.Correction>
   9.000000E+99

> <Gold.Chemscore.Hbonds>
donor molecule, donor type, donor heavy atom, donor atom, acceptor molecule, acceptor atom, score
      L1  H     5    26       P1  7948  0.23
      L1  H     8    27       P1  7948  0.86

> <Gold.Chemscore.Hbond.Weighted>
-5.0940

> <Gold.Chemscore.Metal.Weighted>
-0.0000

> <Gold.Chemscore.Lipo.Weighted>
-9.0417

> <Gold.Chemscore.Internal_Hbond.Weighted>
0.0000

> <Gold.Chemscore.DEClash.Weighted>
0.0431

> <Gold.Chemscore.DEInternal.Weighted>
1.5767

> <Gold.Chemscore.Rot.Weighted>
4.1768

> <Gold.Chemscore.Internal.Correction.Weighted>
   9.000000E+99

> <Gold.Protein.RotatedTorsions>
[ 6907 6896 6895 6894 ] final   97.13 input  -60.11 | X-H torsion
[ 7974 7965 7964 7962 ] final -176.15 input  175.53 | X-H torsion
[ 8008 7997 7996 7995 ] final   41.63 input   59.86 | X-H torsion
[ 10167 10162 10161 10158 ] final -155.89 input  -65.29 | X-H torsion
[ 10718 10713 10712 10709 ] final   37.48 input   66.30 | X-H torsion
[ 10763 10752 10751 10750 ] final   25.96 input  -60.55 | X-H torsion
[ 11005 11000 10999 10996 ] final  -10.36 input  -57.11 | X-H torsion

> <Gold.Protein.ActiveResidues>
 VAL166  LYS551  ARG553  GLY616  TRP617  ASP618  TYR619  PRO620  LYS621  CYS622 
 ASP623  PHE694  ASN695  SER759  ASP760  ASP761  ALA762  ILE779  LEU786  VAL792 
 PHE793  MET794  SER795  GLU796  ALA797  LYS798  CYS799  TRP800  GLU811  SER814 

> <Gold.Protein.RotatedAtoms>
  152.5427  134.0780  159.8222 H   0  0  0  0  0  0  0  0  0  0  0  0  # atno 6907 bound_to 6896
  151.0886  133.5326  159.2623 H   0  0  0  0  0  0  0  0  0  0  0  0  # atno 6908 bound_to 6896
  151.2126  135.0496  159.8971 H   0  0  0  0  0  0  0  0  0  0  0  0  # atno 6909 bound_to 6896
  144.7127  140.1214  143.6405 H   0  0  0  0  0  0  0  0  0  0  0  0  # atno 7974 bound_to 7965
  155.2729  140.3367  155.4264 H   0  0  0  0  0  0  0  0  0  0  0  0  # atno 8008 bound_to 7997
  156.2125  140.1775  156.7705 H   0  0  0  0  0  0  0  0  0  0  0  0  # atno 8009 bound_to 7997
  154.5706  140.0671  156.8943 H   0  0  0  0  0  0  0  0  0  0  0  0  # atno 8010 bound_to 7997
  139.6894  143.9445  152.2377 H   0  0  0  0  0  0  0  0  0  0  0  0  # atno 10167 bound_to 10162
  157.3474  130.7580  149.6954 H   0  0  0  0  0  0  0  0  0  0  0  0  # atno 10718 bound_to 10713
  153.0655  135.6571  154.0364 H   0  0  0  0  0  0  0  0  0  0  0  0  # atno 10763 bound_to 10752
  154.0022  135.2936  155.3403 H   0  0  0  0  0  0  0  0  0  0  0  0  # atno 10764 bound_to 10752
  154.7011  135.5244  153.8597 H   0  0  0  0  0  0  0  0  0  0  0  0  # atno 10765 bound_to 10752
  140.7440  133.8647  155.8990 H   0  0  0  0  0  0  0  0  0  0  0  0  # atno 11005 bound_to 11000
  145.9368  139.2642  143.1292 LP  0  0  0  0  0  0  0  0  0  0  0  0  # atno 17320 bound_to 7965
  145.9466  140.8940  143.0280 LP  0  0  0  0  0  0  0  0  0  0  0  0  # atno 17321 bound_to 7965
  139.9257  144.6772  150.8414 LP  0  0  0  0  0  0  0  0  0  0  0  0  # atno 17342 bound_to 10162
  140.7678  143.3343  151.2342 LP  0  0  0  0  0  0  0  0  0  0  0  0  # atno 17343 bound_to 10162
  155.9716  130.4150  150.4162 LP  0  0  0  0  0  0  0  0  0  0  0  0  # atno 17370 bound_to 10713
  157.2219  131.0484  151.2542 LP  0  0  0  0  0  0  0  0  0  0  0  0  # atno 17371 bound_to 10713
  140.9811  134.1404  157.4493 LP  0  0  0  0  0  0  0  0  0  0  0  0  # atno 17394 bound_to 11000
  139.8800  135.0011  156.6047 LP  0  0  0  0  0  0  0  0  0  0  0  0  # atno 17395 bound_to 11000

$$$$
