AV-unprocessed.smi:72|AV-procd|sdf|686|dock9
  -GOLD-   2262017 03D 1   1.00000     0.00000
 Structure written by MMmdl.
 29 30  0  0  0  0  0  0  0  0  1 V2000
  153.8668  139.0633  158.3110 N   0  0  0  0  0  0  0  0  0  0  0  0
  152.6694  138.9497  157.8593 C   0  0  0  0  0  0  0  0  0  0  0  0
  151.6428  138.2040  158.4583 N   0  0  0  0  0  0  0  0  0  0  0  0
  150.4803  138.1750  157.8829 C   0  0  0  0  0  0  0  0  0  0  0  0
  150.2121  138.8831  156.6404 N   0  0  0  0  0  0  0  0  0  0  0  0
  148.8448  138.8232  155.9924 C   0  0  1  0  0  0  0  0  0  0  0  0
  148.3974  140.1271  155.7852 O   0  0  0  0  0  0  0  0  0  0  0  0
  147.6563  140.1766  154.5752 C   0  0  1  0  0  0  0  0  0  0  0  0
  147.6203  141.6170  154.0424 C   0  0  0  0  0  0  0  0  0  0  0  0
  148.9167  142.1751  154.0670 O   0  0  0  0  0  0  0  0  0  0  0  0
  148.4246  139.2081  153.6706 C   0  0  2  0  0  0  0  0  0  0  0  0
  147.5816  138.7035  152.6548 O   0  0  0  0  0  0  0  0  0  0  0  0
  148.8377  138.0964  154.6279 C   0  0  1  0  0  0  0  0  0  0  0  0
  150.0826  137.5395  154.2453 O   0  0  0  0  0  0  0  0  0  0  0  0
  151.2312  139.6570  156.0342 C   0  0  0  0  0  0  0  0  0  0  0  0
  151.0483  140.3038  155.0033 O   0  0  0  0  0  0  0  0  0  0  0  0
  152.4223  139.6493  156.6707 N   0  0  0  0  0  0  0  0  0  0  0  0
  148.1729  138.3559  156.7137 H   0  0  0  0  0  0  0  0  0  0  0  0
  146.6495  139.7947  154.7583 H   0  0  0  0  0  0  0  0  0  0  0  0
  149.2987  139.7015  153.2419 H   0  0  0  0  0  0  0  0  0  0  0  0
  148.0815  137.3114  154.6753 H   0  0  0  0  0  0  0  0  0  0  0  0
  153.9660  138.5335  159.1651 H   0  0  0  0  0  0  0  0  0  0  0  0
  149.6306  137.6262  158.2920 H   0  0  0  0  0  0  0  0  0  0  0  0
  147.2062  141.6580  153.0345 H   0  0  0  0  0  0  0  0  0  0  0  0
  146.9868  142.2359  154.6784 H   0  0  0  0  0  0  0  0  0  0  0  0
  148.8824  142.9953  154.5352 H   0  0  0  0  0  0  0  0  0  0  0  0
  148.0026  137.9526  152.2649 H   0  0  0  0  0  0  0  0  0  0  0  0
  149.9689  137.0942  153.4195 H   0  0  0  0  0  0  0  0  0  0  0  0
  153.1739  140.1871  156.2648 H   0  0  0  0  0  0  0  0  0  0  0  0
  1  2  2  0  0  0  0
  1 22  1  0  0  0  0
  2 17  1  0  0  0  0
  2  3  1  0  0  0  0
  3  4  2  0  0  0  0
  4  5  1  0  0  0  0
  4 23  1  0  0  0  0
  5  6  1  0  0  0  0
  5 15  1  0  0  0  0
  6 18  1  0  0  0  0
  6 13  1  0  0  0  0
  6  7  1  0  0  0  0
  7  8  1  0  0  0  0
  8 19  1  0  0  0  0
  8  9  1  0  0  0  0
  8 11  1  0  0  0  0
  9 10  1  0  0  0  0
  9 24  1  0  0  0  0
  9 25  1  0  0  0  0
 10 26  1  0  0  0  0
 11 20  1  0  0  0  0
 11 12  1  0  0  0  0
 11 13  1  0  0  0  0
 12 27  1  0  0  0  0
 13 21  1  0  0  0  0
 13 14  1  0  0  0  0
 14 28  1  0  0  0  0
 15 16  2  0  0  0  0
 15 17  1  0  0  0  0
 17 29  1  0  0  0  0
M  END
> <s_m_source_file>
AV-unprocessed.smi

> <i_m_source_file_index>
72

> <i_lp_mmshare_version>
43012

> <i_f3d_flags>
0

> <s_epik_input>
W05IMl1jMW5bY0hdbihjKD1PKW4xKVtDQEBIXTJPW0NASF0oW0NIMl1bT0hdKVtDQEBIXShbT0hdKVtDQEhdMltPSF0=

> <s_epik_cmdline>
J2VwaWtfcHl0aG9uJywgJy1waCcsICc3LjAnLCAnLXRuJywgJzgnLCAnLW1hJywgJzIwMCcsICctbWV0YWxfYmluZGluZycsICctaW1hZScsICc8aW5maWxlLm1hZT4nLCAnLW9tYWUnLCAnPG91dGZpbGUubWFlPic=

> <r_lp_tautomer_probability>
7.17554e-07

> <r_epik_Ionization_Penalty>
0.0066451

> <r_epik_Ionization_Penalty_Charging>
0.00663793

> <r_epik_Ionization_Penalty_Neutral>
7.17052e-06

> <r_epik_State_Penalty>
0.419231

> <r_epik_Charging_Adjusted_Penalty>
0.425868

> <i_epik_Tot_Q>
0

> <i_epik_Tot_abs_Q>
0

> <r_epik_Metal_State_Penalty>
1.44144

> <b_epik_Metal_Only>
0

> <s_epik_Chemistry_Notes>
This compound contains an acetal/aminal-like group ( X-CH(R)-Y where X, Y are N, S, or O) that may be acid/base labile, releasing an aldehyde.

> <s_lp_Force_Field>
OPLS_2005

> <r_lp_Energy>
42.1084

> <b_lp_Chiralities_Consistent>
1

> <s_lp_Variant>
AV-unprocessed.smi:72-24

> <Gold.Version>
5.8.1

> <Gold.Id.Protein>
6NUR|6NUR_protein|mol2

> <Gold.PLP.Fitness>
35.3248

> <Gold.PLP.PLP>
-19.5596

> <Gold.PLP.part.hbond>
-7.0179

> <Gold.PLP.part.metal>
0.0000

> <Gold.PLP.part.buried>
-2.7236

> <Gold.PLP.part.nonpolar>
-10.5861

> <Gold.PLP.part.repulsive>
1.2041

> <Gold.PLP.ligand.clash>
0.0000

> <Gold.PLP.ligand.torsion>
0.1357

> <Gold.PLP.Chemscore.Hbond>
5.3040

> <Gold.PLP.Chemscore.CHOScore>
0.0000

> <Gold.PLP.Chemscore.Metal>
0.0000

> <Gold.Chemscore.Hbonds>
donor molecule, donor type, donor heavy atom, donor atom, acceptor molecule, acceptor atom, score
      L1  H    10    26       P1  8028  0.99
      L1  H    12    27       P1  7948  1.00
      L1  H    14    28       P1  7948  1.00
      P1  H  7989  7998       L1    16  1.00
      P1  H  7997  8010       L1     1  1.00
      P1  H  8011  8017       L1    10  0.32

> <Gold.PLP.Chemscore.Internal.Correction>
0.1245

> <Gold.Rescore>
     Score         DG    S(hbond)    S(metal)    S(lipo)     H(rot)  DE(clash)    DE(int)     intcor
      7.60     -12.29       4.40        0.00      21.45       4.06       1.51       3.18       ----

> <Gold.Chemscore.Fitness>
7.5990

> <Gold.Chemscore.DG>
-12.2900

> <Gold.Chemscore.ZeroCoef>
-5.4800

> <Gold.Chemscore.Hbond>
4.3993

> <Gold.Chemscore.Metal>
0.0000

> <Gold.Chemscore.Lipo>
21.4520

> <Gold.Chemscore.Internal_Hbond>
0.0000

> <Gold.Chemscore.DEClash>
1.5149

> <Gold.Chemscore.DEInternal>
3.1761

> <Gold.Chemscore.Rot>
4.0600

> <Gold.Chemscore.Internal.Correction>
   9.000000E+99

> <Gold.Chemscore.Hbonds>
donor molecule, donor type, donor heavy atom, donor atom, acceptor molecule, acceptor atom, score
      L1  H    10    26       P1  8028  0.92
      L1  H    12    27       P1  7948  0.97
      L1  H    14    28       P1  7948  0.28
      P1  H  7989  7998       L1    16  0.99
      P1  H  7997  8010       L1     1  0.89
      P1  H  8011  8017       L1    10  0.21

> <Gold.Chemscore.Hbond.Weighted>
-14.6937

> <Gold.Chemscore.Metal.Weighted>
-0.0000

> <Gold.Chemscore.Lipo.Weighted>
-2.5099

> <Gold.Chemscore.Internal_Hbond.Weighted>
0.0000

> <Gold.Chemscore.DEClash.Weighted>
1.5149

> <Gold.Chemscore.DEInternal.Weighted>
3.1761

> <Gold.Chemscore.Rot.Weighted>
10.3936

> <Gold.Chemscore.Internal.Correction.Weighted>
   9.000000E+99

> <Gold.Protein.RotatedTorsions>
[ 6907 6896 6895 6894 ] final -153.75 input  -60.11 | X-H torsion
[ 7974 7965 7964 7962 ] final  -13.71 input  175.53 | X-H torsion
[ 8008 7997 7996 7995 ] final    6.13 input   59.86 | X-H torsion
[ 10167 10162 10161 10158 ] final -111.96 input  -65.29 | X-H torsion
[ 10718 10713 10712 10709 ] final  164.63 input   66.30 | X-H torsion
[ 10763 10752 10751 10750 ] final   -9.22 input  -60.55 | X-H torsion
[ 11005 11000 10999 10996 ] final   12.59 input  -57.11 | X-H torsion

> <Gold.Protein.ActiveResidues>
 VAL166  LYS551  ARG553  GLY616  TRP617  ASP618  TYR619  PRO620  LYS621  CYS622 
 ASP623  PHE694  ASN695  SER759  ASP760  ASP761  ALA762  ILE779  LEU786  VAL792 
 PHE793  MET794  SER795  GLU796  ALA797  LYS798  CYS799  TRP800  GLU811  SER814 

> <Gold.Protein.RotatedAtoms>
  151.2472  133.4369  159.2609 H   0  0  0  0  0  0  0  0  0  0  0  0  # atno 6907 bound_to 6896
  151.0651  134.9762  159.8290 H   0  0  0  0  0  0  0  0  0  0  0  0  # atno 6908 bound_to 6896
  152.5404  134.2420  159.8918 H   0  0  0  0  0  0  0  0  0  0  0  0  # atno 6909 bound_to 6896
  146.2103  140.3243  142.8393 H   0  0  0  0  0  0  0  0  0  0  0  0  # atno 7974 bound_to 7965
  154.7371  140.2742  155.6405 H   0  0  0  0  0  0  0  0  0  0  0  0  # atno 8008 bound_to 7997
  156.2864  140.2704  156.2014 H   0  0  0  0  0  0  0  0  0  0  0  0  # atno 8009 bound_to 7997
  155.0306  140.0371  157.2462 H   0  0  0  0  0  0  0  0  0  0  0  0  # atno 8010 bound_to 7997
  140.1280  143.4386  152.1647 H   0  0  0  0  0  0  0  0  0  0  0  0  # atno 10167 bound_to 10162
  157.0916  131.0419  151.2534 H   0  0  0  0  0  0  0  0  0  0  0  0  # atno 10718 bound_to 10713
  153.4517  135.7015  153.6105 H   0  0  0  0  0  0  0  0  0  0  0  0  # atno 10763 bound_to 10752
  153.4437  135.3774  155.2243 H   0  0  0  0  0  0  0  0  0  0  0  0  # atno 10764 bound_to 10752
  154.8728  135.3980  154.3930 H   0  0  0  0  0  0  0  0  0  0  0  0  # atno 10765 bound_to 10752
  140.4902  134.0848  155.7770 H   0  0  0  0  0  0  0  0  0  0  0  0  # atno 11005 bound_to 11000
  144.8898  140.7508  143.5934 LP  0  0  0  0  0  0  0  0  0  0  0  0  # atno 17320 bound_to 7965
  145.3165  139.1802  143.4611 LP  0  0  0  0  0  0  0  0  0  0  0  0  # atno 17321 bound_to 7965
  139.5534  144.7355  151.4366 LP  0  0  0  0  0  0  0  0  0  0  0  0  # atno 17342 bound_to 10162
  140.6834  143.8030  150.7152 LP  0  0  0  0  0  0  0  0  0  0  0  0  # atno 17343 bound_to 10162
  157.4716  130.7712  149.7329 LP  0  0  0  0  0  0  0  0  0  0  0  0  # atno 17370 bound_to 10713
  155.9896  130.3950  150.3064 LP  0  0  0  0  0  0  0  0  0  0  0  0  # atno 17371 bound_to 10713
  141.1488  133.9007  157.2150 LP  0  0  0  0  0  0  0  0  0  0  0  0  # atno 17394 bound_to 11000
  139.9773  135.0109  156.9664 LP  0  0  0  0  0  0  0  0  0  0  0  0  # atno 17395 bound_to 11000

$$$$
