AV-unprocessed.smi:21|AV-procd|sdf|122|dock4
  -GOLD-   2262015293D 1   1.00000     0.00000
 Structure written by MMmdl.
 62 65  0  0  0  0  0  0  0  0  2 V2000
  144.8969  132.0649  149.5827 C   0  0  0  0  0  0  0  0  0  0  0  0
  144.6649  133.2802  150.2761 O   0  0  0  0  0  0  0  0  0  0  0  0
  145.7692  133.7063  151.0602 C   0  0  2  0  0  0  0  0  0  0  0  0
  146.1238  132.6480  152.0996 C   0  0  0  0  0  0  0  0  0  0  0  0
  146.7944  133.4244  153.2488 C   0  0  1  0  0  0  0  0  0  0  0  0
  148.3322  133.2739  153.2854 C   0  0  0  0  0  0  0  0  0  0  0  0
  148.8255  132.5614  154.4651 N   0  0  0  0  0  0  0  0  0  0  0  0
  148.2045  131.2900  154.8308 C   0  0  0  0  0  0  0  0  0  0  0  0
  149.5766  133.2184  155.3949 C   0  0  0  0  0  0  0  0  0  0  0  0
  150.4449  132.4980  156.1551 N   0  0  0  0  0  0  0  0  0  0  0  0
  151.1743  133.0865  157.1066 C   0  0  0  0  0  0  0  0  0  0  0  0
  151.1930  134.3695  157.4670 N   0  0  0  0  0  0  0  0  0  0  0  0
  150.3390  135.1068  156.7029 C   0  0  0  0  0  0  0  0  0  0  0  0
  149.5079  134.6224  155.6513 C   0  0  0  0  0  0  0  0  0  0  0  0
  148.7955  135.6843  155.1016 N   0  0  0  0  0  0  0  0  0  0  0  0
  149.1712  136.7249  155.7923 C   0  0  0  0  0  0  0  0  0  0  0  0
  150.0847  136.4636  156.7858 N   0  0  0  0  0  0  0  0  0  0  0  0
  150.6595  137.4174  157.7162 C   0  0  0  0  0  0  0  0  0  0  0  0
  150.8184  138.8448  157.1272 C   0  0  2  0  0  0  0  0  0  0  0  0
  151.8046  138.8830  155.9308 C   0  0  0  0  0  0  0  0  0  0  0  0
  151.3105  139.6497  154.8509 O   0  0  0  0  0  0  0  0  0  0  0  0
  151.2494  139.8422  158.2350 C   0  0  2  0  0  0  0  0  0  0  0  0
  151.4334  141.2776  157.7686 C   0  0  0  0  0  0  0  0  0  0  0  0
  152.2780  141.8771  158.8859 C   0  0  0  0  0  0  0  0  0  0  0  0
  153.1182  140.8207  159.3320 O   0  0  0  0  0  0  0  0  0  0  0  0
  152.6328  139.5736  158.8440 C   0  0  0  0  0  0  0  0  0  0  0  0
  146.4321  134.8488  153.0435 N   0  3  2  0  0  0  0  0  0  0  0  0
  145.9972  135.5561  154.2673 C   0  0  0  0  0  0  0  0  0  0  0  0
  145.4627  134.9221  151.9323 C   0  0  0  0  0  0  0  0  0  0  0  0
  146.6433  133.8981  150.4347 H   0  0  0  0  0  0  0  0  0  0  0  0
  146.3644  133.0797  154.1904 H   0  0  0  0  0  0  0  0  0  0  0  0
  144.0003  131.7854  149.0294 H   0  0  0  0  0  0  0  0  0  0  0  0
  145.1305  131.2542  150.2738 H   0  0  0  0  0  0  0  0  0  0  0  0
  145.7133  132.1611  148.8664 H   0  0  0  0  0  0  0  0  0  0  0  0
  145.2093  132.1836  152.4719 H   0  0  0  0  0  0  0  0  0  0  0  0
  146.7390  131.8523  151.6817 H   0  0  0  0  0  0  0  0  0  0  0  0
  148.6587  132.7479  152.3876 H   0  0  0  0  0  0  0  0  0  0  0  0
  148.8163  134.2472  153.2252 H   0  0  0  0  0  0  0  0  0  0  0  0
  148.9530  130.5945  155.2122 H   0  0  0  0  0  0  0  0  0  0  0  0
  147.7288  130.8206  153.9695 H   0  0  0  0  0  0  0  0  0  0  0  0
  147.4440  131.4328  155.5991 H   0  0  0  0  0  0  0  0  0  0  0  0
  151.8323  132.4348  157.6623 H   0  0  0  0  0  0  0  0  0  0  0  0
  148.7798  137.7141  155.6049 H   0  0  0  0  0  0  0  0  0  0  0  0
  150.0155  137.4300  158.5953 H   0  0  0  0  0  0  0  0  0  0  0  0
  151.6265  137.0381  158.0490 H   0  0  0  0  0  0  0  0  0  0  0  0
  149.8420  139.1723  156.7657 H   0  0  0  0  0  0  0  0  0  0  0  0
  152.7515  139.3397  156.2146 H   0  0  0  0  0  0  0  0  0  0  0  0
  152.0364  137.8742  155.5877 H   0  0  0  0  0  0  0  0  0  0  0  0
  150.3664  139.6066  154.8623 H   0  0  0  0  0  0  0  0  0  0  0  0
  150.5096  139.8348  159.0374 H   0  0  0  0  0  0  0  0  0  0  0  0
  151.9841  141.3057  156.8269 H   0  0  0  0  0  0  0  0  0  0  0  0
  150.4938  141.8137  157.6321 H   0  0  0  0  0  0  0  0  0  0  0  0
  152.8586  142.7390  158.5565 H   0  0  0  0  0  0  0  0  0  0  0  0
  151.6434  142.1915  159.7154 H   0  0  0  0  0  0  0  0  0  0  0  0
  152.5989  138.8370  159.6470 H   0  0  0  0  0  0  0  0  0  0  0  0
  153.3280  139.2123  158.0850 H   0  0  0  0  0  0  0  0  0  0  0  0
  145.0982  135.1028  154.6870 H   0  0  0  0  0  0  0  0  0  0  0  0
  145.7834  136.6022  154.0466 H   0  0  0  0  0  0  0  0  0  0  0  0
  146.7809  135.5262  155.0244 H   0  0  0  0  0  0  0  0  0  0  0  0
  145.5455  135.8647  151.3905 H   0  0  0  0  0  0  0  0  0  0  0  0
  144.4474  134.8448  152.3254 H   0  0  0  0  0  0  0  0  0  0  0  0
  147.2717  135.3046  152.7151 H   0  0  0  0  0  0  0  0  0  0  0  0
  1  2  1  0  0  0  0
  1 32  1  0  0  0  0
  1 33  1  0  0  0  0
  1 34  1  0  0  0  0
  2  3  1  0  0  0  0
  3 30  1  0  0  0  0
  3 29  1  0  0  0  0
  3  4  1  0  0  0  0
  4  5  1  0  0  0  0
  4 35  1  0  0  0  0
  4 36  1  0  0  0  0
  5 31  1  0  0  0  0
  5  6  1  0  0  0  0
  5 27  1  0  0  0  0
  6  7  1  0  0  0  0
  6 37  1  0  0  0  0
  6 38  1  0  0  0  0
  7  8  1  0  0  0  0
  7  9  1  0  0  0  0
  8 39  1  0  0  0  0
  8 40  1  0  0  0  0
  8 41  1  0  0  0  0
  9 14  1  0  0  0  0
  9 10  2  0  0  0  0
 10 11  1  0  0  0  0
 11 12  2  0  0  0  0
 11 42  1  0  0  0  0
 12 13  1  0  0  0  0
 13 17  1  0  0  0  0
 13 14  2  0  0  0  0
 14 15  1  0  0  0  0
 15 16  2  0  0  0  0
 16 17  1  0  0  0  0
 16 43  1  0  0  0  0
 17 18  1  0  0  0  0
 18 19  1  0  0  0  0
 18 44  1  0  0  0  0
 18 45  1  0  0  0  0
 19 20  1  0  0  0  0
 19 22  1  0  0  0  0
 19 46  1  0  0  0  0
 20 21  1  0  0  0  0
 20 47  1  0  0  0  0
 20 48  1  0  0  0  0
 21 49  1  0  0  0  0
 22 26  1  0  0  0  0
 22 23  1  0  0  0  0
 22 50  1  0  0  0  0
 23 24  1  0  0  0  0
 23 51  1  0  0  0  0
 23 52  1  0  0  0  0
 24 25  1  0  0  0  0
 24 53  1  0  0  0  0
 24 54  1  0  0  0  0
 25 26  1  0  0  0  0
 26 55  1  0  0  0  0
 26 56  1  0  0  0  0
 27 28  1  0  0  0  0
 27 29  1  0  0  0  0
 27 62  1  0  0  0  0
 28 57  1  0  0  0  0
 28 58  1  0  0  0  0
 28 59  1  0  0  0  0
 29 60  1  0  0  0  0
 29 61  1  0  0  0  0
M  CHG  1  27   1
M  END
> <s_m_source_file>
AV-unprocessed.smi

> <i_m_source_file_index>
21

> <i_lp_mmshare_version>
43012

> <i_f3d_flags>
0

> <s_epik_input>
W0NIM11PW0NASF0xW0NIMl1bQ0BIXShOKFtDSDNdKVtDSDJdMSlbQ0gyXU4oW0NIM10pYyhuW2NIXW4yKWMoYzIzKW5bY0hdbjNbQ0gyXVtDQEhdKFtDSDJdW09IXSlbQ0BASF00W0NIMl1bQ0gyXU9bQ0gyXTQ=

> <s_epik_cmdline>
J2VwaWtfcHl0aG9uJywgJy1waCcsICc3LjAnLCAnLXRuJywgJzgnLCAnLW1hJywgJzIwMCcsICctbWV0YWxfYmluZGluZycsICctaW1hZScsICc8aW5maWxlLm1hZT4nLCAnLW9tYWUnLCAnPG91dGZpbGUubWFlPic=

> <r_lp_tautomer_probability>
1

> <r_epik_Ionization_Penalty>
0.0157465

> <r_epik_Ionization_Penalty_Charging>
0.015354

> <r_epik_Ionization_Penalty_Neutral>
0.000392529

> <r_epik_State_Penalty>
0.0120612

> <r_epik_Charging_Adjusted_Penalty>
0.0274152

> <i_epik_Tot_Q>
1

> <i_epik_Tot_abs_Q>
1

> <r_epik_Metal_State_Penalty>
0.0121253

> <b_epik_Metal_Only>
0

> <s_lp_Force_Field>
OPLS_2005

> <r_lp_Energy>
59.339

> <b_lp_Chiralities_Consistent>
1

> <s_lp_Variant>
AV-unprocessed.smi:21-2

> <Gold.Version>
5.8.1

> <Gold.Id.Protein>
6NUR|6NUR_protein|mol2

> <Gold.PLP.Fitness>
48.4846

> <Gold.PLP.PLP>
-43.3506

> <Gold.PLP.part.hbond>
-3.0000

> <Gold.PLP.part.metal>
0.0000

> <Gold.PLP.part.buried>
-7.1293

> <Gold.PLP.part.nonpolar>
-33.5657

> <Gold.PLP.part.repulsive>
1.0835

> <Gold.PLP.ligand.clash>
0.0000

> <Gold.PLP.ligand.torsion>
2.3292

> <Gold.PLP.Chemscore.Hbond>
3.0077

> <Gold.PLP.Chemscore.CHOScore>
0.0000

> <Gold.PLP.Chemscore.Metal>
0.0000

> <Gold.Chemscore.Hbonds>
donor molecule, donor type, donor heavy atom, donor atom, acceptor molecule, acceptor atom, score
      L1  H    27    62       P1  7948  1.76
      P1  H  6896  6909       L1    12  0.14
      P1  H  7989  7998       L1    21  1.00

> <Gold.PLP.Chemscore.Internal.Correction>
0.7691

> <Gold.Rescore>
     Score         DG    S(hbond)    S(metal)    S(lipo)     H(rot)  DE(clash)    DE(int)     intcor
     11.37     -14.95       1.95        0.00      92.50       3.08       0.30       3.28       ----

> <Gold.Chemscore.Fitness>
11.3736

> <Gold.Chemscore.DG>
-14.9539

> <Gold.Chemscore.ZeroCoef>
-5.4800

> <Gold.Chemscore.Hbond>
1.9538

> <Gold.Chemscore.Metal>
0.0000

> <Gold.Chemscore.Lipo>
92.4994

> <Gold.Chemscore.Internal_Hbond>
0.0000

> <Gold.Chemscore.DEClash>
0.2972

> <Gold.Chemscore.DEInternal>
3.2831

> <Gold.Chemscore.Rot>
3.0758

> <Gold.Chemscore.Internal.Correction>
   9.000000E+99

> <Gold.Chemscore.Hbonds>
donor molecule, donor type, donor heavy atom, donor atom, acceptor molecule, acceptor atom, score
      L1  H    27    62       P1  7948  0.86
      P1  H  6896  6909       L1    12  0.01
      P1  H  7989  7998       L1    21  0.40

> <Gold.Chemscore.Hbond.Weighted>
-6.5257

> <Gold.Chemscore.Metal.Weighted>
-0.0000

> <Gold.Chemscore.Lipo.Weighted>
-10.8224

> <Gold.Chemscore.Internal_Hbond.Weighted>
0.0000

> <Gold.Chemscore.DEClash.Weighted>
0.2972

> <Gold.Chemscore.DEInternal.Weighted>
3.2831

> <Gold.Chemscore.Rot.Weighted>
7.8741

> <Gold.Chemscore.Internal.Correction.Weighted>
   9.000000E+99

> <Gold.Protein.RotatedTorsions>
[ 6907 6896 6895 6894 ] final    5.14 input  -60.11 | X-H torsion
[ 7974 7965 7964 7962 ] final   14.88 input  175.53 | X-H torsion
[ 8008 7997 7996 7995 ] final  -24.55 input   59.86 | X-H torsion
[ 10167 10162 10161 10158 ] final   23.50 input  -65.29 | X-H torsion
[ 10718 10713 10712 10709 ] final   44.19 input   66.30 | X-H torsion
[ 10763 10752 10751 10750 ] final -166.06 input  -60.55 | X-H torsion
[ 11005 11000 10999 10996 ] final   87.80 input  -57.11 | X-H torsion

> <Gold.Protein.ActiveResidues>
 VAL166  LYS551  ARG553  GLY616  TRP617  ASP618  TYR619  PRO620  LYS621  CYS622 
 ASP623  PHE694  ASN695  SER759  ASP760  ASP761  ALA762  ILE779  LEU786  VAL792 
 PHE793  MET794  SER795  GLU796  ALA797  LYS798  CYS799  TRP800  GLU811  SER814 

> <Gold.Protein.RotatedAtoms>
  151.6527  135.0999  160.0163 H   0  0  0  0  0  0  0  0  0  0  0  0  # atno 6907 bound_to 6896
  152.3991  133.6787  159.6310 H   0  0  0  0  0  0  0  0  0  0  0  0  # atno 6908 bound_to 6896
  150.7894  133.8738  159.3307 H   0  0  0  0  0  0  0  0  0  0  0  0  # atno 6909 bound_to 6896
  146.2293  139.8976  142.8544 H   0  0  0  0  0  0  0  0  0  0  0  0  # atno 7974 bound_to 7965
  154.4523  140.1950  156.0482 H   0  0  0  0  0  0  0  0  0  0  0  0  # atno 8008 bound_to 7997
  156.0674  140.3289  155.7506 H   0  0  0  0  0  0  0  0  0  0  0  0  # atno 8009 bound_to 7997
  155.5317  140.0578  157.2878 H   0  0  0  0  0  0  0  0  0  0  0  0  # atno 8010 bound_to 7997
  140.5264  143.9916  150.6443 H   0  0  0  0  0  0  0  0  0  0  0  0  # atno 10167 bound_to 10162
  157.4241  130.7986  149.7542 H   0  0  0  0  0  0  0  0  0  0  0  0  # atno 10718 bound_to 10713
  154.6870  135.2964  154.9533 H   0  0  0  0  0  0  0  0  0  0  0  0  # atno 10763 bound_to 10752
  154.0509  135.6644  153.4804 H   0  0  0  0  0  0  0  0  0  0  0  0  # atno 10764 bound_to 10752
  153.0586  135.5129  154.7943 H   0  0  0  0  0  0  0  0  0  0  0  0  # atno 10765 bound_to 10752
  139.8911  134.8446  156.2911 H   0  0  0  0  0  0  0  0  0  0  0  0  # atno 11005 bound_to 11000
  145.2355  140.9989  143.3966 LP  0  0  0  0  0  0  0  0  0  0  0  0  # atno 17320 bound_to 7965
  144.9495  139.4099  143.6409 LP  0  0  0  0  0  0  0  0  0  0  0  0  # atno 17321 bound_to 7965
  140.3279  143.3096  152.0718 LP  0  0  0  0  0  0  0  0  0  0  0  0  # atno 17342 bound_to 10162
  139.4940  144.6529  151.6635 LP  0  0  0  0  0  0  0  0  0  0  0  0  # atno 17343 bound_to 10162
  155.9890  130.3954  150.3091 LP  0  0  0  0  0  0  0  0  0  0  0  0  # atno 17370 bound_to 10713
  157.1241  131.0254  151.2997 LP  0  0  0  0  0  0  0  0  0  0  0  0  # atno 17371 bound_to 10713
  140.9976  133.7171  156.0910 LP  0  0  0  0  0  0  0  0  0  0  0  0  # atno 17394 bound_to 11000
  140.7542  134.4011  157.5536 LP  0  0  0  0  0  0  0  0  0  0  0  0  # atno 17395 bound_to 11000

$$$$
