AV-unprocessed.smi:3056|AV-procd|sdf|11657|dock8
  -GOLD-   2272017 63D 1   1.00000     0.00000
 Structure written by MMmdl.
 47 48  0  0  0  0  0  0  0  0  1 V2000
  142.7023  134.6553  162.9500 C   0  0  0  0  0  0  0  0  0  0  0  0
  144.1763  134.5980  162.6702 C   0  0  0  0  0  0  0  0  0  0  0  0
  145.0095  133.4458  162.6025 C   0  0  0  0  0  0  0  0  0  0  0  0
  146.2708  133.7388  162.3335 N   0  0  0  0  0  0  0  0  0  0  0  0
  146.2916  135.0864  162.2240 N   0  0  0  0  0  0  0  0  0  0  0  0
  147.5369  135.7822  161.9230 C   0  0  2  0  0  0  0  0  0  0  0  0
  147.7925  136.8778  162.9770 C   0  0  0  0  0  0  0  0  0  0  0  0
  147.5681  136.3318  160.4704 C   0  0  2  0  0  0  0  0  0  0  0  0
  147.1648  135.2804  159.4135 C   0  0  0  0  0  0  0  0  0  0  0  0
  148.9256  136.7914  160.1888 N   0  0  0  0  0  0  0  0  0  0  0  0
  149.1340  137.0996  158.7674 C   0  0  0  0  0  0  0  0  0  0  0  0
  150.5625  137.5880  158.5013 C   0  0  0  0  0  0  0  0  0  0  0  0
  151.4806  137.0196  159.0932 O   0  0  0  0  0  0  0  0  0  0  0  0
  150.7773  138.6134  157.6410 N   0  0  0  0  0  0  0  0  0  0  0  0
  152.0790  139.1624  157.2499 C   0  0  0  0  0  0  0  0  0  0  0  0
  152.2822  138.8919  155.7494 C   0  0  0  0  0  0  0  0  0  0  0  0
  151.2149  139.4800  155.0089 O   0  0  0  0  0  0  0  0  0  0  0  0
  149.9270  138.9937  155.3853 C   0  0  2  0  0  0  0  0  0  0  0  0
  148.8777  139.6860  154.5085 C   0  0  0  0  0  0  0  0  0  0  0  0
  149.7026  139.2645  156.8870 C   0  0  0  0  0  0  0  0  0  0  0  0
  145.0385  135.6281  162.4223 C   0  0  0  0  0  0  0  0  0  0  0  0
  142.2227  133.6888  162.7941 H   0  0  0  0  0  0  0  0  0  0  0  0
  142.1961  135.3719  162.3028 H   0  0  0  0  0  0  0  0  0  0  0  0
  142.5009  134.9519  163.9793 H   0  0  0  0  0  0  0  0  0  0  0  0
  144.7354  132.4100  162.7386 H   0  0  0  0  0  0  0  0  0  0  0  0
  148.3326  135.0411  162.0202 H   0  0  0  0  0  0  0  0  0  0  0  0
  148.7750  137.3332  162.8534 H   0  0  0  0  0  0  0  0  0  0  0  0
  147.7528  136.4653  163.9856 H   0  0  0  0  0  0  0  0  0  0  0  0
  147.0500  137.6743  162.9153 H   0  0  0  0  0  0  0  0  0  0  0  0
  146.8759  137.1741  160.4135 H   0  0  0  0  0  0  0  0  0  0  0  0
  146.1413  134.9356  159.5596 H   0  0  0  0  0  0  0  0  0  0  0  0
  147.8163  134.4070  159.4578 H   0  0  0  0  0  0  0  0  0  0  0  0
  147.2128  135.6765  158.3999 H   0  0  0  0  0  0  0  0  0  0  0  0
  149.1091  137.6074  160.7554 H   0  0  0  0  0  0  0  0  0  0  0  0
  148.9158  136.2402  158.1343 H   0  0  0  0  0  0  0  0  0  0  0  0
  148.4355  137.8820  158.4663 H   0  0  0  0  0  0  0  0  0  0  0  0
  152.0869  140.2365  157.4396 H   0  0  0  0  0  0  0  0  0  0  0  0
  152.9180  138.7592  157.8132 H   0  0  0  0  0  0  0  0  0  0  0  0
  153.2250  139.3222  155.4121 H   0  0  0  0  0  0  0  0  0  0  0  0
  152.3299  137.8202  155.5501 H   0  0  0  0  0  0  0  0  0  0  0  0
  149.8859  137.9195  155.1961 H   0  0  0  0  0  0  0  0  0  0  0  0
  147.8732  139.3366  154.7487 H   0  0  0  0  0  0  0  0  0  0  0  0
  149.0561  139.4820  153.4526 H   0  0  0  0  0  0  0  0  0  0  0  0
  148.8984  140.7672  154.6471 H   0  0  0  0  0  0  0  0  0  0  0  0
  148.7107  138.9191  157.1812 H   0  0  0  0  0  0  0  0  0  0  0  0
  149.7200  140.3369  157.0875 H   0  0  0  0  0  0  0  0  0  0  0  0
  144.8649  136.6932  162.3713 H   0  0  0  0  0  0  0  0  0  0  0  0
  1  2  1  0  0  0  0
  1 22  1  0  0  0  0
  1 23  1  0  0  0  0
  1 24  1  0  0  0  0
  2 21  2  0  0  0  0
  2  3  1  0  0  0  0
  3  4  2  0  0  0  0
  3 25  1  0  0  0  0
  4  5  1  0  0  0  0
  5  6  1  0  0  0  0
  5 21  1  0  0  0  0
  6  7  1  0  0  0  0
  6  8  1  0  0  0  0
  6 26  1  0  0  0  0
  7 27  1  0  0  0  0
  7 28  1  0  0  0  0
  7 29  1  0  0  0  0
  8  9  1  0  0  0  0
  8 10  1  0  0  0  0
  8 30  1  0  0  0  0
  9 31  1  0  0  0  0
  9 32  1  0  0  0  0
  9 33  1  0  0  0  0
 10 11  1  0  0  0  0
 10 34  1  0  0  0  0
 11 12  1  0  0  0  0
 11 35  1  0  0  0  0
 11 36  1  0  0  0  0
 12 13  2  0  0  0  0
 12 14  1  0  0  0  0
 14 20  1  0  0  0  0
 14 15  1  0  0  0  0
 15 16  1  0  0  0  0
 15 37  1  0  0  0  0
 15 38  1  0  0  0  0
 16 17  1  0  0  0  0
 16 39  1  0  0  0  0
 16 40  1  0  0  0  0
 17 18  1  0  0  0  0
 18 19  1  0  0  0  0
 18 20  1  0  0  0  0
 18 41  1  0  0  0  0
 19 42  1  0  0  0  0
 19 43  1  0  0  0  0
 19 44  1  0  0  0  0
 20 45  1  0  0  0  0
 20 46  1  0  0  0  0
 21 47  1  0  0  0  0
M  END
> <s_m_source_file>
AV-unprocessed.smi

> <i_m_source_file_index>
3056

> <i_lp_mmshare_version>
43012

> <i_f3d_flags>
0

> <s_epik_input>
W0NIM11jMVtjSF1ubihbY0hdMSlbQ0BIXShbQ0gzXSlbQ0BIXShbQ0gzXSlbTkhdW0NIMl1DKD1PKU4yW0NIMl1bQ0gyXU9bQ0BASF0oW0NIM10pW0NIMl0y

> <s_epik_cmdline>
J2VwaWtfcHl0aG9uJywgJy1waCcsICc3LjAnLCAnLXRuJywgJzgnLCAnLW1hJywgJzIwMCcsICctbWV0YWxfYmluZGluZycsICctaW1hZScsICc8aW5maWxlLm1hZT4nLCAnLW9tYWUnLCAnPG91dGZpbGUubWFlPic=

> <r_lp_tautomer_probability>
1

> <r_epik_Ionization_Penalty>
0.667689

> <r_epik_Ionization_Penalty_Charging>
0

> <r_epik_Ionization_Penalty_Neutral>
0.667689

> <r_epik_State_Penalty>
0.684601

> <r_epik_Charging_Adjusted_Penalty>
0.684601

> <i_epik_Tot_Q>
0

> <i_epik_Tot_abs_Q>
0

> <r_epik_Metal_State_Penalty>
0.681448

> <b_epik_Metal_Only>
0

> <s_lp_Force_Field>
OPLS_2005

> <r_lp_Energy>
28.8183

> <b_lp_Chiralities_Consistent>
1

> <s_lp_Variant>
AV-unprocessed.smi:3056-13

> <Gold.Version>
5.8.1

> <Gold.Id.Protein>
6NUR|6NUR_protein|mol2

> <Gold.PLP.Fitness>
43.7912

> <Gold.PLP.PLP>
-39.2157

> <Gold.PLP.part.hbond>
-2.9427

> <Gold.PLP.part.metal>
0.0000

> <Gold.PLP.part.buried>
-5.9869

> <Gold.PLP.part.nonpolar>
-30.2671

> <Gold.PLP.part.repulsive>
0.0468

> <Gold.PLP.ligand.clash>
0.0000

> <Gold.PLP.ligand.torsion>
0.6029

> <Gold.PLP.Chemscore.Hbond>
1.8850

> <Gold.PLP.Chemscore.CHOScore>
0.0000

> <Gold.PLP.Chemscore.Metal>
0.0000

> <Gold.Chemscore.Hbonds>
donor molecule, donor type, donor heavy atom, donor atom, acceptor molecule, acceptor atom, score
      P1  H  6896  6907       L1    13  0.98
      P1  H  7989  7998       L1    17  0.84

> <Gold.PLP.Chemscore.Internal.Correction>
0.1263

> <Gold.Rescore>
     Score         DG    S(hbond)    S(metal)    S(lipo)     H(rot)  DE(clash)    DE(int)     intcor
     16.49     -16.97       1.75        0.00      84.93       1.68       0.02       0.47       ----

> <Gold.Chemscore.Fitness>
16.4872

> <Gold.Chemscore.DG>
-16.9731

> <Gold.Chemscore.ZeroCoef>
-5.4800

> <Gold.Chemscore.Hbond>
1.7529

> <Gold.Chemscore.Metal>
0.0000

> <Gold.Chemscore.Lipo>
84.9346

> <Gold.Chemscore.Internal_Hbond>
0.0000

> <Gold.Chemscore.DEClash>
0.0174

> <Gold.Chemscore.DEInternal>
0.4685

> <Gold.Chemscore.Rot>
1.6793

> <Gold.Chemscore.Internal.Correction>
   9.000000E+99

> <Gold.Chemscore.Hbonds>
donor molecule, donor type, donor heavy atom, donor atom, acceptor molecule, acceptor atom, score
      P1  H  6896  6907       L1    13  0.89
      P1  H  7989  7998       L1    17  0.80

> <Gold.Chemscore.Hbond.Weighted>
-5.8548

> <Gold.Chemscore.Metal.Weighted>
-0.0000

> <Gold.Chemscore.Lipo.Weighted>
-9.9373

> <Gold.Chemscore.Internal_Hbond.Weighted>
0.0000

> <Gold.Chemscore.DEClash.Weighted>
0.0174

> <Gold.Chemscore.DEInternal.Weighted>
0.4685

> <Gold.Chemscore.Rot.Weighted>
4.2990

> <Gold.Chemscore.Internal.Correction.Weighted>
   9.000000E+99

> <Gold.Protein.RotatedTorsions>
[ 6907 6896 6895 6894 ] final   -2.71 input  -60.11 | X-H torsion
[ 7974 7965 7964 7962 ] final  -32.69 input  175.53 | X-H torsion
[ 8008 7997 7996 7995 ] final -156.81 input   59.86 | X-H torsion
[ 10167 10162 10161 10158 ] final    3.41 input  -65.29 | X-H torsion
[ 10718 10713 10712 10709 ] final   66.63 input   66.30 | X-H torsion
[ 10763 10752 10751 10750 ] final   42.45 input  -60.55 | X-H torsion
[ 11005 11000 10999 10996 ] final -137.17 input  -57.11 | X-H torsion

> <Gold.Protein.ActiveResidues>
 VAL166  LYS551  ARG553  GLY616  TRP617  ASP618  TYR619  PRO620  LYS621  CYS622 
 ASP623  PHE694  ASN695  SER759  ASP760  ASP761  ALA762  ILE779  LEU786  VAL792 
 PHE793  MET794  SER795  GLU796  ALA797  LYS798  CYS799  TRP800  GLU811  SER814 

> <Gold.Protein.RotatedAtoms>
  151.5255  135.1068  159.9889 H   0  0  0  0  0  0  0  0  0  0  0  0  # atno 6907 bound_to 6896
  152.4601  133.7801  159.6856 H   0  0  0  0  0  0  0  0  0  0  0  0  # atno 6908 bound_to 6896
  150.8560  133.7649  159.3033 H   0  0  0  0  0  0  0  0  0  0  0  0  # atno 6909 bound_to 6896
  146.0970  140.5824  142.8838 H   0  0  0  0  0  0  0  0  0  0  0  0  # atno 7974 bound_to 7965
  155.7229  140.0792  157.2323 H   0  0  0  0  0  0  0  0  0  0  0  0  # atno 8008 bound_to 7997
  154.4043  140.1609  156.2476 H   0  0  0  0  0  0  0  0  0  0  0  0  # atno 8009 bound_to 7997
  155.9180  140.3399  155.6153 H   0  0  0  0  0  0  0  0  0  0  0  0  # atno 8010 bound_to 7997
  140.6587  143.7361  150.7699 H   0  0  0  0  0  0  0  0  0  0  0  0  # atno 10167 bound_to 10162
  157.6181  130.9278  150.0134 H   0  0  0  0  0  0  0  0  0  0  0  0  # atno 10718 bound_to 10713
  152.9883  135.6131  154.2951 H   0  0  0  0  0  0  0  0  0  0  0  0  # atno 10763 bound_to 10752
  154.2674  135.2780  155.2754 H   0  0  0  0  0  0  0  0  0  0  0  0  # atno 10764 bound_to 10752
  154.5152  135.5830  153.6694 H   0  0  0  0  0  0  0  0  0  0  0  0  # atno 10765 bound_to 10752
  140.8736  134.2020  157.4635 H   0  0  0  0  0  0  0  0  0  0  0  0  # atno 11005 bound_to 11000
  144.7403  140.4923  143.6874 LP  0  0  0  0  0  0  0  0  0  0  0  0  # atno 17320 bound_to 7965
  145.5929  139.1497  143.3172 LP  0  0  0  0  0  0  0  0  0  0  0  0  # atno 17321 bound_to 7965
  140.1025  143.4774  152.2417 LP  0  0  0  0  0  0  0  0  0  0  0  0  # atno 17342 bound_to 10162
  139.5815  144.7512  151.3627 LP  0  0  0  0  0  0  0  0  0  0  0  0  # atno 17343 bound_to 10162
  156.1312  130.3643  149.9729 LP  0  0  0  0  0  0  0  0  0  0  0  0  # atno 17370 bound_to 10713
  156.7789  130.9214  151.3645 LP  0  0  0  0  0  0  0  0  0  0  0  0  # atno 17371 bound_to 10713
  139.8714  134.9785  156.5002 LP  0  0  0  0  0  0  0  0  0  0  0  0  # atno 17394 bound_to 11000
  140.8544  133.8107  155.9201 LP  0  0  0  0  0  0  0  0  0  0  0  0  # atno 17395 bound_to 11000

$$$$
