AV-unprocessed.smi:2878|AV-procd|sdf|11046|dock8
  -GOLD-   2272015513D 1   1.00000     0.00000
 Structure written by MMmdl.
 42 43  0  0  0  0  0  0  0  0  1 V2000
  146.9219  129.9177  152.6463 C   0  0  0  0  0  0  0  0  0  0  0  0
  145.3323  129.9069  151.7749 S   0  0  0  0  0  0  0  0  0  0  0  0
  145.4238  131.4743  150.8504 C   0  0  1  0  0  0  0  0  0  0  0  0
  144.0302  131.8741  150.3273 C   0  0  0  0  0  0  0  0  0  0  0  0
  144.0847  133.1795  149.5185 C   0  0  0  0  0  0  0  0  0  0  0  0
  144.7018  134.3192  150.3426 C   0  0  0  0  0  0  0  0  0  0  0  0
  146.0951  133.9338  150.8683 C   0  0  0  0  0  0  0  0  0  0  0  0
  146.0730  132.6158  151.6717 C   0  0  1  0  0  0  0  0  0  0  0  0
  145.3851  132.8029  152.9495 N   0  0  0  0  0  0  0  0  0  0  0  0
  145.6614  133.7599  153.8455 C   0  0  0  0  0  0  0  0  0  0  0  0
  146.5305  134.6189  153.6948 O   0  0  0  0  0  0  0  0  0  0  0  0
  144.8759  133.6688  154.9273 N   0  0  0  0  0  0  0  0  0  0  0  0
  144.9424  134.5567  156.0822 C   0  0  0  0  0  0  0  0  0  0  0  0
  145.1606  133.7781  157.3897 C   0  0  0  0  0  0  0  0  0  0  0  0
  143.8752  133.3959  158.0430 C   0  0  0  0  0  0  0  0  0  0  0  0
  143.4564  132.1671  158.3358 N   0  0  0  0  0  0  0  0  0  0  0  0
  142.2759  132.4361  158.9585 C   0  0  0  0  0  0  0  0  0  0  0  0
  141.3813  131.3694  159.4910 C   0  0  0  0  0  0  0  0  0  0  0  0
  141.9624  133.7201  159.0799 N   0  0  0  0  0  0  0  0  0  0  0  0
  143.0435  134.3753  158.4729 O   0  0  0  0  0  0  0  0  0  0  0  0
  147.0520  128.9833  153.1922 H   0  0  0  0  0  0  0  0  0  0  0  0
  146.9676  130.7373  153.3626 H   0  0  0  0  0  0  0  0  0  0  0  0
  147.7452  130.0217  151.9397 H   0  0  0  0  0  0  0  0  0  0  0  0
  146.0545  131.2831  149.9810 H   0  0  0  0  0  0  0  0  0  0  0  0
  143.6256  131.0765  149.7033 H   0  0  0  0  0  0  0  0  0  0  0  0
  143.3375  131.9902  151.1619 H   0  0  0  0  0  0  0  0  0  0  0  0
  144.6726  133.0235  148.6133 H   0  0  0  0  0  0  0  0  0  0  0  0
  143.0822  133.4572  149.1918 H   0  0  0  0  0  0  0  0  0  0  0  0
  144.7721  135.2212  149.7338 H   0  0  0  0  0  0  0  0  0  0  0  0
  144.0460  134.5638  151.1791 H   0  0  0  0  0  0  0  0  0  0  0  0
  146.7747  133.8228  150.0225 H   0  0  0  0  0  0  0  0  0  0  0  0
  146.5015  134.7429  151.4765 H   0  0  0  0  0  0  0  0  0  0  0  0
  147.1085  132.3387  151.8724 H   0  0  0  0  0  0  0  0  0  0  0  0
  144.6536  132.1428  153.1694 H   0  0  0  0  0  0  0  0  0  0  0  0
  144.1911  132.9276  154.9590 H   0  0  0  0  0  0  0  0  0  0  0  0
  145.7652  135.2546  155.9247 H   0  0  0  0  0  0  0  0  0  0  0  0
  144.0327  135.1569  156.1419 H   0  0  0  0  0  0  0  0  0  0  0  0
  145.7337  132.8691  157.2027 H   0  0  0  0  0  0  0  0  0  0  0  0
  145.7437  134.3766  158.0907 H   0  0  0  0  0  0  0  0  0  0  0  0
  140.3363  131.6729  159.4192 H   0  0  0  0  0  0  0  0  0  0  0  0
  141.6147  131.1713  160.5373 H   0  0  0  0  0  0  0  0  0  0  0  0
  141.5090  130.4456  158.9258 H   0  0  0  0  0  0  0  0  0  0  0  0
  1  2  1  0  0  0  0
  1 21  1  0  0  0  0
  1 22  1  0  0  0  0
  1 23  1  0  0  0  0
  2  3  1  0  0  0  0
  3  8  1  0  0  0  0
  3  4  1  0  0  0  0
  3 24  1  0  0  0  0
  4  5  1  0  0  0  0
  4 25  1  0  0  0  0
  4 26  1  0  0  0  0
  5  6  1  0  0  0  0
  5 27  1  0  0  0  0
  5 28  1  0  0  0  0
  6  7  1  0  0  0  0
  6 29  1  0  0  0  0
  6 30  1  0  0  0  0
  7  8  1  0  0  0  0
  7 31  1  0  0  0  0
  7 32  1  0  0  0  0
  8  9  1  0  0  0  0
  8 33  1  0  0  0  0
  9 10  1  0  0  0  0
  9 34  1  0  0  0  0
 10 11  2  0  0  0  0
 10 12  1  0  0  0  0
 12 13  1  0  0  0  0
 12 35  1  0  0  0  0
 13 14  1  0  0  0  0
 13 36  1  0  0  0  0
 13 37  1  0  0  0  0
 14 15  1  0  0  0  0
 14 38  1  0  0  0  0
 14 39  1  0  0  0  0
 15 20  1  0  0  0  0
 15 16  2  0  0  0  0
 16 17  1  0  0  0  0
 17 18  1  0  0  0  0
 17 19  2  0  0  0  0
 18 40  1  0  0  0  0
 18 41  1  0  0  0  0
 18 42  1  0  0  0  0
 19 20  1  0  0  0  0
M  END
> <s_m_source_file>
AV-unprocessed.smi

> <i_m_source_file_index>
2878

> <i_lp_mmshare_version>
43012

> <i_f3d_flags>
0

> <s_epik_input>
W0NIM11TW0NAQEhdMVtDSDJdW0NIMl1bQ0gyXVtDSDJdW0NASF0xW05IXUMoPU8pW05IXVtDSDJdW0NIMl1jMm5jKFtDSDNdKW5vMg==

> <s_epik_cmdline>
J2VwaWtfcHl0aG9uJywgJy1waCcsICc3LjAnLCAnLXRuJywgJzgnLCAnLW1hJywgJzIwMCcsICctbWV0YWxfYmluZGluZycsICctaW1hZScsICc8aW5maWxlLm1hZT4nLCAnLW9tYWUnLCAnPG91dGZpbGUubWFlPic=

> <r_lp_tautomer_probability>
1

> <r_epik_Ionization_Penalty>
4.9299e-05

> <r_epik_Ionization_Penalty_Charging>
0

> <r_epik_Ionization_Penalty_Neutral>
4.9299e-05

> <r_epik_State_Penalty>
-0

> <r_epik_Charging_Adjusted_Penalty>
0

> <i_epik_Tot_Q>
0

> <i_epik_Tot_abs_Q>
0

> <r_epik_Metal_State_Penalty>
-0

> <b_epik_Metal_Only>
0

> <s_lp_Force_Field>
OPLS_2005

> <r_lp_Energy>
0.0435146

> <b_lp_Chiralities_Consistent>
1

> <s_lp_Variant>
AV-unprocessed.smi:2878-2

> <Gold.Version>
5.8.1

> <Gold.Id.Protein>
6NUR|6NUR_protein|mol2

> <Gold.PLP.Fitness>
34.4988

> <Gold.PLP.PLP>
-30.7714

> <Gold.PLP.part.hbond>
-2.2954

> <Gold.PLP.part.metal>
0.0000

> <Gold.PLP.part.buried>
-3.5222

> <Gold.PLP.part.nonpolar>
-23.9062

> <Gold.PLP.part.repulsive>
0.2303

> <Gold.PLP.ligand.clash>
0.0000

> <Gold.PLP.ligand.torsion>
0.4059

> <Gold.PLP.Chemscore.Hbond>
1.4960

> <Gold.PLP.Chemscore.CHOScore>
0.0000

> <Gold.PLP.Chemscore.Metal>
0.0000

> <Gold.Chemscore.Hbonds>
donor molecule, donor type, donor heavy atom, donor atom, acceptor molecule, acceptor atom, score
      L1  H    12    35       P1 10957  1.00
      P1  H 11000 11005       L1    19  0.45

> <Gold.PLP.Chemscore.Internal.Correction>
0.0512

> <Gold.Rescore>
     Score         DG    S(hbond)    S(metal)    S(lipo)     H(rot)  DE(clash)    DE(int)     intcor
     11.24     -12.41       1.02        0.00      75.98       2.09       0.03       1.13       ----

> <Gold.Chemscore.Fitness>
11.2414

> <Gold.Chemscore.DG>
-12.4086

> <Gold.Chemscore.ZeroCoef>
-5.4800

> <Gold.Chemscore.Hbond>
1.0165

> <Gold.Chemscore.Metal>
0.0000

> <Gold.Chemscore.Lipo>
75.9798

> <Gold.Chemscore.Internal_Hbond>
0.0000

> <Gold.Chemscore.DEClash>
0.0328

> <Gold.Chemscore.DEInternal>
1.1344

> <Gold.Chemscore.Rot>
2.0923

> <Gold.Chemscore.Internal.Correction>
   9.000000E+99

> <Gold.Chemscore.Hbonds>
donor molecule, donor type, donor heavy atom, donor atom, acceptor molecule, acceptor atom, score
      L1  H    12    35       P1 10957  1.00
      P1  H 11000 11005       L1    19  0.01

> <Gold.Chemscore.Hbond.Weighted>
-3.3952

> <Gold.Chemscore.Metal.Weighted>
-0.0000

> <Gold.Chemscore.Lipo.Weighted>
-8.8896

> <Gold.Chemscore.Internal_Hbond.Weighted>
0.0000

> <Gold.Chemscore.DEClash.Weighted>
0.0328

> <Gold.Chemscore.DEInternal.Weighted>
1.1344

> <Gold.Chemscore.Rot.Weighted>
5.3562

> <Gold.Chemscore.Internal.Correction.Weighted>
   9.000000E+99

> <Gold.Protein.RotatedTorsions>
[ 6907 6896 6895 6894 ] final   83.85 input  -60.11 | X-H torsion
[ 7974 7965 7964 7962 ] final  155.03 input  175.53 | X-H torsion
[ 8008 7997 7996 7995 ] final   63.67 input   59.86 | X-H torsion
[ 10167 10162 10161 10158 ] final  -19.05 input  -65.29 | X-H torsion
[ 10718 10713 10712 10709 ] final  131.15 input   66.30 | X-H torsion
[ 10763 10752 10751 10750 ] final -110.51 input  -60.55 | X-H torsion
[ 11005 11000 10999 10996 ] final -146.78 input  -57.11 | X-H torsion

> <Gold.Protein.ActiveResidues>
 VAL166  LYS551  ARG553  GLY616  TRP617  ASP618  TYR619  PRO620  LYS621  CYS622 
 ASP623  PHE694  ASN695  SER759  ASP760  ASP761  ALA762  ILE779  LEU786  VAL792 
 PHE793  MET794  SER795  GLU796  ALA797  LYS798  CYS799  TRP800  GLU811  SER814 

> <Gold.Protein.RotatedAtoms>
  152.5338  134.2831  159.9014 H   0  0  0  0  0  0  0  0  0  0  0  0  # atno 6907 bound_to 6896
  151.2785  133.4214  159.2633 H   0  0  0  0  0  0  0  0  0  0  0  0  # atno 6908 bound_to 6896
  151.0304  134.9550  159.8165 H   0  0  0  0  0  0  0  0  0  0  0  0  # atno 6909 bound_to 6896
  144.8051  139.7013  143.6165 H   0  0  0  0  0  0  0  0  0  0  0  0  # atno 7974 bound_to 7965
  155.6339  140.3496  155.4692 H   0  0  0  0  0  0  0  0  0  0  0  0  # atno 8008 bound_to 7997
  155.9981  140.1207  157.0598 H   0  0  0  0  0  0  0  0  0  0  0  0  # atno 8009 bound_to 7997
  154.4240  140.1106  156.5644 H   0  0  0  0  0  0  0  0  0  0  0  0  # atno 8010 bound_to 7997
  140.7265  143.4856  151.0059 H   0  0  0  0  0  0  0  0  0  0  0  0  # atno 10167 bound_to 10162
  157.4994  131.1093  150.9447 H   0  0  0  0  0  0  0  0  0  0  0  0  # atno 10718 bound_to 10713
  154.8252  135.4561  154.0896 H   0  0  0  0  0  0  0  0  0  0  0  0  # atno 10763 bound_to 10752
  153.2217  135.6895  153.7999 H   0  0  0  0  0  0  0  0  0  0  0  0  # atno 10764 bound_to 10752
  153.7414  135.3312  155.3281 H   0  0  0  0  0  0  0  0  0  0  0  0  # atno 10765 bound_to 10752
  140.7785  134.3107  157.5053 H   0  0  0  0  0  0  0  0  0  0  0  0  # atno 11005 bound_to 11000
  146.2340  139.5869  142.9536 LP  0  0  0  0  0  0  0  0  0  0  0  0  # atno 17320 bound_to 7965
  145.5459  141.0417  143.2305 LP  0  0  0  0  0  0  0  0  0  0  0  0  # atno 17321 bound_to 7965
  139.8558  143.7379  152.3176 LP  0  0  0  0  0  0  0  0  0  0  0  0  # atno 17342 bound_to 10162
  139.7577  144.7516  151.0410 LP  0  0  0  0  0  0  0  0  0  0  0  0  # atno 17343 bound_to 10162
  157.0123  130.5641  149.5322 LP  0  0  0  0  0  0  0  0  0  0  0  0  # atno 17370 bound_to 10713
  156.0220  130.5315  150.8302 LP  0  0  0  0  0  0  0  0  0  0  0  0  # atno 17371 bound_to 10713
  139.8746  134.9304  156.3500 LP  0  0  0  0  0  0  0  0  0  0  0  0  # atno 17394 bound_to 11000
  140.9506  133.7454  156.0267 LP  0  0  0  0  0  0  0  0  0  0  0  0  # atno 17395 bound_to 11000

$$$$
