AV-unprocessed.smi:809|AV-procd|sdf|3808|dock7
  -GOLD-   22720 1243D 1   1.00000     0.00000
 Structure written by MMmdl.
 39 40  0  0  0  0  0  0  0  0  3 V2000
  152.7511  142.6174  161.7481 C   0  0  0  0  0  0  0  0  0  0  0  0
  152.3271  143.3923  160.5404 C   0  0  0  0  0  0  0  0  0  0  0  0
  152.2820  144.7557  160.4078 C   0  0  0  0  0  0  0  0  0  0  0  0
  151.7233  145.2296  158.8289 S   0  0  0  0  0  0  0  0  0  0  0  0
  151.5711  143.5281  158.3849 C   0  0  0  0  0  0  0  0  0  0  0  0
  151.1456  143.0804  157.1924 N   0  5  0  0  0  0  0  0  0  0  0  0
  150.3843  141.9660  157.1226 C   0  0  0  0  0  0  0  0  0  0  0  0
  150.0626  141.2436  158.0687 O   0  0  0  0  0  0  0  0  0  0  0  0
  149.9878  141.6645  155.8772 N   0  0  0  0  0  0  0  0  0  0  0  0
  149.2201  140.4905  155.4647 C   0  0  0  0  0  0  0  0  0  0  0  0
  148.3363  140.7575  154.2154 C   0  0  1  0  0  0  0  0  0  0  0  0
  149.2123  141.1913  153.1918 O   0  0  0  0  0  0  0  0  0  0  0  0
  147.5403  139.5392  153.6902 C   0  0  0  0  0  0  0  0  0  0  0  0
  146.3813  139.1632  154.6290 C   0  0  0  0  0  0  0  0  0  0  0  0
  145.4657  140.3131  154.8280 N   0  3  1  0  0  0  0  0  0  0  0  0
  144.2785  139.9513  155.6318 C   0  0  0  0  0  0  0  0  0  0  0  0
  146.1689  141.5048  155.3647 C   0  0  0  0  0  0  0  0  0  0  0  0
  147.3458  141.9176  154.4586 C   0  0  0  0  0  0  0  0  0  0  0  0
  151.9161  142.7154  159.3896 N   0  0  0  0  0  0  0  0  0  0  0  0
  153.2693  143.2524  162.4670 H   0  0  0  0  0  0  0  0  0  0  0  0
  153.4280  141.8060  161.4791 H   0  0  0  0  0  0  0  0  0  0  0  0
  151.8909  142.1786  162.2541 H   0  0  0  0  0  0  0  0  0  0  0  0
  152.5405  145.5072  161.1383 H   0  0  0  0  0  0  0  0  0  0  0  0
  150.2758  142.2933  155.1412 H   0  0  0  0  0  0  0  0  0  0  0  0
  149.8948  139.6554  155.2806 H   0  0  0  0  0  0  0  0  0  0  0  0
  148.6020  140.1732  156.3056 H   0  0  0  0  0  0  0  0  0  0  0  0
  149.3598  140.4754  152.5933 H   0  0  0  0  0  0  0  0  0  0  0  0
  147.1228  139.7759  152.7100 H   0  0  0  0  0  0  0  0  0  0  0  0
  148.1881  138.6777  153.5278 H   0  0  0  0  0  0  0  0  0  0  0  0
  145.8270  138.3273  154.2005 H   0  0  0  0  0  0  0  0  0  0  0  0
  146.7587  138.8266  155.5942 H   0  0  0  0  0  0  0  0  0  0  0  0
  144.5660  139.6560  156.6418 H   0  0  0  0  0  0  0  0  0  0  0  0
  143.7406  139.1212  155.1726 H   0  0  0  0  0  0  0  0  0  0  0  0
  143.5905  140.7943  155.7038 H   0  0  0  0  0  0  0  0  0  0  0  0
  145.4647  142.3345  155.4380 H   0  0  0  0  0  0  0  0  0  0  0  0
  146.5122  141.3016  156.3795 H   0  0  0  0  0  0  0  0  0  0  0  0
  147.8637  142.7755  154.8896 H   0  0  0  0  0  0  0  0  0  0  0  0
  146.9393  142.2581  153.5046 H   0  0  0  0  0  0  0  0  0  0  0  0
  145.1248  140.5680  153.9122 H   0  0  0  0  0  0  0  0  0  0  0  0
  1  2  1  0  0  0  0
  1 20  1  0  0  0  0
  1 21  1  0  0  0  0
  1 22  1  0  0  0  0
  2 19  1  0  0  0  0
  2  3  2  0  0  0  0
  3  4  1  0  0  0  0
  3 23  1  0  0  0  0
  4  5  1  0  0  0  0
  5  6  1  0  0  0  0
  5 19  2  0  0  0  0
  6  7  1  0  0  0  0
  7  8  2  0  0  0  0
  7  9  1  0  0  0  0
  9 10  1  0  0  0  0
  9 24  1  0  0  0  0
 10 11  1  0  0  0  0
 10 25  1  0  0  0  0
 10 26  1  0  0  0  0
 11 18  1  0  0  0  0
 11 12  1  0  0  0  0
 11 13  1  0  0  0  0
 12 27  1  0  0  0  0
 13 14  1  0  0  0  0
 13 28  1  0  0  0  0
 13 29  1  0  0  0  0
 14 15  1  0  0  0  0
 14 30  1  0  0  0  0
 14 31  1  0  0  0  0
 15 16  1  0  0  0  0
 15 17  1  0  0  0  0
 15 39  1  0  0  0  0
 16 32  1  0  0  0  0
 16 33  1  0  0  0  0
 16 34  1  0  0  0  0
 17 18  1  0  0  0  0
 17 35  1  0  0  0  0
 17 36  1  0  0  0  0
 18 37  1  0  0  0  0
 18 38  1  0  0  0  0
M  CHG  1   6  -1
M  CHG  1  15   1
M  END
> <s_m_source_file>
AV-unprocessed.smi

> <i_m_source_file_index>
809

> <i_lp_mmshare_version>
43012

> <i_f3d_flags>
0

> <s_epik_input>
W0NIM11jMVtjSF1zYyhuMSlbTkhdQyg9TylbTkhdW0NIMl1DMihbT0hdKVtDSDJdW0NIMl1OKFtDSDNdKVtDSDJdW0NIMl0y

> <s_epik_cmdline>
J2VwaWtfcHl0aG9uJywgJy1waCcsICc3LjAnLCAnLXRuJywgJzgnLCAnLW1hJywgJzIwMCcsICctbWV0YWxfYmluZGluZycsICctaW1hZScsICc8aW5maWxlLm1hZT4nLCAnLW9tYWUnLCAnPG91dGZpbGUubWFlPic=

> <r_lp_tautomer_probability>
0.999

> <r_epik_Ionization_Penalty>
8.50704

> <r_epik_Ionization_Penalty_Charging>
6.65046

> <r_epik_Ionization_Penalty_Neutral>
1.85657

> <r_epik_State_Penalty>
6.64992

> <r_epik_Charging_Adjusted_Penalty>
13.3004

> <i_epik_Tot_Q>
0

> <i_epik_Tot_abs_Q>
2

> <r_epik_Metal_State_Penalty>
2.57297

> <b_epik_Metal_Only>
1

> <s_lp_Force_Field>
OPLS_2005

> <r_lp_Energy>
8.4344

> <b_lp_Chiralities_Consistent>
1

> <s_lp_Variant>
AV-unprocessed.smi:809-4

> <Gold.Version>
5.8.1

> <Gold.Id.Protein>
6NUR|6NUR_protein|mol2

> <Gold.PLP.Fitness>
47.7965

> <Gold.PLP.PLP>
-36.9548

> <Gold.PLP.part.hbond>
-3.8007

> <Gold.PLP.part.metal>
0.0000

> <Gold.PLP.part.buried>
-6.8091

> <Gold.PLP.part.nonpolar>
-27.6831

> <Gold.PLP.part.repulsive>
0.2808

> <Gold.PLP.ligand.clash>
0.0000

> <Gold.PLP.ligand.torsion>
0.4540

> <Gold.PLP.Chemscore.Hbond>
3.9120

> <Gold.PLP.Chemscore.CHOScore>
0.0000

> <Gold.PLP.Chemscore.Metal>
0.0000

> <Gold.Chemscore.Hbonds>
donor molecule, donor type, donor heavy atom, donor atom, acceptor molecule, acceptor atom, score
      L1  H    12    27       P1  7957  0.89
      L1  H    15    39       P1 10175  1.98
      P1  H  8011  8017       L1    12  1.00

> <Gold.PLP.Chemscore.Internal.Correction>
0.0137

> <Gold.Rescore>
     Score         DG    S(hbond)    S(metal)    S(lipo)     H(rot)  DE(clash)    DE(int)     intcor
     15.29     -17.56       2.25        0.00      78.84       1.82       0.32       1.94       ----

> <Gold.Chemscore.Fitness>
15.2908

> <Gold.Chemscore.DG>
-17.5579

> <Gold.Chemscore.ZeroCoef>
-5.4800

> <Gold.Chemscore.Hbond>
2.2483

> <Gold.Chemscore.Metal>
0.0000

> <Gold.Chemscore.Lipo>
78.8399

> <Gold.Chemscore.Internal_Hbond>
0.0000

> <Gold.Chemscore.DEClash>
0.3243

> <Gold.Chemscore.DEInternal>
1.9428

> <Gold.Chemscore.Rot>
1.8186

> <Gold.Chemscore.Internal.Correction>
   9.000000E+99

> <Gold.Chemscore.Hbonds>
donor molecule, donor type, donor heavy atom, donor atom, acceptor molecule, acceptor atom, score
      L1  H    12    27       P1  7957  0.82
      L1  H    15    39       P1 10175  0.87
      P1  H  8011  8017       L1    12  0.25

> <Gold.Chemscore.Hbond.Weighted>
-7.5094

> <Gold.Chemscore.Metal.Weighted>
-0.0000

> <Gold.Chemscore.Lipo.Weighted>
-9.2243

> <Gold.Chemscore.Internal_Hbond.Weighted>
0.0000

> <Gold.Chemscore.DEClash.Weighted>
0.3243

> <Gold.Chemscore.DEInternal.Weighted>
1.9428

> <Gold.Chemscore.Rot.Weighted>
4.6557

> <Gold.Chemscore.Internal.Correction.Weighted>
   9.000000E+99

> <Gold.Protein.RotatedTorsions>
[ 6907 6896 6895 6894 ] final  162.58 input  -60.11 | X-H torsion
[ 7974 7965 7964 7962 ] final -118.91 input  175.53 | X-H torsion
[ 8008 7997 7996 7995 ] final  136.14 input   59.86 | X-H torsion
[ 10167 10162 10161 10158 ] final   17.31 input  -65.29 | X-H torsion
[ 10718 10713 10712 10709 ] final  -19.96 input   66.30 | X-H torsion
[ 10763 10752 10751 10750 ] final   22.52 input  -60.55 | X-H torsion
[ 11005 11000 10999 10996 ] final  108.15 input  -57.11 | X-H torsion

> <Gold.Protein.ActiveResidues>
 VAL166  LYS551  ARG553  GLY616  TRP617  ASP618  TYR619  PRO620  LYS621  CYS622 
 ASP623  PHE694  ASN695  SER759  ASP760  ASP761  ALA762  ILE779  LEU786  VAL792 
 PHE793  MET794  SER795  GLU796  ALA797  LYS798  CYS799  TRP800  GLU811  SER814 

> <Gold.Protein.RotatedAtoms>
  151.9383  133.3630  159.3955 H   0  0  0  0  0  0  0  0  0  0  0  0  # atno 6907 bound_to 6896
  150.7003  134.4466  159.5326 H   0  0  0  0  0  0  0  0  0  0  0  0  # atno 6908 bound_to 6896
  152.2118  134.8494  160.0547 H   0  0  0  0  0  0  0  0  0  0  0  0  # atno 6909 bound_to 6896
  145.0685  140.8342  143.4110 H   0  0  0  0  0  0  0  0  0  0  0  0  # atno 7974 bound_to 7965
  156.3004  140.2453  156.3697 H   0  0  0  0  0  0  0  0  0  0  0  0  # atno 8008 bound_to 7997
  154.8800  140.0413  157.1796 H   0  0  0  0  0  0  0  0  0  0  0  0  # atno 8009 bound_to 7997
  154.8705  140.2934  155.5488 H   0  0  0  0  0  0  0  0  0  0  0  0  # atno 8010 bound_to 7997
  140.5735  143.9116  150.6732 H   0  0  0  0  0  0  0  0  0  0  0  0  # atno 10167 bound_to 10162
  156.5384  130.4672  149.6511 H   0  0  0  0  0  0  0  0  0  0  0  0  # atno 10718 bound_to 10713
  153.0909  135.6646  153.9856 H   0  0  0  0  0  0  0  0  0  0  0  0  # atno 10763 bound_to 10752
  153.9453  135.2989  155.3442 H   0  0  0  0  0  0  0  0  0  0  0  0  # atno 10764 bound_to 10752
  154.7323  135.5117  153.9058 H   0  0  0  0  0  0  0  0  0  0  0  0  # atno 10765 bound_to 10752
  139.8839  134.9422  156.5929 H   0  0  0  0  0  0  0  0  0  0  0  0  # atno 11005 bound_to 11000
  145.1322  139.2625  143.5533 LP  0  0  0  0  0  0  0  0  0  0  0  0  # atno 17320 bound_to 7965
  146.3528  140.0976  142.8609 LP  0  0  0  0  0  0  0  0  0  0  0  0  # atno 17321 bound_to 7965
  140.2597  143.3532  152.1333 LP  0  0  0  0  0  0  0  0  0  0  0  0  # atno 17342 bound_to 10162
  139.5130  144.6926  151.5719 LP  0  0  0  0  0  0  0  0  0  0  0  0  # atno 17343 bound_to 10162
  156.2994  130.7168  151.2037 LP  0  0  0  0  0  0  0  0  0  0  0  0  # atno 17370 bound_to 10713
  157.7410  131.0510  150.5130 LP  0  0  0  0  0  0  0  0  0  0  0  0  # atno 17371 bound_to 10713
  140.7942  133.8558  155.8671 LP  0  0  0  0  0  0  0  0  0  0  0  0  # atno 17394 bound_to 11000
  140.9650  134.1605  157.4623 LP  0  0  0  0  0  0  0  0  0  0  0  0  # atno 17395 bound_to 11000

$$$$
