AV-unprocessed.smi:2202|AV-procd|sdf|8932|dock4
  -GOLD-   2272012143D 1   1.00000     0.00000
 Structure written by MMmdl.
 43 45  0  0  0  0  0  0  0  0  2 V2000
  150.4581  141.0153  155.4265 O   0  0  0  0  0  0  0  0  0  0  0  0
  149.6037  141.4385  156.2072 C   0  0  0  0  0  0  0  0  0  0  0  0
  149.7701  141.2863  157.7261 C   0  0  0  0  0  0  0  0  0  0  0  0
  150.9700  141.9524  158.2537 N   0  0  0  0  0  0  0  0  0  0  0  0
  152.1148  141.3175  158.5367 C   0  0  0  0  0  0  0  0  0  0  0  0
  152.3192  140.1098  158.4073 O   0  0  0  0  0  0  0  0  0  0  0  0
  153.1857  142.2885  159.0387 C   0  0  2  0  0  0  0  0  0  0  0  0
  153.7397  141.8612  160.4235 C   0  0  0  0  0  0  0  0  0  0  0  0
  152.8603  142.3131  161.5710 C   0  0  0  0  0  0  0  0  0  0  0  0
  152.2252  143.4919  161.5350 C   0  0  0  0  0  0  0  0  0  0  0  0
  152.3615  144.4194  160.3453 C   0  0  0  0  0  0  0  0  0  0  0  0
  152.4473  143.6562  158.9972 C   0  0  2  0  0  0  0  0  0  0  0  0
  151.0600  143.2695  158.4792 C   0  0  0  0  0  0  0  0  0  0  0  0
  150.1657  144.0951  158.2921 O   0  0  0  0  0  0  0  0  0  0  0  0
  148.4840  142.0549  155.7999 N   0  0  0  0  0  0  0  0  0  0  0  0
  148.1298  142.3016  154.4072 C   0  0  0  0  0  0  0  0  0  0  0  0
  146.6615  141.9412  154.1240 C   0  0  0  0  0  0  0  0  0  0  0  0
  145.7764  143.1687  154.0364 C   0  0  0  0  0  0  0  0  0  0  0  0
  144.8918  143.5364  155.0736 C   0  0  0  0  0  0  0  0  0  0  0  0
  144.1014  144.6954  154.9258 C   0  0  0  0  0  0  0  0  0  0  0  0
  144.2127  145.4614  153.7468 C   0  0  0  0  0  0  0  0  0  0  0  0
  145.1129  145.0484  152.7433 C   0  0  0  0  0  0  0  0  0  0  0  0
  145.8529  143.9321  152.9220 N   0  3  0  0  0  0  0  0  0  0  0  0
  148.8761  141.6773  158.2148 H   0  0  0  0  0  0  0  0  0  0  0  0
  149.7983  140.2234  157.9732 H   0  0  0  0  0  0  0  0  0  0  0  0
  153.9980  142.2805  158.3108 H   0  0  0  0  0  0  0  0  0  0  0  0
  153.8627  140.7788  160.4788 H   0  0  0  0  0  0  0  0  0  0  0  0
  154.7330  142.2848  160.5746 H   0  0  0  0  0  0  0  0  0  0  0  0
  152.8029  141.6802  162.4444 H   0  0  0  0  0  0  0  0  0  0  0  0
  151.6433  143.8332  162.3786 H   0  0  0  0  0  0  0  0  0  0  0  0
  151.5244  145.1190  160.3464 H   0  0  0  0  0  0  0  0  0  0  0  0
  153.2583  145.0224  160.4905 H   0  0  0  0  0  0  0  0  0  0  0  0
  152.9043  144.3040  158.2480 H   0  0  0  0  0  0  0  0  0  0  0  0
  147.8354  142.3776  156.5036 H   0  0  0  0  0  0  0  0  0  0  0  0
  148.3019  143.3566  154.1928 H   0  0  0  0  0  0  0  0  0  0  0  0
  148.7975  141.7390  153.7523 H   0  0  0  0  0  0  0  0  0  0  0  0
  146.5789  141.3883  153.1872 H   0  0  0  0  0  0  0  0  0  0  0  0
  146.2829  141.2799  154.9045 H   0  0  0  0  0  0  0  0  0  0  0  0
  144.8196  142.9408  155.9723 H   0  0  0  0  0  0  0  0  0  0  0  0
  143.4187  144.9938  155.7082 H   0  0  0  0  0  0  0  0  0  0  0  0
  143.6164  146.3524  153.6142 H   0  0  0  0  0  0  0  0  0  0  0  0
  145.2629  145.5727  151.8108 H   0  0  0  0  0  0  0  0  0  0  0  0
  146.4984  143.6516  152.1831 H   0  0  0  0  0  0  0  0  0  0  0  0
  1  2  2  0  0  0  0
  2  3  1  0  0  0  0
  2 15  1  0  0  0  0
  3  4  1  0  0  0  0
  3 24  1  0  0  0  0
  3 25  1  0  0  0  0
  4 13  1  0  0  0  0
  4  5  1  0  0  0  0
  5  6  2  0  0  0  0
  5  7  1  0  0  0  0
  7 12  1  0  0  0  0
  7  8  1  0  0  0  0
  7 26  1  0  0  0  0
  8  9  1  0  0  0  0
  8 27  1  0  0  0  0
  8 28  1  0  0  0  0
  9 10  2  0  0  0  0
  9 29  1  0  0  0  0
 10 11  1  0  0  0  0
 10 30  1  0  0  0  0
 11 12  1  0  0  0  0
 11 31  1  0  0  0  0
 11 32  1  0  0  0  0
 12 13  1  0  0  0  0
 12 33  1  0  0  0  0
 13 14  2  0  0  0  0
 15 16  1  0  0  0  0
 15 34  1  0  0  0  0
 16 17  1  0  0  0  0
 16 35  1  0  0  0  0
 16 36  1  0  0  0  0
 17 18  1  0  0  0  0
 17 37  1  0  0  0  0
 17 38  1  0  0  0  0
 18 23  1  0  0  0  0
 18 19  2  0  0  0  0
 19 20  1  0  0  0  0
 19 39  1  0  0  0  0
 20 21  2  0  0  0  0
 20 40  1  0  0  0  0
 21 22  1  0  0  0  0
 21 41  1  0  0  0  0
 22 23  2  0  0  0  0
 22 42  1  0  0  0  0
 23 43  1  0  0  0  0
M  CHG  1  23   1
M  END
> <s_m_source_file>
AV-unprocessed.smi

> <i_m_source_file_index>
2202

> <i_lp_mmshare_version>
43012

> <i_f3d_flags>
0

> <s_epik_input>
W0NIMl0xW0NIXT1bQ0hdW0NIMl1bQ0BIXShbQ0BIXTEyKUMoPU8pTihDMj1PKVtDSDJdQyg9TylbTkhdW0NIMl1bQ0gyXWMzW2NIXVtjSF1bY0hdW2NIXW4z

> <s_epik_cmdline>
J2VwaWtfcHl0aG9uJywgJy1waCcsICc3LjAnLCAnLXRuJywgJzgnLCAnLW1hJywgJzIwMCcsICctbWV0YWxfYmluZGluZycsICctaW1hZScsICc8aW5maWxlLm1hZT4nLCAnLW9tYWUnLCAnPG91dGZpbGUubWFlPic=

> <r_lp_tautomer_probability>
1

> <r_epik_Ionization_Penalty>
1.90039

> <r_epik_Ionization_Penalty_Charging>
1.90039

> <r_epik_Ionization_Penalty_Neutral>
1.50224e-07

> <r_epik_State_Penalty>
2.02162

> <r_epik_Charging_Adjusted_Penalty>
3.922

> <i_epik_Tot_Q>
1

> <i_epik_Tot_abs_Q>
1

> <r_epik_Metal_State_Penalty>
2.04542

> <b_epik_Metal_Only>
0

> <s_lp_Force_Field>
OPLS_2005

> <r_lp_Energy>
20.8283

> <b_lp_Chiralities_Consistent>
1

> <s_lp_Variant>
AV-unprocessed.smi:2202-4

> <Gold.Version>
5.8.1

> <Gold.Id.Protein>
6NUR|6NUR_protein|mol2

> <Gold.PLP.Fitness>
50.7082

> <Gold.PLP.PLP>
-51.2178

> <Gold.PLP.part.hbond>
-2.0000

> <Gold.PLP.part.metal>
0.0000

> <Gold.PLP.part.buried>
-3.8164

> <Gold.PLP.part.nonpolar>
-46.6862

> <Gold.PLP.part.repulsive>
2.0093

> <Gold.PLP.ligand.clash>
0.0000

> <Gold.PLP.ligand.torsion>
0.8557

> <Gold.PLP.Chemscore.Hbond>
0.3744

> <Gold.PLP.Chemscore.CHOScore>
0.0000

> <Gold.PLP.Chemscore.Metal>
0.0000

> <Gold.Chemscore.Hbonds>
donor molecule, donor type, donor heavy atom, donor atom, acceptor molecule, acceptor atom, score
      P1  H  7989  7998       L1     1  0.33

> <Gold.PLP.Chemscore.Internal.Correction>
0.0787

> <Gold.Rescore>
     Score         DG    S(hbond)    S(metal)    S(lipo)     H(rot)  DE(clash)    DE(int)     intcor
     13.23     -14.29       0.01        0.00     117.99       1.96       0.26       0.81       ----

> <Gold.Chemscore.Fitness>
13.2253

> <Gold.Chemscore.DG>
-14.2903

> <Gold.Chemscore.ZeroCoef>
-5.4800

> <Gold.Chemscore.Hbond>
0.0088

> <Gold.Chemscore.Metal>
0.0000

> <Gold.Chemscore.Lipo>
117.9906

> <Gold.Chemscore.Internal_Hbond>
0.0000

> <Gold.Chemscore.DEClash>
0.2568

> <Gold.Chemscore.DEInternal>
0.8082

> <Gold.Chemscore.Rot>
1.9625

> <Gold.Chemscore.Internal.Correction>
   9.000000E+99

> <Gold.Chemscore.Hbonds>
donor molecule, donor type, donor heavy atom, donor atom, acceptor molecule, acceptor atom, score
      P1  H  7989  7998       L1     1  0.33

> <Gold.Chemscore.Hbond.Weighted>
-0.0294

> <Gold.Chemscore.Metal.Weighted>
-0.0000

> <Gold.Chemscore.Lipo.Weighted>
-13.8049

> <Gold.Chemscore.Internal_Hbond.Weighted>
0.0000

> <Gold.Chemscore.DEClash.Weighted>
0.2568

> <Gold.Chemscore.DEInternal.Weighted>
0.8082

> <Gold.Chemscore.Rot.Weighted>
5.0240

> <Gold.Chemscore.Internal.Correction.Weighted>
   9.000000E+99

> <Gold.Protein.RotatedTorsions>
[ 6907 6896 6895 6894 ] final  -22.43 input  -60.11 | X-H torsion
[ 7974 7965 7964 7962 ] final  141.33 input  175.53 | X-H torsion
[ 8008 7997 7996 7995 ] final  154.18 input   59.86 | X-H torsion
[ 10167 10162 10161 10158 ] final  -20.51 input  -65.29 | X-H torsion
[ 10718 10713 10712 10709 ] final  139.97 input   66.30 | X-H torsion
[ 10763 10752 10751 10750 ] final  -26.28 input  -60.55 | X-H torsion
[ 11005 11000 10999 10996 ] final  172.03 input  -57.11 | X-H torsion

> <Gold.Protein.ActiveResidues>
 VAL166  LYS551  ARG553  GLY616  TRP617  ASP618  TYR619  PRO620  LYS621  CYS622 
 ASP623  PHE694  ASN695  SER759  ASP760  ASP761  ALA762  ILE779  LEU786  VAL792 
 PHE793  MET794  SER795  GLU796  ALA797  LYS798  CYS799  TRP800  GLU811  SER814 

> <Gold.Protein.RotatedAtoms>
  151.2187  135.0510  159.8940 H   0  0  0  0  0  0  0  0  0  0  0  0  # atno 6907 bound_to 6896
  152.5417  134.0665  159.8185 H   0  0  0  0  0  0  0  0  0  0  0  0  # atno 6908 bound_to 6896
  151.0828  133.5329  159.2651 H   0  0  0  0  0  0  0  0  0  0  0  0  # atno 6909 bound_to 6896
  144.9106  139.5298  143.5710 H   0  0  0  0  0  0  0  0  0  0  0  0  # atno 7974 bound_to 7965
  156.2544  140.1973  156.6607 H   0  0  0  0  0  0  0  0  0  0  0  0  # atno 8008 bound_to 7997
  154.6467  140.0577  156.9933 H   0  0  0  0  0  0  0  0  0  0  0  0  # atno 8009 bound_to 7997
  155.1480  140.3249  155.4440 H   0  0  0  0  0  0  0  0  0  0  0  0  # atno 8010 bound_to 7997
  140.7276  143.4716  151.0239 H   0  0  0  0  0  0  0  0  0  0  0  0  # atno 10167 bound_to 10162
  157.4084  131.1025  151.0479 H   0  0  0  0  0  0  0  0  0  0  0  0  # atno 10718 bound_to 10713
  153.7134  135.6949  153.5031 H   0  0  0  0  0  0  0  0  0  0  0  0  # atno 10763 bound_to 10752
  153.2256  135.4355  155.0537 H   0  0  0  0  0  0  0  0  0  0  0  0  # atno 10764 bound_to 10752
  154.8307  135.3471  154.6670 H   0  0  0  0  0  0  0  0  0  0  0  0  # atno 10765 bound_to 10752
  140.3254  134.7402  157.4095 H   0  0  0  0  0  0  0  0  0  0  0  0  # atno 11005 bound_to 11000
  146.3156  139.7909  142.8986 LP  0  0  0  0  0  0  0  0  0  0  0  0  # atno 17320 bound_to 7965
  145.3461  141.0298  143.3365 LP  0  0  0  0  0  0  0  0  0  0  0  0  # atno 17321 bound_to 7965
  139.8408  143.7566  152.3180 LP  0  0  0  0  0  0  0  0  0  0  0  0  # atno 17342 bound_to 10162
  139.7714  144.7475  151.0219 LP  0  0  0  0  0  0  0  0  0  0  0  0  # atno 17343 bound_to 10162
  157.1453  130.6160  149.5566 LP  0  0  0  0  0  0  0  0  0  0  0  0  # atno 17370 bound_to 10713
  155.9843  130.4867  150.6977 LP  0  0  0  0  0  0  0  0  0  0  0  0  # atno 17371 bound_to 10713
  140.0906  134.5606  155.8448 LP  0  0  0  0  0  0  0  0  0  0  0  0  # atno 17394 bound_to 11000
  141.2076  133.6666  156.6319 LP  0  0  0  0  0  0  0  0  0  0  0  0  # atno 17395 bound_to 11000

$$$$
