AV-unprocessed.smi:884|AV-procd|sdf|4042|dock10
  -GOLD-   22720 1533D 1   1.00000     0.00000
 Structure written by MMmdl.
 47 49  0  0  0  0  0  0  0  0  1 V2000
  150.6118  140.2585  155.1037 O   0  0  0  0  0  0  0  0  0  0  0  0
  149.7982  141.1810  155.1702 C   0  0  0  0  0  0  0  0  0  0  0  0
  150.0220  142.2825  155.9084 N   0  0  0  0  0  0  0  0  0  0  0  0
  151.1824  142.5165  156.7650 C   0  0  0  0  0  0  0  0  0  0  0  0
  151.1959  141.5908  157.9963 C   0  0  0  0  0  0  0  0  0  0  0  0
  151.6075  142.2816  159.2868 C   0  0  0  0  0  0  0  0  0  0  0  0
  152.6757  141.7792  160.0596 C   0  0  0  0  0  0  0  0  0  0  0  0
  153.0087  142.4432  161.2562 C   0  0  0  0  0  0  0  0  0  0  0  0
  152.2668  143.5801  161.6304 C   0  0  0  0  0  0  0  0  0  0  0  0
  151.2173  144.0017  160.7903 C   0  0  0  0  0  0  0  0  0  0  0  0
  150.8849  143.3677  159.6450 N   0  0  0  0  0  0  0  0  0  0  0  0
  148.6044  141.1621  154.5228 N   0  0  0  0  0  0  0  0  0  0  0  0
  147.5770  142.2139  154.5660 C   0  0  0  0  0  0  0  0  0  0  0  0
  146.4650  141.7824  155.5309 C   0  0  0  0  0  0  0  0  0  0  0  0
  145.6480  140.2661  154.9443 S   0  0  0  0  0  0  0  0  0  0  0  0
  147.0826  139.1746  154.6055 C   0  0  0  0  0  0  0  0  0  0  0  0
  147.6865  138.6378  155.9309 C   0  0  0  0  0  0  0  0  0  0  0  0
  146.7557  137.6717  156.6841 C   0  0  0  0  0  0  0  0  0  0  0  0
  146.3321  136.4984  155.7914 C   0  0  0  0  0  0  0  0  0  0  0  0
  145.6844  137.0036  154.4955 C   0  0  0  0  0  0  0  0  0  0  0  0
  146.6167  137.9728  153.7454 C   0  0  0  0  0  0  0  0  0  0  0  0
  148.1338  139.9768  153.7900 C   0  0  0  0  0  0  0  0  0  0  0  0
  149.3073  142.9953  155.9113 H   0  0  0  0  0  0  0  0  0  0  0  0
  152.1122  142.3902  156.2080 H   0  0  0  0  0  0  0  0  0  0  0  0
  151.1657  143.5569  157.0896 H   0  0  0  0  0  0  0  0  0  0  0  0
  150.2080  141.1496  158.1329 H   0  0  0  0  0  0  0  0  0  0  0  0
  151.8730  140.7549  157.8124 H   0  0  0  0  0  0  0  0  0  0  0  0
  153.2232  140.9019  159.7472 H   0  0  0  0  0  0  0  0  0  0  0  0
  153.8185  142.0866  161.8756 H   0  0  0  0  0  0  0  0  0  0  0  0
  152.4931  144.1137  162.5416 H   0  0  0  0  0  0  0  0  0  0  0  0
  150.6220  144.8645  161.0503 H   0  0  0  0  0  0  0  0  0  0  0  0
  147.9669  143.1881  154.8612 H   0  0  0  0  0  0  0  0  0  0  0  0
  147.1637  142.3705  153.5687 H   0  0  0  0  0  0  0  0  0  0  0  0
  146.8667  141.6142  156.5298 H   0  0  0  0  0  0  0  0  0  0  0  0
  145.7147  142.5682  155.6192 H   0  0  0  0  0  0  0  0  0  0  0  0
  148.6218  138.1192  155.7153 H   0  0  0  0  0  0  0  0  0  0  0  0
  147.9500  139.4598  156.5932 H   0  0  0  0  0  0  0  0  0  0  0  0
  147.2603  137.2941  157.5734 H   0  0  0  0  0  0  0  0  0  0  0  0
  145.8724  138.2040  157.0383 H   0  0  0  0  0  0  0  0  0  0  0  0
  147.2034  135.8880  155.5513 H   0  0  0  0  0  0  0  0  0  0  0  0
  145.6381  135.8517  156.3289 H   0  0  0  0  0  0  0  0  0  0  0  0
  145.4396  136.1575  153.8528 H   0  0  0  0  0  0  0  0  0  0  0  0
  144.7380  137.4945  154.7244 H   0  0  0  0  0  0  0  0  0  0  0  0
  146.1189  138.3298  152.8428 H   0  0  0  0  0  0  0  0  0  0  0  0
  147.4891  137.4133  153.4044 H   0  0  0  0  0  0  0  0  0  0  0  0
  147.7019  140.2935  152.8392 H   0  0  0  0  0  0  0  0  0  0  0  0
  148.9647  139.3270  153.5108 H   0  0  0  0  0  0  0  0  0  0  0  0
  1  2  2  0  0  0  0
  2  3  1  0  0  0  0
  2 12  1  0  0  0  0
  3  4  1  0  0  0  0
  3 23  1  0  0  0  0
  4  5  1  0  0  0  0
  4 24  1  0  0  0  0
  4 25  1  0  0  0  0
  5  6  1  0  0  0  0
  5 26  1  0  0  0  0
  5 27  1  0  0  0  0
  6 11  1  0  0  0  0
  6  7  2  0  0  0  0
  7  8  1  0  0  0  0
  7 28  1  0  0  0  0
  8  9  2  0  0  0  0
  8 29  1  0  0  0  0
  9 10  1  0  0  0  0
  9 30  1  0  0  0  0
 10 11  2  0  0  0  0
 10 31  1  0  0  0  0
 12 22  1  0  0  0  0
 12 13  1  0  0  0  0
 13 14  1  0  0  0  0
 13 32  1  0  0  0  0
 13 33  1  0  0  0  0
 14 15  1  0  0  0  0
 14 34  1  0  0  0  0
 14 35  1  0  0  0  0
 15 16  1  0  0  0  0
 16 21  1  0  0  0  0
 16 17  1  0  0  0  0
 16 22  1  0  0  0  0
 17 18  1  0  0  0  0
 17 36  1  0  0  0  0
 17 37  1  0  0  0  0
 18 19  1  0  0  0  0
 18 38  1  0  0  0  0
 18 39  1  0  0  0  0
 19 20  1  0  0  0  0
 19 40  1  0  0  0  0
 19 41  1  0  0  0  0
 20 21  1  0  0  0  0
 20 42  1  0  0  0  0
 20 43  1  0  0  0  0
 21 44  1  0  0  0  0
 21 45  1  0  0  0  0
 22 46  1  0  0  0  0
 22 47  1  0  0  0  0
M  END
> <s_m_source_file>
AV-unprocessed.smi

> <i_m_source_file_index>
884

> <i_lp_mmshare_version>
43012

> <i_f3d_flags>
0

> <s_epik_input>
bjFbY0hdW2NIXVtjSF1bY0hdYzFbQ0gyXVtDSDJdW05IXUMoPU8pTihbQ0gyXTIpW0NIMl1bQ0gyXVNDMjNbQ0gyXVtDSDJdW0NIMl1bQ0gyXVtDSDJdMw==

> <s_epik_cmdline>
J2VwaWtfcHl0aG9uJywgJy1waCcsICc3LjAnLCAnLXRuJywgJzgnLCAnLW1hJywgJzIwMCcsICctbWV0YWxfYmluZGluZycsICctaW1hZScsICc8aW5maWxlLm1hZT4nLCAnLW9tYWUnLCAnPG91dGZpbGUubWFlPic=

> <r_epik_Ionization_Penalty>
0.0449137

> <r_epik_Ionization_Penalty_Charging>
0

> <r_epik_Ionization_Penalty_Neutral>
0.0449137

> <r_epik_State_Penalty>
0.0380475

> <r_epik_Charging_Adjusted_Penalty>
0.0380475

> <i_epik_Tot_Q>
0

> <i_epik_Tot_abs_Q>
0

> <r_epik_Metal_State_Penalty>
0.0353559

> <b_epik_Metal_Only>
0

> <s_lp_Force_Field>
OPLS_2005

> <r_lp_Energy>
30.1612

> <b_lp_Chiralities_Consistent>
1

> <s_lp_Variant>
AV-unprocessed.smi:884-1

> <Gold.Version>
5.8.1

> <Gold.Id.Protein>
6NUR|6NUR_protein|mol2

> <Gold.PLP.Fitness>
40.7748

> <Gold.PLP.PLP>
-35.5973

> <Gold.PLP.part.hbond>
-2.0000

> <Gold.PLP.part.metal>
0.0000

> <Gold.PLP.part.buried>
-2.4823

> <Gold.PLP.part.nonpolar>
-30.9559

> <Gold.PLP.part.repulsive>
0.2562

> <Gold.PLP.ligand.clash>
0.0000

> <Gold.PLP.ligand.torsion>
0.3617

> <Gold.PLP.Chemscore.Hbond>
1.9600

> <Gold.PLP.Chemscore.CHOScore>
0.0000

> <Gold.PLP.Chemscore.Metal>
0.0000

> <Gold.Chemscore.Hbonds>
donor molecule, donor type, donor heavy atom, donor atom, acceptor molecule, acceptor atom, score
      L1  H     3    23       P1  8028  0.96
      P1  H  7989  7998       L1     1  0.90

> <Gold.PLP.Chemscore.Internal.Correction>
0.0208

> <Gold.Rescore>
     Score         DG    S(hbond)    S(metal)    S(lipo)     H(rot)  DE(clash)    DE(int)     intcor
     17.97     -18.47       1.59        0.00      92.56       1.23       0.18       0.32       ----

> <Gold.Chemscore.Fitness>
17.9687

> <Gold.Chemscore.DG>
-18.4669

> <Gold.Chemscore.ZeroCoef>
-5.4800

> <Gold.Chemscore.Hbond>
1.5869

> <Gold.Chemscore.Metal>
0.0000

> <Gold.Chemscore.Lipo>
92.5594

> <Gold.Chemscore.Internal_Hbond>
0.0000

> <Gold.Chemscore.DEClash>
0.1794

> <Gold.Chemscore.DEInternal>
0.3188

> <Gold.Chemscore.Rot>
1.2276

> <Gold.Chemscore.Internal.Correction>
   9.000000E+99

> <Gold.Chemscore.Hbonds>
donor molecule, donor type, donor heavy atom, donor atom, acceptor molecule, acceptor atom, score
      L1  H     3    23       P1  8028  0.92
      P1  H  7989  7998       L1     1  0.17

> <Gold.Chemscore.Hbond.Weighted>
-5.3002

> <Gold.Chemscore.Metal.Weighted>
-0.0000

> <Gold.Chemscore.Lipo.Weighted>
-10.8295

> <Gold.Chemscore.Internal_Hbond.Weighted>
0.0000

> <Gold.Chemscore.DEClash.Weighted>
0.1794

> <Gold.Chemscore.DEInternal.Weighted>
0.3188

> <Gold.Chemscore.Rot.Weighted>
3.1427

> <Gold.Chemscore.Internal.Correction.Weighted>
   9.000000E+99

> <Gold.Protein.RotatedTorsions>
[ 6907 6896 6895 6894 ] final   79.66 input  -60.11 | X-H torsion
[ 7974 7965 7964 7962 ] final   39.96 input  175.53 | X-H torsion
[ 8008 7997 7996 7995 ] final  172.91 input   59.86 | X-H torsion
[ 10167 10162 10161 10158 ] final  -92.90 input  -65.29 | X-H torsion
[ 10718 10713 10712 10709 ] final  106.58 input   66.30 | X-H torsion
[ 10763 10752 10751 10750 ] final -179.35 input  -60.55 | X-H torsion
[ 11005 11000 10999 10996 ] final   85.88 input  -57.11 | X-H torsion

> <Gold.Protein.ActiveResidues>
 VAL166  LYS551  ARG553  GLY616  TRP617  ASP618  TYR619  PRO620  LYS621  CYS622 
 ASP623  PHE694  ASN695  SER759  ASP760  ASP761  ALA762  ILE779  LEU786  VAL792 
 PHE793  MET794  SER795  GLU796  ALA797  LYS798  CYS799  TRP800  GLU811  SER814 

> <Gold.Protein.RotatedAtoms>
  152.5206  134.3477  159.9239 H   0  0  0  0  0  0  0  0  0  0  0  0  # atno 6907 bound_to 6896
  151.3428  133.3949  159.2680 H   0  0  0  0  0  0  0  0  0  0  0  0  # atno 6908 bound_to 6896
  150.9790  134.9167  159.7891 H   0  0  0  0  0  0  0  0  0  0  0  0  # atno 6909 bound_to 6896
  146.0943  139.5590  142.9455 H   0  0  0  0  0  0  0  0  0  0  0  0  # atno 7974 bound_to 7965
  156.1128  140.1473  156.9315 H   0  0  0  0  0  0  0  0  0  0  0  0  # atno 8008 bound_to 7997
  154.4779  140.0888  156.7349 H   0  0  0  0  0  0  0  0  0  0  0  0  # atno 8009 bound_to 7997
  155.4567  140.3437  155.4309 H   0  0  0  0  0  0  0  0  0  0  0  0  # atno 8010 bound_to 7997
  140.3301  143.3000  151.9951 H   0  0  0  0  0  0  0  0  0  0  0  0  # atno 10167 bound_to 10162
  157.6663  131.0854  150.6027 H   0  0  0  0  0  0  0  0  0  0  0  0  # atno 10718 bound_to 10713
  154.5362  135.2803  155.1136 H   0  0  0  0  0  0  0  0  0  0  0  0  # atno 10763 bound_to 10752
  154.2636  135.6317  153.5287 H   0  0  0  0  0  0  0  0  0  0  0  0  # atno 10764 bound_to 10752
  152.9968  135.5611  154.5889 H   0  0  0  0  0  0  0  0  0  0  0  0  # atno 10765 bound_to 10752
  139.8959  134.8317  156.2644 H   0  0  0  0  0  0  0  0  0  0  0  0  # atno 11005 bound_to 11000
  145.5979  141.0360  143.2034 LP  0  0  0  0  0  0  0  0  0  0  0  0  # atno 17320 bound_to 7965
  144.7383  139.7521  143.7320 LP  0  0  0  0  0  0  0  0  0  0  0  0  # atno 17321 bound_to 7965
  139.4858  144.6242  151.7197 LP  0  0  0  0  0  0  0  0  0  0  0  0  # atno 17342 bound_to 10162
  140.5405  144.0587  150.6086 LP  0  0  0  0  0  0  0  0  0  0  0  0  # atno 17343 bound_to 10162
  156.6328  130.4437  149.5780 LP  0  0  0  0  0  0  0  0  0  0  0  0  # atno 17370 bound_to 10713
  156.2269  130.6771  151.1424 LP  0  0  0  0  0  0  0  0  0  0  0  0  # atno 17371 bound_to 10713
  141.0141  133.7078  156.1160 LP  0  0  0  0  0  0  0  0  0  0  0  0  # atno 17394 bound_to 11000
  140.7325  134.4238  157.5564 LP  0  0  0  0  0  0  0  0  0  0  0  0  # atno 17395 bound_to 11000

$$$$
