AV-unprocessed.smi:1570|AV-procd|sdf|6322|dock4
  -GOLD-   22720 6533D 1   1.00000     0.00000
 Structure written by MMmdl.
 52 54  0  0  0  0  0  0  0  0  2 V2000
  154.8762  141.0988  160.2888 C   0  0  0  0  0  0  0  0  0  0  0  0
  153.5324  140.4233  159.9872 C   0  0  0  0  0  0  0  0  0  0  0  0
  152.6900  141.2754  159.1521 N   0  0  0  0  0  0  0  0  0  0  0  0
  152.2404  140.9918  157.9071 C   0  0  0  0  0  0  0  0  0  0  0  0
  152.4576  139.9568  157.2774 O   0  0  0  0  0  0  0  0  0  0  0  0
  151.5427  142.0617  157.4574 N   0  0  0  0  0  0  0  0  0  0  0  0
  150.9194  142.2090  156.1426 C   0  0  0  0  0  0  0  0  0  0  0  0
  150.2061  140.9178  155.6921 C   0  0  2  0  0  0  0  0  0  0  0  0
  151.1716  140.0743  155.0977 O   0  0  0  0  0  0  0  0  0  0  0  0
  149.0763  141.1703  154.6697 C   0  0  0  0  0  0  0  0  0  0  0  0
  147.9376  141.9252  155.2498 N   0  3  1  0  0  0  0  0  0  0  0  0
  147.0059  142.4653  154.2304 C   0  0  0  0  0  0  0  0  0  0  0  0
  145.9051  143.3066  154.9002 C   0  0  1  0  0  0  0  0  0  0  0  0
  144.8718  143.8095  153.8860 C   0  0  0  0  0  0  0  0  0  0  0  0
  145.2218  142.5117  155.8656 O   0  0  0  0  0  0  0  0  0  0  0  0
  146.0537  141.9610  156.8866 C   0  0  2  0  0  0  0  0  0  0  0  0
  146.5444  143.0299  157.8790 C   0  0  0  0  0  0  0  0  0  0  0  0
  147.1927  141.1345  156.2577 C   0  0  0  0  0  0  0  0  0  0  0  0
  151.5577  143.0632  158.4389 C   0  0  0  0  0  0  0  0  0  0  0  0
  150.9983  144.3527  158.4523 C   0  0  0  0  0  0  0  0  0  0  0  0
  151.2069  145.1357  159.6117 C   0  0  0  0  0  0  0  0  0  0  0  0
  151.9530  144.6284  160.7071 C   0  0  0  0  0  0  0  0  0  0  0  0
  152.5058  143.3268  160.6669 C   0  0  0  0  0  0  0  0  0  0  0  0
  152.2810  142.5694  159.5042 C   0  0  0  0  0  0  0  0  0  0  0  0
  155.5008  140.4585  160.9115 H   0  0  0  0  0  0  0  0  0  0  0  0
  154.7345  142.0411  160.8187 H   0  0  0  0  0  0  0  0  0  0  0  0
  155.4273  141.3089  159.3716 H   0  0  0  0  0  0  0  0  0  0  0  0
  153.7019  139.4669  159.4903 H   0  0  0  0  0  0  0  0  0  0  0  0
  153.0121  140.1923  160.9170 H   0  0  0  0  0  0  0  0  0  0  0  0
  150.2216  143.0483  156.1442 H   0  0  0  0  0  0  0  0  0  0  0  0
  151.7005  142.4730  155.4280 H   0  0  0  0  0  0  0  0  0  0  0  0
  149.8228  140.4064  156.5742 H   0  0  0  0  0  0  0  0  0  0  0  0
  151.9115  140.0030  155.6822 H   0  0  0  0  0  0  0  0  0  0  0  0
  149.4441  141.7189  153.8025 H   0  0  0  0  0  0  0  0  0  0  0  0
  148.7298  140.2066  154.2924 H   0  0  0  0  0  0  0  0  0  0  0  0
  147.5426  143.0836  153.5119 H   0  0  0  0  0  0  0  0  0  0  0  0
  146.5620  141.6409  153.6698 H   0  0  0  0  0  0  0  0  0  0  0  0
  146.3512  144.1747  155.3856 H   0  0  0  0  0  0  0  0  0  0  0  0
  145.3388  144.4393  153.1284 H   0  0  0  0  0  0  0  0  0  0  0  0
  144.0985  144.4002  154.3775 H   0  0  0  0  0  0  0  0  0  0  0  0
  144.3821  142.9797  153.3756 H   0  0  0  0  0  0  0  0  0  0  0  0
  145.4216  141.2758  157.4521 H   0  0  0  0  0  0  0  0  0  0  0  0
  147.0627  142.5675  158.7191 H   0  0  0  0  0  0  0  0  0  0  0  0
  145.7064  143.5981  158.2832 H   0  0  0  0  0  0  0  0  0  0  0  0
  147.2373  143.7351  157.4209 H   0  0  0  0  0  0  0  0  0  0  0  0
  146.7794  140.2471  155.7759 H   0  0  0  0  0  0  0  0  0  0  0  0
  147.8702  140.7833  157.0371 H   0  0  0  0  0  0  0  0  0  0  0  0
  150.4337  144.7346  157.6148 H   0  0  0  0  0  0  0  0  0  0  0  0
  150.7943  146.1325  159.6638 H   0  0  0  0  0  0  0  0  0  0  0  0
  152.1012  145.2435  161.5824 H   0  0  0  0  0  0  0  0  0  0  0  0
  153.0769  142.9367  161.4963 H   0  0  0  0  0  0  0  0  0  0  0  0
  148.3373  142.7118  155.7419 H   0  0  0  0  0  0  0  0  0  0  0  0
  1  2  1  0  0  0  0
  1 25  1  0  0  0  0
  1 26  1  0  0  0  0
  1 27  1  0  0  0  0
  2  3  1  0  0  0  0
  2 28  1  0  0  0  0
  2 29  1  0  0  0  0
  3 24  1  0  0  0  0
  3  4  1  0  0  0  0
  4  5  2  0  0  0  0
  4  6  1  0  0  0  0
  6  7  1  0  0  0  0
  6 19  1  0  0  0  0
  7  8  1  0  0  0  0
  7 30  1  0  0  0  0
  7 31  1  0  0  0  0
  8  9  1  0  0  0  0
  8 10  1  0  0  0  0
  8 32  1  0  0  0  0
  9 33  1  0  0  0  0
 10 11  1  0  0  0  0
 10 34  1  0  0  0  0
 10 35  1  0  0  0  0
 11 18  1  0  0  0  0
 11 12  1  0  0  0  0
 11 52  1  0  0  0  0
 12 13  1  0  0  0  0
 12 36  1  0  0  0  0
 12 37  1  0  0  0  0
 13 14  1  0  0  0  0
 13 15  1  0  0  0  0
 13 38  1  0  0  0  0
 14 39  1  0  0  0  0
 14 40  1  0  0  0  0
 14 41  1  0  0  0  0
 15 16  1  0  0  0  0
 16 17  1  0  0  0  0
 16 18  1  0  0  0  0
 16 42  1  0  0  0  0
 17 43  1  0  0  0  0
 17 44  1  0  0  0  0
 17 45  1  0  0  0  0
 18 46  1  0  0  0  0
 18 47  1  0  0  0  0
 19 24  2  0  0  0  0
 19 20  1  0  0  0  0
 20 21  2  0  0  0  0
 20 48  1  0  0  0  0
 21 22  1  0  0  0  0
 21 49  1  0  0  0  0
 22 23  2  0  0  0  0
 22 50  1  0  0  0  0
 23 24  1  0  0  0  0
 23 51  1  0  0  0  0
M  CHG  1  11   1
M  END
> <s_m_source_file>
AV-unprocessed.smi

> <i_m_source_file_index>
1570

> <i_lp_mmshare_version>
43012

> <i_f3d_flags>
0

> <s_epik_input>
W2NIXTFbY0hdW2NIXVtjSF1jKGMxMiluKFtDSDJdW0NIM10pYyg9TyluMltDSDJdW0NASF0oW09IXSlbQ0gyXU4zW0NIMl1bQ0BASF0oW0NIM10pT1tDQEBIXShbQ0gzXSlbQ0gyXTM=

> <s_epik_cmdline>
J2VwaWtfcHl0aG9uJywgJy1waCcsICc3LjAnLCAnLXRuJywgJzgnLCAnLW1hJywgJzIwMCcsICctbWV0YWxfYmluZGluZycsICctaW1hZScsICc8aW5maWxlLm1hZT4nLCAnLW9tYWUnLCAnPG91dGZpbGUubWFlPic=

> <r_epik_Ionization_Penalty>
0.706332

> <r_epik_Ionization_Penalty_Charging>
0.706318

> <r_epik_Ionization_Penalty_Neutral>
1.42224e-05

> <r_epik_State_Penalty>
0.729493

> <r_epik_Charging_Adjusted_Penalty>
1.43581

> <i_epik_Tot_Q>
1

> <i_epik_Tot_abs_Q>
1

> <r_epik_Metal_State_Penalty>
0.729493

> <b_epik_Metal_Only>
0

> <s_lp_Force_Field>
OPLS_2005

> <r_lp_Energy>
53.4907

> <b_lp_Chiralities_Consistent>
1

> <s_lp_Variant>
AV-unprocessed.smi:1570-11

> <Gold.Version>
5.8.1

> <Gold.Id.Protein>
6NUR|6NUR_protein|mol2

> <Gold.PLP.Fitness>
61.4786

> <Gold.PLP.PLP>
-51.0586

> <Gold.PLP.part.hbond>
-3.0000

> <Gold.PLP.part.metal>
0.0000

> <Gold.PLP.part.buried>
-5.7659

> <Gold.PLP.part.nonpolar>
-41.0742

> <Gold.PLP.part.repulsive>
0.2373

> <Gold.PLP.ligand.clash>
0.0000

> <Gold.PLP.ligand.torsion>
0.6278

> <Gold.PLP.Chemscore.Hbond>
3.8793

> <Gold.PLP.Chemscore.CHOScore>
0.0000

> <Gold.PLP.Chemscore.Metal>
0.0000

> <Gold.Chemscore.Hbonds>
donor molecule, donor type, donor heavy atom, donor atom, acceptor molecule, acceptor atom, score
      L1  H    11    52       P1  8028  1.63
      P1  H  7989  7998       L1     9  1.00
      P1  H  7997  8009       L1     5  0.99

> <Gold.PLP.Chemscore.Internal.Correction>
0.0379

> <Gold.Rescore>
     Score         DG    S(hbond)    S(metal)    S(lipo)     H(rot)  DE(clash)    DE(int)     intcor
     21.49     -23.20       2.62        0.00     123.43       2.13       0.15       1.56       ----

> <Gold.Chemscore.Fitness>
21.4949

> <Gold.Chemscore.DG>
-23.2043

> <Gold.Chemscore.ZeroCoef>
-5.4800

> <Gold.Chemscore.Hbond>
2.6157

> <Gold.Chemscore.Metal>
0.0000

> <Gold.Chemscore.Lipo>
123.4293

> <Gold.Chemscore.Internal_Hbond>
0.0000

> <Gold.Chemscore.DEClash>
0.1518

> <Gold.Chemscore.DEInternal>
1.5575

> <Gold.Chemscore.Rot>
2.1303

> <Gold.Chemscore.Internal.Correction>
   9.000000E+99

> <Gold.Chemscore.Hbonds>
donor molecule, donor type, donor heavy atom, donor atom, acceptor molecule, acceptor atom, score
      L1  H    11    52       P1  8028  0.76
      P1  H  7989  7998       L1     9  0.43
      P1  H  7997  8009       L1     5  0.55

> <Gold.Chemscore.Hbond.Weighted>
-8.7366

> <Gold.Chemscore.Metal.Weighted>
-0.0000

> <Gold.Chemscore.Lipo.Weighted>
-14.4412

> <Gold.Chemscore.Internal_Hbond.Weighted>
0.0000

> <Gold.Chemscore.DEClash.Weighted>
0.1518

> <Gold.Chemscore.DEInternal.Weighted>
1.5575

> <Gold.Chemscore.Rot.Weighted>
5.4535

> <Gold.Chemscore.Internal.Correction.Weighted>
   9.000000E+99

> <Gold.Protein.RotatedTorsions>
[ 6907 6896 6895 6894 ] final  -32.17 input  -60.11 | X-H torsion
[ 7974 7965 7964 7962 ] final  -78.52 input  175.53 | X-H torsion
[ 8008 7997 7996 7995 ] final -173.19 input   59.86 | X-H torsion
[ 10167 10162 10161 10158 ] final   75.95 input  -65.29 | X-H torsion
[ 10718 10713 10712 10709 ] final  -16.16 input   66.30 | X-H torsion
[ 10763 10752 10751 10750 ] final   93.08 input  -60.55 | X-H torsion
[ 11005 11000 10999 10996 ] final  129.24 input  -57.11 | X-H torsion

> <Gold.Protein.ActiveResidues>
 VAL166  LYS551  ARG553  GLY616  TRP617  ASP618  TYR619  PRO620  LYS621  CYS622 
 ASP623  PHE694  ASN695  SER759  ASP760  ASP761  ALA762  ILE779  LEU786  VAL792 
 PHE793  MET794  SER795  GLU796  ALA797  LYS798  CYS799  TRP800  GLU811  SER814 

> <Gold.Protein.RotatedAtoms>
  151.0823  134.9865  159.8361 H   0  0  0  0  0  0  0  0  0  0  0  0  # atno 6907 bound_to 6896
  152.5421  134.2167  159.8781 H   0  0  0  0  0  0  0  0  0  0  0  0  # atno 6908 bound_to 6896
  151.2198  133.4465  159.2634 H   0  0  0  0  0  0  0  0  0  0  0  0  # atno 6909 bound_to 6896
  145.5854  140.9440  143.1321 H   0  0  0  0  0  0  0  0  0  0  0  0  # atno 7974 bound_to 7965
  155.9543  140.1132  157.0950 H   0  0  0  0  0  0  0  0  0  0  0  0  # atno 8008 bound_to 7997
  154.4117  140.1194  156.5161 H   0  0  0  0  0  0  0  0  0  0  0  0  # atno 8009 bound_to 7997
  155.6802  140.3473  155.4854 H   0  0  0  0  0  0  0  0  0  0  0  0  # atno 8010 bound_to 7997
  139.9974  144.5711  150.7766 H   0  0  0  0  0  0  0  0  0  0  0  0  # atno 10167 bound_to 10162
  156.5915  130.4800  149.6277 H   0  0  0  0  0  0  0  0  0  0  0  0  # atno 10718 bound_to 10713
  153.2262  135.4338  155.0545 H   0  0  0  0  0  0  0  0  0  0  0  0  # atno 10763 bound_to 10752
  154.8275  135.3368  154.6854 H   0  0  0  0  0  0  0  0  0  0  0  0  # atno 10764 bound_to 10752
  153.7283  135.7012  153.5052 H   0  0  0  0  0  0  0  0  0  0  0  0  # atno 10765 bound_to 10752
  139.9605  134.9603  156.9120 H   0  0  0  0  0  0  0  0  0  0  0  0  # atno 11005 bound_to 11000
  144.7375  139.7543  143.7323 LP  0  0  0  0  0  0  0  0  0  0  0  0  # atno 17320 bound_to 7965
  146.1686  139.4827  142.9942 LP  0  0  0  0  0  0  0  0  0  0  0  0  # atno 17321 bound_to 7965
  140.7432  143.2842  151.3510 LP  0  0  0  0  0  0  0  0  0  0  0  0  # atno 17342 bound_to 10162
  139.6296  144.0747  152.2464 LP  0  0  0  0  0  0  0  0  0  0  0  0  # atno 17343 bound_to 10162
  156.2545  130.6927  151.1675 LP  0  0  0  0  0  0  0  0  0  0  0  0  # atno 17370 bound_to 10713
  157.7302  131.0618  150.5736 LP  0  0  0  0  0  0  0  0  0  0  0  0  # atno 17371 bound_to 10713
  140.5512  134.0625  155.7370 LP  0  0  0  0  0  0  0  0  0  0  0  0  # atno 17394 bound_to 11000
  141.1281  133.9349  157.2593 LP  0  0  0  0  0  0  0  0  0  0  0  0  # atno 17395 bound_to 11000

$$$$
