AV-unprocessed.smi:1834|AV-procd|sdf|7469|dock5
  -GOLD-   22720 9163D 1   1.00000     0.00000
 Structure written by MMmdl.
 46 47  0  0  0  0  0  0  0  0  2 V2000
  147.3065  128.3316  152.2505 C   0  0  0  0  0  0  0  0  0  0  0  0
  147.8105  129.2299  153.3896 C   0  0  0  0  0  0  0  0  0  0  0  0
  147.8344  130.6669  153.0163 N   0  3  1  0  0  0  0  0  0  0  0  0
  146.4905  131.1637  152.6259 C   0  0  0  0  0  0  0  0  0  0  0  0
  146.5662  132.6072  152.1083 C   0  0  0  0  0  0  0  0  0  0  0  0
  147.2037  133.5327  153.1513 C   0  0  0  0  0  0  0  0  0  0  0  0
  148.5847  132.9965  153.5800 C   0  0  1  0  0  0  0  0  0  0  0  0
  149.2554  133.8600  154.6703 C   0  0  0  0  0  0  0  0  0  0  0  0
  149.5316  135.2223  154.2209 N   0  0  0  0  0  0  0  0  0  0  0  0
  149.9945  136.2167  154.9932 C   0  0  0  0  0  0  0  0  0  0  0  0
  150.2198  136.0903  156.1970 O   0  0  0  0  0  0  0  0  0  0  0  0
  150.1676  137.3440  154.2813 N   0  0  0  0  0  0  0  0  0  0  0  0
  150.6141  138.5563  154.7054 C   0  0  0  0  0  0  0  0  0  0  0  0
  149.8947  139.6766  155.0209 C   0  0  0  0  0  0  0  0  0  0  0  0
  150.9093  140.6075  155.3887 C   0  0  0  0  0  0  0  0  0  0  0  0
  150.7400  142.0284  155.8394 C   0  0  0  0  0  0  0  0  0  0  0  0
  152.1316  140.0950  155.3007 N   0  0  0  0  0  0  0  0  0  0  0  0
  151.9538  138.8247  154.8780 N   0  0  0  0  0  0  0  0  0  0  0  0
  153.0998  137.9609  154.6719 C   0  0  0  0  0  0  0  0  0  0  0  0
  148.4547  131.5330  154.0550 C   0  0  0  0  0  0  0  0  0  0  0  0
  147.2117  127.3002  152.5910 H   0  0  0  0  0  0  0  0  0  0  0  0
  147.9852  128.3268  151.3983 H   0  0  0  0  0  0  0  0  0  0  0  0
  146.3256  128.6532  151.8995 H   0  0  0  0  0  0  0  0  0  0  0  0
  147.1401  129.0916  154.2388 H   0  0  0  0  0  0  0  0  0  0  0  0
  148.7994  128.9118  153.7231 H   0  0  0  0  0  0  0  0  0  0  0  0
  146.0720  130.5276  151.8448 H   0  0  0  0  0  0  0  0  0  0  0  0
  145.8148  131.1036  153.4808 H   0  0  0  0  0  0  0  0  0  0  0  0
  147.1484  132.6369  151.1863 H   0  0  0  0  0  0  0  0  0  0  0  0
  145.5677  132.9651  151.8549 H   0  0  0  0  0  0  0  0  0  0  0  0
  147.2901  134.5348  152.7312 H   0  0  0  0  0  0  0  0  0  0  0  0
  146.5500  133.6144  154.0211 H   0  0  0  0  0  0  0  0  0  0  0  0
  149.2353  133.0049  152.7036 H   0  0  0  0  0  0  0  0  0  0  0  0
  148.6496  133.8636  155.5783 H   0  0  0  0  0  0  0  0  0  0  0  0
  150.2109  133.4157  154.9510 H   0  0  0  0  0  0  0  0  0  0  0  0
  149.3737  135.4177  153.2430 H   0  0  0  0  0  0  0  0  0  0  0  0
  149.9462  137.2887  153.2981 H   0  0  0  0  0  0  0  0  0  0  0  0
  148.8259  139.8277  154.9996 H   0  0  0  0  0  0  0  0  0  0  0  0
  149.6864  142.3049  155.8835 H   0  0  0  0  0  0  0  0  0  0  0  0
  151.2356  142.7184  155.1561 H   0  0  0  0  0  0  0  0  0  0  0  0
  151.1637  142.1785  156.8327 H   0  0  0  0  0  0  0  0  0  0  0  0
  152.9845  137.0523  155.2635 H   0  0  0  0  0  0  0  0  0  0  0  0
  154.0199  138.4634  154.9744 H   0  0  0  0  0  0  0  0  0  0  0  0
  153.1721  137.6944  153.6170 H   0  0  0  0  0  0  0  0  0  0  0  0
  147.8592  131.4849  154.9684 H   0  0  0  0  0  0  0  0  0  0  0  0
  149.4454  131.1563  154.3074 H   0  0  0  0  0  0  0  0  0  0  0  0
  148.4108  130.7375  152.1898 H   0  0  0  0  0  0  0  0  0  0  0  0
  1  2  1  0  0  0  0
  1 21  1  0  0  0  0
  1 22  1  0  0  0  0
  1 23  1  0  0  0  0
  2  3  1  0  0  0  0
  2 24  1  0  0  0  0
  2 25  1  0  0  0  0
  3 20  1  0  0  0  0
  3  4  1  0  0  0  0
  3 46  1  0  0  0  0
  4  5  1  0  0  0  0
  4 26  1  0  0  0  0
  4 27  1  0  0  0  0
  5  6  1  0  0  0  0
  5 28  1  0  0  0  0
  5 29  1  0  0  0  0
  6  7  1  0  0  0  0
  6 30  1  0  0  0  0
  6 31  1  0  0  0  0
  7  8  1  0  0  0  0
  7 20  1  0  0  0  0
  7 32  1  0  0  0  0
  8  9  1  0  0  0  0
  8 33  1  0  0  0  0
  8 34  1  0  0  0  0
  9 10  1  0  0  0  0
  9 35  1  0  0  0  0
 10 11  2  0  0  0  0
 10 12  1  0  0  0  0
 12 13  1  0  0  0  0
 12 36  1  0  0  0  0
 13 18  1  0  0  0  0
 13 14  2  0  0  0  0
 14 15  1  0  0  0  0
 14 37  1  0  0  0  0
 15 16  1  0  0  0  0
 15 17  2  0  0  0  0
 16 38  1  0  0  0  0
 16 39  1  0  0  0  0
 16 40  1  0  0  0  0
 17 18  1  0  0  0  0
 18 19  1  0  0  0  0
 19 41  1  0  0  0  0
 19 42  1  0  0  0  0
 19 43  1  0  0  0  0
 20 44  1  0  0  0  0
 20 45  1  0  0  0  0
M  CHG  1   3   1
M  END
> <s_m_source_file>
AV-unprocessed.smi

> <i_m_source_file_index>
1834

> <i_lp_mmshare_version>
43012

> <i_f3d_flags>
0

> <s_epik_input>
W0NIM11bQ0gyXU4xW0NIMl1bQ0gyXVtDSDJdW0NASF0oW0NIMl0xKVtDSDJdW05IXUMoPU8pW05IXWMyW2NIXWMoW0NIM10pbm4yW0NIM10=

> <s_epik_cmdline>
J2VwaWtfcHl0aG9uJywgJy1waCcsICc3LjAnLCAnLXRuJywgJzgnLCAnLW1hJywgJzIwMCcsICctbWV0YWxfYmluZGluZycsICctaW1hZScsICc8aW5maWxlLm1hZT4nLCAnLW9tYWUnLCAnPG91dGZpbGUubWFlPic=

> <r_lp_tautomer_probability>
1

> <r_epik_Ionization_Penalty>
0.000466842

> <r_epik_Ionization_Penalty_Charging>
0.000378984

> <r_epik_Ionization_Penalty_Neutral>
8.78572e-05

> <r_epik_State_Penalty>
0.000231434

> <r_epik_Charging_Adjusted_Penalty>
0.000610418

> <i_epik_Tot_Q>
1

> <i_epik_Tot_abs_Q>
1

> <r_epik_Metal_State_Penalty>
-0

> <b_epik_Metal_Only>
0

> <s_lp_Force_Field>
OPLS_2005

> <r_lp_Energy>
20.6354

> <b_lp_Chiralities_Consistent>
1

> <s_lp_Variant>
AV-unprocessed.smi:1834-1

> <Gold.Version>
5.8.1

> <Gold.Id.Protein>
6NUR|6NUR_protein|mol2

> <Gold.PLP.Fitness>
46.0681

> <Gold.PLP.PLP>
-38.4586

> <Gold.PLP.part.hbond>
-4.4208

> <Gold.PLP.part.metal>
0.0000

> <Gold.PLP.part.buried>
-1.8159

> <Gold.PLP.part.nonpolar>
-32.6243

> <Gold.PLP.part.repulsive>
0.1418

> <Gold.PLP.ligand.clash>
0.0000

> <Gold.PLP.ligand.torsion>
0.7697

> <Gold.PLP.Chemscore.Hbond>
3.0380

> <Gold.PLP.Chemscore.CHOScore>
0.0000

> <Gold.PLP.Chemscore.Metal>
0.0000

> <Gold.Chemscore.Hbonds>
donor molecule, donor type, donor heavy atom, donor atom, acceptor molecule, acceptor atom, score
      L1  H     3    46       P1 10747  1.00
      L1  H     9    35       P1  7948  0.75
      L1  H    12    36       P1  7948  0.93

> <Gold.PLP.Chemscore.Internal.Correction>
0.0348

> <Gold.Rescore>
     Score         DG    S(hbond)    S(metal)    S(lipo)     H(rot)  DE(clash)    DE(int)     intcor
     17.25     -18.56       2.42        0.00      73.96       1.43       0.51       0.80       ----

> <Gold.Chemscore.Fitness>
17.2507

> <Gold.Chemscore.DG>
-18.5601

> <Gold.Chemscore.ZeroCoef>
-5.4800

> <Gold.Chemscore.Hbond>
2.4207

> <Gold.Chemscore.Metal>
0.0000

> <Gold.Chemscore.Lipo>
73.9618

> <Gold.Chemscore.Internal_Hbond>
0.0000

> <Gold.Chemscore.DEClash>
0.5112

> <Gold.Chemscore.DEInternal>
0.7982

> <Gold.Chemscore.Rot>
1.4291

> <Gold.Chemscore.Internal.Correction>
   9.000000E+99

> <Gold.Chemscore.Hbonds>
donor molecule, donor type, donor heavy atom, donor atom, acceptor molecule, acceptor atom, score
      L1  H     3    46       P1 10747  0.92
      L1  H     9    35       P1  7948  0.09
      L1  H    12    36       P1  7948  0.30

> <Gold.Chemscore.Hbond.Weighted>
-8.0850

> <Gold.Chemscore.Metal.Weighted>
-0.0000

> <Gold.Chemscore.Lipo.Weighted>
-8.6535

> <Gold.Chemscore.Internal_Hbond.Weighted>
0.0000

> <Gold.Chemscore.DEClash.Weighted>
0.5112

> <Gold.Chemscore.DEInternal.Weighted>
0.7982

> <Gold.Chemscore.Rot.Weighted>
3.6584

> <Gold.Chemscore.Internal.Correction.Weighted>
   9.000000E+99

> <Gold.Protein.RotatedTorsions>
[ 6907 6896 6895 6894 ] final   61.86 input  -60.11 | X-H torsion
[ 7974 7965 7964 7962 ] final   18.23 input  175.53 | X-H torsion
[ 8008 7997 7996 7995 ] final -101.48 input   59.86 | X-H torsion
[ 10167 10162 10161 10158 ] final -135.00 input  -65.29 | X-H torsion
[ 10718 10713 10712 10709 ] final  157.82 input   66.30 | X-H torsion
[ 10763 10752 10751 10750 ] final  -95.86 input  -60.55 | X-H torsion
[ 11005 11000 10999 10996 ] final  108.08 input  -57.11 | X-H torsion

> <Gold.Protein.ActiveResidues>
 VAL166  LYS551  ARG553  GLY616  TRP617  ASP618  TYR619  PRO620  LYS621  CYS622 
 ASP623  PHE694  ASN695  SER759  ASP760  ASP761  ALA762  ILE779  LEU786  VAL792 
 PHE793  MET794  SER795  GLU796  ALA797  LYS798  CYS799  TRP800  GLU811  SER814 

> <Gold.Protein.RotatedAtoms>
  152.4124  134.6101  160.0023 H   0  0  0  0  0  0  0  0  0  0  0  0  # atno 6907 bound_to 6896
  151.6274  133.3329  159.3109 H   0  0  0  0  0  0  0  0  0  0  0  0  # atno 6908 bound_to 6896
  150.8014  134.7151  159.6670 H   0  0  0  0  0  0  0  0  0  0  0  0  # atno 6909 bound_to 6896
  146.2192  139.8488  142.8626 H   0  0  0  0  0  0  0  0  0  0  0  0  # atno 7974 bound_to 7965
  154.8431  140.0434  157.1555 H   0  0  0  0  0  0  0  0  0  0  0  0  # atno 8008 bound_to 7997
  154.9024  140.3002  155.5290 H   0  0  0  0  0  0  0  0  0  0  0  0  # atno 8009 bound_to 7997
  156.2993  140.2373  156.4054 H   0  0  0  0  0  0  0  0  0  0  0  0  # atno 8010 bound_to 7997
  139.8823  143.6824  152.2625 H   0  0  0  0  0  0  0  0  0  0  0  0  # atno 10167 bound_to 10162
  157.1863  131.0644  151.2104 H   0  0  0  0  0  0  0  0  0  0  0  0  # atno 10718 bound_to 10713
  154.7187  135.5105  153.8778 H   0  0  0  0  0  0  0  0  0  0  0  0  # atno 10763 bound_to 10752
  153.0843  135.6640  153.9990 H   0  0  0  0  0  0  0  0  0  0  0  0  # atno 10764 bound_to 10752
  153.9817  135.3028  155.3399 H   0  0  0  0  0  0  0  0  0  0  0  0  # atno 10765 bound_to 10752
  139.8838  134.9420  156.5918 H   0  0  0  0  0  0  0  0  0  0  0  0  # atno 11005 bound_to 11000
  145.2823  141.0142  143.3710 LP  0  0  0  0  0  0  0  0  0  0  0  0  # atno 17320 bound_to 7965
  144.9140  139.4493  143.6573 LP  0  0  0  0  0  0  0  0  0  0  0  0  # atno 17321 bound_to 7965
  139.7184  144.7607  151.0995 LP  0  0  0  0  0  0  0  0  0  0  0  0  # atno 17342 bound_to 10162
  140.7742  143.5239  150.9504 LP  0  0  0  0  0  0  0  0  0  0  0  0  # atno 17343 bound_to 10162
  157.3904  130.7279  149.6693 LP  0  0  0  0  0  0  0  0  0  0  0  0  # atno 17370 bound_to 10713
  155.9717  130.4148  150.4150 LP  0  0  0  0  0  0  0  0  0  0  0  0  # atno 17371 bound_to 10713
  140.7950  133.8551  155.8678 LP  0  0  0  0  0  0  0  0  0  0  0  0  # atno 17394 bound_to 11000
  140.9643  134.1614  157.4628 LP  0  0  0  0  0  0  0  0  0  0  0  0  # atno 17395 bound_to 11000

$$$$
