AV-unprocessed.smi:1196|AV-procd|sdf|4996|dock6
  -GOLD-   22720 4 03D 1   1.00000     0.00000
 Structure written by MMmdl.
 37 38  0  0  0  0  0  0  0  0  1 V2000
  152.0100  140.2835  158.4229 C   0  0  0  0  0  0  0  0  0  0  0  0
  151.3843  141.2061  157.3652 C   0  0  2  0  0  0  0  0  0  0  0  0
  150.4644  142.2607  158.0111 C   0  0  0  0  0  0  0  0  0  0  0  0
  151.2077  143.3547  158.6109 N   0  0  0  0  0  0  0  0  0  0  0  0
  151.3807  144.6370  158.1333 C   0  0  0  0  0  0  0  0  0  0  0  0
  152.1577  145.3052  159.0356 C   0  0  0  0  0  0  0  0  0  0  0  0
  152.4105  144.3363  160.0467 C   0  0  0  0  0  0  0  0  0  0  0  0
  151.8387  143.1707  159.7908 N   0  0  0  0  0  0  0  0  0  0  0  0
  150.6331  140.4121  156.3940 N   0  0  0  0  0  0  0  0  0  0  0  0
  151.1505  139.8149  155.3094 C   0  0  0  0  0  0  0  0  0  0  0  0
  152.3460  139.8611  155.0187 O   0  0  0  0  0  0  0  0  0  0  0  0
  150.1601  139.0575  154.4194 C   0  0  0  0  0  0  0  0  0  0  0  0
  148.6922  139.4507  154.6771 C   0  0  0  0  0  0  0  0  0  0  0  0
  147.6847  138.4543  154.0706 C   0  0  2  0  0  0  0  0  0  0  0  0
  147.8473  138.2910  152.6358 N   0  0  0  0  0  0  0  0  0  0  0  0
  146.7426  138.6228  151.9537 C   0  0  0  0  0  0  0  0  0  0  0  0
  146.6063  138.5739  150.7336 O   0  0  0  0  0  0  0  0  0  0  0  0
  145.8167  139.0173  152.8342 N   0  0  0  0  0  0  0  0  0  0  0  0
  146.2570  138.9714  154.0905 C   0  0  0  0  0  0  0  0  0  0  0  0
  145.6369  139.2869  155.1041 O   0  0  0  0  0  0  0  0  0  0  0  0
  152.5881  140.8565  159.1484 H   0  0  0  0  0  0  0  0  0  0  0  0
  152.6850  139.5589  157.9664 H   0  0  0  0  0  0  0  0  0  0  0  0
  151.2458  139.7294  158.9691 H   0  0  0  0  0  0  0  0  0  0  0  0
  152.1940  141.7306  156.8544 H   0  0  0  0  0  0  0  0  0  0  0  0
  149.7723  142.6701  157.2739 H   0  0  0  0  0  0  0  0  0  0  0  0
  149.8529  141.8010  158.7890 H   0  0  0  0  0  0  0  0  0  0  0  0
  150.9441  144.9623  157.2005 H   0  0  0  0  0  0  0  0  0  0  0  0
  152.4942  146.3299  158.9818 H   0  0  0  0  0  0  0  0  0  0  0  0
  152.9879  144.4449  160.9531 H   0  0  0  0  0  0  0  0  0  0  0  0
  149.6406  140.3209  156.5538 H   0  0  0  0  0  0  0  0  0  0  0  0
  150.4135  139.2378  153.3737 H   0  0  0  0  0  0  0  0  0  0  0  0
  150.2932  137.9893  154.5936 H   0  0  0  0  0  0  0  0  0  0  0  0
  148.5185  139.5113  155.7529 H   0  0  0  0  0  0  0  0  0  0  0  0
  148.5074  140.4516  154.2822 H   0  0  0  0  0  0  0  0  0  0  0  0
  147.7362  137.4841  154.5664 H   0  0  0  0  0  0  0  0  0  0  0  0
  148.7014  137.9577  152.2134 H   0  0  0  0  0  0  0  0  0  0  0  0
  144.8909  139.3248  152.5747 H   0  0  0  0  0  0  0  0  0  0  0  0
  1  2  1  0  0  0  0
  1 21  1  0  0  0  0
  1 22  1  0  0  0  0
  1 23  1  0  0  0  0
  2  3  1  0  0  0  0
  2  9  1  0  0  0  0
  2 24  1  0  0  0  0
  3  4  1  0  0  0  0
  3 25  1  0  0  0  0
  3 26  1  0  0  0  0
  4  8  1  0  0  0  0
  4  5  1  0  0  0  0
  5  6  2  0  0  0  0
  5 27  1  0  0  0  0
  6  7  1  0  0  0  0
  6 28  1  0  0  0  0
  7  8  2  0  0  0  0
  7 29  1  0  0  0  0
  9 10  1  0  0  0  0
  9 30  1  0  0  0  0
 10 11  2  0  0  0  0
 10 12  1  0  0  0  0
 12 13  1  0  0  0  0
 12 31  1  0  0  0  0
 12 32  1  0  0  0  0
 13 14  1  0  0  0  0
 13 33  1  0  0  0  0
 13 34  1  0  0  0  0
 14 19  1  0  0  0  0
 14 15  1  0  0  0  0
 14 35  1  0  0  0  0
 15 16  1  0  0  0  0
 15 36  1  0  0  0  0
 16 17  2  0  0  0  0
 16 18  1  0  0  0  0
 18 19  1  0  0  0  0
 18 37  1  0  0  0  0
 19 20  2  0  0  0  0
M  END
> <s_m_source_file>
AV-unprocessed.smi

> <i_m_source_file_index>
1196

> <i_lp_mmshare_version>
43012

> <i_f3d_flags>
0

> <s_epik_input>
bjFbY0hdW2NIXVtjSF1uMVtDSDJdW0NAQEhdKFtDSDNdKVtOSF1DKD1PKVtDSDJdW0NIMl1bQ0BASF0yW05IXUMoPU8pW05IXUMyPU8=

> <s_epik_cmdline>
J2VwaWtfcHl0aG9uJywgJy1waCcsICc3LjAnLCAnLXRuJywgJzgnLCAnLW1hJywgJzIwMCcsICctbWV0YWxfYmluZGluZycsICctaW1hZScsICc8aW5maWxlLm1hZT4nLCAnLW9tYWUnLCAnPG91dGZpbGUubWFlPic=

> <r_lp_tautomer_probability>
1

> <r_epik_Ionization_Penalty>
0.00815973

> <r_epik_Ionization_Penalty_Charging>
0

> <r_epik_Ionization_Penalty_Neutral>
0.00815973

> <r_epik_State_Penalty>
0.00583796

> <r_epik_Charging_Adjusted_Penalty>
0.00583796

> <i_epik_Tot_Q>
0

> <i_epik_Tot_abs_Q>
0

> <r_epik_Metal_State_Penalty>
0.409204

> <b_epik_Metal_Only>
0

> <s_lp_Force_Field>
OPLS_2005

> <r_lp_Energy>
19.6523

> <b_lp_Chiralities_Consistent>
1

> <s_lp_Variant>
AV-unprocessed.smi:1196-1

> <Gold.Version>
5.8.1

> <Gold.Id.Protein>
6NUR|6NUR_protein|mol2

> <Gold.PLP.Fitness>
47.8239

> <Gold.PLP.PLP>
-38.2393

> <Gold.PLP.part.hbond>
-4.6995

> <Gold.PLP.part.metal>
0.0000

> <Gold.PLP.part.buried>
-6.0010

> <Gold.PLP.part.nonpolar>
-29.5410

> <Gold.PLP.part.repulsive>
1.8299

> <Gold.PLP.ligand.clash>
0.0000

> <Gold.PLP.ligand.torsion>
1.0549

> <Gold.PLP.Chemscore.Hbond>
2.8687

> <Gold.PLP.Chemscore.CHOScore>
0.9959

> <Gold.PLP.Chemscore.Metal>
0.0000

> <Gold.Chemscore.Hbonds>
donor molecule, donor type, donor heavy atom, donor atom, acceptor molecule, acceptor atom, score
      L1  H    15    36       P1  7948  0.46
      L1  H    18    37       P1 10175  1.00
      P1  H  7954  7966       L1    17  0.88
      P1  H  7989  7998       L1    11  0.10
      P1  H  7997  8010       L1    11  0.34
      L1  C     5    27       P1  8028  0.99

> <Gold.PLP.Chemscore.Internal.Correction>
0.1006

> <Gold.Rescore>
     Score         DG    S(hbond)    S(metal)    S(lipo)     H(rot)  DE(clash)    DE(int)     intcor
     16.46     -17.76       3.39        0.00      72.83       2.96       0.23       1.08       ----

> <Gold.Chemscore.Fitness>
16.4601

> <Gold.Chemscore.DG>
-17.7649

> <Gold.Chemscore.ZeroCoef>
-5.4800

> <Gold.Chemscore.Hbond>
3.3938

> <Gold.Chemscore.Metal>
0.0000

> <Gold.Chemscore.Lipo>
72.8294

> <Gold.Chemscore.Internal_Hbond>
0.0000

> <Gold.Chemscore.DEClash>
0.2261

> <Gold.Chemscore.DEInternal>
1.0787

> <Gold.Chemscore.Rot>
2.9575

> <Gold.Chemscore.Internal.Correction>
   9.000000E+99

> <Gold.Chemscore.Hbonds>
donor molecule, donor type, donor heavy atom, donor atom, acceptor molecule, acceptor atom, score
      L1  H    15    36       P1  7948  0.46
      L1  H    18    37       P1 10175  0.97
      P1  H  7954  7966       L1    17  0.71
      P1  H  7997  8010       L1    11  0.33

> <Gold.Chemscore.Hbond.Weighted>
-11.3352

> <Gold.Chemscore.Metal.Weighted>
-0.0000

> <Gold.Chemscore.Lipo.Weighted>
-8.5210

> <Gold.Chemscore.Internal_Hbond.Weighted>
0.0000

> <Gold.Chemscore.DEClash.Weighted>
0.2261

> <Gold.Chemscore.DEInternal.Weighted>
1.0787

> <Gold.Chemscore.Rot.Weighted>
7.5713

> <Gold.Chemscore.Internal.Correction.Weighted>
   9.000000E+99

> <Gold.Protein.RotatedTorsions>
[ 6907 6896 6895 6894 ] final -159.35 input  -60.11 | X-H torsion
[ 7974 7965 7964 7962 ] final  -64.91 input  175.53 | X-H torsion
[ 8008 7997 7996 7995 ] final   98.83 input   59.86 | X-H torsion
[ 10167 10162 10161 10158 ] final   22.64 input  -65.29 | X-H torsion
[ 10718 10713 10712 10709 ] final  -85.39 input   66.30 | X-H torsion
[ 10763 10752 10751 10750 ] final   83.04 input  -60.55 | X-H torsion
[ 11005 11000 10999 10996 ] final   71.25 input  -57.11 | X-H torsion

> <Gold.Protein.ActiveResidues>
 VAL166  LYS551  ARG553  GLY616  TRP617  ASP618  TYR619  PRO620  LYS621  CYS622 
 ASP623  PHE694  ASN695  SER759  ASP760  ASP761  ALA762  ILE779  LEU786  VAL792 
 PHE793  MET794  SER795  GLU796  ALA797  LYS798  CYS799  TRP800  GLU811  SER814 

> <Gold.Protein.RotatedAtoms>
  151.3322  133.3996  159.2663 H   0  0  0  0  0  0  0  0  0  0  0  0  # atno 6907 bound_to 6896
  150.9946  134.9273  159.7929 H   0  0  0  0  0  0  0  0  0  0  0  0  # atno 6908 bound_to 6896
  152.5257  134.3287  159.9227 H   0  0  0  0  0  0  0  0  0  0  0  0  # atno 6909 bound_to 6896
  145.7608  140.8862  143.0431 H   0  0  0  0  0  0  0  0  0  0  0  0  # atno 7974 bound_to 7965
  156.1044  140.3238  155.7985 H   0  0  0  0  0  0  0  0  0  0  0  0  # atno 8008 bound_to 7997
  155.4782  140.0552  157.2988 H   0  0  0  0  0  0  0  0  0  0  0  0  # atno 8009 bound_to 7997
  154.4718  140.2014  155.9992 H   0  0  0  0  0  0  0  0  0  0  0  0  # atno 8010 bound_to 7997
  140.5332  143.9805  150.6477 H   0  0  0  0  0  0  0  0  0  0  0  0  # atno 10167 bound_to 10162
  155.9997  130.4729  150.4555 H   0  0  0  0  0  0  0  0  0  0  0  0  # atno 10718 bound_to 10713
  153.1256  135.4706  154.9266 H   0  0  0  0  0  0  0  0  0  0  0  0  # atno 10763 bound_to 10752
  154.7617  135.3133  154.8368 H   0  0  0  0  0  0  0  0  0  0  0  0  # atno 10764 bound_to 10752
  153.8922  135.6883  153.4813 H   0  0  0  0  0  0  0  0  0  0  0  0  # atno 10765 bound_to 10752
  139.9553  134.7154  156.0767 H   0  0  0  0  0  0  0  0  0  0  0  0  # atno 11005 bound_to 11000
  144.6831  139.9721  143.7482 LP  0  0  0  0  0  0  0  0  0  0  0  0  # atno 17320 bound_to 7965
  146.0265  139.3297  143.0781 LP  0  0  0  0  0  0  0  0  0  0  0  0  # atno 17321 bound_to 7965
  140.3186  143.3152  152.0807 LP  0  0  0  0  0  0  0  0  0  0  0  0  # atno 17342 bound_to 10162
  139.4961  144.6589  151.6510 LP  0  0  0  0  0  0  0  0  0  0  0  0  # atno 17343 bound_to 10162
  157.2584  131.0561  151.2335 LP  0  0  0  0  0  0  0  0  0  0  0  0  # atno 17370 bound_to 10713
  157.3459  130.7057  149.6410 LP  0  0  0  0  0  0  0  0  0  0  0  0  # atno 17371 bound_to 10713
  141.1224  133.6609  156.3248 LP  0  0  0  0  0  0  0  0  0  0  0  0  # atno 17394 bound_to 11000
  140.5623  134.5922  157.5437 LP  0  0  0  0  0  0  0  0  0  0  0  0  # atno 17395 bound_to 11000

$$$$
