AV-unprocessed.smi:2063|AV-procd|sdf|8411|dock3
  -GOLD-   2272011103D 1   1.00000     0.00000
 Structure written by MMmdl.
 39 40  0  0  0  0  0  0  0  0  1 V2000
  145.9225  132.0586  151.8953 C   0  0  0  0  0  0  0  0  0  0  0  0
  144.8597  132.7070  150.9964 C   0  0  0  0  0  0  0  0  0  0  0  0
  145.1126  132.4742  149.4998 C   0  0  0  0  0  0  0  0  0  0  0  0
  144.6582  134.1555  151.3159 C   0  0  0  0  0  0  0  0  0  0  0  0
  145.6228  135.0751  151.1757 N   0  0  0  0  0  0  0  0  0  0  0  0
  145.1979  136.3456  151.5364 N   0  0  0  0  0  0  0  0  0  0  0  0
  143.9204  136.3489  151.9405 C   0  0  0  0  0  0  0  0  0  0  0  0
  143.2320  137.5130  152.3726 N   0  0  0  0  0  0  0  0  0  0  0  0
  142.0896  137.5928  153.0767 C   0  0  0  0  0  0  0  0  0  0  0  0
  141.4449  136.6329  153.4996 O   0  0  0  0  0  0  0  0  0  0  0  0
  141.7307  138.8702  153.2697 N   0  0  0  0  0  0  0  0  0  0  0  0
  140.5388  139.3186  153.9866 C   0  0  1  0  0  0  0  0  0  0  0  0
  140.6797  140.8071  154.3420 C   0  0  0  0  0  0  0  0  0  0  0  0
  139.2852  139.0459  153.1340 C   0  0  1  0  0  0  0  0  0  0  0  0
  138.9041  137.5692  153.0120 C   0  0  0  0  0  0  0  0  0  0  0  0
  137.4132  137.6091  152.7177 C   0  0  0  0  0  0  0  0  0  0  0  0
  136.9934  139.0298  153.1061 C   0  0  0  0  0  0  0  0  0  0  0  0
  138.1291  139.5962  153.7454 O   0  0  0  0  0  0  0  0  0  0  0  0
  143.1258  134.7846  151.9120 S   0  0  0  0  0  0  0  0  0  0  0  0
  145.6672  132.1728  152.9493 H   0  0  0  0  0  0  0  0  0  0  0  0
  146.9029  132.5094  151.7387 H   0  0  0  0  0  0  0  0  0  0  0  0
  146.0120  130.9914  151.6911 H   0  0  0  0  0  0  0  0  0  0  0  0
  143.9180  132.2079  151.2279 H   0  0  0  0  0  0  0  0  0  0  0  0
  144.2975  132.8764  148.8972 H   0  0  0  0  0  0  0  0  0  0  0  0
  145.1948  131.4103  149.2766 H   0  0  0  0  0  0  0  0  0  0  0  0
  146.0363  132.9536  149.1740 H   0  0  0  0  0  0  0  0  0  0  0  0
  143.6561  138.3892  152.1065 H   0  0  0  0  0  0  0  0  0  0  0  0
  142.3242  139.5917  152.8875 H   0  0  0  0  0  0  0  0  0  0  0  0
  140.4406  138.7513  154.9140 H   0  0  0  0  0  0  0  0  0  0  0  0
  139.8126  141.1624  154.8992 H   0  0  0  0  0  0  0  0  0  0  0  0
  140.7742  141.4223  153.4463 H   0  0  0  0  0  0  0  0  0  0  0  0
  141.5598  140.9826  154.9614 H   0  0  0  0  0  0  0  0  0  0  0  0
  139.3983  139.4805  152.1387 H   0  0  0  0  0  0  0  0  0  0  0  0
  139.4739  137.0482  152.2422 H   0  0  0  0  0  0  0  0  0  0  0  0
  139.0745  137.0575  153.9603 H   0  0  0  0  0  0  0  0  0  0  0  0
  137.2122  137.4261  151.6617 H   0  0  0  0  0  0  0  0  0  0  0  0
  136.8796  136.8550  153.2971 H   0  0  0  0  0  0  0  0  0  0  0  0
  136.7527  139.6150  152.2175 H   0  0  0  0  0  0  0  0  0  0  0  0
  136.1267  139.0438  153.7674 H   0  0  0  0  0  0  0  0  0  0  0  0
  1  2  1  0  0  0  0
  1 20  1  0  0  0  0
  1 21  1  0  0  0  0
  1 22  1  0  0  0  0
  2  3  1  0  0  0  0
  2  4  1  0  0  0  0
  2 23  1  0  0  0  0
  3 24  1  0  0  0  0
  3 25  1  0  0  0  0
  3 26  1  0  0  0  0
  4 19  1  0  0  0  0
  4  5  2  0  0  0  0
  5  6  1  0  0  0  0
  6  7  2  0  0  0  0
  7  8  1  0  0  0  0
  7 19  1  0  0  0  0
  8  9  1  0  0  0  0
  8 27  1  0  0  0  0
  9 10  2  0  0  0  0
  9 11  1  0  0  0  0
 11 12  1  0  0  0  0
 11 28  1  0  0  0  0
 12 13  1  0  0  0  0
 12 14  1  0  0  0  0
 12 29  1  0  0  0  0
 13 30  1  0  0  0  0
 13 31  1  0  0  0  0
 13 32  1  0  0  0  0
 14 18  1  0  0  0  0
 14 15  1  0  0  0  0
 14 33  1  0  0  0  0
 15 16  1  0  0  0  0
 15 34  1  0  0  0  0
 15 35  1  0  0  0  0
 16 17  1  0  0  0  0
 16 36  1  0  0  0  0
 16 37  1  0  0  0  0
 17 18  1  0  0  0  0
 17 38  1  0  0  0  0
 17 39  1  0  0  0  0
M  END
> <s_m_source_file>
AV-unprocessed.smi

> <i_m_source_file_index>
2063

> <i_lp_mmshare_version>
43012

> <i_f3d_flags>
0

> <s_epik_input>
W0NIM11bQ0hdKFtDSDNdKWMxbm5jKHMxKVtOSF1DKD1PKVtOSF1bQ0BIXShbQ0gzXSlbQ0BASF0yW0NIMl1bQ0gyXVtDSDJdTzI=

> <s_epik_cmdline>
J2VwaWtfcHl0aG9uJywgJy1waCcsICc3LjAnLCAnLXRuJywgJzgnLCAnLW1hJywgJzIwMCcsICctbWV0YWxfYmluZGluZycsICctaW1hZScsICc8aW5maWxlLm1hZT4nLCAnLW9tYWUnLCAnPG91dGZpbGUubWFlPic=

> <r_lp_tautomer_probability>
1

> <r_epik_Ionization_Penalty>
0.00050567

> <r_epik_Ionization_Penalty_Charging>
0

> <r_epik_Ionization_Penalty_Neutral>
0.00050567

> <r_epik_State_Penalty>
-0

> <r_epik_Charging_Adjusted_Penalty>
0

> <i_epik_Tot_Q>
0

> <i_epik_Tot_abs_Q>
0

> <r_epik_Metal_State_Penalty>
0.219912

> <b_epik_Metal_Only>
0

> <s_lp_Force_Field>
OPLS_2005

> <r_lp_Energy>
10.6247

> <b_lp_Chiralities_Consistent>
1

> <s_lp_Variant>
AV-unprocessed.smi:2063-4

> <Gold.Version>
5.8.1

> <Gold.Id.Protein>
6NUR|6NUR_protein|mol2

> <Gold.PLP.Fitness>
35.0518

> <Gold.PLP.PLP>
-30.4272

> <Gold.PLP.part.hbond>
-2.9967

> <Gold.PLP.part.metal>
0.0000

> <Gold.PLP.part.buried>
-6.3878

> <Gold.PLP.part.nonpolar>
-22.1779

> <Gold.PLP.part.repulsive>
1.1570

> <Gold.PLP.ligand.clash>
0.0000

> <Gold.PLP.ligand.torsion>
0.3802

> <Gold.PLP.Chemscore.Hbond>
1.7582

> <Gold.PLP.Chemscore.CHOScore>
0.0000

> <Gold.PLP.Chemscore.Metal>
0.0000

> <Gold.Chemscore.Hbonds>
donor molecule, donor type, donor heavy atom, donor atom, acceptor molecule, acceptor atom, score
      L1  H     8    27       P1 10175  0.80
      L1  H    11    28       P1 10175  1.00

> <Gold.PLP.Chemscore.Internal.Correction>
0.1104

> <Gold.Rescore>
     Score         DG    S(hbond)    S(metal)    S(lipo)     H(rot)  DE(clash)    DE(int)     intcor
     13.09     -16.23       1.92        0.00      68.02       1.42       0.19       2.95       ----

> <Gold.Chemscore.Fitness>
13.0878

> <Gold.Chemscore.DG>
-16.2276

> <Gold.Chemscore.ZeroCoef>
-5.4800

> <Gold.Chemscore.Hbond>
1.9197

> <Gold.Chemscore.Metal>
0.0000

> <Gold.Chemscore.Lipo>
68.0238

> <Gold.Chemscore.Internal_Hbond>
0.0000

> <Gold.Chemscore.DEClash>
0.1947

> <Gold.Chemscore.DEInternal>
2.9451

> <Gold.Chemscore.Rot>
1.4152

> <Gold.Chemscore.Internal.Correction>
   9.000000E+99

> <Gold.Chemscore.Hbonds>
donor molecule, donor type, donor heavy atom, donor atom, acceptor molecule, acceptor atom, score
      L1  H     8    27       P1 10175  0.75
      L1  H    11    28       P1 10175  0.83

> <Gold.Chemscore.Hbond.Weighted>
-6.4117

> <Gold.Chemscore.Metal.Weighted>
-0.0000

> <Gold.Chemscore.Lipo.Weighted>
-7.9588

> <Gold.Chemscore.Internal_Hbond.Weighted>
0.0000

> <Gold.Chemscore.DEClash.Weighted>
0.1947

> <Gold.Chemscore.DEInternal.Weighted>
2.9451

> <Gold.Chemscore.Rot.Weighted>
3.6229

> <Gold.Chemscore.Internal.Correction.Weighted>
   9.000000E+99

> <Gold.Protein.RotatedTorsions>
[ 6907 6896 6895 6894 ] final   -4.01 input  -60.11 | X-H torsion
[ 7974 7965 7964 7962 ] final -158.91 input  175.53 | X-H torsion
[ 8008 7997 7996 7995 ] final   94.60 input   59.86 | X-H torsion
[ 10167 10162 10161 10158 ] final   14.84 input  -65.29 | X-H torsion
[ 10718 10713 10712 10709 ] final   11.42 input   66.30 | X-H torsion
[ 10763 10752 10751 10750 ] final  -40.06 input  -60.55 | X-H torsion
[ 11005 11000 10999 10996 ] final    5.95 input  -57.11 | X-H torsion

> <Gold.Protein.ActiveResidues>
 VAL166  LYS551  ARG553  GLY616  TRP617  ASP618  TYR619  PRO620  LYS621  CYS622 
 ASP623  PHE694  ASN695  SER759  ASP760  ASP761  ALA762  ILE779  LEU786  VAL792 
 PHE793  MET794  SER795  GLU796  ALA797  LYS798  CYS799  TRP800  GLU811  SER814 

> <Gold.Protein.RotatedAtoms>
  151.5045  135.1063  159.9837 H   0  0  0  0  0  0  0  0  0  0  0  0  # atno 6907 bound_to 6896
  152.4688  133.7978  159.6947 H   0  0  0  0  0  0  0  0  0  0  0  0  # atno 6908 bound_to 6896
  150.8685  133.7476  159.2994 H   0  0  0  0  0  0  0  0  0  0  0  0  # atno 6909 bound_to 6896
  144.7486  140.3760  143.6065 H   0  0  0  0  0  0  0  0  0  0  0  0  # atno 7974 bound_to 7965
  156.0597  140.3297  155.7447 H   0  0  0  0  0  0  0  0  0  0  0  0  # atno 8008 bound_to 7997
  155.5474  140.0607  157.2875 H   0  0  0  0  0  0  0  0  0  0  0  0  # atno 8009 bound_to 7997
  154.4475  140.1900  156.0640 H   0  0  0  0  0  0  0  0  0  0  0  0  # atno 8010 bound_to 7997
  140.5908  143.8798  150.6872 H   0  0  0  0  0  0  0  0  0  0  0  0  # atno 10167 bound_to 10162
  156.9953  130.6058  149.5690 H   0  0  0  0  0  0  0  0  0  0  0  0  # atno 10718 bound_to 10713
  153.9397  135.6763  153.4744 H   0  0  0  0  0  0  0  0  0  0  0  0  # atno 10763 bound_to 10752
  153.0938  135.4861  154.8737 H   0  0  0  0  0  0  0  0  0  0  0  0  # atno 10764 bound_to 10752
  154.7384  135.3154  154.8730 H   0  0  0  0  0  0  0  0  0  0  0  0  # atno 10765 bound_to 10752
  140.5649  134.0157  155.7986 H   0  0  0  0  0  0  0  0  0  0  0  0  # atno 11005 bound_to 11000
  145.7028  139.1665  143.2583 LP  0  0  0  0  0  0  0  0  0  0  0  0  # atno 17320 bound_to 7965
  146.1403  140.7066  142.9370 LP  0  0  0  0  0  0  0  0  0  0  0  0  # atno 17321 bound_to 7965
  140.2321  143.3728  152.1557 LP  0  0  0  0  0  0  0  0  0  0  0  0  # atno 17342 bound_to 10162
  139.5226  144.7061  151.5348 LP  0  0  0  0  0  0  0  0  0  0  0  0  # atno 17343 bound_to 10162
  156.0192  130.5286  150.8224 LP  0  0  0  0  0  0  0  0  0  0  0  0  # atno 17370 bound_to 10713
  157.5430  131.0941  150.9802 LP  0  0  0  0  0  0  0  0  0  0  0  0  # atno 17371 bound_to 10713
  141.1091  133.9645  157.2942 LP  0  0  0  0  0  0  0  0  0  0  0  0  # atno 17394 bound_to 11000
  139.9389  135.0193  156.8646 LP  0  0  0  0  0  0  0  0  0  0  0  0  # atno 17395 bound_to 11000

$$$$
