AV-unprocessed.smi:3173|AV-procd|sdf|12117|dock1
  -GOLD-   2272017553D 1   1.00000     0.00000
 Structure written by MMmdl.
 35 36  0  0  0  0  0  0  0  0  1 V2000
  153.3609  139.9002  158.2814 O   0  0  0  0  0  0  0  0  0  0  0  0
  152.3218  140.4817  157.9681 C   0  0  0  0  0  0  0  0  0  0  0  0
  151.6427  141.4392  158.9534 C   0  0  0  0  0  0  0  0  0  0  0  0
  152.4839  142.6970  159.2564 C   0  0  2  0  0  0  0  0  0  0  0  0
  152.2162  143.2484  160.6331 C   0  0  0  0  0  0  0  0  0  0  0  0
  151.9504  144.5529  160.6225 C   0  0  0  0  0  0  0  0  0  0  0  0
  151.9847  145.1355  159.2370 C   0  0  0  0  0  0  0  0  0  0  0  0
  152.1926  143.9054  158.3262 C   0  0  0  0  0  0  0  0  0  0  0  0
  151.7257  140.3311  156.7756 N   0  0  0  0  0  0  0  0  0  0  0  0
  152.2307  139.5030  155.6868 C   0  0  0  0  0  0  0  0  0  0  0  0
  151.1140  138.6419  155.0732 C   0  0  0  0  0  0  0  0  0  0  0  0
  149.9227  139.4713  154.6330 C   0  0  0  0  0  0  0  0  0  0  0  0
  148.7430  138.8484  154.1729 C   0  0  0  0  0  0  0  0  0  0  0  0
  147.6642  139.6630  153.7780 C   0  0  0  0  0  0  0  0  0  0  0  0
  147.8054  141.0617  153.8593 C   0  0  0  0  0  0  0  0  0  0  0  0
  149.0238  141.5856  154.3356 C   0  0  0  0  0  0  0  0  0  0  0  0
  150.0643  140.8136  154.7172 N   0  0  0  0  0  0  0  0  0  0  0  0
  150.6663  141.7345  158.5652 H   0  0  0  0  0  0  0  0  0  0  0  0
  151.4535  140.8911  159.8771 H   0  0  0  0  0  0  0  0  0  0  0  0
  153.5460  142.4506  159.2177 H   0  0  0  0  0  0  0  0  0  0  0  0
  152.2603  142.6317  161.5188 H   0  0  0  0  0  0  0  0  0  0  0  0
  151.7461  145.1543  161.4960 H   0  0  0  0  0  0  0  0  0  0  0  0
  151.0539  145.6565  159.0112 H   0  0  0  0  0  0  0  0  0  0  0  0
  152.8109  145.8423  159.1549 H   0  0  0  0  0  0  0  0  0  0  0  0
  153.0016  144.0646  157.6126 H   0  0  0  0  0  0  0  0  0  0  0  0
  151.2850  143.7349  157.7455 H   0  0  0  0  0  0  0  0  0  0  0  0
  150.8725  140.8426  156.6022 H   0  0  0  0  0  0  0  0  0  0  0  0
  152.6948  140.1284  154.9223 H   0  0  0  0  0  0  0  0  0  0  0  0
  153.0188  138.8638  156.0856 H   0  0  0  0  0  0  0  0  0  0  0  0
  151.4975  138.0900  154.2138 H   0  0  0  0  0  0  0  0  0  0  0  0
  150.7775  137.8926  155.7911 H   0  0  0  0  0  0  0  0  0  0  0  0
  148.6646  137.7723  154.1238 H   0  0  0  0  0  0  0  0  0  0  0  0
  146.7455  139.2226  153.4197 H   0  0  0  0  0  0  0  0  0  0  0  0
  146.9993  141.7171  153.5646 H   0  0  0  0  0  0  0  0  0  0  0  0
  149.1666  142.6534  154.4122 H   0  0  0  0  0  0  0  0  0  0  0  0
  1  2  2  0  0  0  0
  2  3  1  0  0  0  0
  2  9  1  0  0  0  0
  3  4  1  0  0  0  0
  3 18  1  0  0  0  0
  3 19  1  0  0  0  0
  4  8  1  0  0  0  0
  4  5  1  0  0  0  0
  4 20  1  0  0  0  0
  5  6  2  0  0  0  0
  5 21  1  0  0  0  0
  6  7  1  0  0  0  0
  6 22  1  0  0  0  0
  7  8  1  0  0  0  0
  7 23  1  0  0  0  0
  7 24  1  0  0  0  0
  8 25  1  0  0  0  0
  8 26  1  0  0  0  0
  9 10  1  0  0  0  0
  9 27  1  0  0  0  0
 10 11  1  0  0  0  0
 10 28  1  0  0  0  0
 10 29  1  0  0  0  0
 11 12  1  0  0  0  0
 11 30  1  0  0  0  0
 11 31  1  0  0  0  0
 12 17  1  0  0  0  0
 12 13  2  0  0  0  0
 13 14  1  0  0  0  0
 13 32  1  0  0  0  0
 14 15  2  0  0  0  0
 14 33  1  0  0  0  0
 15 16  1  0  0  0  0
 15 34  1  0  0  0  0
 16 17  2  0  0  0  0
 16 35  1  0  0  0  0
M  END
> <s_m_source_file>
AV-unprocessed.smi

> <i_m_source_file_index>
3173

> <i_lp_mmshare_version>
43012

> <i_f3d_flags>
0

> <s_epik_input>
W0NIMl0xW0NIMl1bQ0hdPVtDSF1bQ0BIXTFbQ0gyXUMoPU8pW05IXVtDSDJdW0NIMl1jMltjSF1bY0hdW2NIXVtjSF1uMg==

> <s_epik_cmdline>
J2VwaWtfcHl0aG9uJywgJy1waCcsICc3LjAnLCAnLXRuJywgJzgnLCAnLW1hJywgJzIwMCcsICctbWV0YWxfYmluZGluZycsICctaW1hZScsICc8aW5maWxlLm1hZT4nLCAnLW9tYWUnLCAnPG91dGZpbGUubWFlPic=

> <r_epik_Ionization_Penalty>
0.0258754

> <r_epik_Ionization_Penalty_Charging>
0

> <r_epik_Ionization_Penalty_Neutral>
0.0258754

> <r_epik_State_Penalty>
0.0210899

> <r_epik_Charging_Adjusted_Penalty>
0.0210899

> <i_epik_Tot_Q>
0

> <i_epik_Tot_abs_Q>
0

> <r_epik_Metal_State_Penalty>
0.0202045

> <b_epik_Metal_Only>
0

> <s_lp_Force_Field>
OPLS_2005

> <r_lp_Energy>
13.7226

> <b_lp_Chiralities_Consistent>
1

> <s_lp_Variant>
AV-unprocessed.smi:3173-1

> <Gold.Version>
5.8.1

> <Gold.Id.Protein>
6NUR|6NUR_protein|mol2

> <Gold.PLP.Fitness>
50.2744

> <Gold.PLP.PLP>
-43.3220

> <Gold.PLP.part.hbond>
-2.0000

> <Gold.PLP.part.metal>
0.0000

> <Gold.PLP.part.buried>
-2.7721

> <Gold.PLP.part.nonpolar>
-39.2002

> <Gold.PLP.part.repulsive>
0.2331

> <Gold.PLP.ligand.clash>
0.0000

> <Gold.PLP.ligand.torsion>
0.5439

> <Gold.PLP.Chemscore.Hbond>
1.6528

> <Gold.PLP.Chemscore.CHOScore>
1.0000

> <Gold.PLP.Chemscore.Metal>
0.0000

> <Gold.Chemscore.Hbonds>
donor molecule, donor type, donor heavy atom, donor atom, acceptor molecule, acceptor atom, score
      P1  H  7989  7998       L1    17  0.56
      P1  H  7997  8009       L1     1  1.00
      L1  C    16    35       P1  8028  1.00

> <Gold.PLP.Chemscore.Internal.Correction>
0.0819

> <Gold.Rescore>
     Score         DG    S(hbond)    S(metal)    S(lipo)     H(rot)  DE(clash)    DE(int)     intcor
     18.38     -20.41       1.52        0.00     117.07       1.50       0.12       1.91       ----

> <Gold.Chemscore.Fitness>
18.3770

> <Gold.Chemscore.DG>
-20.4100

> <Gold.Chemscore.ZeroCoef>
-5.4800

> <Gold.Chemscore.Hbond>
1.5216

> <Gold.Chemscore.Metal>
0.0000

> <Gold.Chemscore.Lipo>
117.0707

> <Gold.Chemscore.Internal_Hbond>
0.0000

> <Gold.Chemscore.DEClash>
0.1232

> <Gold.Chemscore.DEInternal>
1.9099

> <Gold.Chemscore.Rot>
1.5037

> <Gold.Chemscore.Internal.Correction>
   9.000000E+99

> <Gold.Chemscore.Hbonds>
donor molecule, donor type, donor heavy atom, donor atom, acceptor molecule, acceptor atom, score
      P1  H  7989  7998       L1    17  0.06
      P1  H  7997  8009       L1     1  0.84

> <Gold.Chemscore.Hbond.Weighted>
-5.0821

> <Gold.Chemscore.Metal.Weighted>
-0.0000

> <Gold.Chemscore.Lipo.Weighted>
-13.6973

> <Gold.Chemscore.Internal_Hbond.Weighted>
0.0000

> <Gold.Chemscore.DEClash.Weighted>
0.1232

> <Gold.Chemscore.DEInternal.Weighted>
1.9099

> <Gold.Chemscore.Rot.Weighted>
3.8494

> <Gold.Chemscore.Internal.Correction.Weighted>
   9.000000E+99

> <Gold.Protein.RotatedTorsions>
[ 6907 6896 6895 6894 ] final -115.92 input  -60.11 | X-H torsion
[ 7974 7965 7964 7962 ] final  -59.97 input  175.53 | X-H torsion
[ 8008 7997 7996 7995 ] final  151.74 input   59.86 | X-H torsion
[ 10167 10162 10161 10158 ] final   10.72 input  -65.29 | X-H torsion
[ 10718 10713 10712 10709 ] final   36.64 input   66.30 | X-H torsion
[ 10763 10752 10751 10750 ] final  -65.36 input  -60.55 | X-H torsion
[ 11005 11000 10999 10996 ] final -173.73 input  -57.11 | X-H torsion

> <Gold.Protein.ActiveResidues>
 VAL166  LYS551  ARG553  GLY616  TRP617  ASP618  TYR619  PRO620  LYS621  CYS622 
 ASP623  PHE694  ASN695  SER759  ASP760  ASP761  ALA762  ILE779  LEU786  VAL792 
 PHE793  MET794  SER795  GLU796  ALA797  LYS798  CYS799  TRP800  GLU811  SER814 

> <Gold.Protein.RotatedAtoms>
  150.8015  133.8590  159.3226 H   0  0  0  0  0  0  0  0  0  0  0  0  # atno 6907 bound_to 6896
  151.6400  135.1012  160.0149 H   0  0  0  0  0  0  0  0  0  0  0  0  # atno 6908 bound_to 6896
  152.4103  133.6913  159.6427 H   0  0  0  0  0  0  0  0  0  0  0  0  # atno 6909 bound_to 6896
  145.8211  140.8539  143.0132 H   0  0  0  0  0  0  0  0  0  0  0  0  # atno 7974 bound_to 7965
  156.2660  140.2039  156.6224 H   0  0  0  0  0  0  0  0  0  0  0  0  # atno 8008 bound_to 7997
  154.6746  140.0546  157.0226 H   0  0  0  0  0  0  0  0  0  0  0  0  # atno 8009 bound_to 7997
  155.1087  140.3213  155.4530 H   0  0  0  0  0  0  0  0  0  0  0  0  # atno 8010 bound_to 7997
  140.6176  143.8273  150.7137 H   0  0  0  0  0  0  0  0  0  0  0  0  # atno 10167 bound_to 10162
  157.3373  130.7529  149.6888 H   0  0  0  0  0  0  0  0  0  0  0  0  # atno 10718 bound_to 10713
  154.3439  135.6151  153.5609 H   0  0  0  0  0  0  0  0  0  0  0  0  # atno 10763 bound_to 10752
  152.9802  135.5776  154.4821 H   0  0  0  0  0  0  0  0  0  0  0  0  # atno 10764 bound_to 10752
  154.4530  135.2853  155.1744 H   0  0  0  0  0  0  0  0  0  0  0  0  # atno 10765 bound_to 10752
  140.4824  134.6062  157.4924 H   0  0  0  0  0  0  0  0  0  0  0  0  # atno 11005 bound_to 11000
  144.6747  140.0535  143.7478 LP  0  0  0  0  0  0  0  0  0  0  0  0  # atno 17320 bound_to 7965
  145.9673  139.2844  143.1119 LP  0  0  0  0  0  0  0  0  0  0  0  0  # atno 17321 bound_to 7965
  140.1856  143.4078  152.1901 LP  0  0  0  0  0  0  0  0  0  0  0  0  # atno 17342 bound_to 10162
  139.5412  144.7258  151.4729 LP  0  0  0  0  0  0  0  0  0  0  0  0  # atno 17343 bound_to 10162
  155.9703  130.4178  150.4296 LP  0  0  0  0  0  0  0  0  0  0  0  0  # atno 17370 bound_to 10713
  157.2337  131.0510  151.2477 LP  0  0  0  0  0  0  0  0  0  0  0  0  # atno 17371 bound_to 10713
  139.9818  134.7125  155.9845 LP  0  0  0  0  0  0  0  0  0  0  0  0  # atno 17394 bound_to 11000
  141.1524  133.6547  156.4056 LP  0  0  0  0  0  0  0  0  0  0  0  0  # atno 17395 bound_to 11000

$$$$
