AV-unprocessed.smi:2133|AV-procd|sdf|8692|dock4
  -GOLD-   2272011453D 1   1.00000     0.00000
 Structure written by MMmdl.
 45 47  0  0  0  0  0  0  0  0  1 V2000
  147.6017  135.5947  160.8107 C   0  0  0  0  0  0  0  0  0  0  0  0
  147.5022  136.5662  159.7050 N   0  0  0  0  0  0  0  0  0  0  0  0
  148.6564  136.9515  159.0747 C   0  0  0  0  0  0  0  0  0  0  0  0
  149.7822  136.5390  159.3551 O   0  0  0  0  0  0  0  0  0  0  0  0
  148.4482  137.9261  157.9988 C   0  0  0  0  0  0  0  0  0  0  0  0
  147.2227  138.3906  157.6539 C   0  0  0  0  0  0  0  0  0  0  0  0
  147.3002  139.2972  156.6030 N   0  0  0  0  0  0  0  0  0  0  0  0
  148.6115  139.3338  156.3650 C   0  0  0  0  0  0  0  0  0  0  0  0
  149.3694  138.5447  157.1535 N   0  0  0  0  0  0  0  0  0  0  0  0
  150.8172  138.4145  157.0872 C   0  0  0  0  0  0  0  0  0  0  0  0
  151.4737  139.5329  156.2539 C   0  0  2  0  0  0  0  0  0  0  0  0
  152.8780  139.3696  156.2360 O   0  0  0  0  0  0  0  0  0  0  0  0
  151.1508  140.9320  156.7976 C   0  0  0  0  0  0  0  0  0  0  0  0
  151.5884  141.0127  158.1440 O   0  0  0  0  0  0  0  0  0  0  0  0
  152.2822  142.2160  158.4310 C   0  0  0  0  0  0  0  0  0  0  0  0
  152.5665  142.3713  159.9136 C   0  0  0  0  0  0  0  0  0  0  0  0
  152.0970  143.5005  160.6187 C   0  0  0  0  0  0  0  0  0  0  0  0
  152.3780  143.6464  161.9913 C   0  0  0  0  0  0  0  0  0  0  0  0
  153.1356  142.6681  162.6636 C   0  0  0  0  0  0  0  0  0  0  0  0
  153.6141  141.5447  161.9623 C   0  0  0  0  0  0  0  0  0  0  0  0
  153.3328  141.3982  160.5897 C   0  0  0  0  0  0  0  0  0  0  0  0
  146.0913  137.9207  158.3652 N   0  0  0  0  0  0  0  0  0  0  0  0
  144.7830  138.4448  157.9618 C   0  0  0  0  0  0  0  0  0  0  0  0
  146.2306  137.0151  159.3892 C   0  0  0  0  0  0  0  0  0  0  0  0
  145.2443  136.6123  160.0118 O   0  0  0  0  0  0  0  0  0  0  0  0
  148.6135  135.2567  161.0365 H   0  0  0  0  0  0  0  0  0  0  0  0
  147.0206  134.6995  160.5836 H   0  0  0  0  0  0  0  0  0  0  0  0
  147.2071  136.0256  161.7324 H   0  0  0  0  0  0  0  0  0  0  0  0
  149.0363  139.9539  155.5891 H   0  0  0  0  0  0  0  0  0  0  0  0
  151.1984  138.4451  158.1087 H   0  0  0  0  0  0  0  0  0  0  0  0
  151.0836  137.4311  156.7032 H   0  0  0  0  0  0  0  0  0  0  0  0
  151.1258  139.4679  155.2221 H   0  0  0  0  0  0  0  0  0  0  0  0
  153.0872  138.6321  155.6835 H   0  0  0  0  0  0  0  0  0  0  0  0
  151.6349  141.6998  156.1916 H   0  0  0  0  0  0  0  0  0  0  0  0
  150.0747  141.1094  156.7561 H   0  0  0  0  0  0  0  0  0  0  0  0
  153.2239  142.2359  157.8798 H   0  0  0  0  0  0  0  0  0  0  0  0
  151.6924  143.0726  158.1014 H   0  0  0  0  0  0  0  0  0  0  0  0
  151.5195  144.2593  160.1111 H   0  0  0  0  0  0  0  0  0  0  0  0
  152.0137  144.5102  162.5278 H   0  0  0  0  0  0  0  0  0  0  0  0
  153.3521  142.7811  163.7158 H   0  0  0  0  0  0  0  0  0  0  0  0
  154.1984  140.7960  162.4765 H   0  0  0  0  0  0  0  0  0  0  0  0
  153.7064  140.5352  160.0583 H   0  0  0  0  0  0  0  0  0  0  0  0
  143.9434  138.0565  158.5389 H   0  0  0  0  0  0  0  0  0  0  0  0
  144.5946  138.2046  156.9149 H   0  0  0  0  0  0  0  0  0  0  0  0
  144.7705  139.5307  158.0627 H   0  0  0  0  0  0  0  0  0  0  0  0
  1  2  1  0  0  0  0
  1 26  1  0  0  0  0
  1 27  1  0  0  0  0
  1 28  1  0  0  0  0
  2 24  1  0  0  0  0
  2  3  1  0  0  0  0
  3  4  2  0  0  0  0
  3  5  1  0  0  0  0
  5  9  1  0  0  0  0
  5  6  2  0  0  0  0
  6  7  1  0  0  0  0
  6 22  1  0  0  0  0
  7  8  2  0  0  0  0
  8  9  1  0  0  0  0
  8 29  1  0  0  0  0
  9 10  1  0  0  0  0
 10 11  1  0  0  0  0
 10 30  1  0  0  0  0
 10 31  1  0  0  0  0
 11 12  1  0  0  0  0
 11 13  1  0  0  0  0
 11 32  1  0  0  0  0
 12 33  1  0  0  0  0
 13 14  1  0  0  0  0
 13 34  1  0  0  0  0
 13 35  1  0  0  0  0
 14 15  1  0  0  0  0
 15 16  1  0  0  0  0
 15 36  1  0  0  0  0
 15 37  1  0  0  0  0
 16 21  1  0  0  0  0
 16 17  2  0  0  0  0
 17 18  1  0  0  0  0
 17 38  1  0  0  0  0
 18 19  2  0  0  0  0
 18 39  1  0  0  0  0
 19 20  1  0  0  0  0
 19 40  1  0  0  0  0
 20 21  2  0  0  0  0
 20 41  1  0  0  0  0
 21 42  1  0  0  0  0
 22 23  1  0  0  0  0
 22 24  1  0  0  0  0
 23 43  1  0  0  0  0
 23 44  1  0  0  0  0
 23 45  1  0  0  0  0
 24 25  2  0  0  0  0
M  END
> <s_m_source_file>
AV-unprocessed.smi

> <i_m_source_file_index>
2133

> <i_lp_mmshare_version>
43012

> <i_f3d_flags>
0

> <s_epik_input>
Tz1jMW4oW0NIM10pYyg9TyluKFtDSDNdKWMoYzEyKW5bY0hdbjJbQ0gyXVtDQEhdKFtPSF0pW0NIMl1PW0NIMl1jM1tjSF1bY0hdW2NIXVtjSF1bY0hdMw==

> <s_epik_cmdline>
J2VwaWtfcHl0aG9uJywgJy1waCcsICc3LjAnLCAnLXRuJywgJzgnLCAnLW1hJywgJzIwMCcsICctbWV0YWxfYmluZGluZycsICctaW1hZScsICc8aW5maWxlLm1hZT4nLCAnLW9tYWUnLCAnPG91dGZpbGUubWFlPic=

> <r_lp_tautomer_probability>
1

> <r_epik_Ionization_Penalty>
1.52174e-06

> <r_epik_Ionization_Penalty_Charging>
3.83535e-09

> <r_epik_Ionization_Penalty_Neutral>
1.5179e-06

> <r_epik_State_Penalty>
-0

> <r_epik_Charging_Adjusted_Penalty>
3.83535e-09

> <i_epik_Tot_Q>
0

> <i_epik_Tot_abs_Q>
0

> <r_epik_Metal_State_Penalty>
-0

> <b_epik_Metal_Only>
0

> <s_lp_Force_Field>
OPLS_2005

> <r_lp_Energy>
38.2919

> <b_lp_Chiralities_Consistent>
1

> <s_lp_Variant>
AV-unprocessed.smi:2133-1

> <Gold.Version>
5.8.1

> <Gold.Id.Protein>
6NUR|6NUR_protein|mol2

> <Gold.PLP.Fitness>
46.7556

> <Gold.PLP.PLP>
-41.6387

> <Gold.PLP.part.hbond>
-2.0000

> <Gold.PLP.part.metal>
0.0000

> <Gold.PLP.part.buried>
-6.5993

> <Gold.PLP.part.nonpolar>
-33.1508

> <Gold.PLP.part.repulsive>
0.0000

> <Gold.PLP.ligand.clash>
0.0000

> <Gold.PLP.ligand.torsion>
0.5249

> <Gold.PLP.Chemscore.Hbond>
2.0000

> <Gold.PLP.Chemscore.CHOScore>
0.0000

> <Gold.PLP.Chemscore.Metal>
0.0000

> <Gold.Chemscore.Hbonds>
donor molecule, donor type, donor heavy atom, donor atom, acceptor molecule, acceptor atom, score
      P1  H  6896  6909       L1     4  1.00
      P1  H  7997  8008       L1    12  1.00

> <Gold.PLP.Chemscore.Internal.Correction>
0.1667

> <Gold.Rescore>
     Score         DG    S(hbond)    S(metal)    S(lipo)     H(rot)  DE(clash)    DE(int)     intcor
     15.66     -16.29       1.94        0.00     100.76       2.91       0.02       0.61       ----

> <Gold.Chemscore.Fitness>
15.6639

> <Gold.Chemscore.DG>
-16.2915

> <Gold.Chemscore.ZeroCoef>
-5.4800

> <Gold.Chemscore.Hbond>
1.9402

> <Gold.Chemscore.Metal>
0.0000

> <Gold.Chemscore.Lipo>
100.7617

> <Gold.Chemscore.Internal_Hbond>
0.0000

> <Gold.Chemscore.DEClash>
0.0153

> <Gold.Chemscore.DEInternal>
0.6123

> <Gold.Chemscore.Rot>
2.9132

> <Gold.Chemscore.Internal.Correction>
   9.000000E+99

> <Gold.Chemscore.Hbonds>
donor molecule, donor type, donor heavy atom, donor atom, acceptor molecule, acceptor atom, score
      P1  H  6896  6909       L1     4  0.97
      P1  H  7997  8008       L1    12  0.45

> <Gold.Chemscore.Hbond.Weighted>
-6.4801

> <Gold.Chemscore.Metal.Weighted>
-0.0000

> <Gold.Chemscore.Lipo.Weighted>
-11.7891

> <Gold.Chemscore.Internal_Hbond.Weighted>
0.0000

> <Gold.Chemscore.DEClash.Weighted>
0.0153

> <Gold.Chemscore.DEInternal.Weighted>
0.6123

> <Gold.Chemscore.Rot.Weighted>
7.4578

> <Gold.Chemscore.Internal.Correction.Weighted>
   9.000000E+99

> <Gold.Protein.RotatedTorsions>
[ 6907 6896 6895 6894 ] final   74.67 input  -60.11 | X-H torsion
[ 7974 7965 7964 7962 ] final -135.71 input  175.53 | X-H torsion
[ 8008 7997 7996 7995 ] final  -55.36 input   59.86 | X-H torsion
[ 10167 10162 10161 10158 ] final  -16.58 input  -65.29 | X-H torsion
[ 10718 10713 10712 10709 ] final -174.23 input   66.30 | X-H torsion
[ 10763 10752 10751 10750 ] final -144.30 input  -60.55 | X-H torsion
[ 11005 11000 10999 10996 ] final -123.24 input  -57.11 | X-H torsion

> <Gold.Protein.ActiveResidues>
 VAL166  LYS551  ARG553  GLY616  TRP617  ASP618  TYR619  PRO620  LYS621  CYS622 
 ASP623  PHE694  ASN695  SER759  ASP760  ASP761  ALA762  ILE779  LEU786  VAL792 
 PHE793  MET794  SER795  GLU796  ALA797  LYS798  CYS799  TRP800  GLU811  SER814 

> <Gold.Protein.RotatedAtoms>
  152.4987  134.4236  159.9488 H   0  0  0  0  0  0  0  0  0  0  0  0  # atno 6907 bound_to 6896
  151.4211  133.3692  159.2764 H   0  0  0  0  0  0  0  0  0  0  0  0  # atno 6908 bound_to 6896
  150.9222  134.8662  159.7556 H   0  0  0  0  0  0  0  0  0  0  0  0  # atno 6909 bound_to 6896
  144.8990  140.6746  143.5097 H   0  0  0  0  0  0  0  0  0  0  0  0  # atno 7974 bound_to 7965
  154.4192  140.1155  156.5464 H   0  0  0  0  0  0  0  0  0  0  0  0  # atno 8008 bound_to 7997
  155.6455  140.3496  155.4711 H   0  0  0  0  0  0  0  0  0  0  0  0  # atno 8009 bound_to 7997
  155.9835  140.1165  157.0694 H   0  0  0  0  0  0  0  0  0  0  0  0  # atno 8010 bound_to 7997
  140.7235  143.5102  150.9759 H   0  0  0  0  0  0  0  0  0  0  0  0  # atno 10167 bound_to 10162
  156.7821  130.9487  151.3120 H   0  0  0  0  0  0  0  0  0  0  0  0  # atno 10718 bound_to 10713
  154.8434  135.3444  154.6324 H   0  0  0  0  0  0  0  0  0  0  0  0  # atno 10763 bound_to 10752
  153.6934  135.6973  153.5088 H   0  0  0  0  0  0  0  0  0  0  0  0  # atno 10764 bound_to 10752
  153.2577  135.4333  155.0818 H   0  0  0  0  0  0  0  0  0  0  0  0  # atno 10765 bound_to 10752
  140.9934  134.0507  157.3627 H   0  0  0  0  0  0  0  0  0  0  0  0  # atno 11005 bound_to 11000
  145.3649  139.1672  143.4363 LP  0  0  0  0  0  0  0  0  0  0  0  0  # atno 17320 bound_to 7965
  146.3098  140.3715  142.8674 LP  0  0  0  0  0  0  0  0  0  0  0  0  # atno 17321 bound_to 7965
  139.8815  143.7066  152.3156 LP  0  0  0  0  0  0  0  0  0  0  0  0  # atno 17342 bound_to 10162
  139.7350  144.7573  151.0742 LP  0  0  0  0  0  0  0  0  0  0  0  0  # atno 17343 bound_to 10162
  157.6641  130.8992  149.9894 LP  0  0  0  0  0  0  0  0  0  0  0  0  # atno 17370 bound_to 10713
  156.1211  130.3646  149.9885 LP  0  0  0  0  0  0  0  0  0  0  0  0  # atno 17371 bound_to 10713
  139.9003  135.0162  156.7235 LP  0  0  0  0  0  0  0  0  0  0  0  0  # atno 17394 bound_to 11000
  140.7005  133.9311  155.8021 LP  0  0  0  0  0  0  0  0  0  0  0  0  # atno 17395 bound_to 11000

$$$$
