AV-unprocessed.smi:775|AV-procd|sdf|3696|dock3
  -GOLD-   22720 1113D 1   1.00000     0.00000
 Structure written by MMmdl.
 39 40  0  0  0  0  0  0  0  0  2 V2000
  153.5589  139.8935  159.9423 C   0  0  0  0  0  0  0  0  0  0  0  0
  152.6554  141.1411  159.9159 C   0  0  1  0  0  0  0  0  0  0  0  0
  153.4012  142.4106  159.4486 C   0  0  0  0  0  0  0  0  0  0  0  0
  152.5619  143.5975  159.4014 N   0  0  0  0  0  0  0  0  0  0  0  0
  152.1276  144.2955  158.2933 C   0  0  0  0  0  0  0  0  0  0  0  0
  151.3664  145.3367  158.7404 C   0  0  0  0  0  0  0  0  0  0  0  0
  151.3854  145.1862  160.1551 C   0  0  0  0  0  0  0  0  0  0  0  0
  152.1001  144.1436  160.5470 N   0  0  0  0  0  0  0  0  0  0  0  0
  151.4546  140.9230  159.0776 N   0  3  0  0  0  0  0  0  0  0  0  0
  151.7098  140.5699  157.6637 C   0  0  0  0  0  0  0  0  0  0  0  0
  150.4753  140.7953  156.7762 C   0  0  0  0  0  0  0  0  0  0  0  0
  149.4990  141.3700  157.2621 O   0  0  0  0  0  0  0  0  0  0  0  0
  150.4947  140.3580  155.4922 N   0  0  0  0  0  0  0  0  0  0  0  0
  149.3759  140.4825  154.5522 C   0  0  0  0  0  0  0  0  0  0  0  0
  148.8119  139.0770  154.2808 C   0  0  0  0  0  0  0  0  0  0  0  0
  149.8684  138.1003  154.0101 N   0  0  0  0  0  0  0  0  0  0  0  0
  151.1747  138.2714  154.2853 C   0  0  0  0  0  0  0  0  0  0  0  0
  152.0079  137.4081  154.0213 O   0  0  0  0  0  0  0  0  0  0  0  0
  151.6255  139.5864  154.9507 C   0  0  0  0  0  0  0  0  0  0  0  0
  154.4832  140.0955  160.4843 H   0  0  0  0  0  0  0  0  0  0  0  0
  153.8281  139.5682  158.9371 H   0  0  0  0  0  0  0  0  0  0  0  0
  153.0743  139.0551  160.4420 H   0  0  0  0  0  0  0  0  0  0  0  0
  152.3140  141.3341  160.9340 H   0  0  0  0  0  0  0  0  0  0  0  0
  154.2457  142.6152  160.1083 H   0  0  0  0  0  0  0  0  0  0  0  0
  153.8256  142.2481  158.4564 H   0  0  0  0  0  0  0  0  0  0  0  0
  152.3946  143.9984  157.2896 H   0  0  0  0  0  0  0  0  0  0  0  0
  150.8681  146.0892  158.1472 H   0  0  0  0  0  0  0  0  0  0  0  0
  150.9042  145.7986  160.9033 H   0  0  0  0  0  0  0  0  0  0  0  0
  150.9296  140.1612  159.4830 H   0  0  0  0  0  0  0  0  0  0  0  0
  152.5317  141.1774  157.2846 H   0  0  0  0  0  0  0  0  0  0  0  0
  152.0049  139.5216  157.6073 H   0  0  0  0  0  0  0  0  0  0  0  0
  148.5809  141.1538  154.8722 H   0  0  0  0  0  0  0  0  0  0  0  0
  149.7574  140.9088  153.6228 H   0  0  0  0  0  0  0  0  0  0  0  0
  148.2437  138.7307  155.1449 H   0  0  0  0  0  0  0  0  0  0  0  0
  148.1215  139.1021  153.4373 H   0  0  0  0  0  0  0  0  0  0  0  0
  149.5889  137.2325  153.5754 H   0  0  0  0  0  0  0  0  0  0  0  0
  152.1353  140.1948  154.2030 H   0  0  0  0  0  0  0  0  0  0  0  0
  152.3745  139.3381  155.7040 H   0  0  0  0  0  0  0  0  0  0  0  0
  150.8798  141.7531  159.1086 H   0  0  0  0  0  0  0  0  0  0  0  0
  1  2  1  0  0  0  0
  1 20  1  0  0  0  0
  1 21  1  0  0  0  0
  1 22  1  0  0  0  0
  2  3  1  0  0  0  0
  2  9  1  0  0  0  0
  2 23  1  0  0  0  0
  3  4  1  0  0  0  0
  3 24  1  0  0  0  0
  3 25  1  0  0  0  0
  4  8  1  0  0  0  0
  4  5  1  0  0  0  0
  5  6  2  0  0  0  0
  5 26  1  0  0  0  0
  6  7  1  0  0  0  0
  6 27  1  0  0  0  0
  7  8  2  0  0  0  0
  7 28  1  0  0  0  0
  9 10  1  0  0  0  0
  9 29  1  0  0  0  0
  9 39  1  0  0  0  0
 10 11  1  0  0  0  0
 10 30  1  0  0  0  0
 10 31  1  0  0  0  0
 11 12  2  0  0  0  0
 11 13  1  0  0  0  0
 13 19  1  0  0  0  0
 13 14  1  0  0  0  0
 14 15  1  0  0  0  0
 14 32  1  0  0  0  0
 14 33  1  0  0  0  0
 15 16  1  0  0  0  0
 15 34  1  0  0  0  0
 15 35  1  0  0  0  0
 16 17  1  0  0  0  0
 16 36  1  0  0  0  0
 17 18  2  0  0  0  0
 17 19  1  0  0  0  0
 19 37  1  0  0  0  0
 19 38  1  0  0  0  0
M  CHG  1   9   1
M  END
> <s_m_source_file>
AV-unprocessed.smi

> <i_m_source_file_index>
775

> <i_lp_mmshare_version>
43012

> <i_f3d_flags>
0

> <s_epik_input>
bjFbY0hdW2NIXVtjSF1uMVtDSDJdW0NAQEhdKFtDSDNdKVtOSF1bQ0gyXUMoPU8pTjJbQ0gyXVtDSDJdW05IXUMoPU8pW0NIMl0y

> <s_epik_cmdline>
J2VwaWtfcHl0aG9uJywgJy1waCcsICc3LjAnLCAnLXRuJywgJzgnLCAnLW1hJywgJzIwMCcsICctbWV0YWxfYmluZGluZycsICctaW1hZScsICc8aW5maWxlLm1hZT4nLCAnLW9tYWUnLCAnPG91dGZpbGUubWFlPic=

> <r_lp_tautomer_probability>
1

> <r_epik_Ionization_Penalty>
0.165651

> <r_epik_Ionization_Penalty_Charging>
0.165647

> <r_epik_Ionization_Penalty_Neutral>
3.4358e-06

> <r_epik_State_Penalty>
0.15499

> <r_epik_Charging_Adjusted_Penalty>
0.320637

> <i_epik_Tot_Q>
1

> <i_epik_Tot_abs_Q>
1

> <r_epik_Metal_State_Penalty>
0.155003

> <b_epik_Metal_Only>
0

> <s_lp_Force_Field>
OPLS_2005

> <r_lp_Energy>
22.1436

> <b_lp_Chiralities_Consistent>
1

> <s_lp_Variant>
AV-unprocessed.smi:775-2

> <Gold.Version>
5.8.1

> <Gold.Id.Protein>
6NUR|6NUR_protein|mol2

> <Gold.PLP.Fitness>
50.1481

> <Gold.PLP.PLP>
-44.9172

> <Gold.PLP.part.hbond>
-2.0000

> <Gold.PLP.part.metal>
0.0000

> <Gold.PLP.part.buried>
-3.5662

> <Gold.PLP.part.nonpolar>
-39.8461

> <Gold.PLP.part.repulsive>
1.1862

> <Gold.PLP.ligand.clash>
0.0000

> <Gold.PLP.ligand.torsion>
0.2478

> <Gold.PLP.Chemscore.Hbond>
1.8787

> <Gold.PLP.Chemscore.CHOScore>
0.0000

> <Gold.PLP.Chemscore.Metal>
0.0000

> <Gold.Chemscore.Hbonds>
donor molecule, donor type, donor heavy atom, donor atom, acceptor molecule, acceptor atom, score
      L1  H    16    36       P1  7948  0.90
      P1  H 10752 10764       L1    18  0.96

> <Gold.PLP.Chemscore.Internal.Correction>
0.0904

> <Gold.Rescore>
     Score         DG    S(hbond)    S(metal)    S(lipo)     H(rot)  DE(clash)    DE(int)     intcor
     15.56     -16.41       1.69        0.00      92.99       2.18       0.62       0.23       ----

> <Gold.Chemscore.Fitness>
15.5569

> <Gold.Chemscore.DG>
-16.4080

> <Gold.Chemscore.ZeroCoef>
-5.4800

> <Gold.Chemscore.Hbond>
1.6874

> <Gold.Chemscore.Metal>
0.0000

> <Gold.Chemscore.Lipo>
92.9908

> <Gold.Chemscore.Internal_Hbond>
0.0000

> <Gold.Chemscore.DEClash>
0.6248

> <Gold.Chemscore.DEInternal>
0.2263

> <Gold.Chemscore.Rot>
2.1828

> <Gold.Chemscore.Internal.Correction>
   9.000000E+99

> <Gold.Chemscore.Hbonds>
donor molecule, donor type, donor heavy atom, donor atom, acceptor molecule, acceptor atom, score
      L1  H    16    36       P1  7948  0.71
      P1  H 10752 10764       L1    18  0.90

> <Gold.Chemscore.Hbond.Weighted>
-5.6361

> <Gold.Chemscore.Metal.Weighted>
-0.0000

> <Gold.Chemscore.Lipo.Weighted>
-10.8799

> <Gold.Chemscore.Internal_Hbond.Weighted>
0.0000

> <Gold.Chemscore.DEClash.Weighted>
0.6248

> <Gold.Chemscore.DEInternal.Weighted>
0.2263

> <Gold.Chemscore.Rot.Weighted>
5.5880

> <Gold.Chemscore.Internal.Correction.Weighted>
   9.000000E+99

> <Gold.Protein.RotatedTorsions>
[ 6907 6896 6895 6894 ] final  -31.19 input  -60.11 | X-H torsion
[ 7974 7965 7964 7962 ] final  -18.80 input  175.53 | X-H torsion
[ 8008 7997 7996 7995 ] final -145.20 input   59.86 | X-H torsion
[ 10167 10162 10161 10158 ] final -145.96 input  -65.29 | X-H torsion
[ 10718 10713 10712 10709 ] final -112.79 input   66.30 | X-H torsion
[ 10763 10752 10751 10750 ] final  -91.70 input  -60.55 | X-H torsion
[ 11005 11000 10999 10996 ] final  -86.25 input  -57.11 | X-H torsion

> <Gold.Protein.ActiveResidues>
 VAL166  LYS551  ARG553  GLY616  TRP617  ASP618  TYR619  PRO620  LYS621  CYS622 
 ASP623  PHE694  ASN695  SER759  ASP760  ASP761  ALA762  ILE779  LEU786  VAL792 
 PHE793  MET794  SER795  GLU796  ALA797  LYS798  CYS799  TRP800  GLU811  SER814 

> <Gold.Protein.RotatedAtoms>
  151.0954  134.9941  159.8422 H   0  0  0  0  0  0  0  0  0  0  0  0  # atno 6907 bound_to 6896
  152.5432  134.2015  159.8724 H   0  0  0  0  0  0  0  0  0  0  0  0  # atno 6908 bound_to 6896
  151.2054  133.4542  159.2630 H   0  0  0  0  0  0  0  0  0  0  0  0  # atno 6909 bound_to 6896
  146.1874  140.3972  142.8471 H   0  0  0  0  0  0  0  0  0  0  0  0  # atno 7974 bound_to 7965
  155.5393  140.0606  157.2873 H   0  0  0  0  0  0  0  0  0  0  0  0  # atno 8008 bound_to 7997
  154.4457  140.1922  156.0619 H   0  0  0  0  0  0  0  0  0  0  0  0  # atno 8009 bound_to 7997
  156.0596  140.3274  155.7450 H   0  0  0  0  0  0  0  0  0  0  0  0  # atno 8010 bound_to 7997
  139.7757  143.8173  152.2631 H   0  0  0  0  0  0  0  0  0  0  0  0  # atno 10167 bound_to 10162
  156.0727  130.5938  150.8555 H   0  0  0  0  0  0  0  0  0  0  0  0  # atno 10718 bound_to 10713
  154.6787  135.5258  153.8234 H   0  0  0  0  0  0  0  0  0  0  0  0  # atno 10763 bound_to 10752
  153.0550  135.6547  154.0610 H   0  0  0  0  0  0  0  0  0  0  0  0  # atno 10764 bound_to 10752
  154.0500  135.2970  155.3321 H   0  0  0  0  0  0  0  0  0  0  0  0  # atno 10765 bound_to 10752
  141.1632  133.7444  156.9134 H   0  0  0  0  0  0  0  0  0  0  0  0  # atno 11005 bound_to 11000
  144.8422  140.6874  143.6222 LP  0  0  0  0  0  0  0  0  0  0  0  0  # atno 17320 bound_to 7965
  145.3898  139.1619  143.4235 LP  0  0  0  0  0  0  0  0  0  0  0  0  # atno 17321 bound_to 7965
  139.8221  144.7291  150.9560 LP  0  0  0  0  0  0  0  0  0  0  0  0  # atno 17342 bound_to 10162
  140.7816  143.4149  151.0933 LP  0  0  0  0  0  0  0  0  0  0  0  0  # atno 17343 bound_to 10162
  157.5806  131.0946  150.9277 LP  0  0  0  0  0  0  0  0  0  0  0  0  # atno 17370 bound_to 10713
  156.9473  130.5407  149.5281 LP  0  0  0  0  0  0  0  0  0  0  0  0  # atno 17371 bound_to 10713
  140.1501  134.9236  157.2581 LP  0  0  0  0  0  0  0  0  0  0  0  0  # atno 17394 bound_to 11000
  140.2733  134.3435  155.7366 LP  0  0  0  0  0  0  0  0  0  0  0  0  # atno 17395 bound_to 11000

$$$$
