AV-unprocessed.smi:2424|AV-procd|sdf|9566|dock8
  -GOLD-   2272013193D 1   1.00000     0.00000
 Structure written by MMmdl.
 50 51  0  0  0  0  0  0  0  0  1 V2000
  147.1021  140.2337  157.1195 C   0  0  0  0  0  0  0  0  0  0  0  0
  147.4743  138.7438  157.0248 C   0  0  0  0  0  0  0  0  0  0  0  0
  147.8733  138.2432  155.6140 C   0  0  0  0  0  0  0  0  0  0  0  0
  148.5007  136.8318  155.7559 C   0  0  0  0  0  0  0  0  0  0  0  0
  149.7629  136.7659  156.6325 C   0  0  0  0  0  0  0  0  0  0  0  0
  146.7480  138.4132  154.5509 C   0  0  2  0  0  0  0  0  0  0  0  0
  146.8366  137.4513  153.4494 N   0  0  0  0  0  0  0  0  0  0  0  0
  145.8912  136.5666  153.1085 C   0  0  0  0  0  0  0  0  0  0  0  0
  144.8122  136.4716  153.6914 O   0  0  0  0  0  0  0  0  0  0  0  0
  146.3010  135.8154  152.0706 N   0  0  0  0  0  0  0  0  0  0  0  0
  145.6318  134.7790  151.4059 C   0  0  0  0  0  0  0  0  0  0  0  0
  144.5592  135.1038  150.6636 C   0  0  0  0  0  0  0  0  0  0  0  0
  143.8335  134.1387  149.9621 N   0  0  0  0  0  0  0  0  0  0  0  0
  144.1277  132.8190  149.9606 C   0  0  0  0  0  0  0  0  0  0  0  0
  143.4437  132.0289  149.3125 O   0  0  0  0  0  0  0  0  0  0  0  0
  145.2915  132.4292  150.7732 C   0  0  0  0  0  0  0  0  0  0  0  0
  145.6660  130.9585  150.8225 C   0  0  0  0  0  0  0  0  0  0  0  0
  145.9939  133.3660  151.4523 C   0  0  0  0  0  0  0  0  0  0  0  0
  147.3458  139.7763  154.1641 C   0  0  2  0  0  0  0  0  0  0  0  0
  147.3021  140.2953  152.7281 C   0  0  0  0  0  0  0  0  0  0  0  0
  148.6684  139.2922  154.7811 C   0  0  2  0  0  0  0  0  0  0  0  0
  149.5105  138.7261  153.7830 O   0  0  0  0  0  0  0  0  0  0  0  0
  150.7896  138.3657  154.2763 C   0  0  0  0  0  0  0  0  0  0  0  0
  143.0437  134.4609  149.4219 H   0  0  0  0  0  0  0  0  0  0  0  0
  146.6998  140.4628  158.1063 H   0  0  0  0  0  0  0  0  0  0  0  0
  146.3449  140.5098  156.3864 H   0  0  0  0  0  0  0  0  0  0  0  0
  147.9667  140.8798  156.9727 H   0  0  0  0  0  0  0  0  0  0  0  0
  148.2587  138.5241  157.7482 H   0  0  0  0  0  0  0  0  0  0  0  0
  146.6153  138.1786  157.3864 H   0  0  0  0  0  0  0  0  0  0  0  0
  147.7764  136.1403  156.1856 H   0  0  0  0  0  0  0  0  0  0  0  0
  148.7247  136.4035  154.7804 H   0  0  0  0  0  0  0  0  0  0  0  0
  150.0656  135.7302  156.7873 H   0  0  0  0  0  0  0  0  0  0  0  0
  149.5949  137.2081  157.6143 H   0  0  0  0  0  0  0  0  0  0  0  0
  150.6057  137.2791  156.1709 H   0  0  0  0  0  0  0  0  0  0  0  0
  145.7540  138.4967  154.9940 H   0  0  0  0  0  0  0  0  0  0  0  0
  147.6916  137.4632  152.9127 H   0  0  0  0  0  0  0  0  0  0  0  0
  147.2273  136.0110  151.7202 H   0  0  0  0  0  0  0  0  0  0  0  0
  144.1820  136.1092  150.5437 H   0  0  0  0  0  0  0  0  0  0  0  0
  146.5332  130.7881  151.4612 H   0  0  0  0  0  0  0  0  0  0  0  0
  145.9066  130.5936  149.8234 H   0  0  0  0  0  0  0  0  0  0  0  0
  144.8381  130.3669  151.2145 H   0  0  0  0  0  0  0  0  0  0  0  0
  146.8317  133.0284  152.0393 H   0  0  0  0  0  0  0  0  0  0  0  0
  146.9170  140.5312  154.8250 H   0  0  0  0  0  0  0  0  0  0  0  0
  147.7604  139.6005  152.0246 H   0  0  0  0  0  0  0  0  0  0  0  0
  147.8312  141.2440  152.6389 H   0  0  0  0  0  0  0  0  0  0  0  0
  146.2746  140.4600  152.4032 H   0  0  0  0  0  0  0  0  0  0  0  0
  149.1559  140.0777  155.3608 H   0  0  0  0  0  0  0  0  0  0  0  0
  151.3696  137.9006  153.4795 H   0  0  0  0  0  0  0  0  0  0  0  0
  150.7189  137.6564  155.1009 H   0  0  0  0  0  0  0  0  0  0  0  0
  151.3364  139.2443  154.6203 H   0  0  0  0  0  0  0  0  0  0  0  0
  1  2  1  0  0  0  0
  1 25  1  0  0  0  0
  1 26  1  0  0  0  0
  1 27  1  0  0  0  0
  2  3  1  0  0  0  0
  2 28  1  0  0  0  0
  2 29  1  0  0  0  0
  3 21  1  0  0  0  0
  3  4  1  0  0  0  0
  3  6  1  0  0  0  0
  4  5  1  0  0  0  0
  4 30  1  0  0  0  0
  4 31  1  0  0  0  0
  5 32  1  0  0  0  0
  5 33  1  0  0  0  0
  5 34  1  0  0  0  0
  6  7  1  0  0  0  0
  6 19  1  0  0  0  0
  6 35  1  0  0  0  0
  7  8  1  0  0  0  0
  7 36  1  0  0  0  0
  8  9  2  0  0  0  0
  8 10  1  0  0  0  0
 10 11  1  0  0  0  0
 10 37  1  0  0  0  0
 11 18  1  0  0  0  0
 11 12  2  0  0  0  0
 12 13  1  0  0  0  0
 12 38  1  0  0  0  0
 13 24  1  0  0  0  0
 13 14  1  0  0  0  0
 14 15  2  0  0  0  0
 14 16  1  0  0  0  0
 16 17  1  0  0  0  0
 16 18  2  0  0  0  0
 17 39  1  0  0  0  0
 17 40  1  0  0  0  0
 17 41  1  0  0  0  0
 18 42  1  0  0  0  0
 19 20  1  0  0  0  0
 19 21  1  0  0  0  0
 19 43  1  0  0  0  0
 20 44  1  0  0  0  0
 20 45  1  0  0  0  0
 20 46  1  0  0  0  0
 21 22  1  0  0  0  0
 21 47  1  0  0  0  0
 22 23  1  0  0  0  0
 23 48  1  0  0  0  0
 23 49  1  0  0  0  0
 23 50  1  0  0  0  0
M  END
> <s_m_source_file>
AV-unprocessed.smi

> <i_m_source_file_index>
2424

> <i_lp_mmshare_version>
43012

> <i_f3d_flags>
0

> <s_epik_input>
W0NIM11PW0NAQEhdMVtDQEhdKFtDSDNdKVtDQEBIXShDMShbQ0gyXVtDSDNdKVtDSDJdW0NIM10pW05IXUMoPU8pW05IXWMyW2NIXVtuSF1jKD1PKWMoW0NIM10pW2NIXTI=

> <s_epik_cmdline>
J2VwaWtfcHl0aG9uJywgJy1waCcsICc3LjAnLCAnLXRuJywgJzgnLCAnLW1hJywgJzIwMCcsICctbWV0YWxfYmluZGluZycsICctaW1hZScsICc8aW5maWxlLm1hZT4nLCAnLW9tYWUnLCAnPG91dGZpbGUubWFlPic=

> <r_lp_tautomer_probability>
1

> <r_epik_Ionization_Penalty>
4.7326e-05

> <r_epik_Ionization_Penalty_Charging>
2.70169e-05

> <r_epik_Ionization_Penalty_Neutral>
2.0309e-05

> <r_epik_State_Penalty>
-0

> <r_epik_Charging_Adjusted_Penalty>
2.70169e-05

> <i_epik_Tot_Q>
0

> <i_epik_Tot_abs_Q>
0

> <r_epik_Metal_State_Penalty>
0.0198736

> <b_epik_Metal_Only>
0

> <s_lp_Force_Field>
OPLS_2005

> <r_lp_Energy>
37.0094

> <b_lp_Chiralities_Consistent>
1

> <s_lp_Variant>
AV-unprocessed.smi:2424-8

> <Gold.Version>
5.8.1

> <Gold.Id.Protein>
6NUR|6NUR_protein|mol2

> <Gold.PLP.Fitness>
40.8562

> <Gold.PLP.PLP>
-28.8312

> <Gold.PLP.part.hbond>
-4.1454

> <Gold.PLP.part.metal>
0.0000

> <Gold.PLP.part.buried>
-5.6861

> <Gold.PLP.part.nonpolar>
-21.4893

> <Gold.PLP.part.repulsive>
1.7679

> <Gold.PLP.ligand.clash>
0.0000

> <Gold.PLP.ligand.torsion>
1.1687

> <Gold.PLP.Chemscore.Hbond>
3.5537

> <Gold.PLP.Chemscore.CHOScore>
1.0000

> <Gold.PLP.Chemscore.Metal>
0.0000

> <Gold.Chemscore.Hbonds>
donor molecule, donor type, donor heavy atom, donor atom, acceptor molecule, acceptor atom, score
      L1  H     7    36       P1  7948  0.81
      L1  H    10    37       P1  7948  1.00
      L1  H    13    24       P1 10186  0.76
      P1  H 10785 10796       L1    15  1.00
      L1  C    12    38       P1 10171  0.86

> <Gold.PLP.Chemscore.Internal.Correction>
0.7012

> <Gold.Rescore>
     Score         DG    S(hbond)    S(metal)    S(lipo)     H(rot)  DE(clash)    DE(int)     intcor
     18.15     -21.69       3.71        0.00      66.43       1.55       1.71       1.83       ----

> <Gold.Chemscore.Fitness>
18.1520

> <Gold.Chemscore.DG>
-21.6890

> <Gold.Chemscore.ZeroCoef>
-5.4800

> <Gold.Chemscore.Hbond>
3.7142

> <Gold.Chemscore.Metal>
0.0000

> <Gold.Chemscore.Lipo>
66.4283

> <Gold.Chemscore.Internal_Hbond>
0.0000

> <Gold.Chemscore.DEClash>
1.7097

> <Gold.Chemscore.DEInternal>
1.8273

> <Gold.Chemscore.Rot>
1.5502

> <Gold.Chemscore.Internal.Correction>
   9.000000E+99

> <Gold.Chemscore.Hbonds>
donor molecule, donor type, donor heavy atom, donor atom, acceptor molecule, acceptor atom, score
      L1  H     7    36       P1  7948  0.76
      L1  H    10    37       P1  7948  0.98
      L1  H    13    24       P1 10186  0.71
      P1  H 10785 10796       L1    15  0.92

> <Gold.Chemscore.Hbond.Weighted>
-12.4054

> <Gold.Chemscore.Metal.Weighted>
-0.0000

> <Gold.Chemscore.Lipo.Weighted>
-7.7721

> <Gold.Chemscore.Internal_Hbond.Weighted>
0.0000

> <Gold.Chemscore.DEClash.Weighted>
1.7097

> <Gold.Chemscore.DEInternal.Weighted>
1.8273

> <Gold.Chemscore.Rot.Weighted>
3.9685

> <Gold.Chemscore.Internal.Correction.Weighted>
   9.000000E+99

> <Gold.Protein.RotatedTorsions>
[ 6907 6896 6895 6894 ] final  166.04 input  -60.11 | X-H torsion
[ 7974 7965 7964 7962 ] final   95.62 input  175.53 | X-H torsion
[ 8008 7997 7996 7995 ] final  136.41 input   59.86 | X-H torsion
[ 10167 10162 10161 10158 ] final  139.88 input  -65.29 | X-H torsion
[ 10718 10713 10712 10709 ] final -154.02 input   66.30 | X-H torsion
[ 10763 10752 10751 10750 ] final   42.24 input  -60.55 | X-H torsion
[ 11005 11000 10999 10996 ] final   74.16 input  -57.11 | X-H torsion

> <Gold.Protein.ActiveResidues>
 VAL166  LYS551  ARG553  GLY616  TRP617  ASP618  TYR619  PRO620  LYS621  CYS622 
 ASP623  PHE694  ASN695  SER759  ASP760  ASP761  ALA762  ILE779  LEU786  VAL792 
 PHE793  MET794  SER795  GLU796  ALA797  LYS798  CYS799  TRP800  GLU811  SER814 

> <Gold.Protein.RotatedAtoms>
  151.8851  133.3504  159.3779 H   0  0  0  0  0  0  0  0  0  0  0  0  # atno 6907 bound_to 6896
  150.7117  134.4979  159.5556 H   0  0  0  0  0  0  0  0  0  0  0  0  # atno 6908 bound_to 6896
  152.2539  134.8105  160.0492 H   0  0  0  0  0  0  0  0  0  0  0  0  # atno 6909 bound_to 6896
  145.4497  139.2294  143.3046 H   0  0  0  0  0  0  0  0  0  0  0  0  # atno 7974 bound_to 7965
  156.3004  140.2446  156.3741 H   0  0  0  0  0  0  0  0  0  0  0  0  # atno 8008 bound_to 7997
  154.8761  140.0414  157.1774 H   0  0  0  0  0  0  0  0  0  0  0  0  # atno 8009 bound_to 7997
  154.8744  140.2940  155.5466 H   0  0  0  0  0  0  0  0  0  0  0  0  # atno 8010 bound_to 7997
  139.5065  144.6268  151.5918 H   0  0  0  0  0  0  0  0  0  0  0  0  # atno 10167 bound_to 10162
  156.4936  130.8359  151.2580 H   0  0  0  0  0  0  0  0  0  0  0  0  # atno 10718 bound_to 10713
  152.9888  135.6138  154.2917 H   0  0  0  0  0  0  0  0  0  0  0  0  # atno 10763 bound_to 10752
  154.2642  135.2781  155.2767 H   0  0  0  0  0  0  0  0  0  0  0  0  # atno 10764 bound_to 10752
  154.5179  135.5823  153.6714 H   0  0  0  0  0  0  0  0  0  0  0  0  # atno 10765 bound_to 10752
  139.9405  134.7409  156.1113 H   0  0  0  0  0  0  0  0  0  0  0  0  # atno 11005 bound_to 11000
  146.2511  140.5255  142.8893 LP  0  0  0  0  0  0  0  0  0  0  0  0  # atno 17320 bound_to 7965
  144.8069  140.6316  143.6441 LP  0  0  0  0  0  0  0  0  0  0  0  0  # atno 17321 bound_to 7965
  140.5987  143.9649  150.6372 LP  0  0  0  0  0  0  0  0  0  0  0  0  # atno 17342 bound_to 10162
  140.2853  143.3361  152.1113 LP  0  0  0  0  0  0  0  0  0  0  0  0  # atno 17343 bound_to 10162
  157.7471  131.0005  150.2929 LP  0  0  0  0  0  0  0  0  0  0  0  0  # atno 17370 bound_to 10713
  156.3402  130.3814  149.7415 LP  0  0  0  0  0  0  0  0  0  0  0  0  # atno 17371 bound_to 10713
  141.1037  133.6668  156.2813 LP  0  0  0  0  0  0  0  0  0  0  0  0  # atno 17394 bound_to 11000
  140.5965  134.5598  157.5509 LP  0  0  0  0  0  0  0  0  0  0  0  0  # atno 17395 bound_to 11000

$$$$
