AV-unprocessed.smi:1655|AV-procd|sdf|6645|dock7
  -GOLD-   22720 7343D 1   1.00000     0.00000
 Structure written by MMmdl.
 34 35  0  0  0  0  0  0  0  0  1 V2000
  149.6529  124.0913  149.9024 C   0  0  0  0  0  0  0  0  0  0  0  0
  148.9416  125.2421  150.5279 C   0  0  0  0  0  0  0  0  0  0  0  0
  148.8485  126.5658  150.2013 C   0  0  0  0  0  0  0  0  0  0  0  0
  148.0140  127.0899  151.2241 C   0  0  0  0  0  0  0  0  0  0  0  0
  147.6675  128.4649  151.2468 N   0  0  0  0  0  0  0  0  0  0  0  0
  146.6901  129.0521  151.9580 C   0  0  0  0  0  0  0  0  0  0  0  0
  145.9182  128.4690  152.7202 O   0  0  0  0  0  0  0  0  0  0  0  0
  146.6547  130.3744  151.7378 N   0  0  0  0  0  0  0  0  0  0  0  0
  145.7180  131.3026  152.3606 C   0  0  0  0  0  0  0  0  0  0  0  0
  144.8066  131.9718  151.3183 C   0  0  0  0  0  0  0  0  0  0  0  0
  145.3859  133.2899  150.7841 C   0  0  1  0  0  0  0  0  0  0  0  0
  144.3638  134.1722  150.0673 C   0  0  0  0  0  0  0  0  0  0  0  0
  144.8921  135.5849  150.2738 C   0  0  0  0  0  0  0  0  0  0  0  0
  146.0085  135.4225  151.3083 C   0  0  0  0  0  0  0  0  0  0  0  0
  145.8187  134.1231  151.8479 O   0  0  0  0  0  0  0  0  0  0  0  0
  147.6327  126.1698  152.0968 N   0  0  0  0  0  0  0  0  0  0  0  0
  148.2256  124.9809  151.6553 O   0  0  0  0  0  0  0  0  0  0  0  0
  149.7852  124.2520  148.8324 H   0  0  0  0  0  0  0  0  0  0  0  0
  149.0920  123.1663  150.0372 H   0  0  0  0  0  0  0  0  0  0  0  0
  150.6382  123.9578  150.3491 H   0  0  0  0  0  0  0  0  0  0  0  0
  149.3052  127.0737  149.3649 H   0  0  0  0  0  0  0  0  0  0  0  0
  148.2260  129.0671  150.6605 H   0  0  0  0  0  0  0  0  0  0  0  0
  147.3254  130.7695  151.0952 H   0  0  0  0  0  0  0  0  0  0  0  0
  145.1161  130.7418  153.0759 H   0  0  0  0  0  0  0  0  0  0  0  0
  146.2613  132.0551  152.9349 H   0  0  0  0  0  0  0  0  0  0  0  0
  144.6541  131.2898  150.4809 H   0  0  0  0  0  0  0  0  0  0  0  0
  143.8220  132.1528  151.7513 H   0  0  0  0  0  0  0  0  0  0  0  0
  146.2304  133.0932  150.1209 H   0  0  0  0  0  0  0  0  0  0  0  0
  144.2555  133.9101  149.0146 H   0  0  0  0  0  0  0  0  0  0  0  0
  143.3839  134.0791  150.5375 H   0  0  0  0  0  0  0  0  0  0  0  0
  145.2773  136.0144  149.3485 H   0  0  0  0  0  0  0  0  0  0  0  0
  144.1010  136.2380  150.6440 H   0  0  0  0  0  0  0  0  0  0  0  0
  146.9870  135.4707  150.8280 H   0  0  0  0  0  0  0  0  0  0  0  0
  145.9735  136.1843  152.0873 H   0  0  0  0  0  0  0  0  0  0  0  0
  1  2  1  0  0  0  0
  1 18  1  0  0  0  0
  1 19  1  0  0  0  0
  1 20  1  0  0  0  0
  2 17  1  0  0  0  0
  2  3  2  0  0  0  0
  3  4  1  0  0  0  0
  3 21  1  0  0  0  0
  4  5  1  0  0  0  0
  4 16  2  0  0  0  0
  5  6  1  0  0  0  0
  5 22  1  0  0  0  0
  6  7  2  0  0  0  0
  6  8  1  0  0  0  0
  8  9  1  0  0  0  0
  8 23  1  0  0  0  0
  9 10  1  0  0  0  0
  9 24  1  0  0  0  0
  9 25  1  0  0  0  0
 10 11  1  0  0  0  0
 10 26  1  0  0  0  0
 10 27  1  0  0  0  0
 11 15  1  0  0  0  0
 11 12  1  0  0  0  0
 11 28  1  0  0  0  0
 12 13  1  0  0  0  0
 12 29  1  0  0  0  0
 12 30  1  0  0  0  0
 13 14  1  0  0  0  0
 13 31  1  0  0  0  0
 13 32  1  0  0  0  0
 14 15  1  0  0  0  0
 14 33  1  0  0  0  0
 14 34  1  0  0  0  0
 16 17  1  0  0  0  0
M  END
> <s_m_source_file>
AV-unprocessed.smi

> <i_m_source_file_index>
1655

> <i_lp_mmshare_version>
43012

> <i_f3d_flags>
0

> <s_epik_input>
W0NIM11jMVtjSF1jKG5vMSlbTkhdQyg9TylbTkhdW0NIMl1bQ0gyXVtDQEBIXTJbQ0gyXVtDSDJdW0NIMl1PMg==

> <s_epik_cmdline>
J2VwaWtfcHl0aG9uJywgJy1waCcsICc3LjAnLCAnLXRuJywgJzgnLCAnLW1hJywgJzIwMCcsICctbWV0YWxfYmluZGluZycsICctaW1hZScsICc8aW5maWxlLm1hZT4nLCAnLW9tYWUnLCAnPG91dGZpbGUubWFlPic=

> <r_lp_tautomer_probability>
1

> <r_epik_Ionization_Penalty>
2.23964e-05

> <r_epik_Ionization_Penalty_Charging>
0

> <r_epik_Ionization_Penalty_Neutral>
2.23964e-05

> <r_epik_State_Penalty>
-0

> <r_epik_Charging_Adjusted_Penalty>
0

> <i_epik_Tot_Q>
0

> <i_epik_Tot_abs_Q>
0

> <r_epik_Metal_State_Penalty>
-0

> <b_epik_Metal_Only>
0

> <s_lp_Force_Field>
OPLS_2005

> <r_lp_Energy>
15.0992

> <b_lp_Chiralities_Consistent>
1

> <s_lp_Variant>
AV-unprocessed.smi:1655-2

> <Gold.Version>
5.8.1

> <Gold.Id.Protein>
6NUR|6NUR_protein|mol2

> <Gold.PLP.Fitness>
37.4207

> <Gold.PLP.PLP>
-32.7293

> <Gold.PLP.part.hbond>
-2.5993

> <Gold.PLP.part.metal>
0.0000

> <Gold.PLP.part.buried>
-3.8392

> <Gold.PLP.part.nonpolar>
-25.6522

> <Gold.PLP.part.repulsive>
0.3896

> <Gold.PLP.ligand.clash>
0.0000

> <Gold.PLP.ligand.torsion>
0.3502

> <Gold.PLP.Chemscore.Hbond>
1.7920

> <Gold.PLP.Chemscore.CHOScore>
0.0000

> <Gold.PLP.Chemscore.Metal>
0.0000

> <Gold.Chemscore.Hbonds>
donor molecule, donor type, donor heavy atom, donor atom, acceptor molecule, acceptor atom, score
      L1  H     5    22       P1 10747  0.75
      L1  H     8    23       P1 10747  1.00

> <Gold.PLP.Chemscore.Internal.Correction>
0.0158

> <Gold.Rescore>
     Score         DG    S(hbond)    S(metal)    S(lipo)     H(rot)  DE(clash)    DE(int)     intcor
     11.44     -12.08       0.98        0.00      62.36       1.55       0.03       0.61       ----

> <Gold.Chemscore.Fitness>
11.4406

> <Gold.Chemscore.DG>
-12.0769

> <Gold.Chemscore.ZeroCoef>
-5.4800

> <Gold.Chemscore.Hbond>
0.9789

> <Gold.Chemscore.Metal>
0.0000

> <Gold.Chemscore.Lipo>
62.3603

> <Gold.Chemscore.Internal_Hbond>
0.0000

> <Gold.Chemscore.DEClash>
0.0270

> <Gold.Chemscore.DEInternal>
0.6092

> <Gold.Chemscore.Rot>
1.5503

> <Gold.Chemscore.Internal.Correction>
   9.000000E+99

> <Gold.Chemscore.Hbonds>
donor molecule, donor type, donor heavy atom, donor atom, acceptor molecule, acceptor atom, score
      L1  H     5    22       P1 10747  0.09
      L1  H     8    23       P1 10747  0.97

> <Gold.Chemscore.Hbond.Weighted>
-3.2695

> <Gold.Chemscore.Metal.Weighted>
-0.0000

> <Gold.Chemscore.Lipo.Weighted>
-7.2962

> <Gold.Chemscore.Internal_Hbond.Weighted>
0.0000

> <Gold.Chemscore.DEClash.Weighted>
0.0270

> <Gold.Chemscore.DEInternal.Weighted>
0.6092

> <Gold.Chemscore.Rot.Weighted>
3.9687

> <Gold.Chemscore.Internal.Correction.Weighted>
   9.000000E+99

> <Gold.Protein.RotatedTorsions>
[ 6907 6896 6895 6894 ] final  -56.13 input  -60.11 | X-H torsion
[ 7974 7965 7964 7962 ] final  -86.52 input  175.53 | X-H torsion
[ 8008 7997 7996 7995 ] final  -98.98 input   59.86 | X-H torsion
[ 10167 10162 10161 10158 ] final   45.88 input  -65.29 | X-H torsion
[ 10718 10713 10712 10709 ] final   66.29 input   66.30 | X-H torsion
[ 10763 10752 10751 10750 ] final  129.78 input  -60.55 | X-H torsion
[ 11005 11000 10999 10996 ] final  -90.80 input  -57.11 | X-H torsion

> <Gold.Protein.ActiveResidues>
 VAL166  LYS551  ARG553  GLY616  TRP617  ASP618  TYR619  PRO620  LYS621  CYS622 
 ASP623  PHE694  ASN695  SER759  ASP760  ASP761  ALA762  ILE779  LEU786  VAL792 
 PHE793  MET794  SER795  GLU796  ALA797  LYS798  CYS799  TRP800  GLU811  SER814 

> <Gold.Protein.RotatedAtoms>
  150.8193  134.7392  159.6757 H   0  0  0  0  0  0  0  0  0  0  0  0  # atno 6907 bound_to 6896
  152.4310  134.5774  159.9948 H   0  0  0  0  0  0  0  0  0  0  0  0  # atno 6908 bound_to 6896
  151.5963  133.3324  159.3074 H   0  0  0  0  0  0  0  0  0  0  0  0  # atno 6909 bound_to 6896
  145.4788  140.9557  143.1876 H   0  0  0  0  0  0  0  0  0  0  0  0  # atno 7974 bound_to 7965
  154.8085  140.0451  157.1325 H   0  0  0  0  0  0  0  0  0  0  0  0  # atno 8008 bound_to 7997
  154.9396  140.3051  155.5107 H   0  0  0  0  0  0  0  0  0  0  0  0  # atno 8009 bound_to 7997
  156.2969  140.2308  156.4463 H   0  0  0  0  0  0  0  0  0  0  0  0  # atno 8010 bound_to 7997
  140.3196  144.2721  150.6185 H   0  0  0  0  0  0  0  0  0  0  0  0  # atno 10167 bound_to 10162
  157.6160  130.9260  150.0089 H   0  0  0  0  0  0  0  0  0  0  0  0  # atno 10718 bound_to 10713
  153.7473  135.3215  155.3315 H   0  0  0  0  0  0  0  0  0  0  0  0  # atno 10763 bound_to 10752
  154.8275  135.4559  154.0967 H   0  0  0  0  0  0  0  0  0  0  0  0  # atno 10764 bound_to 10752
  153.2159  135.6942  153.8140 H   0  0  0  0  0  0  0  0  0  0  0  0  # atno 10765 bound_to 10752
  141.1558  133.7715  156.9789 H   0  0  0  0  0  0  0  0  0  0  0  0  # atno 11005 bound_to 11000
  144.7901  139.6345  143.7117 LP  0  0  0  0  0  0  0  0  0  0  0  0  # atno 17320 bound_to 7965
  146.2353  139.5894  142.9528 LP  0  0  0  0  0  0  0  0  0  0  0  0  # atno 17321 bound_to 7965
  140.5495  143.2209  151.7951 LP  0  0  0  0  0  0  0  0  0  0  0  0  # atno 17342 bound_to 10162
  139.4877  144.4495  151.9670 LP  0  0  0  0  0  0  0  0  0  0  0  0  # atno 17343 bound_to 10162
  156.1282  130.3644  149.9775 LP  0  0  0  0  0  0  0  0  0  0  0  0  # atno 17370 bound_to 10713
  156.7841  130.9232  151.3646 LP  0  0  0  0  0  0  0  0  0  0  0  0  # atno 17371 bound_to 10713
  140.1079  134.9495  157.2022 LP  0  0  0  0  0  0  0  0  0  0  0  0  # atno 17394 bound_to 11000
  140.3232  134.2893  155.7242 LP  0  0  0  0  0  0  0  0  0  0  0  0  # atno 17395 bound_to 11000

$$$$
