AV-unprocessed.smi:2743|AV-procd|sdf|10567|dock1
  -GOLD-   2272015 23D 1   1.00000     0.00000
 Structure written by MMmdl.
 39 40  0  0  0  0  0  0  0  0  2 V2000
  147.6571  136.9951  161.2749 N   0  0  0  0  0  0  0  0  0  0  0  0
  148.0621  136.7068  160.2298 C   0  0  0  0  0  0  0  0  0  0  0  0
  148.5797  136.3376  158.9030 C   0  0  0  0  0  0  0  0  0  0  0  0
  149.5421  137.3923  158.3671 C   0  0  0  0  0  0  0  0  0  0  0  0
  150.6667  137.5036  158.8542 O   0  0  0  0  0  0  0  0  0  0  0  0
  149.0736  138.1805  157.3866 N   0  0  0  0  0  0  0  0  0  0  0  0
  149.7679  139.3290  156.8038 C   0  0  0  0  0  0  0  0  0  0  0  0
  149.9627  139.1972  155.2626 C   0  0  0  0  0  0  0  0  0  0  0  0
  148.6579  139.6409  154.5602 C   0  0  0  0  0  0  0  0  0  0  0  0
  147.9259  138.7138  153.7749 C   0  0  0  0  0  0  0  0  0  0  0  0
  146.7581  139.1228  153.1011 C   0  0  0  0  0  0  0  0  0  0  0  0
  146.3382  140.4003  153.2000 N   0  3  0  0  0  0  0  0  0  0  0  0
  146.9955  141.3264  153.9271 C   0  0  0  0  0  0  0  0  0  0  0  0
  148.1692  140.9732  154.6228 C   0  0  0  0  0  0  0  0  0  0  0  0
  151.1280  140.1178  154.7912 C   0  0  0  0  0  0  0  0  0  0  0  0
  152.5230  139.6791  155.2744 C   0  0  0  0  0  0  0  0  0  0  0  0
  152.8286  138.2327  154.8725 C   0  0  0  0  0  0  0  0  0  0  0  0
  151.7353  137.2869  155.3789 C   0  0  0  0  0  0  0  0  0  0  0  0
  150.3454  137.7297  154.8874 C   0  0  0  0  0  0  0  0  0  0  0  0
  149.0837  135.3740  158.9848 H   0  0  0  0  0  0  0  0  0  0  0  0
  147.7371  136.2128  158.2223 H   0  0  0  0  0  0  0  0  0  0  0  0
  148.1397  138.0008  157.0464 H   0  0  0  0  0  0  0  0  0  0  0  0
  149.2355  140.2520  157.0388 H   0  0  0  0  0  0  0  0  0  0  0  0
  150.7235  139.4176  157.3177 H   0  0  0  0  0  0  0  0  0  0  0  0
  148.2590  137.6929  153.6641 H   0  0  0  0  0  0  0  0  0  0  0  0
  146.1571  138.4719  152.4829 H   0  0  0  0  0  0  0  0  0  0  0  0
  146.5710  142.3199  153.9255 H   0  0  0  0  0  0  0  0  0  0  0  0
  148.6755  141.7460  155.1793 H   0  0  0  0  0  0  0  0  0  0  0  0
  151.1407  140.1424  153.7003 H   0  0  0  0  0  0  0  0  0  0  0  0
  150.9684  141.1472  155.1111 H   0  0  0  0  0  0  0  0  0  0  0  0
  153.2801  140.3416  154.8539 H   0  0  0  0  0  0  0  0  0  0  0  0
  152.5986  139.7861  156.3564 H   0  0  0  0  0  0  0  0  0  0  0  0
  152.9009  138.1613  153.7864 H   0  0  0  0  0  0  0  0  0  0  0  0
  153.7985  137.9307  155.2685 H   0  0  0  0  0  0  0  0  0  0  0  0
  151.9406  136.2741  155.0306 H   0  0  0  0  0  0  0  0  0  0  0  0
  151.7581  137.2392  156.4675 H   0  0  0  0  0  0  0  0  0  0  0  0
  149.6038  137.0233  155.2615 H   0  0  0  0  0  0  0  0  0  0  0  0
  150.3432  137.6264  153.8012 H   0  0  0  0  0  0  0  0  0  0  0  0
  145.4928  140.6784  152.7006 H   0  0  0  0  0  0  0  0  0  0  0  0
  1  2  3  0  0  0  0
  2  3  1  0  0  0  0
  3  4  1  0  0  0  0
  3 20  1  0  0  0  0
  3 21  1  0  0  0  0
  4  5  2  0  0  0  0
  4  6  1  0  0  0  0
  6  7  1  0  0  0  0
  6 22  1  0  0  0  0
  7  8  1  0  0  0  0
  7 23  1  0  0  0  0
  7 24  1  0  0  0  0
  8 19  1  0  0  0  0
  8  9  1  0  0  0  0
  8 15  1  0  0  0  0
  9 14  1  0  0  0  0
  9 10  2  0  0  0  0
 10 11  1  0  0  0  0
 10 25  1  0  0  0  0
 11 12  2  0  0  0  0
 11 26  1  0  0  0  0
 12 13  1  0  0  0  0
 12 39  1  0  0  0  0
 13 14  2  0  0  0  0
 13 27  1  0  0  0  0
 14 28  1  0  0  0  0
 15 16  1  0  0  0  0
 15 29  1  0  0  0  0
 15 30  1  0  0  0  0
 16 17  1  0  0  0  0
 16 31  1  0  0  0  0
 16 32  1  0  0  0  0
 17 18  1  0  0  0  0
 17 33  1  0  0  0  0
 17 34  1  0  0  0  0
 18 19  1  0  0  0  0
 18 35  1  0  0  0  0
 18 36  1  0  0  0  0
 19 37  1  0  0  0  0
 19 38  1  0  0  0  0
M  CHG  1  12   1
M  END
> <s_m_source_file>
AV-unprocessed.smi

> <i_m_source_file_index>
2743

> <i_lp_mmshare_version>
43012

> <i_f3d_flags>
0

> <s_epik_input>
TiNDW0NIMl1DKD1PKVtOSF1bQ0gyXUMxKFtDSDJdW0NIMl1bQ0gyXVtDSDJdW0NIMl0xKWMyW2NIXVtjSF1uW2NIXVtjSF0y

> <s_epik_cmdline>
J2VwaWtfcHl0aG9uJywgJy1waCcsICc3LjAnLCAnLXRuJywgJzgnLCAnLW1hJywgJzIwMCcsICctbWV0YWxfYmluZGluZycsICctaW1hZScsICc8aW5maWxlLm1hZT4nLCAnLW9tYWUnLCAnPG91dGZpbGUubWFlPic=

> <r_epik_Ionization_Penalty>
1.44483

> <r_epik_Ionization_Penalty_Charging>
1.44483

> <r_epik_Ionization_Penalty_Neutral>
8.95364e-07

> <r_epik_State_Penalty>
1.53054

> <r_epik_Charging_Adjusted_Penalty>
2.97537

> <i_epik_Tot_Q>
1

> <i_epik_Tot_abs_Q>
1

> <r_epik_Metal_State_Penalty>
1.58148

> <b_epik_Metal_Only>
0

> <s_lp_Force_Field>
OPLS_2005

> <r_lp_Energy>
24.9332

> <b_lp_Chiralities_Consistent>
1

> <s_lp_Variant>
AV-unprocessed.smi:2743-2

> <Gold.Version>
5.8.1

> <Gold.Id.Protein>
6NUR|6NUR_protein|mol2

> <Gold.PLP.Fitness>
36.5511

> <Gold.PLP.PLP>
-26.1583

> <Gold.PLP.part.hbond>
-3.0000

> <Gold.PLP.part.metal>
0.0000

> <Gold.PLP.part.buried>
2.6333

> <Gold.PLP.part.nonpolar>
-27.3488

> <Gold.PLP.part.repulsive>
0.0535

> <Gold.PLP.ligand.clash>
0.0000

> <Gold.PLP.ligand.torsion>
0.5367

> <Gold.PLP.Chemscore.Hbond>
3.8080

> <Gold.PLP.Chemscore.CHOScore>
0.0000

> <Gold.PLP.Chemscore.Metal>
0.0000

> <Gold.Chemscore.Hbonds>
donor molecule, donor type, donor heavy atom, donor atom, acceptor molecule, acceptor atom, score
      L1  H    12    39       P1 10175  1.95
      P1  H  6931  6943       L1     1  1.00
      P1  H  6934  6947       L1     1  0.71

> <Gold.PLP.Chemscore.Internal.Correction>
0.0423

> <Gold.Rescore>
     Score         DG    S(hbond)    S(metal)    S(lipo)     H(rot)  DE(clash)    DE(int)     intcor
     12.65     -16.33       1.86        0.00      80.24       1.85       3.19       0.49       ----

> <Gold.Chemscore.Fitness>
12.6489

> <Gold.Chemscore.DG>
-16.3294

> <Gold.Chemscore.ZeroCoef>
-5.4800

> <Gold.Chemscore.Hbond>
1.8592

> <Gold.Chemscore.Metal>
0.0000

> <Gold.Chemscore.Lipo>
80.2441

> <Gold.Chemscore.Internal_Hbond>
0.0000

> <Gold.Chemscore.DEClash>
3.1904

> <Gold.Chemscore.DEInternal>
0.4901

> <Gold.Chemscore.Rot>
1.8550

> <Gold.Chemscore.Internal.Correction>
   9.000000E+99

> <Gold.Chemscore.Hbonds>
donor molecule, donor type, donor heavy atom, donor atom, acceptor molecule, acceptor atom, score
      L1  H    12    39       P1 10175  0.42
      P1  H  6931  6943       L1     1  0.33
      P1  H  6934  6947       L1     1  0.18

> <Gold.Chemscore.Hbond.Weighted>
-6.2096

> <Gold.Chemscore.Metal.Weighted>
-0.0000

> <Gold.Chemscore.Lipo.Weighted>
-9.3886

> <Gold.Chemscore.Internal_Hbond.Weighted>
0.0000

> <Gold.Chemscore.DEClash.Weighted>
3.1904

> <Gold.Chemscore.DEInternal.Weighted>
0.4901

> <Gold.Chemscore.Rot.Weighted>
4.7488

> <Gold.Chemscore.Internal.Correction.Weighted>
   9.000000E+99

> <Gold.Protein.RotatedTorsions>
[ 6907 6896 6895 6894 ] final   67.13 input  -60.11 | X-H torsion
[ 7974 7965 7964 7962 ] final  -76.17 input  175.53 | X-H torsion
[ 8008 7997 7996 7995 ] final -105.69 input   59.86 | X-H torsion
[ 10167 10162 10161 10158 ] final   46.71 input  -65.29 | X-H torsion
[ 10718 10713 10712 10709 ] final   75.31 input   66.30 | X-H torsion
[ 10763 10752 10751 10750 ] final    9.07 input  -60.55 | X-H torsion
[ 11005 11000 10999 10996 ] final  174.03 input  -57.11 | X-H torsion

> <Gold.Protein.ActiveResidues>
 VAL166  LYS551  ARG553  GLY616  TRP617  ASP618  TYR619  PRO620  LYS621  CYS622 
 ASP623  PHE694  ASN695  SER759  ASP760  ASP761  ALA762  ILE779  LEU786  VAL792 
 PHE793  MET794  SER795  GLU796  ALA797  LYS798  CYS799  TRP800  GLU811  SER814 

> <Gold.Protein.RotatedAtoms>
  152.4530  134.5352  159.9822 H   0  0  0  0  0  0  0  0  0  0  0  0  # atno 6907 bound_to 6896
  151.5419  133.3425  159.2945 H   0  0  0  0  0  0  0  0  0  0  0  0  # atno 6908 bound_to 6896
  150.8465  134.7807  159.7038 H   0  0  0  0  0  0  0  0  0  0  0  0  # atno 6909 bound_to 6896
  145.6164  140.9374  143.1161 H   0  0  0  0  0  0  0  0  0  0  0  0  # atno 7974 bound_to 7965
  154.9035  140.0412  157.1906 H   0  0  0  0  0  0  0  0  0  0  0  0  # atno 8008 bound_to 7997
  154.8420  140.2916  155.5632 H   0  0  0  0  0  0  0  0  0  0  0  0  # atno 8009 bound_to 7997
  156.2992  140.2481  156.3364 H   0  0  0  0  0  0  0  0  0  0  0  0  # atno 8010 bound_to 7997
  140.3111  144.2819  150.6199 H   0  0  0  0  0  0  0  0  0  0  0  0  # atno 10167 bound_to 10162
  157.6629  130.9720  150.1335 H   0  0  0  0  0  0  0  0  0  0  0  0  # atno 10718 bound_to 10713
  153.2181  135.6877  153.8033 H   0  0  0  0  0  0  0  0  0  0  0  0  # atno 10763 bound_to 10752
  153.7242  135.3262  155.3274 H   0  0  0  0  0  0  0  0  0  0  0  0  # atno 10764 bound_to 10752
  154.8256  135.4620  154.1017 H   0  0  0  0  0  0  0  0  0  0  0  0  # atno 10765 bound_to 10752
  140.3469  134.7228  157.4241 H   0  0  0  0  0  0  0  0  0  0  0  0  # atno 11005 bound_to 11000
  144.7249  139.7909  143.7368 LP  0  0  0  0  0  0  0  0  0  0  0  0  # atno 17320 bound_to 7965
  146.1465  139.4535  143.0076 LP  0  0  0  0  0  0  0  0  0  0  0  0  # atno 17321 bound_to 7965
  140.5567  143.2198  151.7835 LP  0  0  0  0  0  0  0  0  0  0  0  0  # atno 17342 bound_to 10162
  139.4893  144.4404  151.9771 LP  0  0  0  0  0  0  0  0  0  0  0  0  # atno 17343 bound_to 10162
  156.2176  130.3671  149.8595 LP  0  0  0  0  0  0  0  0  0  0  0  0  # atno 17370 bound_to 10713
  156.6456  130.8723  151.3522 LP  0  0  0  0  0  0  0  0  0  0  0  0  # atno 17371 bound_to 10713
  140.0735  134.5830  155.8617 LP  0  0  0  0  0  0  0  0  0  0  0  0  # atno 17394 bound_to 11000
  141.2023  133.6624  156.5998 LP  0  0  0  0  0  0  0  0  0  0  0  0  # atno 17395 bound_to 11000

$$$$
