AV-unprocessed.smi:2032|AV-procd|sdf|8256|dock8
  -GOLD-   2272010533D 1   1.00000     0.00000
 Structure written by MMmdl.
 42 43  0  0  0  0  0  0  0  0  3 V2000
  148.4980  133.2718  152.9422 C   0  0  0  0  0  0  0  0  0  0  0  0
  146.9757  133.0846  153.0710 C   0  0  1  0  0  0  0  0  0  0  0  0
  146.2008  134.4086  153.2010 C   0  0  0  0  0  0  0  0  0  0  0  0
  146.1627  135.1506  151.9124 N   0  3  2  0  0  0  0  0  0  0  0  0
  145.5316  136.5022  152.0535 C   0  0  2  0  0  0  0  0  0  0  0  0
  146.1310  137.3572  153.1962 C   0  0  0  0  0  0  0  0  0  0  0  0
  143.9998  136.3482  152.2444 C   0  0  0  0  0  0  0  0  0  0  0  0
  143.3826  137.5184  152.8603 N   0  0  0  0  0  0  0  0  0  0  0  0
  142.2763  137.5091  153.6168 C   0  0  0  0  0  0  0  0  0  0  0  0
  141.7069  136.4421  153.8588 O   0  0  0  0  0  0  0  0  0  0  0  0
  141.8960  138.7360  154.0373 N   0  5  0  0  0  0  0  0  0  0  0  0
  140.6260  139.1398  153.8712 C   0  0  0  0  0  0  0  0  0  0  0  0
  140.2115  140.3801  154.1538 N   0  0  0  0  0  0  0  0  0  0  0  0
  138.8542  140.5837  153.8976 C   0  0  0  0  0  0  0  0  0  0  0  0
  138.2220  139.4746  153.4017 C   0  0  0  0  0  0  0  0  0  0  0  0
  139.3196  138.1336  153.2393 S   0  0  0  0  0  0  0  0  0  0  0  0
  145.5980  134.2700  150.8550 C   0  0  0  0  0  0  0  0  0  0  0  0
  146.3974  132.9577  150.7478 C   0  0  2  0  0  0  0  0  0  0  0  0
  145.7773  131.9902  149.7333 C   0  0  0  0  0  0  0  0  0  0  0  0
  146.4289  132.3027  152.0113 O   0  0  0  0  0  0  0  0  0  0  0  0
  148.9024  133.7583  153.8305 H   0  0  0  0  0  0  0  0  0  0  0  0
  148.7703  133.8881  152.0857 H   0  0  0  0  0  0  0  0  0  0  0  0
  149.0005  132.3102  152.8370 H   0  0  0  0  0  0  0  0  0  0  0  0
  146.8069  132.5122  153.9835 H   0  0  0  0  0  0  0  0  0  0  0  0
  145.1775  134.1981  153.5170 H   0  0  0  0  0  0  0  0  0  0  0  0
  146.6478  135.0066  153.9935 H   0  0  0  0  0  0  0  0  0  0  0  0
  145.7210  137.0484  151.1280 H   0  0  0  0  0  0  0  0  0  0  0  0
  145.6348  138.3243  153.2766 H   0  0  0  0  0  0  0  0  0  0  0  0
  147.1848  137.5810  153.0299 H   0  0  0  0  0  0  0  0  0  0  0  0
  146.0326  136.8599  154.1617 H   0  0  0  0  0  0  0  0  0  0  0  0
  143.4873  136.1488  151.3040 H   0  0  0  0  0  0  0  0  0  0  0  0
  143.7939  135.4896  152.8843 H   0  0  0  0  0  0  0  0  0  0  0  0
  143.8210  138.4122  152.6910 H   0  0  0  0  0  0  0  0  0  0  0  0
  138.4204  141.5521  154.0977 H   0  0  0  0  0  0  0  0  0  0  0  0
  137.1853  139.3646  153.1221 H   0  0  0  0  0  0  0  0  0  0  0  0
  144.5487  134.0639  151.0732 H   0  0  0  0  0  0  0  0  0  0  0  0
  145.6415  134.7556  149.8806 H   0  0  0  0  0  0  0  0  0  0  0  0
  147.4148  133.1765  150.4229 H   0  0  0  0  0  0  0  0  0  0  0  0
  145.7391  132.4340  148.7381 H   0  0  0  0  0  0  0  0  0  0  0  0
  144.7606  131.7176  150.0173 H   0  0  0  0  0  0  0  0  0  0  0  0
  146.3611  131.0718  149.6643 H   0  0  0  0  0  0  0  0  0  0  0  0
  147.1208  135.3212  151.6425 H   0  0  0  0  0  0  0  0  0  0  0  0
  1  2  1  0  0  0  0
  1 21  1  0  0  0  0
  1 22  1  0  0  0  0
  1 23  1  0  0  0  0
  2 20  1  0  0  0  0
  2  3  1  0  0  0  0
  2 24  1  0  0  0  0
  3  4  1  0  0  0  0
  3 25  1  0  0  0  0
  3 26  1  0  0  0  0
  4  5  1  0  0  0  0
  4 17  1  0  0  0  0
  4 42  1  0  0  0  0
  5  6  1  0  0  0  0
  5  7  1  0  0  0  0
  5 27  1  0  0  0  0
  6 28  1  0  0  0  0
  6 29  1  0  0  0  0
  6 30  1  0  0  0  0
  7  8  1  0  0  0  0
  7 31  1  0  0  0  0
  7 32  1  0  0  0  0
  8  9  1  0  0  0  0
  8 33  1  0  0  0  0
  9 10  2  0  0  0  0
  9 11  1  0  0  0  0
 11 12  1  0  0  0  0
 12 16  1  0  0  0  0
 12 13  2  0  0  0  0
 13 14  1  0  0  0  0
 14 15  2  0  0  0  0
 14 34  1  0  0  0  0
 15 16  1  0  0  0  0
 15 35  1  0  0  0  0
 17 18  1  0  0  0  0
 17 36  1  0  0  0  0
 17 37  1  0  0  0  0
 18 19  1  0  0  0  0
 18 20  1  0  0  0  0
 18 38  1  0  0  0  0
 19 39  1  0  0  0  0
 19 40  1  0  0  0  0
 19 41  1  0  0  0  0
M  CHG  1   4   1
M  CHG  1  11  -1
M  END
> <s_m_source_file>
AV-unprocessed.smi

> <i_m_source_file_index>
2032

> <i_lp_mmshare_version>
43012

> <i_f3d_flags>
0

> <s_epik_input>
W0NIM11bQ0BASF0xW0NIMl1OKFtDSDJdW0NASF0oTzEpW0NIM10pW0NASF0oW0NIM10pW0NIMl1bTkhdQyg9TylbTkhdYzJuW2NIXVtjSF1zMg==

> <s_epik_cmdline>
J2VwaWtfcHl0aG9uJywgJy1waCcsICc3LjAnLCAnLXRuJywgJzgnLCAnLW1hJywgJzIwMCcsICctbWV0YWxfYmluZGluZycsICctaW1hZScsICc8aW5maWxlLm1hZT4nLCAnLW9tYWUnLCAnPG91dGZpbGUubWFlPic=

> <r_lp_tautomer_probability>
0.999

> <r_epik_Ionization_Penalty>
6.71699

> <r_epik_Ionization_Penalty_Charging>
5.88592

> <r_epik_Ionization_Penalty_Neutral>
0.831074

> <r_epik_State_Penalty>
6.08365

> <r_epik_Charging_Adjusted_Penalty>
11.9696

> <i_epik_Tot_Q>
0

> <i_epik_Tot_abs_Q>
2

> <r_epik_Metal_State_Penalty>
2.0947

> <b_epik_Metal_Only>
1

> <s_lp_Force_Field>
OPLS_2005

> <r_lp_Energy>
13.0478

> <b_lp_Chiralities_Consistent>
1

> <s_lp_Variant>
AV-unprocessed.smi:2032-26

> <Gold.Version>
5.8.1

> <Gold.Id.Protein>
6NUR|6NUR_protein|mol2

> <Gold.PLP.Fitness>
40.4191

> <Gold.PLP.PLP>
-33.5286

> <Gold.PLP.part.hbond>
-2.3188

> <Gold.PLP.part.metal>
0.0000

> <Gold.PLP.part.buried>
-4.9385

> <Gold.PLP.part.nonpolar>
-28.3697

> <Gold.PLP.part.repulsive>
2.2199

> <Gold.PLP.ligand.clash>
0.0000

> <Gold.PLP.ligand.torsion>
0.9626

> <Gold.PLP.Chemscore.Hbond>
2.9051

> <Gold.PLP.Chemscore.CHOScore>
0.0000

> <Gold.PLP.Chemscore.Metal>
0.0000

> <Gold.Chemscore.Hbonds>
donor molecule, donor type, donor heavy atom, donor atom, acceptor molecule, acceptor atom, score
      L1  H     4    42       P1  7948  2.00
      L1  H     8    33       P1 10175  0.95

> <Gold.PLP.Chemscore.Internal.Correction>
0.1005

> <Gold.Rescore>
     Score         DG    S(hbond)    S(metal)    S(lipo)     H(rot)  DE(clash)    DE(int)     intcor
     14.09     -16.28       1.89        0.00      72.95       1.58       0.00       2.19       ----

> <Gold.Chemscore.Fitness>
14.0891

> <Gold.Chemscore.DG>
-16.2814

> <Gold.Chemscore.ZeroCoef>
-5.4800

> <Gold.Chemscore.Hbond>
1.8887

> <Gold.Chemscore.Metal>
0.0000

> <Gold.Chemscore.Lipo>
72.9533

> <Gold.Chemscore.Internal_Hbond>
0.0000

> <Gold.Chemscore.DEClash>
0.0025

> <Gold.Chemscore.DEInternal>
2.1897

> <Gold.Chemscore.Rot>
1.5791

> <Gold.Chemscore.Internal.Correction>
   9.000000E+99

> <Gold.Chemscore.Hbonds>
donor molecule, donor type, donor heavy atom, donor atom, acceptor molecule, acceptor atom, score
      L1  H     4    42       P1  7948  0.91
      L1  H     8    33       P1 10175  0.85

> <Gold.Chemscore.Hbond.Weighted>
-6.3083

> <Gold.Chemscore.Metal.Weighted>
-0.0000

> <Gold.Chemscore.Lipo.Weighted>
-8.5355

> <Gold.Chemscore.Internal_Hbond.Weighted>
0.0000

> <Gold.Chemscore.DEClash.Weighted>
0.0025

> <Gold.Chemscore.DEInternal.Weighted>
2.1897

> <Gold.Chemscore.Rot.Weighted>
4.0425

> <Gold.Chemscore.Internal.Correction.Weighted>
   9.000000E+99

> <Gold.Protein.RotatedTorsions>
[ 6907 6896 6895 6894 ] final -101.23 input  -60.11 | X-H torsion
[ 7974 7965 7964 7962 ] final  147.41 input  175.53 | X-H torsion
[ 8008 7997 7996 7995 ] final  158.81 input   59.86 | X-H torsion
[ 10167 10162 10161 10158 ] final  169.06 input  -65.29 | X-H torsion
[ 10718 10713 10712 10709 ] final  176.70 input   66.30 | X-H torsion
[ 10763 10752 10751 10750 ] final   -5.55 input  -60.55 | X-H torsion
[ 11005 11000 10999 10996 ] final   87.16 input  -57.11 | X-H torsion

> <Gold.Protein.ActiveResidues>
 VAL166  LYS551  ARG553  GLY616  TRP617  ASP618  TYR619  PRO620  LYS621  CYS622 
 ASP623  PHE694  ASN695  SER759  ASP760  ASP761  ALA762  ILE779  LEU786  VAL792 
 PHE793  MET794  SER795  GLU796  ALA797  LYS798  CYS799  TRP800  GLU811  SER814 

> <Gold.Protein.RotatedAtoms>
  150.7146  134.0765  159.3882 H   0  0  0  0  0  0  0  0  0  0  0  0  # atno 6907 bound_to 6896
  151.8749  135.0473  160.0492 H   0  0  0  0  0  0  0  0  0  0  0  0  # atno 6908 bound_to 6896
  152.2614  133.5265  159.5420 H   0  0  0  0  0  0  0  0  0  0  0  0  # atno 6909 bound_to 6896
  144.8594  139.6025  143.5937 H   0  0  0  0  0  0  0  0  0  0  0  0  # atno 7974 bound_to 7965
  156.2279  140.1848  156.7317 H   0  0  0  0  0  0  0  0  0  0  0  0  # atno 8008 bound_to 7997
  154.5972  140.0641  156.9347 H   0  0  0  0  0  0  0  0  0  0  0  0  # atno 8009 bound_to 7997
  155.2236  140.3309  155.4315 H   0  0  0  0  0  0  0  0  0  0  0  0  # atno 8010 bound_to 7997
  139.4983  144.3747  151.9687 H   0  0  0  0  0  0  0  0  0  0  0  0  # atno 10167 bound_to 10162
  156.9163  130.9926  151.3012 H   0  0  0  0  0  0  0  0  0  0  0  0  # atno 10718 bound_to 10713
  153.4001  135.7004  153.6432 H   0  0  0  0  0  0  0  0  0  0  0  0  # atno 10763 bound_to 10752
  153.4969  135.3660  155.2521 H   0  0  0  0  0  0  0  0  0  0  0  0  # atno 10764 bound_to 10752
  154.8710  135.4102  154.3334 H   0  0  0  0  0  0  0  0  0  0  0  0  # atno 10765 bound_to 10752
  139.8926  134.8403  156.2820 H   0  0  0  0  0  0  0  0  0  0  0  0  # atno 11005 bound_to 11000
  146.2848  139.6975  142.9203 LP  0  0  0  0  0  0  0  0  0  0  0  0  # atno 17320 bound_to 7965
  145.4342  141.0417  143.2893 LP  0  0  0  0  0  0  0  0  0  0  0  0  # atno 17321 bound_to 7965
  140.3183  144.3457  150.6016 LP  0  0  0  0  0  0  0  0  0  0  0  0  # atno 17342 bound_to 10162
  140.5743  143.2178  151.7543 LP  0  0  0  0  0  0  0  0  0  0  0  0  # atno 17343 bound_to 10162
  157.5936  130.8461  149.8695 LP  0  0  0  0  0  0  0  0  0  0  0  0  # atno 17370 bound_to 10713
  156.0512  130.3717  150.1197 LP  0  0  0  0  0  0  0  0  0  0  0  0  # atno 17371 bound_to 10713
  141.0032  133.7139  156.0993 LP  0  0  0  0  0  0  0  0  0  0  0  0  # atno 17394 bound_to 11000
  140.7469  134.4088  157.5547 LP  0  0  0  0  0  0  0  0  0  0  0  0  # atno 17395 bound_to 11000

$$$$
