AV-unprocessed.smi:2604|AV-procd|sdf|10191|dock10
  -GOLD-   2272014203D 1   1.00000     0.00000
 Structure written by MMmdl.
 26 27  0  0  0  0  0  0  0  0  2 V2000
  148.6367  141.1407  154.7056 C   0  0  0  0  0  0  0  0  0  0  0  0
  149.4849  140.1359  154.2001 C   0  0  0  0  0  0  0  0  0  0  0  0
  150.7259  139.9059  154.6793 N   0  0  0  0  0  0  0  0  0  0  0  0
  151.1668  140.6798  155.6939 C   0  0  0  0  0  0  0  0  0  0  0  0
  150.4002  141.7135  156.2758 C   0  0  0  0  0  0  0  0  0  0  0  0
  150.9695  142.5521  157.4096 C   0  0  2  0  0  0  0  0  0  0  0  0
  149.9900  142.7059  158.5962 C   0  0  0  0  0  0  0  0  0  0  0  0
  150.6141  143.4874  159.6594 N   0  0  0  0  0  0  0  0  0  0  0  0
  150.9149  144.8223  159.1510 C   0  0  0  0  0  0  0  0  0  0  0  0
  151.9214  144.7233  157.9892 C   0  0  0  0  0  0  0  0  0  0  0  0
  151.3674  143.8846  156.9068 N   0  3  0  0  0  0  0  0  0  0  0  0
  149.1043  141.9438  155.7633 C   0  0  0  0  0  0  0  0  0  0  0  0
  147.6516  141.2922  154.2895 H   0  0  0  0  0  0  0  0  0  0  0  0
  149.1598  139.5030  153.3875 H   0  0  0  0  0  0  0  0  0  0  0  0
  152.1650  140.4677  156.0479 H   0  0  0  0  0  0  0  0  0  0  0  0
  151.8715  142.0547  157.7716 H   0  0  0  0  0  0  0  0  0  0  0  0
  149.0603  143.1873  158.2903 H   0  0  0  0  0  0  0  0  0  0  0  0
  149.7270  141.7250  158.9935 H   0  0  0  0  0  0  0  0  0  0  0  0
  149.9804  143.5581  160.4438 H   0  0  0  0  0  0  0  0  0  0  0  0
  149.9964  145.3164  158.8306 H   0  0  0  0  0  0  0  0  0  0  0  0
  151.3353  145.4212  159.9592 H   0  0  0  0  0  0  0  0  0  0  0  0
  152.1435  145.7143  157.5934 H   0  0  0  0  0  0  0  0  0  0  0  0
  152.8650  144.2973  158.3336 H   0  0  0  0  0  0  0  0  0  0  0  0
  152.0579  143.7769  156.1777 H   0  0  0  0  0  0  0  0  0  0  0  0
  148.4771  142.7263  156.1642 H   0  0  0  0  0  0  0  0  0  0  0  0
  150.5525  144.3438  156.5264 H   0  0  0  0  0  0  0  0  0  0  0  0
  1 12  1  0  0  0  0
  1  2  2  0  0  0  0
  1 13  1  0  0  0  0
  2  3  1  0  0  0  0
  2 14  1  0  0  0  0
  3  4  2  0  0  0  0
  4  5  1  0  0  0  0
  4 15  1  0  0  0  0
  5  6  1  0  0  0  0
  5 12  2  0  0  0  0
  6 11  1  0  0  0  0
  6  7  1  0  0  0  0
  6 16  1  0  0  0  0
  7  8  1  0  0  0  0
  7 17  1  0  0  0  0
  7 18  1  0  0  0  0
  8  9  1  0  0  0  0
  8 19  1  0  0  0  0
  9 10  1  0  0  0  0
  9 20  1  0  0  0  0
  9 21  1  0  0  0  0
 10 11  1  0  0  0  0
 10 22  1  0  0  0  0
 10 23  1  0  0  0  0
 11 24  1  0  0  0  0
 11 26  1  0  0  0  0
 12 25  1  0  0  0  0
M  CHG  1  11   1
M  END
> <s_m_source_file>
AV-unprocessed.smi

> <i_m_source_file_index>
2604

> <i_lp_mmshare_version>
43012

> <i_f3d_flags>
0

> <s_epik_input>
W2NIXTFbY0hdW2NIXW5bY0hdYzFbQ0BASF0yW0NIMl1bTkhdW0NIMl1bQ0gyXVtOSF0y

> <s_epik_cmdline>
J2VwaWtfcHl0aG9uJywgJy1waCcsICc3LjAnLCAnLXRuJywgJzgnLCAnLW1hJywgJzIwMCcsICctbWV0YWxfYmluZGluZycsICctaW1hZScsICc8aW5maWxlLm1hZT4nLCAnLW9tYWUnLCAnPG91dGZpbGUubWFlPic=

> <r_epik_Ionization_Penalty>
0.0278512

> <r_epik_Ionization_Penalty_Charging>
0.015072

> <r_epik_Ionization_Penalty_Neutral>
0.0127792

> <r_epik_State_Penalty>
0.548815

> <r_epik_Charging_Adjusted_Penalty>
0.563887

> <i_epik_Tot_Q>
1

> <i_epik_Tot_abs_Q>
1

> <r_epik_Metal_State_Penalty>
0.542887

> <b_epik_Metal_Only>
0

> <s_lp_Force_Field>
OPLS_2005

> <r_lp_Energy>
7.72855

> <b_lp_Chiralities_Consistent>
1

> <s_lp_Variant>
AV-unprocessed.smi:2604-3

> <Gold.Version>
5.8.1

> <Gold.Id.Protein>
6NUR|6NUR_protein|mol2

> <Gold.PLP.Fitness>
34.8695

> <Gold.PLP.PLP>
-25.2760

> <Gold.PLP.part.hbond>
-2.7174

> <Gold.PLP.part.metal>
0.0000

> <Gold.PLP.part.buried>
1.5279

> <Gold.PLP.part.nonpolar>
-23.1120

> <Gold.PLP.part.repulsive>
0.0873

> <Gold.PLP.ligand.clash>
0.0000

> <Gold.PLP.ligand.torsion>
0.3261

> <Gold.PLP.Chemscore.Hbond>
2.5525

> <Gold.PLP.Chemscore.CHOScore>
0.8587

> <Gold.PLP.Chemscore.Metal>
0.0000

> <Gold.Chemscore.Hbonds>
donor molecule, donor type, donor heavy atom, donor atom, acceptor molecule, acceptor atom, score
      L1  H    11    26       P1  8028  2.00
      P1  H  7989  7998       L1     3  0.49
      L1  C     2    14       P1  7957  0.84

> <Gold.PLP.Chemscore.Internal.Correction>
0.0121

> <Gold.Rescore>
     Score         DG    S(hbond)    S(metal)    S(lipo)     H(rot)  DE(clash)    DE(int)     intcor
     13.76     -14.46       1.00        0.00      70.21       1.00       0.37       0.33       ----

> <Gold.Chemscore.Fitness>
13.7560

> <Gold.Chemscore.DG>
-14.4588

> <Gold.Chemscore.ZeroCoef>
-5.4800

> <Gold.Chemscore.Hbond>
0.9953

> <Gold.Chemscore.Metal>
0.0000

> <Gold.Chemscore.Lipo>
70.2085

> <Gold.Chemscore.Internal_Hbond>
0.0000

> <Gold.Chemscore.DEClash>
0.3728

> <Gold.Chemscore.DEInternal>
0.3299

> <Gold.Chemscore.Rot>
1.0000

> <Gold.Chemscore.Internal.Correction>
   9.000000E+99

> <Gold.Chemscore.Hbonds>
donor molecule, donor type, donor heavy atom, donor atom, acceptor molecule, acceptor atom, score
      L1  H    11    26       P1  8028  1.00
      P1  H  7989  7998       L1     3  0.01

> <Gold.Chemscore.Hbond.Weighted>
-3.3244

> <Gold.Chemscore.Metal.Weighted>
-0.0000

> <Gold.Chemscore.Lipo.Weighted>
-8.2144

> <Gold.Chemscore.Internal_Hbond.Weighted>
0.0000

> <Gold.Chemscore.DEClash.Weighted>
0.3728

> <Gold.Chemscore.DEInternal.Weighted>
0.3299

> <Gold.Chemscore.Rot.Weighted>
2.5600

> <Gold.Chemscore.Internal.Correction.Weighted>
   9.000000E+99

> <Gold.Protein.RotatedTorsions>
[ 6907 6896 6895 6894 ] final  108.26 input  -60.11 | X-H torsion
[ 7974 7965 7964 7962 ] final  -36.47 input  175.53 | X-H torsion
[ 8008 7997 7996 7995 ] final  -57.28 input   59.86 | X-H torsion
[ 10167 10162 10161 10158 ] final -117.92 input  -65.29 | X-H torsion
[ 10718 10713 10712 10709 ] final    7.98 input   66.30 | X-H torsion
[ 10763 10752 10751 10750 ] final  133.88 input  -60.55 | X-H torsion
[ 11005 11000 10999 10996 ] final  157.54 input  -57.11 | X-H torsion

> <Gold.Protein.ActiveResidues>
 VAL166  LYS551  ARG553  GLY616  TRP617  ASP618  TYR619  PRO620  LYS621  CYS622 
 ASP623  PHE694  ASN695  SER759  ASP760  ASP761  ALA762  ILE779  LEU786  VAL792 
 PHE793  MET794  SER795  GLU796  ALA797  LYS798  CYS799  TRP800  GLU811  SER814 

> <Gold.Protein.RotatedAtoms>
  152.5119  133.9114  159.7489 H   0  0  0  0  0  0  0  0  0  0  0  0  # atno 6907 bound_to 6896
  150.9507  133.6544  159.2779 H   0  0  0  0  0  0  0  0  0  0  0  0  # atno 6908 bound_to 6896
  151.3824  135.0947  159.9553 H   0  0  0  0  0  0  0  0  0  0  0  0  # atno 6909 bound_to 6896
  146.0659  140.6282  142.8975 H   0  0  0  0  0  0  0  0  0  0  0  0  # atno 7974 bound_to 7965
  154.4262  140.1110  156.5773 H   0  0  0  0  0  0  0  0  0  0  0  0  # atno 8008 bound_to 7997
  155.6149  140.3494  155.4615 H   0  0  0  0  0  0  0  0  0  0  0  0  # atno 8009 bound_to 7997
  156.0070  140.1211  157.0481 H   0  0  0  0  0  0  0  0  0  0  0  0  # atno 8010 bound_to 7997
  140.0631  143.4948  152.2021 H   0  0  0  0  0  0  0  0  0  0  0  0  # atno 10167 bound_to 10162
  156.9448  130.5875  149.5654 H   0  0  0  0  0  0  0  0  0  0  0  0  # atno 10718 bound_to 10713
  153.8144  135.3124  155.3404 H   0  0  0  0  0  0  0  0  0  0  0  0  # atno 10763 bound_to 10752
  154.8038  135.4710  154.0344 H   0  0  0  0  0  0  0  0  0  0  0  0  # atno 10764 bound_to 10752
  153.1733  135.6881  153.8667 H   0  0  0  0  0  0  0  0  0  0  0  0  # atno 10765 bound_to 10752
  140.1779  134.8496  157.2768 H   0  0  0  0  0  0  0  0  0  0  0  0  # atno 11005 bound_to 11000
  144.7202  140.4347  143.7014 LP  0  0  0  0  0  0  0  0  0  0  0  0  # atno 17320 bound_to 7965
  145.6478  139.1560  143.2879 LP  0  0  0  0  0  0  0  0  0  0  0  0  # atno 17321 bound_to 7965
  139.5881  144.7539  151.3468 LP  0  0  0  0  0  0  0  0  0  0  0  0  # atno 17342 bound_to 10162
  140.7162  143.7260  150.7660 LP  0  0  0  0  0  0  0  0  0  0  0  0  # atno 17343 bound_to 10162
  156.0388  130.5473  150.8720 LP  0  0  0  0  0  0  0  0  0  0  0  0  # atno 17370 bound_to 10713
  157.5761  131.0946  150.9344 LP  0  0  0  0  0  0  0  0  0  0  0  0  # atno 17371 bound_to 10713
  140.2301  134.3919  155.7526 LP  0  0  0  0  0  0  0  0  0  0  0  0  # atno 17394 bound_to 11000
  141.2221  133.7210  156.8627 LP  0  0  0  0  0  0  0  0  0  0  0  0  # atno 17395 bound_to 11000

$$$$
