AV-unprocessed.smi:186|AV-procd|sdf|1466|dock1
  -GOLD-   2262019273D 1   1.00000     0.00000
 Structure written by MMmdl.
 48 51  0  0  0  0  0  0  0  0  1 V2000
  151.6375  144.3992  160.5685 C   0  0  0  0  0  0  0  0  0  0  0  0
  152.4965  144.4874  159.4454 O   0  0  0  0  0  0  0  0  0  0  0  0
  151.7856  144.4898  158.2166 C   0  0  0  0  0  0  0  0  0  0  0  0
  151.3793  143.0606  157.8528 C   0  0  0  0  0  0  0  0  0  0  0  0
  151.8317  142.0977  158.4731 O   0  0  0  0  0  0  0  0  0  0  0  0
  150.5178  142.9366  156.8331 N   0  0  0  0  0  0  0  0  0  0  0  0
  150.0100  141.6646  156.3364 C   0  0  0  0  0  0  0  0  0  0  0  0
  151.1049  140.6755  155.9311 C   0  0  0  0  0  0  0  0  0  0  0  0
  150.3270  140.4214  154.7193 N   0  0  0  0  0  0  0  0  0  0  0  0
  149.5666  139.2142  154.7987 C   0  0  0  0  0  0  0  0  0  0  0  0
  150.2115  138.1614  155.3647 N   0  0  0  0  0  0  0  0  0  0  0  0
  149.6215  136.9721  155.5038 C   0  0  0  0  0  0  0  0  0  0  0  0
  148.3912  136.6080  155.1479 N   0  0  0  0  0  0  0  0  0  0  0  0
  147.7220  137.6474  154.5760 C   0  0  0  0  0  0  0  0  0  0  0  0
  148.2248  138.9663  154.3653 C   0  0  0  0  0  0  0  0  0  0  0  0
  147.2356  139.7391  153.7648 N   0  0  0  0  0  0  0  0  0  0  0  0
  146.2210  138.9317  153.6269 C   0  0  0  0  0  0  0  0  0  0  0  0
  146.4288  137.6519  154.0826 N   0  0  0  0  0  0  0  0  0  0  0  0
  145.4753  136.5531  154.0534 C   0  0  0  0  0  0  0  0  0  0  0  0
  144.7451  136.4095  152.6977 C   0  0  1  0  0  0  0  0  0  0  0  0
  143.8250  137.4784  152.5554 O   0  0  0  0  0  0  0  0  0  0  0  0
  145.6725  136.4032  151.4857 C   0  0  0  0  0  0  0  0  0  0  0  0
  144.9386  135.5028  150.5021 C   0  0  0  0  0  0  0  0  0  0  0  0
  144.4227  134.4845  151.3423 O   0  0  0  0  0  0  0  0  0  0  0  0
  143.9742  135.0819  152.5551 C   0  0  0  0  0  0  0  0  0  0  0  0
  149.6318  141.7015  154.8557 C   0  0  0  0  0  0  0  0  0  0  0  0
  152.2296  144.4055  161.4834 H   0  0  0  0  0  0  0  0  0  0  0  0
  151.0575  143.4756  160.5490 H   0  0  0  0  0  0  0  0  0  0  0  0
  150.9495  145.2448  160.6067 H   0  0  0  0  0  0  0  0  0  0  0  0
  150.8917  145.1101  158.2986 H   0  0  0  0  0  0  0  0  0  0  0  0
  152.4083  144.8983  157.4193 H   0  0  0  0  0  0  0  0  0  0  0  0
  150.1938  143.7746  156.3725 H   0  0  0  0  0  0  0  0  0  0  0  0
  149.2409  141.2141  156.9665 H   0  0  0  0  0  0  0  0  0  0  0  0
  152.0625  141.1460  155.7023 H   0  0  0  0  0  0  0  0  0  0  0  0
  151.2165  139.8227  156.6025 H   0  0  0  0  0  0  0  0  0  0  0  0
  150.2223  136.2031  155.9666 H   0  0  0  0  0  0  0  0  0  0  0  0
  145.2882  139.2478  153.1827 H   0  0  0  0  0  0  0  0  0  0  0  0
  146.0090  135.6321  154.2913 H   0  0  0  0  0  0  0  0  0  0  0  0
  144.7542  136.7029  154.8578 H   0  0  0  0  0  0  0  0  0  0  0  0
  143.8778  137.8027  151.6692 H   0  0  0  0  0  0  0  0  0  0  0  0
  145.8867  137.3960  151.0873 H   0  0  0  0  0  0  0  0  0  0  0  0
  146.6237  135.9353  151.7410 H   0  0  0  0  0  0  0  0  0  0  0  0
  144.1176  136.0341  150.0179 H   0  0  0  0  0  0  0  0  0  0  0  0
  145.5930  135.0969  149.7304 H   0  0  0  0  0  0  0  0  0  0  0  0
  144.1695  134.3976  153.3812 H   0  0  0  0  0  0  0  0  0  0  0  0
  142.8948  135.2359  152.5092 H   0  0  0  0  0  0  0  0  0  0  0  0
  148.5671  141.7037  154.6303 H   0  0  0  0  0  0  0  0  0  0  0  0
  150.1497  142.4838  154.2987 H   0  0  0  0  0  0  0  0  0  0  0  0
  1  2  1  0  0  0  0
  1 27  1  0  0  0  0
  1 28  1  0  0  0  0
  1 29  1  0  0  0  0
  2  3  1  0  0  0  0
  3  4  1  0  0  0  0
  3 30  1  0  0  0  0
  3 31  1  0  0  0  0
  4  5  2  0  0  0  0
  4  6  1  0  0  0  0
  6  7  1  0  0  0  0
  6 32  1  0  0  0  0
  7 26  1  0  0  0  0
  7  8  1  0  0  0  0
  7 33  1  0  0  0  0
  8  9  1  0  0  0  0
  8 34  1  0  0  0  0
  8 35  1  0  0  0  0
  9 10  1  0  0  0  0
  9 26  1  0  0  0  0
 10 15  1  0  0  0  0
 10 11  2  0  0  0  0
 11 12  1  0  0  0  0
 12 13  2  0  0  0  0
 12 36  1  0  0  0  0
 13 14  1  0  0  0  0
 14 18  1  0  0  0  0
 14 15  2  0  0  0  0
 15 16  1  0  0  0  0
 16 17  2  0  0  0  0
 17 18  1  0  0  0  0
 17 37  1  0  0  0  0
 18 19  1  0  0  0  0
 19 20  1  0  0  0  0
 19 38  1  0  0  0  0
 19 39  1  0  0  0  0
 20 25  1  0  0  0  0
 20 21  1  0  0  0  0
 20 22  1  0  0  0  0
 21 40  1  0  0  0  0
 22 23  1  0  0  0  0
 22 41  1  0  0  0  0
 22 42  1  0  0  0  0
 23 24  1  0  0  0  0
 23 43  1  0  0  0  0
 23 44  1  0  0  0  0
 24 25  1  0  0  0  0
 25 45  1  0  0  0  0
 25 46  1  0  0  0  0
 26 47  1  0  0  0  0
 26 48  1  0  0  0  0
M  END
> <s_m_source_file>
AV-unprocessed.smi

> <i_m_source_file_index>
186

> <i_lp_mmshare_version>
43012

> <i_f3d_flags>
0

> <s_epik_input>
W0NIM11PW0NIMl1DKD1PKVtOSF1bQ0hdMVtDSDJdTihbQ0gyXTEpYyhuW2NIXW4yKWMoYzIzKW5bY0hdbjNbQ0gyXVtDQEBdNChbT0hdKVtDSDJdW0NIMl1PW0NIMl00

> <s_epik_cmdline>
J2VwaWtfcHl0aG9uJywgJy1waCcsICc3LjAnLCAnLXRuJywgJzgnLCAnLW1hJywgJzIwMCcsICctbWV0YWxfYmluZGluZycsICctaW1hZScsICc8aW5maWxlLm1hZT4nLCAnLW9tYWUnLCAnPG91dGZpbGUubWFlPic=

> <r_lp_tautomer_probability>
1

> <r_epik_Ionization_Penalty>
0.00138671

> <r_epik_Ionization_Penalty_Charging>
0

> <r_epik_Ionization_Penalty_Neutral>
0.00138671

> <r_epik_State_Penalty>
0.000746021

> <r_epik_Charging_Adjusted_Penalty>
0.000746021

> <i_epik_Tot_Q>
0

> <i_epik_Tot_abs_Q>
0

> <r_epik_Metal_State_Penalty>
-0

> <b_epik_Metal_Only>
0

> <s_lp_Force_Field>
OPLS_2005

> <r_lp_Energy>
46.8047

> <b_lp_Chiralities_Consistent>
1

> <s_lp_Variant>
AV-unprocessed.smi:186-1

> <Gold.Version>
5.8.1

> <Gold.Id.Protein>
6NUR|6NUR_protein|mol2

> <Gold.PLP.Fitness>
47.2974

> <Gold.PLP.PLP>
-37.2738

> <Gold.PLP.part.hbond>
-4.0000

> <Gold.PLP.part.metal>
0.0000

> <Gold.PLP.part.buried>
-4.9367

> <Gold.PLP.part.nonpolar>
-29.6147

> <Gold.PLP.part.repulsive>
0.6482

> <Gold.PLP.ligand.clash>
0.0000

> <Gold.PLP.ligand.torsion>
1.2810

> <Gold.PLP.Chemscore.Hbond>
2.9500

> <Gold.PLP.Chemscore.CHOScore>
1.0000

> <Gold.PLP.Chemscore.Metal>
0.0000

> <Gold.Chemscore.Hbonds>
donor molecule, donor type, donor heavy atom, donor atom, acceptor molecule, acceptor atom, score
      L1  H     6    32       P1  8028  1.00
      L1  H    21    40       P1 10171  1.00
      P1  H  7989  7998       L1     9  0.90
      L1  C    17    37       P1 10175  1.00

> <Gold.PLP.Chemscore.Internal.Correction>
0.7355

> <Gold.Rescore>
     Score         DG    S(hbond)    S(metal)    S(lipo)     H(rot)  DE(clash)    DE(int)     intcor
      9.46     -12.37       2.02        0.00      74.73       3.36       0.59       2.32       ----

> <Gold.Chemscore.Fitness>
9.4556

> <Gold.Chemscore.DG>
-12.3726

> <Gold.Chemscore.ZeroCoef>
-5.4800

> <Gold.Chemscore.Hbond>
2.0227

> <Gold.Chemscore.Metal>
0.0000

> <Gold.Chemscore.Lipo>
74.7303

> <Gold.Chemscore.Internal_Hbond>
0.0000

> <Gold.Chemscore.DEClash>
0.5924

> <Gold.Chemscore.DEInternal>
2.3247

> <Gold.Chemscore.Rot>
3.3620

> <Gold.Chemscore.Internal.Correction>
   9.000000E+99

> <Gold.Chemscore.Hbonds>
donor molecule, donor type, donor heavy atom, donor atom, acceptor molecule, acceptor atom, score
      L1  H     6    32       P1  8028  0.95
      L1  H    21    40       P1 10171  0.95
      P1  H  7989  7998       L1     9  0.04

> <Gold.Chemscore.Hbond.Weighted>
-6.7559

> <Gold.Chemscore.Metal.Weighted>
-0.0000

> <Gold.Chemscore.Lipo.Weighted>
-8.7434

> <Gold.Chemscore.Internal_Hbond.Weighted>
0.0000

> <Gold.Chemscore.DEClash.Weighted>
0.5924

> <Gold.Chemscore.DEInternal.Weighted>
2.3247

> <Gold.Chemscore.Rot.Weighted>
8.6067

> <Gold.Chemscore.Internal.Correction.Weighted>
   9.000000E+99

> <Gold.Protein.RotatedTorsions>
[ 6907 6896 6895 6894 ] final   79.02 input  -60.11 | X-H torsion
[ 7974 7965 7964 7962 ] final  -35.87 input  175.53 | X-H torsion
[ 8008 7997 7996 7995 ] final  -85.73 input   59.86 | X-H torsion
[ 10167 10162 10161 10158 ] final   34.08 input  -65.29 | X-H torsion
[ 10718 10713 10712 10709 ] final  113.11 input   66.30 | X-H torsion
[ 10763 10752 10751 10750 ] final   46.98 input  -60.55 | X-H torsion
[ 11005 11000 10999 10996 ] final -107.71 input  -57.11 | X-H torsion

> <Gold.Protein.ActiveResidues>
 VAL166  LYS551  ARG553  GLY616  TRP617  ASP618  TYR619  PRO620  LYS621  CYS622 
 ASP623  PHE694  ASN695  SER759  ASP760  ASP761  ALA762  ILE779  LEU786  VAL792 
 PHE793  MET794  SER795  GLU796  ALA797  LYS798  CYS799  TRP800  GLU811  SER814 

> <Gold.Protein.RotatedAtoms>
  152.5182  134.3576  159.9272 H   0  0  0  0  0  0  0  0  0  0  0  0  # atno 6907 bound_to 6896
  151.3527  133.3913  159.2689 H   0  0  0  0  0  0  0  0  0  0  0  0  # atno 6908 bound_to 6896
  150.9714  134.9105  159.7848 H   0  0  0  0  0  0  0  0  0  0  0  0  # atno 6909 bound_to 6896
  146.0710  140.6211  142.8952 H   0  0  0  0  0  0  0  0  0  0  0  0  # atno 7974 bound_to 7965
  154.6440  140.0587  156.9878 H   0  0  0  0  0  0  0  0  0  0  0  0  # atno 8008 bound_to 7997
  155.1474  140.3271  155.4420 H   0  0  0  0  0  0  0  0  0  0  0  0  # atno 8009 bound_to 7997
  156.2544  140.1953  156.6587 H   0  0  0  0  0  0  0  0  0  0  0  0  # atno 8010 bound_to 7997
  140.4348  144.1273  150.6164 H   0  0  0  0  0  0  0  0  0  0  0  0  # atno 10167 bound_to 10162
  157.6356  131.0978  150.6994 H   0  0  0  0  0  0  0  0  0  0  0  0  # atno 10718 bound_to 10713
  152.9804  135.5991  154.3687 H   0  0  0  0  0  0  0  0  0  0  0  0  # atno 10763 bound_to 10752
  154.3363  135.2768  155.2448 H   0  0  0  0  0  0  0  0  0  0  0  0  # atno 10764 bound_to 10752
  154.4549  135.5980  153.6272 H   0  0  0  0  0  0  0  0  0  0  0  0  # atno 10765 bound_to 10752
  141.0940  133.9004  157.2008 H   0  0  0  0  0  0  0  0  0  0  0  0  # atno 11005 bound_to 11000
  144.7231  140.4440  143.6993 LP  0  0  0  0  0  0  0  0  0  0  0  0  # atno 17320 bound_to 7965
  145.6391  139.1547  143.2925 LP  0  0  0  0  0  0  0  0  0  0  0  0  # atno 17321 bound_to 7965
  140.4386  143.2536  151.9502 LP  0  0  0  0  0  0  0  0  0  0  0  0  # atno 17342 bound_to 10162
  139.4786  144.5676  151.8140 LP  0  0  0  0  0  0  0  0  0  0  0  0  # atno 17343 bound_to 10162
  156.7326  130.4714  149.5496 LP  0  0  0  0  0  0  0  0  0  0  0  0  # atno 17370 bound_to 10713
  156.1592  130.6363  151.0697 LP  0  0  0  0  0  0  0  0  0  0  0  0  # atno 17371 bound_to 10713
  139.9772  135.0110  156.9660 LP  0  0  0  0  0  0  0  0  0  0  0  0  # atno 17394 bound_to 11000
  140.5185  134.0931  155.7286 LP  0  0  0  0  0  0  0  0  0  0  0  0  # atno 17395 bound_to 11000

$$$$
