AV-unprocessed.smi:532|AV-procd|sdf|2852|dock3
  -GOLD-   2262023343D 1   1.00000     0.00000
 Structure written by MMmdl.
 48 50  0  0  0  0  0  0  0  0  2 V2000
  150.8829  135.1995  156.3687 C   0  0  0  0  0  0  0  0  0  0  0  0
  151.9138  136.0782  155.9551 O   0  0  0  0  0  0  0  0  0  0  0  0
  152.3988  136.8808  157.0177 C   0  0  0  0  0  0  0  0  0  0  0  0
  151.2425  137.7204  157.5723 C   0  0  0  0  0  0  0  0  0  0  0  0
  151.7304  138.9053  158.2688 N   0  0  0  0  0  0  0  0  0  0  0  0
  151.5281  140.2151  157.9557 C   0  0  0  0  0  0  0  0  0  0  0  0
  150.7518  140.6267  156.8673 N   0  0  0  0  0  0  0  0  0  0  0  0
  150.9159  140.0270  155.5422 C   0  0  0  0  0  0  0  0  0  0  0  0
  149.5791  139.8562  154.7986 C   0  0  2  0  0  0  0  0  0  0  0  0
  149.7799  139.1756  153.4379 C   0  0  0  0  0  0  0  0  0  0  0  0
  148.8943  141.2232  154.6471 C   0  0  0  0  0  0  0  0  0  0  0  0
  148.7677  141.9305  156.0068 C   0  0  1  0  0  0  0  0  0  0  0  0
  147.6253  141.3560  156.8611 C   0  0  0  0  0  0  0  0  0  0  0  0
  150.1336  141.9504  156.7330 C   0  0  0  0  0  0  0  0  0  0  0  0
  152.1640  141.0768  158.7534 N   0  0  0  0  0  0  0  0  0  0  0  0
  152.8132  140.2515  159.6572 C   0  0  0  0  0  0  0  0  0  0  0  0
  152.5786  138.9411  159.3813 C   0  0  0  0  0  0  0  0  0  0  0  0
  153.1732  137.8219  160.1464 C   0  0  0  0  0  0  0  0  0  0  0  0
  152.9579  136.6525  159.8347 O   0  0  0  0  0  0  0  0  0  0  0  0
  153.9551  138.2614  161.1828 N   0  5  0  0  0  0  0  0  0  0  0  0
  154.2105  139.5774  161.5035 C   0  0  0  0  0  0  0  0  0  0  0  0
  154.9284  139.8871  162.4554 O   0  0  0  0  0  0  0  0  0  0  0  0
  153.6584  140.5807  160.7516 N   0  0  0  0  0  0  0  0  0  0  0  0
  153.9224  141.9887  161.0618 C   0  0  0  0  0  0  0  0  0  0  0  0
  150.5404  134.6109  155.5178 H   0  0  0  0  0  0  0  0  0  0  0  0
  150.0285  135.7512  156.7630 H   0  0  0  0  0  0  0  0  0  0  0  0
  151.2381  134.5088  157.1346 H   0  0  0  0  0  0  0  0  0  0  0  0
  152.8202  136.2517  157.8032 H   0  0  0  0  0  0  0  0  0  0  0  0
  153.1952  137.5340  156.6566 H   0  0  0  0  0  0  0  0  0  0  0  0
  150.5786  138.0135  156.7682 H   0  0  0  0  0  0  0  0  0  0  0  0
  150.6196  137.1305  158.2426 H   0  0  0  0  0  0  0  0  0  0  0  0
  151.6030  140.6391  154.9564 H   0  0  0  0  0  0  0  0  0  0  0  0
  151.3900  139.0507  155.6515 H   0  0  0  0  0  0  0  0  0  0  0  0
  148.9379  139.2069  155.3958 H   0  0  0  0  0  0  0  0  0  0  0  0
  150.4193  139.7723  152.7865 H   0  0  0  0  0  0  0  0  0  0  0  0
  148.8273  139.0296  152.9278 H   0  0  0  0  0  0  0  0  0  0  0  0
  150.2447  138.1964  153.5543 H   0  0  0  0  0  0  0  0  0  0  0  0
  149.4851  141.8482  153.9759 H   0  0  0  0  0  0  0  0  0  0  0  0
  147.9152  141.1136  154.1795 H   0  0  0  0  0  0  0  0  0  0  0  0
  148.4971  142.9674  155.8043 H   0  0  0  0  0  0  0  0  0  0  0  0
  147.8115  140.3213  157.1458 H   0  0  0  0  0  0  0  0  0  0  0  0
  146.6802  141.3821  156.3182 H   0  0  0  0  0  0  0  0  0  0  0  0
  147.4881  141.9362  157.7735 H   0  0  0  0  0  0  0  0  0  0  0  0
  150.0457  142.4365  157.7037 H   0  0  0  0  0  0  0  0  0  0  0  0
  150.8243  142.5758  156.1657 H   0  0  0  0  0  0  0  0  0  0  0  0
  153.5843  142.2275  162.0711 H   0  0  0  0  0  0  0  0  0  0  0  0
  153.4176  142.6722  160.3796 H   0  0  0  0  0  0  0  0  0  0  0  0
  154.9910  142.1986  161.0009 H   0  0  0  0  0  0  0  0  0  0  0  0
  1  2  1  0  0  0  0
  1 25  1  0  0  0  0
  1 26  1  0  0  0  0
  1 27  1  0  0  0  0
  2  3  1  0  0  0  0
  3  4  1  0  0  0  0
  3 28  1  0  0  0  0
  3 29  1  0  0  0  0
  4  5  1  0  0  0  0
  4 30  1  0  0  0  0
  4 31  1  0  0  0  0
  5 17  1  0  0  0  0
  5  6  1  0  0  0  0
  6  7  1  0  0  0  0
  6 15  2  0  0  0  0
  7 14  1  0  0  0  0
  7  8  1  0  0  0  0
  8  9  1  0  0  0  0
  8 32  1  0  0  0  0
  8 33  1  0  0  0  0
  9 10  1  0  0  0  0
  9 11  1  0  0  0  0
  9 34  1  0  0  0  0
 10 35  1  0  0  0  0
 10 36  1  0  0  0  0
 10 37  1  0  0  0  0
 11 12  1  0  0  0  0
 11 38  1  0  0  0  0
 11 39  1  0  0  0  0
 12 13  1  0  0  0  0
 12 14  1  0  0  0  0
 12 40  1  0  0  0  0
 13 41  1  0  0  0  0
 13 42  1  0  0  0  0
 13 43  1  0  0  0  0
 14 44  1  0  0  0  0
 14 45  1  0  0  0  0
 15 16  1  0  0  0  0
 16 23  1  0  0  0  0
 16 17  2  0  0  0  0
 17 18  1  0  0  0  0
 18 19  2  0  0  0  0
 18 20  1  0  0  0  0
 20 21  1  0  0  0  0
 21 22  2  0  0  0  0
 21 23  1  0  0  0  0
 23 24  1  0  0  0  0
 24 46  1  0  0  0  0
 24 47  1  0  0  0  0
 24 48  1  0  0  0  0
M  CHG  1  20  -1
M  END
> <s_m_source_file>
AV-unprocessed.smi

> <i_m_source_file_index>
532

> <i_lp_mmshare_version>
43012

> <i_f3d_flags>
0

> <s_epik_input>
W0NIM11uMWMoPU8pW25IXWMoPU8pYyhjMTIpbihbQ0gyXVtDSDJdT1tDSDNdKWMobjIpTjNbQ0gyXVtDQEBIXShbQ0gzXSlbQ0gyXVtDQEBIXShbQ0gzXSlbQ0gyXTM=

> <s_epik_cmdline>
J2VwaWtfcHl0aG9uJywgJy1waCcsICc3LjAnLCAnLXRuJywgJzgnLCAnLW1hJywgJzIwMCcsICctbWV0YWxfYmluZGluZycsICctaW1hZScsICc8aW5maWxlLm1hZT4nLCAnLW9tYWUnLCAnPG91dGZpbGUubWFlPic=

> <r_lp_tautomer_probability>
1

> <r_epik_Ionization_Penalty>
5.12128

> <r_epik_Ionization_Penalty_Charging>
0.0789629

> <r_epik_Ionization_Penalty_Neutral>
5.04232

> <r_epik_State_Penalty>
5.03111

> <r_epik_Charging_Adjusted_Penalty>
5.11007

> <i_epik_Tot_Q>
-1

> <i_epik_Tot_abs_Q>
1

> <r_epik_Metal_State_Penalty>
1.14201

> <b_epik_Metal_Only>
1

> <s_lp_Force_Field>
OPLS_2005

> <r_lp_Energy>
45.9264

> <b_lp_Chiralities_Consistent>
1

> <s_lp_Variant>
AV-unprocessed.smi:532-5

> <Gold.Version>
5.8.1

> <Gold.Id.Protein>
6NUR|6NUR_protein|mol2

> <Gold.PLP.Fitness>
37.3445

> <Gold.PLP.PLP>
-32.1808

> <Gold.PLP.part.hbond>
-2.0000

> <Gold.PLP.part.metal>
0.0000

> <Gold.PLP.part.buried>
-0.0819

> <Gold.PLP.part.nonpolar>
-29.7267

> <Gold.PLP.part.repulsive>
0.0164

> <Gold.PLP.ligand.clash>
0.0000

> <Gold.PLP.ligand.torsion>
0.6462

> <Gold.PLP.Chemscore.Hbond>
2.0000

> <Gold.PLP.Chemscore.CHOScore>
0.0000

> <Gold.PLP.Chemscore.Metal>
0.0000

> <Gold.Chemscore.Hbonds>
donor molecule, donor type, donor heavy atom, donor atom, acceptor molecule, acceptor atom, score
      P1  H  6896  6907       L1    19  1.00
      P1  H 10752 10764       L1     2  1.00

> <Gold.PLP.Chemscore.Internal.Correction>
0.4561

> <Gold.Rescore>
     Score         DG    S(hbond)    S(metal)    S(lipo)     H(rot)  DE(clash)    DE(int)     intcor
     14.63     -16.93       1.94        0.00      73.37       1.41       1.55       0.75       ----

> <Gold.Chemscore.Fitness>
14.6322

> <Gold.Chemscore.DG>
-16.9335

> <Gold.Chemscore.ZeroCoef>
-5.4800

> <Gold.Chemscore.Hbond>
1.9435

> <Gold.Chemscore.Metal>
0.0000

> <Gold.Chemscore.Lipo>
73.3668

> <Gold.Chemscore.Internal_Hbond>
0.0000

> <Gold.Chemscore.DEClash>
1.5546

> <Gold.Chemscore.DEInternal>
0.7467

> <Gold.Chemscore.Rot>
1.4147

> <Gold.Chemscore.Internal.Correction>
   9.000000E+99

> <Gold.Chemscore.Hbonds>
donor molecule, donor type, donor heavy atom, donor atom, acceptor molecule, acceptor atom, score
      P1  H  6896  6907       L1    19  1.00
      P1  H 10752 10764       L1     2  0.92

> <Gold.Chemscore.Hbond.Weighted>
-6.4912

> <Gold.Chemscore.Metal.Weighted>
-0.0000

> <Gold.Chemscore.Lipo.Weighted>
-8.5839

> <Gold.Chemscore.Internal_Hbond.Weighted>
0.0000

> <Gold.Chemscore.DEClash.Weighted>
1.5546

> <Gold.Chemscore.DEInternal.Weighted>
0.7467

> <Gold.Chemscore.Rot.Weighted>
3.6216

> <Gold.Chemscore.Internal.Correction.Weighted>
   9.000000E+99

> <Gold.Protein.RotatedTorsions>
[ 6907 6896 6895 6894 ] final   40.09 input  -60.11 | X-H torsion
[ 7974 7965 7964 7962 ] final   62.04 input  175.53 | X-H torsion
[ 8008 7997 7996 7995 ] final  -81.05 input   59.86 | X-H torsion
[ 10167 10162 10161 10158 ] final   29.23 input  -65.29 | X-H torsion
[ 10718 10713 10712 10709 ] final  152.60 input   66.30 | X-H torsion
[ 10763 10752 10751 10750 ] final  -49.14 input  -60.55 | X-H torsion
[ 11005 11000 10999 10996 ] final   54.59 input  -57.11 | X-H torsion

> <Gold.Protein.ActiveResidues>
 VAL166  LYS551  ARG553  GLY616  TRP617  ASP618  TYR619  PRO620  LYS621  CYS622 
 ASP623  PHE694  ASN695  SER759  ASP760  ASP761  ALA762  ILE779  LEU786  VAL792 
 PHE793  MET794  SER795  GLU796  ALA797  LYS798  CYS799  TRP800  GLU811  SER814 

> <Gold.Protein.RotatedAtoms>
  152.1780  134.8778  160.0528 H   0  0  0  0  0  0  0  0  0  0  0  0  # atno 6907 bound_to 6896
  151.9714  133.3722  159.4080 H   0  0  0  0  0  0  0  0  0  0  0  0  # atno 6908 bound_to 6896
  150.6912  134.4059  159.5184 H   0  0  0  0  0  0  0  0  0  0  0  0  # atno 6909 bound_to 6896
  145.8779  139.3423  143.0723 H   0  0  0  0  0  0  0  0  0  0  0  0  # atno 7974 bound_to 7965
  154.5945  140.0653  156.9284 H   0  0  0  0  0  0  0  0  0  0  0  0  # atno 8008 bound_to 7997
  155.2239  140.3332  155.4294 H   0  0  0  0  0  0  0  0  0  0  0  0  # atno 8009 bound_to 7997
  156.2278  140.1827  156.7304 H   0  0  0  0  0  0  0  0  0  0  0  0  # atno 8010 bound_to 7997
  140.4783  144.0655  150.6257 H   0  0  0  0  0  0  0  0  0  0  0  0  # atno 10167 bound_to 10162
  157.2556  131.0788  151.1700 H   0  0  0  0  0  0  0  0  0  0  0  0  # atno 10718 bound_to 10713
  154.0892  135.6580  153.4850 H   0  0  0  0  0  0  0  0  0  0  0  0  # atno 10763 bound_to 10752
  153.0328  135.5198  154.7397 H   0  0  0  0  0  0  0  0  0  0  0  0  # atno 10764 bound_to 10752
  154.6516  135.3002  154.9948 H   0  0  0  0  0  0  0  0  0  0  0  0  # atno 10765 bound_to 10752
  140.0674  134.5517  155.9084 H   0  0  0  0  0  0  0  0  0  0  0  0  # atno 11005 bound_to 11000
  145.9058  140.9212  143.0479 LP  0  0  0  0  0  0  0  0  0  0  0  0  # atno 17320 bound_to 7965
  144.6726  140.1094  143.7456 LP  0  0  0  0  0  0  0  0  0  0  0  0  # atno 17321 bound_to 7965
  140.3890  143.2762  152.0083 LP  0  0  0  0  0  0  0  0  0  0  0  0  # atno 17342 bound_to 10162
  139.4829  144.6093  151.7463 LP  0  0  0  0  0  0  0  0  0  0  0  0  # atno 17343 bound_to 10162
  157.3230  130.6947  149.6280 LP  0  0  0  0  0  0  0  0  0  0  0  0  # atno 17370 bound_to 10713
  155.9665  130.4329  150.4986 LP  0  0  0  0  0  0  0  0  0  0  0  0  # atno 17371 bound_to 10713
  141.1998  133.6609  156.5863 LP  0  0  0  0  0  0  0  0  0  0  0  0  # atno 17394 bound_to 11000
  140.3678  134.7631  157.4578 LP  0  0  0  0  0  0  0  0  0  0  0  0  # atno 17395 bound_to 11000

$$$$
