AV-unprocessed.smi:1464|AV-procd|sdf|5949|dock3
  -GOLD-   22720 6 33D 1   1.00000     0.00000
 Structure written by MMmdl.
 41 42  0  0  0  0  0  0  0  0  1 V2000
  151.3327  145.2055  160.5271 C   0  0  0  0  0  0  0  0  0  0  0  0
  151.5652  143.7272  160.1731 C   0  0  2  0  0  0  0  0  0  0  0  0
  153.0203  143.2934  160.4448 C   0  0  0  0  0  0  0  0  0  0  0  0
  153.2179  141.7914  160.1848 C   0  0  0  0  0  0  0  0  0  0  0  0
  152.7619  141.3950  158.7720 C   0  0  0  0  0  0  0  0  0  0  0  0
  151.3070  141.8307  158.5120 C   0  0  2  0  0  0  0  0  0  0  0  0
  150.8890  141.4061  157.1778 N   0  0  0  0  0  0  0  0  0  0  0  0
  149.6541  141.5449  156.6712 C   0  0  0  0  0  0  0  0  0  0  0  0
  148.7277  142.0750  157.2861 O   0  0  0  0  0  0  0  0  0  0  0  0
  149.4494  141.0247  155.2412 C   0  0  0  0  0  0  0  0  0  0  0  0
  150.3405  139.9070  154.8973 N   0  0  0  0  0  0  0  0  0  0  0  0
  151.6854  140.2439  154.8561 N   0  0  0  0  0  0  0  0  0  0  0  0
  152.5645  139.3496  154.5526 C   0  0  0  0  0  0  0  0  0  0  0  0
  153.8846  139.7264  154.5200 O   0  0  0  0  0  0  0  0  0  0  0  0
  152.1766  137.9883  154.2551 C   0  0  0  0  0  0  0  0  0  0  0  0
  150.8649  137.6689  154.3010 C   0  0  0  0  0  0  0  0  0  0  0  0
  149.8410  138.6584  154.6423 C   0  0  0  0  0  0  0  0  0  0  0  0
  148.6400  138.3942  154.6954 O   0  0  0  0  0  0  0  0  0  0  0  0
  151.1182  143.3564  158.7339 C   0  0  2  0  0  0  0  0  0  0  0  0
  151.7852  144.2193  157.6374 C   0  0  0  0  0  0  0  0  0  0  0  0
  154.3706  138.9256  154.3967 H   0  0  0  0  0  0  0  0  0  0  0  0
  152.0007  145.8655  159.9736 H   0  0  0  0  0  0  0  0  0  0  0  0
  151.5086  145.3821  161.5885 H   0  0  0  0  0  0  0  0  0  0  0  0
  150.3068  145.5050  160.3112 H   0  0  0  0  0  0  0  0  0  0  0  0
  150.9328  143.1541  160.8532 H   0  0  0  0  0  0  0  0  0  0  0  0
  153.7076  143.8681  159.8234 H   0  0  0  0  0  0  0  0  0  0  0  0
  153.2873  143.5172  161.4783 H   0  0  0  0  0  0  0  0  0  0  0  0
  154.2655  141.5241  160.3260 H   0  0  0  0  0  0  0  0  0  0  0  0
  152.6525  141.2193  160.9215 H   0  0  0  0  0  0  0  0  0  0  0  0
  153.4291  141.8404  158.0333 H   0  0  0  0  0  0  0  0  0  0  0  0
  152.8535  140.3146  158.6529 H   0  0  0  0  0  0  0  0  0  0  0  0
  150.6832  141.3033  159.2369 H   0  0  0  0  0  0  0  0  0  0  0  0
  151.5911  140.9677  156.5997 H   0  0  0  0  0  0  0  0  0  0  0  0
  148.4059  140.7209  155.1409 H   0  0  0  0  0  0  0  0  0  0  0  0
  149.5862  141.8406  154.5289 H   0  0  0  0  0  0  0  0  0  0  0  0
  152.9255  137.2523  154.0026 H   0  0  0  0  0  0  0  0  0  0  0  0
  150.5605  136.6565  154.0795 H   0  0  0  0  0  0  0  0  0  0  0  0
  150.0481  143.5599  158.6722 H   0  0  0  0  0  0  0  0  0  0  0  0
  152.8690  144.1093  157.6293 H   0  0  0  0  0  0  0  0  0  0  0  0
  151.5632  145.2772  157.7725 H   0  0  0  0  0  0  0  0  0  0  0  0
  151.4220  143.9557  156.6442 H   0  0  0  0  0  0  0  0  0  0  0  0
  1  2  1  0  0  0  0
  1 22  1  0  0  0  0
  1 23  1  0  0  0  0
  1 24  1  0  0  0  0
  2 19  1  0  0  0  0
  2  3  1  0  0  0  0
  2 25  1  0  0  0  0
  3  4  1  0  0  0  0
  3 26  1  0  0  0  0
  3 27  1  0  0  0  0
  4  5  1  0  0  0  0
  4 28  1  0  0  0  0
  4 29  1  0  0  0  0
  5  6  1  0  0  0  0
  5 30  1  0  0  0  0
  5 31  1  0  0  0  0
  6  7  1  0  0  0  0
  6 19  1  0  0  0  0
  6 32  1  0  0  0  0
  7  8  1  0  0  0  0
  7 33  1  0  0  0  0
  8  9  2  0  0  0  0
  8 10  1  0  0  0  0
 10 34  1  0  0  0  0
 10 35  1  0  0  0  0
 10 11  1  0  0  0  0
 11 12  1  0  0  0  0
 11 17  1  0  0  0  0
 12 13  2  0  0  0  0
 13 14  1  0  0  0  0
 13 15  1  0  0  0  0
 14 21  1  0  0  0  0
 15 36  1  0  0  0  0
 15 16  2  0  0  0  0
 16 37  1  0  0  0  0
 16 17  1  0  0  0  0
 17 18  2  0  0  0  0
 19 20  1  0  0  0  0
 19 38  1  0  0  0  0
 20 39  1  0  0  0  0
 20 40  1  0  0  0  0
 20 41  1  0  0  0  0
M  END
> <s_m_source_file>
AV-unprocessed.smi

> <i_m_source_file_index>
1464

> <i_lp_mmshare_version>
43012

> <i_f3d_flags>
0

> <s_epik_input>
W0NIM11bQ0BASF0xW0NIMl1bQ0gyXVtDSDJdW0NASF0oW0NASF0xW0NIM10pW05IXUMoPU8pW0NIMl1uMltuSF1jKD1PKVtjSF1bY0hdYzI9Tw==

> <s_epik_cmdline>
J2VwaWtfcHl0aG9uJywgJy1waCcsICc3LjAnLCAnLXRuJywgJzgnLCAnLW1hJywgJzIwMCcsICctbWV0YWxfYmluZGluZycsICctaW1hZScsICc8aW5maWxlLm1hZT4nLCAnLW9tYWUnLCAnPG91dGZpbGUubWFlPic=

> <r_lp_tautomer_probability>
0.9996

> <r_epik_Ionization_Penalty>
2.10335

> <r_epik_Ionization_Penalty_Charging>
3.98079e-08

> <r_epik_Ionization_Penalty_Neutral>
2.10335

> <r_epik_State_Penalty>
1.67957

> <r_epik_Charging_Adjusted_Penalty>
1.67957

> <i_epik_Tot_Q>
0

> <i_epik_Tot_abs_Q>
0

> <r_epik_Metal_State_Penalty>
1.67957

> <b_epik_Metal_Only>
0

> <s_lp_Force_Field>
OPLS_2005

> <r_lp_Energy>
25.7664

> <b_lp_Chiralities_Consistent>
1

> <s_lp_Variant>
AV-unprocessed.smi:1464-15

> <Gold.Version>
5.8.1

> <Gold.Id.Protein>
6NUR|6NUR_protein|mol2

> <Gold.PLP.Fitness>
48.0119

> <Gold.PLP.PLP>
-43.2707

> <Gold.PLP.part.hbond>
-2.0000

> <Gold.PLP.part.metal>
0.0000

> <Gold.PLP.part.buried>
-5.2689

> <Gold.PLP.part.nonpolar>
-38.1065

> <Gold.PLP.part.repulsive>
1.6909

> <Gold.PLP.ligand.clash>
0.0000

> <Gold.PLP.ligand.torsion>
0.4148

> <Gold.PLP.Chemscore.Hbond>
1.8500

> <Gold.PLP.Chemscore.CHOScore>
0.0000

> <Gold.PLP.Chemscore.Metal>
0.0000

> <Gold.Chemscore.Hbonds>
donor molecule, donor type, donor heavy atom, donor atom, acceptor molecule, acceptor atom, score
      P1  H  7989  7998       L1    12  0.55
      P1  H  7997  8008       L1    14  0.83

> <Gold.PLP.Chemscore.Internal.Correction>
0.0208

> <Gold.Rescore>
     Score         DG    S(hbond)    S(metal)    S(lipo)     H(rot)  DE(clash)    DE(int)     intcor
     12.79     -15.84       1.10        0.00     105.65       2.22       0.36       2.68       ----

> <Gold.Chemscore.Fitness>
12.7939

> <Gold.Chemscore.DG>
-15.8399

> <Gold.Chemscore.ZeroCoef>
-5.4800

> <Gold.Chemscore.Hbond>
1.1044

> <Gold.Chemscore.Metal>
0.0000

> <Gold.Chemscore.Lipo>
105.6466

> <Gold.Chemscore.Internal_Hbond>
0.0000

> <Gold.Chemscore.DEClash>
0.3642

> <Gold.Chemscore.DEInternal>
2.6819

> <Gold.Chemscore.Rot>
2.2224

> <Gold.Chemscore.Internal.Correction>
   9.000000E+99

> <Gold.Chemscore.Hbonds>
donor molecule, donor type, donor heavy atom, donor atom, acceptor molecule, acceptor atom, score
      P1  H  7989  7998       L1    12  0.01
      P1  H  7997  8008       L1    14  0.18

> <Gold.Chemscore.Hbond.Weighted>
-3.6886

> <Gold.Chemscore.Metal.Weighted>
-0.0000

> <Gold.Chemscore.Lipo.Weighted>
-12.3607

> <Gold.Chemscore.Internal_Hbond.Weighted>
0.0000

> <Gold.Chemscore.DEClash.Weighted>
0.3642

> <Gold.Chemscore.DEInternal.Weighted>
2.6819

> <Gold.Chemscore.Rot.Weighted>
5.6893

> <Gold.Chemscore.Internal.Correction.Weighted>
   9.000000E+99

> <Gold.Protein.RotatedTorsions>
[ 6907 6896 6895 6894 ] final   23.07 input  -60.11 | X-H torsion
[ 7974 7965 7964 7962 ] final  158.27 input  175.53 | X-H torsion
[ 8008 7997 7996 7995 ] final   -7.63 input   59.86 | X-H torsion
[ 10167 10162 10161 10158 ] final   25.70 input  -65.29 | X-H torsion
[ 10718 10713 10712 10709 ] final   66.69 input   66.30 | X-H torsion
[ 10763 10752 10751 10750 ] final   19.09 input  -60.55 | X-H torsion
[ 11005 11000 10999 10996 ] final  144.63 input  -57.11 | X-H torsion

> <Gold.Protein.ActiveResidues>
 VAL166  LYS551  ARG553  GLY616  TRP617  ASP618  TYR619  PRO620  LYS621  CYS622 
 ASP623  PHE694  ASN695  SER759  ASP760  ASP761  ALA762  ILE779  LEU786  VAL792 
 PHE793  MET794  SER795  GLU796  ALA797  LYS798  CYS799  TRP800  GLU811  SER814 

> <Gold.Protein.RotatedAtoms>
  151.9368  135.0232  160.0532 H   0  0  0  0  0  0  0  0  0  0  0  0  # atno 6907 bound_to 6896
  152.2071  133.4879  159.5098 H   0  0  0  0  0  0  0  0  0  0  0  0  # atno 6908 bound_to 6896
  150.6967  134.1432  159.4155 H   0  0  0  0  0  0  0  0  0  0  0  0  # atno 6909 bound_to 6896
  144.7855  139.7455  143.6242 H   0  0  0  0  0  0  0  0  0  0  0  0  # atno 7974 bound_to 7965
  154.5820  140.2402  155.8040 H   0  0  0  0  0  0  0  0  0  0  0  0  # atno 8008 bound_to 7997
  156.2186  140.3004  155.9854 H   0  0  0  0  0  0  0  0  0  0  0  0  # atno 8009 bound_to 7997
  155.2524  140.0411  157.2978 H   0  0  0  0  0  0  0  0  0  0  0  0  # atno 8010 bound_to 7997
  140.5084  144.0201  150.6362 H   0  0  0  0  0  0  0  0  0  0  0  0  # atno 10167 bound_to 10162
  157.6184  130.9281  150.0142 H   0  0  0  0  0  0  0  0  0  0  0  0  # atno 10718 bound_to 10713
  153.1192  135.6715  153.9365 H   0  0  0  0  0  0  0  0  0  0  0  0  # atno 10763 bound_to 10752
  153.8885  135.3050  155.3448 H   0  0  0  0  0  0  0  0  0  0  0  0  # atno 10764 bound_to 10752
  154.7605  135.4990  153.9535 H   0  0  0  0  0  0  0  0  0  0  0  0  # atno 10765 bound_to 10752
  140.0647  134.9185  157.1245 H   0  0  0  0  0  0  0  0  0  0  0  0  # atno 11005 bound_to 11000
  146.2085  139.5426  142.9696 LP  0  0  0  0  0  0  0  0  0  0  0  0  # atno 17320 bound_to 7965
  145.5932  141.0366  143.2058 LP  0  0  0  0  0  0  0  0  0  0  0  0  # atno 17321 bound_to 7965
  140.3516  143.2959  152.0480 LP  0  0  0  0  0  0  0  0  0  0  0  0  # atno 17342 bound_to 10162
  139.4889  144.6369  151.6957 LP  0  0  0  0  0  0  0  0  0  0  0  0  # atno 17343 bound_to 10162
  156.1318  130.3643  149.9720 LP  0  0  0  0  0  0  0  0  0  0  0  0  # atno 17370 bound_to 10713
  156.7779  130.9210  151.3645 LP  0  0  0  0  0  0  0  0  0  0  0  0  # atno 17371 bound_to 10713
  140.3716  134.2384  155.7177 LP  0  0  0  0  0  0  0  0  0  0  0  0  # atno 17394 bound_to 11000
  141.1988  133.8027  157.0566 LP  0  0  0  0  0  0  0  0  0  0  0  0  # atno 17395 bound_to 11000

$$$$
