AV-unprocessed.smi:2349|AV-procd|sdf|9371|dock5
  -GOLD-   2272012593D 1   1.00000     0.00000
 Structure written by MMmdl.
 52 53  0  0  0  0  0  0  0  0  1 V2000
  146.9794  129.4097  153.2683 C   0  0  0  0  0  0  0  0  0  0  0  0
  147.8457  130.5944  153.6409 C   0  0  0  0  0  0  0  0  0  0  0  0
  148.7227  130.5315  154.7444 C   0  0  0  0  0  0  0  0  0  0  0  0
  149.5044  131.6635  155.0450 C   0  0  0  0  0  0  0  0  0  0  0  0
  149.3789  132.8111  154.2359 C   0  0  0  0  0  0  0  0  0  0  0  0
  150.2117  134.0516  154.5109 C   0  0  0  0  0  0  0  0  0  0  0  0
  149.5121  135.0604  155.4376 C   0  0  0  0  0  0  0  0  0  0  0  0
  149.9533  136.4223  155.1659 N   0  0  0  0  0  0  0  0  0  0  0  0
  151.2015  136.8828  155.3389 C   0  0  0  0  0  0  0  0  0  0  0  0
  152.1057  136.1696  155.7762 O   0  0  0  0  0  0  0  0  0  0  0  0
  151.3775  138.1824  154.9885 N   0  0  0  0  0  0  0  0  0  0  0  0
  150.3553  139.0836  154.4303 C   0  0  0  0  0  0  0  0  0  0  0  0
  149.9472  140.0963  155.5144 C   0  0  0  0  0  0  0  0  0  0  0  0
  151.1677  140.8917  156.0306 C   0  0  0  0  0  0  0  0  0  0  0  0
  150.7580  141.8391  157.1834 C   0  0  0  0  0  0  0  0  0  0  0  0
  151.6902  141.8175  158.4122 C   0  0  0  0  0  0  0  0  0  0  0  0
  151.8671  140.7575  159.0154 O   0  0  0  0  0  0  0  0  0  0  0  0
  152.2964  142.9668  158.7918 N   0  0  0  0  0  0  0  0  0  0  0  0
  152.1145  144.2005  158.0233 C   0  0  0  0  0  0  0  0  0  0  0  0
  153.1348  143.0794  159.9881 C   0  0  0  0  0  0  0  0  0  0  0  0
  152.3157  139.9274  156.4228 C   0  0  0  0  0  0  0  0  0  0  0  0
  152.6100  138.9146  155.3010 C   0  0  0  0  0  0  0  0  0  0  0  0
  148.4682  132.7716  153.1582 C   0  0  0  0  0  0  0  0  0  0  0  0
  147.7175  131.6899  152.8601 N   0  0  0  0  0  0  0  0  0  0  0  0
  147.2486  128.5258  153.8472 H   0  0  0  0  0  0  0  0  0  0  0  0
  147.0939  129.1696  152.2109 H   0  0  0  0  0  0  0  0  0  0  0  0
  145.9299  129.6356  153.4584 H   0  0  0  0  0  0  0  0  0  0  0  0
  148.7976  129.6382  155.3469 H   0  0  0  0  0  0  0  0  0  0  0  0
  150.1902  131.6488  155.8794 H   0  0  0  0  0  0  0  0  0  0  0  0
  151.1618  133.7478  154.9525 H   0  0  0  0  0  0  0  0  0  0  0  0
  150.4581  134.5312  153.5629 H   0  0  0  0  0  0  0  0  0  0  0  0
  148.4299  134.9827  155.3226 H   0  0  0  0  0  0  0  0  0  0  0  0
  149.7408  134.8262  156.4783 H   0  0  0  0  0  0  0  0  0  0  0  0
  149.2614  137.0604  154.8007 H   0  0  0  0  0  0  0  0  0  0  0  0
  150.7728  139.6090  153.5701 H   0  0  0  0  0  0  0  0  0  0  0  0
  149.4713  138.5728  154.0486 H   0  0  0  0  0  0  0  0  0  0  0  0
  149.1989  140.7805  155.1129 H   0  0  0  0  0  0  0  0  0  0  0  0
  149.4704  139.5676  156.3414 H   0  0  0  0  0  0  0  0  0  0  0  0
  151.5178  141.4984  155.1937 H   0  0  0  0  0  0  0  0  0  0  0  0
  150.7335  142.8654  156.8157 H   0  0  0  0  0  0  0  0  0  0  0  0
  149.7394  141.5918  157.4837 H   0  0  0  0  0  0  0  0  0  0  0  0
  152.1890  144.0155  156.9505 H   0  0  0  0  0  0  0  0  0  0  0  0
  152.8666  144.9524  158.2646 H   0  0  0  0  0  0  0  0  0  0  0  0
  151.1327  144.6297  158.2273 H   0  0  0  0  0  0  0  0  0  0  0  0
  152.6680  142.5996  160.8492 H   0  0  0  0  0  0  0  0  0  0  0  0
  153.3120  144.1176  160.2701 H   0  0  0  0  0  0  0  0  0  0  0  0
  154.1056  142.6132  159.8163 H   0  0  0  0  0  0  0  0  0  0  0  0
  153.2251  140.4829  156.6510 H   0  0  0  0  0  0  0  0  0  0  0  0
  152.0493  139.3885  157.3332 H   0  0  0  0  0  0  0  0  0  0  0  0
  153.4276  138.2573  155.6004 H   0  0  0  0  0  0  0  0  0  0  0  0
  152.9615  139.4340  154.4083 H   0  0  0  0  0  0  0  0  0  0  0  0
  148.3459  133.6266  152.5094 H   0  0  0  0  0  0  0  0  0  0  0  0
  1  2  1  0  0  0  0
  1 25  1  0  0  0  0
  1 26  1  0  0  0  0
  1 27  1  0  0  0  0
  2 24  1  0  0  0  0
  2  3  2  0  0  0  0
  3  4  1  0  0  0  0
  3 28  1  0  0  0  0
  4  5  2  0  0  0  0
  4 29  1  0  0  0  0
  5  6  1  0  0  0  0
  5 23  1  0  0  0  0
  6  7  1  0  0  0  0
  6 30  1  0  0  0  0
  6 31  1  0  0  0  0
  7  8  1  0  0  0  0
  7 32  1  0  0  0  0
  7 33  1  0  0  0  0
  8  9  1  0  0  0  0
  8 34  1  0  0  0  0
  9 10  2  0  0  0  0
  9 11  1  0  0  0  0
 11 22  1  0  0  0  0
 11 12  1  0  0  0  0
 12 13  1  0  0  0  0
 12 35  1  0  0  0  0
 12 36  1  0  0  0  0
 13 14  1  0  0  0  0
 13 37  1  0  0  0  0
 13 38  1  0  0  0  0
 14 15  1  0  0  0  0
 14 21  1  0  0  0  0
 14 39  1  0  0  0  0
 15 16  1  0  0  0  0
 15 40  1  0  0  0  0
 15 41  1  0  0  0  0
 16 17  2  0  0  0  0
 16 18  1  0  0  0  0
 18 19  1  0  0  0  0
 18 20  1  0  0  0  0
 19 42  1  0  0  0  0
 19 43  1  0  0  0  0
 19 44  1  0  0  0  0
 20 45  1  0  0  0  0
 20 46  1  0  0  0  0
 20 47  1  0  0  0  0
 21 22  1  0  0  0  0
 21 48  1  0  0  0  0
 21 49  1  0  0  0  0
 22 50  1  0  0  0  0
 22 51  1  0  0  0  0
 23 24  2  0  0  0  0
 23 52  1  0  0  0  0
M  END
> <s_m_source_file>
AV-unprocessed.smi

> <i_m_source_file_index>
2349

> <i_lp_mmshare_version>
43012

> <i_f3d_flags>
0

> <s_epik_input>
W0NIM11jMVtjSF1bY0hdYyhbY0hdbjEpW0NIMl1bQ0gyXVtOSF1DKD1PKU4yW0NIMl1bQ0gyXVtDSF0oW0NIMl1bQ0gyXTIpW0NIMl1DKD1PKU4oW0NIM10pW0NIM10=

> <s_epik_cmdline>
J2VwaWtfcHl0aG9uJywgJy1waCcsICc3LjAnLCAnLXRuJywgJzgnLCAnLW1hJywgJzIwMCcsICctbWV0YWxfYmluZGluZycsICctaW1hZScsICc8aW5maWxlLm1hZT4nLCAnLW9tYWUnLCAnPG91dGZpbGUubWFlPic=

> <r_epik_Ionization_Penalty>
0.0570544

> <r_epik_Ionization_Penalty_Charging>
0

> <r_epik_Ionization_Penalty_Neutral>
0.0570544

> <r_epik_State_Penalty>
0.0491874

> <r_epik_Charging_Adjusted_Penalty>
0.0491874

> <i_epik_Tot_Q>
0

> <i_epik_Tot_abs_Q>
0

> <r_epik_Metal_State_Penalty>
0.0448474

> <b_epik_Metal_Only>
0

> <s_lp_Force_Field>
OPLS_2005

> <r_lp_Energy>
37.0132

> <b_lp_Chiralities_Consistent>
1

> <s_lp_Variant>
AV-unprocessed.smi:2349-1

> <Gold.Version>
5.8.1

> <Gold.Id.Protein>
6NUR|6NUR_protein|mol2

> <Gold.PLP.Fitness>
53.8168

> <Gold.PLP.PLP>
-50.6241

> <Gold.PLP.part.hbond>
-1.5286

> <Gold.PLP.part.metal>
0.0000

> <Gold.PLP.part.buried>
-2.1511

> <Gold.PLP.part.nonpolar>
-45.9233

> <Gold.PLP.part.repulsive>
0.2240

> <Gold.PLP.ligand.clash>
0.0000

> <Gold.PLP.ligand.torsion>
1.2650

> <Gold.PLP.Chemscore.Hbond>
1.0000

> <Gold.PLP.Chemscore.CHOScore>
0.8585

> <Gold.PLP.Chemscore.Metal>
0.0000

> <Gold.Chemscore.Hbonds>
donor molecule, donor type, donor heavy atom, donor atom, acceptor molecule, acceptor atom, score
      P1  H 10752 10765       L1    10  0.89
      L1  C    23    52       P1  7948  0.25

> <Gold.PLP.Chemscore.Internal.Correction>
0.1474

> <Gold.Rescore>
     Score         DG    S(hbond)    S(metal)    S(lipo)     H(rot)  DE(clash)    DE(int)     intcor
     14.70     -17.69       1.00        0.00     112.29       1.66       0.48       2.51       ----

> <Gold.Chemscore.Fitness>
14.7000

> <Gold.Chemscore.DG>
-17.6892

> <Gold.Chemscore.ZeroCoef>
-5.4800

> <Gold.Chemscore.Hbond>
0.9953

> <Gold.Chemscore.Metal>
0.0000

> <Gold.Chemscore.Lipo>
112.2858

> <Gold.Chemscore.Internal_Hbond>
0.0000

> <Gold.Chemscore.DEClash>
0.4753

> <Gold.Chemscore.DEInternal>
2.5138

> <Gold.Chemscore.Rot>
1.6612

> <Gold.Chemscore.Internal.Correction>
   9.000000E+99

> <Gold.Chemscore.Hbonds>
donor molecule, donor type, donor heavy atom, donor atom, acceptor molecule, acceptor atom, score
      P1  H 10752 10765       L1    10  0.75

> <Gold.Chemscore.Hbond.Weighted>
-3.3245

> <Gold.Chemscore.Metal.Weighted>
-0.0000

> <Gold.Chemscore.Lipo.Weighted>
-13.1374

> <Gold.Chemscore.Internal_Hbond.Weighted>
0.0000

> <Gold.Chemscore.DEClash.Weighted>
0.4753

> <Gold.Chemscore.DEInternal.Weighted>
2.5138

> <Gold.Chemscore.Rot.Weighted>
4.2528

> <Gold.Chemscore.Internal.Correction.Weighted>
   9.000000E+99

> <Gold.Protein.RotatedTorsions>
[ 6907 6896 6895 6894 ] final  110.76 input  -60.11 | X-H torsion
[ 7974 7965 7964 7962 ] final   32.76 input  175.53 | X-H torsion
[ 8008 7997 7996 7995 ] final   13.67 input   59.86 | X-H torsion
[ 10167 10162 10161 10158 ] final  -94.42 input  -65.29 | X-H torsion
[ 10718 10713 10712 10709 ] final   56.15 input   66.30 | X-H torsion
[ 10763 10752 10751 10750 ] final -173.27 input  -60.55 | X-H torsion
[ 11005 11000 10999 10996 ] final -121.84 input  -57.11 | X-H torsion

> <Gold.Protein.ActiveResidues>
 VAL166  LYS551  ARG553  GLY616  TRP617  ASP618  TYR619  PRO620  LYS621  CYS622 
 ASP623  PHE694  ASN695  SER759  ASP760  ASP761  ALA762  ILE779  LEU786  VAL792 
 PHE793  MET794  SER795  GLU796  ALA797  LYS798  CYS799  TRP800  GLU811  SER814 

> <Gold.Protein.RotatedAtoms>
  152.5004  133.8755  159.7319 H   0  0  0  0  0  0  0  0  0  0  0  0  # atno 6907 bound_to 6896
  150.9231  133.6848  159.2834 H   0  0  0  0  0  0  0  0  0  0  0  0  # atno 6908 bound_to 6896
  151.4218  135.1003  159.9669 H   0  0  0  0  0  0  0  0  0  0  0  0  # atno 6909 bound_to 6896
  146.1465  139.6484  142.9128 H   0  0  0  0  0  0  0  0  0  0  0  0  # atno 7974 bound_to 7965
  154.8377  140.2909  155.5680 H   0  0  0  0  0  0  0  0  0  0  0  0  # atno 8008 bound_to 7997
  156.3010  140.2520  156.3246 H   0  0  0  0  0  0  0  0  0  0  0  0  # atno 8009 bound_to 7997
  154.9160  140.0387  157.1961 H   0  0  0  0  0  0  0  0  0  0  0  0  # atno 8010 bound_to 7997
  140.3146  143.3085  152.0112 H   0  0  0  0  0  0  0  0  0  0  0  0  # atno 10167 bound_to 10162
  157.5406  130.8694  149.8817 H   0  0  0  0  0  0  0  0  0  0  0  0  # atno 10718 bound_to 10713
  154.6097  135.2863  155.0445 H   0  0  0  0  0  0  0  0  0  0  0  0  # atno 10763 bound_to 10752
  154.1680  135.6477  153.5006 H   0  0  0  0  0  0  0  0  0  0  0  0  # atno 10764 bound_to 10752
  153.0190  135.5394  154.6846 H   0  0  0  0  0  0  0  0  0  0  0  0  # atno 10765 bound_to 10752
  141.0040  134.0361  157.3501 H   0  0  0  0  0  0  0  0  0  0  0  0  # atno 11005 bound_to 11000
  145.4925  141.0438  143.2585 LP  0  0  0  0  0  0  0  0  0  0  0  0  # atno 17320 bound_to 7965
  144.7852  139.6441  143.7137 LP  0  0  0  0  0  0  0  0  0  0  0  0  # atno 17321 bound_to 7965
  139.4886  144.6358  151.6978 LP  0  0  0  0  0  0  0  0  0  0  0  0  # atno 17342 bound_to 10162
  140.5538  144.0382  150.6138 LP  0  0  0  0  0  0  0  0  0  0  0  0  # atno 17343 bound_to 10162
  156.0494  130.3721  150.1239 LP  0  0  0  0  0  0  0  0  0  0  0  0  # atno 17370 bound_to 10713
  156.9419  130.9747  151.3514 LP  0  0  0  0  0  0  0  0  0  0  0  0  # atno 17371 bound_to 10713
  139.9054  135.0178  156.7460 LP  0  0  0  0  0  0  0  0  0  0  0  0  # atno 17394 bound_to 11000
  140.6842  133.9447  155.7928 LP  0  0  0  0  0  0  0  0  0  0  0  0  # atno 17395 bound_to 11000

$$$$
