AV-unprocessed.smi:1423|AV-procd|sdf|5795|dock3
  -GOLD-   22720 5443D 1   1.00000     0.00000
 Structure written by MMmdl.
 44 45  0  0  0  0  0  0  0  0  2 V2000
  151.7882  145.4851  160.0689 C   0  0  0  0  0  0  0  0  0  0  0  0
  152.4566  144.2286  160.0893 O   0  0  0  0  0  0  0  0  0  0  0  0
  151.9750  143.2174  159.2833 C   0  0  0  0  0  0  0  0  0  0  0  0
  152.6214  141.9659  159.3124 C   0  0  0  0  0  0  0  0  0  0  0  0
  152.1403  140.9302  158.4889 C   0  0  0  0  0  0  0  0  0  0  0  0
  151.0166  141.1774  157.6638 C   0  0  0  0  0  0  0  0  0  0  0  0
  150.4465  140.2293  156.7707 N   0  0  0  0  0  0  0  0  0  0  0  0
  149.1698  140.1110  156.3668 C   0  0  0  0  0  0  0  0  0  0  0  0
  148.2524  140.8764  156.6616 O   0  0  0  0  0  0  0  0  0  0  0  0
  149.0100  139.0424  155.5725 N   0  0  0  0  0  0  0  0  0  0  0  0
  147.7475  138.6266  154.9677 C   0  0  2  0  0  0  0  0  0  0  0  0
  147.5760  137.0977  155.0481 C   0  0  0  0  0  0  0  0  0  0  0  0
  146.3030  136.6392  154.3173 C   0  0  0  0  0  0  0  0  0  0  0  0
  146.3077  137.0907  152.9028 N   0  3  1  0  0  0  0  0  0  0  0  0
  145.1677  136.5422  152.1242 C   0  0  0  0  0  0  0  0  0  0  0  0
  145.6169  135.7276  150.9068 C   0  0  0  0  0  0  0  0  0  0  0  0
  145.3304  136.2316  149.7044 N   0  0  0  0  0  0  0  0  0  0  0  0
  146.1993  134.6533  151.0452 O   0  0  0  0  0  0  0  0  0  0  0  0
  146.4239  138.5701  152.8036 C   0  0  0  0  0  0  0  0  0  0  0  0
  147.7012  139.0723  153.4972 C   0  0  0  0  0  0  0  0  0  0  0  0
  150.4471  142.4673  157.7036 C   0  0  0  0  0  0  0  0  0  0  0  0
  150.9040  143.4646  158.4894 N   0  0  0  0  0  0  0  0  0  0  0  0
  152.2871  146.1700  160.7543 H   0  0  0  0  0  0  0  0  0  0  0  0
  150.7505  145.3915  160.3920 H   0  0  0  0  0  0  0  0  0  0  0  0
  151.8152  145.9346  159.0752 H   0  0  0  0  0  0  0  0  0  0  0  0
  153.4774  141.8041  159.9511 H   0  0  0  0  0  0  0  0  0  0  0  0
  152.6520  139.9811  158.5000 H   0  0  0  0  0  0  0  0  0  0  0  0
  151.0990  139.5685  156.3749 H   0  0  0  0  0  0  0  0  0  0  0  0
  149.8202  138.4736  155.3747 H   0  0  0  0  0  0  0  0  0  0  0  0
  146.9230  139.1074  155.4979 H   0  0  0  0  0  0  0  0  0  0  0  0
  148.4430  136.6036  154.6072 H   0  0  0  0  0  0  0  0  0  0  0  0
  147.5340  136.7752  156.0892 H   0  0  0  0  0  0  0  0  0  0  0  0
  146.2422  135.5510  154.3572 H   0  0  0  0  0  0  0  0  0  0  0  0
  145.4165  137.0264  154.8223 H   0  0  0  0  0  0  0  0  0  0  0  0
  144.5842  135.8669  152.7516 H   0  0  0  0  0  0  0  0  0  0  0  0
  144.4967  137.3483  151.8228 H   0  0  0  0  0  0  0  0  0  0  0  0
  145.6055  135.7389  148.8668 H   0  0  0  0  0  0  0  0  0  0  0  0
  144.8390  137.1115  149.6359 H   0  0  0  0  0  0  0  0  0  0  0  0
  146.4418  138.8768  151.7576 H   0  0  0  0  0  0  0  0  0  0  0  0
  145.5455  139.0362  153.2531 H   0  0  0  0  0  0  0  0  0  0  0  0
  147.7509  140.1602  153.4342 H   0  0  0  0  0  0  0  0  0  0  0  0
  148.5741  138.6915  152.9644 H   0  0  0  0  0  0  0  0  0  0  0  0
  149.5952  142.7092  157.0845 H   0  0  0  0  0  0  0  0  0  0  0  0
  147.1409  136.7015  152.4842 H   0  0  0  0  0  0  0  0  0  0  0  0
  1  2  1  0  0  0  0
  1 23  1  0  0  0  0
  1 24  1  0  0  0  0
  1 25  1  0  0  0  0
  2  3  1  0  0  0  0
  3 22  1  0  0  0  0
  3  4  2  0  0  0  0
  4  5  1  0  0  0  0
  4 26  1  0  0  0  0
  5  6  2  0  0  0  0
  5 27  1  0  0  0  0
  6  7  1  0  0  0  0
  6 21  1  0  0  0  0
  7  8  1  0  0  0  0
  7 28  1  0  0  0  0
  8  9  2  0  0  0  0
  8 10  1  0  0  0  0
 10 11  1  0  0  0  0
 10 29  1  0  0  0  0
 11 20  1  0  0  0  0
 11 12  1  0  0  0  0
 11 30  1  0  0  0  0
 12 13  1  0  0  0  0
 12 31  1  0  0  0  0
 12 32  1  0  0  0  0
 13 14  1  0  0  0  0
 13 33  1  0  0  0  0
 13 34  1  0  0  0  0
 14 15  1  0  0  0  0
 14 19  1  0  0  0  0
 14 44  1  0  0  0  0
 15 16  1  0  0  0  0
 15 35  1  0  0  0  0
 15 36  1  0  0  0  0
 16 17  1  0  0  0  0
 16 18  2  0  0  0  0
 17 37  1  0  0  0  0
 17 38  1  0  0  0  0
 19 20  1  0  0  0  0
 19 39  1  0  0  0  0
 19 40  1  0  0  0  0
 20 41  1  0  0  0  0
 20 42  1  0  0  0  0
 21 22  2  0  0  0  0
 21 43  1  0  0  0  0
M  CHG  1  14   1
M  END
> <s_m_source_file>
AV-unprocessed.smi

> <i_m_source_file_index>
1423

> <i_lp_mmshare_version>
43012

> <i_f3d_flags>
0

> <s_epik_input>
W0NIM11PYzFbY0hdW2NIXWMoW2NIXW4xKVtOSF1DKD1PKVtOSF1bQ0hdMltDSDJdW0NIMl1OKFtDSDJdW0NIMl0yKVtDSDJdQyg9TylbTkgyXQ==

> <s_epik_cmdline>
J2VwaWtfcHl0aG9uJywgJy1waCcsICc3LjAnLCAnLXRuJywgJzgnLCAnLW1hJywgJzIwMCcsICctbWV0YWxfYmluZGluZycsICctaW1hZScsICc8aW5maWxlLm1hZT4nLCAnLW9tYWUnLCAnPG91dGZpbGUubWFlPic=

> <r_lp_tautomer_probability>
1

> <r_epik_Ionization_Penalty>
0.838963

> <r_epik_Ionization_Penalty_Charging>
0.838844

> <r_epik_Ionization_Penalty_Neutral>
0.0001192

> <r_epik_State_Penalty>
0.8734

> <r_epik_Charging_Adjusted_Penalty>
1.71224

> <i_epik_Tot_Q>
1

> <i_epik_Tot_abs_Q>
1

> <r_epik_Metal_State_Penalty>
0.890706

> <b_epik_Metal_Only>
0

> <s_lp_Force_Field>
OPLS_2005

> <r_lp_Energy>
16.4152

> <b_lp_Chiralities_Consistent>
1

> <s_lp_Variant>
AV-unprocessed.smi:1423-2

> <Gold.Version>
5.8.1

> <Gold.Id.Protein>
6NUR|6NUR_protein|mol2

> <Gold.PLP.Fitness>
44.3902

> <Gold.PLP.PLP>
-31.8317

> <Gold.PLP.part.hbond>
-3.0000

> <Gold.PLP.part.metal>
0.0000

> <Gold.PLP.part.buried>
-5.7003

> <Gold.PLP.part.nonpolar>
-24.5251

> <Gold.PLP.part.repulsive>
0.6126

> <Gold.PLP.ligand.clash>
0.0000

> <Gold.PLP.ligand.torsion>
1.2307

> <Gold.PLP.Chemscore.Hbond>
4.0000

> <Gold.PLP.Chemscore.CHOScore>
1.0000

> <Gold.PLP.Chemscore.Metal>
0.0000

> <Gold.Chemscore.Hbonds>
donor molecule, donor type, donor heavy atom, donor atom, acceptor molecule, acceptor atom, score
      L1  H    14    44       P1  7948  2.00
      L1  H    17    37       P1  7921  1.00
      L1  H    17    38       P1 10171  1.00
      L1  C    21    43       P1  8028  0.92

> <Gold.PLP.Chemscore.Internal.Correction>
0.0199

> <Gold.Rescore>
     Score         DG    S(hbond)    S(metal)    S(lipo)     H(rot)  DE(clash)    DE(int)     intcor
     14.57     -17.20       2.98        0.00      66.04       2.33       0.03       2.60       ----

> <Gold.Chemscore.Fitness>
14.5692

> <Gold.Chemscore.DG>
-17.1954

> <Gold.Chemscore.ZeroCoef>
-5.4800

> <Gold.Chemscore.Hbond>
2.9778

> <Gold.Chemscore.Metal>
0.0000

> <Gold.Chemscore.Lipo>
66.0427

> <Gold.Chemscore.Internal_Hbond>
0.0000

> <Gold.Chemscore.DEClash>
0.0298

> <Gold.Chemscore.DEInternal>
2.5964

> <Gold.Chemscore.Rot>
2.3271

> <Gold.Chemscore.Internal.Correction>
   9.000000E+99

> <Gold.Chemscore.Hbonds>
donor molecule, donor type, donor heavy atom, donor atom, acceptor molecule, acceptor atom, score
      L1  H    14    44       P1  7948  0.98
      L1  H    17    37       P1  7921  0.99
      L1  H    17    38       P1 10171  1.00

> <Gold.Chemscore.Hbond.Weighted>
-9.9458

> <Gold.Chemscore.Metal.Weighted>
-0.0000

> <Gold.Chemscore.Lipo.Weighted>
-7.7270

> <Gold.Chemscore.Internal_Hbond.Weighted>
0.0000

> <Gold.Chemscore.DEClash.Weighted>
0.0298

> <Gold.Chemscore.DEInternal.Weighted>
2.5964

> <Gold.Chemscore.Rot.Weighted>
5.9573

> <Gold.Chemscore.Internal.Correction.Weighted>
   9.000000E+99

> <Gold.Protein.RotatedTorsions>
[ 6907 6896 6895 6894 ] final  155.35 input  -60.11 | X-H torsion
[ 7974 7965 7964 7962 ] final  -91.49 input  175.53 | X-H torsion
[ 8008 7997 7996 7995 ] final -102.95 input   59.86 | X-H torsion
[ 10167 10162 10161 10158 ] final  -20.78 input  -65.29 | X-H torsion
[ 10718 10713 10712 10709 ] final   97.19 input   66.30 | X-H torsion
[ 10763 10752 10751 10750 ] final  -96.49 input  -60.55 | X-H torsion
[ 11005 11000 10999 10996 ] final -160.84 input  -57.11 | X-H torsion

> <Gold.Protein.ActiveResidues>
 VAL166  LYS551  ARG553  GLY616  TRP617  ASP618  TYR619  PRO620  LYS621  CYS622 
 ASP623  PHE694  ASN695  SER759  ASP760  ASP761  ALA762  ILE779  LEU786  VAL792 
 PHE793  MET794  SER795  GLU796  ALA797  LYS798  CYS799  TRP800  GLU811  SER814 

> <Gold.Protein.RotatedAtoms>
  152.0455  133.3996  159.4354 H   0  0  0  0  0  0  0  0  0  0  0  0  # atno 6907 bound_to 6896
  150.6873  134.3367  159.4859 H   0  0  0  0  0  0  0  0  0  0  0  0  # atno 6908 bound_to 6896
  152.1171  134.9232  160.0615 H   0  0  0  0  0  0  0  0  0  0  0  0  # atno 6909 bound_to 6896
  145.4124  140.9546  143.2227 H   0  0  0  0  0  0  0  0  0  0  0  0  # atno 7974 bound_to 7965
  154.8640  140.0425  157.1683 H   0  0  0  0  0  0  0  0  0  0  0  0  # atno 8008 bound_to 7997
  154.8810  140.2972  155.5404 H   0  0  0  0  0  0  0  0  0  0  0  0  # atno 8009 bound_to 7997
  156.2999  140.2411  156.3813 H   0  0  0  0  0  0  0  0  0  0  0  0  # atno 8010 bound_to 7997
  140.7278  143.4690  151.0273 H   0  0  0  0  0  0  0  0  0  0  0  0  # atno 10167 bound_to 10162
  157.6916  131.0601  150.4605 H   0  0  0  0  0  0  0  0  0  0  0  0  # atno 10718 bound_to 10713
  154.7244  135.5081  153.8863 H   0  0  0  0  0  0  0  0  0  0  0  0  # atno 10763 bound_to 10752
  153.0891  135.6654  153.9897 H   0  0  0  0  0  0  0  0  0  0  0  0  # atno 10764 bound_to 10752
  153.9713  135.3038  155.3406 H   0  0  0  0  0  0  0  0  0  0  0  0  # atno 10765 bound_to 10752
  140.6271  134.4690  157.5227 H   0  0  0  0  0  0  0  0  0  0  0  0  # atno 11005 bound_to 11000
  144.8300  139.5645  143.6948 LP  0  0  0  0  0  0  0  0  0  0  0  0  # atno 17320 bound_to 7965
  146.2698  139.6608  142.9304 LP  0  0  0  0  0  0  0  0  0  0  0  0  # atno 17321 bound_to 7965
  139.8381  143.7601  152.3180 LP  0  0  0  0  0  0  0  0  0  0  0  0  # atno 17342 bound_to 10162
  139.7740  144.7467  151.0183 LP  0  0  0  0  0  0  0  0  0  0  0  0  # atno 17343 bound_to 10162
  156.4950  130.4104  149.6385 LP  0  0  0  0  0  0  0  0  0  0  0  0  # atno 17370 bound_to 10713
  156.3381  130.7367  151.2308 LP  0  0  0  0  0  0  0  0  0  0  0  0  # atno 17371 bound_to 10713
  139.9130  134.8304  156.1461 LP  0  0  0  0  0  0  0  0  0  0  0  0  # atno 17394 bound_to 11000
  141.0702  133.6800  156.2124 LP  0  0  0  0  0  0  0  0  0  0  0  0  # atno 17395 bound_to 11000

$$$$
