AV-unprocessed.smi:1015|AV-procd|sdf|4435|dock10
  -GOLD-   22720 2393D 1   1.00000     0.00000
 Structure written by MMmdl.
 43 44  0  0  0  0  0  0  0  0  2 V2000
  151.3546  138.4295  154.6584 C   0  0  0  0  0  0  0  0  0  0  0  0
  151.1381  139.8292  154.6164 O   0  0  0  0  0  0  0  0  0  0  0  0
  149.7987  140.1819  154.9203 C   0  0  0  0  0  0  0  0  0  0  0  0
  149.6512  141.7080  154.8178 C   0  0  0  0  0  0  0  0  0  0  0  0
  148.3049  142.1790  155.2319 N   0  3  2  0  0  0  0  0  0  0  0  0
  147.9097  141.6479  156.5619 C   0  0  0  0  0  0  0  0  0  0  0  0
  146.5715  142.2481  157.0328 C   0  0  0  0  0  0  0  0  0  0  0  0
  145.4416  142.0324  156.0086 C   0  0  2  0  0  0  0  0  0  0  0  0
  144.9389  140.5691  155.9966 C   0  0  0  0  0  0  0  0  0  0  0  0
  143.8024  140.3923  155.0987 N   0  0  0  0  0  0  0  0  0  0  0  0
  142.5703  140.0079  155.4691 C   0  0  0  0  0  0  0  0  0  0  0  0
  142.2349  139.8311  156.6399 O   0  0  0  0  0  0  0  0  0  0  0  0
  141.5733  139.7449  154.3415 C   0  0  0  0  0  0  0  0  0  0  0  0
  140.4827  140.7001  154.3983 N   0  0  0  0  0  0  0  0  0  0  0  0
  140.0768  141.6217  153.5220 C   0  0  0  0  0  0  0  0  0  0  0  0
  139.0059  142.2693  153.9546 N   0  0  0  0  0  0  0  0  0  0  0  0
  138.7617  141.6861  155.1867 N   0  0  0  0  0  0  0  0  0  0  0  0
  139.6338  140.7535  155.4551 N   0  0  0  0  0  0  0  0  0  0  0  0
  145.9145  142.5598  154.6372 C   0  0  0  0  0  0  0  0  0  0  0  0
  147.2534  141.9358  154.2091 C   0  0  0  0  0  0  0  0  0  0  0  0
  152.3963  138.2127  154.4225 H   0  0  0  0  0  0  0  0  0  0  0  0
  150.7298  137.9121  153.9293 H   0  0  0  0  0  0  0  0  0  0  0  0
  151.1430  138.0265  155.6497 H   0  0  0  0  0  0  0  0  0  0  0  0
  149.1031  139.6651  154.2588 H   0  0  0  0  0  0  0  0  0  0  0  0
  149.5634  139.8647  155.9375 H   0  0  0  0  0  0  0  0  0  0  0  0
  150.4141  142.2071  155.4170 H   0  0  0  0  0  0  0  0  0  0  0  0
  149.8397  141.9945  153.7822 H   0  0  0  0  0  0  0  0  0  0  0  0
  147.8504  140.5596  156.5190 H   0  0  0  0  0  0  0  0  0  0  0  0
  148.6807  141.8889  157.2947 H   0  0  0  0  0  0  0  0  0  0  0  0
  146.2921  141.8270  157.9993 H   0  0  0  0  0  0  0  0  0  0  0  0
  146.7042  143.3182  157.1983 H   0  0  0  0  0  0  0  0  0  0  0  0
  144.5970  142.6487  156.3207 H   0  0  0  0  0  0  0  0  0  0  0  0
  145.7444  139.8778  155.7473 H   0  0  0  0  0  0  0  0  0  0  0  0
  144.6087  140.2903  156.9975 H   0  0  0  0  0  0  0  0  0  0  0  0
  143.9802  140.5228  154.1132 H   0  0  0  0  0  0  0  0  0  0  0  0
  142.0688  139.8209  153.3723 H   0  0  0  0  0  0  0  0  0  0  0  0
  141.1679  138.7354  154.4214 H   0  0  0  0  0  0  0  0  0  0  0  0
  140.5547  141.8087  152.5715 H   0  0  0  0  0  0  0  0  0  0  0  0
  145.1598  142.3961  153.8681 H   0  0  0  0  0  0  0  0  0  0  0  0
  146.0369  143.6422  154.6970 H   0  0  0  0  0  0  0  0  0  0  0  0
  147.5469  142.3676  153.2534 H   0  0  0  0  0  0  0  0  0  0  0  0
  147.1407  140.8636  154.0440 H   0  0  0  0  0  0  0  0  0  0  0  0
  148.3798  143.1805  155.3428 H   0  0  0  0  0  0  0  0  0  0  0  0
  1  2  1  0  0  0  0
  1 21  1  0  0  0  0
  1 22  1  0  0  0  0
  1 23  1  0  0  0  0
  2  3  1  0  0  0  0
  3  4  1  0  0  0  0
  3 24  1  0  0  0  0
  3 25  1  0  0  0  0
  4  5  1  0  0  0  0
  4 26  1  0  0  0  0
  4 27  1  0  0  0  0
  5 20  1  0  0  0  0
  5  6  1  0  0  0  0
  5 43  1  0  0  0  0
  6  7  1  0  0  0  0
  6 28  1  0  0  0  0
  6 29  1  0  0  0  0
  7  8  1  0  0  0  0
  7 30  1  0  0  0  0
  7 31  1  0  0  0  0
  8  9  1  0  0  0  0
  8 19  1  0  0  0  0
  8 32  1  0  0  0  0
  9 10  1  0  0  0  0
  9 33  1  0  0  0  0
  9 34  1  0  0  0  0
 10 11  1  0  0  0  0
 10 35  1  0  0  0  0
 11 12  2  0  0  0  0
 11 13  1  0  0  0  0
 13 14  1  0  0  0  0
 13 36  1  0  0  0  0
 13 37  1  0  0  0  0
 14 18  1  0  0  0  0
 14 15  1  0  0  0  0
 15 16  2  0  0  0  0
 15 38  1  0  0  0  0
 16 17  1  0  0  0  0
 17 18  2  0  0  0  0
 19 20  1  0  0  0  0
 19 39  1  0  0  0  0
 19 40  1  0  0  0  0
 20 41  1  0  0  0  0
 20 42  1  0  0  0  0
M  CHG  1   5   1
M  END
> <s_m_source_file>
AV-unprocessed.smi

> <i_m_source_file_index>
1015

> <i_lp_mmshare_version>
43012

> <i_f3d_flags>
0

> <s_epik_input>
W0NIM11PW0NIMl1bQ0gyXU4xW0NIMl1bQ0gyXVtDSF0oW0NIMl1bQ0gyXTEpW0NIMl1bTkhdQyg9TylbQ0gyXW4yW2NIXW5ubjI=

> <s_epik_cmdline>
J2VwaWtfcHl0aG9uJywgJy1waCcsICc3LjAnLCAnLXRuJywgJzgnLCAnLW1hJywgJzIwMCcsICctbWV0YWxfYmluZGluZycsICctaW1hZScsICc8aW5maWxlLm1hZT4nLCAnLW9tYWUnLCAnPG91dGZpbGUubWFlPic=

> <r_lp_tautomer_probability>
1

> <r_epik_Ionization_Penalty>
0.0104119

> <r_epik_Ionization_Penalty_Charging>
0.0104107

> <r_epik_Ionization_Penalty_Neutral>
1.19574e-06

> <r_epik_State_Penalty>
0.00795975

> <r_epik_Charging_Adjusted_Penalty>
0.0183705

> <i_epik_Tot_Q>
1

> <i_epik_Tot_abs_Q>
1

> <r_epik_Metal_State_Penalty>
0.00795975

> <b_epik_Metal_Only>
0

> <s_lp_Force_Field>
OPLS_2005

> <r_lp_Energy>
22.9597

> <b_lp_Chiralities_Consistent>
1

> <s_lp_Variant>
AV-unprocessed.smi:1015-2

> <Gold.Version>
5.8.1

> <Gold.Id.Protein>
6NUR|6NUR_protein|mol2

> <Gold.PLP.Fitness>
44.9590

> <Gold.PLP.PLP>
-26.0493

> <Gold.PLP.part.hbond>
-3.0000

> <Gold.PLP.part.metal>
0.0000

> <Gold.PLP.part.buried>
-1.5078

> <Gold.PLP.part.nonpolar>
-19.2832

> <Gold.PLP.part.repulsive>
0.3265

> <Gold.PLP.ligand.clash>
0.0000

> <Gold.PLP.ligand.torsion>
0.1369

> <Gold.PLP.Chemscore.Hbond>
4.0000

> <Gold.PLP.Chemscore.CHOScore>
2.3746

> <Gold.PLP.Chemscore.Metal>
0.0000

> <Gold.Chemscore.Hbonds>
donor molecule, donor type, donor heavy atom, donor atom, acceptor molecule, acceptor atom, score
      L1  H     5    43       P1  8028  2.00
      L1  H    10    35       P1 10175  1.00
      P1  H  7989  7998       L1     2  1.00
      L1  C    15    38       P1 10160  0.93
      L1  C    15    38       P1 10162  0.24
      L1  C    15    38       P1 10174  1.00

> <Gold.PLP.Chemscore.Internal.Correction>
0.0597

> <Gold.Rescore>
     Score         DG    S(hbond)    S(metal)    S(lipo)     H(rot)  DE(clash)    DE(int)     intcor
     10.84     -12.12       2.89        0.00      44.25       3.19       0.07       1.22       ----

> <Gold.Chemscore.Fitness>
10.8387

> <Gold.Chemscore.DG>
-12.1210

> <Gold.Chemscore.ZeroCoef>
-5.4800

> <Gold.Chemscore.Hbond>
2.8855

> <Gold.Chemscore.Metal>
0.0000

> <Gold.Chemscore.Lipo>
44.2486

> <Gold.Chemscore.Internal_Hbond>
0.0000

> <Gold.Chemscore.DEClash>
0.0657

> <Gold.Chemscore.DEInternal>
1.2165

> <Gold.Chemscore.Rot>
3.1928

> <Gold.Chemscore.Internal.Correction>
   9.000000E+99

> <Gold.Chemscore.Hbonds>
donor molecule, donor type, donor heavy atom, donor atom, acceptor molecule, acceptor atom, score
      L1  H     5    43       P1  8028  0.98
      L1  H    10    35       P1 10175  0.98
      P1  H  7989  7998       L1     2  0.59

> <Gold.Chemscore.Hbond.Weighted>
-9.6375

> <Gold.Chemscore.Metal.Weighted>
-0.0000

> <Gold.Chemscore.Lipo.Weighted>
-5.1771

> <Gold.Chemscore.Internal_Hbond.Weighted>
0.0000

> <Gold.Chemscore.DEClash.Weighted>
0.0657

> <Gold.Chemscore.DEInternal.Weighted>
1.2165

> <Gold.Chemscore.Rot.Weighted>
8.1737

> <Gold.Chemscore.Internal.Correction.Weighted>
   9.000000E+99

> <Gold.Protein.RotatedTorsions>
[ 6907 6896 6895 6894 ] final -134.10 input  -60.11 | X-H torsion
[ 7974 7965 7964 7962 ] final  -48.93 input  175.53 | X-H torsion
[ 8008 7997 7996 7995 ] final   64.60 input   59.86 | X-H torsion
[ 10167 10162 10161 10158 ] final  119.92 input  -65.29 | X-H torsion
[ 10718 10713 10712 10709 ] final    4.12 input   66.30 | X-H torsion
[ 10763 10752 10751 10750 ] final   15.87 input  -60.55 | X-H torsion
[ 11005 11000 10999 10996 ] final   63.53 input  -57.11 | X-H torsion

> <Gold.Protein.ActiveResidues>
 VAL166  LYS551  ARG553  GLY616  TRP617  ASP618  TYR619  PRO620  LYS621  CYS622 
 ASP623  PHE694  ASN695  SER759  ASP760  ASP761  ALA762  ILE779  LEU786  VAL792 
 PHE793  MET794  SER795  GLU796  ALA797  LYS798  CYS799  TRP800  GLU811  SER814 

> <Gold.Protein.RotatedAtoms>
  150.9818  133.6237  159.2721 H   0  0  0  0  0  0  0  0  0  0  0  0  # atno 6907 bound_to 6896
  151.3489  135.0879  159.9406 H   0  0  0  0  0  0  0  0  0  0  0  0  # atno 6908 bound_to 6896
  152.5218  133.9415  159.7683 H   0  0  0  0  0  0  0  0  0  0  0  0  # atno 6909 bound_to 6896
  145.9460  140.7618  142.9528 H   0  0  0  0  0  0  0  0  0  0  0  0  # atno 7974 bound_to 7965
  155.6486  140.3497  155.4740 H   0  0  0  0  0  0  0  0  0  0  0  0  # atno 8008 bound_to 7997
  155.9866  140.1185  157.0700 H   0  0  0  0  0  0  0  0  0  0  0  0  # atno 8009 bound_to 7997
  154.4207  140.1127  156.5495 H   0  0  0  0  0  0  0  0  0  0  0  0  # atno 8010 bound_to 7997
  139.6015  144.7058  151.3052 H   0  0  0  0  0  0  0  0  0  0  0  0  # atno 10167 bound_to 10162
  156.8879  130.5677  149.5651 H   0  0  0  0  0  0  0  0  0  0  0  0  # atno 10718 bound_to 10713
  153.1485  135.6774  153.8918 H   0  0  0  0  0  0  0  0  0  0  0  0  # atno 10763 bound_to 10752
  153.8353  135.3112  155.3423 H   0  0  0  0  0  0  0  0  0  0  0  0  # atno 10764 bound_to 10752
  154.7843  135.4870  153.9998 H   0  0  0  0  0  0  0  0  0  0  0  0  # atno 10765 bound_to 10752
  140.0018  134.6430  155.9918 H   0  0  0  0  0  0  0  0  0  0  0  0  # atno 11005 bound_to 11000
  144.6787  140.2357  143.7350 LP  0  0  0  0  0  0  0  0  0  0  0  0  # atno 17320 bound_to 7965
  145.8236  139.2054  143.1923 LP  0  0  0  0  0  0  0  0  0  0  0  0  # atno 17321 bound_to 7965
  140.7253  143.7021  150.7836 LP  0  0  0  0  0  0  0  0  0  0  0  0  # atno 17342 bound_to 10162
  140.0599  143.5165  152.2633 LP  0  0  0  0  0  0  0  0  0  0  0  0  # atno 17343 bound_to 10162
  156.0644  130.5690  150.9258 LP  0  0  0  0  0  0  0  0  0  0  0  0  # atno 17370 bound_to 10713
  157.6101  131.0937  150.8809 LP  0  0  0  0  0  0  0  0  0  0  0  0  # atno 17371 bound_to 10713
  141.1648  133.6537  156.4440 LP  0  0  0  0  0  0  0  0  0  0  0  0  # atno 17394 bound_to 11000
  140.4713  134.6750  157.5130 LP  0  0  0  0  0  0  0  0  0  0  0  0  # atno 17395 bound_to 11000

$$$$
