AV-unprocessed.smi:155|AV-procd|sdf|1276|dock8
  -GOLD-   2262018543D 1   1.00000     0.00000
 Structure written by MMmdl.
 63 66  0  0  0  0  0  0  0  0  2 V2000
  146.1948  131.6142  152.5036 C   0  0  0  0  0  0  0  0  0  0  0  0
  146.0457  133.0141  152.0419 N   0  3  0  0  0  0  0  0  0  0  0  0
  146.4821  133.1691  150.6366 C   0  0  0  0  0  0  0  0  0  0  0  0
  146.6940  133.9992  152.9433 C   0  0  0  0  0  0  0  0  0  0  0  0
  146.1695  133.8983  154.3912 C   0  0  0  0  0  0  0  0  0  0  0  0
  147.1591  134.3551  155.3679 N   0  0  0  0  0  0  0  0  0  0  0  0
  148.3774  133.5311  155.3667 C   0  0  0  0  0  0  0  0  0  0  0  0
  149.4466  133.9492  154.3356 C   0  0  0  0  0  0  0  0  0  0  0  0
  150.4307  134.9950  154.8941 C   0  0  0  0  0  0  0  0  0  0  0  0
  149.8078  136.2954  155.1456 N   0  0  0  0  0  0  0  0  0  0  0  0
  150.6106  137.3882  155.2057 C   0  0  0  0  0  0  0  0  0  0  0  0
  151.8375  137.3553  154.6201 N   0  0  0  0  0  0  0  0  0  0  0  0
  152.6408  138.4219  154.6749 C   0  0  0  0  0  0  0  0  0  0  0  0
  152.4195  139.6051  155.2505 N   0  0  0  0  0  0  0  0  0  0  0  0
  151.1870  139.6477  155.8323 C   0  0  0  0  0  0  0  0  0  0  0  0
  150.2281  138.5956  155.8564 C   0  0  0  0  0  0  0  0  0  0  0  0
  149.0841  139.0140  156.5269 N   0  0  0  0  0  0  0  0  0  0  0  0
  149.3539  140.2397  156.8842 C   0  0  0  0  0  0  0  0  0  0  0  0
  150.5916  140.7028  156.5006 N   0  0  0  0  0  0  0  0  0  0  0  0
  151.1356  142.0251  156.7502 C   0  0  0  0  0  0  0  0  0  0  0  0
  151.4361  142.2784  158.2425 C   0  0  1  0  0  0  0  0  0  0  0  0
  151.9911  141.0844  158.7558 O   0  0  0  0  0  0  0  0  0  0  0  0
  152.4224  143.4458  158.5113 C   0  0  2  0  0  0  0  0  0  0  0  0
  152.6430  143.7591  159.9938 C   0  0  0  0  0  0  0  0  0  0  0  0
  151.4626  144.6426  160.3548 C   0  0  0  0  0  0  0  0  0  0  0  0
  151.0448  145.2561  159.0169 C   0  0  0  0  0  0  0  0  0  0  0  0
  151.9104  144.6869  158.0406 O   0  0  0  0  0  0  0  0  0  0  0  0
  148.5932  136.3382  155.9585 C   0  0  0  0  0  0  0  0  0  0  0  0
  147.3961  135.7881  155.1660 C   0  0  0  0  0  0  0  0  0  0  0  0
  147.2440  131.3159  152.5132 H   0  0  0  0  0  0  0  0  0  0  0  0
  145.6564  130.9346  151.8422 H   0  0  0  0  0  0  0  0  0  0  0  0
  145.7941  131.4751  153.5069 H   0  0  0  0  0  0  0  0  0  0  0  0
  147.5531  132.9874  150.5373 H   0  0  0  0  0  0  0  0  0  0  0  0
  146.2694  134.1750  150.2730 H   0  0  0  0  0  0  0  0  0  0  0  0
  145.9546  132.4682  149.9888 H   0  0  0  0  0  0  0  0  0  0  0  0
  147.7755  133.8558  152.9078 H   0  0  0  0  0  0  0  0  0  0  0  0
  146.5043  135.0058  152.5699 H   0  0  0  0  0  0  0  0  0  0  0  0
  145.2297  134.4401  154.5058 H   0  0  0  0  0  0  0  0  0  0  0  0
  145.9471  132.8542  154.6108 H   0  0  0  0  0  0  0  0  0  0  0  0
  148.8151  133.5653  156.3648 H   0  0  0  0  0  0  0  0  0  0  0  0
  148.1207  132.4840  155.2166 H   0  0  0  0  0  0  0  0  0  0  0  0
  150.0280  133.0628  154.0808 H   0  0  0  0  0  0  0  0  0  0  0  0
  148.9997  134.2839  153.3988 H   0  0  0  0  0  0  0  0  0  0  0  0
  150.8855  134.6289  155.8156 H   0  0  0  0  0  0  0  0  0  0  0  0
  151.2399  135.1206  154.1732 H   0  0  0  0  0  0  0  0  0  0  0  0
  153.5979  138.3111  154.1869 H   0  0  0  0  0  0  0  0  0  0  0  0
  148.6486  140.8485  157.4309 H   0  0  0  0  0  0  0  0  0  0  0  0
  152.0489  142.1225  156.1615 H   0  0  0  0  0  0  0  0  0  0  0  0
  150.4396  142.7729  156.3680 H   0  0  0  0  0  0  0  0  0  0  0  0
  150.4980  142.4508  158.7712 H   0  0  0  0  0  0  0  0  0  0  0  0
  151.2842  140.5109  159.0098 H   0  0  0  0  0  0  0  0  0  0  0  0
  153.3727  143.2383  158.0178 H   0  0  0  0  0  0  0  0  0  0  0  0
  152.7232  142.8758  160.6278 H   0  0  0  0  0  0  0  0  0  0  0  0
  153.5667  144.3283  160.1065 H   0  0  0  0  0  0  0  0  0  0  0  0
  150.6481  144.0430  160.7626 H   0  0  0  0  0  0  0  0  0  0  0  0
  151.7283  145.3970  161.0957 H   0  0  0  0  0  0  0  0  0  0  0  0
  150.0092  145.0076  158.7818 H   0  0  0  0  0  0  0  0  0  0  0  0
  151.1411  146.3420  159.0133 H   0  0  0  0  0  0  0  0  0  0  0  0
  148.7419  135.7918  156.8905 H   0  0  0  0  0  0  0  0  0  0  0  0
  148.3697  137.3614  156.2593 H   0  0  0  0  0  0  0  0  0  0  0  0
  147.5152  136.0206  154.1061 H   0  0  0  0  0  0  0  0  0  0  0  0
  146.4949  136.3110  155.4885 H   0  0  0  0  0  0  0  0  0  0  0  0
  145.0575  133.2238  152.0509 H   0  0  0  0  0  0  0  0  0  0  0  0
  1  2  1  0  0  0  0
  1 30  1  0  0  0  0
  1 31  1  0  0  0  0
  1 32  1  0  0  0  0
  2  3  1  0  0  0  0
  2  4  1  0  0  0  0
  2 63  1  0  0  0  0
  3 33  1  0  0  0  0
  3 34  1  0  0  0  0
  3 35  1  0  0  0  0
  4  5  1  0  0  0  0
  4 36  1  0  0  0  0
  4 37  1  0  0  0  0
  5  6  1  0  0  0  0
  5 38  1  0  0  0  0
  5 39  1  0  0  0  0
  6 29  1  0  0  0  0
  6  7  1  0  0  0  0
  7  8  1  0  0  0  0
  7 40  1  0  0  0  0
  7 41  1  0  0  0  0
  8  9  1  0  0  0  0
  8 42  1  0  0  0  0
  8 43  1  0  0  0  0
  9 10  1  0  0  0  0
  9 44  1  0  0  0  0
  9 45  1  0  0  0  0
 10 11  1  0  0  0  0
 10 28  1  0  0  0  0
 11 16  1  0  0  0  0
 11 12  2  0  0  0  0
 12 13  1  0  0  0  0
 13 14  2  0  0  0  0
 13 46  1  0  0  0  0
 14 15  1  0  0  0  0
 15 19  1  0  0  0  0
 15 16  2  0  0  0  0
 16 17  1  0  0  0  0
 17 18  2  0  0  0  0
 18 19  1  0  0  0  0
 18 47  1  0  0  0  0
 19 20  1  0  0  0  0
 20 21  1  0  0  0  0
 20 48  1  0  0  0  0
 20 49  1  0  0  0  0
 21 22  1  0  0  0  0
 21 23  1  0  0  0  0
 21 50  1  0  0  0  0
 22 51  1  0  0  0  0
 23 27  1  0  0  0  0
 23 24  1  0  0  0  0
 23 52  1  0  0  0  0
 24 25  1  0  0  0  0
 24 53  1  0  0  0  0
 24 54  1  0  0  0  0
 25 26  1  0  0  0  0
 25 55  1  0  0  0  0
 25 56  1  0  0  0  0
 26 27  1  0  0  0  0
 26 57  1  0  0  0  0
 26 58  1  0  0  0  0
 28 29  1  0  0  0  0
 28 59  1  0  0  0  0
 28 60  1  0  0  0  0
 29 61  1  0  0  0  0
 29 62  1  0  0  0  0
M  CHG  1   2   1
M  END
> <s_m_source_file>
AV-unprocessed.smi

> <i_m_source_file_index>
155

> <i_lp_mmshare_version>
43012

> <i_f3d_flags>
0

> <s_epik_input>
W0NIM11OKFtDSDNdKVtDSDJdW0NIMl1OMVtDSDJdW0NIMl1bQ0gyXU4oW0NIMl1bQ0gyXTEpYyhuW2NIXW4yKWMoYzIzKW5bY0hdbjNbQ0gyXVtDQEhdKFtPSF0pW0NAQEhdNFtDSDJdW0NIMl1bQ0gyXU80

> <s_epik_cmdline>
J2VwaWtfcHl0aG9uJywgJy1waCcsICc3LjAnLCAnLXRuJywgJzgnLCAnLW1hJywgJzIwMCcsICctbWV0YWxfYmluZGluZycsICctaW1hZScsICc8aW5maWxlLm1hZT4nLCAnLW9tYWUnLCAnPG91dGZpbGUubWFlPic=

> <r_lp_tautomer_probability>
1

> <r_epik_Ionization_Penalty>
0.0599493

> <r_epik_Ionization_Penalty_Charging>
0.00816363

> <r_epik_Ionization_Penalty_Neutral>
0.0517857

> <r_epik_State_Penalty>
0.460607

> <r_epik_Charging_Adjusted_Penalty>
0.468771

> <i_epik_Tot_Q>
1

> <i_epik_Tot_abs_Q>
1

> <r_epik_Metal_State_Penalty>
0.45965

> <b_epik_Metal_Only>
0

> <s_lp_Force_Field>
OPLS_2005

> <r_lp_Energy>
58.8836

> <b_lp_Chiralities_Consistent>
1

> <s_lp_Variant>
AV-unprocessed.smi:155-10

> <Gold.Version>
5.8.1

> <Gold.Id.Protein>
6NUR|6NUR_protein|mol2

> <Gold.PLP.Fitness>
51.7082

> <Gold.PLP.PLP>
-46.9931

> <Gold.PLP.part.hbond>
-2.4528

> <Gold.PLP.part.metal>
0.0000

> <Gold.PLP.part.buried>
-8.1098

> <Gold.PLP.part.nonpolar>
-36.7370

> <Gold.PLP.part.repulsive>
0.2897

> <Gold.PLP.ligand.clash>
0.0000

> <Gold.PLP.ligand.torsion>
0.5434

> <Gold.PLP.Chemscore.Hbond>
1.8055

> <Gold.PLP.Chemscore.CHOScore>
0.0000

> <Gold.PLP.Chemscore.Metal>
0.0000

> <Gold.Chemscore.Hbonds>
donor molecule, donor type, donor heavy atom, donor atom, acceptor molecule, acceptor atom, score
      P1  H  7989  7998       L1    14  0.15
      P1  H  7997  8009       L1    14  0.60
      P1  H 10752 10765       L1    12  0.91

> <Gold.PLP.Chemscore.Internal.Correction>
0.3853

> <Gold.Rescore>
     Score         DG    S(hbond)    S(metal)    S(lipo)     H(rot)  DE(clash)    DE(int)     intcor
     13.68     -15.71       1.45        0.00     105.21       2.71       0.15       1.88       ----

> <Gold.Chemscore.Fitness>
13.6798

> <Gold.Chemscore.DG>
-15.7058

> <Gold.Chemscore.ZeroCoef>
-5.4800

> <Gold.Chemscore.Hbond>
1.4519

> <Gold.Chemscore.Metal>
0.0000

> <Gold.Chemscore.Lipo>
105.2055

> <Gold.Chemscore.Internal_Hbond>
0.0000

> <Gold.Chemscore.DEClash>
0.1471

> <Gold.Chemscore.DEInternal>
1.8790

> <Gold.Chemscore.Rot>
2.7080

> <Gold.Chemscore.Internal.Correction>
   9.000000E+99

> <Gold.Chemscore.Hbonds>
donor molecule, donor type, donor heavy atom, donor atom, acceptor molecule, acceptor atom, score
      P1  H  7997  8009       L1    14  0.24
      P1  H 10752 10765       L1    12  0.57

> <Gold.Chemscore.Hbond.Weighted>
-4.8494

> <Gold.Chemscore.Metal.Weighted>
-0.0000

> <Gold.Chemscore.Lipo.Weighted>
-12.3090

> <Gold.Chemscore.Internal_Hbond.Weighted>
0.0000

> <Gold.Chemscore.DEClash.Weighted>
0.1471

> <Gold.Chemscore.DEInternal.Weighted>
1.8790

> <Gold.Chemscore.Rot.Weighted>
6.9326

> <Gold.Chemscore.Internal.Correction.Weighted>
   9.000000E+99

> <Gold.Protein.RotatedTorsions>
[ 6907 6896 6895 6894 ] final  -41.21 input  -60.11 | X-H torsion
[ 7974 7965 7964 7962 ] final   31.55 input  175.53 | X-H torsion
[ 8008 7997 7996 7995 ] final -141.62 input   59.86 | X-H torsion
[ 10167 10162 10161 10158 ] final  151.70 input  -65.29 | X-H torsion
[ 10718 10713 10712 10709 ] final   69.56 input   66.30 | X-H torsion
[ 10763 10752 10751 10750 ] final  157.70 input  -60.55 | X-H torsion
[ 11005 11000 10999 10996 ] final  177.18 input  -57.11 | X-H torsion

> <Gold.Protein.ActiveResidues>
 VAL166  LYS551  ARG553  GLY616  TRP617  ASP618  TYR619  PRO620  LYS621  CYS622 
 ASP623  PHE694  ASN695  SER759  ASP760  ASP761  ALA762  ILE779  LEU786  VAL792 
 PHE793  MET794  SER795  GLU796  ALA797  LYS798  CYS799  TRP800  GLU811  SER814 

> <Gold.Protein.RotatedAtoms>
  150.9694  134.9069  159.7778 H   0  0  0  0  0  0  0  0  0  0  0  0  # atno 6907 bound_to 6896
  152.5185  134.3562  159.9278 H   0  0  0  0  0  0  0  0  0  0  0  0  # atno 6908 bound_to 6896
  151.3571  133.3862  159.2720 H   0  0  0  0  0  0  0  0  0  0  0  0  # atno 6909 bound_to 6896
  146.1543  139.6642  142.9077 H   0  0  0  0  0  0  0  0  0  0  0  0  # atno 7974 bound_to 7965
  155.4808  140.0560  157.2967 H   0  0  0  0  0  0  0  0  0  0  0  0  # atno 8008 bound_to 7997
  154.4661  140.2019  156.0068 H   0  0  0  0  0  0  0  0  0  0  0  0  # atno 8009 bound_to 7997
  156.0976  140.3224  155.7903 H   0  0  0  0  0  0  0  0  0  0  0  0  # atno 8010 bound_to 7997
  139.4838  144.5419  151.7550 H   0  0  0  0  0  0  0  0  0  0  0  0  # atno 10167 bound_to 10162
  157.6352  130.9432  150.0530 H   0  0  0  0  0  0  0  0  0  0  0  0  # atno 10718 bound_to 10713
  154.2044  135.2789  155.2980 H   0  0  0  0  0  0  0  0  0  0  0  0  # atno 10763 bound_to 10752
  154.5828  135.5584  153.7205 H   0  0  0  0  0  0  0  0  0  0  0  0  # atno 10764 bound_to 10752
  153.0079  135.6349  154.2183 H   0  0  0  0  0  0  0  0  0  0  0  0  # atno 10765 bound_to 10752
  140.3813  134.6944  157.4452 H   0  0  0  0  0  0  0  0  0  0  0  0  # atno 11005 bound_to 11000
  145.4747  141.0437  143.2679 LP  0  0  0  0  0  0  0  0  0  0  0  0  # atno 17320 bound_to 7965
  144.7943  139.6266  143.7099 LP  0  0  0  0  0  0  0  0  0  0  0  0  # atno 17321 bound_to 7965
  140.4959  144.1240  150.5960 LP  0  0  0  0  0  0  0  0  0  0  0  0  # atno 17342 bound_to 10162
  140.4117  143.2653  151.9824 LP  0  0  0  0  0  0  0  0  0  0  0  0  # atno 17343 bound_to 10162
  156.1586  130.3643  149.9332 LP  0  0  0  0  0  0  0  0  0  0  0  0  # atno 17370 bound_to 10713
  156.7336  130.9052  151.3627 LP  0  0  0  0  0  0  0  0  0  0  0  0  # atno 17371 bound_to 10713
  140.0476  134.6176  155.8901 LP  0  0  0  0  0  0  0  0  0  0  0  0  # atno 17394 bound_to 11000
  141.1922  133.6574  156.5493 LP  0  0  0  0  0  0  0  0  0  0  0  0  # atno 17395 bound_to 11000

$$$$
