AV-unprocessed.smi:743|AV-procd|sdf|3566|dock1
  -GOLD-   22720 0563D 1   1.00000     0.00000
 Structure written by MMmdl.
 28 29  0  0  0  0  0  0  0  0  1 V2000
  153.0408  143.0937  160.2207 C   0  0  0  0  0  0  0  0  0  0  0  0
  152.2946  142.6827  159.0508 N   0  0  0  0  0  0  0  0  0  0  0  0
  151.8648  141.4197  158.7062 C   0  0  0  0  0  0  0  0  0  0  0  0
  151.1930  141.5196  157.5196 C   0  0  0  0  0  0  0  0  0  0  0  0
  150.5227  140.4229  156.7253 C   0  0  2  0  0  0  0  0  0  0  0  0
  151.4648  139.3329  156.4527 N   0  0  0  0  0  0  0  0  0  0  0  0
  151.5625  138.6050  155.3256 C   0  0  0  0  0  0  0  0  0  0  0  0
  152.3615  137.6765  155.2293 O   0  0  0  0  0  0  0  0  0  0  0  0
  150.6778  138.9659  154.1239 C   0  0  0  0  0  0  0  0  0  0  0  0
  149.4668  139.8318  154.5007 C   0  0  0  0  0  0  0  0  0  0  0  0
  149.8913  140.9778  155.4261 C   0  0  1  0  0  0  0  0  0  0  0  0
  148.7440  141.8177  155.7204 N   0  0  0  0  0  0  0  0  0  0  0  0
  151.2696  142.9119  157.2208 C   0  0  0  0  0  0  0  0  0  0  0  0
  151.9282  143.6030  158.1362 N   0  0  0  0  0  0  0  0  0  0  0  0
  150.6266  141.5901  154.9015 H   0  0  0  0  0  0  0  0  0  0  0  0
  153.5475  142.2341  160.6600 H   0  0  0  0  0  0  0  0  0  0  0  0
  152.3595  143.5200  160.9571 H   0  0  0  0  0  0  0  0  0  0  0  0
  153.7871  143.8408  159.9475 H   0  0  0  0  0  0  0  0  0  0  0  0
  152.0670  140.5607  159.3293 H   0  0  0  0  0  0  0  0  0  0  0  0
  149.7299  139.9706  157.3235 H   0  0  0  0  0  0  0  0  0  0  0  0
  152.0805  139.0815  157.2125 H   0  0  0  0  0  0  0  0  0  0  0  0
  151.2998  139.5020  153.4063 H   0  0  0  0  0  0  0  0  0  0  0  0
  150.3453  138.0529  153.6284 H   0  0  0  0  0  0  0  0  0  0  0  0
  149.0074  140.2265  153.5935 H   0  0  0  0  0  0  0  0  0  0  0  0
  148.7109  139.2141  154.9884 H   0  0  0  0  0  0  0  0  0  0  0  0
  149.0502  142.7694  155.8637 H   0  0  0  0  0  0  0  0  0  0  0  0
  148.1236  141.8341  154.9236 H   0  0  0  0  0  0  0  0  0  0  0  0
  150.8647  143.4385  156.3691 H   0  0  0  0  0  0  0  0  0  0  0  0
  1  2  1  0  0  0  0
  1 16  1  0  0  0  0
  1 17  1  0  0  0  0
  1 18  1  0  0  0  0
  2 14  1  0  0  0  0
  2  3  1  0  0  0  0
  3  4  2  0  0  0  0
  3 19  1  0  0  0  0
  4  5  1  0  0  0  0
  4 13  1  0  0  0  0
  5 11  1  0  0  0  0
  5  6  1  0  0  0  0
  5 20  1  0  0  0  0
  6  7  1  0  0  0  0
  6 21  1  0  0  0  0
  7  8  2  0  0  0  0
  7  9  1  0  0  0  0
  9 10  1  0  0  0  0
  9 22  1  0  0  0  0
  9 23  1  0  0  0  0
 10 11  1  0  0  0  0
 10 24  1  0  0  0  0
 10 25  1  0  0  0  0
 11 15  1  0  0  0  0
 11 12  1  0  0  0  0
 12 26  1  0  0  0  0
 12 27  1  0  0  0  0
 13 14  2  0  0  0  0
 13 28  1  0  0  0  0
M  END
> <s_m_source_file>
AV-unprocessed.smi

> <i_m_source_file_index>
743

> <i_lp_mmshare_version>
43012

> <i_f3d_flags>
0

> <s_epik_input>
W0NIM11uMVtjSF1jKFtjSF1uMSlbQ0BASF0yW05IXUMoPU8pW0NIMl1bQ0gyXVtDQEBIXTJbTkgyXQ==

> <s_epik_cmdline>
J2VwaWtfcHl0aG9uJywgJy1waCcsICc3LjAnLCAnLXRuJywgJzgnLCAnLW1hJywgJzIwMCcsICctbWV0YWxfYmluZGluZycsICctaW1hZScsICc8aW5maWxlLm1hZT4nLCAnLW9tYWUnLCAnPG91dGZpbGUubWFlPic=

> <r_lp_tautomer_probability>
1

> <r_epik_Ionization_Penalty>
2.50279

> <r_epik_Ionization_Penalty_Charging>
0

> <r_epik_Ionization_Penalty_Neutral>
2.50279

> <r_epik_State_Penalty>
2.66754

> <r_epik_Charging_Adjusted_Penalty>
2.66754

> <i_epik_Tot_Q>
0

> <i_epik_Tot_abs_Q>
0

> <r_epik_Metal_State_Penalty>
2.66721

> <b_epik_Metal_Only>
0

> <s_lp_Force_Field>
OPLS_2005

> <r_lp_Energy>
8.43832

> <b_lp_Chiralities_Consistent>
1

> <s_lp_Variant>
AV-unprocessed.smi:743-7

> <Gold.Version>
5.8.1

> <Gold.Id.Protein>
6NUR|6NUR_protein|mol2

> <Gold.PLP.Fitness>
35.0657

> <Gold.PLP.PLP>
-27.9921

> <Gold.PLP.part.hbond>
-2.0000

> <Gold.PLP.part.metal>
0.0000

> <Gold.PLP.part.buried>
-3.9444

> <Gold.PLP.part.nonpolar>
-21.8704

> <Gold.PLP.part.repulsive>
0.1905

> <Gold.PLP.ligand.clash>
0.0000

> <Gold.PLP.ligand.torsion>
0.0377

> <Gold.PLP.Chemscore.Hbond>
1.3744

> <Gold.PLP.Chemscore.CHOScore>
1.0000

> <Gold.PLP.Chemscore.Metal>
0.0000

> <Gold.Chemscore.Hbonds>
donor molecule, donor type, donor heavy atom, donor atom, acceptor molecule, acceptor atom, score
      L1  H    12    26       P1  8028  1.00
      P1  H 10752 10764       L1     8  0.29
      L1  C    13    28       P1  8028  1.00

> <Gold.PLP.Chemscore.Internal.Correction>
0.0258

> <Gold.Rescore>
     Score         DG    S(hbond)    S(metal)    S(lipo)     H(rot)  DE(clash)    DE(int)     intcor
     15.20     -15.30       1.46        0.00      64.26       1.00       0.06       0.04       ----

> <Gold.Chemscore.Fitness>
15.2040

> <Gold.Chemscore.DG>
-15.3037

> <Gold.Chemscore.ZeroCoef>
-5.4800

> <Gold.Chemscore.Hbond>
1.4568

> <Gold.Chemscore.Metal>
0.0000

> <Gold.Chemscore.Lipo>
64.2564

> <Gold.Chemscore.Internal_Hbond>
0.0000

> <Gold.Chemscore.DEClash>
0.0634

> <Gold.Chemscore.DEInternal>
0.0363

> <Gold.Chemscore.Rot>
1.0000

> <Gold.Chemscore.Internal.Correction>
   9.000000E+99

> <Gold.Chemscore.Hbonds>
donor molecule, donor type, donor heavy atom, donor atom, acceptor molecule, acceptor atom, score
      L1  H    12    26       P1  8028  0.95
      P1  H 10752 10764       L1     8  0.30

> <Gold.Chemscore.Hbond.Weighted>
-4.8657

> <Gold.Chemscore.Metal.Weighted>
-0.0000

> <Gold.Chemscore.Lipo.Weighted>
-7.5180

> <Gold.Chemscore.Internal_Hbond.Weighted>
0.0000

> <Gold.Chemscore.DEClash.Weighted>
0.0634

> <Gold.Chemscore.DEInternal.Weighted>
0.0363

> <Gold.Chemscore.Rot.Weighted>
2.5600

> <Gold.Chemscore.Internal.Correction.Weighted>
   9.000000E+99

> <Gold.Protein.RotatedTorsions>
[ 6907 6896 6895 6894 ] final -102.35 input  -60.11 | X-H torsion
[ 7974 7965 7964 7962 ] final   82.57 input  175.53 | X-H torsion
[ 8008 7997 7996 7995 ] final -156.45 input   59.86 | X-H torsion
[ 10167 10162 10161 10158 ] final -158.62 input  -65.29 | X-H torsion
[ 10718 10713 10712 10709 ] final  -25.90 input   66.30 | X-H torsion
[ 10763 10752 10751 10750 ] final  -63.30 input  -60.55 | X-H torsion
[ 11005 11000 10999 10996 ] final   29.07 input  -57.11 | X-H torsion

> <Gold.Protein.ActiveResidues>
 VAL166  LYS551  ARG553  GLY616  TRP617  ASP618  TYR619  PRO620  LYS621  CYS622 
 ASP623  PHE694  ASN695  SER759  ASP760  ASP761  ALA762  ILE779  LEU786  VAL792 
 PHE793  MET794  SER795  GLU796  ALA797  LYS798  CYS799  TRP800  GLU811  SER814 

> <Gold.Protein.RotatedAtoms>
  150.7192  134.0595  159.3825 H   0  0  0  0  0  0  0  0  0  0  0  0  # atno 6907 bound_to 6896
  151.8574  135.0534  160.0475 H   0  0  0  0  0  0  0  0  0  0  0  0  # atno 6908 bound_to 6896
  152.2744  133.5376  159.5495 H   0  0  0  0  0  0  0  0  0  0  0  0  # atno 6909 bound_to 6896
  145.6234  139.2390  143.2126 H   0  0  0  0  0  0  0  0  0  0  0  0  # atno 7974 bound_to 7965
  155.7174  140.0786  157.2345 H   0  0  0  0  0  0  0  0  0  0  0  0  # atno 8008 bound_to 7997
  154.4050  140.1619  156.2418 H   0  0  0  0  0  0  0  0  0  0  0  0  # atno 8009 bound_to 7997
  155.9228  140.3396  155.6189 H   0  0  0  0  0  0  0  0  0  0  0  0  # atno 8010 bound_to 7997
  139.6678  143.9798  152.2265 H   0  0  0  0  0  0  0  0  0  0  0  0  # atno 10167 bound_to 10162
  156.4583  130.4498  149.6945 H   0  0  0  0  0  0  0  0  0  0  0  0  # atno 10718 bound_to 10713
  154.3129  135.6212  153.5473 H   0  0  0  0  0  0  0  0  0  0  0  0  # atno 10763 bound_to 10752
  152.9827  135.5705  154.5157 H   0  0  0  0  0  0  0  0  0  0  0  0  # atno 10764 bound_to 10752
  154.4810  135.2863  155.1547 H   0  0  0  0  0  0  0  0  0  0  0  0  # atno 10765 bound_to 10752
  140.3089  134.2672  155.7738 H   0  0  0  0  0  0  0  0  0  0  0  0  # atno 11005 bound_to 11000
  146.1413  140.7053  142.9365 LP  0  0  0  0  0  0  0  0  0  0  0  0  # atno 17320 bound_to 7965
  144.7222  140.4410  143.6999 LP  0  0  0  0  0  0  0  0  0  0  0  0  # atno 17321 bound_to 7965
  139.9554  144.6593  150.8131 LP  0  0  0  0  0  0  0  0  0  0  0  0  # atno 17342 bound_to 10162
  140.7606  143.3155  151.2742 LP  0  0  0  0  0  0  0  0  0  0  0  0  # atno 17343 bound_to 10162
  156.3744  130.7547  151.2533 LP  0  0  0  0  0  0  0  0  0  0  0  0  # atno 17370 bound_to 10713
  157.7499  131.0314  150.4179 LP  0  0  0  0  0  0  0  0  0  0  0  0  # atno 17371 bound_to 10713
  141.2112  133.7695  156.9877 LP  0  0  0  0  0  0  0  0  0  0  0  0  # atno 17394 bound_to 11000
  140.1043  134.9516  157.1970 LP  0  0  0  0  0  0  0  0  0  0  0  0  # atno 17395 bound_to 11000

$$$$
