AV-unprocessed.smi:794|AV-procd|sdf|3757|dock4
  -GOLD-   22720 1193D 1   1.00000     0.00000
 Structure written by MMmdl.
 41 43  0  0  0  0  0  0  0  0  1 V2000
  149.8603  125.1017  153.0782 C   0  0  0  0  0  0  0  0  0  0  0  0
  149.6932  126.1439  152.0153 C   0  0  0  0  0  0  0  0  0  0  0  0
  148.9838  127.3146  152.3010 N   0  0  0  0  0  0  0  0  0  0  0  0
  148.9269  128.1406  151.2515 C   0  0  0  0  0  0  0  0  0  0  0  0
  148.2758  129.4017  151.2580 N   0  0  0  0  0  0  0  0  0  0  0  0
  147.2189  129.7888  151.9932 C   0  0  0  0  0  0  0  0  0  0  0  0
  146.6094  129.0795  152.7940 O   0  0  0  0  0  0  0  0  0  0  0  0
  146.8974  131.0654  151.7401 N   0  0  0  0  0  0  0  0  0  0  0  0
  145.8156  131.8135  152.3829 C   0  0  1  0  0  0  0  0  0  0  0  0
  146.3123  133.1403  153.0096 C   0  0  1  0  0  0  0  0  0  0  0  0
  147.1388  133.9660  152.0000 C   0  0  0  0  0  0  0  0  0  0  0  0
  146.0712  134.4287  150.9926 C   0  0  0  0  0  0  0  0  0  0  0  0
  144.7685  133.8399  151.5739 C   0  0  2  0  0  0  0  0  0  0  0  0
  145.0295  133.9633  153.0705 C   0  0  0  0  0  0  0  0  0  0  0  0
  144.7012  132.3013  151.4116 C   0  0  1  0  0  0  0  0  0  0  0  0
  144.7363  131.7715  149.9602 C   0  0  0  0  0  0  0  0  0  0  0  0
  143.4262  131.6605  149.4461 O   0  0  0  0  0  0  0  0  0  0  0  0
  149.7474  127.5270  149.8269 S   0  0  0  0  0  0  0  0  0  0  0  0
  150.1732  126.0925  150.7268 C   0  0  0  0  0  0  0  0  0  0  0  0
  150.9658  124.9981  150.0929 C   0  0  0  0  0  0  0  0  0  0  0  0
  150.9065  124.8149  153.1865 H   0  0  0  0  0  0  0  0  0  0  0  0
  149.2944  124.2017  152.8365 H   0  0  0  0  0  0  0  0  0  0  0  0
  149.5157  125.4568  154.0503 H   0  0  0  0  0  0  0  0  0  0  0  0
  148.6684  130.0943  150.6377 H   0  0  0  0  0  0  0  0  0  0  0  0
  147.4511  131.5687  151.0627 H   0  0  0  0  0  0  0  0  0  0  0  0
  145.3642  131.2053  153.1696 H   0  0  0  0  0  0  0  0  0  0  0  0
  146.8123  133.0058  153.9693 H   0  0  0  0  0  0  0  0  0  0  0  0
  147.5882  134.8285  152.4938 H   0  0  0  0  0  0  0  0  0  0  0  0
  147.9483  133.4082  151.5300 H   0  0  0  0  0  0  0  0  0  0  0  0
  146.0218  135.5182  150.9720 H   0  0  0  0  0  0  0  0  0  0  0  0
  146.2791  134.0970  149.9763 H   0  0  0  0  0  0  0  0  0  0  0  0
  143.8693  134.3522  151.2302 H   0  0  0  0  0  0  0  0  0  0  0  0
  144.2521  133.5087  153.6874 H   0  0  0  0  0  0  0  0  0  0  0  0
  145.1880  134.9916  153.4005 H   0  0  0  0  0  0  0  0  0  0  0  0
  143.7484  131.9756  151.8336 H   0  0  0  0  0  0  0  0  0  0  0  0
  145.3280  132.4069  149.3021 H   0  0  0  0  0  0  0  0  0  0  0  0
  145.1911  130.7809  149.9352 H   0  0  0  0  0  0  0  0  0  0  0  0
  143.2587  132.4032  148.8863 H   0  0  0  0  0  0  0  0  0  0  0  0
  150.4793  124.0332  150.2376 H   0  0  0  0  0  0  0  0  0  0  0  0
  151.9634  124.9423  150.5293 H   0  0  0  0  0  0  0  0  0  0  0  0
  151.0762  125.1598  149.0201 H   0  0  0  0  0  0  0  0  0  0  0  0
  1  2  1  0  0  0  0
  1 21  1  0  0  0  0
  1 22  1  0  0  0  0
  1 23  1  0  0  0  0
  2 19  2  0  0  0  0
  2  3  1  0  0  0  0
  3  4  2  0  0  0  0
  4  5  1  0  0  0  0
  4 18  1  0  0  0  0
  5  6  1  0  0  0  0
  5 24  1  0  0  0  0
  6  7  2  0  0  0  0
  6  8  1  0  0  0  0
  8  9  1  0  0  0  0
  8 25  1  0  0  0  0
  9 15  1  0  0  0  0
  9 10  1  0  0  0  0
  9 26  1  0  0  0  0
 10 14  1  0  0  0  0
 10 11  1  0  0  0  0
 10 27  1  0  0  0  0
 11 12  1  0  0  0  0
 11 28  1  0  0  0  0
 11 29  1  0  0  0  0
 12 13  1  0  0  0  0
 12 30  1  0  0  0  0
 12 31  1  0  0  0  0
 13 14  1  0  0  0  0
 13 15  1  0  0  0  0
 13 32  1  0  0  0  0
 14 33  1  0  0  0  0
 14 34  1  0  0  0  0
 15 16  1  0  0  0  0
 15 35  1  0  0  0  0
 16 17  1  0  0  0  0
 16 36  1  0  0  0  0
 16 37  1  0  0  0  0
 17 38  1  0  0  0  0
 18 19  1  0  0  0  0
 19 20  1  0  0  0  0
 20 39  1  0  0  0  0
 20 40  1  0  0  0  0
 20 41  1  0  0  0  0
M  END
> <s_m_source_file>
AV-unprocessed.smi

> <i_m_source_file_index>
794

> <i_lp_mmshare_version>
43012

> <i_f3d_flags>
0

> <s_epik_input>
W0NIM11jMW5jKHNjMVtDSDNdKVtOSF1DKD1PKVtOSF1bQ0BIXShbQ0BASF0yMylbQ0BIXShbQ0gyXVtPSF0pW0NAQEhdKFtDSDJdMylbQ0gyXVtDSDJdMg==

> <s_epik_cmdline>
J2VwaWtfcHl0aG9uJywgJy1waCcsICc3LjAnLCAnLXRuJywgJzgnLCAnLW1hJywgJzIwMCcsICctbWV0YWxfYmluZGluZycsICctaW1hZScsICc8aW5maWxlLm1hZT4nLCAnLW9tYWUnLCAnPG91dGZpbGUubWFlPic=

> <r_lp_tautomer_probability>
0.999

> <r_epik_Ionization_Penalty>
0.000713029

> <r_epik_Ionization_Penalty_Charging>
0

> <r_epik_Ionization_Penalty_Neutral>
0.000713029

> <r_epik_State_Penalty>
0.000177984

> <r_epik_Charging_Adjusted_Penalty>
0.000177984

> <i_epik_Tot_Q>
0

> <i_epik_Tot_abs_Q>
0

> <r_epik_Metal_State_Penalty>
-0

> <b_epik_Metal_Only>
0

> <s_lp_Force_Field>
OPLS_2005

> <r_lp_Energy>
49.1423

> <b_lp_Chiralities_Consistent>
1

> <s_lp_Variant>
AV-unprocessed.smi:794-2

> <Gold.Version>
5.8.1

> <Gold.Id.Protein>
6NUR|6NUR_protein|mol2

> <Gold.PLP.Fitness>
43.5290

> <Gold.PLP.PLP>
-35.8170

> <Gold.PLP.part.hbond>
-3.7881

> <Gold.PLP.part.metal>
0.0000

> <Gold.PLP.part.buried>
-5.0217

> <Gold.PLP.part.nonpolar>
-25.0762

> <Gold.PLP.part.repulsive>
0.2580

> <Gold.PLP.ligand.clash>
0.0000

> <Gold.PLP.ligand.torsion>
0.5892

> <Gold.PLP.Chemscore.Hbond>
2.9600

> <Gold.PLP.Chemscore.CHOScore>
0.0000

> <Gold.PLP.Chemscore.Metal>
0.0000

> <Gold.Chemscore.Hbonds>
donor molecule, donor type, donor heavy atom, donor atom, acceptor molecule, acceptor atom, score
      L1  H     8    25       P1 10747  0.46
      P1  H 10785 10796       L1    17  1.00

> <Gold.PLP.Chemscore.Internal.Correction>
0.0105

> <Gold.Rescore>
     Score         DG    S(hbond)    S(metal)    S(lipo)     H(rot)  DE(clash)    DE(int)     intcor
     14.06     -15.68       1.94        0.00      70.67       1.78       0.69       0.93       ----

> <Gold.Chemscore.Fitness>
14.0600

> <Gold.Chemscore.DG>
-15.6779

> <Gold.Chemscore.ZeroCoef>
-5.4800

> <Gold.Chemscore.Hbond>
1.9420

> <Gold.Chemscore.Metal>
0.0000

> <Gold.Chemscore.Lipo>
70.6652

> <Gold.Chemscore.Internal_Hbond>
0.0000

> <Gold.Chemscore.DEClash>
0.6871

> <Gold.Chemscore.DEInternal>
0.9307

> <Gold.Chemscore.Rot>
1.7798

> <Gold.Chemscore.Internal.Correction>
   9.000000E+99

> <Gold.Chemscore.Hbonds>
donor molecule, donor type, donor heavy atom, donor atom, acceptor molecule, acceptor atom, score
      L1  H     8    25       P1 10747  0.46
      P1  H 10785 10796       L1    17  0.66

> <Gold.Chemscore.Hbond.Weighted>
-6.4862

> <Gold.Chemscore.Metal.Weighted>
-0.0000

> <Gold.Chemscore.Lipo.Weighted>
-8.2678

> <Gold.Chemscore.Internal_Hbond.Weighted>
0.0000

> <Gold.Chemscore.DEClash.Weighted>
0.6871

> <Gold.Chemscore.DEInternal.Weighted>
0.9307

> <Gold.Chemscore.Rot.Weighted>
4.5562

> <Gold.Chemscore.Internal.Correction.Weighted>
   9.000000E+99

> <Gold.Protein.RotatedTorsions>
[ 6907 6896 6895 6894 ] final -135.44 input  -60.11 | X-H torsion
[ 7974 7965 7964 7962 ] final -157.37 input  175.53 | X-H torsion
[ 8008 7997 7996 7995 ] final  -17.12 input   59.86 | X-H torsion
[ 10167 10162 10161 10158 ] final  -75.33 input  -65.29 | X-H torsion
[ 10718 10713 10712 10709 ] final  131.62 input   66.30 | X-H torsion
[ 10763 10752 10751 10750 ] final -103.58 input  -60.55 | X-H torsion
[ 11005 11000 10999 10996 ] final  175.48 input  -57.11 | X-H torsion

> <Gold.Protein.ActiveResidues>
 VAL166  LYS551  ARG553  GLY616  TRP617  ASP618  TYR619  PRO620  LYS621  CYS622 
 ASP623  PHE694  ASN695  SER759  ASP760  ASP761  ALA762  ILE779  LEU786  VAL792 
 PHE793  MET794  SER795  GLU796  ALA797  LYS798  CYS799  TRP800  GLU811  SER814 

> <Gold.Protein.RotatedAtoms>
  150.9979  133.6085  159.2698 H   0  0  0  0  0  0  0  0  0  0  0  0  # atno 6907 bound_to 6896
  151.3282  135.0834  159.9339 H   0  0  0  0  0  0  0  0  0  0  0  0  # atno 6908 bound_to 6896
  152.5265  133.9613  159.7773 H   0  0  0  0  0  0  0  0  0  0  0  0  # atno 6909 bound_to 6896
  144.7551  140.3978  143.6018 H   0  0  0  0  0  0  0  0  0  0  0  0  # atno 7974 bound_to 7965
  154.5002  140.2151  155.9363 H   0  0  0  0  0  0  0  0  0  0  0  0  # atno 8008 bound_to 7997
  156.1423  140.3177  155.8482 H   0  0  0  0  0  0  0  0  0  0  0  0  # atno 8009 bound_to 7997
  155.4096  140.0489  157.3023 H   0  0  0  0  0  0  0  0  0  0  0  0  # atno 8010 bound_to 7997
  140.4952  143.2372  151.7843 H   0  0  0  0  0  0  0  0  0  0  0  0  # atno 10167 bound_to 10162
  157.4950  131.1092  150.9505 H   0  0  0  0  0  0  0  0  0  0  0  0  # atno 10718 bound_to 10713
  154.7817  135.4818  153.9859 H   0  0  0  0  0  0  0  0  0  0  0  0  # atno 10763 bound_to 10752
  153.1503  135.6790  153.8899 H   0  0  0  0  0  0  0  0  0  0  0  0  # atno 10764 bound_to 10752
  153.8545  135.3163  155.3412 H   0  0  0  0  0  0  0  0  0  0  0  0  # atno 10765 bound_to 10752
  140.3627  134.7099  157.4341 H   0  0  0  0  0  0  0  0  0  0  0  0  # atno 11005 bound_to 11000
  145.6807  139.1618  143.2702 LP  0  0  0  0  0  0  0  0  0  0  0  0  # atno 17320 bound_to 7965
  146.1551  140.6869  142.9304 LP  0  0  0  0  0  0  0  0  0  0  0  0  # atno 17321 bound_to 7965
  139.4859  144.4596  151.9556 LP  0  0  0  0  0  0  0  0  0  0  0  0  # atno 17342 bound_to 10162
  140.3684  144.2886  150.5923 LP  0  0  0  0  0  0  0  0  0  0  0  0  # atno 17343 bound_to 10162
  157.0195  130.5668  149.5329 LP  0  0  0  0  0  0  0  0  0  0  0  0  # atno 17370 bound_to 10713
  156.0195  130.5290  150.8234 LP  0  0  0  0  0  0  0  0  0  0  0  0  # atno 17371 bound_to 10713
  140.0614  134.5990  155.8745 LP  0  0  0  0  0  0  0  0  0  0  0  0  # atno 17394 bound_to 11000
  141.1979  133.6599  156.5766 LP  0  0  0  0  0  0  0  0  0  0  0  0  # atno 17395 bound_to 11000

$$$$
