AV-unprocessed.smi:3153|AV-procd|sdf|12019|dock7
  -GOLD-   2272017433D 1   1.00000     0.00000
 Structure written by MMmdl.
 38 39  0  0  0  0  0  0  0  0  2 V2000
  144.6939  135.6042  149.9093 O   0  0  0  0  0  0  0  0  0  0  0  0
  145.0670  135.1161  151.1866 C   0  0  0  0  0  0  0  0  0  0  0  0
  145.3845  136.3408  152.0739 C   0  0  0  0  0  0  0  0  0  0  0  0
  146.4772  137.1703  151.5227 N   0  3  0  0  0  0  0  0  0  0  0  0
  146.4726  138.5657  152.0019 C   0  0  0  0  0  0  0  0  0  0  0  0
  147.3135  138.7138  153.2790 C   0  0  0  0  0  0  0  0  0  0  0  0
  147.4756  140.1025  153.6663 N   0  0  0  0  0  0  0  0  0  0  0  0
  146.5942  141.1494  153.4942 C   0  0  0  0  0  0  0  0  0  0  0  0
  147.1763  142.2629  154.0287 C   0  0  0  0  0  0  0  0  0  0  0  0
  148.4254  141.7897  154.5190 C   0  0  0  0  0  0  0  0  0  0  0  0
  148.5993  140.4952  154.3050 N   0  0  0  0  0  0  0  0  0  0  0  0
  143.8616  134.3431  151.7738 C   0  0  0  0  0  0  0  0  0  0  0  0
  143.5436  133.0469  151.0074 C   0  0  0  0  0  0  0  0  0  0  0  0
  144.7757  132.1365  150.9182 C   0  0  0  0  0  0  0  0  0  0  0  0
  145.9590  132.8772  150.2802 C   0  0  0  0  0  0  0  0  0  0  0  0
  146.2887  134.1740  151.0414 C   0  0  0  0  0  0  0  0  0  0  0  0
  145.2412  135.1949  149.2561 H   0  0  0  0  0  0  0  0  0  0  0  0
  144.4945  136.9615  152.1892 H   0  0  0  0  0  0  0  0  0  0  0  0
  145.6678  136.0091  153.0740 H   0  0  0  0  0  0  0  0  0  0  0  0
  147.3591  136.7461  151.7723 H   0  0  0  0  0  0  0  0  0  0  0  0
  146.8635  139.2130  151.2155 H   0  0  0  0  0  0  0  0  0  0  0  0
  145.4442  138.8748  152.1939 H   0  0  0  0  0  0  0  0  0  0  0  0
  146.8439  138.1775  154.1047 H   0  0  0  0  0  0  0  0  0  0  0  0
  148.3038  138.2777  153.1394 H   0  0  0  0  0  0  0  0  0  0  0  0
  145.6376  141.0183  153.0100 H   0  0  0  0  0  0  0  0  0  0  0  0
  146.7701  143.2629  154.0672 H   0  0  0  0  0  0  0  0  0  0  0  0
  149.2041  142.3439  155.0221 H   0  0  0  0  0  0  0  0  0  0  0  0
  144.0723  134.0860  152.8129 H   0  0  0  0  0  0  0  0  0  0  0  0
  142.9766  134.9806  151.7963 H   0  0  0  0  0  0  0  0  0  0  0  0
  142.7276  132.5174  151.5001 H   0  0  0  0  0  0  0  0  0  0  0  0
  143.1908  133.2859  150.0035 H   0  0  0  0  0  0  0  0  0  0  0  0
  145.0519  131.7932  151.9160 H   0  0  0  0  0  0  0  0  0  0  0  0
  144.5378  131.2443  150.3380 H   0  0  0  0  0  0  0  0  0  0  0  0
  146.8343  132.2271  150.2607 H   0  0  0  0  0  0  0  0  0  0  0  0
  145.7266  133.1082  149.2400 H   0  0  0  0  0  0  0  0  0  0  0  0
  147.1105  134.6839  150.5374 H   0  0  0  0  0  0  0  0  0  0  0  0
  146.6590  133.9110  152.0332 H   0  0  0  0  0  0  0  0  0  0  0  0
  146.3954  137.1728  150.5158 H   0  0  0  0  0  0  0  0  0  0  0  0
  1  2  1  0  0  0  0
  1 17  1  0  0  0  0
  2 16  1  0  0  0  0
  2  3  1  0  0  0  0
  2 12  1  0  0  0  0
  3  4  1  0  0  0  0
  3 18  1  0  0  0  0
  3 19  1  0  0  0  0
  4  5  1  0  0  0  0
  4 20  1  0  0  0  0
  4 38  1  0  0  0  0
  5  6  1  0  0  0  0
  5 21  1  0  0  0  0
  5 22  1  0  0  0  0
  6  7  1  0  0  0  0
  6 23  1  0  0  0  0
  6 24  1  0  0  0  0
  7 11  1  0  0  0  0
  7  8  1  0  0  0  0
  8  9  2  0  0  0  0
  8 25  1  0  0  0  0
  9 10  1  0  0  0  0
  9 26  1  0  0  0  0
 10 11  2  0  0  0  0
 10 27  1  0  0  0  0
 12 13  1  0  0  0  0
 12 28  1  0  0  0  0
 12 29  1  0  0  0  0
 13 14  1  0  0  0  0
 13 30  1  0  0  0  0
 13 31  1  0  0  0  0
 14 15  1  0  0  0  0
 14 32  1  0  0  0  0
 14 33  1  0  0  0  0
 15 16  1  0  0  0  0
 15 34  1  0  0  0  0
 15 35  1  0  0  0  0
 16 36  1  0  0  0  0
 16 37  1  0  0  0  0
M  CHG  1   4   1
M  END
> <s_m_source_file>
AV-unprocessed.smi

> <i_m_source_file_index>
3153

> <i_lp_mmshare_version>
43012

> <i_f3d_flags>
0

> <s_epik_input>
W0NIMl0xW0NIMl1bQ0gyXVtDSDJdW0NIMl1DMShbT0hdKVtDSDJdW05IXVtDSDJdW0NIMl1uMltjSF1bY0hdW2NIXW4y

> <s_epik_cmdline>
J2VwaWtfcHl0aG9uJywgJy1waCcsICc3LjAnLCAnLXRuJywgJzgnLCAnLW1hJywgJzIwMCcsICctbWV0YWxfYmluZGluZycsICctaW1hZScsICc8aW5maWxlLm1hZT4nLCAnLW9tYWUnLCAnPG91dGZpbGUubWFlPic=

> <r_lp_tautomer_probability>
1

> <r_epik_Ionization_Penalty>
0.0240152

> <r_epik_Ionization_Penalty_Charging>
0.0240119

> <r_epik_Ionization_Penalty_Neutral>
3.38076e-06

> <r_epik_State_Penalty>
0.0194671

> <r_epik_Charging_Adjusted_Penalty>
0.043479

> <i_epik_Tot_Q>
1

> <i_epik_Tot_abs_Q>
1

> <r_epik_Metal_State_Penalty>
0.0195093

> <b_epik_Metal_Only>
0

> <s_lp_Force_Field>
OPLS_2005

> <r_lp_Energy>
15.7554

> <b_lp_Chiralities_Consistent>
1

> <s_lp_Variant>
AV-unprocessed.smi:3153-1

> <Gold.Version>
5.8.1

> <Gold.Id.Protein>
6NUR|6NUR_protein|mol2

> <Gold.PLP.Fitness>
48.8111

> <Gold.PLP.PLP>
-35.8520

> <Gold.PLP.part.hbond>
-2.8967

> <Gold.PLP.part.metal>
0.0000

> <Gold.PLP.part.buried>
-4.3140

> <Gold.PLP.part.nonpolar>
-30.1404

> <Gold.PLP.part.repulsive>
0.2100

> <Gold.PLP.ligand.clash>
0.0000

> <Gold.PLP.ligand.torsion>
0.6960

> <Gold.PLP.Chemscore.Hbond>
3.0000

> <Gold.PLP.Chemscore.CHOScore>
1.7679

> <Gold.PLP.Chemscore.Metal>
0.0000

> <Gold.Chemscore.Hbonds>
donor molecule, donor type, donor heavy atom, donor atom, acceptor molecule, acceptor atom, score
      L1  H     1    17       P1  7921  1.00
      L1  H     4    20       P1  7948  2.00
      L1  C     8    25       P1 10175  1.00
      L1  C    10    27       P1  8028  0.81

> <Gold.PLP.Chemscore.Internal.Correction>
0.0475

> <Gold.Rescore>
     Score         DG    S(hbond)    S(metal)    S(lipo)     H(rot)  DE(clash)    DE(int)     intcor
     15.83     -16.64       2.00        0.00      87.76       2.26       0.08       0.72       ----

> <Gold.Chemscore.Fitness>
15.8349

> <Gold.Chemscore.DG>
-16.6357

> <Gold.Chemscore.ZeroCoef>
-5.4800

> <Gold.Chemscore.Hbond>
1.9979

> <Gold.Chemscore.Metal>
0.0000

> <Gold.Chemscore.Lipo>
87.7640

> <Gold.Chemscore.Internal_Hbond>
0.0000

> <Gold.Chemscore.DEClash>
0.0831

> <Gold.Chemscore.DEInternal>
0.7178

> <Gold.Chemscore.Rot>
2.2601

> <Gold.Chemscore.Internal.Correction>
   9.000000E+99

> <Gold.Chemscore.Hbonds>
donor molecule, donor type, donor heavy atom, donor atom, acceptor molecule, acceptor atom, score
      L1  H     1    17       P1  7921  1.00
      L1  H     4    20       P1  7948  1.00

> <Gold.Chemscore.Hbond.Weighted>
-6.6732

> <Gold.Chemscore.Metal.Weighted>
-0.0000

> <Gold.Chemscore.Lipo.Weighted>
-10.2684

> <Gold.Chemscore.Internal_Hbond.Weighted>
0.0000

> <Gold.Chemscore.DEClash.Weighted>
0.0831

> <Gold.Chemscore.DEInternal.Weighted>
0.7178

> <Gold.Chemscore.Rot.Weighted>
5.7858

> <Gold.Chemscore.Internal.Correction.Weighted>
   9.000000E+99

> <Gold.Protein.RotatedTorsions>
[ 6907 6896 6895 6894 ] final -177.74 input  -60.11 | X-H torsion
[ 7974 7965 7964 7962 ] final   11.50 input  175.53 | X-H torsion
[ 8008 7997 7996 7995 ] final  -58.67 input   59.86 | X-H torsion
[ 10167 10162 10161 10158 ] final -107.34 input  -65.29 | X-H torsion
[ 10718 10713 10712 10709 ] final  152.82 input   66.30 | X-H torsion
[ 10763 10752 10751 10750 ] final -148.38 input  -60.55 | X-H torsion
[ 11005 11000 10999 10996 ] final   76.59 input  -57.11 | X-H torsion

> <Gold.Protein.ActiveResidues>
 VAL166  LYS551  ARG553  GLY616  TRP617  ASP618  TYR619  PRO620  LYS621  CYS622 
 ASP623  PHE694  ASN695  SER759  ASP760  ASP761  ALA762  ILE779  LEU786  VAL792 
 PHE793  MET794  SER795  GLU796  ALA797  LYS798  CYS799  TRP800  GLU811  SER814 

> <Gold.Protein.RotatedAtoms>
  151.6259  133.3335  159.3097 H   0  0  0  0  0  0  0  0  0  0  0  0  # atno 6907 bound_to 6896
  150.8081  134.7223  159.6675 H   0  0  0  0  0  0  0  0  0  0  0  0  # atno 6908 bound_to 6896
  152.4177  134.6016  160.0053 H   0  0  0  0  0  0  0  0  0  0  0  0  # atno 6909 bound_to 6896
  146.2369  139.9475  142.8475 H   0  0  0  0  0  0  0  0  0  0  0  0  # atno 7974 bound_to 7965
  154.4318  140.1079  156.5993 H   0  0  0  0  0  0  0  0  0  0  0  0  # atno 8008 bound_to 7997
  155.5928  140.3492  155.4552 H   0  0  0  0  0  0  0  0  0  0  0  0  # atno 8009 bound_to 7997
  156.0233  140.1244  157.0324 H   0  0  0  0  0  0  0  0  0  0  0  0  # atno 8010 bound_to 7997
  140.1780  143.3989  152.1303 H   0  0  0  0  0  0  0  0  0  0  0  0  # atno 10167 bound_to 10162
  157.2528  131.0782  151.1718 H   0  0  0  0  0  0  0  0  0  0  0  0  # atno 10718 bound_to 10713
  154.8236  135.3336  154.6964 H   0  0  0  0  0  0  0  0  0  0  0  0  # atno 10763 bound_to 10752
  153.7593  135.6933  153.4933 H   0  0  0  0  0  0  0  0  0  0  0  0  # atno 10764 bound_to 10752
  153.2121  135.4478  155.0341 H   0  0  0  0  0  0  0  0  0  0  0  0  # atno 10765 bound_to 10752
  139.9291  134.7613  156.1415 H   0  0  0  0  0  0  0  0  0  0  0  0  # atno 11005 bound_to 11000
  145.1893  140.9804  143.4220 LP  0  0  0  0  0  0  0  0  0  0  0  0  # atno 17320 bound_to 7965
  144.9872  139.3725  143.6233 LP  0  0  0  0  0  0  0  0  0  0  0  0  # atno 17321 bound_to 7965
  139.5309  144.7157  151.5061 LP  0  0  0  0  0  0  0  0  0  0  0  0  # atno 17342 bound_to 10162
  140.6539  143.8641  150.6814 LP  0  0  0  0  0  0  0  0  0  0  0  0  # atno 17343 bound_to 10162
  157.3259  130.6960  149.6296 LP  0  0  0  0  0  0  0  0  0  0  0  0  # atno 17370 bound_to 10713
  155.9666  130.4322  150.4951 LP  0  0  0  0  0  0  0  0  0  0  0  0  # atno 17371 bound_to 10713
  141.0869  133.6730  156.2455 LP  0  0  0  0  0  0  0  0  0  0  0  0  # atno 17394 bound_to 11000
  140.6251  134.5321  157.5552 LP  0  0  0  0  0  0  0  0  0  0  0  0  # atno 17395 bound_to 11000

$$$$
