AV-unprocessed.smi:1703|AV-procd|sdf|6871|dock7
  -GOLD-   22720 8 73D 1   1.00000     0.00000
 Structure written by MMmdl.
 49 51  0  0  0  0  0  0  0  0  2 V2000
  147.9148  136.1482  162.8720 C   0  0  0  0  0  0  0  0  0  0  0  0
  147.6825  136.0941  161.3586 C   0  0  1  0  0  0  0  0  0  0  0  0
  148.8527  136.7096  160.5712 C   0  0  0  0  0  0  0  0  0  0  0  0
  148.6633  136.5868  159.1316 N   0  0  0  0  0  0  0  0  0  0  0  0
  149.7588  137.2204  158.3991 C   0  0  0  0  0  0  0  0  0  0  0  0
  149.7074  138.7623  158.3546 C   0  0  2  0  0  0  0  0  0  0  0  0
  148.4641  139.1697  157.8167 O   0  0  0  0  0  0  0  0  0  0  0  0
  150.8415  139.3538  157.4941 C   0  0  0  0  0  0  0  0  0  0  0  0
  150.7556  140.8184  157.3686 N   0  0  0  0  0  0  0  0  0  0  0  0
  150.0064  141.5774  156.5178 C   0  0  0  0  0  0  0  0  0  0  0  0
  149.0620  141.0728  155.4730 C   0  0  0  0  0  0  0  0  0  0  0  0
  148.3827  142.1047  154.7887 O   0  0  0  0  0  0  0  0  0  0  0  0
  150.2826  142.8836  156.7954 N   0  3  0  0  0  0  0  0  0  0  0  0
  151.2144  142.9621  157.8300 C   0  0  0  0  0  0  0  0  0  0  0  0
  151.7942  144.0645  158.4504 C   0  0  0  0  0  0  0  0  0  0  0  0
  152.7195  143.7969  159.4801 C   0  0  0  0  0  0  0  0  0  0  0  0
  153.0376  142.4757  159.8554 C   0  0  0  0  0  0  0  0  0  0  0  0
  152.4424  141.3659  159.2197 C   0  0  0  0  0  0  0  0  0  0  0  0
  151.5258  141.6383  158.2036 C   0  0  0  0  0  0  0  0  0  0  0  0
  148.5036  135.1746  158.7919 C   0  0  0  0  0  0  0  0  0  0  0  0
  147.3653  134.4969  159.5807 C   0  0  2  0  0  0  0  0  0  0  0  0
  145.9635  134.9005  159.0925 C   0  0  0  0  0  0  0  0  0  0  0  0
  147.5259  134.7274  160.9814 O   0  0  0  0  0  0  0  0  0  0  0  0
  148.0317  137.1766  163.2147 H   0  0  0  0  0  0  0  0  0  0  0  0
  148.8126  135.5972  163.1536 H   0  0  0  0  0  0  0  0  0  0  0  0
  147.0732  135.7125  163.4109 H   0  0  0  0  0  0  0  0  0  0  0  0
  146.7655  136.6394  161.1332 H   0  0  0  0  0  0  0  0  0  0  0  0
  148.9503  137.7617  160.8419 H   0  0  0  0  0  0  0  0  0  0  0  0
  149.7860  136.2250  160.8635 H   0  0  0  0  0  0  0  0  0  0  0  0
  150.6886  136.9389  158.8954 H   0  0  0  0  0  0  0  0  0  0  0  0
  149.8359  136.8082  157.3913 H   0  0  0  0  0  0  0  0  0  0  0  0
  149.7945  139.1619  159.3657 H   0  0  0  0  0  0  0  0  0  0  0  0
  148.3846  138.8171  156.9438 H   0  0  0  0  0  0  0  0  0  0  0  0
  151.8066  139.1309  157.9504 H   0  0  0  0  0  0  0  0  0  0  0  0
  150.8670  138.9009  156.5030 H   0  0  0  0  0  0  0  0  0  0  0  0
  149.6161  140.4761  154.7483 H   0  0  0  0  0  0  0  0  0  0  0  0
  148.3265  140.4174  155.9401 H   0  0  0  0  0  0  0  0  0  0  0  0
  148.8076  142.9260  154.9855 H   0  0  0  0  0  0  0  0  0  0  0  0
  151.5533  145.0774  158.1626 H   0  0  0  0  0  0  0  0  0  0  0  0
  153.1958  144.6212  159.9912 H   0  0  0  0  0  0  0  0  0  0  0  0
  153.7540  142.3094  160.6471 H   0  0  0  0  0  0  0  0  0  0  0  0
  152.6992  140.3598  159.5150 H   0  0  0  0  0  0  0  0  0  0  0  0
  148.3123  135.0580  157.7254 H   0  0  0  0  0  0  0  0  0  0  0  0
  149.4364  134.6467  158.9962 H   0  0  0  0  0  0  0  0  0  0  0  0
  147.4529  133.4199  159.4357 H   0  0  0  0  0  0  0  0  0  0  0  0
  145.8192  134.6126  158.0509 H   0  0  0  0  0  0  0  0  0  0  0  0
  145.7992  135.9760  159.1579 H   0  0  0  0  0  0  0  0  0  0  0  0
  145.1900  134.4074  159.6814 H   0  0  0  0  0  0  0  0  0  0  0  0
  149.8595  143.6613  156.3052 H   0  0  0  0  0  0  0  0  0  0  0  0
  1  2  1  0  0  0  0
  1 24  1  0  0  0  0
  1 25  1  0  0  0  0
  1 26  1  0  0  0  0
  2 23  1  0  0  0  0
  2  3  1  0  0  0  0
  2 27  1  0  0  0  0
  3  4  1  0  0  0  0
  3 28  1  0  0  0  0
  3 29  1  0  0  0  0
  4  5  1  0  0  0  0
  4 20  1  0  0  0  0
  5  6  1  0  0  0  0
  5 30  1  0  0  0  0
  5 31  1  0  0  0  0
  6  7  1  0  0  0  0
  6  8  1  0  0  0  0
  6 32  1  0  0  0  0
  7 33  1  0  0  0  0
  8  9  1  0  0  0  0
  8 34  1  0  0  0  0
  8 35  1  0  0  0  0
  9 19  1  0  0  0  0
  9 10  1  0  0  0  0
 10 11  1  0  0  0  0
 10 13  2  0  0  0  0
 11 12  1  0  0  0  0
 11 36  1  0  0  0  0
 11 37  1  0  0  0  0
 12 38  1  0  0  0  0
 13 14  1  0  0  0  0
 13 49  1  0  0  0  0
 14 19  2  0  0  0  0
 14 15  1  0  0  0  0
 15 16  2  0  0  0  0
 15 39  1  0  0  0  0
 16 17  1  0  0  0  0
 16 40  1  0  0  0  0
 17 18  2  0  0  0  0
 17 41  1  0  0  0  0
 18 19  1  0  0  0  0
 18 42  1  0  0  0  0
 20 21  1  0  0  0  0
 20 43  1  0  0  0  0
 20 44  1  0  0  0  0
 21 22  1  0  0  0  0
 21 23  1  0  0  0  0
 21 45  1  0  0  0  0
 22 46  1  0  0  0  0
 22 47  1  0  0  0  0
 22 48  1  0  0  0  0
M  CHG  1  13   1
M  END
> <s_m_source_file>
AV-unprocessed.smi

> <i_m_source_file_index>
1703

> <i_lp_mmshare_version>
43012

> <i_f3d_flags>
0

> <s_epik_input>
W0NIM11bQ0BASF0xW0NIMl1OKFtDSDJdW0NASF0oTzEpW0NIM10pW0NIMl1bQ0BIXShbT0hdKVtDSDJdbihjKG4yKVtDSDJdW09IXSljKGMyMylbY0hdW2NIXVtjSF1bY0hdMw==

> <s_epik_cmdline>
J2VwaWtfcHl0aG9uJywgJy1waCcsICc3LjAnLCAnLXRuJywgJzgnLCAnLW1hJywgJzIwMCcsICctbWV0YWxfYmluZGluZycsICctaW1hZScsICc8aW5maWxlLm1hZT4nLCAnLW9tYWUnLCAnPG91dGZpbGUubWFlPic=

> <r_epik_Ionization_Penalty>
1.7682

> <r_epik_Ionization_Penalty_Charging>
1.55298

> <r_epik_Ionization_Penalty_Neutral>
0.215215

> <r_epik_State_Penalty>
1.83821

> <r_epik_Charging_Adjusted_Penalty>
3.39119

> <i_epik_Tot_Q>
1

> <i_epik_Tot_abs_Q>
1

> <r_epik_Metal_State_Penalty>
5.89206

> <b_epik_Metal_Only>
0

> <s_lp_Force_Field>
OPLS_2005

> <r_lp_Energy>
35.0588

> <b_lp_Chiralities_Consistent>
1

> <s_lp_Variant>
AV-unprocessed.smi:1703-19

> <Gold.Version>
5.8.1

> <Gold.Id.Protein>
6NUR|6NUR_protein|mol2

> <Gold.PLP.Fitness>
50.1803

> <Gold.PLP.PLP>
-42.1700

> <Gold.PLP.part.hbond>
-2.0724

> <Gold.PLP.part.metal>
0.0000

> <Gold.PLP.part.buried>
-6.0353

> <Gold.PLP.part.nonpolar>
-34.9381

> <Gold.PLP.part.repulsive>
0.0238

> <Gold.PLP.ligand.clash>
0.0000

> <Gold.PLP.ligand.torsion>
0.4925

> <Gold.PLP.Chemscore.Hbond>
2.9920

> <Gold.PLP.Chemscore.CHOScore>
0.0000

> <Gold.PLP.Chemscore.Metal>
0.0000

> <Gold.Chemscore.Hbonds>
donor molecule, donor type, donor heavy atom, donor atom, acceptor molecule, acceptor atom, score
      L1  H    12    38       P1  8028  1.00
      L1  H    13    49       P1  8028  2.00

> <Gold.PLP.Chemscore.Internal.Correction>
0.0192

> <Gold.Rescore>
     Score         DG    S(hbond)    S(metal)    S(lipo)     H(rot)  DE(clash)    DE(int)     intcor
     16.33     -16.92       1.99        0.00     105.58       2.96       0.02       0.58       ----

> <Gold.Chemscore.Fitness>
16.3294

> <Gold.Chemscore.DG>
-16.9227

> <Gold.Chemscore.ZeroCoef>
-5.4800

> <Gold.Chemscore.Hbond>
1.9928

> <Gold.Chemscore.Metal>
0.0000

> <Gold.Chemscore.Lipo>
105.5773

> <Gold.Chemscore.Internal_Hbond>
0.0000

> <Gold.Chemscore.DEClash>
0.0170

> <Gold.Chemscore.DEInternal>
0.5763

> <Gold.Chemscore.Rot>
2.9555

> <Gold.Chemscore.Internal.Correction>
   9.000000E+99

> <Gold.Chemscore.Hbonds>
donor molecule, donor type, donor heavy atom, donor atom, acceptor molecule, acceptor atom, score
      L1  H    12    38       P1  8028  0.97
      L1  H    13    49       P1  8028  0.97

> <Gold.Chemscore.Hbond.Weighted>
-6.6561

> <Gold.Chemscore.Metal.Weighted>
-0.0000

> <Gold.Chemscore.Lipo.Weighted>
-12.3525

> <Gold.Chemscore.Internal_Hbond.Weighted>
0.0000

> <Gold.Chemscore.DEClash.Weighted>
0.0170

> <Gold.Chemscore.DEInternal.Weighted>
0.5763

> <Gold.Chemscore.Rot.Weighted>
7.5660

> <Gold.Chemscore.Internal.Correction.Weighted>
   9.000000E+99

> <Gold.Protein.RotatedTorsions>
[ 6907 6896 6895 6894 ] final  -43.78 input  -60.11 | X-H torsion
[ 7974 7965 7964 7962 ] final  176.89 input  175.53 | X-H torsion
[ 8008 7997 7996 7995 ] final  118.02 input   59.86 | X-H torsion
[ 10167 10162 10161 10158 ] final  145.64 input  -65.29 | X-H torsion
[ 10718 10713 10712 10709 ] final  119.05 input   66.30 | X-H torsion
[ 10763 10752 10751 10750 ] final -135.55 input  -60.55 | X-H torsion
[ 11005 11000 10999 10996 ] final -155.83 input  -57.11 | X-H torsion

> <Gold.Protein.ActiveResidues>
 VAL166  LYS551  ARG553  GLY616  TRP617  ASP618  TYR619  PRO620  LYS621  CYS622 
 ASP623  PHE694  ASN695  SER759  ASP760  ASP761  ALA762  ILE779  LEU786  VAL792 
 PHE793  MET794  SER795  GLU796  ALA797  LYS798  CYS799  TRP800  GLU811  SER814 

> <Gold.Protein.RotatedAtoms>
  150.9402  134.8811  159.7606 H   0  0  0  0  0  0  0  0  0  0  0  0  # atno 6907 bound_to 6896
  152.5076  134.3953  159.9408 H   0  0  0  0  0  0  0  0  0  0  0  0  # atno 6908 bound_to 6896
  151.3975  133.3728  159.2763 H   0  0  0  0  0  0  0  0  0  0  0  0  # atno 6909 bound_to 6896
  144.7177  140.0165  143.6440 H   0  0  0  0  0  0  0  0  0  0  0  0  # atno 7974 bound_to 7965
  156.2525  140.2883  156.0770 H   0  0  0  0  0  0  0  0  0  0  0  0  # atno 8008 bound_to 7997
  155.1608  140.0399  157.2859 H   0  0  0  0  0  0  0  0  0  0  0  0  # atno 8009 bound_to 7997
  154.6394  140.2518  155.7347 H   0  0  0  0  0  0  0  0  0  0  0  0  # atno 8010 bound_to 7997
  139.4922  144.5887  151.6725 H   0  0  0  0  0  0  0  0  0  0  0  0  # atno 10167 bound_to 10162
  157.5988  131.1054  150.7842 H   0  0  0  0  0  0  0  0  0  0  0  0  # atno 10718 bound_to 10713
  154.8701  135.3700  154.4916 H   0  0  0  0  0  0  0  0  0  0  0  0  # atno 10763 bound_to 10752
  153.5563  135.7024  153.5573 H   0  0  0  0  0  0  0  0  0  0  0  0  # atno 10764 bound_to 10752
  153.3669  135.4031  155.1723 H   0  0  0  0  0  0  0  0  0  0  0  0  # atno 10765 bound_to 10752
  140.6822  134.4132  157.5225 H   0  0  0  0  0  0  0  0  0  0  0  0  # atno 11005 bound_to 11000
  146.0215  139.3255  143.0810 LP  0  0  0  0  0  0  0  0  0  0  0  0  # atno 17320 bound_to 7965
  145.8562  140.9501  143.0724 LP  0  0  0  0  0  0  0  0  0  0  0  0  # atno 17321 bound_to 7965
  140.5509  144.0427  150.6126 LP  0  0  0  0  0  0  0  0  0  0  0  0  # atno 17342 bound_to 10162
  140.3480  143.2979  152.0517 LP  0  0  0  0  0  0  0  0  0  0  0  0  # atno 17343 bound_to 10162
  156.8246  130.4995  149.5339 LP  0  0  0  0  0  0  0  0  0  0  0  0  # atno 17370 bound_to 10713
  156.1057  130.6002  150.9966 LP  0  0  0  0  0  0  0  0  0  0  0  0  # atno 17371 bound_to 10713
  139.8948  134.8698  156.2160 LP  0  0  0  0  0  0  0  0  0  0  0  0  # atno 17394 bound_to 11000
  141.0308  133.6990  156.1427 LP  0  0  0  0  0  0  0  0  0  0  0  0  # atno 17395 bound_to 11000

$$$$
