AV-unprocessed.smi:1752|AV-procd|sdf|7058|dock3
  -GOLD-   22720 8273D 1   1.00000     0.00000
 Structure written by MMmdl.
 43 44  0  0  0  0  0  0  0  0  2 V2000
  148.9184  134.4511  156.0090 C   0  0  0  0  0  0  0  0  0  0  0  0
  148.7526  134.8426  154.5310 C   0  0  2  0  0  0  0  0  0  0  0  0
  149.5560  133.9502  153.5635 C   0  0  0  0  0  0  0  0  0  0  0  0
  149.2738  132.5362  153.7344 N   0  0  0  0  0  0  0  0  0  0  0  0
  148.7866  131.6427  152.8038 C   0  0  0  0  0  0  0  0  0  0  0  0
  148.6840  130.4289  153.4207 C   0  0  0  0  0  0  0  0  0  0  0  0
  149.1404  130.6832  154.7443 C   0  0  0  0  0  0  0  0  0  0  0  0
  149.4950  131.9448  154.9284 N   0  0  0  0  0  0  0  0  0  0  0  0
  149.1664  136.2318  154.3511 N   0  0  0  0  0  0  0  0  0  0  0  0
  150.3751  136.7487  154.6354 C   0  0  0  0  0  0  0  0  0  0  0  0
  151.3066  136.0656  155.0628 O   0  0  0  0  0  0  0  0  0  0  0  0
  150.4992  138.0698  154.3509 N   0  0  0  0  0  0  0  0  0  0  0  0
  149.3595  139.0134  154.3028 C   0  0  0  0  0  0  0  0  0  0  0  0
  149.7139  140.4592  154.7237 C   0  0  0  0  0  0  0  0  0  0  0  0
  150.3061  140.6041  156.1425 C   0  0  0  0  0  0  0  0  0  0  0  0
  151.3126  139.5733  156.5149 N   0  3  2  0  0  0  0  0  0  0  0  0
  151.8820  139.8236  157.8573 C   0  0  0  0  0  0  0  0  0  0  0  0
  152.3663  139.3092  155.4980 C   0  0  0  0  0  0  0  0  0  0  0  0
  151.8330  138.6744  154.1913 C   0  0  0  0  0  0  0  0  0  0  0  0
  148.5635  133.4377  156.1977 H   0  0  0  0  0  0  0  0  0  0  0  0
  148.3478  135.1177  156.6566 H   0  0  0  0  0  0  0  0  0  0  0  0
  149.9633  134.5003  156.3173 H   0  0  0  0  0  0  0  0  0  0  0  0
  147.6959  134.7323  154.2817 H   0  0  0  0  0  0  0  0  0  0  0  0
  149.3270  134.2162  152.5306 H   0  0  0  0  0  0  0  0  0  0  0  0
  150.6271  134.1153  153.6960 H   0  0  0  0  0  0  0  0  0  0  0  0
  148.5538  131.9426  151.7927 H   0  0  0  0  0  0  0  0  0  0  0  0
  148.3356  129.5007  152.9923 H   0  0  0  0  0  0  0  0  0  0  0  0
  149.2239  129.9930  155.5709 H   0  0  0  0  0  0  0  0  0  0  0  0
  148.4700  136.8587  153.9750 H   0  0  0  0  0  0  0  0  0  0  0  0
  148.9556  139.0152  153.2896 H   0  0  0  0  0  0  0  0  0  0  0  0
  148.5527  138.6808  154.9583 H   0  0  0  0  0  0  0  0  0  0  0  0
  150.3827  140.9199  153.9974 H   0  0  0  0  0  0  0  0  0  0  0  0
  148.8090  141.0654  154.6695 H   0  0  0  0  0  0  0  0  0  0  0  0
  150.7447  141.5977  156.2458 H   0  0  0  0  0  0  0  0  0  0  0  0
  149.4937  140.5483  156.8683 H   0  0  0  0  0  0  0  0  0  0  0  0
  152.4865  140.7317  157.8613 H   0  0  0  0  0  0  0  0  0  0  0  0
  152.5118  138.9913  158.1736 H   0  0  0  0  0  0  0  0  0  0  0  0
  151.0896  139.9363  158.5982 H   0  0  0  0  0  0  0  0  0  0  0  0
  152.9223  140.2230  155.2834 H   0  0  0  0  0  0  0  0  0  0  0  0
  153.0825  138.6110  155.9333 H   0  0  0  0  0  0  0  0  0  0  0  0
  152.5567  137.9459  153.8213 H   0  0  0  0  0  0  0  0  0  0  0  0
  151.8004  139.4153  153.3929 H   0  0  0  0  0  0  0  0  0  0  0  0
  150.7998  138.7066  156.5938 H   0  0  0  0  0  0  0  0  0  0  0  0
  1  2  1  0  0  0  0
  1 20  1  0  0  0  0
  1 21  1  0  0  0  0
  1 22  1  0  0  0  0
  2  3  1  0  0  0  0
  2  9  1  0  0  0  0
  2 23  1  0  0  0  0
  3  4  1  0  0  0  0
  3 24  1  0  0  0  0
  3 25  1  0  0  0  0
  4  8  1  0  0  0  0
  4  5  1  0  0  0  0
  5  6  2  0  0  0  0
  5 26  1  0  0  0  0
  6  7  1  0  0  0  0
  6 27  1  0  0  0  0
  7  8  2  0  0  0  0
  7 28  1  0  0  0  0
  9 10  1  0  0  0  0
  9 29  1  0  0  0  0
 10 11  2  0  0  0  0
 10 12  1  0  0  0  0
 12 19  1  0  0  0  0
 12 13  1  0  0  0  0
 13 14  1  0  0  0  0
 13 30  1  0  0  0  0
 13 31  1  0  0  0  0
 14 15  1  0  0  0  0
 14 32  1  0  0  0  0
 14 33  1  0  0  0  0
 15 16  1  0  0  0  0
 15 34  1  0  0  0  0
 15 35  1  0  0  0  0
 16 17  1  0  0  0  0
 16 18  1  0  0  0  0
 16 43  1  0  0  0  0
 17 36  1  0  0  0  0
 17 37  1  0  0  0  0
 17 38  1  0  0  0  0
 18 19  1  0  0  0  0
 18 39  1  0  0  0  0
 18 40  1  0  0  0  0
 19 41  1  0  0  0  0
 19 42  1  0  0  0  0
M  CHG  1  16   1
M  END
> <s_m_source_file>
AV-unprocessed.smi

> <i_m_source_file_index>
1752

> <i_lp_mmshare_version>
43012

> <i_f3d_flags>
0

> <s_epik_input>
bjFbY0hdW2NIXVtjSF1uMVtDSDJdW0NAQEhdKFtDSDNdKVtOSF1DKD1PKU4yW0NIMl1bQ0gyXVtDSDJdTihbQ0gzXSlbQ0gyXVtDSDJdMg==

> <s_epik_cmdline>
J2VwaWtfcHl0aG9uJywgJy1waCcsICc3LjAnLCAnLXRuJywgJzgnLCAnLW1hJywgJzIwMCcsICctbWV0YWxfYmluZGluZycsICctaW1hZScsICc8aW5maWxlLm1hZT4nLCAnLW9tYWUnLCAnPG91dGZpbGUubWFlPic=

> <r_lp_tautomer_probability>
1

> <r_epik_Ionization_Penalty>
0.00208423

> <r_epik_Ionization_Penalty_Charging>
0.00203643

> <r_epik_Ionization_Penalty_Neutral>
4.77939e-05

> <r_epik_State_Penalty>
0.00139278

> <r_epik_Charging_Adjusted_Penalty>
0.00342922

> <i_epik_Tot_Q>
1

> <i_epik_Tot_abs_Q>
1

> <r_epik_Metal_State_Penalty>
-0

> <b_epik_Metal_Only>
0

> <s_lp_Force_Field>
OPLS_2005

> <r_lp_Energy>
46.8375

> <b_lp_Chiralities_Consistent>
1

> <s_lp_Variant>
AV-unprocessed.smi:1752-1

> <Gold.Version>
5.8.1

> <Gold.Id.Protein>
6NUR|6NUR_protein|mol2

> <Gold.PLP.Fitness>
38.1548

> <Gold.PLP.PLP>
-32.4731

> <Gold.PLP.part.hbond>
-2.0000

> <Gold.PLP.part.metal>
0.0000

> <Gold.PLP.part.buried>
-2.5884

> <Gold.PLP.part.nonpolar>
-27.6794

> <Gold.PLP.part.repulsive>
0.1917

> <Gold.PLP.ligand.clash>
0.0000

> <Gold.PLP.ligand.torsion>
0.2298

> <Gold.PLP.Chemscore.Hbond>
1.0000

> <Gold.PLP.Chemscore.CHOScore>
1.0000

> <Gold.PLP.Chemscore.Metal>
0.0000

> <Gold.Chemscore.Hbonds>
donor molecule, donor type, donor heavy atom, donor atom, acceptor molecule, acceptor atom, score
      P1  H 10752 10765       L1    11  1.00
      L1  C     5    26       P1 10747  0.56

> <Gold.PLP.Chemscore.Internal.Correction>
0.1413

> <Gold.Rescore>
     Score         DG    S(hbond)    S(metal)    S(lipo)     H(rot)  DE(clash)    DE(int)     intcor
     11.81     -13.16       1.00        0.00      68.05       1.41       0.22       1.13       ----

> <Gold.Chemscore.Fitness>
11.8111

> <Gold.Chemscore.DG>
-13.1576

> <Gold.Chemscore.ZeroCoef>
-5.4800

> <Gold.Chemscore.Hbond>
0.9975

> <Gold.Chemscore.Metal>
0.0000

> <Gold.Chemscore.Lipo>
68.0498

> <Gold.Chemscore.Internal_Hbond>
0.0000

> <Gold.Chemscore.DEClash>
0.2159

> <Gold.Chemscore.DEInternal>
1.1307

> <Gold.Chemscore.Rot>
1.4125

> <Gold.Chemscore.Internal.Correction>
   9.000000E+99

> <Gold.Chemscore.Hbonds>
donor molecule, donor type, donor heavy atom, donor atom, acceptor molecule, acceptor atom, score
      P1  H 10752 10765       L1    11  1.00

> <Gold.Chemscore.Hbond.Weighted>
-3.3318

> <Gold.Chemscore.Metal.Weighted>
-0.0000

> <Gold.Chemscore.Lipo.Weighted>
-7.9618

> <Gold.Chemscore.Internal_Hbond.Weighted>
0.0000

> <Gold.Chemscore.DEClash.Weighted>
0.2159

> <Gold.Chemscore.DEInternal.Weighted>
1.1307

> <Gold.Chemscore.Rot.Weighted>
3.6160

> <Gold.Chemscore.Internal.Correction.Weighted>
   9.000000E+99

> <Gold.Protein.RotatedTorsions>
[ 6907 6896 6895 6894 ] final   18.48 input  -60.11 | X-H torsion
[ 7974 7965 7964 7962 ] final  118.95 input  175.53 | X-H torsion
[ 8008 7997 7996 7995 ] final -160.95 input   59.86 | X-H torsion
[ 10167 10162 10161 10158 ] final -118.01 input  -65.29 | X-H torsion
[ 10718 10713 10712 10709 ] final  123.24 input   66.30 | X-H torsion
[ 10763 10752 10751 10750 ] final -175.29 input  -60.55 | X-H torsion
[ 11005 11000 10999 10996 ] final -105.19 input  -57.11 | X-H torsion

> <Gold.Protein.ActiveResidues>
 VAL166  LYS551  ARG553  GLY616  TRP617  ASP618  TYR619  PRO620  LYS621  CYS622 
 ASP623  PHE694  ASN695  SER759  ASP760  ASP761  ALA762  ILE779  LEU786  VAL792 
 PHE793  MET794  SER795  GLU796  ALA797  LYS798  CYS799  TRP800  GLU811  SER814 

> <Gold.Protein.RotatedAtoms>
  151.8659  135.0507  160.0473 H   0  0  0  0  0  0  0  0  0  0  0  0  # atno 6907 bound_to 6896
  152.2626  133.5306  159.5399 H   0  0  0  0  0  0  0  0  0  0  0  0  # atno 6908 bound_to 6896
  150.7122  134.0724  159.3911 H   0  0  0  0  0  0  0  0  0  0  0  0  # atno 6909 bound_to 6896
  145.1491  139.3221  143.4576 H   0  0  0  0  0  0  0  0  0  0  0  0  # atno 7974 bound_to 7965
  155.7850  140.0870  157.2039 H   0  0  0  0  0  0  0  0  0  0  0  0  # atno 8008 bound_to 7997
  154.3988  140.1500  156.3155 H   0  0  0  0  0  0  0  0  0  0  0  0  # atno 8009 bound_to 7997
  155.8615  140.3430  155.5762 H   0  0  0  0  0  0  0  0  0  0  0  0  # atno 8010 bound_to 7997
  140.0621  143.4958  152.2026 H   0  0  0  0  0  0  0  0  0  0  0  0  # atno 10167 bound_to 10162
  157.5680  131.1085  150.8418 H   0  0  0  0  0  0  0  0  0  0  0  0  # atno 10718 bound_to 10713
  154.5862  135.2841  155.0683 H   0  0  0  0  0  0  0  0  0  0  0  0  # atno 10763 bound_to 10752
  154.2000  135.6426  153.5088 H   0  0  0  0  0  0  0  0  0  0  0  0  # atno 10764 bound_to 10752
  153.0105  135.5467  154.6532 H   0  0  0  0  0  0  0  0  0  0  0  0  # atno 10765 bound_to 10752
  141.1065  133.8787  157.1704 H   0  0  0  0  0  0  0  0  0  0  0  0  # atno 11005 bound_to 11000
  146.3497  140.1557  142.8591 LP  0  0  0  0  0  0  0  0  0  0  0  0  # atno 17320 bound_to 7965
  145.0450  140.8975  143.5029 LP  0  0  0  0  0  0  0  0  0  0  0  0  # atno 17321 bound_to 7965
  139.5887  144.7541  151.3454 LP  0  0  0  0  0  0  0  0  0  0  0  0  # atno 17342 bound_to 10162
  140.7167  143.7248  150.7668 LP  0  0  0  0  0  0  0  0  0  0  0  0  # atno 17343 bound_to 10162
  156.8898  130.5208  149.5287 LP  0  0  0  0  0  0  0  0  0  0  0  0  # atno 17370 bound_to 10713
  156.0727  130.5756  150.9415 LP  0  0  0  0  0  0  0  0  0  0  0  0  # atno 17371 bound_to 10713
  139.9938  135.0054  157.0035 LP  0  0  0  0  0  0  0  0  0  0  0  0  # atno 17394 bound_to 11000
  140.4888  134.1214  155.7229 LP  0  0  0  0  0  0  0  0  0  0  0  0  # atno 17395 bound_to 11000

$$$$
