AV-unprocessed.smi:3282|AV-procd|sdf|12567|dock6
  -GOLD-   2272018483D 1   1.00000     0.00000
 Structure written by MMmdl.
 33 34  0  0  0  0  0  0  0  0  2 V2000
  153.3979  143.2886  163.5597 C   0  0  0  0  0  0  0  0  0  0  0  0
  153.4024  142.5263  162.2247 C   0  0  0  0  0  0  0  0  0  0  0  0
  152.5613  143.1971  161.1257 C   0  0  0  0  0  0  0  0  0  0  0  0
  152.1426  144.3443  161.2893 O   0  0  0  0  0  0  0  0  0  0  0  0
  152.3060  142.4951  160.0020 N   0  0  0  0  0  0  0  0  0  0  0  0
  151.5221  142.9655  158.8618 C   0  0  0  0  0  0  0  0  0  0  0  0
  151.3351  141.7526  157.9500 C   0  0  0  0  0  0  0  0  0  0  0  0
  152.4913  140.8200  158.3006 C   0  0  2  0  0  0  0  0  0  0  0  0
  152.1316  139.4188  158.1034 N   0  0  0  0  0  0  0  0  0  0  0  0
  152.9928  138.3942  158.0251 C   0  0  0  0  0  0  0  0  0  0  0  0
  154.2050  138.6027  158.1150 O   0  0  0  0  0  0  0  0  0  0  0  0
  152.3962  137.1934  157.8513 N   0  5  0  0  0  0  0  0  0  0  0  0
  151.7444  136.9304  156.7071 C   0  0  0  0  0  0  0  0  0  0  0  0
  151.8849  137.5798  155.5503 N   0  0  0  0  0  0  0  0  0  0  0  0
  151.0120  136.9683  154.6637 C   0  0  0  0  0  0  0  0  0  0  0  0
  150.3669  135.9654  155.3343 C   0  0  0  0  0  0  0  0  0  0  0  0
  150.8169  135.9346  156.6251 O   0  0  0  0  0  0  0  0  0  0  0  0
  152.7980  141.1396  159.7701 C   0  0  0  0  0  0  0  0  0  0  0  0
  154.0045  142.7684  164.3013 H   0  0  0  0  0  0  0  0  0  0  0  0
  152.3889  143.3776  163.9638 H   0  0  0  0  0  0  0  0  0  0  0  0
  153.8076  144.2934  163.4475 H   0  0  0  0  0  0  0  0  0  0  0  0
  154.4297  142.4308  161.8717 H   0  0  0  0  0  0  0  0  0  0  0  0
  153.0276  141.5160  162.3925 H   0  0  0  0  0  0  0  0  0  0  0  0
  150.5584  143.3782  159.1628 H   0  0  0  0  0  0  0  0  0  0  0  0
  152.0812  143.7456  158.3433 H   0  0  0  0  0  0  0  0  0  0  0  0
  150.3824  141.2754  158.1857 H   0  0  0  0  0  0  0  0  0  0  0  0
  151.3169  142.0202  156.8932 H   0  0  0  0  0  0  0  0  0  0  0  0
  153.3522  141.0830  157.6831 H   0  0  0  0  0  0  0  0  0  0  0  0
  151.1482  139.2055  158.0232 H   0  0  0  0  0  0  0  0  0  0  0  0
  150.9188  137.2927  153.6381 H   0  0  0  0  0  0  0  0  0  0  0  0
  149.6164  135.2388  155.0619 H   0  0  0  0  0  0  0  0  0  0  0  0
  153.8660  141.0517  159.9762 H   0  0  0  0  0  0  0  0  0  0  0  0
  152.2698  140.4604  160.4418 H   0  0  0  0  0  0  0  0  0  0  0  0
  1  2  1  0  0  0  0
  1 19  1  0  0  0  0
  1 20  1  0  0  0  0
  1 21  1  0  0  0  0
  2  3  1  0  0  0  0
  2 22  1  0  0  0  0
  2 23  1  0  0  0  0
  3  4  2  0  0  0  0
  3  5  1  0  0  0  0
  5 18  1  0  0  0  0
  5  6  1  0  0  0  0
  6  7  1  0  0  0  0
  6 24  1  0  0  0  0
  6 25  1  0  0  0  0
  7  8  1  0  0  0  0
  7 26  1  0  0  0  0
  7 27  1  0  0  0  0
  8  9  1  0  0  0  0
  8 18  1  0  0  0  0
  8 28  1  0  0  0  0
  9 10  1  0  0  0  0
  9 29  1  0  0  0  0
 10 11  2  0  0  0  0
 10 12  1  0  0  0  0
 12 13  1  0  0  0  0
 13 17  1  0  0  0  0
 13 14  2  0  0  0  0
 14 15  1  0  0  0  0
 15 16  2  0  0  0  0
 15 30  1  0  0  0  0
 16 17  1  0  0  0  0
 16 31  1  0  0  0  0
 18 32  1  0  0  0  0
 18 33  1  0  0  0  0
M  CHG  1  12  -1
M  END
> <s_m_source_file>
AV-unprocessed.smi

> <i_m_source_file_index>
3282

> <i_lp_mmshare_version>
43012

> <i_f3d_flags>
0

> <s_epik_input>
W0NIM11bQ0gyXUMoPU8pTjFbQ0gyXVtDSDJdW0NASF0oW0NIMl0xKVtOSF1DKD1PKVtOSF1jMm5bY0hdW2NIXW8y

> <s_epik_cmdline>
J2VwaWtfcHl0aG9uJywgJy1waCcsICc3LjAnLCAnLXRuJywgJzgnLCAnLW1hJywgJzIwMCcsICctbWV0YWxfYmluZGluZycsICctaW1hZScsICc8aW5maWxlLm1hZT4nLCAnLW9tYWUnLCAnPG91dGZpbGUubWFlPic=

> <r_lp_tautomer_probability>
0.785861

> <r_epik_Ionization_Penalty>
9.30511

> <r_epik_Ionization_Penalty_Charging>
6.7516

> <r_epik_Ionization_Penalty_Neutral>
2.55351

> <r_epik_State_Penalty>
6.77285

> <r_epik_Charging_Adjusted_Penalty>
13.5244

> <i_epik_Tot_Q>
-1

> <i_epik_Tot_abs_Q>
1

> <r_epik_Metal_State_Penalty>
2.67327

> <b_epik_Metal_Only>
1

> <s_lp_Force_Field>
OPLS_2005

> <r_lp_Energy>
20.6417

> <b_lp_Chiralities_Consistent>
1

> <s_lp_Variant>
AV-unprocessed.smi:3282-8

> <Gold.Version>
5.8.1

> <Gold.Id.Protein>
6NUR|6NUR_protein|mol2

> <Gold.PLP.Fitness>
36.4912

> <Gold.PLP.PLP>
-32.3649

> <Gold.PLP.part.hbond>
-1.1077

> <Gold.PLP.part.metal>
0.0000

> <Gold.PLP.part.buried>
-5.4692

> <Gold.PLP.part.nonpolar>
-25.2560

> <Gold.PLP.part.repulsive>
0.2753

> <Gold.PLP.ligand.clash>
0.0000

> <Gold.PLP.ligand.torsion>
1.0797

> <Gold.PLP.Chemscore.Hbond>
1.0000

> <Gold.PLP.Chemscore.CHOScore>
1.0908

> <Gold.PLP.Chemscore.Metal>
0.0000

> <Gold.Chemscore.Hbonds>
donor molecule, donor type, donor heavy atom, donor atom, acceptor molecule, acceptor atom, score
      P1  H  7997  8009       L1    11  1.00
      L1  C    15    30       P1  7948  0.10
      L1  C    15    30       P1  7949  0.99

> <Gold.PLP.Chemscore.Internal.Correction>
0.0132

> <Gold.Rescore>
     Score         DG    S(hbond)    S(metal)    S(lipo)     H(rot)  DE(clash)    DE(int)     intcor
     12.76     -13.83       0.97        0.00      72.38       1.31       0.01       1.07       ----

> <Gold.Chemscore.Fitness>
12.7556

> <Gold.Chemscore.DG>
-13.8291

> <Gold.Chemscore.ZeroCoef>
-5.4800

> <Gold.Chemscore.Hbond>
0.9668

> <Gold.Chemscore.Metal>
0.0000

> <Gold.Chemscore.Lipo>
72.3837

> <Gold.Chemscore.Internal_Hbond>
0.0000

> <Gold.Chemscore.DEClash>
0.0073

> <Gold.Chemscore.DEInternal>
1.0661

> <Gold.Chemscore.Rot>
1.3082

> <Gold.Chemscore.Internal.Correction>
   9.000000E+99

> <Gold.Chemscore.Hbonds>
donor molecule, donor type, donor heavy atom, donor atom, acceptor molecule, acceptor atom, score
      P1  H  7997  8009       L1    11  0.90

> <Gold.Chemscore.Hbond.Weighted>
-3.2291

> <Gold.Chemscore.Metal.Weighted>
-0.0000

> <Gold.Chemscore.Lipo.Weighted>
-8.4689

> <Gold.Chemscore.Internal_Hbond.Weighted>
0.0000

> <Gold.Chemscore.DEClash.Weighted>
0.0073

> <Gold.Chemscore.DEInternal.Weighted>
1.0661

> <Gold.Chemscore.Rot.Weighted>
3.3489

> <Gold.Chemscore.Internal.Correction.Weighted>
   9.000000E+99

> <Gold.Protein.RotatedTorsions>
[ 6907 6896 6895 6894 ] final  -16.07 input  -60.11 | X-H torsion
[ 7974 7965 7964 7962 ] final -147.67 input  175.53 | X-H torsion
[ 8008 7997 7996 7995 ] final  139.87 input   59.86 | X-H torsion
[ 10167 10162 10161 10158 ] final -169.46 input  -65.29 | X-H torsion
[ 10718 10713 10712 10709 ] final  146.25 input   66.30 | X-H torsion
[ 10763 10752 10751 10750 ] final -139.69 input  -60.55 | X-H torsion
[ 11005 11000 10999 10996 ] final -147.26 input  -57.11 | X-H torsion

> <Gold.Protein.ActiveResidues>
 VAL166  LYS551  ARG553  GLY616  TRP617  ASP618  TYR619  PRO620  LYS621  CYS622 
 ASP623  PHE694  ASN695  SER759  ASP760  ASP761  ALA762  ILE779  LEU786  VAL792 
 PHE793  MET794  SER795  GLU796  ALA797  LYS798  CYS799  TRP800  GLU811  SER814 

> <Gold.Protein.RotatedAtoms>
  151.3143  135.0802  159.9283 H   0  0  0  0  0  0  0  0  0  0  0  0  # atno 6907 bound_to 6896
  152.5271  133.9704  159.7769 H   0  0  0  0  0  0  0  0  0  0  0  0  # atno 6908 bound_to 6896
  151.0013  133.6001  159.2725 H   0  0  0  0  0  0  0  0  0  0  0  0  # atno 6909 bound_to 6896
  144.8078  140.5296  143.5663 H   0  0  0  0  0  0  0  0  0  0  0  0  # atno 7974 bound_to 7965
  156.2985  140.2356  156.4307 H   0  0  0  0  0  0  0  0  0  0  0  0  # atno 8008 bound_to 7997
  154.8272  140.0435  157.1472 H   0  0  0  0  0  0  0  0  0  0  0  0  # atno 8009 bound_to 7997
  154.9248  140.3008  155.5201 H   0  0  0  0  0  0  0  0  0  0  0  0  # atno 8010 bound_to 7997
  139.5921  144.1190  152.1647 H   0  0  0  0  0  0  0  0  0  0  0  0  # atno 10167 bound_to 10162
  157.3355  131.0927  151.1127 H   0  0  0  0  0  0  0  0  0  0  0  0  # atno 10718 bound_to 10713
  154.8602  135.3575  154.5586 H   0  0  0  0  0  0  0  0  0  0  0  0  # atno 10763 bound_to 10752
  153.6202  135.7006  153.5318 H   0  0  0  0  0  0  0  0  0  0  0  0  # atno 10764 bound_to 10752
  153.3135  135.4172  155.1316 H   0  0  0  0  0  0  0  0  0  0  0  0  # atno 10765 bound_to 10752
  140.7735  134.3161  157.5068 H   0  0  0  0  0  0  0  0  0  0  0  0  # atno 11005 bound_to 11000
  145.5396  139.1475  143.3454 LP  0  0  0  0  0  0  0  0  0  0  0  0  # atno 17320 bound_to 7965
  146.2372  140.5536  142.8949 LP  0  0  0  0  0  0  0  0  0  0  0  0  # atno 17321 bound_to 7965
  140.0767  144.5735  150.7152 LP  0  0  0  0  0  0  0  0  0  0  0  0  # atno 17342 bound_to 10162
  140.7182  143.2564  151.4366 LP  0  0  0  0  0  0  0  0  0  0  0  0  # atno 17343 bound_to 10162
  157.2359  130.6546  149.5869 LP  0  0  0  0  0  0  0  0  0  0  0  0  # atno 17370 bound_to 10713
  155.9701  130.4584  150.5997 LP  0  0  0  0  0  0  0  0  0  0  0  0  # atno 17371 bound_to 10713
  139.8752  134.9275  156.3427 LP  0  0  0  0  0  0  0  0  0  0  0  0  # atno 17394 bound_to 11000
  140.9551  133.7425  156.0324 LP  0  0  0  0  0  0  0  0  0  0  0  0  # atno 17395 bound_to 11000

$$$$
