AV-unprocessed.smi:2989|AV-procd|sdf|11392|dock1
  -GOLD-   2272016313D 1   1.00000     0.00000
 Structure written by MMmdl.
 31 33  0  0  0  0  0  0  0  0  1 V2000
  151.6783  139.6204  154.7489 O   0  0  0  0  0  0  0  0  0  0  0  0
  150.5601  139.9516  155.5503 C   0  0  1  0  0  0  0  0  0  0  0  0
  150.8851  141.1812  156.4214 C   0  0  0  0  0  0  0  0  0  0  0  0
  151.8722  140.8956  157.4478 N   0  0  0  0  0  0  0  0  0  0  0  0
  152.5751  139.7290  157.3923 N   0  0  0  0  0  0  0  0  0  0  0  0
  153.3943  139.6880  158.4004 N   0  0  0  0  0  0  0  0  0  0  0  0
  153.2293  140.8510  159.1344 C   0  0  0  0  0  0  0  0  0  0  0  0
  153.8572  141.3203  160.3105 C   0  0  0  0  0  0  0  0  0  0  0  0
  153.4934  142.5694  160.8585 C   0  0  0  0  0  0  0  0  0  0  0  0
  152.5019  143.3621  160.2408 C   0  0  0  0  0  0  0  0  0  0  0  0
  151.8659  142.9094  159.0684 C   0  0  0  0  0  0  0  0  0  0  0  0
  152.2394  141.6626  158.5366 C   0  0  0  0  0  0  0  0  0  0  0  0
  149.3072  140.1791  154.7188 C   0  0  0  0  0  0  0  0  0  0  0  0
  148.6318  139.0800  154.1461 C   0  0  0  0  0  0  0  0  0  0  0  0
  147.4666  139.2827  153.3809 C   0  0  0  0  0  0  0  0  0  0  0  0
  146.9691  140.5854  153.1854 C   0  0  0  0  0  0  0  0  0  0  0  0
  147.6368  141.6856  153.7568 C   0  0  0  0  0  0  0  0  0  0  0  0
  148.8016  141.4834  154.5222 C   0  0  0  0  0  0  0  0  0  0  0  0
  151.7537  138.6790  154.7150 H   0  0  0  0  0  0  0  0  0  0  0  0
  150.3834  139.0965  156.2040 H   0  0  0  0  0  0  0  0  0  0  0  0
  151.2550  142.0006  155.8035 H   0  0  0  0  0  0  0  0  0  0  0  0
  149.9798  141.5462  156.9092 H   0  0  0  0  0  0  0  0  0  0  0  0
  154.6176  140.7222  160.7904 H   0  0  0  0  0  0  0  0  0  0  0  0
  153.9787  142.9216  161.7567 H   0  0  0  0  0  0  0  0  0  0  0  0
  152.2313  144.3170  160.6667 H   0  0  0  0  0  0  0  0  0  0  0  0
  151.1085  143.5093  158.5860 H   0  0  0  0  0  0  0  0  0  0  0  0
  149.0036  138.0765  154.2918 H   0  0  0  0  0  0  0  0  0  0  0  0
  146.9541  138.4381  152.9444 H   0  0  0  0  0  0  0  0  0  0  0  0
  146.0754  140.7404  152.5992 H   0  0  0  0  0  0  0  0  0  0  0  0
  147.2549  142.6849  153.6088 H   0  0  0  0  0  0  0  0  0  0  0  0
  149.3047  142.3332  154.9601 H   0  0  0  0  0  0  0  0  0  0  0  0
  1  2  1  0  0  0  0
  1 19  1  0  0  0  0
  2  3  1  0  0  0  0
  2 13  1  0  0  0  0
  2 20  1  0  0  0  0
  3  4  1  0  0  0  0
  3 21  1  0  0  0  0
  3 22  1  0  0  0  0
  4 12  1  0  0  0  0
  4  5  1  0  0  0  0
  5  6  2  0  0  0  0
  6  7  1  0  0  0  0
  7 12  2  0  0  0  0
  7  8  1  0  0  0  0
  8  9  2  0  0  0  0
  8 23  1  0  0  0  0
  9 10  1  0  0  0  0
  9 24  1  0  0  0  0
 10 11  2  0  0  0  0
 10 25  1  0  0  0  0
 11 12  1  0  0  0  0
 11 26  1  0  0  0  0
 13 18  1  0  0  0  0
 13 14  2  0  0  0  0
 14 15  1  0  0  0  0
 14 27  1  0  0  0  0
 15 16  2  0  0  0  0
 15 28  1  0  0  0  0
 16 17  1  0  0  0  0
 16 29  1  0  0  0  0
 17 18  2  0  0  0  0
 17 30  1  0  0  0  0
 18 31  1  0  0  0  0
M  END
> <s_m_source_file>
AV-unprocessed.smi

> <i_m_source_file_index>
2989

> <i_lp_mmshare_version>
43012

> <i_f3d_flags>
0

> <s_epik_input>
W2NIXTFbY0hdW2NIXVtjSF1bY0hdYzFbQ0BIXShbT0hdKVtDSDJdbihubjIpYyhjMjMpW2NIXVtjSF1bY0hdW2NIXTM=

> <s_epik_cmdline>
J2VwaWtfcHl0aG9uJywgJy1waCcsICc3LjAnLCAnLXRuJywgJzgnLCAnLW1hJywgJzIwMCcsICctbWV0YWxfYmluZGluZycsICctaW1hZScsICc8aW5maWxlLm1hZT4nLCAnLW9tYWUnLCAnPG91dGZpbGUubWFlPic=

> <r_lp_tautomer_probability>
1

> <r_epik_Ionization_Penalty>
4.09993e-05

> <r_epik_Ionization_Penalty_Charging>
0

> <r_epik_Ionization_Penalty_Neutral>
4.09993e-05

> <r_epik_State_Penalty>
-0

> <r_epik_Charging_Adjusted_Penalty>
0

> <i_epik_Tot_Q>
0

> <i_epik_Tot_abs_Q>
0

> <r_epik_Metal_State_Penalty>
-0

> <b_epik_Metal_Only>
0

> <s_lp_Force_Field>
OPLS_2005

> <r_lp_Energy>
11.6495

> <b_lp_Chiralities_Consistent>
1

> <s_lp_Variant>
AV-unprocessed.smi:2989-2

> <Gold.Version>
5.8.1

> <Gold.Id.Protein>
6NUR|6NUR_protein|mol2

> <Gold.PLP.Fitness>
45.6075

> <Gold.PLP.PLP>
-41.9384

> <Gold.PLP.part.hbond>
-3.0000

> <Gold.PLP.part.metal>
0.0000

> <Gold.PLP.part.buried>
-3.9648

> <Gold.PLP.part.nonpolar>
-35.5367

> <Gold.PLP.part.repulsive>
0.0000

> <Gold.PLP.ligand.clash>
0.0000

> <Gold.PLP.ligand.torsion>
0.5828

> <Gold.PLP.Chemscore.Hbond>
1.6048

> <Gold.PLP.Chemscore.CHOScore>
0.0000

> <Gold.PLP.Chemscore.Metal>
0.0000

> <Gold.Chemscore.Hbonds>
donor molecule, donor type, donor heavy atom, donor atom, acceptor molecule, acceptor atom, score
      P1  H  7989  7998       L1     1  1.00
      P1  H  7997  8008       L1     6  0.57

> <Gold.PLP.Chemscore.Internal.Correction>
0.0202

> <Gold.Rescore>
     Score         DG    S(hbond)    S(metal)    S(lipo)     H(rot)  DE(clash)    DE(int)     intcor
     15.70     -17.45       0.94        0.00     113.89       1.76       0.03       1.73       ----

> <Gold.Chemscore.Fitness>
15.6952

> <Gold.Chemscore.DG>
-17.4537

> <Gold.Chemscore.ZeroCoef>
-5.4800

> <Gold.Chemscore.Hbond>
0.9414

> <Gold.Chemscore.Metal>
0.0000

> <Gold.Chemscore.Lipo>
113.8891

> <Gold.Chemscore.Internal_Hbond>
0.0000

> <Gold.Chemscore.DEClash>
0.0296

> <Gold.Chemscore.DEInternal>
1.7289

> <Gold.Chemscore.Rot>
1.7561

> <Gold.Chemscore.Internal.Correction>
   9.000000E+99

> <Gold.Chemscore.Hbonds>
donor molecule, donor type, donor heavy atom, donor atom, acceptor molecule, acceptor atom, score
      P1  H  7989  7998       L1     1  0.39
      P1  H  7997  8008       L1     6  0.02

> <Gold.Chemscore.Hbond.Weighted>
-3.1442

> <Gold.Chemscore.Metal.Weighted>
-0.0000

> <Gold.Chemscore.Lipo.Weighted>
-13.3250

> <Gold.Chemscore.Internal_Hbond.Weighted>
0.0000

> <Gold.Chemscore.DEClash.Weighted>
0.0296

> <Gold.Chemscore.DEInternal.Weighted>
1.7289

> <Gold.Chemscore.Rot.Weighted>
4.4955

> <Gold.Chemscore.Internal.Correction.Weighted>
   9.000000E+99

> <Gold.Protein.RotatedTorsions>
[ 6907 6896 6895 6894 ] final   12.50 input  -60.11 | X-H torsion
[ 7974 7965 7964 7962 ] final   40.22 input  175.53 | X-H torsion
[ 8008 7997 7996 7995 ] final -112.92 input   59.86 | X-H torsion
[ 10167 10162 10161 10158 ] final   41.90 input  -65.29 | X-H torsion
[ 10718 10713 10712 10709 ] final  -32.55 input   66.30 | X-H torsion
[ 10763 10752 10751 10750 ] final  -92.83 input  -60.55 | X-H torsion
[ 11005 11000 10999 10996 ] final   74.52 input  -57.11 | X-H torsion

> <Gold.Protein.ActiveResidues>
 VAL166  LYS551  ARG553  GLY616  TRP617  ASP618  TYR619  PRO620  LYS621  CYS622 
 ASP623  PHE694  ASN695  SER759  ASP760  ASP761  ALA762  ILE779  LEU786  VAL792 
 PHE793  MET794  SER795  GLU796  ALA797  LYS798  CYS799  TRP800  GLU811  SER814 

> <Gold.Protein.RotatedAtoms>
  151.7713  135.0785  160.0360 H   0  0  0  0  0  0  0  0  0  0  0  0  # atno 6907 bound_to 6896
  152.3286  133.5929  159.5802 H   0  0  0  0  0  0  0  0  0  0  0  0  # atno 6908 bound_to 6896
  150.7410  133.9818  159.3620 H   0  0  0  0  0  0  0  0  0  0  0  0  # atno 6909 bound_to 6896
  146.0922  139.5559  142.9468 H   0  0  0  0  0  0  0  0  0  0  0  0  # atno 7974 bound_to 7965
  155.0127  140.0393  157.2406 H   0  0  0  0  0  0  0  0  0  0  0  0  # atno 8008 bound_to 7997
  154.7446  140.2755  155.6320 H   0  0  0  0  0  0  0  0  0  0  0  0  # atno 8009 bound_to 7997
  156.2872  140.2659  156.2183 H   0  0  0  0  0  0  0  0  0  0  0  0  # atno 8010 bound_to 7997
  140.3597  144.2244  150.6139 H   0  0  0  0  0  0  0  0  0  0  0  0  # atno 10167 bound_to 10162
  156.3735  130.4344  149.7526 H   0  0  0  0  0  0  0  0  0  0  0  0  # atno 10718 bound_to 10713
  154.6900  135.5217  153.8378 H   0  0  0  0  0  0  0  0  0  0  0  0  # atno 10763 bound_to 10752
  153.0625  135.6573  154.0440 H   0  0  0  0  0  0  0  0  0  0  0  0  # atno 10764 bound_to 10752
  154.0315  135.2985  155.3347 H   0  0  0  0  0  0  0  0  0  0  0  0  # atno 10765 bound_to 10752
  139.9387  134.7440  156.1158 H   0  0  0  0  0  0  0  0  0  0  0  0  # atno 11005 bound_to 11000
  145.6016  141.0354  143.2015 LP  0  0  0  0  0  0  0  0  0  0  0  0  # atno 17320 bound_to 7965
  144.7369  139.7561  143.7326 LP  0  0  0  0  0  0  0  0  0  0  0  0  # atno 17321 bound_to 7965
  140.5139  143.2283  151.8493 LP  0  0  0  0  0  0  0  0  0  0  0  0  # atno 17342 bound_to 10162
  139.4815  144.4917  151.9176 LP  0  0  0  0  0  0  0  0  0  0  0  0  # atno 17343 bound_to 10162
  156.4644  130.7967  151.2986 LP  0  0  0  0  0  0  0  0  0  0  0  0  # atno 17370 bound_to 10713
  157.7486  131.0056  150.3118 LP  0  0  0  0  0  0  0  0  0  0  0  0  # atno 17371 bound_to 10713
  141.1012  133.6676  156.2759 LP  0  0  0  0  0  0  0  0  0  0  0  0  # atno 17394 bound_to 11000
  140.6008  134.5556  157.5517 LP  0  0  0  0  0  0  0  0  0  0  0  0  # atno 17395 bound_to 11000

$$$$
