AV-unprocessed.smi:511|AV-procd|sdf|2766|dock4
  -GOLD-   2262023233D 1   1.00000     0.00000
 Structure written by MMmdl.
 45 47  0  0  0  0  0  0  0  0  3 V2000
  150.9295  142.3915  157.2178 C   0  0  0  0  0  0  0  0  0  0  0  0
  150.5839  141.3335  156.3413 O   0  0  0  0  0  0  0  0  0  0  0  0
  149.5719  141.7027  155.4201 C   0  0  0  0  0  0  0  0  0  0  0  0
  149.7022  140.8325  154.1637 C   0  0  0  0  0  0  0  0  0  0  0  0
  149.6057  139.4106  154.4863 N   0  0  0  0  0  0  0  0  0  0  0  0
  148.5263  138.5904  154.3771 C   0  0  0  0  0  0  0  0  0  0  0  0
  147.3123  139.0279  153.8476 N   0  0  0  0  0  0  0  0  0  0  0  0
  147.0131  139.1206  152.4201 C   0  0  0  0  0  0  0  0  0  0  0  0
  146.1525  137.9331  151.9496 C   0  0  0  0  0  0  0  0  0  0  0  0
  144.9039  137.8319  152.7427 N   0  3  0  0  0  0  0  0  0  0  0  0
  144.0469  136.7059  152.3147 C   0  0  0  0  0  0  0  0  0  0  0  0
  145.1759  137.8218  154.1996 C   0  0  0  0  0  0  0  0  0  0  0  0
  146.0580  139.0191  154.5941 C   0  0  0  0  0  0  0  0  0  0  0  0
  148.7180  137.3504  154.8309 N   0  0  0  0  0  0  0  0  0  0  0  0
  150.0441  137.3709  155.2358 C   0  0  0  0  0  0  0  0  0  0  0  0
  150.5995  138.5967  155.0393 C   0  0  0  0  0  0  0  0  0  0  0  0
  151.9958  138.9336  155.3935 C   0  0  0  0  0  0  0  0  0  0  0  0
  152.4417  140.0641  155.2088 O   0  0  0  0  0  0  0  0  0  0  0  0
  152.6671  137.8627  155.9239 N   0  5  0  0  0  0  0  0  0  0  0  0
  152.1470  136.6038  156.1352 C   0  0  0  0  0  0  0  0  0  0  0  0
  152.8226  135.6931  156.6160 O   0  0  0  0  0  0  0  0  0  0  0  0
  150.8427  136.3422  155.8055 N   0  0  0  0  0  0  0  0  0  0  0  0
  150.2609  135.0146  156.0237 C   0  0  0  0  0  0  0  0  0  0  0  0
  151.7056  142.0577  157.9063 H   0  0  0  0  0  0  0  0  0  0  0  0
  150.0704  142.7117  157.8091 H   0  0  0  0  0  0  0  0  0  0  0  0
  151.3146  143.2501  156.6662 H   0  0  0  0  0  0  0  0  0  0  0  0
  148.5881  141.5726  155.8734 H   0  0  0  0  0  0  0  0  0  0  0  0
  149.6758  142.7567  155.1570 H   0  0  0  0  0  0  0  0  0  0  0  0
  148.9288  141.1162  153.4552 H   0  0  0  0  0  0  0  0  0  0  0  0
  150.6466  141.0217  153.6547 H   0  0  0  0  0  0  0  0  0  0  0  0
  146.5083  140.0657  152.2164 H   0  0  0  0  0  0  0  0  0  0  0  0
  147.9387  139.1254  151.8446 H   0  0  0  0  0  0  0  0  0  0  0  0
  145.9080  138.0493  150.8932 H   0  0  0  0  0  0  0  0  0  0  0  0
  146.7200  137.0058  152.0468 H   0  0  0  0  0  0  0  0  0  0  0  0
  144.5450  135.7495  152.4786 H   0  0  0  0  0  0  0  0  0  0  0  0
  143.8047  136.7888  151.2547 H   0  0  0  0  0  0  0  0  0  0  0  0
  143.1094  136.7030  152.8715 H   0  0  0  0  0  0  0  0  0  0  0  0
  144.2347  137.8590  154.7489 H   0  0  0  0  0  0  0  0  0  0  0  0
  145.6707  136.8884  154.4735 H   0  0  0  0  0  0  0  0  0  0  0  0
  146.2718  138.9870  155.6632 H   0  0  0  0  0  0  0  0  0  0  0  0
  145.5280  139.9555  154.4144 H   0  0  0  0  0  0  0  0  0  0  0  0
  150.3467  134.7254  157.0721 H   0  0  0  0  0  0  0  0  0  0  0  0
  150.7794  134.2682  155.4206 H   0  0  0  0  0  0  0  0  0  0  0  0
  149.2038  134.9699  155.7623 H   0  0  0  0  0  0  0  0  0  0  0  0
  144.3832  138.6776  152.5586 H   0  0  0  0  0  0  0  0  0  0  0  0
  1  2  1  0  0  0  0
  1 24  1  0  0  0  0
  1 25  1  0  0  0  0
  1 26  1  0  0  0  0
  2  3  1  0  0  0  0
  3  4  1  0  0  0  0
  3 27  1  0  0  0  0
  3 28  1  0  0  0  0
  4  5  1  0  0  0  0
  4 29  1  0  0  0  0
  4 30  1  0  0  0  0
  5 16  1  0  0  0  0
  5  6  1  0  0  0  0
  6  7  1  0  0  0  0
  6 14  2  0  0  0  0
  7 13  1  0  0  0  0
  7  8  1  0  0  0  0
  8  9  1  0  0  0  0
  8 31  1  0  0  0  0
  8 32  1  0  0  0  0
  9 10  1  0  0  0  0
  9 33  1  0  0  0  0
  9 34  1  0  0  0  0
 10 11  1  0  0  0  0
 10 12  1  0  0  0  0
 10 45  1  0  0  0  0
 11 35  1  0  0  0  0
 11 36  1  0  0  0  0
 11 37  1  0  0  0  0
 12 13  1  0  0  0  0
 12 38  1  0  0  0  0
 12 39  1  0  0  0  0
 13 40  1  0  0  0  0
 13 41  1  0  0  0  0
 14 15  1  0  0  0  0
 15 22  1  0  0  0  0
 15 16  2  0  0  0  0
 16 17  1  0  0  0  0
 17 18  2  0  0  0  0
 17 19  1  0  0  0  0
 19 20  1  0  0  0  0
 20 21  2  0  0  0  0
 20 22  1  0  0  0  0
 22 23  1  0  0  0  0
 23 42  1  0  0  0  0
 23 43  1  0  0  0  0
 23 44  1  0  0  0  0
M  CHG  1  10   1
M  CHG  1  19  -1
M  END
> <s_m_source_file>
AV-unprocessed.smi

> <i_m_source_file_index>
511

> <i_lp_mmshare_version>
43012

> <i_f3d_flags>
0

> <s_epik_input>
W0NIM11uMWMoPU8pW25IXWMoPU8pYyhjMTIpbihbQ0gyXVtDSDJdT1tDSDNdKWMobjIpTjNbQ0gyXVtDSDJdTihbQ0gzXSlbQ0gyXVtDSDJdMw==

> <s_epik_cmdline>
J2VwaWtfcHl0aG9uJywgJy1waCcsICc3LjAnLCAnLXRuJywgJzgnLCAnLW1hJywgJzIwMCcsICctbWV0YWxfYmluZGluZycsICctaW1hZScsICc8aW5maWxlLm1hZT4nLCAnLW9tYWUnLCAnPG91dGZpbGUubWFlPic=

> <r_epik_Ionization_Penalty>
5.9833

> <r_epik_Ionization_Penalty_Charging>
0.125752

> <r_epik_Ionization_Penalty_Neutral>
5.85754

> <r_epik_State_Penalty>
5.9139

> <r_epik_Charging_Adjusted_Penalty>
6.03966

> <i_epik_Tot_Q>
0

> <i_epik_Tot_abs_Q>
2

> <r_epik_Metal_State_Penalty>
1.87741

> <b_epik_Metal_Only>
1

> <s_lp_Force_Field>
OPLS_2005

> <r_lp_Energy>
51.0512

> <b_lp_Chiralities_Consistent>
1

> <s_lp_Variant>
AV-unprocessed.smi:511-3

> <Gold.Version>
5.8.1

> <Gold.Id.Protein>
6NUR|6NUR_protein|mol2

> <Gold.PLP.Fitness>
38.9940

> <Gold.PLP.PLP>
-29.1292

> <Gold.PLP.part.hbond>
-4.1390

> <Gold.PLP.part.metal>
0.0000

> <Gold.PLP.part.buried>
6.1921

> <Gold.PLP.part.nonpolar>
-30.6097

> <Gold.PLP.part.repulsive>
0.2156

> <Gold.PLP.ligand.clash>
0.0000

> <Gold.PLP.ligand.torsion>
1.7103

> <Gold.PLP.Chemscore.Hbond>
4.2418

> <Gold.PLP.Chemscore.CHOScore>
0.0000

> <Gold.PLP.Chemscore.Metal>
0.0000

> <Gold.Chemscore.Hbonds>
donor molecule, donor type, donor heavy atom, donor atom, acceptor molecule, acceptor atom, score
      L1  H    10    45       P1 10175  2.00
      P1  H  7989  7998       L1    18  0.59
      P1  H  7997  8010       L1    18  0.67
      P1  H 10752 10764       L1    21  1.00

> <Gold.PLP.Chemscore.Internal.Correction>
0.5601

> <Gold.Rescore>
     Score         DG    S(hbond)    S(metal)    S(lipo)     H(rot)  DE(clash)    DE(int)     intcor
      8.44     -13.94       2.01        0.00      47.63       1.49       0.02       5.47       ----

> <Gold.Chemscore.Fitness>
8.4413

> <Gold.Chemscore.DG>
-13.9363

> <Gold.Chemscore.ZeroCoef>
-5.4800

> <Gold.Chemscore.Hbond>
2.0065

> <Gold.Chemscore.Metal>
0.0000

> <Gold.Chemscore.Lipo>
47.6322

> <Gold.Chemscore.Internal_Hbond>
0.0000

> <Gold.Chemscore.DEClash>
0.0217

> <Gold.Chemscore.DEInternal>
5.4733

> <Gold.Chemscore.Rot>
1.4915

> <Gold.Chemscore.Internal.Correction>
   9.000000E+99

> <Gold.Chemscore.Hbonds>
donor molecule, donor type, donor heavy atom, donor atom, acceptor molecule, acceptor atom, score
      L1  H    10    45       P1 10175  1.00
      P1  H  7989  7998       L1    18  0.43
      P1  H  7997  8010       L1    18  0.36
      P1  H 10752 10764       L1    21  0.24

> <Gold.Chemscore.Hbond.Weighted>
-6.7016

> <Gold.Chemscore.Metal.Weighted>
-0.0000

> <Gold.Chemscore.Lipo.Weighted>
-5.5730

> <Gold.Chemscore.Internal_Hbond.Weighted>
0.0000

> <Gold.Chemscore.DEClash.Weighted>
0.0217

> <Gold.Chemscore.DEInternal.Weighted>
5.4733

> <Gold.Chemscore.Rot.Weighted>
3.8183

> <Gold.Chemscore.Internal.Correction.Weighted>
   9.000000E+99

> <Gold.Protein.RotatedTorsions>
[ 6907 6896 6895 6894 ] final  -27.31 input  -60.11 | X-H torsion
[ 7974 7965 7964 7962 ] final  -59.16 input  175.53 | X-H torsion
[ 8008 7997 7996 7995 ] final   81.34 input   59.86 | X-H torsion
[ 10167 10162 10161 10158 ] final   90.71 input  -65.29 | X-H torsion
[ 10718 10713 10712 10709 ] final  112.35 input   66.30 | X-H torsion
[ 10763 10752 10751 10750 ] final   10.93 input  -60.55 | X-H torsion
[ 11005 11000 10999 10996 ] final  172.16 input  -57.11 | X-H torsion

> <Gold.Protein.ActiveResidues>
 VAL166  LYS551  ARG553  GLY616  TRP617  ASP618  TYR619  PRO620  LYS621  CYS622 
 ASP623  PHE694  ASN695  SER759  ASP760  ASP761  ALA762  ILE779  LEU786  VAL792 
 PHE793  MET794  SER795  GLU796  ALA797  LYS798  CYS799  TRP800  GLU811  SER814 

> <Gold.Protein.RotatedAtoms>
  151.1486  135.0216  159.8657 H   0  0  0  0  0  0  0  0  0  0  0  0  # atno 6907 bound_to 6896
  152.5453  134.1415  159.8491 H   0  0  0  0  0  0  0  0  0  0  0  0  # atno 6908 bound_to 6896
  151.1498  133.4869  159.2628 H   0  0  0  0  0  0  0  0  0  0  0  0  # atno 6909 bound_to 6896
  145.8308  140.8481  143.0085 H   0  0  0  0  0  0  0  0  0  0  0  0  # atno 7974 bound_to 7965
  155.8957  140.3436  155.5989 H   0  0  0  0  0  0  0  0  0  0  0  0  # atno 8008 bound_to 7997
  155.7558  140.0826  157.2198 H   0  0  0  0  0  0  0  0  0  0  0  0  # atno 8009 bound_to 7997
  154.4038  140.1545  156.2764 H   0  0  0  0  0  0  0  0  0  0  0  0  # atno 8010 bound_to 7997
  139.8446  144.6624  150.9242 H   0  0  0  0  0  0  0  0  0  0  0  0  # atno 10167 bound_to 10162
  157.6397  131.0966  150.6882 H   0  0  0  0  0  0  0  0  0  0  0  0  # atno 10718 bound_to 10713
  153.1979  135.6852  153.8268 H   0  0  0  0  0  0  0  0  0  0  0  0  # atno 10763 bound_to 10752
  153.7544  135.3219  155.3328 H   0  0  0  0  0  0  0  0  0  0  0  0  # atno 10764 bound_to 10752
  154.8155  135.4688  154.0732 H   0  0  0  0  0  0  0  0  0  0  0  0  # atno 10765 bound_to 10752
  140.3268  134.7391  157.4105 H   0  0  0  0  0  0  0  0  0  0  0  0  # atno 11005 bound_to 11000
  144.6740  140.0669  143.7474 LP  0  0  0  0  0  0  0  0  0  0  0  0  # atno 17320 bound_to 7965
  145.9573  139.2776  143.1176 LP  0  0  0  0  0  0  0  0  0  0  0  0  # atno 17321 bound_to 7965
  140.7794  143.3882  151.1357 LP  0  0  0  0  0  0  0  0  0  0  0  0  # atno 17342 bound_to 10162
  139.7525  143.8757  152.3080 LP  0  0  0  0  0  0  0  0  0  0  0  0  # atno 17343 bound_to 10162
  156.7208  130.4680  149.5523 LP  0  0  0  0  0  0  0  0  0  0  0  0  # atno 17370 bound_to 10713
  156.1667  130.6410  151.0787 LP  0  0  0  0  0  0  0  0  0  0  0  0  # atno 17371 bound_to 10713
  140.0895  134.5621  155.8459 LP  0  0  0  0  0  0  0  0  0  0  0  0  # atno 17394 bound_to 11000
  141.2073  133.6663  156.6298 LP  0  0  0  0  0  0  0  0  0  0  0  0  # atno 17395 bound_to 11000

$$$$
