AV-unprocessed.smi:850|AV-procd|sdf|3948|dock10
  -GOLD-   22720 1423D 1   1.00000     0.00000
 Structure written by MMmdl.
 40 42  0  0  0  0  0  0  0  0  1 V2000
  152.1914  144.6977  161.8959 C   0  0  0  0  0  0  0  0  0  0  0  0
  152.4584  143.4958  161.1148 N   0  0  0  0  0  0  0  0  0  0  0  0
  153.1868  142.4203  161.4963 C   0  0  0  0  0  0  0  0  0  0  0  0
  153.7561  142.2774  162.5783 O   0  0  0  0  0  0  0  0  0  0  0  0
  153.1840  141.5299  160.4762 N   0  0  0  0  0  0  0  0  0  0  0  0
  153.8659  140.2378  160.4484 C   0  0  0  0  0  0  0  0  0  0  0  0
  155.3252  140.3538  160.9331 C   0  0  1  0  0  0  0  0  0  0  0  0
  155.4256  139.9943  162.2959 O   0  0  0  0  0  0  0  0  0  0  0  0
  156.2965  139.4644  160.1390 C   0  0  0  0  0  0  0  0  0  0  0  0
  156.8000  140.1808  159.0178 O   0  0  0  0  0  0  0  0  0  0  0  0
  158.0083  140.8314  159.1450 C   0  0  0  0  0  0  0  0  0  0  0  0
  158.3832  141.6936  158.0936 C   0  0  0  0  0  0  0  0  0  0  0  0
  159.5996  142.4016  158.1403 C   0  0  0  0  0  0  0  0  0  0  0  0
  160.4579  142.2527  159.2452 C   0  0  0  0  0  0  0  0  0  0  0  0
  160.0975  141.3941  160.3005 C   0  0  0  0  0  0  0  0  0  0  0  0
  158.8805  140.6863  160.2538 C   0  0  0  0  0  0  0  0  0  0  0  0
  152.4450  142.0576  159.4073 C   0  0  0  0  0  0  0  0  0  0  0  0
  152.1584  141.5374  158.1332 C   0  0  0  0  0  0  0  0  0  0  0  0
  151.3749  142.3389  157.2698 C   0  0  0  0  0  0  0  0  0  0  0  0
  150.9063  143.6127  157.6851 C   0  0  0  0  0  0  0  0  0  0  0  0
  151.2110  144.1124  158.9731 C   0  0  0  0  0  0  0  0  0  0  0  0
  151.9897  143.2950  159.8102 C   0  0  0  0  0  0  0  0  0  0  0  0
  152.5349  144.6010  162.9267 H   0  0  0  0  0  0  0  0  0  0  0  0
  151.1211  144.9038  161.9184 H   0  0  0  0  0  0  0  0  0  0  0  0
  152.6958  145.5548  161.4497 H   0  0  0  0  0  0  0  0  0  0  0  0
  153.3180  139.4935  161.0292 H   0  0  0  0  0  0  0  0  0  0  0  0
  153.8493  139.8786  159.4189 H   0  0  0  0  0  0  0  0  0  0  0  0
  155.6660  141.3859  160.8425 H   0  0  0  0  0  0  0  0  0  0  0  0
  156.3404  139.8951  162.5123 H   0  0  0  0  0  0  0  0  0  0  0  0
  157.1291  139.1914  160.7894 H   0  0  0  0  0  0  0  0  0  0  0  0
  155.8020  138.5422  159.8283 H   0  0  0  0  0  0  0  0  0  0  0  0
  157.7299  141.8136  157.2418 H   0  0  0  0  0  0  0  0  0  0  0  0
  159.8731  143.0587  157.3282 H   0  0  0  0  0  0  0  0  0  0  0  0
  161.3910  142.7954  159.2829 H   0  0  0  0  0  0  0  0  0  0  0  0
  160.7560  141.2777  161.1488 H   0  0  0  0  0  0  0  0  0  0  0  0
  158.6391  140.0378  161.0821 H   0  0  0  0  0  0  0  0  0  0  0  0
  152.5200  140.5686  157.8217 H   0  0  0  0  0  0  0  0  0  0  0  0
  151.1314  141.9773  156.2815 H   0  0  0  0  0  0  0  0  0  0  0  0
  150.3108  144.2083  157.0089 H   0  0  0  0  0  0  0  0  0  0  0  0
  150.8601  145.0815  159.2962 H   0  0  0  0  0  0  0  0  0  0  0  0
  1  2  1  0  0  0  0
  1 23  1  0  0  0  0
  1 24  1  0  0  0  0
  1 25  1  0  0  0  0
  2 22  1  0  0  0  0
  2  3  1  0  0  0  0
  3  4  2  0  0  0  0
  3  5  1  0  0  0  0
  5  6  1  0  0  0  0
  5 17  1  0  0  0  0
  6  7  1  0  0  0  0
  6 26  1  0  0  0  0
  6 27  1  0  0  0  0
  7  8  1  0  0  0  0
  7  9  1  0  0  0  0
  7 28  1  0  0  0  0
  8 29  1  0  0  0  0
  9 10  1  0  0  0  0
  9 30  1  0  0  0  0
  9 31  1  0  0  0  0
 10 11  1  0  0  0  0
 11 16  1  0  0  0  0
 11 12  2  0  0  0  0
 12 13  1  0  0  0  0
 12 32  1  0  0  0  0
 13 14  2  0  0  0  0
 13 33  1  0  0  0  0
 14 15  1  0  0  0  0
 14 34  1  0  0  0  0
 15 16  2  0  0  0  0
 15 35  1  0  0  0  0
 16 36  1  0  0  0  0
 17 22  2  0  0  0  0
 17 18  1  0  0  0  0
 18 19  2  0  0  0  0
 18 37  1  0  0  0  0
 19 20  1  0  0  0  0
 19 38  1  0  0  0  0
 20 21  2  0  0  0  0
 20 39  1  0  0  0  0
 21 22  1  0  0  0  0
 21 40  1  0  0  0  0
M  END
> <s_m_source_file>
AV-unprocessed.smi

> <i_m_source_file_index>
850

> <i_lp_mmshare_version>
43012

> <i_f3d_flags>
0

> <s_epik_input>
W2NIXTFbY0hdW2NIXVtjSF1jKGMxMiluKFtDSDNdKWMoPU8pbjJbQ0gyXVtDQEhdKFtPSF0pW0NIMl1PYzNbY0hdW2NIXVtjSF1bY0hdW2NIXTM=

> <s_epik_cmdline>
J2VwaWtfcHl0aG9uJywgJy1waCcsICc3LjAnLCAnLXRuJywgJzgnLCAnLW1hJywgJzIwMCcsICctbWV0YWxfYmluZGluZycsICctaW1hZScsICc8aW5maWxlLm1hZT4nLCAnLW9tYWUnLCAnPG91dGZpbGUubWFlPic=

> <r_lp_tautomer_probability>
1

> <r_epik_Ionization_Penalty>
2.40205e-06

> <r_epik_Ionization_Penalty_Charging>
2.75209e-09

> <r_epik_Ionization_Penalty_Neutral>
2.3993e-06

> <r_epik_State_Penalty>
-0

> <r_epik_Charging_Adjusted_Penalty>
2.75209e-09

> <i_epik_Tot_Q>
0

> <i_epik_Tot_abs_Q>
0

> <r_epik_Metal_State_Penalty>
-0

> <b_epik_Metal_Only>
0

> <s_lp_Force_Field>
OPLS_2005

> <r_lp_Energy>
47.9965

> <b_lp_Chiralities_Consistent>
1

> <s_lp_Variant>
AV-unprocessed.smi:850-2

> <Gold.Version>
5.8.1

> <Gold.Id.Protein>
6NUR|6NUR_protein|mol2

> <Gold.PLP.Fitness>
49.0945

> <Gold.PLP.PLP>
-48.7719

> <Gold.PLP.part.hbond>
-1.5868

> <Gold.PLP.part.metal>
0.0000

> <Gold.PLP.part.buried>
0.0759

> <Gold.PLP.part.nonpolar>
-46.4791

> <Gold.PLP.part.repulsive>
0.0937

> <Gold.PLP.ligand.clash>
0.0000

> <Gold.PLP.ligand.torsion>
1.3537

> <Gold.PLP.Chemscore.Hbond>
1.0000

> <Gold.PLP.Chemscore.CHOScore>
0.0000

> <Gold.PLP.Chemscore.Metal>
0.0000

> <Gold.Chemscore.Hbonds>
donor molecule, donor type, donor heavy atom, donor atom, acceptor molecule, acceptor atom, score
      P1  H  7997  8009       L1    10  1.00

> <Gold.PLP.Chemscore.Internal.Correction>
0.0299

> <Gold.Rescore>
     Score         DG    S(hbond)    S(metal)    S(lipo)     H(rot)  DE(clash)    DE(int)     intcor
     16.76     -19.83       0.94        0.00     142.29       2.12       0.58       2.49       ----

> <Gold.Chemscore.Fitness>
16.7645

> <Gold.Chemscore.DG>
-19.8309

> <Gold.Chemscore.ZeroCoef>
-5.4800

> <Gold.Chemscore.Hbond>
0.9358

> <Gold.Chemscore.Metal>
0.0000

> <Gold.Chemscore.Lipo>
142.2948

> <Gold.Chemscore.Internal_Hbond>
0.0000

> <Gold.Chemscore.DEClash>
0.5788

> <Gold.Chemscore.DEInternal>
2.4876

> <Gold.Chemscore.Rot>
2.1184

> <Gold.Chemscore.Internal.Correction>
   9.000000E+99

> <Gold.Chemscore.Hbonds>
donor molecule, donor type, donor heavy atom, donor atom, acceptor molecule, acceptor atom, score
      P1  H  7997  8009       L1    10  0.88

> <Gold.Chemscore.Hbond.Weighted>
-3.1256

> <Gold.Chemscore.Metal.Weighted>
-0.0000

> <Gold.Chemscore.Lipo.Weighted>
-16.6485

> <Gold.Chemscore.Internal_Hbond.Weighted>
0.0000

> <Gold.Chemscore.DEClash.Weighted>
0.5788

> <Gold.Chemscore.DEInternal.Weighted>
2.4876

> <Gold.Chemscore.Rot.Weighted>
5.4231

> <Gold.Chemscore.Internal.Correction.Weighted>
   9.000000E+99

> <Gold.Protein.RotatedTorsions>
[ 6907 6896 6895 6894 ] final  134.57 input  -60.11 | X-H torsion
[ 7974 7965 7964 7962 ] final  -70.39 input  175.53 | X-H torsion
[ 8008 7997 7996 7995 ] final   79.21 input   59.86 | X-H torsion
[ 10167 10162 10161 10158 ] final  135.07 input  -65.29 | X-H torsion
[ 10718 10713 10712 10709 ] final -126.56 input   66.30 | X-H torsion
[ 10763 10752 10751 10750 ] final  -58.58 input  -60.55 | X-H torsion
[ 11005 11000 10999 10996 ] final   67.37 input  -57.11 | X-H torsion

> <Gold.Protein.ActiveResidues>
 VAL166  LYS551  ARG553  GLY616  TRP617  ASP618  TYR619  PRO620  LYS621  CYS622 
 ASP623  PHE694  ASN695  SER759  ASP760  ASP761  ALA762  ILE779  LEU786  VAL792 
 PHE793  MET794  SER795  GLU796  ALA797  LYS798  CYS799  TRP800  GLU811  SER814 

> <Gold.Protein.RotatedAtoms>
  152.3099  133.5741  159.5673 H   0  0  0  0  0  0  0  0  0  0  0  0  # atno 6907 bound_to 6896
  150.7317  134.0168  159.3697 H   0  0  0  0  0  0  0  0  0  0  0  0  # atno 6908 bound_to 6896
  151.8062  135.0695  160.0458 H   0  0  0  0  0  0  0  0  0  0  0  0  # atno 6909 bound_to 6896
  145.6915  140.9151  143.0779 H   0  0  0  0  0  0  0  0  0  0  0  0  # atno 7974 bound_to 7965
  155.8665  140.3451  155.5792 H   0  0  0  0  0  0  0  0  0  0  0  0  # atno 8008 bound_to 7997
  155.7875  140.0867  157.2046 H   0  0  0  0  0  0  0  0  0  0  0  0  # atno 8009 bound_to 7997
  154.4015  140.1489  156.3111 H   0  0  0  0  0  0  0  0  0  0  0  0  # atno 8010 bound_to 7997
  139.5231  144.6535  151.5231 H   0  0  0  0  0  0  0  0  0  0  0  0  # atno 10167 bound_to 10162
  156.1776  130.6710  151.0262 H   0  0  0  0  0  0  0  0  0  0  0  0  # atno 10718 bound_to 10713
  154.2404  135.6344  153.5205 H   0  0  0  0  0  0  0  0  0  0  0  0  # atno 10763 bound_to 10752
  152.9931  135.5540  154.5917 H   0  0  0  0  0  0  0  0  0  0  0  0  # atno 10764 bound_to 10752
  154.5421  135.2895  155.1061 H   0  0  0  0  0  0  0  0  0  0  0  0  # atno 10765 bound_to 10752
  139.9775  134.6798  156.0326 H   0  0  0  0  0  0  0  0  0  0  0  0  # atno 11005 bound_to 11000
  144.6995  139.8828  143.7448 LP  0  0  0  0  0  0  0  0  0  0  0  0  # atno 17320 bound_to 7965
  146.0877  139.3866  143.0425 LP  0  0  0  0  0  0  0  0  0  0  0  0  # atno 17321 bound_to 7965
  140.6351  143.9001  150.6640 LP  0  0  0  0  0  0  0  0  0  0  0  0  # atno 17342 bound_to 10162
  140.2317  143.3730  152.1560 LP  0  0  0  0  0  0  0  0  0  0  0  0  # atno 17343 bound_to 10162
  157.6846  131.0828  150.7277 LP  0  0  0  0  0  0  0  0  0  0  0  0  # atno 17370 bound_to 10713
  156.7335  130.4717  149.5494 LP  0  0  0  0  0  0  0  0  0  0  0  0  # atno 17371 bound_to 10713
  141.1451  133.6557  156.3842 LP  0  0  0  0  0  0  0  0  0  0  0  0  # atno 17394 bound_to 11000
  140.5165  134.6346  157.5303 LP  0  0  0  0  0  0  0  0  0  0  0  0  # atno 17395 bound_to 11000

$$$$
