AV-unprocessed.smi:2272|AV-procd|sdf|9162|dock8
  -GOLD-   2272012373D 1   1.00000     0.00000
 Structure written by MMmdl.
 41 42  0  0  0  0  0  0  0  0  1 V2000
  154.0886  137.3172  156.8846 C   0  0  0  0  0  0  0  0  0  0  0  0
  152.7810  138.0646  156.6911 C   0  0  0  0  0  0  0  0  0  0  0  0
  151.9318  138.0932  157.8005 N   0  0  0  0  0  0  0  0  0  0  0  0
  150.8036  138.7202  157.7319 C   0  0  0  0  0  0  0  0  0  0  0  0
  150.3970  139.3874  156.5640 N   0  0  0  0  0  0  0  0  0  0  0  0
  149.0979  140.0806  156.6357 C   0  0  0  0  0  0  0  0  0  0  0  0
  149.2484  141.6177  156.6997 C   0  0  2  0  0  0  0  0  0  0  0  0
  148.5566  142.2216  155.6274 O   0  0  0  0  0  0  0  0  0  0  0  0
  150.6949  142.1409  156.7242 C   0  0  0  0  0  0  0  0  0  0  0  0
  151.0130  142.6505  158.0122 O   0  0  0  0  0  0  0  0  0  0  0  0
  152.3981  142.6014  158.3274 C   0  0  0  0  0  0  0  0  0  0  0  0
  152.6723  142.6012  159.8225 C   0  0  0  0  0  0  0  0  0  0  0  0
  153.3070  141.4940  160.4248 C   0  0  0  0  0  0  0  0  0  0  0  0
  153.5666  141.4907  161.8089 C   0  0  0  0  0  0  0  0  0  0  0  0
  153.1861  142.5919  162.5992 C   0  0  0  0  0  0  0  0  0  0  0  0
  152.5470  143.6964  162.0041 C   0  0  0  0  0  0  0  0  0  0  0  0
  152.2896  143.7029  160.6193 C   0  0  0  0  0  0  0  0  0  0  0  0
  151.6770  144.7736  160.0593 F   0  0  0  0  0  0  0  0  0  0  0  0
  151.1547  139.3868  155.4288 C   0  0  0  0  0  0  0  0  0  0  0  0
  150.7807  139.9488  154.3989 O   0  0  0  0  0  0  0  0  0  0  0  0
  152.4394  138.6745  155.5235 C   0  0  0  0  0  0  0  0  0  0  0  0
  153.3279  138.6798  154.2861 C   0  0  0  0  0  0  0  0  0  0  0  0
  154.9376  137.9742  156.6931 H   0  0  0  0  0  0  0  0  0  0  0  0
  154.1455  136.4660  156.2056 H   0  0  0  0  0  0  0  0  0  0  0  0
  154.1829  136.9387  157.9034 H   0  0  0  0  0  0  0  0  0  0  0  0
  150.1045  138.7744  158.5688 H   0  0  0  0  0  0  0  0  0  0  0  0
  148.4457  139.8046  155.8054 H   0  0  0  0  0  0  0  0  0  0  0  0
  148.5631  139.7347  157.5228 H   0  0  0  0  0  0  0  0  0  0  0  0
  148.7510  141.9807  157.5996 H   0  0  0  0  0  0  0  0  0  0  0  0
  148.4840  143.1474  155.8045 H   0  0  0  0  0  0  0  0  0  0  0  0
  151.3876  141.3460  156.4427 H   0  0  0  0  0  0  0  0  0  0  0  0
  150.8003  142.9323  155.9819 H   0  0  0  0  0  0  0  0  0  0  0  0
  152.8032  141.6837  157.9008 H   0  0  0  0  0  0  0  0  0  0  0  0
  152.9365  143.4168  157.8412 H   0  0  0  0  0  0  0  0  0  0  0  0
  153.6016  140.6459  159.8241 H   0  0  0  0  0  0  0  0  0  0  0  0
  154.0576  140.6432  162.2642 H   0  0  0  0  0  0  0  0  0  0  0  0
  153.3855  142.5908  163.6606 H   0  0  0  0  0  0  0  0  0  0  0  0
  152.2571  144.5424  162.6096 H   0  0  0  0  0  0  0  0  0  0  0  0
  153.6659  139.6939  154.0757 H   0  0  0  0  0  0  0  0  0  0  0  0
  152.7747  138.3190  153.4182 H   0  0  0  0  0  0  0  0  0  0  0  0
  154.2117  138.0526  154.3896 H   0  0  0  0  0  0  0  0  0  0  0  0
  1  2  1  0  0  0  0
  1 23  1  0  0  0  0
  1 24  1  0  0  0  0
  1 25  1  0  0  0  0
  2 21  2  0  0  0  0
  2  3  1  0  0  0  0
  3  4  2  0  0  0  0
  4  5  1  0  0  0  0
  4 26  1  0  0  0  0
  5  6  1  0  0  0  0
  5 19  1  0  0  0  0
  6  7  1  0  0  0  0
  6 27  1  0  0  0  0
  6 28  1  0  0  0  0
  7  8  1  0  0  0  0
  7  9  1  0  0  0  0
  7 29  1  0  0  0  0
  8 30  1  0  0  0  0
  9 10  1  0  0  0  0
  9 31  1  0  0  0  0
  9 32  1  0  0  0  0
 10 11  1  0  0  0  0
 11 12  1  0  0  0  0
 11 33  1  0  0  0  0
 11 34  1  0  0  0  0
 12 17  1  0  0  0  0
 12 13  2  0  0  0  0
 13 14  1  0  0  0  0
 13 35  1  0  0  0  0
 14 15  2  0  0  0  0
 14 36  1  0  0  0  0
 15 16  1  0  0  0  0
 15 37  1  0  0  0  0
 16 17  2  0  0  0  0
 16 38  1  0  0  0  0
 17 18  1  0  0  0  0
 19 20  2  0  0  0  0
 19 21  1  0  0  0  0
 21 22  1  0  0  0  0
 22 39  1  0  0  0  0
 22 40  1  0  0  0  0
 22 41  1  0  0  0  0
M  END
> <s_m_source_file>
AV-unprocessed.smi

> <i_m_source_file_index>
2272

> <i_lp_mmshare_version>
43012

> <i_f3d_flags>
0

> <s_epik_input>
W0NIM11jMW5bY0hdbihjKD1PKWMxW0NIM10pW0NIMl1bQ0BIXShbT0hdKVtDSDJdT1tDSDJdYzJbY0hdW2NIXVtjSF1bY0hdYzJG

> <s_epik_cmdline>
J2VwaWtfcHl0aG9uJywgJy1waCcsICc3LjAnLCAnLXRuJywgJzgnLCAnLW1hJywgJzIwMCcsICctbWV0YWxfYmluZGluZycsICctaW1hZScsICc8aW5maWxlLm1hZT4nLCAnLW9tYWUnLCAnPG91dGZpbGUubWFlPic=

> <r_lp_tautomer_probability>
1

> <r_epik_Ionization_Penalty>
5.35985e-05

> <r_epik_Ionization_Penalty_Charging>
1.17753e-07

> <r_epik_Ionization_Penalty_Neutral>
5.34808e-05

> <r_epik_State_Penalty>
-0

> <r_epik_Charging_Adjusted_Penalty>
1.17753e-07

> <i_epik_Tot_Q>
0

> <i_epik_Tot_abs_Q>
0

> <r_epik_Metal_State_Penalty>
-0

> <b_epik_Metal_Only>
0

> <s_lp_Force_Field>
OPLS_2005

> <r_lp_Energy>
20.6286

> <b_lp_Chiralities_Consistent>
1

> <s_lp_Variant>
AV-unprocessed.smi:2272-1

> <Gold.Version>
5.8.1

> <Gold.Id.Protein>
6NUR|6NUR_protein|mol2

> <Gold.PLP.Fitness>
50.7614

> <Gold.PLP.PLP>
-48.4107

> <Gold.PLP.part.hbond>
-2.0000

> <Gold.PLP.part.metal>
0.0000

> <Gold.PLP.part.buried>
-6.5709

> <Gold.PLP.part.nonpolar>
-37.9809

> <Gold.PLP.part.repulsive>
0.1932

> <Gold.PLP.ligand.clash>
0.0000

> <Gold.PLP.ligand.torsion>
1.8900

> <Gold.PLP.Chemscore.Hbond>
2.0000

> <Gold.PLP.Chemscore.CHOScore>
0.0000

> <Gold.PLP.Chemscore.Metal>
0.0000

> <Gold.Chemscore.Hbonds>
donor molecule, donor type, donor heavy atom, donor atom, acceptor molecule, acceptor atom, score
      L1  H     8    30       P1  8028  1.00
      P1  H  7989  7998       L1    20  1.00

> <Gold.PLP.Chemscore.Internal.Correction>
0.1306

> <Gold.Rescore>
     Score         DG    S(hbond)    S(metal)    S(lipo)     H(rot)  DE(clash)    DE(int)     intcor
     17.61     -19.64       2.00        0.00     122.70       2.69       0.08       1.95       ----

> <Gold.Chemscore.Fitness>
17.6078

> <Gold.Chemscore.DG>
-19.6363

> <Gold.Chemscore.ZeroCoef>
-5.4800

> <Gold.Chemscore.Hbond>
1.9988

> <Gold.Chemscore.Metal>
0.0000

> <Gold.Chemscore.Lipo>
122.6999

> <Gold.Chemscore.Internal_Hbond>
0.0000

> <Gold.Chemscore.DEClash>
0.0783

> <Gold.Chemscore.DEInternal>
1.9502

> <Gold.Chemscore.Rot>
2.6857

> <Gold.Chemscore.Internal.Correction>
   9.000000E+99

> <Gold.Chemscore.Hbonds>
donor molecule, donor type, donor heavy atom, donor atom, acceptor molecule, acceptor atom, score
      L1  H     8    30       P1  8028  0.95
      P1  H  7989  7998       L1    20  0.94

> <Gold.Chemscore.Hbond.Weighted>
-6.6759

> <Gold.Chemscore.Metal.Weighted>
-0.0000

> <Gold.Chemscore.Lipo.Weighted>
-14.3559

> <Gold.Chemscore.Internal_Hbond.Weighted>
0.0000

> <Gold.Chemscore.DEClash.Weighted>
0.0783

> <Gold.Chemscore.DEInternal.Weighted>
1.9502

> <Gold.Chemscore.Rot.Weighted>
6.8755

> <Gold.Chemscore.Internal.Correction.Weighted>
   9.000000E+99

> <Gold.Protein.RotatedTorsions>
[ 6907 6896 6895 6894 ] final  113.24 input  -60.11 | X-H torsion
[ 7974 7965 7964 7962 ] final  -42.63 input  175.53 | X-H torsion
[ 8008 7997 7996 7995 ] final  115.83 input   59.86 | X-H torsion
[ 10167 10162 10161 10158 ] final  143.94 input  -65.29 | X-H torsion
[ 10718 10713 10712 10709 ] final  -29.18 input   66.30 | X-H torsion
[ 10763 10752 10751 10750 ] final   67.35 input  -60.55 | X-H torsion
[ 11005 11000 10999 10996 ] final -103.72 input  -57.11 | X-H torsion

> <Gold.Protein.ActiveResidues>
 VAL166  LYS551  ARG553  GLY616  TRP617  ASP618  TYR619  PRO620  LYS621  CYS622 
 ASP623  PHE694  ASN695  SER759  ASP760  ASP761  ALA762  ILE779  LEU786  VAL792 
 PHE793  MET794  SER795  GLU796  ALA797  LYS798  CYS799  TRP800  GLU811  SER814 

> <Gold.Protein.RotatedAtoms>
  152.4872  133.8403  159.7148 H   0  0  0  0  0  0  0  0  0  0  0  0  # atno 6907 bound_to 6896
  150.8968  133.7161  159.2896 H   0  0  0  0  0  0  0  0  0  0  0  0  # atno 6908 bound_to 6896
  151.4616  135.1042  159.9778 H   0  0  0  0  0  0  0  0  0  0  0  0  # atno 6909 bound_to 6896
  146.0097  140.6978  142.9230 H   0  0  0  0  0  0  0  0  0  0  0  0  # atno 7974 bound_to 7965
  156.2404  140.2930  156.0429 H   0  0  0  0  0  0  0  0  0  0  0  0  # atno 8008 bound_to 7997
  155.1967  140.0408  157.2927 H   0  0  0  0  0  0  0  0  0  0  0  0  # atno 8009 bound_to 7997
  154.6158  140.2463  155.7618 H   0  0  0  0  0  0  0  0  0  0  0  0  # atno 8010 bound_to 7997
  139.4958  144.6006  151.6489 H   0  0  0  0  0  0  0  0  0  0  0  0  # atno 10167 bound_to 10162
  156.4158  130.4417  149.7219 H   0  0  0  0  0  0  0  0  0  0  0  0  # atno 10718 bound_to 10713
  153.0182  135.5287  154.6966 H   0  0  0  0  0  0  0  0  0  0  0  0  # atno 10763 bound_to 10752
  154.6086  135.2876  155.0459 H   0  0  0  0  0  0  0  0  0  0  0  0  # atno 10764 bound_to 10752
  154.1489  135.6566  153.5011 H   0  0  0  0  0  0  0  0  0  0  0  0  # atno 10765 bound_to 10752
  141.1133  133.8663  157.1521 H   0  0  0  0  0  0  0  0  0  0  0  0  # atno 11005 bound_to 11000
  144.6948  140.3378  143.7204 LP  0  0  0  0  0  0  0  0  0  0  0  0  # atno 17320 bound_to 7965
  145.7360  139.1750  143.2403 LP  0  0  0  0  0  0  0  0  0  0  0  0  # atno 17321 bound_to 7965
  140.5655  144.0197  150.6190 LP  0  0  0  0  0  0  0  0  0  0  0  0  # atno 17342 bound_to 10162
  140.3297  143.3085  152.0699 LP  0  0  0  0  0  0  0  0  0  0  0  0  # atno 17343 bound_to 10162
  156.4180  130.7754  151.2770 LP  0  0  0  0  0  0  0  0  0  0  0  0  # atno 17370 bound_to 10713
  157.7508  131.0191  150.3655 LP  0  0  0  0  0  0  0  0  0  0  0  0  # atno 17371 bound_to 10713
  140.0040  135.0016  157.0251 LP  0  0  0  0  0  0  0  0  0  0  0  0  # atno 17394 bound_to 11000
  140.4715  134.1381  155.7204 LP  0  0  0  0  0  0  0  0  0  0  0  0  # atno 17395 bound_to 11000

$$$$
