AV-unprocessed.smi:2761|AV-procd|sdf|10632|dock4
  -GOLD-   2272015 83D 1   1.00000     0.00000
 Structure written by MMmdl.
 27 28  0  0  0  0  0  0  0  0  1 V2000
  152.4816  140.9653  159.2049 O   0  0  0  0  0  0  0  0  0  0  0  0
  151.7873  141.7136  158.5136 C   0  0  0  0  0  0  0  0  0  0  0  0
  151.3869  141.4488  157.2503 N   0  0  0  0  0  0  0  0  0  0  0  0
  151.6407  140.3093  156.4789 C   0  0  0  0  0  0  0  0  0  0  0  0
  150.6379  140.1260  155.4572 C   0  0  0  0  0  0  0  0  0  0  0  0
  150.7636  139.0584  154.6396 C   0  0  0  0  0  0  0  0  0  0  0  0
  151.8778  138.1225  154.7862 C   0  0  0  0  0  0  0  0  0  0  0  0
  152.0557  137.1327  154.0804 O   0  0  0  0  0  0  0  0  0  0  0  0
  152.7247  138.4491  155.7980 N   0  0  0  0  0  0  0  0  0  0  0  0
  152.6605  139.5250  156.6758 N   0  0  0  0  0  0  0  0  0  0  0  0
  151.3397  143.0700  159.0815 C   0  0  2  0  0  0  0  0  0  0  0  0
  151.7711  144.2612  158.1947 C   0  0  0  0  0  0  0  0  0  0  0  0
  151.3552  145.4770  158.8032 O   0  0  0  0  0  0  0  0  0  0  0  0
  151.9307  145.6356  160.0921 C   0  0  0  0  0  0  0  0  0  0  0  0
  151.4908  144.4615  160.9806 C   0  0  0  0  0  0  0  0  0  0  0  0
  151.9091  143.2442  160.3780 O   0  0  0  0  0  0  0  0  0  0  0  0
  150.8262  142.1705  156.8215 H   0  0  0  0  0  0  0  0  0  0  0  0
  149.8019  140.7967  155.3199 H   0  0  0  0  0  0  0  0  0  0  0  0
  150.0309  138.8907  153.8641 H   0  0  0  0  0  0  0  0  0  0  0  0
  153.5203  137.8489  155.9618 H   0  0  0  0  0  0  0  0  0  0  0  0
  150.2518  143.0483  159.1661 H   0  0  0  0  0  0  0  0  0  0  0  0
  152.8521  144.2704  158.0433 H   0  0  0  0  0  0  0  0  0  0  0  0
  151.3088  144.1984  157.2089 H   0  0  0  0  0  0  0  0  0  0  0  0
  153.0183  145.6826  160.0180 H   0  0  0  0  0  0  0  0  0  0  0  0
  151.5951  146.5810  160.5186 H   0  0  0  0  0  0  0  0  0  0  0  0
  151.9432  144.5436  161.9690 H   0  0  0  0  0  0  0  0  0  0  0  0
  150.4088  144.4615  161.1202 H   0  0  0  0  0  0  0  0  0  0  0  0
  1  2  2  0  0  0  0
  2  3  1  0  0  0  0
  2 11  1  0  0  0  0
  3 17  1  0  0  0  0
  3  4  1  0  0  0  0
  4  5  1  0  0  0  0
  4 10  2  0  0  0  0
  5  6  2  0  0  0  0
  5 18  1  0  0  0  0
  6  7  1  0  0  0  0
  6 19  1  0  0  0  0
  7  8  2  0  0  0  0
  7  9  1  0  0  0  0
  9 10  1  0  0  0  0
  9 20  1  0  0  0  0
 11 16  1  0  0  0  0
 11 12  1  0  0  0  0
 11 21  1  0  0  0  0
 12 13  1  0  0  0  0
 12 22  1  0  0  0  0
 12 23  1  0  0  0  0
 13 14  1  0  0  0  0
 14 15  1  0  0  0  0
 14 24  1  0  0  0  0
 14 25  1  0  0  0  0
 15 16  1  0  0  0  0
 15 26  1  0  0  0  0
 15 27  1  0  0  0  0
M  END
> <s_m_source_file>
AV-unprocessed.smi

> <i_m_source_file_index>
2761

> <i_lp_mmshare_version>
43012

> <i_f3d_flags>
0

> <s_epik_input>
TzFbQ0gyXVtDSDJdT1tDSDJdW0NASF0xQyg9TylbTkhdYzJbY0hdW2NIXWMoW09IXSlubjI=

> <s_epik_cmdline>
J2VwaWtfcHl0aG9uJywgJy1waCcsICc3LjAnLCAnLXRuJywgJzgnLCAnLW1hJywgJzIwMCcsICctbWV0YWxfYmluZGluZycsICctaW1hZScsICc8aW5maWxlLm1hZT4nLCAnLW9tYWUnLCAnPG91dGZpbGUubWFlPic=

> <r_lp_tautomer_probability>
1

> <r_epik_Ionization_Penalty>
0.000593199

> <r_epik_Ionization_Penalty_Charging>
0.000590119

> <r_epik_Ionization_Penalty_Neutral>
3.08036e-06

> <r_epik_State_Penalty>
-0

> <r_epik_Charging_Adjusted_Penalty>
0.000590119

> <i_epik_Tot_Q>
0

> <i_epik_Tot_abs_Q>
0

> <r_epik_Metal_State_Penalty>
0.240077

> <b_epik_Metal_Only>
0

> <s_lp_Force_Field>
OPLS_2005

> <r_lp_Energy>
26.3482

> <b_lp_Chiralities_Consistent>
1

> <s_lp_Variant>
AV-unprocessed.smi:2761-1

> <Gold.Version>
5.8.1

> <Gold.Id.Protein>
6NUR|6NUR_protein|mol2

> <Gold.PLP.Fitness>
37.0092

> <Gold.PLP.PLP>
-31.4358

> <Gold.PLP.part.hbond>
-2.9263

> <Gold.PLP.part.metal>
0.0000

> <Gold.PLP.part.buried>
-4.6455

> <Gold.PLP.part.nonpolar>
-25.9176

> <Gold.PLP.part.repulsive>
1.8544

> <Gold.PLP.ligand.clash>
0.0000

> <Gold.PLP.ligand.torsion>
0.1540

> <Gold.PLP.Chemscore.Hbond>
1.9600

> <Gold.PLP.Chemscore.CHOScore>
0.0000

> <Gold.PLP.Chemscore.Metal>
0.0000

> <Gold.Chemscore.Hbonds>
donor molecule, donor type, donor heavy atom, donor atom, acceptor molecule, acceptor atom, score
      P1  H  7997  8008       L1    10  1.00
      P1  H 10752 10764       L1     8  0.96

> <Gold.PLP.Chemscore.Internal.Correction>
0.0015

> <Gold.Rescore>
     Score         DG    S(hbond)    S(metal)    S(lipo)     H(rot)  DE(clash)    DE(int)     intcor
     13.42     -15.52       1.68        0.00      59.63       1.00       0.72       1.38       ----

> <Gold.Chemscore.Fitness>
13.4206

> <Gold.Chemscore.DG>
-15.5222

> <Gold.Chemscore.ZeroCoef>
-5.4800

> <Gold.Chemscore.Hbond>
1.6844

> <Gold.Chemscore.Metal>
0.0000

> <Gold.Chemscore.Lipo>
59.6257

> <Gold.Chemscore.Internal_Hbond>
0.0000

> <Gold.Chemscore.DEClash>
0.7205

> <Gold.Chemscore.DEInternal>
1.3812

> <Gold.Chemscore.Rot>
1.0000

> <Gold.Chemscore.Internal.Correction>
   9.000000E+99

> <Gold.Chemscore.Hbonds>
donor molecule, donor type, donor heavy atom, donor atom, acceptor molecule, acceptor atom, score
      P1  H  7997  8008       L1    10  0.34
      P1  H 10752 10764       L1     8  0.92

> <Gold.Chemscore.Hbond.Weighted>
-5.6260

> <Gold.Chemscore.Metal.Weighted>
-0.0000

> <Gold.Chemscore.Lipo.Weighted>
-6.9762

> <Gold.Chemscore.Internal_Hbond.Weighted>
0.0000

> <Gold.Chemscore.DEClash.Weighted>
0.7205

> <Gold.Chemscore.DEInternal.Weighted>
1.3812

> <Gold.Chemscore.Rot.Weighted>
2.5600

> <Gold.Chemscore.Internal.Correction.Weighted>
   9.000000E+99

> <Gold.Protein.RotatedTorsions>
[ 6907 6896 6895 6894 ] final  -94.30 input  -60.11 | X-H torsion
[ 7974 7965 7964 7962 ] final  103.16 input  175.53 | X-H torsion
[ 8008 7997 7996 7995 ] final  -70.64 input   59.86 | X-H torsion
[ 10167 10162 10161 10158 ] final -114.71 input  -65.29 | X-H torsion
[ 10718 10713 10712 10709 ] final   -3.98 input   66.30 | X-H torsion
[ 10763 10752 10751 10750 ] final  -95.38 input  -60.55 | X-H torsion
[ 11005 11000 10999 10996 ] final  -88.70 input  -57.11 | X-H torsion

> <Gold.Protein.ActiveResidues>
 VAL166  LYS551  ARG553  GLY616  TRP617  ASP618  TYR619  PRO620  LYS621  CYS622 
 ASP623  PHE694  ASN695  SER759  ASP760  ASP761  ALA762  ILE779  LEU786  VAL792 
 PHE793  MET794  SER795  GLU796  ALA797  LYS798  CYS799  TRP800  GLU811  SER814 

> <Gold.Protein.RotatedAtoms>
  150.6939  134.1833  159.4256 H   0  0  0  0  0  0  0  0  0  0  0  0  # atno 6907 bound_to 6896
  151.9807  135.0027  160.0566 H   0  0  0  0  0  0  0  0  0  0  0  0  # atno 6908 bound_to 6896
  152.1758  133.4639  159.4969 H   0  0  0  0  0  0  0  0  0  0  0  0  # atno 6909 bound_to 6896
  145.3496  139.2442  143.3565 H   0  0  0  0  0  0  0  0  0  0  0  0  # atno 7974 bound_to 7965
  154.5027  140.0830  156.7830 H   0  0  0  0  0  0  0  0  0  0  0  0  # atno 8008 bound_to 7997
  155.3966  140.3435  155.4236 H   0  0  0  0  0  0  0  0  0  0  0  0  # atno 8009 bound_to 7997
  156.1476  140.1548  156.8809 H   0  0  0  0  0  0  0  0  0  0  0  0  # atno 8010 bound_to 7997
  140.0980  143.4638  152.1829 H   0  0  0  0  0  0  0  0  0  0  0  0  # atno 10167 bound_to 10162
  156.7680  130.5291  149.5772 H   0  0  0  0  0  0  0  0  0  0  0  0  # atno 10718 bound_to 10713
  154.7143  135.5123  153.8714 H   0  0  0  0  0  0  0  0  0  0  0  0  # atno 10763 bound_to 10752
  153.0807  135.6630  154.0060 H   0  0  0  0  0  0  0  0  0  0  0  0  # atno 10764 bound_to 10752
  153.9896  135.3021  155.3392 H   0  0  0  0  0  0  0  0  0  0  0  0  # atno 10765 bound_to 10752
  141.1597  133.7585  156.9488 H   0  0  0  0  0  0  0  0  0  0  0  0  # atno 11005 bound_to 11000
  146.2973  140.4109  142.8717 LP  0  0  0  0  0  0  0  0  0  0  0  0  # atno 17320 bound_to 7965
  144.8728  140.7295  143.6036 LP  0  0  0  0  0  0  0  0  0  0  0  0  # atno 17321 bound_to 7965
  139.5687  144.7450  151.3951 LP  0  0  0  0  0  0  0  0  0  0  0  0  # atno 17342 bound_to 10162
  140.6993  143.7672  150.7377 LP  0  0  0  0  0  0  0  0  0  0  0  0  # atno 17343 bound_to 10162
  156.1296  130.6168  151.0314 LP  0  0  0  0  0  0  0  0  0  0  0  0  # atno 17370 bound_to 10713
  157.6704  131.0862  150.7626 LP  0  0  0  0  0  0  0  0  0  0  0  0  # atno 17371 bound_to 10713
  140.1271  134.9380  157.2285 LP  0  0  0  0  0  0  0  0  0  0  0  0  # atno 17394 bound_to 11000
  140.2999  134.3143  155.7292 LP  0  0  0  0  0  0  0  0  0  0  0  0  # atno 17395 bound_to 11000

$$$$
