AV-unprocessed.smi:1669|AV-procd|sdf|6692|dock5
  -GOLD-   22720 7423D 1   1.00000     0.00000
 Structure written by MMmdl.
 49 51  0  0  0  0  0  0  0  0  3 V2000
  148.4117  137.6455  154.3598 C   0  0  0  0  0  0  0  0  0  0  0  0
  149.6672  136.8584  154.3504 N   0  3  2  0  0  0  0  0  0  0  0  0
  149.5631  135.6069  155.1443 C   0  0  0  0  0  0  0  0  0  0  0  0
  149.2073  134.4147  154.2750 C   0  0  0  0  0  0  0  0  0  0  0  0
  147.9943  134.4076  153.5539 C   0  0  0  0  0  0  0  0  0  0  0  0
  147.6576  133.3036  152.7467 C   0  0  0  0  0  0  0  0  0  0  0  0
  148.5326  132.2040  152.6563 C   0  0  0  0  0  0  0  0  0  0  0  0
  149.7451  132.2085  153.3725 C   0  0  0  0  0  0  0  0  0  0  0  0
  150.0831  133.3123  154.1795 C   0  0  0  0  0  0  0  0  0  0  0  0
  150.8463  137.6832  154.7180 C   0  0  0  0  0  0  0  0  0  0  0  0
  150.5677  138.5912  155.9325 C   0  0  1  0  0  0  0  0  0  0  0  0
  150.3449  137.7752  157.0659 O   0  0  0  0  0  0  0  0  0  0  0  0
  151.7460  139.5447  156.2134 C   0  0  0  0  0  0  0  0  0  0  0  0
  151.3142  140.9105  156.5494 N   0  0  0  0  0  0  0  0  0  0  0  0
  150.4470  141.7473  155.9085 C   0  0  0  0  0  0  0  0  0  0  0  0
  149.6946  141.4573  154.6484 C   0  0  0  0  0  0  0  0  0  0  0  0
  148.9258  142.5512  154.1946 O   0  0  0  0  0  0  0  0  0  0  0  0
  150.3928  142.9005  156.6352 N   0  3  0  0  0  0  0  0  0  0  0  0
  151.2248  142.7991  157.7503 C   0  0  0  0  0  0  0  0  0  0  0  0
  151.4959  143.7046  158.7714 C   0  0  0  0  0  0  0  0  0  0  0  0
  152.3986  143.2814  159.7690 C   0  0  0  0  0  0  0  0  0  0  0  0
  152.9927  142.0031  159.7273 C   0  0  0  0  0  0  0  0  0  0  0  0
  152.7108  141.0939  158.6860 C   0  0  0  0  0  0  0  0  0  0  0  0
  151.8179  141.5211  157.7036 C   0  0  0  0  0  0  0  0  0  0  0  0
  148.1798  137.9991  155.3653 H   0  0  0  0  0  0  0  0  0  0  0  0
  147.5701  137.0525  154.0024 H   0  0  0  0  0  0  0  0  0  0  0  0
  148.4951  138.5126  153.7036 H   0  0  0  0  0  0  0  0  0  0  0  0
  150.5097  135.3812  155.6353 H   0  0  0  0  0  0  0  0  0  0  0  0
  148.8308  135.7303  155.9439 H   0  0  0  0  0  0  0  0  0  0  0  0
  147.3180  135.2476  153.6196 H   0  0  0  0  0  0  0  0  0  0  0  0
  146.7282  133.2998  152.1962 H   0  0  0  0  0  0  0  0  0  0  0  0
  148.2740  131.3571  152.0374 H   0  0  0  0  0  0  0  0  0  0  0  0
  150.4162  131.3651  153.3023 H   0  0  0  0  0  0  0  0  0  0  0  0
  151.0152  133.3077  154.7257 H   0  0  0  0  0  0  0  0  0  0  0  0
  151.6951  137.0398  154.9567 H   0  0  0  0  0  0  0  0  0  0  0  0
  151.1514  138.2763  153.8544 H   0  0  0  0  0  0  0  0  0  0  0  0
  149.6678  139.1824  155.7668 H   0  0  0  0  0  0  0  0  0  0  0  0
  149.7988  137.0471  156.8099 H   0  0  0  0  0  0  0  0  0  0  0  0
  152.3454  139.1721  157.0452 H   0  0  0  0  0  0  0  0  0  0  0  0
  152.4163  139.5989  155.3546 H   0  0  0  0  0  0  0  0  0  0  0  0
  150.3983  141.1746  153.8653 H   0  0  0  0  0  0  0  0  0  0  0  0
  149.0346  140.6057  154.8147 H   0  0  0  0  0  0  0  0  0  0  0  0
  148.8663  143.1876  154.8912 H   0  0  0  0  0  0  0  0  0  0  0  0
  151.0407  144.6838  158.8060 H   0  0  0  0  0  0  0  0  0  0  0  0
  152.6386  143.9501  160.5832 H   0  0  0  0  0  0  0  0  0  0  0  0
  153.6779  141.7136  160.5110 H   0  0  0  0  0  0  0  0  0  0  0  0
  153.1705  140.1171  158.6649 H   0  0  0  0  0  0  0  0  0  0  0  0
  149.8173  136.5831  153.3899 H   0  0  0  0  0  0  0  0  0  0  0  0
  149.8218  143.6967  156.3807 H   0  0  0  0  0  0  0  0  0  0  0  0
  1  2  1  0  0  0  0
  1 25  1  0  0  0  0
  1 26  1  0  0  0  0
  1 27  1  0  0  0  0
  2  3  1  0  0  0  0
  2 10  1  0  0  0  0
  2 48  1  0  0  0  0
  3  4  1  0  0  0  0
  3 28  1  0  0  0  0
  3 29  1  0  0  0  0
  4  9  1  0  0  0  0
  4  5  2  0  0  0  0
  5  6  1  0  0  0  0
  5 30  1  0  0  0  0
  6  7  2  0  0  0  0
  6 31  1  0  0  0  0
  7  8  1  0  0  0  0
  7 32  1  0  0  0  0
  8  9  2  0  0  0  0
  8 33  1  0  0  0  0
  9 34  1  0  0  0  0
 10 11  1  0  0  0  0
 10 35  1  0  0  0  0
 10 36  1  0  0  0  0
 11 12  1  0  0  0  0
 11 13  1  0  0  0  0
 11 37  1  0  0  0  0
 12 38  1  0  0  0  0
 13 14  1  0  0  0  0
 13 39  1  0  0  0  0
 13 40  1  0  0  0  0
 14 24  1  0  0  0  0
 14 15  1  0  0  0  0
 15 16  1  0  0  0  0
 15 18  2  0  0  0  0
 16 17  1  0  0  0  0
 16 41  1  0  0  0  0
 16 42  1  0  0  0  0
 17 43  1  0  0  0  0
 18 19  1  0  0  0  0
 18 49  1  0  0  0  0
 19 24  2  0  0  0  0
 19 20  1  0  0  0  0
 20 21  2  0  0  0  0
 20 44  1  0  0  0  0
 21 22  1  0  0  0  0
 21 45  1  0  0  0  0
 22 23  2  0  0  0  0
 22 46  1  0  0  0  0
 23 24  1  0  0  0  0
 23 47  1  0  0  0  0
M  CHG  1   2   1
M  CHG  1  18   1
M  END
> <s_m_source_file>
AV-unprocessed.smi

> <i_m_source_file_index>
1669

> <i_lp_mmshare_version>
43012

> <i_f3d_flags>
0

> <s_epik_input>
W2NIXTFbY0hdW2NIXVtjSF1bY0hdYzFbQ0gyXU4oW0NIM10pW0NIMl1bQ0BIXShbT0hdKVtDSDJdbihjKG4yKVtDSDJdW09IXSljKGMyMylbY0hdW2NIXVtjSF1bY0hdMw==

> <s_epik_cmdline>
J2VwaWtfcHl0aG9uJywgJy1waCcsICc3LjAnLCAnLXRuJywgJzgnLCAnLW1hJywgJzIwMCcsICctbWV0YWxfYmluZGluZycsICctaW1hZScsICc8aW5maWxlLm1hZT4nLCAnLW9tYWUnLCAnPG91dGZpbGUubWFlPic=

> <r_epik_Ionization_Penalty>
1.57484

> <r_epik_Ionization_Penalty_Charging>
1.57398

> <r_epik_Ionization_Penalty_Neutral>
0.000858917

> <r_epik_State_Penalty>
1.64997

> <r_epik_Charging_Adjusted_Penalty>
3.22395

> <i_epik_Tot_Q>
2

> <i_epik_Tot_abs_Q>
2

> <r_epik_Metal_State_Penalty>
5.70481

> <b_epik_Metal_Only>
0

> <s_lp_Force_Field>
OPLS_2005

> <r_lp_Energy>
22.4556

> <b_lp_Chiralities_Consistent>
1

> <s_lp_Variant>
AV-unprocessed.smi:1669-10

> <Gold.Version>
5.8.1

> <Gold.Id.Protein>
6NUR|6NUR_protein|mol2

> <Gold.PLP.Fitness>
60.0611

> <Gold.PLP.PLP>
-47.2110

> <Gold.PLP.part.hbond>
-3.9966

> <Gold.PLP.part.metal>
0.0000

> <Gold.PLP.part.buried>
-4.1750

> <Gold.PLP.part.nonpolar>
-37.9586

> <Gold.PLP.part.repulsive>
0.0705

> <Gold.PLP.ligand.clash>
0.0000

> <Gold.PLP.ligand.torsion>
1.4410

> <Gold.PLP.Chemscore.Hbond>
5.0530

> <Gold.PLP.Chemscore.CHOScore>
0.0000

> <Gold.PLP.Chemscore.Metal>
0.0000

> <Gold.Chemscore.Hbonds>
donor molecule, donor type, donor heavy atom, donor atom, acceptor molecule, acceptor atom, score
      L1  H     2    48       P1  7948  1.79
      L1  H    17    43       P1  8028  1.00
      L1  H    18    49       P1  8028  2.00
      P1  H  8011  8017       L1    17  0.06

> <Gold.PLP.Chemscore.Internal.Correction>
0.5732

> <Gold.Rescore>
     Score         DG    S(hbond)    S(metal)    S(lipo)     H(rot)  DE(clash)    DE(int)     intcor
     19.22     -21.02       2.94        0.00     120.45       3.27       0.16       1.64       ----

> <Gold.Chemscore.Fitness>
19.2183

> <Gold.Chemscore.DG>
-21.0232

> <Gold.Chemscore.ZeroCoef>
-5.4800

> <Gold.Chemscore.Hbond>
2.9422

> <Gold.Chemscore.Metal>
0.0000

> <Gold.Chemscore.Lipo>
120.4467

> <Gold.Chemscore.Internal_Hbond>
0.0000

> <Gold.Chemscore.DEClash>
0.1615

> <Gold.Chemscore.DEInternal>
1.6434

> <Gold.Chemscore.Rot>
3.2718

> <Gold.Chemscore.Internal.Correction>
   9.000000E+99

> <Gold.Chemscore.Hbonds>
donor molecule, donor type, donor heavy atom, donor atom, acceptor molecule, acceptor atom, score
      L1  H     2    48       P1  7948  0.23
      L1  H    17    43       P1  8028  0.99
      L1  H    18    49       P1  8028  0.96

> <Gold.Chemscore.Hbond.Weighted>
-9.8268

> <Gold.Chemscore.Metal.Weighted>
-0.0000

> <Gold.Chemscore.Lipo.Weighted>
-14.0923

> <Gold.Chemscore.Internal_Hbond.Weighted>
0.0000

> <Gold.Chemscore.DEClash.Weighted>
0.1615

> <Gold.Chemscore.DEInternal.Weighted>
1.6434

> <Gold.Chemscore.Rot.Weighted>
8.3759

> <Gold.Chemscore.Internal.Correction.Weighted>
   9.000000E+99

> <Gold.Protein.RotatedTorsions>
[ 6907 6896 6895 6894 ] final -142.78 input  -60.11 | X-H torsion
[ 7974 7965 7964 7962 ] final   33.75 input  175.53 | X-H torsion
[ 8008 7997 7996 7995 ] final -159.93 input   59.86 | X-H torsion
[ 10167 10162 10161 10158 ] final   82.22 input  -65.29 | X-H torsion
[ 10718 10713 10712 10709 ] final  -59.64 input   66.30 | X-H torsion
[ 10763 10752 10751 10750 ] final  156.68 input  -60.55 | X-H torsion
[ 11005 11000 10999 10996 ] final -133.47 input  -57.11 | X-H torsion

> <Gold.Protein.ActiveResidues>
 VAL166  LYS551  ARG553  GLY616  TRP617  ASP618  TYR619  PRO620  LYS621  CYS622 
 ASP623  PHE694  ASN695  SER759  ASP760  ASP761  ALA762  ILE779  LEU786  VAL792 
 PHE793  MET794  SER795  GLU796  ALA797  LYS798  CYS799  TRP800  GLU811  SER814 

> <Gold.Protein.RotatedAtoms>
  151.0916  133.5312  159.2614 H   0  0  0  0  0  0  0  0  0  0  0  0  # atno 6907 bound_to 6896
  151.2177  135.0505  159.8947 H   0  0  0  0  0  0  0  0  0  0  0  0  # atno 6908 bound_to 6896
  152.5434  134.0723  159.8253 H   0  0  0  0  0  0  0  0  0  0  0  0  # atno 6909 bound_to 6896
  146.1400  139.6357  142.9169 H   0  0  0  0  0  0  0  0  0  0  0  0  # atno 7974 bound_to 7965
  155.7698  140.0850  157.2113 H   0  0  0  0  0  0  0  0  0  0  0  0  # atno 8008 bound_to 7997
  154.3997  140.1527  156.2986 H   0  0  0  0  0  0  0  0  0  0  0  0  # atno 8009 bound_to 7997
  155.8758  140.3423  155.5855 H   0  0  0  0  0  0  0  0  0  0  0  0  # atno 8010 bound_to 7997
  139.9311  144.6151  150.8344 H   0  0  0  0  0  0  0  0  0  0  0  0  # atno 10167 bound_to 10162
  156.1047  130.4182  150.0743 H   0  0  0  0  0  0  0  0  0  0  0  0  # atno 10718 bound_to 10713
  154.1882  135.2796  155.3030 H   0  0  0  0  0  0  0  0  0  0  0  0  # atno 10763 bound_to 10752
  154.5950  135.5548  153.7319 H   0  0  0  0  0  0  0  0  0  0  0  0  # atno 10764 bound_to 10752
  153.0119  135.6377  154.2020 H   0  0  0  0  0  0  0  0  0  0  0  0  # atno 10765 bound_to 10752
  140.9078  134.1607  157.4412 H   0  0  0  0  0  0  0  0  0  0  0  0  # atno 11005 bound_to 11000
  145.5069  141.0436  143.2509 LP  0  0  0  0  0  0  0  0  0  0  0  0  # atno 17320 bound_to 7965
  144.7781  139.6585  143.7166 LP  0  0  0  0  0  0  0  0  0  0  0  0  # atno 17321 bound_to 7965
  140.7637  143.3230  151.2580 LP  0  0  0  0  0  0  0  0  0  0  0  0  # atno 17342 bound_to 10162
  139.6782  143.9901  152.2793 LP  0  0  0  0  0  0  0  0  0  0  0  0  # atno 17343 bound_to 10162
  156.8722  130.9528  151.3608 LP  0  0  0  0  0  0  0  0  0  0  0  0  # atno 17370 bound_to 10713
  157.6222  130.8664  149.9128 LP  0  0  0  0  0  0  0  0  0  0  0  0  # atno 17371 bound_to 10713
  139.8752  134.9924  156.5593 LP  0  0  0  0  0  0  0  0  0  0  0  0  # atno 17394 bound_to 11000
  140.8149  133.8400  155.8843 LP  0  0  0  0  0  0  0  0  0  0  0  0  # atno 17395 bound_to 11000

$$$$
