AV-unprocessed.smi:3234|AV-procd|sdf|12351|dock6
  -GOLD-   2272018213D 1   1.00000     0.00000
 Structure written by MMmdl.
 37 39  0  0  0  0  0  0  0  0  2 V2000
  149.8686  140.7650  157.1603 O   0  0  0  0  0  0  0  0  0  0  0  0
  149.5686  141.9443  156.9752 C   0  0  0  0  0  0  0  0  0  0  0  0
  150.0795  142.9941  157.6415 N   0  0  0  0  0  0  0  0  0  0  0  0
  151.0173  142.9945  158.7091 C   0  0  0  0  0  0  0  0  0  0  0  0
  151.8028  141.8382  158.8951 C   0  0  0  0  0  0  0  0  0  0  0  0
  152.7505  141.8217  159.9378 C   0  0  0  0  0  0  0  0  0  0  0  0
  152.9569  142.8648  160.7690 N   0  0  0  0  0  0  0  0  0  0  0  0
  152.2155  143.9767  160.5790 C   0  0  0  0  0  0  0  0  0  0  0  0
  151.2409  144.0972  159.5681 C   0  0  0  0  0  0  0  0  0  0  0  0
  148.6892  142.3409  156.0443 N   0  0  0  0  0  0  0  0  0  0  0  0
  147.9641  141.4446  155.1503 C   0  0  1  0  0  0  0  0  0  0  0  0
  147.1117  142.1686  154.1168 C   0  0  0  0  0  0  0  0  0  0  0  0
  146.8950  141.0894  153.0495 C   0  0  0  0  0  0  0  0  0  0  0  0
  148.0659  140.1792  153.1166 N   0  3  2  0  0  0  0  0  0  0  0  0
  147.6996  138.7466  153.1449 C   0  0  0  0  0  0  0  0  0  0  0  0
  146.5040  138.4127  152.2854 C   0  0  0  0  0  0  0  0  0  0  0  0
  146.3612  138.4781  153.7905 C   0  0  0  0  0  0  0  0  0  0  0  0
  148.8902  140.6015  154.2701 C   0  0  0  0  0  0  0  0  0  0  0  0
  149.8016  143.9074  157.3130 H   0  0  0  0  0  0  0  0  0  0  0  0
  151.6806  140.9744  158.2580 H   0  0  0  0  0  0  0  0  0  0  0  0
  153.3604  140.9468  160.1071 H   0  0  0  0  0  0  0  0  0  0  0  0
  152.4085  144.8000  161.2506 H   0  0  0  0  0  0  0  0  0  0  0  0
  150.7011  145.0260  159.4662 H   0  0  0  0  0  0  0  0  0  0  0  0
  148.5021  143.3291  155.9538 H   0  0  0  0  0  0  0  0  0  0  0  0
  147.3200  140.7847  155.7357 H   0  0  0  0  0  0  0  0  0  0  0  0
  146.1767  142.5514  154.5269 H   0  0  0  0  0  0  0  0  0  0  0  0
  147.6634  143.0079  153.6898 H   0  0  0  0  0  0  0  0  0  0  0  0
  145.9778  140.5404  153.2703 H   0  0  0  0  0  0  0  0  0  0  0  0
  146.7881  141.5163  152.0521 H   0  0  0  0  0  0  0  0  0  0  0  0
  148.5187  138.0375  153.2540 H   0  0  0  0  0  0  0  0  0  0  0  0
  146.0496  139.2117  151.7021 H   0  0  0  0  0  0  0  0  0  0  0  0
  146.4769  137.4276  151.8242 H   0  0  0  0  0  0  0  0  0  0  0  0
  146.2400  137.5358  154.3208 H   0  0  0  0  0  0  0  0  0  0  0  0
  145.8114  139.3203  154.2072 H   0  0  0  0  0  0  0  0  0  0  0  0
  149.7120  141.2106  153.8903 H   0  0  0  0  0  0  0  0  0  0  0  0
  149.3279  139.7591  154.8085 H   0  0  0  0  0  0  0  0  0  0  0  0
  148.6216  140.3270  152.2861 H   0  0  0  0  0  0  0  0  0  0  0  0
  1  2  2  0  0  0  0
  2  3  1  0  0  0  0
  2 10  1  0  0  0  0
  3  4  1  0  0  0  0
  3 19  1  0  0  0  0
  4  9  1  0  0  0  0
  4  5  2  0  0  0  0
  5  6  1  0  0  0  0
  5 20  1  0  0  0  0
  6  7  2  0  0  0  0
  6 21  1  0  0  0  0
  7  8  1  0  0  0  0
  8  9  2  0  0  0  0
  8 22  1  0  0  0  0
  9 23  1  0  0  0  0
 10 11  1  0  0  0  0
 10 24  1  0  0  0  0
 11 18  1  0  0  0  0
 11 12  1  0  0  0  0
 11 25  1  0  0  0  0
 12 13  1  0  0  0  0
 12 26  1  0  0  0  0
 12 27  1  0  0  0  0
 13 14  1  0  0  0  0
 13 28  1  0  0  0  0
 13 29  1  0  0  0  0
 14 15  1  0  0  0  0
 14 18  1  0  0  0  0
 14 37  1  0  0  0  0
 15 17  1  0  0  0  0
 15 16  1  0  0  0  0
 15 30  1  0  0  0  0
 16 17  1  0  0  0  0
 16 31  1  0  0  0  0
 16 32  1  0  0  0  0
 17 33  1  0  0  0  0
 17 34  1  0  0  0  0
 18 35  1  0  0  0  0
 18 36  1  0  0  0  0
M  CHG  1  14   1
M  END
> <s_m_source_file>
AV-unprocessed.smi

> <i_m_source_file_index>
3234

> <i_lp_mmshare_version>
43012

> <i_f3d_flags>
0

> <s_epik_input>
W2NIXTFbY0hdbltjSF1bY0hdYzFbTkhdQyg9TylbTkhdW0NAQEhdMltDSDJdW0NIMl1OKFtDSDJdMilbQ0hdM1tDSDJdW0NIMl0z

> <s_epik_cmdline>
J2VwaWtfcHl0aG9uJywgJy1waCcsICc3LjAnLCAnLXRuJywgJzgnLCAnLW1hJywgJzIwMCcsICctbWV0YWxfYmluZGluZycsICctaW1hZScsICc8aW5maWxlLm1hZT4nLCAnLW9tYWUnLCAnPG91dGZpbGUubWFlPic=

> <r_epik_Ionization_Penalty>
0.0934328

> <r_epik_Ionization_Penalty_Charging>
0.000606352

> <r_epik_Ionization_Penalty_Neutral>
0.0928265

> <r_epik_State_Penalty>
0.0830811

> <r_epik_Charging_Adjusted_Penalty>
0.0836875

> <i_epik_Tot_Q>
1

> <i_epik_Tot_abs_Q>
1

> <r_epik_Metal_State_Penalty>
0.0724491

> <b_epik_Metal_Only>
0

> <s_lp_Force_Field>
OPLS_2005

> <r_lp_Energy>
41.5008

> <b_lp_Chiralities_Consistent>
1

> <s_lp_Variant>
AV-unprocessed.smi:3234-4

> <Gold.Version>
5.8.1

> <Gold.Id.Protein>
6NUR|6NUR_protein|mol2

> <Gold.PLP.Fitness>
41.3286

> <Gold.PLP.PLP>
-33.3610

> <Gold.PLP.part.hbond>
-2.6502

> <Gold.PLP.part.metal>
0.0000

> <Gold.PLP.part.buried>
-2.5216

> <Gold.PLP.part.nonpolar>
-29.0958

> <Gold.PLP.part.repulsive>
0.2541

> <Gold.PLP.ligand.clash>
0.0000

> <Gold.PLP.ligand.torsion>
0.7133

> <Gold.PLP.Chemscore.Hbond>
2.7095

> <Gold.PLP.Chemscore.CHOScore>
0.0000

> <Gold.PLP.Chemscore.Metal>
0.0000

> <Gold.Chemscore.Hbonds>
donor molecule, donor type, donor heavy atom, donor atom, acceptor molecule, acceptor atom, score
      L1  H     3    19       P1  8028  0.78
      L1  H    10    24       P1  8028  0.83
      L1  H    14    37       P1  7957  0.96

> <Gold.PLP.Chemscore.Internal.Correction>
1.2658

> <Gold.Rescore>
     Score         DG    S(hbond)    S(metal)    S(lipo)     H(rot)  DE(clash)    DE(int)     intcor
     20.50     -22.60       2.82        0.00      92.42       1.21       0.02       2.09       ----

> <Gold.Chemscore.Fitness>
20.4978

> <Gold.Chemscore.DG>
-22.6046

> <Gold.Chemscore.ZeroCoef>
-5.4800

> <Gold.Chemscore.Hbond>
2.8176

> <Gold.Chemscore.Metal>
0.0000

> <Gold.Chemscore.Lipo>
92.4212

> <Gold.Chemscore.Internal_Hbond>
0.0000

> <Gold.Chemscore.DEClash>
0.0204

> <Gold.Chemscore.DEInternal>
2.0863

> <Gold.Chemscore.Rot>
1.2108

> <Gold.Chemscore.Internal.Correction>
   9.000000E+99

> <Gold.Chemscore.Hbonds>
donor molecule, donor type, donor heavy atom, donor atom, acceptor molecule, acceptor atom, score
      L1  H     3    19       P1  8028  0.50
      L1  H    10    24       P1  8028  0.74
      L1  H    14    37       P1  7957  0.91

> <Gold.Chemscore.Hbond.Weighted>
-9.4109

> <Gold.Chemscore.Metal.Weighted>
-0.0000

> <Gold.Chemscore.Lipo.Weighted>
-10.8133

> <Gold.Chemscore.Internal_Hbond.Weighted>
0.0000

> <Gold.Chemscore.DEClash.Weighted>
0.0204

> <Gold.Chemscore.DEInternal.Weighted>
2.0863

> <Gold.Chemscore.Rot.Weighted>
3.0996

> <Gold.Chemscore.Internal.Correction.Weighted>
   9.000000E+99

> <Gold.Protein.RotatedTorsions>
[ 6907 6896 6895 6894 ] final  -55.11 input  -60.11 | X-H torsion
[ 7974 7965 7964 7962 ] final  161.92 input  175.53 | X-H torsion
[ 8008 7997 7996 7995 ] final  -51.13 input   59.86 | X-H torsion
[ 10167 10162 10161 10158 ] final  -28.16 input  -65.29 | X-H torsion
[ 10718 10713 10712 10709 ] final  -94.56 input   66.30 | X-H torsion
[ 10763 10752 10751 10750 ] final  -38.64 input  -60.55 | X-H torsion
[ 11005 11000 10999 10996 ] final  -10.08 input  -57.11 | X-H torsion

> <Gold.Protein.ActiveResidues>
 VAL166  LYS551  ARG553  GLY616  TRP617  ASP618  TYR619  PRO620  LYS621  CYS622 
 ASP623  PHE694  ASN695  SER759  ASP760  ASP761  ALA762  ILE779  LEU786  VAL792 
 PHE793  MET794  SER795  GLU796  ALA797  LYS798  CYS799  TRP800  GLU811  SER814 

> <Gold.Protein.RotatedAtoms>
  150.8280  134.7520  159.6828 H   0  0  0  0  0  0  0  0  0  0  0  0  # atno 6907 bound_to 6896
  152.4388  134.5629  159.9909 H   0  0  0  0  0  0  0  0  0  0  0  0  # atno 6908 bound_to 6896
  151.5797  133.3342  159.3042 H   0  0  0  0  0  0  0  0  0  0  0  0  # atno 6909 bound_to 6896
  144.7662  139.7967  143.6314 H   0  0  0  0  0  0  0  0  0  0  0  0  # atno 7974 bound_to 7965
  154.4076  140.1255  156.4779 H   0  0  0  0  0  0  0  0  0  0  0  0  # atno 8008 bound_to 7997
  155.7114  140.3494  155.4956 H   0  0  0  0  0  0  0  0  0  0  0  0  # atno 8009 bound_to 7997
  155.9297  140.1067  157.1132 H   0  0  0  0  0  0  0  0  0  0  0  0  # atno 8010 bound_to 7997
  140.7272  143.4033  151.1228 H   0  0  0  0  0  0  0  0  0  0  0  0  # atno 10167 bound_to 10162
  156.0029  130.5073  150.5945 H   0  0  0  0  0  0  0  0  0  0  0  0  # atno 10718 bound_to 10713
  153.9162  135.6787  153.4749 H   0  0  0  0  0  0  0  0  0  0  0  0  # atno 10763 bound_to 10752
  153.1052  135.4809  154.8936 H   0  0  0  0  0  0  0  0  0  0  0  0  # atno 10764 bound_to 10752
  154.7501  135.3183  154.8528 H   0  0  0  0  0  0  0  0  0  0  0  0  # atno 10765 bound_to 10752
  140.7409  133.8671  155.8967 H   0  0  0  0  0  0  0  0  0  0  0  0  # atno 11005 bound_to 11000
  146.1770  139.4946  142.9891 LP  0  0  0  0  0  0  0  0  0  0  0  0  # atno 17320 bound_to 7965
  145.6464  141.0273  143.1784 LP  0  0  0  0  0  0  0  0  0  0  0  0  # atno 17321 bound_to 7965
  139.7656  143.8571  152.3110 LP  0  0  0  0  0  0  0  0  0  0  0  0  # atno 17342 bound_to 10162
  139.8472  144.7182  150.9259 LP  0  0  0  0  0  0  0  0  0  0  0  0  # atno 17343 bound_to 10162
  157.3804  131.0780  151.1481 LP  0  0  0  0  0  0  0  0  0  0  0  0  # atno 17370 bound_to 10713
  157.2205  130.6479  149.5809 LP  0  0  0  0  0  0  0  0  0  0  0  0  # atno 17371 bound_to 10713
  140.9837  134.1371  157.4471 LP  0  0  0  0  0  0  0  0  0  0  0  0  # atno 17394 bound_to 11000
  139.8806  135.0019  156.6093 LP  0  0  0  0  0  0  0  0  0  0  0  0  # atno 17395 bound_to 11000

$$$$
