AV-unprocessed.smi:1762|AV-procd|sdf|7115|dock3
  -GOLD-   22720 8343D 1   1.00000     0.00000
 Structure written by MMmdl.
 53 54  0  0  0  0  0  0  0  0  2 V2000
  145.5475  132.8643  150.6519 C   0  0  0  0  0  0  0  0  0  0  0  0
  146.0250  134.0821  151.4508 C   0  0  2  0  0  0  0  0  0  0  0  0
  146.6212  133.6838  152.8148 C   0  0  0  0  0  0  0  0  0  0  0  0
  147.0083  134.8856  153.6057 N   0  3  2  0  0  0  0  0  0  0  0  0
  147.6445  134.5964  154.9373 C   0  0  2  0  0  0  0  0  0  0  0  0
  147.7024  135.8674  155.8121 C   0  0  0  0  0  0  0  0  0  0  0  0
  148.2570  136.8839  155.3923 O   0  0  0  0  0  0  0  0  0  0  0  0
  147.1253  135.7954  157.0207 N   0  0  0  0  0  0  0  0  0  0  0  0
  147.0805  136.8927  157.9769 C   0  0  0  0  0  0  0  0  0  0  0  0
  148.1717  136.7256  159.0434 C   0  0  0  0  0  0  0  0  0  0  0  0
  147.6180  136.1950  160.3523 C   0  0  0  0  0  0  0  0  0  0  0  0
  147.2409  134.8409  160.4796 C   0  0  0  0  0  0  0  0  0  0  0  0
  146.7391  134.3984  161.7191 C   0  0  0  0  0  0  0  0  0  0  0  0
  146.6355  135.3214  162.7774 C   0  0  0  0  0  0  0  0  0  0  0  0
  147.0397  136.6519  162.5487 C   0  0  0  0  0  0  0  0  0  0  0  0
  147.5218  137.0867  161.3644 N   0  0  0  0  0  0  0  0  0  0  0  0
  149.0570  133.9251  154.8451 C   0  0  0  0  0  0  0  0  0  0  0  0
  149.0214  132.5204  154.2111 C   0  0  0  0  0  0  0  0  0  0  0  0
  149.8220  133.8815  156.1847 C   0  0  0  0  0  0  0  0  0  0  0  0
  145.8302  135.7948  153.7087 C   0  0  0  0  0  0  0  0  0  0  0  0
  145.2713  136.1418  152.3173 C   0  0  2  0  0  0  0  0  0  0  0  0
  144.0254  137.0307  152.3990 C   0  0  0  0  0  0  0  0  0  0  0  0
  144.9097  134.9381  151.6554 O   0  0  0  0  0  0  0  0  0  0  0  0
  146.3692  132.1750  150.4566 H   0  0  0  0  0  0  0  0  0  0  0  0
  145.1329  133.1673  149.6900 H   0  0  0  0  0  0  0  0  0  0  0  0
  144.7727  132.3179  151.1906 H   0  0  0  0  0  0  0  0  0  0  0  0
  146.7784  134.6077  150.8608 H   0  0  0  0  0  0  0  0  0  0  0  0
  145.9051  133.0892  153.3845 H   0  0  0  0  0  0  0  0  0  0  0  0
  147.4815  133.0490  152.6130 H   0  0  0  0  0  0  0  0  0  0  0  0
  146.9874  133.8819  155.4373 H   0  0  0  0  0  0  0  0  0  0  0  0
  146.6916  134.9261  157.2969 H   0  0  0  0  0  0  0  0  0  0  0  0
  147.2145  137.8362  157.4456 H   0  0  0  0  0  0  0  0  0  0  0  0
  146.0982  136.9255  158.4514 H   0  0  0  0  0  0  0  0  0  0  0  0
  148.9436  136.0428  158.6851 H   0  0  0  0  0  0  0  0  0  0  0  0
  148.6665  137.6809  159.2242 H   0  0  0  0  0  0  0  0  0  0  0  0
  147.3336  134.1557  159.6498 H   0  0  0  0  0  0  0  0  0  0  0  0
  146.4401  133.3695  161.8554 H   0  0  0  0  0  0  0  0  0  0  0  0
  146.2557  135.0173  163.7416 H   0  0  0  0  0  0  0  0  0  0  0  0
  146.9750  137.3860  163.3383 H   0  0  0  0  0  0  0  0  0  0  0  0
  149.6568  134.5070  154.1468 H   0  0  0  0  0  0  0  0  0  0  0  0
  148.5338  131.7895  154.8568 H   0  0  0  0  0  0  0  0  0  0  0  0
  150.0309  132.1559  154.0191 H   0  0  0  0  0  0  0  0  0  0  0  0
  148.4929  132.5313  153.2575 H   0  0  0  0  0  0  0  0  0  0  0  0
  149.3455  133.2115  156.9004 H   0  0  0  0  0  0  0  0  0  0  0  0
  149.8913  134.8644  156.6498 H   0  0  0  0  0  0  0  0  0  0  0  0
  150.8408  133.5221  156.0368 H   0  0  0  0  0  0  0  0  0  0  0  0
  145.0575  135.3172  154.3135 H   0  0  0  0  0  0  0  0  0  0  0  0
  146.0898  136.7262  154.2116 H   0  0  0  0  0  0  0  0  0  0  0  0
  146.0317  136.6644  151.7337 H   0  0  0  0  0  0  0  0  0  0  0  0
  144.2485  137.9771  152.8924 H   0  0  0  0  0  0  0  0  0  0  0  0
  143.2266  136.5417  152.9576 H   0  0  0  0  0  0  0  0  0  0  0  0
  143.6437  137.2582  151.4033 H   0  0  0  0  0  0  0  0  0  0  0  0
  147.7068  135.3735  153.0624 H   0  0  0  0  0  0  0  0  0  0  0  0
  1  2  1  0  0  0  0
  1 24  1  0  0  0  0
  1 25  1  0  0  0  0
  1 26  1  0  0  0  0
  2 23  1  0  0  0  0
  2  3  1  0  0  0  0
  2 27  1  0  0  0  0
  3  4  1  0  0  0  0
  3 28  1  0  0  0  0
  3 29  1  0  0  0  0
  4  5  1  0  0  0  0
  4 20  1  0  0  0  0
  4 53  1  0  0  0  0
  5  6  1  0  0  0  0
  5 17  1  0  0  0  0
  5 30  1  0  0  0  0
  6  7  2  0  0  0  0
  6  8  1  0  0  0  0
  8  9  1  0  0  0  0
  8 31  1  0  0  0  0
  9 10  1  0  0  0  0
  9 32  1  0  0  0  0
  9 33  1  0  0  0  0
 10 11  1  0  0  0  0
 10 34  1  0  0  0  0
 10 35  1  0  0  0  0
 11 16  1  0  0  0  0
 11 12  2  0  0  0  0
 12 13  1  0  0  0  0
 12 36  1  0  0  0  0
 13 14  2  0  0  0  0
 13 37  1  0  0  0  0
 14 15  1  0  0  0  0
 14 38  1  0  0  0  0
 15 16  2  0  0  0  0
 15 39  1  0  0  0  0
 17 18  1  0  0  0  0
 17 19  1  0  0  0  0
 17 40  1  0  0  0  0
 18 41  1  0  0  0  0
 18 42  1  0  0  0  0
 18 43  1  0  0  0  0
 19 44  1  0  0  0  0
 19 45  1  0  0  0  0
 19 46  1  0  0  0  0
 20 21  1  0  0  0  0
 20 47  1  0  0  0  0
 20 48  1  0  0  0  0
 21 22  1  0  0  0  0
 21 23  1  0  0  0  0
 21 49  1  0  0  0  0
 22 50  1  0  0  0  0
 22 51  1  0  0  0  0
 22 52  1  0  0  0  0
M  CHG  1   4   1
M  END
> <s_m_source_file>
AV-unprocessed.smi

> <i_m_source_file_index>
1762

> <i_lp_mmshare_version>
43012

> <i_f3d_flags>
0

> <s_epik_input>
W0NIM11bQ0BASF0xW0NIMl1OKFtDSDJdW0NASF0oTzEpW0NIM10pW0NAQEhdKFtDSF0oW0NIM10pW0NIM10pQyg9TylbTkhdW0NIMl1bQ0gyXWMyW2NIXVtjSF1bY0hdW2NIXW4y

> <s_epik_cmdline>
J2VwaWtfcHl0aG9uJywgJy1waCcsICc3LjAnLCAnLXRuJywgJzgnLCAnLW1hJywgJzIwMCcsICctbWV0YWxfYmluZGluZycsICctaW1hZScsICc8aW5maWxlLm1hZT4nLCAnLW9tYWUnLCAnPG91dGZpbGUubWFlPic=

> <r_epik_Ionization_Penalty>
2.27005

> <r_epik_Ionization_Penalty_Charging>
2.24983

> <r_epik_Ionization_Penalty_Neutral>
0.0202209

> <r_epik_State_Penalty>
2.40228

> <r_epik_Charging_Adjusted_Penalty>
4.65211

> <i_epik_Tot_Q>
1

> <i_epik_Tot_abs_Q>
1

> <r_epik_Metal_State_Penalty>
2.40762

> <b_epik_Metal_Only>
0

> <s_lp_Force_Field>
OPLS_2005

> <r_lp_Energy>
21.2519

> <b_lp_Chiralities_Consistent>
1

> <s_lp_Variant>
AV-unprocessed.smi:1762-17

> <Gold.Version>
5.8.1

> <Gold.Id.Protein>
6NUR|6NUR_protein|mol2

> <Gold.PLP.Fitness>
48.1316

> <Gold.PLP.PLP>
-38.6111

> <Gold.PLP.part.hbond>
-3.0000

> <Gold.PLP.part.metal>
0.0000

> <Gold.PLP.part.buried>
-5.5344

> <Gold.PLP.part.nonpolar>
-30.4710

> <Gold.PLP.part.repulsive>
0.2009

> <Gold.PLP.ligand.clash>
0.0000

> <Gold.PLP.ligand.torsion>
1.0864

> <Gold.PLP.Chemscore.Hbond>
3.8000

> <Gold.PLP.Chemscore.CHOScore>
0.0000

> <Gold.PLP.Chemscore.Metal>
0.0000

> <Gold.Chemscore.Hbonds>
donor molecule, donor type, donor heavy atom, donor atom, acceptor molecule, acceptor atom, score
      L1  H     4    53       P1  7948  2.00
      P1  H  6931  6943       L1    16  0.98
      P1  H  6934  6947       L1    16  0.91

> <Gold.PLP.Chemscore.Internal.Correction>
0.2932

> <Gold.Rescore>
     Score         DG    S(hbond)    S(metal)    S(lipo)     H(rot)  DE(clash)    DE(int)     intcor
     18.29     -19.32       2.34        0.00      87.96       1.66       0.00       1.03       ----

> <Gold.Chemscore.Fitness>
18.2889

> <Gold.Chemscore.DG>
-19.3206

> <Gold.Chemscore.ZeroCoef>
-5.4800

> <Gold.Chemscore.Hbond>
2.3376

> <Gold.Chemscore.Metal>
0.0000

> <Gold.Chemscore.Lipo>
87.9629

> <Gold.Chemscore.Internal_Hbond>
0.0000

> <Gold.Chemscore.DEClash>
0.0000

> <Gold.Chemscore.DEInternal>
1.0317

> <Gold.Chemscore.Rot>
1.6635

> <Gold.Chemscore.Internal.Correction>
   9.000000E+99

> <Gold.Chemscore.Hbonds>
donor molecule, donor type, donor heavy atom, donor atom, acceptor molecule, acceptor atom, score
      L1  H     4    53       P1  7948  1.00
      P1  H  6931  6943       L1    16  0.36
      P1  H  6934  6947       L1    16  0.75

> <Gold.Chemscore.Hbond.Weighted>
-7.8076

> <Gold.Chemscore.Metal.Weighted>
-0.0000

> <Gold.Chemscore.Lipo.Weighted>
-10.2917

> <Gold.Chemscore.Internal_Hbond.Weighted>
0.0000

> <Gold.Chemscore.DEClash.Weighted>
0.0000

> <Gold.Chemscore.DEInternal.Weighted>
1.0317

> <Gold.Chemscore.Rot.Weighted>
4.2586

> <Gold.Chemscore.Internal.Correction.Weighted>
   9.000000E+99

> <Gold.Protein.RotatedTorsions>
[ 6907 6896 6895 6894 ] final  142.46 input  -60.11 | X-H torsion
[ 7974 7965 7964 7962 ] final  -67.27 input  175.53 | X-H torsion
[ 8008 7997 7996 7995 ] final -135.83 input   59.86 | X-H torsion
[ 10167 10162 10161 10158 ] final   19.94 input  -65.29 | X-H torsion
[ 10718 10713 10712 10709 ] final -120.95 input   66.30 | X-H torsion
[ 10763 10752 10751 10750 ] final   11.83 input  -60.55 | X-H torsion
[ 11005 11000 10999 10996 ] final    9.88 input  -57.11 | X-H torsion

> <Gold.Protein.ActiveResidues>
 VAL166  LYS551  ARG553  GLY616  TRP617  ASP618  TYR619  PRO620  LYS621  CYS622 
 ASP623  PHE694  ASN695  SER759  ASP760  ASP761  ALA762  ILE779  LEU786  VAL792 
 PHE793  MET794  SER795  GLU796  ALA797  LYS798  CYS799  TRP800  GLU811  SER814 

> <Gold.Protein.RotatedAtoms>
  152.2184  133.4964  159.5148 H   0  0  0  0  0  0  0  0  0  0  0  0  # atno 6907 bound_to 6896
  150.7007  134.1375  159.4101 H   0  0  0  0  0  0  0  0  0  0  0  0  # atno 6908 bound_to 6896
  151.9295  135.0262  160.0579 H   0  0  0  0  0  0  0  0  0  0  0  0  # atno 6909 bound_to 6896
  145.7313  140.8996  143.0579 H   0  0  0  0  0  0  0  0  0  0  0  0  # atno 7974 bound_to 7965
  155.3851  140.0496  157.3042 H   0  0  0  0  0  0  0  0  0  0  0  0  # atno 8008 bound_to 7997
  154.5063  140.2175  155.9206 H   0  0  0  0  0  0  0  0  0  0  0  0  # atno 8009 bound_to 7997
  156.1530  140.3132  155.8684 H   0  0  0  0  0  0  0  0  0  0  0  0  # atno 8010 bound_to 7997
  140.5541  143.9456  150.6597 H   0  0  0  0  0  0  0  0  0  0  0  0  # atno 10167 bound_to 10162
  156.1298  130.6387  150.9603 H   0  0  0  0  0  0  0  0  0  0  0  0  # atno 10718 bound_to 10713
  153.1886  135.6839  153.8383 H   0  0  0  0  0  0  0  0  0  0  0  0  # atno 10763 bound_to 10752
  153.7690  135.3199  155.3350 H   0  0  0  0  0  0  0  0  0  0  0  0  # atno 10764 bound_to 10752
  154.8103  135.4721  154.0597 H   0  0  0  0  0  0  0  0  0  0  0  0  # atno 10765 bound_to 10752
  140.5208  134.0561  155.7844 H   0  0  0  0  0  0  0  0  0  0  0  0  # atno 11005 bound_to 11000
  144.6892  139.9334  143.7472 LP  0  0  0  0  0  0  0  0  0  0  0  0  # atno 17320 bound_to 7965
  146.0535  139.3534  143.0625 LP  0  0  0  0  0  0  0  0  0  0  0  0  # atno 17321 bound_to 7965
  140.2889  143.3337  152.1081 LP  0  0  0  0  0  0  0  0  0  0  0  0  # atno 17342 bound_to 10162
  139.5040  144.6767  151.6111 LP  0  0  0  0  0  0  0  0  0  0  0  0  # atno 17343 bound_to 10162
  157.6477  131.0901  150.8117 LP  0  0  0  0  0  0  0  0  0  0  0  0  # atno 17370 bound_to 10713
  156.8204  130.4982  149.5344 LP  0  0  0  0  0  0  0  0  0  0  0  0  # atno 17371 bound_to 10713
  141.1335  133.9261  157.2484 LP  0  0  0  0  0  0  0  0  0  0  0  0  # atno 17394 bound_to 11000
  139.9607  135.0155  156.9253 LP  0  0  0  0  0  0  0  0  0  0  0  0  # atno 17395 bound_to 11000

$$$$
