AV-unprocessed.smi:203|AV-procd|sdf|1586|dock5
  -GOLD-   2262019483D 1   1.00000     0.00000
 Structure written by MMmdl.
 57 61  0  0  0  0  0  0  0  0  1 V2000
  151.7078  136.1762  156.3133 O   0  0  0  0  0  0  0  0  0  0  0  0
  151.6416  137.2277  155.6809 C   0  0  0  0  0  0  0  0  0  0  0  0
  150.3719  137.7272  155.0139 C   0  0  0  0  0  0  0  0  0  0  0  0
  150.7313  139.1621  154.5758 C   0  0  1  0  0  0  0  0  0  0  0  0
  149.9905  140.2858  155.3683 C   0  0  2  0  0  0  0  0  0  0  0  0
  150.7217  140.6782  156.6800 C   0  0  0  0  0  0  0  0  0  0  0  0
  149.9762  141.7837  157.4389 C   0  0  0  0  0  0  0  0  0  0  0  0
  148.5321  141.3484  157.7085 C   0  0  0  0  0  0  0  0  0  0  0  0
  147.8340  140.9740  156.3944 C   0  0  0  0  0  0  0  0  0  0  0  0
  148.5850  139.9535  155.6634 N   0  0  0  0  0  0  0  0  0  0  0  0
  147.8532  139.4801  154.6300 C   0  0  0  0  0  0  0  0  0  0  0  0
  147.8141  140.2334  153.5039 N   0  0  0  0  0  0  0  0  0  0  0  0
  147.0981  139.8237  152.4524 C   0  0  0  0  0  0  0  0  0  0  0  0
  146.3688  138.7132  152.3193 N   0  0  0  0  0  0  0  0  0  0  0  0
  146.4138  137.9514  153.4499 C   0  0  0  0  0  0  0  0  0  0  0  0
  147.1253  138.2567  154.6436 C   0  0  0  0  0  0  0  0  0  0  0  0
  146.9343  137.2490  155.5816 N   0  0  0  0  0  0  0  0  0  0  0  0
  146.1542  136.3955  154.9758 C   0  0  0  0  0  0  0  0  0  0  0  0
  145.7938  136.7387  153.6928 N   0  0  0  0  0  0  0  0  0  0  0  0
  144.9428  135.9753  152.7976 C   0  0  0  0  0  0  0  0  0  0  0  0
  145.7552  135.1539  151.7740 C   0  0  1  0  0  0  0  0  0  0  0  0
  146.7473  134.3870  152.4266 O   0  0  0  0  0  0  0  0  0  0  0  0
  144.9045  134.2150  150.8939 C   0  0  2  0  0  0  0  0  0  0  0  0
  143.8924  133.3636  151.6709 C   0  0  0  0  0  0  0  0  0  0  0  0
  143.8264  132.0529  150.8978 C   0  0  0  0  0  0  0  0  0  0  0  0
  144.8239  132.2401  149.7563 C   0  0  0  0  0  0  0  0  0  0  0  0
  145.7040  133.2438  150.2338 O   0  0  0  0  0  0  0  0  0  0  0  0
  152.2685  139.2398  154.6965 C   0  0  0  0  0  0  0  0  0  0  0  0
  152.6451  138.0795  155.4803 N   0  0  0  0  0  0  0  0  0  0  0  0
  150.1491  137.0988  154.1509 H   0  0  0  0  0  0  0  0  0  0  0  0
  149.5201  137.6820  155.6928 H   0  0  0  0  0  0  0  0  0  0  0  0
  150.5016  139.2676  153.5150 H   0  0  0  0  0  0  0  0  0  0  0  0
  149.9781  141.1736  154.7349 H   0  0  0  0  0  0  0  0  0  0  0  0
  150.8176  139.8113  157.3340 H   0  0  0  0  0  0  0  0  0  0  0  0
  151.7363  141.0166  156.4736 H   0  0  0  0  0  0  0  0  0  0  0  0
  150.4843  142.0046  158.3780 H   0  0  0  0  0  0  0  0  0  0  0  0
  149.9832  142.7036  156.8531 H   0  0  0  0  0  0  0  0  0  0  0  0
  148.5240  140.4935  158.3862 H   0  0  0  0  0  0  0  0  0  0  0  0
  147.9853  142.1485  158.2078 H   0  0  0  0  0  0  0  0  0  0  0  0
  146.8266  140.6132  156.6088 H   0  0  0  0  0  0  0  0  0  0  0  0
  147.7272  141.8626  155.7706 H   0  0  0  0  0  0  0  0  0  0  0  0
  147.1100  140.4804  151.5950 H   0  0  0  0  0  0  0  0  0  0  0  0
  145.8161  135.4861  155.4511 H   0  0  0  0  0  0  0  0  0  0  0  0
  144.3066  135.3229  153.3969 H   0  0  0  0  0  0  0  0  0  0  0  0
  144.2775  136.6729  152.2893 H   0  0  0  0  0  0  0  0  0  0  0  0
  146.2920  135.8396  151.1170 H   0  0  0  0  0  0  0  0  0  0  0  0
  147.5635  134.8624  152.3882 H   0  0  0  0  0  0  0  0  0  0  0  0
  144.3616  134.7913  150.1415 H   0  0  0  0  0  0  0  0  0  0  0  0
  144.2304  133.1697  152.6890 H   0  0  0  0  0  0  0  0  0  0  0  0
  142.9218  133.8562  151.7365 H   0  0  0  0  0  0  0  0  0  0  0  0
  144.1334  131.2267  151.5402 H   0  0  0  0  0  0  0  0  0  0  0  0
  142.8245  131.8348  150.5267 H   0  0  0  0  0  0  0  0  0  0  0  0
  145.3574  131.3224  149.5080 H   0  0  0  0  0  0  0  0  0  0  0  0
  144.3208  132.5986  148.8568 H   0  0  0  0  0  0  0  0  0  0  0  0
  152.7381  139.1643  153.7147 H   0  0  0  0  0  0  0  0  0  0  0  0
  152.6202  140.1629  155.1574 H   0  0  0  0  0  0  0  0  0  0  0  0
  153.5807  137.9438  155.8351 H   0  0  0  0  0  0  0  0  0  0  0  0
  1  2  2  0  0  0  0
  2 29  1  0  0  0  0
  2  3  1  0  0  0  0
  3  4  1  0  0  0  0
  3 30  1  0  0  0  0
  3 31  1  0  0  0  0
  4  5  1  0  0  0  0
  4 28  1  0  0  0  0
  4 32  1  0  0  0  0
  5 10  1  0  0  0  0
  5  6  1  0  0  0  0
  5 33  1  0  0  0  0
  6  7  1  0  0  0  0
  6 34  1  0  0  0  0
  6 35  1  0  0  0  0
  7  8  1  0  0  0  0
  7 36  1  0  0  0  0
  7 37  1  0  0  0  0
  8  9  1  0  0  0  0
  8 38  1  0  0  0  0
  8 39  1  0  0  0  0
  9 10  1  0  0  0  0
  9 40  1  0  0  0  0
  9 41  1  0  0  0  0
 10 11  1  0  0  0  0
 11 16  1  0  0  0  0
 11 12  2  0  0  0  0
 12 13  1  0  0  0  0
 13 14  2  0  0  0  0
 13 42  1  0  0  0  0
 14 15  1  0  0  0  0
 15 19  1  0  0  0  0
 15 16  2  0  0  0  0
 16 17  1  0  0  0  0
 17 18  2  0  0  0  0
 18 19  1  0  0  0  0
 18 43  1  0  0  0  0
 19 20  1  0  0  0  0
 20 21  1  0  0  0  0
 20 44  1  0  0  0  0
 20 45  1  0  0  0  0
 21 22  1  0  0  0  0
 21 23  1  0  0  0  0
 21 46  1  0  0  0  0
 22 47  1  0  0  0  0
 23 27  1  0  0  0  0
 23 24  1  0  0  0  0
 23 48  1  0  0  0  0
 24 25  1  0  0  0  0
 24 49  1  0  0  0  0
 24 50  1  0  0  0  0
 25 26  1  0  0  0  0
 25 51  1  0  0  0  0
 25 52  1  0  0  0  0
 26 27  1  0  0  0  0
 26 53  1  0  0  0  0
 26 54  1  0  0  0  0
 28 29  1  0  0  0  0
 28 55  1  0  0  0  0
 28 56  1  0  0  0  0
 29 57  1  0  0  0  0
M  END
> <s_m_source_file>
AV-unprocessed.smi

> <i_m_source_file_index>
203

> <i_lp_mmshare_version>
43012

> <i_f3d_flags>
0

> <s_epik_input>
Tz1DMVtDSDJdW0NASF0oW0NIMl1bTkhdMSlbQ0BASF0yW0NIMl1bQ0gyXVtDSDJdW0NIMl1OMmMobltjSF1uMyljKGMzNCluW2NIXW40W0NIMl1bQ0BIXShbT0hdKVtDQEBIXTVbQ0gyXVtDSDJdW0NIMl1PNQ==

> <s_epik_cmdline>
J2VwaWtfcHl0aG9uJywgJy1waCcsICc3LjAnLCAnLXRuJywgJzgnLCAnLW1hJywgJzIwMCcsICctbWV0YWxfYmluZGluZycsICctaW1hZScsICc8aW5maWxlLm1hZT4nLCAnLW9tYWUnLCAnPG91dGZpbGUubWFlPic=

> <r_lp_tautomer_probability>
1

> <r_epik_Ionization_Penalty>
0.00175146

> <r_epik_Ionization_Penalty_Charging>
0

> <r_epik_Ionization_Penalty_Neutral>
0.00175146

> <r_epik_State_Penalty>
0.00109045

> <r_epik_Charging_Adjusted_Penalty>
0.00109045

> <i_epik_Tot_Q>
0

> <i_epik_Tot_abs_Q>
0

> <r_epik_Metal_State_Penalty>
-0

> <b_epik_Metal_Only>
0

> <s_lp_Force_Field>
OPLS_2005

> <r_lp_Energy>
58.3664

> <b_lp_Chiralities_Consistent>
1

> <s_lp_Variant>
AV-unprocessed.smi:203-5

> <Gold.Version>
5.8.1

> <Gold.Id.Protein>
6NUR|6NUR_protein|mol2

> <Gold.PLP.Fitness>
38.3026

> <Gold.PLP.PLP>
-35.4600

> <Gold.PLP.part.hbond>
-1.9660

> <Gold.PLP.part.metal>
0.0000

> <Gold.PLP.part.buried>
-4.7736

> <Gold.PLP.part.nonpolar>
-31.4077

> <Gold.PLP.part.repulsive>
2.8714

> <Gold.PLP.ligand.clash>
0.0000

> <Gold.PLP.ligand.torsion>
1.3867

> <Gold.PLP.Chemscore.Hbond>
1.4956

> <Gold.PLP.Chemscore.CHOScore>
0.2632

> <Gold.PLP.Chemscore.Metal>
0.0000

> <Gold.Chemscore.Hbonds>
donor molecule, donor type, donor heavy atom, donor atom, acceptor molecule, acceptor atom, score
      L1  H    22    47       P1  7948  1.00
      P1  H 10752 10765       L1     1  0.45
      L1  C    13    42       P1  7957  0.27

> <Gold.PLP.Chemscore.Internal.Correction>
0.3394

> <Gold.Rescore>
     Score         DG    S(hbond)    S(metal)    S(lipo)     H(rot)  DE(clash)    DE(int)     intcor
     10.19     -11.19       0.98        0.00      80.34       2.72       0.18       0.82       ----

> <Gold.Chemscore.Fitness>
10.1852

> <Gold.Chemscore.DG>
-11.1876

> <Gold.Chemscore.ZeroCoef>
-5.4800

> <Gold.Chemscore.Hbond>
0.9770

> <Gold.Chemscore.Metal>
0.0000

> <Gold.Chemscore.Lipo>
80.3436

> <Gold.Chemscore.Internal_Hbond>
0.0000

> <Gold.Chemscore.DEClash>
0.1849

> <Gold.Chemscore.DEInternal>
0.8175

> <Gold.Chemscore.Rot>
2.7171

> <Gold.Chemscore.Internal.Correction>
   9.000000E+99

> <Gold.Chemscore.Hbonds>
donor molecule, donor type, donor heavy atom, donor atom, acceptor molecule, acceptor atom, score
      L1  H    22    47       P1  7948  0.90
      P1  H 10752 10765       L1     1  0.01

> <Gold.Chemscore.Hbond.Weighted>
-3.2631

> <Gold.Chemscore.Metal.Weighted>
-0.0000

> <Gold.Chemscore.Lipo.Weighted>
-9.4002

> <Gold.Chemscore.Internal_Hbond.Weighted>
0.0000

> <Gold.Chemscore.DEClash.Weighted>
0.1849

> <Gold.Chemscore.DEInternal.Weighted>
0.8175

> <Gold.Chemscore.Rot.Weighted>
6.9557

> <Gold.Chemscore.Internal.Correction.Weighted>
   9.000000E+99

> <Gold.Protein.RotatedTorsions>
[ 6907 6896 6895 6894 ] final   12.51 input  -60.11 | X-H torsion
[ 7974 7965 7964 7962 ] final -175.84 input  175.53 | X-H torsion
[ 8008 7997 7996 7995 ] final    6.73 input   59.86 | X-H torsion
[ 10167 10162 10161 10158 ] final   24.60 input  -65.29 | X-H torsion
[ 10718 10713 10712 10709 ] final  103.83 input   66.30 | X-H torsion
[ 10763 10752 10751 10750 ] final -155.13 input  -60.55 | X-H torsion
[ 11005 11000 10999 10996 ] final  -92.83 input  -57.11 | X-H torsion

> <Gold.Protein.ActiveResidues>
 VAL166  LYS551  ARG553  GLY616  TRP617  ASP618  TYR619  PRO620  LYS621  CYS622 
 ASP623  PHE694  ASN695  SER759  ASP760  ASP761  ALA762  ILE779  LEU786  VAL792 
 PHE793  MET794  SER795  GLU796  ALA797  LYS798  CYS799  TRP800  GLU811  SER814 

> <Gold.Protein.RotatedAtoms>
  151.7714  135.0785  160.0360 H   0  0  0  0  0  0  0  0  0  0  0  0  # atno 6907 bound_to 6896
  152.3286  133.5928  159.5802 H   0  0  0  0  0  0  0  0  0  0  0  0  # atno 6908 bound_to 6896
  150.7409  133.9819  159.3621 H   0  0  0  0  0  0  0  0  0  0  0  0  # atno 6909 bound_to 6896
  144.7127  140.1261  143.6402 H   0  0  0  0  0  0  0  0  0  0  0  0  # atno 7974 bound_to 7965
  154.7448  140.2756  155.6342 H   0  0  0  0  0  0  0  0  0  0  0  0  # atno 8008 bound_to 7997
  156.2882  140.2690  156.2112 H   0  0  0  0  0  0  0  0  0  0  0  0  # atno 8009 bound_to 7997
  155.0212  140.0371  157.2428 H   0  0  0  0  0  0  0  0  0  0  0  0  # atno 8010 bound_to 7997
  140.5174  144.0059  150.6400 H   0  0  0  0  0  0  0  0  0  0  0  0  # atno 10167 bound_to 10162
  157.6760  131.0789  150.5615 H   0  0  0  0  0  0  0  0  0  0  0  0  # atno 10718 bound_to 10713
  154.7809  135.3174  154.7992 H   0  0  0  0  0  0  0  0  0  0  0  0  # atno 10763 bound_to 10752
  153.8704  135.6845  153.4779 H   0  0  0  0  0  0  0  0  0  0  0  0  # atno 10764 bound_to 10752
  153.1445  135.4725  154.9483 H   0  0  0  0  0  0  0  0  0  0  0  0  # atno 10765 bound_to 10752
  141.1512  133.7847  157.0075 H   0  0  0  0  0  0  0  0  0  0  0  0  # atno 11005 bound_to 11000
  145.9328  139.2617  143.1315 LP  0  0  0  0  0  0  0  0  0  0  0  0  # atno 17320 bound_to 7965
  145.9505  140.8912  143.0262 LP  0  0  0  0  0  0  0  0  0  0  0  0  # atno 17321 bound_to 7965
  140.3398  143.3026  152.0600 LP  0  0  0  0  0  0  0  0  0  0  0  0  # atno 17342 bound_to 10162
  139.4913  144.6450  151.6797 LP  0  0  0  0  0  0  0  0  0  0  0  0  # atno 17343 bound_to 10162
  156.5918  130.4331  149.5933 LP  0  0  0  0  0  0  0  0  0  0  0  0  # atno 17370 bound_to 10713
  156.2577  130.6944  151.1703 LP  0  0  0  0  0  0  0  0  0  0  0  0  # atno 17371 bound_to 10713
  140.0899  134.9598  157.1760 LP  0  0  0  0  0  0  0  0  0  0  0  0  # atno 17394 bound_to 11000
  140.3460  134.2651  155.7205 LP  0  0  0  0  0  0  0  0  0  0  0  0  # atno 17395 bound_to 11000

$$$$
