AV-unprocessed.smi:2063|AV-procd|sdf|8414|dock9
  -GOLD-   2272011103D 1   1.00000     0.00000
 Structure written by MMmdl.
 38 39  0  0  0  0  0  0  0  0  2 V2000
  152.6364  143.6622  162.0323 C   0  0  0  0  0  0  0  0  0  0  0  0
  152.3188  144.0013  160.5687 C   0  0  0  0  0  0  0  0  0  0  0  0
  151.0330  144.8244  160.4056 C   0  0  0  0  0  0  0  0  0  0  0  0
  152.3252  142.7868  159.6937 C   0  0  0  0  0  0  0  0  0  0  0  0
  151.3035  142.4533  158.8987 N   0  0  0  0  0  0  0  0  0  0  0  0
  151.5508  141.2886  158.1871 N   0  0  0  0  0  0  0  0  0  0  0  0
  152.7560  140.7617  158.4437 C   0  0  0  0  0  0  0  0  0  0  0  0
  153.1871  139.6317  157.8593 N   0  5  0  0  0  0  0  0  0  0  0  0
  152.2983  138.7702  157.3140 C   0  0  0  0  0  0  0  0  0  0  0  0
  152.1332  137.5908  157.6345 O   0  0  0  0  0  0  0  0  0  0  0  0
  151.5554  139.3100  156.3368 N   0  0  0  0  0  0  0  0  0  0  0  0
  150.5087  138.6354  155.5720 C   0  0  2  0  0  0  0  0  0  0  0  0
  151.1447  137.6199  154.6055 C   0  0  0  0  0  0  0  0  0  0  0  0
  149.6670  139.6931  154.8325 C   0  0  1  0  0  0  0  0  0  0  0  0
  148.2992  139.2054  154.3499 C   0  0  0  0  0  0  0  0  0  0  0  0
  147.4534  140.4695  154.3083 C   0  0  0  0  0  0  0  0  0  0  0  0
  148.2907  141.5052  155.0624 C   0  0  0  0  0  0  0  0  0  0  0  0
  149.3067  140.7522  155.7070 O   0  0  0  0  0  0  0  0  0  0  0  0
  153.6858  141.6782  159.6288 S   0  0  0  0  0  0  0  0  0  0  0  0
  153.5961  143.1516  162.1164 H   0  0  0  0  0  0  0  0  0  0  0  0
  151.8741  143.0124  162.4635 H   0  0  0  0  0  0  0  0  0  0  0  0
  152.6872  144.5644  162.6422 H   0  0  0  0  0  0  0  0  0  0  0  0
  153.1341  144.6357  160.2187 H   0  0  0  0  0  0  0  0  0  0  0  0
  150.8852  145.1183  159.3661 H   0  0  0  0  0  0  0  0  0  0  0  0
  151.0708  145.7347  161.0045 H   0  0  0  0  0  0  0  0  0  0  0  0
  150.1564  144.2566  160.7190 H   0  0  0  0  0  0  0  0  0  0  0  0
  151.7242  140.2798  156.1140 H   0  0  0  0  0  0  0  0  0  0  0  0
  149.8535  138.0998  156.2615 H   0  0  0  0  0  0  0  0  0  0  0  0
  150.3852  137.0701  154.0499 H   0  0  0  0  0  0  0  0  0  0  0  0
  151.7450  136.8850  155.1426 H   0  0  0  0  0  0  0  0  0  0  0  0
  151.7943  138.1148  153.8827 H   0  0  0  0  0  0  0  0  0  0  0  0
  150.2286  140.1074  153.9926 H   0  0  0  0  0  0  0  0  0  0  0  0
  148.3518  138.7023  153.3841 H   0  0  0  0  0  0  0  0  0  0  0  0
  147.8714  138.5062  155.0698 H   0  0  0  0  0  0  0  0  0  0  0  0
  147.2631  140.7958  153.2853 H   0  0  0  0  0  0  0  0  0  0  0  0
  146.4909  140.3040  154.7933 H   0  0  0  0  0  0  0  0  0  0  0  0
  148.7527  142.2062  154.3659 H   0  0  0  0  0  0  0  0  0  0  0  0
  147.7049  142.0766  155.7826 H   0  0  0  0  0  0  0  0  0  0  0  0
  1  2  1  0  0  0  0
  1 20  1  0  0  0  0
  1 21  1  0  0  0  0
  1 22  1  0  0  0  0
  2  3  1  0  0  0  0
  2  4  1  0  0  0  0
  2 23  1  0  0  0  0
  3 24  1  0  0  0  0
  3 25  1  0  0  0  0
  3 26  1  0  0  0  0
  4 19  1  0  0  0  0
  4  5  2  0  0  0  0
  5  6  1  0  0  0  0
  6  7  2  0  0  0  0
  7  8  1  0  0  0  0
  7 19  1  0  0  0  0
  8  9  1  0  0  0  0
  9 10  2  0  0  0  0
  9 11  1  0  0  0  0
 11 12  1  0  0  0  0
 11 27  1  0  0  0  0
 12 13  1  0  0  0  0
 12 14  1  0  0  0  0
 12 28  1  0  0  0  0
 13 29  1  0  0  0  0
 13 30  1  0  0  0  0
 13 31  1  0  0  0  0
 14 18  1  0  0  0  0
 14 15  1  0  0  0  0
 14 32  1  0  0  0  0
 15 16  1  0  0  0  0
 15 33  1  0  0  0  0
 15 34  1  0  0  0  0
 16 17  1  0  0  0  0
 16 35  1  0  0  0  0
 16 36  1  0  0  0  0
 17 18  1  0  0  0  0
 17 37  1  0  0  0  0
 17 38  1  0  0  0  0
M  CHG  1   8  -1
M  END
> <s_m_source_file>
AV-unprocessed.smi

> <i_m_source_file_index>
2063

> <i_lp_mmshare_version>
43012

> <i_f3d_flags>
0

> <s_epik_input>
W0NIM11bQ0hdKFtDSDNdKWMxbm5jKHMxKVtOSF1DKD1PKVtOSF1bQ0BIXShbQ0gzXSlbQ0BASF0yW0NIMl1bQ0gyXVtDSDJdTzI=

> <s_epik_cmdline>
J2VwaWtfcHl0aG9uJywgJy1waCcsICc3LjAnLCAnLXRuJywgJzgnLCAnLW1hJywgJzIwMCcsICctbWV0YWxfYmluZGluZycsICctaW1hZScsICc8aW5maWxlLm1hZT4nLCAnLW9tYWUnLCAnPG91dGZpbGUubWFlPic=

> <r_lp_tautomer_probability>
1

> <r_epik_Ionization_Penalty>
4.37022

> <r_epik_Ionization_Penalty_Charging>
4.21437

> <r_epik_Ionization_Penalty_Neutral>
0.15585

> <r_epik_State_Penalty>
4.21389

> <r_epik_Charging_Adjusted_Penalty>
8.42826

> <i_epik_Tot_Q>
-1

> <i_epik_Tot_abs_Q>
1

> <r_epik_Metal_State_Penalty>
0.693772

> <b_epik_Metal_Only>
1

> <s_lp_Force_Field>
OPLS_2005

> <r_lp_Energy>
10.221

> <b_lp_Chiralities_Consistent>
1

> <s_lp_Variant>
AV-unprocessed.smi:2063-7

> <Gold.Version>
5.8.1

> <Gold.Id.Protein>
6NUR|6NUR_protein|mol2

> <Gold.PLP.Fitness>
40.7324

> <Gold.PLP.PLP>
-36.7634

> <Gold.PLP.part.hbond>
-1.0000

> <Gold.PLP.part.metal>
0.0000

> <Gold.PLP.part.buried>
-2.3637

> <Gold.PLP.part.nonpolar>
-31.8932

> <Gold.PLP.part.repulsive>
0.2251

> <Gold.PLP.ligand.clash>
0.0000

> <Gold.PLP.ligand.torsion>
1.0714

> <Gold.PLP.Chemscore.Hbond>
2.0000

> <Gold.PLP.Chemscore.CHOScore>
0.0000

> <Gold.PLP.Chemscore.Metal>
0.0000

> <Gold.Chemscore.Hbonds>
donor molecule, donor type, donor heavy atom, donor atom, acceptor molecule, acceptor atom, score
      P1  H  7997  8009       L1     8  2.00

> <Gold.PLP.Chemscore.Internal.Correction>
0.1119

> <Gold.Rescore>
     Score         DG    S(hbond)    S(metal)    S(lipo)     H(rot)  DE(clash)    DE(int)     intcor
     14.62     -15.84       0.76        0.00      97.32       1.39       0.10       1.13       ----

> <Gold.Chemscore.Fitness>
14.6161

> <Gold.Chemscore.DG>
-15.8431

> <Gold.Chemscore.ZeroCoef>
-5.4800

> <Gold.Chemscore.Hbond>
0.7586

> <Gold.Chemscore.Metal>
0.0000

> <Gold.Chemscore.Lipo>
97.3180

> <Gold.Chemscore.Internal_Hbond>
0.0000

> <Gold.Chemscore.DEClash>
0.0993

> <Gold.Chemscore.DEInternal>
1.1277

> <Gold.Chemscore.Rot>
1.3893

> <Gold.Chemscore.Internal.Correction>
   9.000000E+99

> <Gold.Chemscore.Hbonds>
donor molecule, donor type, donor heavy atom, donor atom, acceptor molecule, acceptor atom, score
      P1  H  7997  8009       L1     8  0.54

> <Gold.Chemscore.Hbond.Weighted>
-2.5336

> <Gold.Chemscore.Metal.Weighted>
-0.0000

> <Gold.Chemscore.Lipo.Weighted>
-11.3862

> <Gold.Chemscore.Internal_Hbond.Weighted>
0.0000

> <Gold.Chemscore.DEClash.Weighted>
0.0993

> <Gold.Chemscore.DEInternal.Weighted>
1.1277

> <Gold.Chemscore.Rot.Weighted>
3.5567

> <Gold.Chemscore.Internal.Correction.Weighted>
   9.000000E+99

> <Gold.Protein.RotatedTorsions>
[ 6907 6896 6895 6894 ] final   30.62 input  -60.11 | X-H torsion
[ 7974 7965 7964 7962 ] final  -16.98 input  175.53 | X-H torsion
[ 8008 7997 7996 7995 ] final  149.86 input   59.86 | X-H torsion
[ 10167 10162 10161 10158 ] final  -55.30 input  -65.29 | X-H torsion
[ 10718 10713 10712 10709 ] final  161.40 input   66.30 | X-H torsion
[ 10763 10752 10751 10750 ] final  142.81 input  -60.55 | X-H torsion
[ 11005 11000 10999 10996 ] final -153.58 input  -57.11 | X-H torsion

> <Gold.Protein.ActiveResidues>
 VAL166  LYS551  ARG553  GLY616  TRP617  ASP618  TYR619  PRO620  LYS621  CYS622 
 ASP623  PHE694  ASN695  SER759  ASP760  ASP761  ALA762  ILE779  LEU786  VAL792 
 PHE793  MET794  SER795  GLU796  ALA797  LYS798  CYS799  TRP800  GLU811  SER814 

> <Gold.Protein.RotatedAtoms>
  152.0485  134.9668  160.0574 H   0  0  0  0  0  0  0  0  0  0  0  0  # atno 6907 bound_to 6896
  152.1078  133.4279  159.4625 H   0  0  0  0  0  0  0  0  0  0  0  0  # atno 6908 bound_to 6896
  150.6842  134.2603  159.4590 H   0  0  0  0  0  0  0  0  0  0  0  0  # atno 6909 bound_to 6896
  146.1962  140.3714  142.8439 H   0  0  0  0  0  0  0  0  0  0  0  0  # atno 7974 bound_to 7965
  156.2738  140.2090  156.5925 H   0  0  0  0  0  0  0  0  0  0  0  0  # atno 8008 bound_to 7997
  154.6971  140.0524  157.0444 H   0  0  0  0  0  0  0  0  0  0  0  0  # atno 8009 bound_to 7997
  155.0786  140.3184  155.4611 H   0  0  0  0  0  0  0  0  0  0  0  0  # atno 8010 bound_to 7997
  140.6382  143.2493  151.5060 H   0  0  0  0  0  0  0  0  0  0  0  0  # atno 10167 bound_to 10162
  157.1371  131.0531  151.2344 H   0  0  0  0  0  0  0  0  0  0  0  0  # atno 10718 bound_to 10713
  153.9619  135.2959  155.3433 H   0  0  0  0  0  0  0  0  0  0  0  0  # atno 10763 bound_to 10752
  154.7370  135.5042  153.9061 H   0  0  0  0  0  0  0  0  0  0  0  0  # atno 10764 bound_to 10752
  153.0942  135.6716  153.9905 H   0  0  0  0  0  0  0  0  0  0  0  0  # atno 10765 bound_to 10752
  140.7066  134.3879  157.5203 H   0  0  0  0  0  0  0  0  0  0  0  0  # atno 11005 bound_to 11000
  144.8586  140.7107  143.6122 LP  0  0  0  0  0  0  0  0  0  0  0  0  # atno 17320 bound_to 7965
  145.3634  139.1676  143.4371 LP  0  0  0  0  0  0  0  0  0  0  0  0  # atno 17321 bound_to 7965
  139.5592  144.2199  152.1663 LP  0  0  0  0  0  0  0  0  0  0  0  0  # atno 17342 bound_to 10162
  140.1461  144.5157  150.6715 LP  0  0  0  0  0  0  0  0  0  0  0  0  # atno 17343 bound_to 10162
  157.4341  130.7507  149.7014 LP  0  0  0  0  0  0  0  0  0  0  0  0  # atno 17370 bound_to 10713
  155.9796  130.4038  150.3578 LP  0  0  0  0  0  0  0  0  0  0  0  0  # atno 17371 bound_to 10713
  139.8882  134.8861  156.2484 LP  0  0  0  0  0  0  0  0  0  0  0  0  # atno 17394 bound_to 11000
  141.0119  133.7090  156.1126 LP  0  0  0  0  0  0  0  0  0  0  0  0  # atno 17395 bound_to 11000

$$$$
