AV-unprocessed.smi:2831|AV-procd|sdf|10911|dock9
  -GOLD-   2272015353D 1   1.00000     0.00000
 Structure written by MMmdl.
 29 30  0  0  0  0  0  0  0  0  2 V2000
  147.1712  133.6860  162.3288 C   0  0  0  0  0  0  0  0  0  0  0  0
  147.4428  134.9625  161.6094 C   0  0  0  0  0  0  0  0  0  0  0  0
  147.1871  136.1605  162.1405 N   0  0  0  0  0  0  0  0  0  0  0  0
  147.5268  137.1961  161.2817 N   0  0  0  0  0  0  0  0  0  0  0  0
  148.0437  136.7686  160.1209 C   0  0  0  0  0  0  0  0  0  0  0  0
  148.4361  137.6121  159.1518 N   0  5  0  0  0  0  0  0  0  0  0  0
  149.3900  137.2336  158.2711 C   0  0  0  0  0  0  0  0  0  0  0  0
  150.1948  136.3125  158.4246 O   0  0  0  0  0  0  0  0  0  0  0  0
  149.4018  137.9705  157.1473 N   0  0  0  0  0  0  0  0  0  0  0  0
  150.2795  137.8690  155.9723 C   0  0  2  0  0  0  0  0  0  0  0  0
  150.0604  136.4754  155.3542 C   0  0  0  0  0  0  0  0  0  0  0  0
  151.7673  138.0783  156.3062 C   0  0  0  0  0  0  0  0  0  0  0  0
  152.1592  139.3252  155.5154 C   0  0  0  0  0  0  0  0  0  0  0  0
  151.2683  139.3109  154.4137 O   0  0  0  0  0  0  0  0  0  0  0  0
  149.9910  138.9699  154.9291 C   0  0  0  0  0  0  0  0  0  0  0  0
  148.1279  135.0117  159.9939 S   0  0  0  0  0  0  0  0  0  0  0  0
  147.9769  133.4771  163.0327 H   0  0  0  0  0  0  0  0  0  0  0  0
  147.1016  132.8606  161.6203 H   0  0  0  0  0  0  0  0  0  0  0  0
  146.2317  133.7535  162.8779 H   0  0  0  0  0  0  0  0  0  0  0  0
  148.7087  138.7033  157.1040 H   0  0  0  0  0  0  0  0  0  0  0  0
  150.6624  136.3398  154.4547 H   0  0  0  0  0  0  0  0  0  0  0  0
  149.0169  136.3248  155.0748 H   0  0  0  0  0  0  0  0  0  0  0  0
  150.3309  135.6850  156.0554 H   0  0  0  0  0  0  0  0  0  0  0  0
  151.9755  138.1909  157.3708 H   0  0  0  0  0  0  0  0  0  0  0  0
  152.3642  137.2337  155.9596 H   0  0  0  0  0  0  0  0  0  0  0  0
  151.9987  140.2300  156.1031 H   0  0  0  0  0  0  0  0  0  0  0  0
  153.2000  139.3082  155.1918 H   0  0  0  0  0  0  0  0  0  0  0  0
  149.3228  138.6403  154.1329 H   0  0  0  0  0  0  0  0  0  0  0  0
  149.5495  139.8637  155.3711 H   0  0  0  0  0  0  0  0  0  0  0  0
  1  2  1  0  0  0  0
  1 17  1  0  0  0  0
  1 18  1  0  0  0  0
  1 19  1  0  0  0  0
  2 16  1  0  0  0  0
  2  3  2  0  0  0  0
  3  4  1  0  0  0  0
  4  5  2  0  0  0  0
  5  6  1  0  0  0  0
  5 16  1  0  0  0  0
  6  7  1  0  0  0  0
  7  8  2  0  0  0  0
  7  9  1  0  0  0  0
  9 10  1  0  0  0  0
  9 20  1  0  0  0  0
 10 15  1  0  0  0  0
 10 11  1  0  0  0  0
 10 12  1  0  0  0  0
 11 21  1  0  0  0  0
 11 22  1  0  0  0  0
 11 23  1  0  0  0  0
 12 13  1  0  0  0  0
 12 24  1  0  0  0  0
 12 25  1  0  0  0  0
 13 14  1  0  0  0  0
 13 26  1  0  0  0  0
 13 27  1  0  0  0  0
 14 15  1  0  0  0  0
 15 28  1  0  0  0  0
 15 29  1  0  0  0  0
M  CHG  1   6  -1
M  END
> <s_m_source_file>
AV-unprocessed.smi

> <i_m_source_file_index>
2831

> <i_lp_mmshare_version>
43012

> <i_f3d_flags>
0

> <s_epik_input>
W0NIM11jMW5uYyhzMSlbTkhdQyg9TylbTkhdW0NAQF0yKFtDSDNdKVtDSDJdW0NIMl1PW0NIMl0y

> <s_epik_cmdline>
J2VwaWtfcHl0aG9uJywgJy1waCcsICc3LjAnLCAnLXRuJywgJzgnLCAnLW1hJywgJzIwMCcsICctbWV0YWxfYmluZGluZycsICctaW1hZScsICc8aW5maWxlLm1hZT4nLCAnLW9tYWUnLCAnPG91dGZpbGUubWFlPic=

> <r_lp_tautomer_probability>
1

> <r_epik_Ionization_Penalty>
3.33648

> <r_epik_Ionization_Penalty_Charging>
3.18522

> <r_epik_Ionization_Penalty_Neutral>
0.151254

> <r_epik_State_Penalty>
3.18248

> <r_epik_Charging_Adjusted_Penalty>
6.3677

> <i_epik_Tot_Q>
-1

> <i_epik_Tot_abs_Q>
1

> <r_epik_Metal_State_Penalty>
0.469716

> <b_epik_Metal_Only>
1

> <s_lp_Force_Field>
OPLS_2005

> <r_lp_Energy>
14.5797

> <b_lp_Chiralities_Consistent>
1

> <s_lp_Variant>
AV-unprocessed.smi:2831-4

> <Gold.Version>
5.8.1

> <Gold.Id.Protein>
6NUR|6NUR_protein|mol2

> <Gold.PLP.Fitness>
35.4748

> <Gold.PLP.PLP>
-24.4582

> <Gold.PLP.part.hbond>
-4.6069

> <Gold.PLP.part.metal>
0.0000

> <Gold.PLP.part.buried>
-3.5047

> <Gold.PLP.part.nonpolar>
-16.1633

> <Gold.PLP.part.repulsive>
0.1392

> <Gold.PLP.ligand.clash>
0.0000

> <Gold.PLP.ligand.torsion>
0.2332

> <Gold.PLP.Chemscore.Hbond>
3.8240

> <Gold.PLP.Chemscore.CHOScore>
0.0000

> <Gold.PLP.Chemscore.Metal>
0.0000

> <Gold.Chemscore.Hbonds>
donor molecule, donor type, donor heavy atom, donor atom, acceptor molecule, acceptor atom, score
      P1  H  6896  6908       L1     8  1.00
      P1  H  6931  6943       L1     4  0.87
      P1  H  6934  6947       L1     4  0.91
      P1  H  7989  7998       L1    14  1.00

> <Gold.PLP.Chemscore.Internal.Correction>
0.0109

> <Gold.Rescore>
     Score         DG    S(hbond)    S(metal)    S(lipo)     H(rot)  DE(clash)    DE(int)     intcor
     15.99     -17.41       2.67        0.00      47.51       1.00       0.19       1.23       ----

> <Gold.Chemscore.Fitness>
15.9933

> <Gold.Chemscore.DG>
-17.4108

> <Gold.Chemscore.ZeroCoef>
-5.4800

> <Gold.Chemscore.Hbond>
2.6745

> <Gold.Chemscore.Metal>
0.0000

> <Gold.Chemscore.Lipo>
47.5053

> <Gold.Chemscore.Internal_Hbond>
0.0000

> <Gold.Chemscore.DEClash>
0.1889

> <Gold.Chemscore.DEInternal>
1.2286

> <Gold.Chemscore.Rot>
1.0000

> <Gold.Chemscore.Internal.Correction>
   9.000000E+99

> <Gold.Chemscore.Hbonds>
donor molecule, donor type, donor heavy atom, donor atom, acceptor molecule, acceptor atom, score
      P1  H  6896  6908       L1     8  0.89
      P1  H  6931  6943       L1     4  0.17
      P1  H  6934  6947       L1     4  0.35
      P1  H  7989  7998       L1    14  0.50

> <Gold.Chemscore.Hbond.Weighted>
-8.9327

> <Gold.Chemscore.Metal.Weighted>
-0.0000

> <Gold.Chemscore.Lipo.Weighted>
-5.5581

> <Gold.Chemscore.Internal_Hbond.Weighted>
0.0000

> <Gold.Chemscore.DEClash.Weighted>
0.1889

> <Gold.Chemscore.DEInternal.Weighted>
1.2286

> <Gold.Chemscore.Rot.Weighted>
2.5600

> <Gold.Chemscore.Internal.Correction.Weighted>
   9.000000E+99

> <Gold.Protein.RotatedTorsions>
[ 6907 6896 6895 6894 ] final -171.93 input  -60.11 | X-H torsion
[ 7974 7965 7964 7962 ] final   -9.72 input  175.53 | X-H torsion
[ 8008 7997 7996 7995 ] final   48.74 input   59.86 | X-H torsion
[ 10167 10162 10161 10158 ] final  118.45 input  -65.29 | X-H torsion
[ 10718 10713 10712 10709 ] final   69.39 input   66.30 | X-H torsion
[ 10763 10752 10751 10750 ] final   48.56 input  -60.55 | X-H torsion
[ 11005 11000 10999 10996 ] final  -55.65 input  -57.11 | X-H torsion

> <Gold.Protein.ActiveResidues>
 VAL166  LYS551  ARG553  GLY616  TRP617  ASP618  TYR619  PRO620  LYS621  CYS622 
 ASP623  PHE694  ASN695  SER759  ASP760  ASP761  ALA762  ILE779  LEU786  VAL792 
 PHE793  MET794  SER795  GLU796  ALA797  LYS798  CYS799  TRP800  GLU811  SER814 

> <Gold.Protein.RotatedAtoms>
  151.5317  133.3448  159.2919 H   0  0  0  0  0  0  0  0  0  0  0  0  # atno 6907 bound_to 6896
  150.8589  134.7938  159.7078 H   0  0  0  0  0  0  0  0  0  0  0  0  # atno 6908 bound_to 6896
  152.4614  134.5183  159.9826 H   0  0  0  0  0  0  0  0  0  0  0  0  # atno 6909 bound_to 6896
  146.2243  140.2658  142.8354 H   0  0  0  0  0  0  0  0  0  0  0  0  # atno 7974 bound_to 7965
  155.3907  140.3433  155.4251 H   0  0  0  0  0  0  0  0  0  0  0  0  # atno 8008 bound_to 7997
  156.1559  140.1585  156.8726 H   0  0  0  0  0  0  0  0  0  0  0  0  # atno 8009 bound_to 7997
  154.5094  140.0794  156.7941 H   0  0  0  0  0  0  0  0  0  0  0  0  # atno 8010 bound_to 7997
  139.6111  144.7082  151.2842 H   0  0  0  0  0  0  0  0  0  0  0  0  # atno 10167 bound_to 10162
  157.6343  130.9423  150.0507 H   0  0  0  0  0  0  0  0  0  0  0  0  # atno 10718 bound_to 10713
  152.9791  135.5940  154.3946 H   0  0  0  0  0  0  0  0  0  0  0  0  # atno 10763 bound_to 10752
  154.3597  135.2767  155.2328 H   0  0  0  0  0  0  0  0  0  0  0  0  # atno 10764 bound_to 10752
  154.4331  135.6031  153.6136 H   0  0  0  0  0  0  0  0  0  0  0  0  # atno 10765 bound_to 10752
  141.1084  133.6612  156.4501 H   0  0  0  0  0  0  0  0  0  0  0  0  # atno 11005 bound_to 11000
  144.9305  140.7970  143.5692 LP  0  0  0  0  0  0  0  0  0  0  0  0  # atno 17320 bound_to 7965
  145.2601  139.1996  143.4896 LP  0  0  0  0  0  0  0  0  0  0  0  0  # atno 17321 bound_to 7965
  140.7319  143.6837  150.7979 LP  0  0  0  0  0  0  0  0  0  0  0  0  # atno 17342 bound_to 10162
  140.0432  143.5325  152.2708 LP  0  0  0  0  0  0  0  0  0  0  0  0  # atno 17343 bound_to 10162
  156.1570  130.3643  149.9354 LP  0  0  0  0  0  0  0  0  0  0  0  0  # atno 17370 bound_to 10713
  156.7361  130.9062  151.3629 LP  0  0  0  0  0  0  0  0  0  0  0  0  # atno 17371 bound_to 10713
  140.4842  134.6636  157.5184 LP  0  0  0  0  0  0  0  0  0  0  0  0  # atno 17394 bound_to 11000
  139.9965  134.6904  155.9601 LP  0  0  0  0  0  0  0  0  0  0  0  0  # atno 17395 bound_to 11000

$$$$
