AV-unprocessed.smi:2137|AV-procd|sdf|8709|dock9
  -GOLD-   2272011473D 1   1.00000     0.00000
 Structure written by MMmdl.
 50 51  0  0  0  0  0  0  0  0  2 V2000
  145.9532  131.7341  151.9373 C   0  0  0  0  0  0  0  0  0  0  0  0
  146.2728  133.2339  151.8667 C   0  0  1  0  0  0  0  0  0  0  0  0
  145.2191  133.9950  151.0447 C   0  0  0  0  0  0  0  0  0  0  0  0
  145.5492  135.4924  151.0138 C   0  0  0  0  0  0  0  0  0  0  0  0
  145.6952  136.0530  152.4374 C   0  0  0  0  0  0  0  0  0  0  0  0
  146.7215  135.3022  153.2063 N   0  3  1  0  0  0  0  0  0  0  0  0
  146.9794  135.9060  154.5383 C   0  0  0  0  0  0  0  0  0  0  0  0
  147.7972  134.9790  155.4543 C   0  0  0  0  0  0  0  0  0  0  0  0
  149.1226  134.5479  154.8127 C   0  0  0  0  0  0  0  0  0  0  0  0
  149.8624  135.7112  154.3405 N   0  0  0  0  0  0  0  0  0  0  0  0
  150.9890  136.1809  154.8950 C   0  0  0  0  0  0  0  0  0  0  0  0
  151.5077  135.6851  155.8958 O   0  0  0  0  0  0  0  0  0  0  0  0
  151.6099  137.4137  154.2253 C   0  0  0  0  0  0  0  0  0  0  0  0
  150.7913  138.6207  154.3966 N   0  0  0  0  0  0  0  0  0  0  0  0
  149.5108  138.6620  153.8756 C   0  0  0  0  0  0  0  0  0  0  0  0
  148.6939  139.7316  153.9917 C   0  0  0  0  0  0  0  0  0  0  0  0
  149.1282  140.9323  154.6952 C   0  0  0  0  0  0  0  0  0  0  0  0
  148.4263  141.9386  154.8039 O   0  0  0  0  0  0  0  0  0  0  0  0
  150.4343  140.8569  155.2347 N   0  0  0  0  0  0  0  0  0  0  0  0
  150.9504  142.0145  155.9360 C   0  0  0  0  0  0  0  0  0  0  0  0
  151.2910  139.7417  155.0944 C   0  0  0  0  0  0  0  0  0  0  0  0
  152.4364  139.7342  155.5528 O   0  0  0  0  0  0  0  0  0  0  0  0
  146.3986  133.8510  153.2743 C   0  0  0  0  0  0  0  0  0  0  0  0
  144.9964  131.5545  152.4290 H   0  0  0  0  0  0  0  0  0  0  0  0
  146.7199  131.1939  152.4937 H   0  0  0  0  0  0  0  0  0  0  0  0
  145.9022  131.2967  150.9397 H   0  0  0  0  0  0  0  0  0  0  0  0
  147.2358  133.3406  151.3646 H   0  0  0  0  0  0  0  0  0  0  0  0
  145.1761  133.6034  150.0276 H   0  0  0  0  0  0  0  0  0  0  0  0
  144.2287  133.8472  151.4780 H   0  0  0  0  0  0  0  0  0  0  0  0
  146.4745  135.6531  150.4584 H   0  0  0  0  0  0  0  0  0  0  0  0
  144.7692  136.0340  150.4779 H   0  0  0  0  0  0  0  0  0  0  0  0
  145.9742  137.1059  152.3772 H   0  0  0  0  0  0  0  0  0  0  0  0
  144.7391  136.0071  152.9614 H   0  0  0  0  0  0  0  0  0  0  0  0
  147.5439  136.8309  154.4109 H   0  0  0  0  0  0  0  0  0  0  0  0
  146.0353  136.1853  155.0085 H   0  0  0  0  0  0  0  0  0  0  0  0
  148.0137  135.4742  156.4008 H   0  0  0  0  0  0  0  0  0  0  0  0
  147.2059  134.0945  155.6955 H   0  0  0  0  0  0  0  0  0  0  0  0
  149.7382  134.0088  155.5338 H   0  0  0  0  0  0  0  0  0  0  0  0
  148.9200  133.8627  153.9875 H   0  0  0  0  0  0  0  0  0  0  0  0
  149.5013  136.1869  153.5262 H   0  0  0  0  0  0  0  0  0  0  0  0
  152.6160  137.5863  154.6120 H   0  0  0  0  0  0  0  0  0  0  0  0
  151.7365  137.1952  153.1642 H   0  0  0  0  0  0  0  0  0  0  0  0
  149.1413  137.7952  153.3473 H   0  0  0  0  0  0  0  0  0  0  0  0
  147.7057  139.6992  153.5568 H   0  0  0  0  0  0  0  0  0  0  0  0
  151.6017  141.6830  156.7462 H   0  0  0  0  0  0  0  0  0  0  0  0
  150.1279  142.5786  156.3775 H   0  0  0  0  0  0  0  0  0  0  0  0
  151.4952  142.6117  155.2035 H   0  0  0  0  0  0  0  0  0  0  0  0
  145.4707  133.7114  153.8318 H   0  0  0  0  0  0  0  0  0  0  0  0
  147.1757  133.3203  153.8230 H   0  0  0  0  0  0  0  0  0  0  0  0
  147.5806  135.3891  152.6823 H   0  0  0  0  0  0  0  0  0  0  0  0
  1  2  1  0  0  0  0
  1 24  1  0  0  0  0
  1 25  1  0  0  0  0
  1 26  1  0  0  0  0
  2 23  1  0  0  0  0
  2  3  1  0  0  0  0
  2 27  1  0  0  0  0
  3  4  1  0  0  0  0
  3 28  1  0  0  0  0
  3 29  1  0  0  0  0
  4  5  1  0  0  0  0
  4 30  1  0  0  0  0
  4 31  1  0  0  0  0
  5  6  1  0  0  0  0
  5 32  1  0  0  0  0
  5 33  1  0  0  0  0
  6  7  1  0  0  0  0
  6 23  1  0  0  0  0
  6 50  1  0  0  0  0
  7  8  1  0  0  0  0
  7 34  1  0  0  0  0
  7 35  1  0  0  0  0
  8  9  1  0  0  0  0
  8 36  1  0  0  0  0
  8 37  1  0  0  0  0
  9 10  1  0  0  0  0
  9 38  1  0  0  0  0
  9 39  1  0  0  0  0
 10 11  1  0  0  0  0
 10 40  1  0  0  0  0
 11 12  2  0  0  0  0
 11 13  1  0  0  0  0
 13 14  1  0  0  0  0
 13 41  1  0  0  0  0
 13 42  1  0  0  0  0
 14 21  1  0  0  0  0
 14 15  1  0  0  0  0
 15 16  2  0  0  0  0
 15 43  1  0  0  0  0
 16 17  1  0  0  0  0
 16 44  1  0  0  0  0
 17 18  2  0  0  0  0
 17 19  1  0  0  0  0
 19 20  1  0  0  0  0
 19 21  1  0  0  0  0
 20 45  1  0  0  0  0
 20 46  1  0  0  0  0
 20 47  1  0  0  0  0
 21 22  2  0  0  0  0
 23 48  1  0  0  0  0
 23 49  1  0  0  0  0
M  CHG  1   6   1
M  END
> <s_m_source_file>
AV-unprocessed.smi

> <i_m_source_file_index>
2137

> <i_lp_mmshare_version>
43012

> <i_f3d_flags>
0

> <s_epik_input>
W0NIM11bQ0BASF0xW0NIMl1bQ0gyXVtDSDJdTihbQ0gyXTEpW0NIMl1bQ0gyXVtDSDJdW05IXUMoPU8pW0NIMl1uMltjSF1bY0hdYyg9TyluKFtDSDNdKWMyPU8=

> <s_epik_cmdline>
J2VwaWtfcHl0aG9uJywgJy1waCcsICc3LjAnLCAnLXRuJywgJzgnLCAnLW1hJywgJzIwMCcsICctbWV0YWxfYmluZGluZycsICctaW1hZScsICc8aW5maWxlLm1hZT4nLCAnLW9tYWUnLCAnPG91dGZpbGUubWFlPic=

> <r_lp_tautomer_probability>
1

> <r_epik_Ionization_Penalty>
0.000384839

> <r_epik_Ionization_Penalty_Charging>
0.000384812

> <r_epik_Ionization_Penalty_Neutral>
2.6907e-08

> <r_epik_State_Penalty>
0.000235226

> <r_epik_Charging_Adjusted_Penalty>
0.000620038

> <i_epik_Tot_Q>
1

> <i_epik_Tot_abs_Q>
1

> <r_epik_Metal_State_Penalty>
-0

> <b_epik_Metal_Only>
0

> <s_lp_Force_Field>
OPLS_2005

> <r_lp_Energy>
25.3587

> <b_lp_Chiralities_Consistent>
1

> <s_lp_Variant>
AV-unprocessed.smi:2137-4

> <Gold.Version>
5.8.1

> <Gold.Id.Protein>
6NUR|6NUR_protein|mol2

> <Gold.PLP.Fitness>
55.8749

> <Gold.PLP.PLP>
-38.8885

> <Gold.PLP.part.hbond>
-4.7888

> <Gold.PLP.part.metal>
0.0000

> <Gold.PLP.part.buried>
-0.7741

> <Gold.PLP.part.nonpolar>
-36.0143

> <Gold.PLP.part.repulsive>
2.4439

> <Gold.PLP.ligand.clash>
0.0000

> <Gold.PLP.ligand.torsion>
0.2900

> <Gold.PLP.Chemscore.Hbond>
4.8240

> <Gold.PLP.Chemscore.CHOScore>
1.0000

> <Gold.PLP.Chemscore.Metal>
0.0000

> <Gold.Chemscore.Hbonds>
donor molecule, donor type, donor heavy atom, donor atom, acceptor molecule, acceptor atom, score
      L1  H     6    50       P1  7948  2.00
      L1  H    10    40       P1  7948  1.00
      P1  H  7997  8010       L1    22  0.94
      P1  H 10752 10763       L1    12  0.83
      L1  C    15    43       P1  7948  1.00

> <Gold.PLP.Chemscore.Internal.Correction>
0.0943

> <Gold.Rescore>
     Score         DG    S(hbond)    S(metal)    S(lipo)     H(rot)  DE(clash)    DE(int)     intcor
     16.64     -18.55       3.13        0.00      72.21       2.27       1.59       0.33       ----

> <Gold.Chemscore.Fitness>
16.6366

> <Gold.Chemscore.DG>
-18.5544

> <Gold.Chemscore.ZeroCoef>
-5.4800

> <Gold.Chemscore.Hbond>
3.1285

> <Gold.Chemscore.Metal>
0.0000

> <Gold.Chemscore.Lipo>
72.2087

> <Gold.Chemscore.Internal_Hbond>
0.0000

> <Gold.Chemscore.DEClash>
1.5870

> <Gold.Chemscore.DEInternal>
0.3308

> <Gold.Chemscore.Rot>
2.2748

> <Gold.Chemscore.Internal.Correction>
   9.000000E+99

> <Gold.Chemscore.Hbonds>
donor molecule, donor type, donor heavy atom, donor atom, acceptor molecule, acceptor atom, score
      L1  H     6    50       P1  7948  0.99
      L1  H    10    40       P1  7948  0.53
      P1  H  7997  8010       L1    22  0.90
      P1  H 10752 10763       L1    12  0.14

> <Gold.Chemscore.Hbond.Weighted>
-10.4493

> <Gold.Chemscore.Metal.Weighted>
-0.0000

> <Gold.Chemscore.Lipo.Weighted>
-8.4484

> <Gold.Chemscore.Internal_Hbond.Weighted>
0.0000

> <Gold.Chemscore.DEClash.Weighted>
1.5870

> <Gold.Chemscore.DEInternal.Weighted>
0.3308

> <Gold.Chemscore.Rot.Weighted>
5.8234

> <Gold.Chemscore.Internal.Correction.Weighted>
   9.000000E+99

> <Gold.Protein.RotatedTorsions>
[ 6907 6896 6895 6894 ] final   39.60 input  -60.11 | X-H torsion
[ 7974 7965 7964 7962 ] final -150.34 input  175.53 | X-H torsion
[ 8008 7997 7996 7995 ] final   90.93 input   59.86 | X-H torsion
[ 10167 10162 10161 10158 ] final  175.78 input  -65.29 | X-H torsion
[ 10718 10713 10712 10709 ] final   95.94 input   66.30 | X-H torsion
[ 10763 10752 10751 10750 ] final  100.41 input  -60.55 | X-H torsion
[ 11005 11000 10999 10996 ] final -147.57 input  -57.11 | X-H torsion

> <Gold.Protein.ActiveResidues>
 VAL166  LYS551  ARG553  GLY616  TRP617  ASP618  TYR619  PRO620  LYS621  CYS622 
 ASP623  PHE694  ASN695  SER759  ASP760  ASP761  ALA762  ILE779  LEU786  VAL792 
 PHE793  MET794  SER795  GLU796  ALA797  LYS798  CYS799  TRP800  GLU811  SER814 

> <Gold.Protein.RotatedAtoms>
  152.1717  134.8828  160.0533 H   0  0  0  0  0  0  0  0  0  0  0  0  # atno 6907 bound_to 6896
  151.9786  133.3745  159.4107 H   0  0  0  0  0  0  0  0  0  0  0  0  # atno 6908 bound_to 6896
  150.6903  134.3986  159.5152 H   0  0  0  0  0  0  0  0  0  0  0  0  # atno 6909 bound_to 6896
  144.7913  140.4945  143.5770 H   0  0  0  0  0  0  0  0  0  0  0  0  # atno 7974 bound_to 7965
  156.0177  140.3343  155.7006 H   0  0  0  0  0  0  0  0  0  0  0  0  # atno 8008 bound_to 7997
  155.6067  140.0661  157.2735 H   0  0  0  0  0  0  0  0  0  0  0  0  # atno 8009 bound_to 7997
  154.4304  140.1801  156.1217 H   0  0  0  0  0  0  0  0  0  0  0  0  # atno 8010 bound_to 7997
  139.5190  144.2991  152.0395 H   0  0  0  0  0  0  0  0  0  0  0  0  # atno 10167 bound_to 10162
  157.6933  131.0562  150.4416 H   0  0  0  0  0  0  0  0  0  0  0  0  # atno 10718 bound_to 10713
  153.3136  135.4080  155.1357 H   0  0  0  0  0  0  0  0  0  0  0  0  # atno 10763 bound_to 10752
  154.8582  135.3570  154.5690 H   0  0  0  0  0  0  0  0  0  0  0  0  # atno 10764 bound_to 10752
  153.6120  135.7067  153.5402 H   0  0  0  0  0  0  0  0  0  0  0  0  # atno 10765 bound_to 10752
  140.7703  134.3197  157.5077 H   0  0  0  0  0  0  0  0  0  0  0  0  # atno 11005 bound_to 11000
  145.5786  139.1487  143.3248 LP  0  0  0  0  0  0  0  0  0  0  0  0  # atno 17320 bound_to 7965
  146.2166  140.5917  142.9035 LP  0  0  0  0  0  0  0  0  0  0  0  0  # atno 17321 bound_to 7965
  140.2439  144.4240  150.6248 LP  0  0  0  0  0  0  0  0  0  0  0  0  # atno 17342 bound_to 10162
  140.6271  143.2182  151.6573 LP  0  0  0  0  0  0  0  0  0  0  0  0  # atno 17343 bound_to 10162
  156.4774  130.4066  149.6482 LP  0  0  0  0  0  0  0  0  0  0  0  0  # atno 17370 bound_to 10713
  156.3540  130.7447  151.2410 LP  0  0  0  0  0  0  0  0  0  0  0  0  # atno 17371 bound_to 10713
  139.8757  134.9257  156.3380 LP  0  0  0  0  0  0  0  0  0  0  0  0  # atno 17394 bound_to 11000
  140.9580  133.7407  156.0362 LP  0  0  0  0  0  0  0  0  0  0  0  0  # atno 17395 bound_to 11000

$$$$
