AV-unprocessed.smi:365|AV-procd|sdf|2428|dock3
  -GOLD-   2262022363D 1   1.00000     0.00000
 Structure written by MMmdl.
 53 54  0  0  0  0  0  0  0  0  1 V2000
  153.9320  136.7062  164.1530 C   0  0  0  0  0  0  0  0  0  0  0  0
  154.6546  135.6941  163.2413 C   0  0  1  0  0  0  0  0  0  0  0  0
  154.4072  134.2927  163.5975 N   0  0  0  0  0  0  0  0  0  0  0  0
  155.1068  133.4936  164.4262 C   0  0  0  0  0  0  0  0  0  0  0  0
  156.0904  133.8796  165.0586 O   0  0  0  0  0  0  0  0  0  0  0  0
  154.5966  132.0401  164.5720 C   0  0  0  0  0  0  0  0  0  0  0  0
  155.4933  131.2844  165.5748 C   0  0  0  0  0  0  0  0  0  0  0  0
  154.6492  131.3059  163.2128 C   0  0  0  0  0  0  0  0  0  0  0  0
  153.1341  132.0445  165.0673 C   0  0  0  0  0  0  0  0  0  0  0  0
  154.4755  135.9730  161.7423 C   0  0  0  0  0  0  0  0  0  0  0  0
  154.2818  135.0512  160.9492 O   0  0  0  0  0  0  0  0  0  0  0  0
  154.5181  137.2619  161.3711 N   0  0  0  0  0  0  0  0  0  0  0  0
  154.3239  137.7488  160.0093 C   0  0  0  0  0  0  0  0  0  0  0  0
  153.7801  139.1680  159.9304 C   0  0  0  0  0  0  0  0  0  0  0  0
  154.0485  140.0896  160.9603 C   0  0  0  0  0  0  0  0  0  0  0  0
  153.5201  141.3920  160.8726 C   0  0  0  0  0  0  0  0  0  0  0  0
  152.7249  141.7446  159.7518 C   0  0  0  0  0  0  0  0  0  0  0  0
  152.1668  143.0360  159.5986 N   0  0  0  0  0  0  0  0  0  0  0  0
  152.2614  143.9349  160.7499 C   0  0  0  0  0  0  0  0  0  0  0  0
  151.3310  145.1467  160.5733 C   0  0  0  0  0  0  0  0  0  0  0  0
  151.6060  145.7910  159.3350 O   0  0  0  0  0  0  0  0  0  0  0  0
  151.3629  144.9271  158.2312 C   0  0  0  0  0  0  0  0  0  0  0  0
  152.2975  143.7080  158.3078 C   0  0  0  0  0  0  0  0  0  0  0  0
  152.4694  140.8501  158.7659 N   0  0  0  0  0  0  0  0  0  0  0  0
  152.9786  139.6040  158.8545 C   0  0  0  0  0  0  0  0  0  0  0  0
  154.3018  137.7170  163.9776 H   0  0  0  0  0  0  0  0  0  0  0  0
  154.0974  136.4772  165.2062 H   0  0  0  0  0  0  0  0  0  0  0  0
  152.8567  136.7264  163.9763 H   0  0  0  0  0  0  0  0  0  0  0  0
  155.7194  135.8199  163.4435 H   0  0  0  0  0  0  0  0  0  0  0  0
  153.6065  133.8719  163.1493 H   0  0  0  0  0  0  0  0  0  0  0  0
  155.1859  130.2425  165.6701 H   0  0  0  0  0  0  0  0  0  0  0  0
  155.4501  131.7243  166.5721 H   0  0  0  0  0  0  0  0  0  0  0  0
  156.5376  131.2882  165.2589 H   0  0  0  0  0  0  0  0  0  0  0  0
  155.6677  131.2424  162.8267 H   0  0  0  0  0  0  0  0  0  0  0  0
  154.0392  131.8072  162.4597 H   0  0  0  0  0  0  0  0  0  0  0  0
  154.2761  130.2851  163.3017 H   0  0  0  0  0  0  0  0  0  0  0  0
  152.7350  131.0311  165.1218 H   0  0  0  0  0  0  0  0  0  0  0  0
  152.4874  132.6127  164.3974 H   0  0  0  0  0  0  0  0  0  0  0  0
  153.0400  132.4776  166.0640 H   0  0  0  0  0  0  0  0  0  0  0  0
  154.6785  137.9566  162.0860 H   0  0  0  0  0  0  0  0  0  0  0  0
  155.2888  137.7266  159.5025 H   0  0  0  0  0  0  0  0  0  0  0  0
  153.6720  137.0693  159.4571 H   0  0  0  0  0  0  0  0  0  0  0  0
  154.6505  139.8054  161.8109 H   0  0  0  0  0  0  0  0  0  0  0  0
  153.7296  142.0846  161.6730 H   0  0  0  0  0  0  0  0  0  0  0  0
  151.9973  143.4309  161.6795 H   0  0  0  0  0  0  0  0  0  0  0  0
  153.2951  144.2684  160.8498 H   0  0  0  0  0  0  0  0  0  0  0  0
  150.2840  144.8414  160.6132 H   0  0  0  0  0  0  0  0  0  0  0  0
  151.4851  145.8584  161.3843 H   0  0  0  0  0  0  0  0  0  0  0  0
  150.3169  144.6158  158.2220 H   0  0  0  0  0  0  0  0  0  0  0  0
  151.5381  145.4761  157.3061 H   0  0  0  0  0  0  0  0  0  0  0  0
  153.3334  144.0191  158.1674 H   0  0  0  0  0  0  0  0  0  0  0  0
  152.0427  143.0266  157.4959 H   0  0  0  0  0  0  0  0  0  0  0  0
  152.7282  138.9384  158.0413 H   0  0  0  0  0  0  0  0  0  0  0  0
  1  2  1  0  0  0  0
  1 26  1  0  0  0  0
  1 27  1  0  0  0  0
  1 28  1  0  0  0  0
  2  3  1  0  0  0  0
  2 10  1  0  0  0  0
  2 29  1  0  0  0  0
  3  4  1  0  0  0  0
  3 30  1  0  0  0  0
  4  5  2  0  0  0  0
  4  6  1  0  0  0  0
  6  7  1  0  0  0  0
  6  8  1  0  0  0  0
  6  9  1  0  0  0  0
  7 31  1  0  0  0  0
  7 32  1  0  0  0  0
  7 33  1  0  0  0  0
  8 34  1  0  0  0  0
  8 35  1  0  0  0  0
  8 36  1  0  0  0  0
  9 37  1  0  0  0  0
  9 38  1  0  0  0  0
  9 39  1  0  0  0  0
 10 11  2  0  0  0  0
 10 12  1  0  0  0  0
 12 13  1  0  0  0  0
 12 40  1  0  0  0  0
 13 14  1  0  0  0  0
 13 41  1  0  0  0  0
 13 42  1  0  0  0  0
 14 25  1  0  0  0  0
 14 15  2  0  0  0  0
 15 16  1  0  0  0  0
 15 43  1  0  0  0  0
 16 17  2  0  0  0  0
 16 44  1  0  0  0  0
 17 18  1  0  0  0  0
 17 24  1  0  0  0  0
 18 23  1  0  0  0  0
 18 19  1  0  0  0  0
 19 20  1  0  0  0  0
 19 45  1  0  0  0  0
 19 46  1  0  0  0  0
 20 21  1  0  0  0  0
 20 47  1  0  0  0  0
 20 48  1  0  0  0  0
 21 22  1  0  0  0  0
 22 23  1  0  0  0  0
 22 49  1  0  0  0  0
 22 50  1  0  0  0  0
 23 51  1  0  0  0  0
 23 52  1  0  0  0  0
 24 25  2  0  0  0  0
 25 53  1  0  0  0  0
M  END
> <s_m_source_file>
AV-unprocessed.smi

> <i_m_source_file_index>
365

> <i_lp_mmshare_version>
43012

> <i_f3d_flags>
0

> <s_epik_input>
W0NIM11DKFtDSDNdKShbQ0gzXSlDKD1PKVtOSF1bQ0BASF0oW0NIM10pQyg9TylbTkhdW0NIMl1jMVtjSF1bY0hdYyhuW2NIXTEpTjJbQ0gyXVtDSDJdT1tDSDJdW0NIMl0y

> <s_epik_cmdline>
J2VwaWtfcHl0aG9uJywgJy1waCcsICc3LjAnLCAnLXRuJywgJzgnLCAnLW1hJywgJzIwMCcsICctbWV0YWxfYmluZGluZycsICctaW1hZScsICc8aW5maWxlLm1hZT4nLCAnLW9tYWUnLCAnPG91dGZpbGUubWFlPic=

> <r_lp_tautomer_probability>
1

> <r_epik_Ionization_Penalty>
0.00484327

> <r_epik_Ionization_Penalty_Charging>
0

> <r_epik_Ionization_Penalty_Neutral>
0.00484327

> <r_epik_State_Penalty>
0.0035131

> <r_epik_Charging_Adjusted_Penalty>
0.0035131

> <i_epik_Tot_Q>
0

> <i_epik_Tot_abs_Q>
0

> <r_epik_Metal_State_Penalty>
-0

> <b_epik_Metal_Only>
0

> <s_lp_Force_Field>
OPLS_2005

> <r_lp_Energy>
26.0036

> <b_lp_Chiralities_Consistent>
1

> <s_lp_Variant>
AV-unprocessed.smi:365-2

> <Gold.Version>
5.8.1

> <Gold.Id.Protein>
6NUR|6NUR_protein|mol2

> <Gold.PLP.Fitness>
48.9310

> <Gold.PLP.PLP>
-48.1426

> <Gold.PLP.part.hbond>
-2.0000

> <Gold.PLP.part.metal>
0.0000

> <Gold.PLP.part.buried>
-6.7352

> <Gold.PLP.part.nonpolar>
-39.0580

> <Gold.PLP.part.repulsive>
0.2542

> <Gold.PLP.ligand.clash>
0.0000

> <Gold.PLP.ligand.torsion>
1.4234

> <Gold.PLP.Chemscore.Hbond>
0.9425

> <Gold.PLP.Chemscore.CHOScore>
0.0000

> <Gold.PLP.Chemscore.Metal>
0.0000

> <Gold.Chemscore.Hbonds>
donor molecule, donor type, donor heavy atom, donor atom, acceptor molecule, acceptor atom, score
      P1  H  6896  6907       L1    11  0.93

> <Gold.PLP.Chemscore.Internal.Correction>
0.8076

> <Gold.Rescore>
     Score         DG    S(hbond)    S(metal)    S(lipo)     H(rot)  DE(clash)    DE(int)     intcor
     15.68     -17.57       0.98        0.00     119.98       2.04       0.29       1.59       ----

> <Gold.Chemscore.Fitness>
15.6798

> <Gold.Chemscore.DG>
-17.5687

> <Gold.Chemscore.ZeroCoef>
-5.4800

> <Gold.Chemscore.Hbond>
0.9777

> <Gold.Chemscore.Metal>
0.0000

> <Gold.Chemscore.Lipo>
119.9751

> <Gold.Chemscore.Internal_Hbond>
0.0000

> <Gold.Chemscore.DEClash>
0.2941

> <Gold.Chemscore.DEInternal>
1.5948

> <Gold.Chemscore.Rot>
2.0367

> <Gold.Chemscore.Internal.Correction>
   9.000000E+99

> <Gold.Chemscore.Hbonds>
donor molecule, donor type, donor heavy atom, donor atom, acceptor molecule, acceptor atom, score
      P1  H  6896  6907       L1    11  0.85

> <Gold.Chemscore.Hbond.Weighted>
-3.2656

> <Gold.Chemscore.Metal.Weighted>
-0.0000

> <Gold.Chemscore.Lipo.Weighted>
-14.0371

> <Gold.Chemscore.Internal_Hbond.Weighted>
0.0000

> <Gold.Chemscore.DEClash.Weighted>
0.2941

> <Gold.Chemscore.DEInternal.Weighted>
1.5948

> <Gold.Chemscore.Rot.Weighted>
5.2140

> <Gold.Chemscore.Internal.Correction.Weighted>
   9.000000E+99

> <Gold.Protein.RotatedTorsions>
[ 6907 6896 6895 6894 ] final   68.62 input  -60.11 | X-H torsion
[ 7974 7965 7964 7962 ] final  -60.70 input  175.53 | X-H torsion
[ 8008 7997 7996 7995 ] final   26.31 input   59.86 | X-H torsion
[ 10167 10162 10161 10158 ] final   -9.32 input  -65.29 | X-H torsion
[ 10718 10713 10712 10709 ] final  119.46 input   66.30 | X-H torsion
[ 10763 10752 10751 10750 ] final  116.65 input  -60.55 | X-H torsion
[ 11005 11000 10999 10996 ] final -172.86 input  -57.11 | X-H torsion

> <Gold.Protein.ActiveResidues>
 VAL166  LYS551  ARG553  GLY616  TRP617  ASP618  TYR619  PRO620  LYS621  CYS622 
 ASP623  PHE694  ASN695  SER759  ASP760  ASP761  ALA762  ILE779  LEU786  VAL792 
 PHE793  MET794  SER795  GLU796  ALA797  LYS798  CYS799  TRP800  GLU811  SER814 

> <Gold.Protein.RotatedAtoms>
  152.4633  134.5135  159.9760 H   0  0  0  0  0  0  0  0  0  0  0  0  # atno 6907 bound_to 6896
  151.5179  133.3466  159.2904 H   0  0  0  0  0  0  0  0  0  0  0  0  # atno 6908 bound_to 6896
  150.8605  134.7985  159.7141 H   0  0  0  0  0  0  0  0  0  0  0  0  # atno 6909 bound_to 6896
  145.8123  140.8591  143.0175 H   0  0  0  0  0  0  0  0  0  0  0  0  # atno 7974 bound_to 7965
  155.0252  140.3152  155.4778 H   0  0  0  0  0  0  0  0  0  0  0  0  # atno 8008 bound_to 7997
  156.2884  140.2190  156.5314 H   0  0  0  0  0  0  0  0  0  0  0  0  # atno 8009 bound_to 7997
  154.7417  140.0473  157.0805 H   0  0  0  0  0  0  0  0  0  0  0  0  # atno 8010 bound_to 7997
  140.7084  143.5870  150.8932 H   0  0  0  0  0  0  0  0  0  0  0  0  # atno 10167 bound_to 10162
  157.5960  131.1058  150.7899 H   0  0  0  0  0  0  0  0  0  0  0  0  # atno 10718 bound_to 10713
  153.5405  135.3560  155.2716 H   0  0  0  0  0  0  0  0  0  0  0  0  # atno 10763 bound_to 10752
  154.8718  135.4090  154.3050 H   0  0  0  0  0  0  0  0  0  0  0  0  # atno 10764 bound_to 10752
  153.3756  135.7066  153.6672 H   0  0  0  0  0  0  0  0  0  0  0  0  # atno 10765 bound_to 10752
  140.4922  134.5974  157.4958 H   0  0  0  0  0  0  0  0  0  0  0  0  # atno 11005 bound_to 11000
  144.6756  140.0414  143.7481 LP  0  0  0  0  0  0  0  0  0  0  0  0  # atno 17320 bound_to 7965
  145.9763  139.2907  143.1068 LP  0  0  0  0  0  0  0  0  0  0  0  0  # atno 17321 bound_to 7965
  139.9596  143.6179  152.3006 LP  0  0  0  0  0  0  0  0  0  0  0  0  # atno 17342 bound_to 10162
  139.6727  144.7660  151.1754 LP  0  0  0  0  0  0  0  0  0  0  0  0  # atno 17343 bound_to 10162
  156.8310  130.5016  149.5331 LP  0  0  0  0  0  0  0  0  0  0  0  0  # atno 17370 bound_to 10713
  156.1023  130.5978  150.9913 LP  0  0  0  0  0  0  0  0  0  0  0  0  # atno 17371 bound_to 10713
  139.9762  134.7211  155.9945 LP  0  0  0  0  0  0  0  0  0  0  0  0  # atno 17394 bound_to 11000
  141.1478  133.6553  156.3921 LP  0  0  0  0  0  0  0  0  0  0  0  0  # atno 17395 bound_to 11000

$$$$
