AV-unprocessed.smi:3240|AV-procd|sdf|12381|dock3
  -GOLD-   2272018243D 1   1.00000     0.00000
 Structure written by MMmdl.
 44 45  0  0  0  0  0  0  0  0  2 V2000
  142.0348  135.6427  153.1273 C   0  0  0  0  0  0  0  0  0  0  0  0
  143.4583  135.7976  152.6757 C   0  0  0  0  0  0  0  0  0  0  0  0
  144.4509  134.7852  152.5441 C   0  0  0  0  0  0  0  0  0  0  0  0
  145.6122  135.2570  152.1210 N   0  0  0  0  0  0  0  0  0  0  0  0
  145.4021  136.5809  151.9615 N   0  0  0  0  0  0  0  0  0  0  0  0
  146.4854  137.4384  151.5120 C   0  0  0  0  0  0  0  0  0  0  0  0
  146.8190  138.5617  152.5151 C   0  0  2  0  0  0  0  0  0  0  0  0
  146.5550  139.9418  151.8901 C   0  0  0  0  0  0  0  0  0  0  0  0
  148.2239  138.4383  152.9669 N   0  3  0  0  0  0  0  0  0  0  0  0
  148.4594  138.7185  154.4007 C   0  0  0  0  0  0  0  0  0  0  0  0
  149.9020  139.1995  154.6726 C   0  0  0  0  0  0  0  0  0  0  0  0
  150.1235  140.3384  153.8594 O   0  0  0  0  0  0  0  0  0  0  0  0
  150.1181  139.5777  156.1594 C   0  0  0  0  0  0  0  0  0  0  0  0
  151.5827  139.9223  156.4851 C   0  0  0  0  0  0  0  0  0  0  0  0
  152.5305  138.7884  156.0708 C   0  0  0  0  0  0  0  0  0  0  0  0
  152.3669  138.4559  154.5816 C   0  0  0  0  0  0  0  0  0  0  0  0
  150.9070  138.1028  154.2454 C   0  0  0  0  0  0  0  0  0  0  0  0
  144.1130  136.9356  152.2984 C   0  0  0  0  0  0  0  0  0  0  0  0
  141.7970  134.6072  153.3727 H   0  0  0  0  0  0  0  0  0  0  0  0
  141.3320  135.9595  152.3566 H   0  0  0  0  0  0  0  0  0  0  0  0
  141.8275  136.2388  154.0162 H   0  0  0  0  0  0  0  0  0  0  0  0
  144.3623  133.7275  152.7445 H   0  0  0  0  0  0  0  0  0  0  0  0
  147.3650  136.8197  151.3279 H   0  0  0  0  0  0  0  0  0  0  0  0
  146.1976  137.8638  150.5497 H   0  0  0  0  0  0  0  0  0  0  0  0
  146.1677  138.4495  153.3833 H   0  0  0  0  0  0  0  0  0  0  0  0
  145.5272  140.0167  151.5335 H   0  0  0  0  0  0  0  0  0  0  0  0
  147.2136  140.1262  151.0406 H   0  0  0  0  0  0  0  0  0  0  0  0
  146.7017  140.7484  152.6082 H   0  0  0  0  0  0  0  0  0  0  0  0
  148.5105  137.4823  152.8081 H   0  0  0  0  0  0  0  0  0  0  0  0
  147.7525  139.4752  154.7412 H   0  0  0  0  0  0  0  0  0  0  0  0
  148.2556  137.8142  154.9766 H   0  0  0  0  0  0  0  0  0  0  0  0
  149.6573  140.2211  153.0450 H   0  0  0  0  0  0  0  0  0  0  0  0
  149.4834  140.4197  156.4383 H   0  0  0  0  0  0  0  0  0  0  0  0
  149.8079  138.7436  156.7904 H   0  0  0  0  0  0  0  0  0  0  0  0
  151.8695  140.8427  155.9751 H   0  0  0  0  0  0  0  0  0  0  0  0
  151.6872  140.1191  157.5525 H   0  0  0  0  0  0  0  0  0  0  0  0
  153.5632  139.0710  156.2779 H   0  0  0  0  0  0  0  0  0  0  0  0
  152.3262  137.9006  156.6707 H   0  0  0  0  0  0  0  0  0  0  0  0
  152.6928  139.3038  153.9781 H   0  0  0  0  0  0  0  0  0  0  0  0
  153.0185  137.6230  154.3154 H   0  0  0  0  0  0  0  0  0  0  0  0
  150.6539  137.1690  154.7497 H   0  0  0  0  0  0  0  0  0  0  0  0
  150.8160  137.9006  153.1773 H   0  0  0  0  0  0  0  0  0  0  0  0
  143.7694  137.9581  152.2415 H   0  0  0  0  0  0  0  0  0  0  0  0
  148.8074  139.0437  152.4080 H   0  0  0  0  0  0  0  0  0  0  0  0
  1  2  1  0  0  0  0
  1 19  1  0  0  0  0
  1 20  1  0  0  0  0
  1 21  1  0  0  0  0
  2 18  2  0  0  0  0
  2  3  1  0  0  0  0
  3  4  2  0  0  0  0
  3 22  1  0  0  0  0
  4  5  1  0  0  0  0
  5  6  1  0  0  0  0
  5 18  1  0  0  0  0
  6  7  1  0  0  0  0
  6 23  1  0  0  0  0
  6 24  1  0  0  0  0
  7  8  1  0  0  0  0
  7  9  1  0  0  0  0
  7 25  1  0  0  0  0
  8 26  1  0  0  0  0
  8 27  1  0  0  0  0
  8 28  1  0  0  0  0
  9 10  1  0  0  0  0
  9 29  1  0  0  0  0
  9 44  1  0  0  0  0
 10 11  1  0  0  0  0
 10 30  1  0  0  0  0
 10 31  1  0  0  0  0
 11 17  1  0  0  0  0
 11 12  1  0  0  0  0
 11 13  1  0  0  0  0
 12 32  1  0  0  0  0
 13 14  1  0  0  0  0
 13 33  1  0  0  0  0
 13 34  1  0  0  0  0
 14 15  1  0  0  0  0
 14 35  1  0  0  0  0
 14 36  1  0  0  0  0
 15 16  1  0  0  0  0
 15 37  1  0  0  0  0
 15 38  1  0  0  0  0
 16 17  1  0  0  0  0
 16 39  1  0  0  0  0
 16 40  1  0  0  0  0
 17 41  1  0  0  0  0
 17 42  1  0  0  0  0
 18 43  1  0  0  0  0
M  CHG  1   9   1
M  END
> <s_m_source_file>
AV-unprocessed.smi

> <i_m_source_file_index>
3240

> <i_lp_mmshare_version>
43012

> <i_f3d_flags>
0

> <s_epik_input>
W0NIM11jMVtjSF1ubihbY0hdMSlbQ0gyXVtDQEhdKFtDSDNdKVtOSF1bQ0gyXUMyKFtPSF0pW0NIMl1bQ0gyXVtDSDJdW0NIMl1bQ0gyXTI=

> <s_epik_cmdline>
J2VwaWtfcHl0aG9uJywgJy1waCcsICc3LjAnLCAnLXRuJywgJzgnLCAnLW1hJywgJzIwMCcsICctbWV0YWxfYmluZGluZycsICctaW1hZScsICc8aW5maWxlLm1hZT4nLCAnLW9tYWUnLCAnPG91dGZpbGUubWFlPic=

> <r_lp_tautomer_probability>
1

> <r_epik_Ionization_Penalty>
0.0111573

> <r_epik_Ionization_Penalty_Charging>
0.0111472

> <r_epik_Ionization_Penalty_Neutral>
1.01652e-05

> <r_epik_State_Penalty>
0.00856328

> <r_epik_Charging_Adjusted_Penalty>
0.0197104

> <i_epik_Tot_Q>
1

> <i_epik_Tot_abs_Q>
1

> <r_epik_Metal_State_Penalty>
0.00856448

> <b_epik_Metal_Only>
0

> <s_lp_Force_Field>
OPLS_2005

> <r_lp_Energy>
16.744

> <b_lp_Chiralities_Consistent>
1

> <s_lp_Variant>
AV-unprocessed.smi:3240-1

> <Gold.Version>
5.8.1

> <Gold.Id.Protein>
6NUR|6NUR_protein|mol2

> <Gold.PLP.Fitness>
49.0501

> <Gold.PLP.PLP>
-33.0961

> <Gold.PLP.part.hbond>
-3.6650

> <Gold.PLP.part.metal>
0.0000

> <Gold.PLP.part.buried>
3.5756

> <Gold.PLP.part.nonpolar>
-32.7116

> <Gold.PLP.part.repulsive>
0.1843

> <Gold.PLP.ligand.clash>
0.0000

> <Gold.PLP.ligand.torsion>
1.4323

> <Gold.PLP.Chemscore.Hbond>
4.6880

> <Gold.PLP.Chemscore.CHOScore>
1.5631

> <Gold.PLP.Chemscore.Metal>
0.0000

> <Gold.Chemscore.Hbonds>
donor molecule, donor type, donor heavy atom, donor atom, acceptor molecule, acceptor atom, score
      L1  H     9    29       P1  7948  2.00
      L1  H     9    44       P1  7957  1.00
      L1  H    12    32       P1  7957  1.00
      P1  H  7989  7998       L1    12  0.77
      L1  C    18    43       P1 10171  0.53
      L1  C    18    43       P1 10175  1.00

> <Gold.PLP.Chemscore.Internal.Correction>
0.0653

> <Gold.Rescore>
     Score         DG    S(hbond)    S(metal)    S(lipo)     H(rot)  DE(clash)    DE(int)     intcor
     18.97     -21.95       3.55        0.00      85.85       2.12       1.49       1.49       ----

> <Gold.Chemscore.Fitness>
18.9661

> <Gold.Chemscore.DG>
-21.9462

> <Gold.Chemscore.ZeroCoef>
-5.4800

> <Gold.Chemscore.Hbond>
3.5470

> <Gold.Chemscore.Metal>
0.0000

> <Gold.Chemscore.Lipo>
85.8510

> <Gold.Chemscore.Internal_Hbond>
0.0000

> <Gold.Chemscore.DEClash>
1.4852

> <Gold.Chemscore.DEInternal>
1.4949

> <Gold.Chemscore.Rot>
2.1193

> <Gold.Chemscore.Internal.Correction>
   9.000000E+99

> <Gold.Chemscore.Hbonds>
donor molecule, donor type, donor heavy atom, donor atom, acceptor molecule, acceptor atom, score
      L1  H     9    29       P1  7948  0.95
      L1  H     9    44       P1  7957  1.00
      L1  H    12    32       P1  7957  0.95
      P1  H  7989  7998       L1    12  0.41

> <Gold.Chemscore.Hbond.Weighted>
-11.8470

> <Gold.Chemscore.Metal.Weighted>
-0.0000

> <Gold.Chemscore.Lipo.Weighted>
-10.0446

> <Gold.Chemscore.Internal_Hbond.Weighted>
0.0000

> <Gold.Chemscore.DEClash.Weighted>
1.4852

> <Gold.Chemscore.DEInternal.Weighted>
1.4949

> <Gold.Chemscore.Rot.Weighted>
5.4254

> <Gold.Chemscore.Internal.Correction.Weighted>
   9.000000E+99

> <Gold.Protein.RotatedTorsions>
[ 6907 6896 6895 6894 ] final  174.15 input  -60.11 | X-H torsion
[ 7974 7965 7964 7962 ] final  141.47 input  175.53 | X-H torsion
[ 8008 7997 7996 7995 ] final  -79.91 input   59.86 | X-H torsion
[ 10167 10162 10161 10158 ] final  159.71 input  -65.29 | X-H torsion
[ 10718 10713 10712 10709 ] final  -54.67 input   66.30 | X-H torsion
[ 10763 10752 10751 10750 ] final  179.95 input  -60.55 | X-H torsion
[ 11005 11000 10999 10996 ] final -133.00 input  -57.11 | X-H torsion

> <Gold.Protein.ActiveResidues>
 VAL166  LYS551  ARG553  GLY616  TRP617  ASP618  TYR619  PRO620  LYS621  CYS622 
 ASP623  PHE694  ASN695  SER759  ASP760  ASP761  ALA762  ILE779  LEU786  VAL792 
 PHE793  MET794  SER795  GLU796  ALA797  LYS798  CYS799  TRP800  GLU811  SER814 

> <Gold.Protein.RotatedAtoms>
  151.7569  133.3331  159.3406 H   0  0  0  0  0  0  0  0  0  0  0  0  # atno 6907 bound_to 6896
  150.7513  134.6141  159.6111 H   0  0  0  0  0  0  0  0  0  0  0  0  # atno 6908 bound_to 6896
  152.3431  134.7110  160.0309 H   0  0  0  0  0  0  0  0  0  0  0  0  # atno 6909 bound_to 6896
  144.9093  139.5314  143.5716 H   0  0  0  0  0  0  0  0  0  0  0  0  # atno 7974 bound_to 7965
  154.5831  140.0671  156.9132 H   0  0  0  0  0  0  0  0  0  0  0  0  # atno 8008 bound_to 7997
  155.2427  140.3346  155.4272 H   0  0  0  0  0  0  0  0  0  0  0  0  # atno 8009 bound_to 7997
  156.2203  140.1796  156.7476 H   0  0  0  0  0  0  0  0  0  0  0  0  # atno 8010 bound_to 7997
  139.4834  144.4704  151.8584 H   0  0  0  0  0  0  0  0  0  0  0  0  # atno 10167 bound_to 10162
  156.1431  130.4154  150.0069 H   0  0  0  0  0  0  0  0  0  0  0  0  # atno 10718 bound_to 10713
  154.5273  135.2797  155.1211 H   0  0  0  0  0  0  0  0  0  0  0  0  # atno 10763 bound_to 10752
  154.2745  135.6297  153.5326 H   0  0  0  0  0  0  0  0  0  0  0  0  # atno 10764 bound_to 10752
  152.9949  135.5636  154.5777 H   0  0  0  0  0  0  0  0  0  0  0  0  # atno 10765 bound_to 10752
  140.9120  134.1556  157.4382 H   0  0  0  0  0  0  0  0  0  0  0  0  # atno 11005 bound_to 11000
  146.3150  139.7887  142.8990 LP  0  0  0  0  0  0  0  0  0  0  0  0  # atno 17320 bound_to 7965
  145.3481  141.0302  143.3354 LP  0  0  0  0  0  0  0  0  0  0  0  0  # atno 17321 bound_to 7965
  140.4173  144.2290  150.5887 LP  0  0  0  0  0  0  0  0  0  0  0  0  # atno 17342 bound_to 10162
  140.4908  143.2348  151.8821 LP  0  0  0  0  0  0  0  0  0  0  0  0  # atno 17343 bound_to 10162
  156.7949  130.9269  151.3646 LP  0  0  0  0  0  0  0  0  0  0  0  0  # atno 17370 bound_to 10713
  157.6593  130.8952  149.9796 LP  0  0  0  0  0  0  0  0  0  0  0  0  # atno 17371 bound_to 10713
  139.8759  134.9939  156.5668 LP  0  0  0  0  0  0  0  0  0  0  0  0  # atno 17394 bound_to 11000
  140.8098  133.8438  155.8800 LP  0  0  0  0  0  0  0  0  0  0  0  0  # atno 17395 bound_to 11000

$$$$
