AV-unprocessed.smi:1774|AV-procd|sdf|7168|dock2
  -GOLD-   22720 8403D 1   1.00000     0.00000
 Structure written by MMmdl.
 46 47  0  0  0  0  0  0  0  0  2 V2000
  147.2587  132.7042  152.1862 C   0  0  0  0  0  0  0  0  0  0  0  0
  146.0258  132.7653  151.2989 C   0  0  0  0  0  0  0  0  0  0  0  0
  145.3941  131.5644  150.9114 C   0  0  0  0  0  0  0  0  0  0  0  0
  144.2551  131.6226  150.0904 C   0  0  0  0  0  0  0  0  0  0  0  0
  143.7933  132.8875  149.6882 C   0  0  0  0  0  0  0  0  0  0  0  0
  144.3903  134.0402  150.0541 N   0  0  0  0  0  0  0  0  0  0  0  0
  145.4902  134.0016  150.8476 C   0  0  0  0  0  0  0  0  0  0  0  0
  146.1718  135.1773  151.2720 N   0  0  0  0  0  0  0  0  0  0  0  0
  145.6487  136.3611  151.6368 C   0  0  0  0  0  0  0  0  0  0  0  0
  144.4485  136.6351  151.6644 O   0  0  0  0  0  0  0  0  0  0  0  0
  146.6088  137.2335  151.9765 N   0  0  0  0  0  0  0  0  0  0  0  0
  146.3673  138.5986  152.4288 C   0  0  0  0  0  0  0  0  0  0  0  0
  147.6809  139.3120  152.8015 C   0  0  0  0  0  0  0  0  0  0  0  0
  148.4958  138.5231  153.7578 N   0  3  1  0  0  0  0  0  0  0  0  0
  149.5509  139.3360  154.4081 C   0  0  0  0  0  0  0  0  0  0  0  0
  150.4193  138.4746  155.3466 C   0  0  2  0  0  0  0  0  0  0  0  0
  151.3891  137.5395  154.6020 C   0  0  0  0  0  0  0  0  0  0  0  0
  149.5933  137.7688  156.2726 O   0  0  0  0  0  0  0  0  0  0  0  0
  148.5882  136.9518  155.6776 C   0  0  1  0  0  0  0  0  0  0  0  0
  147.8002  136.2781  156.8064 C   0  0  0  0  0  0  0  0  0  0  0  0
  147.6862  137.8196  154.7817 C   0  0  0  0  0  0  0  0  0  0  0  0
  147.4942  131.6775  152.4684 H   0  0  0  0  0  0  0  0  0  0  0  0
  147.1001  133.2738  153.1022 H   0  0  0  0  0  0  0  0  0  0  0  0
  148.1236  133.1168  151.6657 H   0  0  0  0  0  0  0  0  0  0  0  0
  145.7751  130.6077  151.2376 H   0  0  0  0  0  0  0  0  0  0  0  0
  143.7487  130.7215  149.7772 H   0  0  0  0  0  0  0  0  0  0  0  0
  142.9217  132.9770  149.0568 H   0  0  0  0  0  0  0  0  0  0  0  0
  147.1774  135.1019  151.3077 H   0  0  0  0  0  0  0  0  0  0  0  0
  147.5704  136.9293  151.9282 H   0  0  0  0  0  0  0  0  0  0  0  0
  145.8233  139.1401  151.6547 H   0  0  0  0  0  0  0  0  0  0  0  0
  145.7095  138.5561  153.2973 H   0  0  0  0  0  0  0  0  0  0  0  0
  148.2513  139.4657  151.8841 H   0  0  0  0  0  0  0  0  0  0  0  0
  147.4907  140.3039  153.2147 H   0  0  0  0  0  0  0  0  0  0  0  0
  150.1798  139.8120  153.6546 H   0  0  0  0  0  0  0  0  0  0  0  0
  149.0787  140.1385  154.9774 H   0  0  0  0  0  0  0  0  0  0  0  0
  151.0316  139.1503  155.9444 H   0  0  0  0  0  0  0  0  0  0  0  0
  152.1039  138.1144  154.0125 H   0  0  0  0  0  0  0  0  0  0  0  0
  150.8733  136.8666  153.9175 H   0  0  0  0  0  0  0  0  0  0  0  0
  151.9580  136.9303  155.3047 H   0  0  0  0  0  0  0  0  0  0  0  0
  149.0550  136.1689  155.0794 H   0  0  0  0  0  0  0  0  0  0  0  0
  147.0208  135.6275  156.4082 H   0  0  0  0  0  0  0  0  0  0  0  0
  147.3225  137.0165  157.4510 H   0  0  0  0  0  0  0  0  0  0  0  0
  148.4556  135.6681  157.4287 H   0  0  0  0  0  0  0  0  0  0  0  0
  147.1464  138.5514  155.3853 H   0  0  0  0  0  0  0  0  0  0  0  0
  146.9375  137.1870  154.3059 H   0  0  0  0  0  0  0  0  0  0  0  0
  148.9743  137.8169  153.2169 H   0  0  0  0  0  0  0  0  0  0  0  0
  1  2  1  0  0  0  0
  1 22  1  0  0  0  0
  1 23  1  0  0  0  0
  1 24  1  0  0  0  0
  2  7  1  0  0  0  0
  2  3  2  0  0  0  0
  3  4  1  0  0  0  0
  3 25  1  0  0  0  0
  4  5  2  0  0  0  0
  4 26  1  0  0  0  0
  5  6  1  0  0  0  0
  5 27  1  0  0  0  0
  6  7  2  0  0  0  0
  7  8  1  0  0  0  0
  8  9  1  0  0  0  0
  8 28  1  0  0  0  0
  9 10  2  0  0  0  0
  9 11  1  0  0  0  0
 11 12  1  0  0  0  0
 11 29  1  0  0  0  0
 12 13  1  0  0  0  0
 12 30  1  0  0  0  0
 12 31  1  0  0  0  0
 13 14  1  0  0  0  0
 13 32  1  0  0  0  0
 13 33  1  0  0  0  0
 14 21  1  0  0  0  0
 14 15  1  0  0  0  0
 14 46  1  0  0  0  0
 15 16  1  0  0  0  0
 15 34  1  0  0  0  0
 15 35  1  0  0  0  0
 16 17  1  0  0  0  0
 16 18  1  0  0  0  0
 16 36  1  0  0  0  0
 17 37  1  0  0  0  0
 17 38  1  0  0  0  0
 17 39  1  0  0  0  0
 18 19  1  0  0  0  0
 19 20  1  0  0  0  0
 19 21  1  0  0  0  0
 19 40  1  0  0  0  0
 20 41  1  0  0  0  0
 20 42  1  0  0  0  0
 20 43  1  0  0  0  0
 21 44  1  0  0  0  0
 21 45  1  0  0  0  0
M  CHG  1  14   1
M  END
> <s_m_source_file>
AV-unprocessed.smi

> <i_m_source_file_index>
1774

> <i_lp_mmshare_version>
43012

> <i_f3d_flags>
0

> <s_epik_input>
W0NIM11jMVtjSF1bY0hdW2NIXW5jMVtOSF1DKD1PKVtOSF1bQ0gyXVtDSDJdTjJbQ0gyXVtDQEBIXShbQ0gzXSlPW0NAQEhdKFtDSDNdKVtDSDJdMg==

> <s_epik_cmdline>
J2VwaWtfcHl0aG9uJywgJy1waCcsICc3LjAnLCAnLXRuJywgJzgnLCAnLW1hJywgJzIwMCcsICctbWV0YWxfYmluZGluZycsICctaW1hZScsICc8aW5maWxlLm1hZT4nLCAnLW9tYWUnLCAnPG91dGZpbGUubWFlPic=

> <r_epik_Ionization_Penalty>
0.602573

> <r_epik_Ionization_Penalty_Charging>
0.602531

> <r_epik_Ionization_Penalty_Neutral>
4.21996e-05

> <r_epik_State_Penalty>
0.617039

> <r_epik_Charging_Adjusted_Penalty>
1.21957

> <i_epik_Tot_Q>
1

> <i_epik_Tot_abs_Q>
1

> <r_epik_Metal_State_Penalty>
0.617042

> <b_epik_Metal_Only>
0

> <s_lp_Force_Field>
OPLS_2005

> <r_lp_Energy>
18.8628

> <b_lp_Chiralities_Consistent>
1

> <s_lp_Variant>
AV-unprocessed.smi:1774-5

> <Gold.Version>
5.8.1

> <Gold.Id.Protein>
6NUR|6NUR_protein|mol2

> <Gold.PLP.Fitness>
45.2970

> <Gold.PLP.PLP>
-32.1511

> <Gold.PLP.part.hbond>
-3.9989

> <Gold.PLP.part.metal>
0.0000

> <Gold.PLP.part.buried>
0.8818

> <Gold.PLP.part.nonpolar>
-30.7338

> <Gold.PLP.part.repulsive>
1.0455

> <Gold.PLP.ligand.clash>
0.0000

> <Gold.PLP.ligand.torsion>
0.4797

> <Gold.PLP.Chemscore.Hbond>
3.6845

> <Gold.PLP.Chemscore.CHOScore>
1.0000

> <Gold.PLP.Chemscore.Metal>
0.0000

> <Gold.Chemscore.Hbonds>
donor molecule, donor type, donor heavy atom, donor atom, acceptor molecule, acceptor atom, score
      L1  H     8    28       P1  7948  0.67
      L1  H    11    29       P1  7948  0.99
      L1  H    14    46       P1  7948  1.85
      L1  C     5    27       P1 10186  0.90

> <Gold.PLP.Chemscore.Internal.Correction>
0.0518

> <Gold.Rescore>
     Score         DG    S(hbond)    S(metal)    S(lipo)     H(rot)  DE(clash)    DE(int)     intcor
     16.10     -19.37       2.28        0.00      86.37       1.49       1.90       1.37       ----

> <Gold.Chemscore.Fitness>
16.1032

> <Gold.Chemscore.DG>
-19.3726

> <Gold.Chemscore.ZeroCoef>
-5.4800

> <Gold.Chemscore.Hbond>
2.2796

> <Gold.Chemscore.Metal>
0.0000

> <Gold.Chemscore.Lipo>
86.3664

> <Gold.Chemscore.Internal_Hbond>
0.0000

> <Gold.Chemscore.DEClash>
1.9028

> <Gold.Chemscore.DEInternal>
1.3665

> <Gold.Chemscore.Rot>
1.4946

> <Gold.Chemscore.Internal.Correction>
   9.000000E+99

> <Gold.Chemscore.Hbonds>
donor molecule, donor type, donor heavy atom, donor atom, acceptor molecule, acceptor atom, score
      L1  H     8    28       P1  7948  0.48
      L1  H    11    29       P1  7948  0.92
      L1  H    14    46       P1  7948  0.85

> <Gold.Chemscore.Hbond.Weighted>
-7.6138

> <Gold.Chemscore.Metal.Weighted>
-0.0000

> <Gold.Chemscore.Lipo.Weighted>
-10.1049

> <Gold.Chemscore.Internal_Hbond.Weighted>
0.0000

> <Gold.Chemscore.DEClash.Weighted>
1.9028

> <Gold.Chemscore.DEInternal.Weighted>
1.3665

> <Gold.Chemscore.Rot.Weighted>
3.8261

> <Gold.Chemscore.Internal.Correction.Weighted>
   9.000000E+99

> <Gold.Protein.RotatedTorsions>
[ 6907 6896 6895 6894 ] final    7.38 input  -60.11 | X-H torsion
[ 7974 7965 7964 7962 ] final   74.64 input  175.53 | X-H torsion
[ 8008 7997 7996 7995 ] final   67.38 input   59.86 | X-H torsion
[ 10167 10162 10161 10158 ] final   49.17 input  -65.29 | X-H torsion
[ 10718 10713 10712 10709 ] final -162.78 input   66.30 | X-H torsion
[ 10763 10752 10751 10750 ] final  -71.12 input  -60.55 | X-H torsion
[ 11005 11000 10999 10996 ] final   66.10 input  -57.11 | X-H torsion

> <Gold.Protein.ActiveResidues>
 VAL166  LYS551  ARG553  GLY616  TRP617  ASP618  TYR619  PRO620  LYS621  CYS622 
 ASP623  PHE694  ASN695  SER759  ASP760  ASP761  ALA762  ILE779  LEU786  VAL792 
 PHE793  MET794  SER795  GLU796  ALA797  LYS798  CYS799  TRP800  GLU811  SER814 

> <Gold.Protein.RotatedAtoms>
  151.6890  135.0949  160.0229 H   0  0  0  0  0  0  0  0  0  0  0  0  # atno 6907 bound_to 6896
  152.3790  133.6516  159.6155 H   0  0  0  0  0  0  0  0  0  0  0  0  # atno 6908 bound_to 6896
  150.7732  133.9062  159.3397 H   0  0  0  0  0  0  0  0  0  0  0  0  # atno 6909 bound_to 6896
  145.7257  139.2665  143.1570 H   0  0  0  0  0  0  0  0  0  0  0  0  # atno 7974 bound_to 7965
  155.6920  140.3496  155.4897 H   0  0  0  0  0  0  0  0  0  0  0  0  # atno 8008 bound_to 7997
  155.9516  140.1120  157.0994 H   0  0  0  0  0  0  0  0  0  0  0  0  # atno 8009 bound_to 7997
  154.4123  140.1193  156.5046 H   0  0  0  0  0  0  0  0  0  0  0  0  # atno 8010 bound_to 7997
  140.2857  144.3105  150.6253 H   0  0  0  0  0  0  0  0  0  0  0  0  # atno 10167 bound_to 10162
  156.6153  130.8868  151.2945 H   0  0  0  0  0  0  0  0  0  0  0  0  # atno 10718 bound_to 10713
  154.4272  135.5972  153.6046 H   0  0  0  0  0  0  0  0  0  0  0  0  # atno 10763 bound_to 10752
  152.9797  135.5966  154.3883 H   0  0  0  0  0  0  0  0  0  0  0  0  # atno 10764 bound_to 10752
  154.3716  135.2841  155.2242 H   0  0  0  0  0  0  0  0  0  0  0  0  # atno 10765 bound_to 10752
  139.9853  134.6678  156.0188 H   0  0  0  0  0  0  0  0  0  0  0  0  # atno 11005 bound_to 11000
  146.0585  140.7996  142.9747 LP  0  0  0  0  0  0  0  0  0  0  0  0  # atno 17320 bound_to 7965
  144.6905  140.3160  143.7240 LP  0  0  0  0  0  0  0  0  0  0  0  0  # atno 17321 bound_to 7965
  140.5774  143.2175  151.7489 LP  0  0  0  0  0  0  0  0  0  0  0  0  # atno 17342 bound_to 10162
  139.4951  144.4129  152.0061 LP  0  0  0  0  0  0  0  0  0  0  0  0  # atno 17343 bound_to 10162
  157.7243  130.9600  150.1567 LP  0  0  0  0  0  0  0  0  0  0  0  0  # atno 17370 bound_to 10713
  156.2356  130.3686  149.8395 LP  0  0  0  0  0  0  0  0  0  0  0  0  # atno 17371 bound_to 10713
  141.1519  133.6547  156.4039 LP  0  0  0  0  0  0  0  0  0  0  0  0  # atno 17394 bound_to 11000
  140.5015  134.6481  157.5250 LP  0  0  0  0  0  0  0  0  0  0  0  0  # atno 17395 bound_to 11000

$$$$
