AV-unprocessed.smi:1860|AV-procd|sdf|7547|dock6
  -GOLD-   22720 9263D 1   1.00000     0.00000
 Structure written by MMmdl.
 31 32  0  0  0  0  0  0  0  0  1 V2000
  146.8061  146.2132  160.6682 C   0  0  0  0  0  0  0  0  0  0  0  0
  147.9513  145.1938  160.6080 C   0  0  0  0  0  0  0  0  0  0  0  0
  147.9132  144.4205  159.3728 N   0  0  0  0  0  0  0  0  0  0  0  0
  147.3595  143.2050  159.2393 C   0  0  0  0  0  0  0  0  0  0  0  0
  146.8303  142.5947  160.1680 O   0  0  0  0  0  0  0  0  0  0  0  0
  147.4056  142.5833  157.8429 C   0  0  0  0  0  0  0  0  0  0  0  0
  148.7717  142.0231  157.5721 C   0  0  0  0  0  0  0  0  0  0  0  0
  149.1967  141.4078  156.4196 C   0  0  0  0  0  0  0  0  0  0  0  0
  150.8599  140.9000  156.5245 S   0  0  0  0  0  0  0  0  0  0  0  0
  150.9236  141.5627  158.1602 C   0  0  0  0  0  0  0  0  0  0  0  0
  152.0522  141.5562  159.0327 N   0  0  0  0  0  0  0  0  0  0  0  0
  152.2126  142.5529  160.0868 C   0  0  0  0  0  0  0  0  0  0  0  0
  153.5306  142.1719  160.7535 C   0  0  0  0  0  0  0  0  0  0  0  0
  153.9344  141.0154  159.9893 N   0  0  0  0  0  0  0  0  0  0  0  0
  153.0804  140.6847  159.0180 C   0  0  0  0  0  0  0  0  0  0  0  0
  153.2421  139.7334  158.2559 O   0  0  0  0  0  0  0  0  0  0  0  0
  149.7670  142.1082  158.5514 N   0  0  0  0  0  0  0  0  0  0  0  0
  146.8647  146.8072  161.5804 H   0  0  0  0  0  0  0  0  0  0  0  0
  145.8338  145.7198  160.6569 H   0  0  0  0  0  0  0  0  0  0  0  0
  146.8436  146.8994  159.8217 H   0  0  0  0  0  0  0  0  0  0  0  0
  148.9085  145.7134  160.6543 H   0  0  0  0  0  0  0  0  0  0  0  0
  147.9161  144.5300  161.4731 H   0  0  0  0  0  0  0  0  0  0  0  0
  148.3257  144.8461  158.5554 H   0  0  0  0  0  0  0  0  0  0  0  0
  146.6467  141.8040  157.7635 H   0  0  0  0  0  0  0  0  0  0  0  0
  147.1432  143.3426  157.1048 H   0  0  0  0  0  0  0  0  0  0  0  0
  148.6319  141.2185  155.5191 H   0  0  0  0  0  0  0  0  0  0  0  0
  152.2555  143.5578  159.6644 H   0  0  0  0  0  0  0  0  0  0  0  0
  151.3812  142.5060  160.7917 H   0  0  0  0  0  0  0  0  0  0  0  0
  154.2754  142.9644  160.6729 H   0  0  0  0  0  0  0  0  0  0  0  0
  153.3991  141.9114  161.8042 H   0  0  0  0  0  0  0  0  0  0  0  0
  154.7880  140.5115  160.1814 H   0  0  0  0  0  0  0  0  0  0  0  0
  1  2  1  0  0  0  0
  1 18  1  0  0  0  0
  1 19  1  0  0  0  0
  1 20  1  0  0  0  0
  2  3  1  0  0  0  0
  2 21  1  0  0  0  0
  2 22  1  0  0  0  0
  3  4  1  0  0  0  0
  3 23  1  0  0  0  0
  4  5  2  0  0  0  0
  4  6  1  0  0  0  0
  6  7  1  0  0  0  0
  6 24  1  0  0  0  0
  6 25  1  0  0  0  0
  7 17  1  0  0  0  0
  7  8  2  0  0  0  0
  8  9  1  0  0  0  0
  8 26  1  0  0  0  0
  9 10  1  0  0  0  0
 10 11  1  0  0  0  0
 10 17  2  0  0  0  0
 11 15  1  0  0  0  0
 11 12  1  0  0  0  0
 12 13  1  0  0  0  0
 12 27  1  0  0  0  0
 12 28  1  0  0  0  0
 13 14  1  0  0  0  0
 13 29  1  0  0  0  0
 13 30  1  0  0  0  0
 14 15  1  0  0  0  0
 14 31  1  0  0  0  0
 15 16  2  0  0  0  0
M  END
> <s_m_source_file>
AV-unprocessed.smi

> <i_m_source_file_index>
1860

> <i_lp_mmshare_version>
43012

> <i_f3d_flags>
0

> <s_epik_input>
W0NIM11bQ0gyXVtOSF1DKD1PKVtDSDJdYzFbY0hdc2MobjEpTjJbQ0gyXVtDSDJdW05IXUMyPU8=

> <s_epik_cmdline>
J2VwaWtfcHl0aG9uJywgJy1waCcsICc3LjAnLCAnLXRuJywgJzgnLCAnLW1hJywgJzIwMCcsICctbWV0YWxfYmluZGluZycsICctaW1hZScsICc8aW5maWxlLm1hZT4nLCAnLW9tYWUnLCAnPG91dGZpbGUubWFlPic=

> <r_lp_tautomer_probability>
1

> <r_epik_Ionization_Penalty>
0.000119829

> <r_epik_Ionization_Penalty_Charging>
0

> <r_epik_Ionization_Penalty_Neutral>
0.000119829

> <r_epik_State_Penalty>
-0

> <r_epik_Charging_Adjusted_Penalty>
0

> <i_epik_Tot_Q>
0

> <i_epik_Tot_abs_Q>
0

> <r_epik_Metal_State_Penalty>
-0

> <b_epik_Metal_Only>
0

> <s_lp_Force_Field>
OPLS_2005

> <r_lp_Energy>
29.5586

> <b_lp_Chiralities_Consistent>
1

> <s_lp_Variant>
AV-unprocessed.smi:1860-1

> <Gold.Version>
5.8.1

> <Gold.Id.Protein>
6NUR|6NUR_protein|mol2

> <Gold.PLP.Fitness>
39.4177

> <Gold.PLP.PLP>
-30.6467

> <Gold.PLP.part.hbond>
-4.1364

> <Gold.PLP.part.metal>
0.0000

> <Gold.PLP.part.buried>
-4.8215

> <Gold.PLP.part.nonpolar>
-22.0595

> <Gold.PLP.part.repulsive>
0.2878

> <Gold.PLP.ligand.clash>
0.0000

> <Gold.PLP.ligand.torsion>
0.6949

> <Gold.PLP.Chemscore.Hbond>
3.3860

> <Gold.PLP.Chemscore.CHOScore>
0.0000

> <Gold.PLP.Chemscore.Metal>
0.0000

> <Gold.Chemscore.Hbonds>
donor molecule, donor type, donor heavy atom, donor atom, acceptor molecule, acceptor atom, score
      L1  H     3    23       P1  8029  0.78
      P1  H  6933  6944       L1     5  0.61
      P1  H  6934  6946       L1     5  0.98
      P1  H  7997  8008       L1    16  1.00

> <Gold.PLP.Chemscore.Internal.Correction>
0.0029

> <Gold.Rescore>
     Score         DG    S(hbond)    S(metal)    S(lipo)     H(rot)  DE(clash)    DE(int)     intcor
     17.19     -18.00       3.30        0.00      48.39       1.62       0.09       0.72       ----

> <Gold.Chemscore.Fitness>
17.1932

> <Gold.Chemscore.DG>
-18.0005

> <Gold.Chemscore.ZeroCoef>
-5.4800

> <Gold.Chemscore.Hbond>
3.2976

> <Gold.Chemscore.Metal>
0.0000

> <Gold.Chemscore.Lipo>
48.3900

> <Gold.Chemscore.Internal_Hbond>
0.0000

> <Gold.Chemscore.DEClash>
0.0897

> <Gold.Chemscore.DEInternal>
0.7176

> <Gold.Chemscore.Rot>
1.6231

> <Gold.Chemscore.Internal.Correction>
   9.000000E+99

> <Gold.Chemscore.Hbonds>
donor molecule, donor type, donor heavy atom, donor atom, acceptor molecule, acceptor atom, score
      L1  H     3    23       P1  8029  0.76
      P1  H  6933  6944       L1     5  0.15
      P1  H  6934  6946       L1     5  0.93
      P1  H  7997  8008       L1    16  0.85

> <Gold.Chemscore.Hbond.Weighted>
-11.0141

> <Gold.Chemscore.Metal.Weighted>
-0.0000

> <Gold.Chemscore.Lipo.Weighted>
-5.6616

> <Gold.Chemscore.Internal_Hbond.Weighted>
0.0000

> <Gold.Chemscore.DEClash.Weighted>
0.0897

> <Gold.Chemscore.DEInternal.Weighted>
0.7176

> <Gold.Chemscore.Rot.Weighted>
4.1553

> <Gold.Chemscore.Internal.Correction.Weighted>
   9.000000E+99

> <Gold.Protein.RotatedTorsions>
[ 6907 6896 6895 6894 ] final  173.00 input  -60.11 | X-H torsion
[ 7974 7965 7964 7962 ] final  -95.26 input  175.53 | X-H torsion
[ 8008 7997 7996 7995 ] final  -72.76 input   59.86 | X-H torsion
[ 10167 10162 10161 10158 ] final  -66.94 input  -65.29 | X-H torsion
[ 10718 10713 10712 10709 ] final  -35.62 input   66.30 | X-H torsion
[ 10763 10752 10751 10750 ] final -137.44 input  -60.55 | X-H torsion
[ 11005 11000 10999 10996 ] final  117.95 input  -57.11 | X-H torsion

> <Gold.Protein.ActiveResidues>
 VAL166  LYS551  ARG553  GLY616  TRP617  ASP618  TYR619  PRO620  LYS621  CYS622 
 ASP623  PHE694  ASN695  SER759  ASP760  ASP761  ALA762  ILE779  LEU786  VAL792 
 PHE793  MET794  SER795  GLU796  ALA797  LYS798  CYS799  TRP800  GLU811  SER814 

> <Gold.Protein.RotatedAtoms>
  151.7754  133.3345  159.3455 H   0  0  0  0  0  0  0  0  0  0  0  0  # atno 6907 bound_to 6896
  150.7446  134.5980  159.6031 H   0  0  0  0  0  0  0  0  0  0  0  0  # atno 6908 bound_to 6896
  152.3313  134.7257  160.0340 H   0  0  0  0  0  0  0  0  0  0  0  0  # atno 6909 bound_to 6896
  145.3624  140.9493  143.2493 H   0  0  0  0  0  0  0  0  0  0  0  0  # atno 7974 bound_to 7965
  154.5192  140.0791  156.8139 H   0  0  0  0  0  0  0  0  0  0  0  0  # atno 8008 bound_to 7997
  155.3613  140.3418  155.4222 H   0  0  0  0  0  0  0  0  0  0  0  0  # atno 8009 bound_to 7997
  156.1662  140.1604  156.8514 H   0  0  0  0  0  0  0  0  0  0  0  0  # atno 8010 bound_to 7997
  140.5620  143.2313  151.6709 H   0  0  0  0  0  0  0  0  0  0  0  0  # atno 10167 bound_to 10162
  156.3364  130.4287  149.7826 H   0  0  0  0  0  0  0  0  0  0  0  0  # atno 10718 bound_to 10713
  154.8661  135.3642  154.5224 H   0  0  0  0  0  0  0  0  0  0  0  0  # atno 10763 bound_to 10752
  153.5854  135.7017  153.5450 H   0  0  0  0  0  0  0  0  0  0  0  0  # atno 10764 bound_to 10752
  153.3420  135.4095  155.1542 H   0  0  0  0  0  0  0  0  0  0  0  0  # atno 10765 bound_to 10752
  139.9092  134.9615  156.7429 H   0  0  0  0  0  0  0  0  0  0  0  0  # atno 11005 bound_to 11000
  144.8636  139.5140  143.6800 LP  0  0  0  0  0  0  0  0  0  0  0  0  # atno 17320 bound_to 7965
  146.2921  139.7171  142.9153 LP  0  0  0  0  0  0  0  0  0  0  0  0  # atno 17321 bound_to 7965
  139.5075  144.3645  152.0530 LP  0  0  0  0  0  0  0  0  0  0  0  0  # atno 17342 bound_to 10162
  140.2773  144.3898  150.6131 LP  0  0  0  0  0  0  0  0  0  0  0  0  # atno 17343 bound_to 10162
  156.5079  130.8158  151.3157 LP  0  0  0  0  0  0  0  0  0  0  0  0  # atno 17370 bound_to 10713
  157.7439  130.9923  150.2633 LP  0  0  0  0  0  0  0  0  0  0  0  0  # atno 17371 bound_to 10713
  140.6835  133.9453  155.7924 LP  0  0  0  0  0  0  0  0  0  0  0  0  # atno 17394 bound_to 11000
  141.0493  134.0508  157.3804 LP  0  0  0  0  0  0  0  0  0  0  0  0  # atno 17395 bound_to 11000

$$$$
