AV-unprocessed.smi:1920|AV-procd|sdf|7782|dock3
  -GOLD-   22720 9523D 1   1.00000     0.00000
 Structure written by MMmdl.
 36 37  0  0  0  0  0  0  0  0  1 V2000
  152.5906  138.6471  154.7369 C   0  0  0  0  0  0  0  0  0  0  0  0
  151.2481  139.3064  155.0896 C   0  0  1  0  0  0  0  0  0  0  0  0
  150.0702  138.3384  154.8694 C   0  0  0  0  0  0  0  0  0  0  0  0
  148.7993  139.0316  154.7641 N   0  0  0  0  0  0  0  0  0  0  0  0
  147.9408  139.0452  153.6728 C   0  0  0  0  0  0  0  0  0  0  0  0
  146.8679  139.8319  154.0264 C   0  0  0  0  0  0  0  0  0  0  0  0
  147.0428  140.3076  155.3239 N   0  0  0  0  0  0  0  0  0  0  0  0
  148.2068  139.7909  155.6960 C   0  0  0  0  0  0  0  0  0  0  0  0
  151.2701  139.7638  156.4773 N   0  0  0  0  0  0  0  0  0  0  0  0
  151.1032  141.0325  156.8806 C   0  0  0  0  0  0  0  0  0  0  0  0
  150.8994  141.9683  156.1071 O   0  0  0  0  0  0  0  0  0  0  0  0
  151.1830  141.2851  158.3897 C   0  0  0  0  0  0  0  0  0  0  0  0
  152.3179  142.2531  158.7891 C   0  0  2  0  0  0  0  0  0  0  0  0
  152.5019  142.3933  160.2815 C   0  0  0  0  0  0  0  0  0  0  0  0
  152.5021  143.6628  160.6816 C   0  0  0  0  0  0  0  0  0  0  0  0
  152.3190  144.6251  159.5411 C   0  0  0  0  0  0  0  0  0  0  0  0
  152.0729  143.7103  158.3208 C   0  0  0  0  0  0  0  0  0  0  0  0
  152.6037  138.3174  153.6977 H   0  0  0  0  0  0  0  0  0  0  0  0
  152.7825  137.7766  155.3650 H   0  0  0  0  0  0  0  0  0  0  0  0
  153.4202  139.3422  154.8689 H   0  0  0  0  0  0  0  0  0  0  0  0
  151.1082  140.1641  154.4287 H   0  0  0  0  0  0  0  0  0  0  0  0
  150.2173  137.7705  153.9497 H   0  0  0  0  0  0  0  0  0  0  0  0
  150.0112  137.6102  155.6800 H   0  0  0  0  0  0  0  0  0  0  0  0
  148.1598  138.5114  152.7599 H   0  0  0  0  0  0  0  0  0  0  0  0
  145.9906  140.0893  153.4515 H   0  0  0  0  0  0  0  0  0  0  0  0
  148.6407  139.9719  156.6685 H   0  0  0  0  0  0  0  0  0  0  0  0
  151.4306  139.0619  157.1853 H   0  0  0  0  0  0  0  0  0  0  0  0
  150.2246  141.6924  158.7134 H   0  0  0  0  0  0  0  0  0  0  0  0
  151.3060  140.3359  158.9141 H   0  0  0  0  0  0  0  0  0  0  0  0
  153.2648  141.8995  158.3782 H   0  0  0  0  0  0  0  0  0  0  0  0
  152.6360  141.5407  160.9312 H   0  0  0  0  0  0  0  0  0  0  0  0
  152.6337  143.9947  161.7009 H   0  0  0  0  0  0  0  0  0  0  0  0
  151.4764  145.2916  159.7272 H   0  0  0  0  0  0  0  0  0  0  0  0
  153.2203  145.2262  159.4188 H   0  0  0  0  0  0  0  0  0  0  0  0
  152.7228  143.9749  157.4860 H   0  0  0  0  0  0  0  0  0  0  0  0
  151.0460  143.8368  157.9752 H   0  0  0  0  0  0  0  0  0  0  0  0
  1  2  1  0  0  0  0
  1 18  1  0  0  0  0
  1 19  1  0  0  0  0
  1 20  1  0  0  0  0
  2  3  1  0  0  0  0
  2  9  1  0  0  0  0
  2 21  1  0  0  0  0
  3  4  1  0  0  0  0
  3 22  1  0  0  0  0
  3 23  1  0  0  0  0
  4  8  1  0  0  0  0
  4  5  1  0  0  0  0
  5  6  2  0  0  0  0
  5 24  1  0  0  0  0
  6  7  1  0  0  0  0
  6 25  1  0  0  0  0
  7  8  2  0  0  0  0
  8 26  1  0  0  0  0
  9 10  1  0  0  0  0
  9 27  1  0  0  0  0
 10 11  2  0  0  0  0
 10 12  1  0  0  0  0
 12 13  1  0  0  0  0
 12 28  1  0  0  0  0
 12 29  1  0  0  0  0
 13 17  1  0  0  0  0
 13 14  1  0  0  0  0
 13 30  1  0  0  0  0
 14 15  2  0  0  0  0
 14 31  1  0  0  0  0
 15 16  1  0  0  0  0
 15 32  1  0  0  0  0
 16 17  1  0  0  0  0
 16 33  1  0  0  0  0
 16 34  1  0  0  0  0
 17 35  1  0  0  0  0
 17 36  1  0  0  0  0
M  END
> <s_m_source_file>
AV-unprocessed.smi

> <i_m_source_file_index>
1920

> <i_lp_mmshare_version>
43012

> <i_f3d_flags>
0

> <s_epik_input>
W2NIXTFuW2NIXVtjSF1uMVtDSDJdW0NAQEhdKFtDSDNdKVtOSF1DKD1PKVtDSDJdW0NAQEhdMltDSF09W0NIXVtDSDJdW0NIMl0y

> <s_epik_cmdline>
J2VwaWtfcHl0aG9uJywgJy1waCcsICc3LjAnLCAnLXRuJywgJzgnLCAnLW1hJywgJzIwMCcsICctbWV0YWxfYmluZGluZycsICctaW1hZScsICc8aW5maWxlLm1hZT4nLCAnLW9tYWUnLCAnPG91dGZpbGUubWFlPic=

> <r_lp_tautomer_probability>
1

> <r_epik_Ionization_Penalty>
0.635367

> <r_epik_Ionization_Penalty_Charging>
0.635367

> <r_epik_Ionization_Penalty_Neutral>
2.1249e-08

> <r_epik_State_Penalty>
0.65258

> <r_epik_Charging_Adjusted_Penalty>
1.28795

> <i_epik_Tot_Q>
0

> <i_epik_Tot_abs_Q>
0

> <r_epik_Metal_State_Penalty>
0.310403

> <b_epik_Metal_Only>
0

> <s_lp_Force_Field>
OPLS_2005

> <r_lp_Energy>
19.6981

> <b_lp_Chiralities_Consistent>
1

> <s_lp_Variant>
AV-unprocessed.smi:1920-6

> <Gold.Version>
5.8.1

> <Gold.Id.Protein>
6NUR|6NUR_protein|mol2

> <Gold.PLP.Fitness>
42.3783

> <Gold.PLP.PLP>
-34.8748

> <Gold.PLP.part.hbond>
0.0000

> <Gold.PLP.part.metal>
0.0000

> <Gold.PLP.part.buried>
-2.6862

> <Gold.PLP.part.nonpolar>
-33.2490

> <Gold.PLP.part.repulsive>
0.2324

> <Gold.PLP.ligand.clash>
0.0000

> <Gold.PLP.ligand.torsion>
0.1901

> <Gold.PLP.Chemscore.Hbond>
0.0000

> <Gold.PLP.Chemscore.CHOScore>
2.6129

> <Gold.PLP.Chemscore.Metal>
0.0000

> <Gold.Chemscore.Hbonds>
donor molecule, donor type, donor heavy atom, donor atom, acceptor molecule, acceptor atom, score
      L1  C     5    24       P1  7948  0.95
      L1  C     5    24       P1  7957  0.47
      L1  C     6    25       P1 10175  0.99

> <Gold.PLP.Chemscore.Internal.Correction>
0.0448

> <Gold.Rescore>
     Score         DG    S(hbond)    S(metal)    S(lipo)     H(rot)  DE(clash)    DE(int)     intcor
     11.65     -11.95       0.00        0.00      97.55       1.93       0.04       0.27       ----

> <Gold.Chemscore.Fitness>
11.6459

> <Gold.Chemscore.DG>
-11.9504

> <Gold.Chemscore.ZeroCoef>
-5.4800

> <Gold.Chemscore.Hbond>
0.0000

> <Gold.Chemscore.Metal>
0.0000

> <Gold.Chemscore.Lipo>
97.5454

> <Gold.Chemscore.Internal_Hbond>
0.0000

> <Gold.Chemscore.DEClash>
0.0387

> <Gold.Chemscore.DEInternal>
0.2658

> <Gold.Chemscore.Rot>
1.9306

> <Gold.Chemscore.Internal.Correction>
   9.000000E+99

> <Gold.Chemscore.Hbond.Weighted>
-0.0000

> <Gold.Chemscore.Metal.Weighted>
-0.0000

> <Gold.Chemscore.Lipo.Weighted>
-11.4128

> <Gold.Chemscore.Internal_Hbond.Weighted>
0.0000

> <Gold.Chemscore.DEClash.Weighted>
0.0387

> <Gold.Chemscore.DEInternal.Weighted>
0.2658

> <Gold.Chemscore.Rot.Weighted>
4.9424

> <Gold.Chemscore.Internal.Correction.Weighted>
   9.000000E+99

> <Gold.Protein.RotatedTorsions>
[ 6907 6896 6895 6894 ] final -142.13 input  -60.11 | X-H torsion
[ 7974 7965 7964 7962 ] final  132.74 input  175.53 | X-H torsion
[ 8008 7997 7996 7995 ] final  124.50 input   59.86 | X-H torsion
[ 10167 10162 10161 10158 ] final   65.83 input  -65.29 | X-H torsion
[ 10718 10713 10712 10709 ] final -131.56 input   66.30 | X-H torsion
[ 10763 10752 10751 10750 ] final  -33.32 input  -60.55 | X-H torsion
[ 11005 11000 10999 10996 ] final   49.24 input  -57.11 | X-H torsion

> <Gold.Protein.ActiveResidues>
 VAL166  LYS551  ARG553  GLY616  TRP617  ASP618  TYR619  PRO620  LYS621  CYS622 
 ASP623  PHE694  ASN695  SER759  ASP760  ASP761  ALA762  ILE779  LEU786  VAL792 
 PHE793  MET794  SER795  GLU796  ALA797  LYS798  CYS799  TRP800  GLU811  SER814 

> <Gold.Protein.RotatedAtoms>
  151.0830  133.5375  159.2619 H   0  0  0  0  0  0  0  0  0  0  0  0  # atno 6907 bound_to 6896
  151.2271  135.0540  159.8983 H   0  0  0  0  0  0  0  0  0  0  0  0  # atno 6908 bound_to 6896
  152.5426  134.0624  159.8211 H   0  0  0  0  0  0  0  0  0  0  0  0  # atno 6909 bound_to 6896
  144.9938  139.4380  143.5326 H   0  0  0  0  0  0  0  0  0  0  0  0  # atno 7974 bound_to 7965
  156.2803  140.2738  156.1799 H   0  0  0  0  0  0  0  0  0  0  0  0  # atno 8008 bound_to 7997
  155.0567  140.0386  157.2580 H   0  0  0  0  0  0  0  0  0  0  0  0  # atno 8009 bound_to 7997
  154.7150  140.2676  155.6599 H   0  0  0  0  0  0  0  0  0  0  0  0  # atno 8010 bound_to 7997
  140.1070  144.4852  150.7001 H   0  0  0  0  0  0  0  0  0  0  0  0  # atno 10167 bound_to 10162
  156.2256  130.7006  151.0804 H   0  0  0  0  0  0  0  0  0  0  0  0  # atno 10718 bound_to 10713
  153.8284  135.6868  153.4818 H   0  0  0  0  0  0  0  0  0  0  0  0  # atno 10763 bound_to 10752
  153.1526  135.4612  154.9657 H   0  0  0  0  0  0  0  0  0  0  0  0  # atno 10764 bound_to 10752
  154.7897  135.3297  154.7749 H   0  0  0  0  0  0  0  0  0  0  0  0  # atno 10765 bound_to 10752
  140.1121  134.4941  155.8669 H   0  0  0  0  0  0  0  0  0  0  0  0  # atno 11005 bound_to 11000
  146.3437  139.9285  142.8757 LP  0  0  0  0  0  0  0  0  0  0  0  0  # atno 17320 bound_to 7965
  145.2249  140.9950  143.4024 LP  0  0  0  0  0  0  0  0  0  0  0  0  # atno 17321 bound_to 7965
  140.6946  143.2396  151.5035 LP  0  0  0  0  0  0  0  0  0  0  0  0  # atno 17342 bound_to 10162
  139.5640  144.2088  152.1735 LP  0  0  0  0  0  0  0  0  0  0  0  0  # atno 17343 bound_to 10162
  157.7109  131.0734  150.6504 LP  0  0  0  0  0  0  0  0  0  0  0  0  # atno 17370 bound_to 10713
  156.6569  130.4501  149.5700 LP  0  0  0  0  0  0  0  0  0  0  0  0  # atno 17371 bound_to 10713
  141.2132  133.6731  156.6724 LP  0  0  0  0  0  0  0  0  0  0  0  0  # atno 17394 bound_to 11000
  140.3077  134.8111  157.4151 LP  0  0  0  0  0  0  0  0  0  0  0  0  # atno 17395 bound_to 11000

$$$$
