AV-unprocessed.smi:1120|AV-procd|sdf|4818|dock6
  -GOLD-   22720 3373D 1   1.00000     0.00000
 Structure written by MMmdl.
 48 49  0  0  0  0  0  0  0  0  1 V2000
  153.2993  142.7702  161.4086 C   0  0  0  0  0  0  0  0  0  0  0  0
  152.3846  142.0260  160.4254 C   0  0  2  0  0  0  0  0  0  0  0  0
  153.1343  140.8852  159.7109 C   0  0  0  0  0  0  0  0  0  0  0  0
  152.2201  140.1390  158.7262 C   0  0  0  0  0  0  0  0  0  0  0  0
  151.5953  141.0990  157.6983 C   0  0  1  0  0  0  0  0  0  0  0  0
  150.6823  140.3503  156.8307 N   0  0  0  0  0  0  0  0  0  0  0  0
  151.3228  139.4056  155.5338 S   0  0  0  0  0  0  0  0  0  0  0  0
  150.6042  139.7854  154.3073 O   0  0  0  0  0  0  0  0  0  0  0  0
  152.7883  139.5173  155.5949 O   0  0  0  0  0  0  0  0  0  0  0  0
  150.8525  137.6889  156.0278 C   0  0  0  0  0  0  0  0  0  0  0  0
  150.2708  137.6859  157.4409 C   0  0  0  0  0  0  0  0  0  0  0  0
  151.0242  137.6331  158.4124 O   0  0  0  0  0  0  0  0  0  0  0  0
  148.9340  137.7469  157.5440 N   0  0  0  0  0  0  0  0  0  0  0  0
  148.1928  137.7786  158.7997 C   0  0  0  0  0  0  0  0  0  0  0  0
  148.1412  136.3934  159.4661 C   0  0  0  0  0  0  0  0  0  0  0  0
  147.4839  136.4376  160.8330 C   0  0  0  0  0  0  0  0  0  0  0  0
  147.1747  135.2459  161.5232 C   0  0  0  0  0  0  0  0  0  0  0  0
  146.5590  135.3429  162.7863 C   0  0  0  0  0  0  0  0  0  0  0  0
  146.2765  136.6201  163.3074 C   0  0  0  0  0  0  0  0  0  0  0  0
  146.6232  137.7488  162.5387 C   0  0  0  0  0  0  0  0  0  0  0  0
  147.2134  137.6671  161.3265 N   0  0  0  0  0  0  0  0  0  0  0  0
  150.8491  142.2472  158.4049 C   0  0  0  0  0  0  0  0  0  0  0  0
  151.7647  142.9873  159.3933 C   0  0  0  0  0  0  0  0  0  0  0  0
  154.1419  143.2328  160.8938 H   0  0  0  0  0  0  0  0  0  0  0  0
  153.7008  142.0917  162.1617 H   0  0  0  0  0  0  0  0  0  0  0  0
  152.7556  143.5574  161.9314 H   0  0  0  0  0  0  0  0  0  0  0  0
  151.5716  141.5842  161.0036 H   0  0  0  0  0  0  0  0  0  0  0  0
  153.9944  141.2875  159.1739 H   0  0  0  0  0  0  0  0  0  0  0  0
  153.5301  140.1818  160.4443 H   0  0  0  0  0  0  0  0  0  0  0  0
  152.7898  139.3626  158.2139 H   0  0  0  0  0  0  0  0  0  0  0  0
  151.4329  139.6280  159.2827 H   0  0  0  0  0  0  0  0  0  0  0  0
  152.3956  141.5161  157.0857 H   0  0  0  0  0  0  0  0  0  0  0  0
  149.9101  140.9357  156.5120 H   0  0  0  0  0  0  0  0  0  0  0  0
  150.1171  137.3173  155.3138 H   0  0  0  0  0  0  0  0  0  0  0  0
  151.7325  137.0486  155.9652 H   0  0  0  0  0  0  0  0  0  0  0  0
  148.3916  137.7920  156.6936 H   0  0  0  0  0  0  0  0  0  0  0  0
  148.6341  138.5141  159.4745 H   0  0  0  0  0  0  0  0  0  0  0  0
  147.1811  138.1231  158.5846 H   0  0  0  0  0  0  0  0  0  0  0  0
  147.5981  135.6935  158.8298 H   0  0  0  0  0  0  0  0  0  0  0  0
  149.1483  135.9883  159.5757 H   0  0  0  0  0  0  0  0  0  0  0  0
  147.4015  134.2796  161.0969 H   0  0  0  0  0  0  0  0  0  0  0  0
  146.3076  134.4535  163.3448 H   0  0  0  0  0  0  0  0  0  0  0  0
  145.8050  136.7327  164.2722 H   0  0  0  0  0  0  0  0  0  0  0  0
  146.4211  138.7438  162.9067 H   0  0  0  0  0  0  0  0  0  0  0  0
  150.4647  142.9580  157.6733 H   0  0  0  0  0  0  0  0  0  0  0  0
  149.9830  141.8536  158.9389 H   0  0  0  0  0  0  0  0  0  0  0  0
  151.1961  143.7659  159.9026 H   0  0  0  0  0  0  0  0  0  0  0  0
  152.5564  143.4956  158.8410 H   0  0  0  0  0  0  0  0  0  0  0  0
  1  2  1  0  0  0  0
  1 24  1  0  0  0  0
  1 25  1  0  0  0  0
  1 26  1  0  0  0  0
  2 23  1  0  0  0  0
  2  3  1  0  0  0  0
  2 27  1  0  0  0  0
  3  4  1  0  0  0  0
  3 28  1  0  0  0  0
  3 29  1  0  0  0  0
  4  5  1  0  0  0  0
  4 30  1  0  0  0  0
  4 31  1  0  0  0  0
  5  6  1  0  0  0  0
  5 22  1  0  0  0  0
  5 32  1  0  0  0  0
  6  7  1  0  0  0  0
  6 33  1  0  0  0  0
  7  8  2  0  0  0  0
  7  9  2  0  0  0  0
  7 10  1  0  0  0  0
 10 11  1  0  0  0  0
 10 34  1  0  0  0  0
 10 35  1  0  0  0  0
 11 12  2  0  0  0  0
 11 13  1  0  0  0  0
 13 14  1  0  0  0  0
 13 36  1  0  0  0  0
 14 15  1  0  0  0  0
 14 37  1  0  0  0  0
 14 38  1  0  0  0  0
 15 16  1  0  0  0  0
 15 39  1  0  0  0  0
 15 40  1  0  0  0  0
 16 21  1  0  0  0  0
 16 17  2  0  0  0  0
 17 18  1  0  0  0  0
 17 41  1  0  0  0  0
 18 19  2  0  0  0  0
 18 42  1  0  0  0  0
 19 20  1  0  0  0  0
 19 43  1  0  0  0  0
 20 21  2  0  0  0  0
 20 44  1  0  0  0  0
 22 23  1  0  0  0  0
 22 45  1  0  0  0  0
 22 46  1  0  0  0  0
 23 47  1  0  0  0  0
 23 48  1  0  0  0  0
M  END
> <s_m_source_file>
AV-unprocessed.smi

> <i_m_source_file_index>
1120

> <i_lp_mmshare_version>
43012

> <i_f3d_flags>
0

> <s_epik_input>
W0NIM11bQ0BASF0xW0NIMl1bQ0gyXVtDQEhdKFtDSDJdW0NIMl0xKVtOSF1TKD1PKSg9TylbQ0gyXUMoPU8pW05IXVtDSDJdW0NIMl1jMltjSF1bY0hdW2NIXVtjSF1uMg==

> <s_epik_cmdline>
J2VwaWtfcHl0aG9uJywgJy1waCcsICc3LjAnLCAnLXRuJywgJzgnLCAnLW1hJywgJzIwMCcsICctbWV0YWxfYmluZGluZycsICctaW1hZScsICc8aW5maWxlLm1hZT4nLCAnLW9tYWUnLCAnPG91dGZpbGUubWFlPic=

> <r_epik_Ionization_Penalty>
0.0216068

> <r_epik_Ionization_Penalty_Charging>
0

> <r_epik_Ionization_Penalty_Neutral>
0.0216068

> <r_epik_State_Penalty>
0.01735

> <r_epik_Charging_Adjusted_Penalty>
0.01735

> <i_epik_Tot_Q>
0

> <i_epik_Tot_abs_Q>
0

> <r_epik_Metal_State_Penalty>
0.0535325

> <b_epik_Metal_Only>
0

> <s_lp_Force_Field>
OPLS_2005

> <r_lp_Energy>
6.02559

> <b_lp_Chiralities_Consistent>
1

> <s_lp_Variant>
AV-unprocessed.smi:1120-1

> <Gold.Version>
5.8.1

> <Gold.Id.Protein>
6NUR|6NUR_protein|mol2

> <Gold.PLP.Fitness>
52.0314

> <Gold.PLP.PLP>
-43.1784

> <Gold.PLP.part.hbond>
-4.0000

> <Gold.PLP.part.metal>
0.0000

> <Gold.PLP.part.buried>
-5.9109

> <Gold.PLP.part.nonpolar>
-32.6280

> <Gold.PLP.part.repulsive>
0.1716

> <Gold.PLP.ligand.clash>
0.0000

> <Gold.PLP.ligand.torsion>
0.8927

> <Gold.PLP.Chemscore.Hbond>
3.4464

> <Gold.PLP.Chemscore.CHOScore>
0.0000

> <Gold.PLP.Chemscore.Metal>
0.0000

> <Gold.Chemscore.Hbonds>
donor molecule, donor type, donor heavy atom, donor atom, acceptor molecule, acceptor atom, score
      P1  H  6931  6943       L1    21  0.52
      P1  H  6934  6947       L1    21  0.69
      P1  H  7989  7998       L1     8  1.00
      P1  H  7997  8008       L1     9  1.00

> <Gold.PLP.Chemscore.Internal.Correction>
0.2991

> <Gold.Rescore>
     Score         DG    S(hbond)    S(metal)    S(lipo)     H(rot)  DE(clash)    DE(int)     intcor
     18.89     -23.23       2.67        0.00     121.81       2.12       1.87       2.47       ----

> <Gold.Chemscore.Fitness>
18.8916

> <Gold.Chemscore.DG>
-23.2338

> <Gold.Chemscore.ZeroCoef>
-5.4800

> <Gold.Chemscore.Hbond>
2.6746

> <Gold.Chemscore.Metal>
0.0000

> <Gold.Chemscore.Lipo>
121.8064

> <Gold.Chemscore.Internal_Hbond>
0.0000

> <Gold.Chemscore.DEClash>
1.8705

> <Gold.Chemscore.DEInternal>
2.4717

> <Gold.Chemscore.Rot>
2.1213

> <Gold.Chemscore.Internal.Correction>
   9.000000E+99

> <Gold.Chemscore.Hbonds>
donor molecule, donor type, donor heavy atom, donor atom, acceptor molecule, acceptor atom, score
      P1  H  6931  6943       L1    21  0.03
      P1  H  6934  6947       L1    21  0.16
      P1  H  7989  7998       L1     8  0.55
      P1  H  7997  8008       L1     9  1.00

> <Gold.Chemscore.Hbond.Weighted>
-8.9330

> <Gold.Chemscore.Metal.Weighted>
-0.0000

> <Gold.Chemscore.Lipo.Weighted>
-14.2513

> <Gold.Chemscore.Internal_Hbond.Weighted>
0.0000

> <Gold.Chemscore.DEClash.Weighted>
1.8705

> <Gold.Chemscore.DEInternal.Weighted>
2.4717

> <Gold.Chemscore.Rot.Weighted>
5.4305

> <Gold.Chemscore.Internal.Correction.Weighted>
   9.000000E+99

> <Gold.Protein.RotatedTorsions>
[ 6907 6896 6895 6894 ] final  153.01 input  -60.11 | X-H torsion
[ 7974 7965 7964 7962 ] final   72.47 input  175.53 | X-H torsion
[ 8008 7997 7996 7995 ] final  -30.13 input   59.86 | X-H torsion
[ 10167 10162 10161 10158 ] final   64.35 input  -65.29 | X-H torsion
[ 10718 10713 10712 10709 ] final   31.42 input   66.30 | X-H torsion
[ 10763 10752 10751 10750 ] final  157.06 input  -60.55 | X-H torsion
[ 11005 11000 10999 10996 ] final  111.68 input  -57.11 | X-H torsion

> <Gold.Protein.ActiveResidues>
 VAL166  LYS551  ARG553  GLY616  TRP617  ASP618  TYR619  PRO620  LYS621  CYS622 
 ASP623  PHE694  ASN695  SER759  ASP760  ASP761  ALA762  ILE779  LEU786  VAL792 
 PHE793  MET794  SER795  GLU796  ALA797  LYS798  CYS799  TRP800  GLU811  SER814 

> <Gold.Protein.RotatedAtoms>
  152.0787  133.4142  159.4491 H   0  0  0  0  0  0  0  0  0  0  0  0  # atno 6907 bound_to 6896
  150.6862  134.3007  159.4714 H   0  0  0  0  0  0  0  0  0  0  0  0  # atno 6908 bound_to 6896
  152.0846  134.9447  160.0623 H   0  0  0  0  0  0  0  0  0  0  0  0  # atno 6909 bound_to 6896
  145.7530  139.2768  143.1420 H   0  0  0  0  0  0  0  0  0  0  0  0  # atno 7974 bound_to 7965
  154.4262  140.1799  156.1358 H   0  0  0  0  0  0  0  0  0  0  0  0  # atno 8008 bound_to 7997
  156.0031  140.3358  155.6841 H   0  0  0  0  0  0  0  0  0  0  0  0  # atno 8009 bound_to 7997
  155.6215  140.0660  157.2667 H   0  0  0  0  0  0  0  0  0  0  0  0  # atno 8010 bound_to 7997
  140.1231  144.4713  150.6908 H   0  0  0  0  0  0  0  0  0  0  0  0  # atno 10167 bound_to 10162
  157.2723  130.7214  149.6511 H   0  0  0  0  0  0  0  0  0  0  0  0  # atno 10718 bound_to 10713
  154.1942  135.2793  155.3012 H   0  0  0  0  0  0  0  0  0  0  0  0  # atno 10763 bound_to 10752
  154.5905  135.5561  153.7277 H   0  0  0  0  0  0  0  0  0  0  0  0  # atno 10764 bound_to 10752
  153.0104  135.6367  154.2080 H   0  0  0  0  0  0  0  0  0  0  0  0  # atno 10765 bound_to 10752
  139.8909  134.9513  156.6469 H   0  0  0  0  0  0  0  0  0  0  0  0  # atno 11005 bound_to 11000
  146.0338  140.8232  142.9862 LP  0  0  0  0  0  0  0  0  0  0  0  0  # atno 17320 bound_to 7965
  144.6846  140.2809  143.7292 LP  0  0  0  0  0  0  0  0  0  0  0  0  # atno 17321 bound_to 7965
  140.6860  143.2350  151.5258 LP  0  0  0  0  0  0  0  0  0  0  0  0  # atno 17342 bound_to 10162
  139.5558  144.2279  152.1610 LP  0  0  0  0  0  0  0  0  0  0  0  0  # atno 17343 bound_to 10162
  155.9663  130.4364  150.5131 LP  0  0  0  0  0  0  0  0  0  0  0  0  # atno 17370 bound_to 10713
  157.3058  131.0654  151.2036 LP  0  0  0  0  0  0  0  0  0  0  0  0  # atno 17371 bound_to 10713
  140.7550  133.8865  155.8375 LP  0  0  0  0  0  0  0  0  0  0  0  0  # atno 17394 bound_to 11000
  140.9969  134.1203  157.4355 LP  0  0  0  0  0  0  0  0  0  0  0  0  # atno 17395 bound_to 11000

$$$$
