AV-unprocessed.smi:1825|AV-procd|sdf|7414|dock1
  -GOLD-   22720 9 93D 1   1.00000     0.00000
 Structure written by MMmdl.
 33 34  0  0  0  0  0  0  0  0  2 V2000
  150.7045  139.9057  154.3870 O   0  0  0  0  0  0  0  0  0  0  0  0
  151.3014  139.5568  155.4083 C   0  0  0  0  0  0  0  0  0  0  0  0
  151.4701  140.4238  156.4180 N   0  0  0  0  0  0  0  0  0  0  0  0
  151.0045  141.8100  156.4649 C   0  0  0  0  0  0  0  0  0  0  0  0
  151.1518  142.4624  157.8636 C   0  0  0  0  0  0  0  0  0  0  0  0
  149.9936  142.1133  158.6014 O   0  0  0  0  0  0  0  0  0  0  0  0
  152.3671  141.8431  158.5963 C   0  0  0  0  0  0  0  0  0  0  0  0
  152.6401  142.4832  159.9694 C   0  0  0  0  0  0  0  0  0  0  0  0
  152.7990  144.0049  159.8524 C   0  0  0  0  0  0  0  0  0  0  0  0
  151.5652  144.6339  159.1919 C   0  0  0  0  0  0  0  0  0  0  0  0
  151.2807  144.0071  157.8153 C   0  0  0  0  0  0  0  0  0  0  0  0
  151.8264  138.3339  155.6492 N   0  5  0  0  0  0  0  0  0  0  0  0
  151.0871  137.2323  155.4406 C   0  0  0  0  0  0  0  0  0  0  0  0
  151.5790  135.9925  155.5452 N   0  0  0  0  0  0  0  0  0  0  0  0
  150.6329  134.9969  155.2942 C   0  0  0  0  0  0  0  0  0  0  0  0
  149.3895  135.4900  155.0000 C   0  0  0  0  0  0  0  0  0  0  0  0
  149.3699  137.2302  155.0280 S   0  0  0  0  0  0  0  0  0  0  0  0
  151.9571  140.0863  157.2352 H   0  0  0  0  0  0  0  0  0  0  0  0
  151.5624  142.3809  155.7214 H   0  0  0  0  0  0  0  0  0  0  0  0
  149.9630  141.8589  156.1435 H   0  0  0  0  0  0  0  0  0  0  0  0
  150.2318  141.4523  159.2330 H   0  0  0  0  0  0  0  0  0  0  0  0
  152.2298  140.7672  158.7145 H   0  0  0  0  0  0  0  0  0  0  0  0
  153.2578  141.9651  157.9783 H   0  0  0  0  0  0  0  0  0  0  0  0
  151.8257  142.2507  160.6567 H   0  0  0  0  0  0  0  0  0  0  0  0
  153.5410  142.0508  160.4054 H   0  0  0  0  0  0  0  0  0  0  0  0
  152.9556  144.4405  160.8397 H   0  0  0  0  0  0  0  0  0  0  0  0
  153.6883  144.2376  159.2651 H   0  0  0  0  0  0  0  0  0  0  0  0
  150.6977  144.5081  159.8406 H   0  0  0  0  0  0  0  0  0  0  0  0
  151.7117  145.7088  159.0827 H   0  0  0  0  0  0  0  0  0  0  0  0
  152.0893  144.2760  157.1344 H   0  0  0  0  0  0  0  0  0  0  0  0
  150.3761  144.4570  157.4048 H   0  0  0  0  0  0  0  0  0  0  0  0
  150.9324  133.9610  155.3493 H   0  0  0  0  0  0  0  0  0  0  0  0
  148.4889  134.9408  154.7710 H   0  0  0  0  0  0  0  0  0  0  0  0
  1  2  2  0  0  0  0
  2  3  1  0  0  0  0
  2 12  1  0  0  0  0
  3  4  1  0  0  0  0
  3 18  1  0  0  0  0
  4  5  1  0  0  0  0
  4 19  1  0  0  0  0
  4 20  1  0  0  0  0
  5 11  1  0  0  0  0
  5  6  1  0  0  0  0
  5  7  1  0  0  0  0
  6 21  1  0  0  0  0
  7  8  1  0  0  0  0
  7 22  1  0  0  0  0
  7 23  1  0  0  0  0
  8  9  1  0  0  0  0
  8 24  1  0  0  0  0
  8 25  1  0  0  0  0
  9 10  1  0  0  0  0
  9 26  1  0  0  0  0
  9 27  1  0  0  0  0
 10 11  1  0  0  0  0
 10 28  1  0  0  0  0
 10 29  1  0  0  0  0
 11 30  1  0  0  0  0
 11 31  1  0  0  0  0
 12 13  1  0  0  0  0
 13 17  1  0  0  0  0
 13 14  2  0  0  0  0
 14 15  1  0  0  0  0
 15 16  2  0  0  0  0
 15 32  1  0  0  0  0
 16 17  1  0  0  0  0
 16 33  1  0  0  0  0
M  CHG  1  12  -1
M  END
> <s_m_source_file>
AV-unprocessed.smi

> <i_m_source_file_index>
1825

> <i_lp_mmshare_version>
43012

> <i_f3d_flags>
0

> <s_epik_input>
czFbY0hdW2NIXW5jMVtOSF1DKD1PKVtOSF1bQ0gyXUMyKFtPSF0pW0NIMl1bQ0gyXVtDSDJdW0NIMl1bQ0gyXTI=

> <s_epik_cmdline>
J2VwaWtfcHl0aG9uJywgJy1waCcsICc3LjAnLCAnLXRuJywgJzgnLCAnLW1hJywgJzIwMCcsICctbWV0YWxfYmluZGluZycsICctaW1hZScsICc8aW5maWxlLm1hZT4nLCAnLW9tYWUnLCAnPG91dGZpbGUubWFlPic=

> <r_lp_tautomer_probability>
0.999

> <r_epik_Ionization_Penalty>
8.3436

> <r_epik_Ionization_Penalty_Charging>
6.70408

> <r_epik_Ionization_Penalty_Neutral>
1.63952

> <r_epik_State_Penalty>
6.70425

> <r_epik_Charging_Adjusted_Penalty>
13.4083

> <i_epik_Tot_Q>
-1

> <i_epik_Tot_abs_Q>
1

> <r_epik_Metal_State_Penalty>
2.62591

> <b_epik_Metal_Only>
1

> <s_lp_Force_Field>
OPLS_2005

> <r_lp_Energy>
9.48325

> <b_lp_Chiralities_Consistent>
1

> <s_lp_Variant>
AV-unprocessed.smi:1825-2

> <Gold.Version>
5.8.1

> <Gold.Id.Protein>
6NUR|6NUR_protein|mol2

> <Gold.PLP.Fitness>
38.0827

> <Gold.PLP.PLP>
-33.9248

> <Gold.PLP.part.hbond>
-2.1161

> <Gold.PLP.part.metal>
0.0000

> <Gold.PLP.part.buried>
-4.8201

> <Gold.PLP.part.nonpolar>
-26.4927

> <Gold.PLP.part.repulsive>
0.3213

> <Gold.PLP.ligand.clash>
0.0000

> <Gold.PLP.ligand.torsion>
0.9567

> <Gold.PLP.Chemscore.Hbond>
2.0000

> <Gold.PLP.Chemscore.CHOScore>
0.0000

> <Gold.PLP.Chemscore.Metal>
0.0000

> <Gold.Chemscore.Hbonds>
donor molecule, donor type, donor heavy atom, donor atom, acceptor molecule, acceptor atom, score
      P1  H  7989  7998       L1     1  1.00
      P1  H 10752 10763       L1    14  1.00

> <Gold.PLP.Chemscore.Internal.Correction>
0.0712

> <Gold.Rescore>
     Score         DG    S(hbond)    S(metal)    S(lipo)     H(rot)  DE(clash)    DE(int)     intcor
     15.98     -17.00       1.85        0.00      85.80       1.83       0.08       0.94       ----

> <Gold.Chemscore.Fitness>
15.9781

> <Gold.Chemscore.DG>
-17.0025

> <Gold.Chemscore.ZeroCoef>
-5.4800

> <Gold.Chemscore.Hbond>
1.8450

> <Gold.Chemscore.Metal>
0.0000

> <Gold.Chemscore.Lipo>
85.7962

> <Gold.Chemscore.Internal_Hbond>
0.0000

> <Gold.Chemscore.DEClash>
0.0812

> <Gold.Chemscore.DEInternal>
0.9432

> <Gold.Chemscore.Rot>
1.8274

> <Gold.Chemscore.Internal.Correction>
   9.000000E+99

> <Gold.Chemscore.Hbonds>
donor molecule, donor type, donor heavy atom, donor atom, acceptor molecule, acceptor atom, score
      P1  H  7989  7998       L1     1  0.77
      P1  H 10752 10763       L1    14  0.53

> <Gold.Chemscore.Hbond.Weighted>
-6.1624

> <Gold.Chemscore.Metal.Weighted>
-0.0000

> <Gold.Chemscore.Lipo.Weighted>
-10.0382

> <Gold.Chemscore.Internal_Hbond.Weighted>
0.0000

> <Gold.Chemscore.DEClash.Weighted>
0.0812

> <Gold.Chemscore.DEInternal.Weighted>
0.9432

> <Gold.Chemscore.Rot.Weighted>
4.6781

> <Gold.Chemscore.Internal.Correction.Weighted>
   9.000000E+99

> <Gold.Protein.RotatedTorsions>
[ 6907 6896 6895 6894 ] final -147.34 input  -60.11 | X-H torsion
[ 7974 7965 7964 7962 ] final  127.54 input  175.53 | X-H torsion
[ 8008 7997 7996 7995 ] final   92.62 input   59.86 | X-H torsion
[ 10167 10162 10161 10158 ] final  -26.59 input  -65.29 | X-H torsion
[ 10718 10713 10712 10709 ] final  111.35 input   66.30 | X-H torsion
[ 10763 10752 10751 10750 ] final   60.20 input  -60.55 | X-H torsion
[ 11005 11000 10999 10996 ] final  151.66 input  -57.11 | X-H torsion

> <Gold.Protein.ActiveResidues>
 VAL166  LYS551  ARG553  GLY616  TRP617  ASP618  TYR619  PRO620  LYS621  CYS622 
 ASP623  PHE694  ASN695  SER759  ASP760  ASP761  ALA762  ILE779  LEU786  VAL792 
 PHE793  MET794  SER795  GLU796  ALA797  LYS798  CYS799  TRP800  GLU811  SER814 

> <Gold.Protein.RotatedAtoms>
  151.1543  133.4887  159.2594 H   0  0  0  0  0  0  0  0  0  0  0  0  # atno 6907 bound_to 6896
  151.1521  135.0232  159.8683 H   0  0  0  0  0  0  0  0  0  0  0  0  # atno 6908 bound_to 6896
  152.5463  134.1425  159.8538 H   0  0  0  0  0  0  0  0  0  0  0  0  # atno 6909 bound_to 6896
  145.0494  139.3895  143.5061 H   0  0  0  0  0  0  0  0  0  0  0  0  # atno 7974 bound_to 7965
  156.0374  140.3323  155.7206 H   0  0  0  0  0  0  0  0  0  0  0  0  # atno 8008 bound_to 7997
  155.5795  140.0635  157.2804 H   0  0  0  0  0  0  0  0  0  0  0  0  # atno 8009 bound_to 7997
  154.4378  140.1846  156.0950 H   0  0  0  0  0  0  0  0  0  0  0  0  # atno 8010 bound_to 7997
  140.7282  143.4165  151.1020 H   0  0  0  0  0  0  0  0  0  0  0  0  # atno 10167 bound_to 10162
  157.6449  131.0949  150.6735 H   0  0  0  0  0  0  0  0  0  0  0  0  # atno 10718 bound_to 10713
  152.9915  135.5544  154.5836 H   0  0  0  0  0  0  0  0  0  0  0  0  # atno 10763 bound_to 10752
  154.5212  135.2808  155.1263 H   0  0  0  0  0  0  0  0  0  0  0  0  # atno 10764 bound_to 10752
  154.2615  135.6380  153.5329 H   0  0  0  0  0  0  0  0  0  0  0  0  # atno 10765 bound_to 10752
  140.1238  134.8846  157.2109 H   0  0  0  0  0  0  0  0  0  0  0  0  # atno 11005 bound_to 11000
  146.3516  140.0137  142.8665 LP  0  0  0  0  0  0  0  0  0  0  0  0  # atno 17320 bound_to 7965
  145.1546  140.9641  143.4413 LP  0  0  0  0  0  0  0  0  0  0  0  0  # atno 17321 bound_to 7965
  139.7805  143.8362  152.3137 LP  0  0  0  0  0  0  0  0  0  0  0  0  # atno 17342 bound_to 10162
  139.8311  144.7253  150.9449 LP  0  0  0  0  0  0  0  0  0  0  0  0  # atno 17343 bound_to 10162
  156.7054  130.4636  149.5561 LP  0  0  0  0  0  0  0  0  0  0  0  0  # atno 17370 bound_to 10713
  156.1766  130.6472  151.0902 LP  0  0  0  0  0  0  0  0  0  0  0  0  # atno 17371 bound_to 10713
  140.2930  134.3218  155.7310 LP  0  0  0  0  0  0  0  0  0  0  0  0  # atno 17394 bound_to 11000
  141.2157  133.7546  156.9531 LP  0  0  0  0  0  0  0  0  0  0  0  0  # atno 17395 bound_to 11000

$$$$
