AV-unprocessed.smi:1157|AV-procd|sdf|4910|dock3
  -GOLD-   22720 3483D 1   1.00000     0.00000
 Structure written by MMmdl.
 55 57  0  0  0  0  0  0  0  0  4 V2000
  144.5659  136.1733  153.8776 C   0  0  0  0  0  0  0  0  0  0  0  0
  145.6907  136.2862  152.8063 C   0  0  0  0  0  0  0  0  0  0  0  0
  144.9973  135.9972  151.4419 C   0  0  0  0  0  0  0  0  0  0  0  0
  146.3221  137.7340  152.8135 C   0  0  0  0  0  0  0  0  0  0  0  0
  146.7299  138.1515  154.1595 N   0  5  0  0  0  0  0  0  0  0  0  0
  147.3959  139.2998  154.4544 C   0  0  0  0  0  0  0  0  0  0  0  0
  147.3954  140.3571  153.8141 O   0  0  0  0  0  0  0  0  0  0  0  0
  148.1262  139.1840  155.5782 N   0  0  0  0  0  0  0  0  0  0  0  0
  148.9877  140.1348  156.1885 C   0  0  0  0  0  0  0  0  0  0  0  0
  149.8780  139.6739  157.1805 C   0  0  0  0  0  0  0  0  0  0  0  0
  150.7460  140.5824  157.8197 C   0  0  0  0  0  0  0  0  0  0  0  0
  150.7059  141.9527  157.4704 C   0  0  0  0  0  0  0  0  0  0  0  0
  151.5506  142.9141  158.0564 N   0  0  0  0  0  0  0  0  0  0  0  0
  151.4952  144.3168  157.6782 C   0  0  0  0  0  0  0  0  0  0  0  0
  152.4692  145.0089  158.6307 C   0  0  0  0  0  0  0  0  0  0  0  0
  152.3576  144.1747  159.9075 C   0  0  0  0  0  0  0  0  0  0  0  0
  152.0775  142.7534  159.4039 C   0  0  0  0  0  0  0  0  0  0  0  0
  149.8231  142.3539  156.5249 N   0  3  0  0  0  0  0  0  0  0  0  0
  148.9755  141.5172  155.8876 C   0  0  0  0  0  0  0  0  0  0  0  0
  146.7112  135.1907  153.0669 N   0  3  0  0  0  0  0  0  0  0  0  0
  147.3111  135.1147  154.4346 C   0  0  0  0  0  0  0  0  0  0  0  0
  148.5172  134.1615  154.4413 C   0  0  0  0  0  0  0  0  0  0  0  0
  148.1157  132.8742  153.9945 O   0  0  0  0  0  0  0  0  0  0  0  0
  147.6295  132.9092  152.6602 C   0  0  0  0  0  0  0  0  0  0  0  0
  146.3885  133.8133  152.5815 C   0  0  0  0  0  0  0  0  0  0  0  0
  143.6928  136.7790  153.6268 H   0  0  0  0  0  0  0  0  0  0  0  0
  144.8765  136.4864  154.8759 H   0  0  0  0  0  0  0  0  0  0  0  0
  144.2098  135.1457  153.9589 H   0  0  0  0  0  0  0  0  0  0  0  0
  144.1036  136.6067  151.2942 H   0  0  0  0  0  0  0  0  0  0  0  0
  144.6697  134.9585  151.3858 H   0  0  0  0  0  0  0  0  0  0  0  0
  145.6363  136.1813  150.5765 H   0  0  0  0  0  0  0  0  0  0  0  0
  147.1802  137.7439  152.1417 H   0  0  0  0  0  0  0  0  0  0  0  0
  145.6096  138.4264  152.3641 H   0  0  0  0  0  0  0  0  0  0  0  0
  148.1297  138.2637  155.9933 H   0  0  0  0  0  0  0  0  0  0  0  0
  149.9060  138.6266  157.4445 H   0  0  0  0  0  0  0  0  0  0  0  0
  151.4363  140.2143  158.5640 H   0  0  0  0  0  0  0  0  0  0  0  0
  151.7762  144.4665  156.6352 H   0  0  0  0  0  0  0  0  0  0  0  0
  150.4815  144.6932  157.8229 H   0  0  0  0  0  0  0  0  0  0  0  0
  153.4839  144.9416  158.2356 H   0  0  0  0  0  0  0  0  0  0  0  0
  152.2361  146.0627  158.7849 H   0  0  0  0  0  0  0  0  0  0  0  0
  153.2481  144.2343  160.5337 H   0  0  0  0  0  0  0  0  0  0  0  0
  151.5102  144.5268  160.4976 H   0  0  0  0  0  0  0  0  0  0  0  0
  151.3785  142.2363  160.0625 H   0  0  0  0  0  0  0  0  0  0  0  0
  152.9988  142.1721  159.3549 H   0  0  0  0  0  0  0  0  0  0  0  0
  148.3198  141.9904  155.1721 H   0  0  0  0  0  0  0  0  0  0  0  0
  147.6560  136.0869  154.7804 H   0  0  0  0  0  0  0  0  0  0  0  0
  146.5735  134.7618  155.1565 H   0  0  0  0  0  0  0  0  0  0  0  0
  149.3215  134.5462  153.8119 H   0  0  0  0  0  0  0  0  0  0  0  0
  148.9189  134.0729  155.4509 H   0  0  0  0  0  0  0  0  0  0  0  0
  148.4105  133.2581  151.9827 H   0  0  0  0  0  0  0  0  0  0  0  0
  147.3737  131.8950  152.3536 H   0  0  0  0  0  0  0  0  0  0  0  0
  145.5897  133.3744  153.1805 H   0  0  0  0  0  0  0  0  0  0  0  0
  146.0463  133.8180  151.5488 H   0  0  0  0  0  0  0  0  0  0  0  0
  147.4856  135.4724  152.4834 H   0  0  0  0  0  0  0  0  0  0  0  0
  149.7938  143.3433  156.2791 H   0  0  0  0  0  0  0  0  0  0  0  0
  1  2  1  0  0  0  0
  1 26  1  0  0  0  0
  1 27  1  0  0  0  0
  1 28  1  0  0  0  0
  2  3  1  0  0  0  0
  2  4  1  0  0  0  0
  2 20  1  0  0  0  0
  3 29  1  0  0  0  0
  3 30  1  0  0  0  0
  3 31  1  0  0  0  0
  4  5  1  0  0  0  0
  4 32  1  0  0  0  0
  4 33  1  0  0  0  0
  5  6  1  0  0  0  0
  6  7  2  0  0  0  0
  6  8  1  0  0  0  0
  8  9  1  0  0  0  0
  8 34  1  0  0  0  0
  9 19  1  0  0  0  0
  9 10  2  0  0  0  0
 10 11  1  0  0  0  0
 10 35  1  0  0  0  0
 11 12  2  0  0  0  0
 11 36  1  0  0  0  0
 12 13  1  0  0  0  0
 12 18  1  0  0  0  0
 13 17  1  0  0  0  0
 13 14  1  0  0  0  0
 14 15  1  0  0  0  0
 14 37  1  0  0  0  0
 14 38  1  0  0  0  0
 15 16  1  0  0  0  0
 15 39  1  0  0  0  0
 15 40  1  0  0  0  0
 16 17  1  0  0  0  0
 16 41  1  0  0  0  0
 16 42  1  0  0  0  0
 17 43  1  0  0  0  0
 17 44  1  0  0  0  0
 18 19  2  0  0  0  0
 18 55  1  0  0  0  0
 19 45  1  0  0  0  0
 20 25  1  0  0  0  0
 20 21  1  0  0  0  0
 20 54  1  0  0  0  0
 21 22  1  0  0  0  0
 21 46  1  0  0  0  0
 21 47  1  0  0  0  0
 22 23  1  0  0  0  0
 22 48  1  0  0  0  0
 22 49  1  0  0  0  0
 23 24  1  0  0  0  0
 24 25  1  0  0  0  0
 24 50  1  0  0  0  0
 24 51  1  0  0  0  0
 25 52  1  0  0  0  0
 25 53  1  0  0  0  0
M  CHG  1   5  -1
M  CHG  1  18   1
M  CHG  1  20   1
M  END
> <s_m_source_file>
AV-unprocessed.smi

> <i_m_source_file_index>
1157

> <i_lp_mmshare_version>
43012

> <i_f3d_flags>
0

> <s_epik_input>
W0NIMl0xW0NIMl1PW0NIMl1bQ0gyXU4xQyhbQ0gzXSkoW0NIM10pW0NIMl1bTkhdQyg9TylbTkhdYzJbY0hdW2NIXWMobltjSF0yKU4zW0NIMl1bQ0gyXVtDSDJdW0NIMl0z

> <s_epik_cmdline>
J2VwaWtfcHl0aG9uJywgJy1waCcsICc3LjAnLCAnLXRuJywgJzgnLCAnLW1hJywgJzIwMCcsICctbWV0YWxfYmluZGluZycsICctaW1hZScsICc8aW5maWxlLm1hZT4nLCAnLW9tYWUnLCAnPG91dGZpbGUubWFlPic=

> <r_lp_tautomer_probability>
0.999994

> <r_epik_Ionization_Penalty>
8.57565

> <r_epik_Ionization_Penalty_Charging>
8.57565

> <r_epik_Ionization_Penalty_Neutral>
3.57932e-06

> <r_epik_State_Penalty>
8.56988

> <r_epik_Charging_Adjusted_Penalty>
17.1455

> <i_epik_Tot_Q>
1

> <i_epik_Tot_abs_Q>
3

> <r_epik_Metal_State_Penalty>
4.56714

> <b_epik_Metal_Only>
1

> <s_lp_Force_Field>
OPLS_2005

> <r_lp_Energy>
57.9076

> <b_lp_Chiralities_Consistent>
1

> <s_lp_Variant>
AV-unprocessed.smi:1157-5

> <Gold.Version>
5.8.1

> <Gold.Id.Protein>
6NUR|6NUR_protein|mol2

> <Gold.PLP.Fitness>
49.7201

> <Gold.PLP.PLP>
-39.1323

> <Gold.PLP.part.hbond>
-2.0000

> <Gold.PLP.part.metal>
0.0000

> <Gold.PLP.part.buried>
-3.4899

> <Gold.PLP.part.nonpolar>
-33.9982

> <Gold.PLP.part.repulsive>
0.4350

> <Gold.PLP.ligand.clash>
0.0000

> <Gold.PLP.ligand.torsion>
0.8822

> <Gold.PLP.Chemscore.Hbond>
3.9840

> <Gold.PLP.Chemscore.CHOScore>
0.0000

> <Gold.PLP.Chemscore.Metal>
0.0000

> <Gold.Chemscore.Hbonds>
donor molecule, donor type, donor heavy atom, donor atom, acceptor molecule, acceptor atom, score
      L1  H    18    55       P1  8028  1.98
      L1  H    20    54       P1  7948  2.00

> <Gold.PLP.Chemscore.Internal.Correction>
0.4001

> <Gold.Rescore>
     Score         DG    S(hbond)    S(metal)    S(lipo)     H(rot)  DE(clash)    DE(int)     intcor
     18.10     -20.54       1.96        0.00     104.00       1.42       0.16       2.28       ----

> <Gold.Chemscore.Fitness>
18.0999

> <Gold.Chemscore.DG>
-20.5401

> <Gold.Chemscore.ZeroCoef>
-5.4800

> <Gold.Chemscore.Hbond>
1.9575

> <Gold.Chemscore.Metal>
0.0000

> <Gold.Chemscore.Lipo>
104.0010

> <Gold.Chemscore.Internal_Hbond>
0.0000

> <Gold.Chemscore.DEClash>
0.1579

> <Gold.Chemscore.DEInternal>
2.2823

> <Gold.Chemscore.Rot>
1.4243

> <Gold.Chemscore.Internal.Correction>
   9.000000E+99

> <Gold.Chemscore.Hbonds>
donor molecule, donor type, donor heavy atom, donor atom, acceptor molecule, acceptor atom, score
      L1  H    18    55       P1  8028  0.94
      L1  H    20    54       P1  7948  1.00

> <Gold.Chemscore.Hbond.Weighted>
-6.5381

> <Gold.Chemscore.Metal.Weighted>
-0.0000

> <Gold.Chemscore.Lipo.Weighted>
-12.1681

> <Gold.Chemscore.Internal_Hbond.Weighted>
0.0000

> <Gold.Chemscore.DEClash.Weighted>
0.1579

> <Gold.Chemscore.DEInternal.Weighted>
2.2823

> <Gold.Chemscore.Rot.Weighted>
3.6462

> <Gold.Chemscore.Internal.Correction.Weighted>
   9.000000E+99

> <Gold.Protein.RotatedTorsions>
[ 6907 6896 6895 6894 ] final  -41.00 input  -60.11 | X-H torsion
[ 7974 7965 7964 7962 ] final  -85.48 input  175.53 | X-H torsion
[ 8008 7997 7996 7995 ] final  -42.88 input   59.86 | X-H torsion
[ 10167 10162 10161 10158 ] final  -20.10 input  -65.29 | X-H torsion
[ 10718 10713 10712 10709 ] final  155.29 input   66.30 | X-H torsion
[ 10763 10752 10751 10750 ] final  -19.92 input  -60.55 | X-H torsion
[ 11005 11000 10999 10996 ] final   61.72 input  -57.11 | X-H torsion

> <Gold.Protein.ActiveResidues>
 VAL166  LYS551  ARG553  GLY616  TRP617  ASP618  TYR619  PRO620  LYS621  CYS622 
 ASP623  PHE694  ASN695  SER759  ASP760  ASP761  ALA762  ILE779  LEU786  VAL792 
 PHE793  MET794  SER795  GLU796  ALA797  LYS798  CYS799  TRP800  GLU811  SER814 

> <Gold.Protein.RotatedAtoms>
  150.9718  134.9090  159.7792 H   0  0  0  0  0  0  0  0  0  0  0  0  # atno 6907 bound_to 6896
  152.5193  134.3530  159.9268 H   0  0  0  0  0  0  0  0  0  0  0  0  # atno 6908 bound_to 6896
  151.3539  133.3874  159.2717 H   0  0  0  0  0  0  0  0  0  0  0  0  # atno 6909 bound_to 6896
  145.4927  140.9552  143.1803 H   0  0  0  0  0  0  0  0  0  0  0  0  # atno 7974 bound_to 7965
  154.3998  140.1462  156.3427 H   0  0  0  0  0  0  0  0  0  0  0  0  # atno 8008 bound_to 7997
  155.8341  140.3464  155.5570 H   0  0  0  0  0  0  0  0  0  0  0  0  # atno 8009 bound_to 7997
  155.8156  140.0890  157.1869 H   0  0  0  0  0  0  0  0  0  0  0  0  # atno 8010 bound_to 7997
  140.7273  143.4755  151.0188 H   0  0  0  0  0  0  0  0  0  0  0  0  # atno 10167 bound_to 10162
  157.2202  131.0717  151.1916 H   0  0  0  0  0  0  0  0  0  0  0  0  # atno 10718 bound_to 10713
  153.6123  135.6996  153.5342 H   0  0  0  0  0  0  0  0  0  0  0  0  # atno 10763 bound_to 10752
  153.3006  135.4130  155.1249 H   0  0  0  0  0  0  0  0  0  0  0  0  # atno 10764 bound_to 10752
  154.8561  135.3648  154.5662 H   0  0  0  0  0  0  0  0  0  0  0  0  # atno 10765 bound_to 10752
  140.0141  134.6251  155.9736 H   0  0  0  0  0  0  0  0  0  0  0  0  # atno 11005 bound_to 11000
  144.7825  139.6496  143.7148 LP  0  0  0  0  0  0  0  0  0  0  0  0  # atno 17320 bound_to 7965
  146.2274  139.5749  142.9578 LP  0  0  0  0  0  0  0  0  0  0  0  0  # atno 17321 bound_to 7965
  139.8450  143.7513  152.3179 LP  0  0  0  0  0  0  0  0  0  0  0  0  # atno 17342 bound_to 10162
  139.7675  144.7487  151.0273 LP  0  0  0  0  0  0  0  0  0  0  0  0  # atno 17343 bound_to 10162
  157.3583  130.7118  149.6485 LP  0  0  0  0  0  0  0  0  0  0  0  0  # atno 17370 bound_to 10713
  155.9683  130.4233  150.4555 LP  0  0  0  0  0  0  0  0  0  0  0  0  # atno 17371 bound_to 10713
  141.1731  133.6538  156.4726 LP  0  0  0  0  0  0  0  0  0  0  0  0  # atno 17394 bound_to 11000
  140.4502  134.6936  157.5035 LP  0  0  0  0  0  0  0  0  0  0  0  0  # atno 17395 bound_to 11000

$$$$
