AV-unprocessed.smi:2509|AV-procd|sdf|9866|dock7
  -GOLD-   2272013493D 1   1.00000     0.00000
 Structure written by MMmdl.
 45 46  0  0  0  0  0  0  0  0  1 V2000
  143.7989  132.3452  149.9526 C   0  0  0  0  0  0  0  0  0  0  0  0
  145.0101  132.6205  150.8743 C   0  0  0  0  0  0  0  0  0  0  0  0
  145.1062  131.5188  151.9453 C   0  0  0  0  0  0  0  0  0  0  0  0
  146.2607  132.5658  149.9648 C   0  0  0  0  0  0  0  0  0  0  0  0
  144.8813  133.9918  151.5604 C   0  0  0  0  0  0  0  0  0  0  0  0
  145.8906  134.3709  152.3556 N   0  0  0  0  0  0  0  0  0  0  0  0
  145.8536  135.6214  152.8619 C   0  0  0  0  0  0  0  0  0  0  0  0
  144.8116  136.5192  152.5567 C   0  0  0  0  0  0  0  0  0  0  0  0
  144.8423  137.8280  153.1067 N   0  0  0  0  0  0  0  0  0  0  0  0
  145.5283  138.2612  154.1778 C   0  0  0  0  0  0  0  0  0  0  0  0
  146.2980  137.5767  154.8513 O   0  0  0  0  0  0  0  0  0  0  0  0
  145.2881  139.5589  154.4131 N   0  0  0  0  0  0  0  0  0  0  0  0
  145.8916  140.3535  155.4790 C   0  0  0  0  0  0  0  0  0  0  0  0
  147.4305  140.2877  155.4361 C   0  0  2  0  0  0  0  0  0  0  0  0
  148.1322  141.0195  156.5915 C   0  0  0  0  0  0  0  0  0  0  0  0
  149.5045  141.4599  156.0577 C   0  0  0  0  0  0  0  0  0  0  0  0
  149.5117  141.1298  154.5601 C   0  0  0  0  0  0  0  0  0  0  0  0
  148.0407  140.9347  154.1889 C   0  0  1  0  0  0  0  0  0  0  0  0
  147.8998  140.1256  153.0394 O   0  0  0  0  0  0  0  0  0  0  0  0
  143.8234  136.0354  151.6670 C   0  0  0  0  0  0  0  0  0  0  0  0
  143.8753  134.7832  151.1649 N   0  0  0  0  0  0  0  0  0  0  0  0
  143.9078  131.3963  149.4264 H   0  0  0  0  0  0  0  0  0  0  0  0
  143.6874  133.1264  149.1995 H   0  0  0  0  0  0  0  0  0  0  0  0
  142.8643  132.2884  150.5118 H   0  0  0  0  0  0  0  0  0  0  0  0
  144.2199  131.5062  152.5806 H   0  0  0  0  0  0  0  0  0  0  0  0
  145.9713  131.6698  152.5917 H   0  0  0  0  0  0  0  0  0  0  0  0
  145.2008  130.5311  151.4930 H   0  0  0  0  0  0  0  0  0  0  0  0
  146.3291  131.6121  149.4404 H   0  0  0  0  0  0  0  0  0  0  0  0
  147.1846  132.6780  150.5335 H   0  0  0  0  0  0  0  0  0  0  0  0
  146.2387  133.3533  149.2105 H   0  0  0  0  0  0  0  0  0  0  0  0
  146.6667  135.9065  153.5133 H   0  0  0  0  0  0  0  0  0  0  0  0
  144.3178  138.5256  152.5993 H   0  0  0  0  0  0  0  0  0  0  0  0
  144.6433  140.0389  153.8023 H   0  0  0  0  0  0  0  0  0  0  0  0
  145.5666  141.3854  155.3446 H   0  0  0  0  0  0  0  0  0  0  0  0
  145.5227  140.0461  156.4591 H   0  0  0  0  0  0  0  0  0  0  0  0
  147.7413  139.2416  155.4660 H   0  0  0  0  0  0  0  0  0  0  0  0
  147.5614  141.9036  156.8783 H   0  0  0  0  0  0  0  0  0  0  0  0
  148.2193  140.3893  157.4771 H   0  0  0  0  0  0  0  0  0  0  0  0
  149.6406  142.5302  156.2162 H   0  0  0  0  0  0  0  0  0  0  0  0
  150.3192  140.9486  156.5718 H   0  0  0  0  0  0  0  0  0  0  0  0
  149.9952  141.9022  153.9614 H   0  0  0  0  0  0  0  0  0  0  0  0
  150.0624  140.2007  154.4043 H   0  0  0  0  0  0  0  0  0  0  0  0
  147.5775  141.9055  154.0062 H   0  0  0  0  0  0  0  0  0  0  0  0
  148.5561  140.3804  152.4091 H   0  0  0  0  0  0  0  0  0  0  0  0
  143.0012  136.6429  151.3219 H   0  0  0  0  0  0  0  0  0  0  0  0
  1  2  1  0  0  0  0
  1 22  1  0  0  0  0
  1 23  1  0  0  0  0
  1 24  1  0  0  0  0
  2  3  1  0  0  0  0
  2  4  1  0  0  0  0
  2  5  1  0  0  0  0
  3 25  1  0  0  0  0
  3 26  1  0  0  0  0
  3 27  1  0  0  0  0
  4 28  1  0  0  0  0
  4 29  1  0  0  0  0
  4 30  1  0  0  0  0
  5 21  1  0  0  0  0
  5  6  2  0  0  0  0
  6  7  1  0  0  0  0
  7  8  2  0  0  0  0
  7 31  1  0  0  0  0
  8  9  1  0  0  0  0
  8 20  1  0  0  0  0
  9 10  1  0  0  0  0
  9 32  1  0  0  0  0
 10 11  2  0  0  0  0
 10 12  1  0  0  0  0
 12 13  1  0  0  0  0
 12 33  1  0  0  0  0
 13 14  1  0  0  0  0
 13 34  1  0  0  0  0
 13 35  1  0  0  0  0
 14 18  1  0  0  0  0
 14 15  1  0  0  0  0
 14 36  1  0  0  0  0
 15 16  1  0  0  0  0
 15 37  1  0  0  0  0
 15 38  1  0  0  0  0
 16 17  1  0  0  0  0
 16 39  1  0  0  0  0
 16 40  1  0  0  0  0
 17 18  1  0  0  0  0
 17 41  1  0  0  0  0
 17 42  1  0  0  0  0
 18 19  1  0  0  0  0
 18 43  1  0  0  0  0
 19 44  1  0  0  0  0
 20 21  2  0  0  0  0
 20 45  1  0  0  0  0
M  END
> <s_m_source_file>
AV-unprocessed.smi

> <i_m_source_file_index>
2509

> <i_lp_mmshare_version>
43012

> <i_f3d_flags>
0

> <s_epik_input>
W0NIM11DKFtDSDNdKShbQ0gzXSljMW5bY0hdYyhbY0hdbjEpW05IXUMoPU8pW05IXVtDSDJdW0NAQEhdMltDSDJdW0NIMl1bQ0gyXVtDQEhdMltPSF0=

> <s_epik_cmdline>
J2VwaWtfcHl0aG9uJywgJy1waCcsICc3LjAnLCAnLXRuJywgJzgnLCAnLW1hJywgJzIwMCcsICctbWV0YWxfYmluZGluZycsICctaW1hZScsICc8aW5maWxlLm1hZT4nLCAnLW9tYWUnLCAnPG91dGZpbGUubWFlPic=

> <r_lp_tautomer_probability>
1

> <r_epik_Ionization_Penalty>
2.77586e-05

> <r_epik_Ionization_Penalty_Charging>
0

> <r_epik_Ionization_Penalty_Neutral>
2.77586e-05

> <r_epik_State_Penalty>
-0

> <r_epik_Charging_Adjusted_Penalty>
0

> <i_epik_Tot_Q>
0

> <i_epik_Tot_abs_Q>
0

> <r_epik_Metal_State_Penalty>
-0

> <b_epik_Metal_Only>
0

> <s_lp_Force_Field>
OPLS_2005

> <r_lp_Energy>
20.4584

> <b_lp_Chiralities_Consistent>
1

> <s_lp_Variant>
AV-unprocessed.smi:2509-1

> <Gold.Version>
5.8.1

> <Gold.Id.Protein>
6NUR|6NUR_protein|mol2

> <Gold.PLP.Fitness>
40.3690

> <Gold.PLP.PLP>
-29.4202

> <Gold.PLP.part.hbond>
-3.0000

> <Gold.PLP.part.metal>
0.0000

> <Gold.PLP.part.buried>
-3.2878

> <Gold.PLP.part.nonpolar>
-22.6219

> <Gold.PLP.part.repulsive>
0.3594

> <Gold.PLP.ligand.clash>
0.0000

> <Gold.PLP.ligand.torsion>
0.2136

> <Gold.PLP.Chemscore.Hbond>
3.0000

> <Gold.PLP.Chemscore.CHOScore>
0.7410

> <Gold.PLP.Chemscore.Metal>
0.0000

> <Gold.Chemscore.Hbonds>
donor molecule, donor type, donor heavy atom, donor atom, acceptor molecule, acceptor atom, score
      L1  H     9    32       P1 10175  0.99
      L1  H    12    33       P1 10175  1.00
      L1  H    19    44       P1  7957  1.00
      L1  C     7    31       P1  7948  0.13
      L1  C    20    45       P1 10171  0.54

> <Gold.PLP.Chemscore.Internal.Correction>
0.1530

> <Gold.Rescore>
     Score         DG    S(hbond)    S(metal)    S(lipo)     H(rot)  DE(clash)    DE(int)     intcor
     16.04     -19.25       2.92        0.00      76.16       1.91       0.05       3.16       ----

> <Gold.Chemscore.Fitness>
16.0442

> <Gold.Chemscore.DG>
-19.2530

> <Gold.Chemscore.ZeroCoef>
-5.4800

> <Gold.Chemscore.Hbond>
2.9210

> <Gold.Chemscore.Metal>
0.0000

> <Gold.Chemscore.Lipo>
76.1590

> <Gold.Chemscore.Internal_Hbond>
0.0000

> <Gold.Chemscore.DEClash>
0.0511

> <Gold.Chemscore.DEInternal>
3.1577

> <Gold.Chemscore.Rot>
1.9116

> <Gold.Chemscore.Internal.Correction>
   9.000000E+99

> <Gold.Chemscore.Hbonds>
donor molecule, donor type, donor heavy atom, donor atom, acceptor molecule, acceptor atom, score
      L1  H     9    32       P1 10175  0.87
      L1  H    12    33       P1 10175  1.00
      L1  H    19    44       P1  7957  0.96

> <Gold.Chemscore.Hbond.Weighted>
-9.7560

> <Gold.Chemscore.Metal.Weighted>
-0.0000

> <Gold.Chemscore.Lipo.Weighted>
-8.9106

> <Gold.Chemscore.Internal_Hbond.Weighted>
0.0000

> <Gold.Chemscore.DEClash.Weighted>
0.0511

> <Gold.Chemscore.DEInternal.Weighted>
3.1577

> <Gold.Chemscore.Rot.Weighted>
4.8936

> <Gold.Chemscore.Internal.Correction.Weighted>
   9.000000E+99

> <Gold.Protein.RotatedTorsions>
[ 6907 6896 6895 6894 ] final -121.80 input  -60.11 | X-H torsion
[ 7974 7965 7964 7962 ] final  -87.05 input  175.53 | X-H torsion
[ 8008 7997 7996 7995 ] final    2.05 input   59.86 | X-H torsion
[ 10167 10162 10161 10158 ] final   26.26 input  -65.29 | X-H torsion
[ 10718 10713 10712 10709 ] final   49.77 input   66.30 | X-H torsion
[ 10763 10752 10751 10750 ] final  -14.02 input  -60.55 | X-H torsion
[ 11005 11000 10999 10996 ] final  -51.81 input  -57.11 | X-H torsion

> <Gold.Protein.ActiveResidues>
 VAL166  LYS551  ARG553  GLY616  TRP617  ASP618  TYR619  PRO620  LYS621  CYS622 
 ASP623  PHE694  ASN695  SER759  ASP760  ASP761  ALA762  ILE779  LEU786  VAL792 
 PHE793  MET794  SER795  GLU796  ALA797  LYS798  CYS799  TRP800  GLU811  SER814 

> <Gold.Protein.RotatedAtoms>
  150.8516  133.7778  159.3023 H   0  0  0  0  0  0  0  0  0  0  0  0  # atno 6907 bound_to 6896
  151.5448  135.1066  159.9945 H   0  0  0  0  0  0  0  0  0  0  0  0  # atno 6908 bound_to 6896
  152.4557  133.7675  159.6837 H   0  0  0  0  0  0  0  0  0  0  0  0  # atno 6909 bound_to 6896
  145.4717  140.9559  143.1913 H   0  0  0  0  0  0  0  0  0  0  0  0  # atno 7974 bound_to 7965
  154.6869  140.2645  155.6851 H   0  0  0  0  0  0  0  0  0  0  0  0  # atno 8008 bound_to 7997
  156.2718  140.2799  156.1357 H   0  0  0  0  0  0  0  0  0  0  0  0  # atno 8009 bound_to 7997
  155.0951  140.0374  157.2670 H   0  0  0  0  0  0  0  0  0  0  0  0  # atno 8010 bound_to 7997
  140.5038  144.0272  150.6343 H   0  0  0  0  0  0  0  0  0  0  0  0  # atno 10167 bound_to 10162
  157.4819  130.8320  149.8103 H   0  0  0  0  0  0  0  0  0  0  0  0  # atno 10718 bound_to 10713
  153.5220  135.7015  153.5727 H   0  0  0  0  0  0  0  0  0  0  0  0  # atno 10763 bound_to 10752
  153.3771  135.3929  155.1830 H   0  0  0  0  0  0  0  0  0  0  0  0  # atno 10764 bound_to 10752
  154.8693  135.3826  154.4709 H   0  0  0  0  0  0  0  0  0  0  0  0  # atno 10765 bound_to 10752
  141.0891  133.6636  156.3932 H   0  0  0  0  0  0  0  0  0  0  0  0  # atno 11005 bound_to 11000
  144.7941  139.6269  143.7100 LP  0  0  0  0  0  0  0  0  0  0  0  0  # atno 17320 bound_to 7965
  146.2393  139.5968  142.9502 LP  0  0  0  0  0  0  0  0  0  0  0  0  # atno 17321 bound_to 7965
  140.3576  143.2927  152.0419 LP  0  0  0  0  0  0  0  0  0  0  0  0  # atno 17342 bound_to 10162
  139.4878  144.6327  151.7037 LP  0  0  0  0  0  0  0  0  0  0  0  0  # atno 17343 bound_to 10162
  156.0126  130.3827  150.2214 LP  0  0  0  0  0  0  0  0  0  0  0  0  # atno 17370 bound_to 10713
  157.0401  131.0032  151.3286 LP  0  0  0  0  0  0  0  0  0  0  0  0  # atno 17371 bound_to 10713
  140.5294  134.6227  157.5345 LP  0  0  0  0  0  0  0  0  0  0  0  0  # atno 17394 bound_to 11000
  139.9714  134.7287  156.0034 LP  0  0  0  0  0  0  0  0  0  0  0  0  # atno 17395 bound_to 11000

$$$$
