AV-unprocessed.smi:531|AV-procd|sdf|2846|dock8
  -GOLD-   2262023333D 1   1.00000     0.00000
 Structure written by MMmdl.
 46 48  0  0  0  0  0  0  0  0  1 V2000
  152.8696  137.8196  160.1262 C   0  0  0  0  0  0  0  0  0  0  0  0
  153.4338  139.0878  159.4820 C   0  0  0  0  0  0  0  0  0  0  0  0
  153.4476  138.9201  158.0746 O   0  0  0  0  0  0  0  0  0  0  0  0
  152.1550  139.0109  157.5007 C   0  0  0  0  0  0  0  0  0  0  0  0
  152.2561  139.7735  156.1750 C   0  0  0  0  0  0  0  0  0  0  0  0
  151.0147  140.4791  155.8693 N   0  0  0  0  0  0  0  0  0  0  0  0
  150.5998  141.7010  156.3063 C   0  0  0  0  0  0  0  0  0  0  0  0
  151.3572  142.4822  157.1821 N   0  0  0  0  0  0  0  0  0  0  0  0
  151.6768  143.9023  157.0309 C   0  0  0  0  0  0  0  0  0  0  0  0
  151.3325  144.6989  158.3028 C   0  0  0  0  0  0  0  0  0  0  0  0
  152.0836  144.1260  159.5126 C   0  0  0  0  0  0  0  0  0  0  0  0
  151.8484  142.6121  159.6087 C   0  0  0  0  0  0  0  0  0  0  0  0
  152.1623  141.9243  158.2677 C   0  0  0  0  0  0  0  0  0  0  0  0
  149.4404  142.1121  155.7853 N   0  0  0  0  0  0  0  0  0  0  0  0
  149.0725  141.0595  154.9625 C   0  0  0  0  0  0  0  0  0  0  0  0
  150.0100  140.0782  154.9852 C   0  0  0  0  0  0  0  0  0  0  0  0
  149.9000  138.8685  154.1569 C   0  0  0  0  0  0  0  0  0  0  0  0
  150.7458  137.9773  154.1376 O   0  0  0  0  0  0  0  0  0  0  0  0
  148.7739  138.8398  153.4035 N   0  0  0  0  0  0  0  0  0  0  0  0
  147.7896  139.7874  153.3420 C   0  0  0  0  0  0  0  0  0  0  0  0
  146.8230  139.6226  152.5979 O   0  0  0  0  0  0  0  0  0  0  0  0
  147.9302  140.9034  154.1265 N   0  0  0  0  0  0  0  0  0  0  0  0
  146.9105  141.9537  154.0997 C   0  0  0  0  0  0  0  0  0  0  0  0
  148.6503  138.0290  152.8150 H   0  0  0  0  0  0  0  0  0  0  0  0
  152.8465  137.9117  161.2122 H   0  0  0  0  0  0  0  0  0  0  0  0
  153.4778  136.9497  159.8765 H   0  0  0  0  0  0  0  0  0  0  0  0
  151.8521  137.6274  159.7848 H   0  0  0  0  0  0  0  0  0  0  0  0
  152.8186  139.9469  159.7536 H   0  0  0  0  0  0  0  0  0  0  0  0
  154.4441  139.2745  159.8486 H   0  0  0  0  0  0  0  0  0  0  0  0
  151.7549  138.0103  157.3285 H   0  0  0  0  0  0  0  0  0  0  0  0
  151.4751  139.5268  158.1806 H   0  0  0  0  0  0  0  0  0  0  0  0
  153.0848  140.4780  156.2024 H   0  0  0  0  0  0  0  0  0  0  0  0
  152.5060  139.0907  155.3692 H   0  0  0  0  0  0  0  0  0  0  0  0
  152.7424  143.9981  156.8176 H   0  0  0  0  0  0  0  0  0  0  0  0
  151.1702  144.3184  156.1611 H   0  0  0  0  0  0  0  0  0  0  0  0
  151.5893  145.7498  158.1678 H   0  0  0  0  0  0  0  0  0  0  0  0
  150.2584  144.6628  158.4878 H   0  0  0  0  0  0  0  0  0  0  0  0
  153.1511  144.3227  159.4055 H   0  0  0  0  0  0  0  0  0  0  0  0
  151.7638  144.6213  160.4297 H   0  0  0  0  0  0  0  0  0  0  0  0
  152.4652  142.1874  160.4011 H   0  0  0  0  0  0  0  0  0  0  0  0
  150.8109  142.4181  159.8844 H   0  0  0  0  0  0  0  0  0  0  0  0
  151.9685  140.8546  158.3554 H   0  0  0  0  0  0  0  0  0  0  0  0
  153.2207  142.0283  158.0251 H   0  0  0  0  0  0  0  0  0  0  0  0
  145.9115  141.5330  154.2240 H   0  0  0  0  0  0  0  0  0  0  0  0
  146.9412  142.4857  153.1481 H   0  0  0  0  0  0  0  0  0  0  0  0
  147.0474  142.6871  154.8943 H   0  0  0  0  0  0  0  0  0  0  0  0
  1  2  1  0  0  0  0
  1 25  1  0  0  0  0
  1 26  1  0  0  0  0
  1 27  1  0  0  0  0
  2  3  1  0  0  0  0
  2 28  1  0  0  0  0
  2 29  1  0  0  0  0
  3  4  1  0  0  0  0
  4  5  1  0  0  0  0
  4 30  1  0  0  0  0
  4 31  1  0  0  0  0
  5  6  1  0  0  0  0
  5 32  1  0  0  0  0
  5 33  1  0  0  0  0
  6 16  1  0  0  0  0
  6  7  1  0  0  0  0
  7  8  1  0  0  0  0
  7 14  2  0  0  0  0
  8 13  1  0  0  0  0
  8  9  1  0  0  0  0
  9 10  1  0  0  0  0
  9 34  1  0  0  0  0
  9 35  1  0  0  0  0
 10 11  1  0  0  0  0
 10 36  1  0  0  0  0
 10 37  1  0  0  0  0
 11 12  1  0  0  0  0
 11 38  1  0  0  0  0
 11 39  1  0  0  0  0
 12 13  1  0  0  0  0
 12 40  1  0  0  0  0
 12 41  1  0  0  0  0
 13 42  1  0  0  0  0
 13 43  1  0  0  0  0
 14 15  1  0  0  0  0
 15 22  1  0  0  0  0
 15 16  2  0  0  0  0
 16 17  1  0  0  0  0
 17 18  2  0  0  0  0
 17 19  1  0  0  0  0
 19 24  1  0  0  0  0
 19 20  1  0  0  0  0
 20 21  2  0  0  0  0
 20 22  1  0  0  0  0
 22 23  1  0  0  0  0
 23 44  1  0  0  0  0
 23 45  1  0  0  0  0
 23 46  1  0  0  0  0
M  END
> <s_m_source_file>
AV-unprocessed.smi

> <i_m_source_file_index>
531

> <i_lp_mmshare_version>
43012

> <i_f3d_flags>
0

> <s_epik_input>
W0NIM11uMWMoPU8pW25IXWMoPU8pYyhjMTIpbihbQ0gyXVtDSDJdT1tDSDJdW0NIM10pYyhuMilOM1tDSDJdW0NIMl1bQ0gyXVtDSDJdW0NIMl0z

> <s_epik_cmdline>
J2VwaWtfcHl0aG9uJywgJy1waCcsICc3LjAnLCAnLXRuJywgJzgnLCAnLW1hJywgJzIwMCcsICctbWV0YWxfYmluZGluZycsICctaW1hZScsICc8aW5maWxlLm1hZT4nLCAnLW9tYWUnLCAnPG91dGZpbGUubWFlPic=

> <r_lp_tautomer_probability>
1

> <r_epik_Ionization_Penalty>
0.000274134

> <r_epik_Ionization_Penalty_Charging>
0.000122674

> <r_epik_Ionization_Penalty_Neutral>
0.00015146

> <r_epik_State_Penalty>
-0

> <r_epik_Charging_Adjusted_Penalty>
0.000122674

> <i_epik_Tot_Q>
0

> <i_epik_Tot_abs_Q>
0

> <r_epik_Metal_State_Penalty>
0.0938197

> <b_epik_Metal_Only>
0

> <s_lp_Force_Field>
OPLS_2005

> <r_lp_Energy>
38.5132

> <b_lp_Chiralities_Consistent>
1

> <s_lp_Variant>
AV-unprocessed.smi:531-1

> <Gold.Version>
5.8.1

> <Gold.Id.Protein>
6NUR|6NUR_protein|mol2

> <Gold.PLP.Fitness>
47.3606

> <Gold.PLP.PLP>
-43.8139

> <Gold.PLP.part.hbond>
-3.0000

> <Gold.PLP.part.metal>
0.0000

> <Gold.PLP.part.buried>
-3.3873

> <Gold.PLP.part.nonpolar>
-40.5759

> <Gold.PLP.part.repulsive>
3.6374

> <Gold.PLP.ligand.clash>
0.0000

> <Gold.PLP.ligand.torsion>
1.4471

> <Gold.PLP.Chemscore.Hbond>
1.9913

> <Gold.PLP.Chemscore.CHOScore>
0.0000

> <Gold.PLP.Chemscore.Metal>
0.0000

> <Gold.Chemscore.Hbonds>
donor molecule, donor type, donor heavy atom, donor atom, acceptor molecule, acceptor atom, score
      L1  H    19    24       P1  7948  0.99
      P1  H  7997  8009       L1     3  1.00

> <Gold.PLP.Chemscore.Internal.Correction>
0.4671

> <Gold.Rescore>
     Score         DG    S(hbond)    S(metal)    S(lipo)     H(rot)  DE(clash)    DE(int)     intcor
     13.79     -17.62       1.79        0.00      88.12       1.62       1.28       2.54       ----

> <Gold.Chemscore.Fitness>
13.7899

> <Gold.Chemscore.DG>
-17.6168

> <Gold.Chemscore.ZeroCoef>
-5.4800

> <Gold.Chemscore.Hbond>
1.7890

> <Gold.Chemscore.Metal>
0.0000

> <Gold.Chemscore.Lipo>
88.1173

> <Gold.Chemscore.Internal_Hbond>
0.0000

> <Gold.Chemscore.DEClash>
1.2839

> <Gold.Chemscore.DEInternal>
2.5430

> <Gold.Chemscore.Rot>
1.6204

> <Gold.Chemscore.Internal.Correction>
   9.000000E+99

> <Gold.Chemscore.Hbonds>
donor molecule, donor type, donor heavy atom, donor atom, acceptor molecule, acceptor atom, score
      L1  H    19    24       P1  7948  0.92
      P1  H  7997  8009       L1     3  0.58

> <Gold.Chemscore.Hbond.Weighted>
-5.9753

> <Gold.Chemscore.Metal.Weighted>
-0.0000

> <Gold.Chemscore.Lipo.Weighted>
-10.3097

> <Gold.Chemscore.Internal_Hbond.Weighted>
0.0000

> <Gold.Chemscore.DEClash.Weighted>
1.2839

> <Gold.Chemscore.DEInternal.Weighted>
2.5430

> <Gold.Chemscore.Rot.Weighted>
4.1481

> <Gold.Chemscore.Internal.Correction.Weighted>
   9.000000E+99

> <Gold.Protein.RotatedTorsions>
[ 6907 6896 6895 6894 ] final -117.03 input  -60.11 | X-H torsion
[ 7974 7965 7964 7962 ] final  114.12 input  175.53 | X-H torsion
[ 8008 7997 7996 7995 ] final  154.16 input   59.86 | X-H torsion
[ 10167 10162 10161 10158 ] final  156.01 input  -65.29 | X-H torsion
[ 10718 10713 10712 10709 ] final  -60.88 input   66.30 | X-H torsion
[ 10763 10752 10751 10750 ] final  -42.93 input  -60.55 | X-H torsion
[ 11005 11000 10999 10996 ] final  130.58 input  -57.11 | X-H torsion

> <Gold.Protein.ActiveResidues>
 VAL166  LYS551  ARG553  GLY616  TRP617  ASP618  TYR619  PRO620  LYS621  CYS622 
 ASP623  PHE694  ASN695  SER759  ASP760  ASP761  ALA762  ILE779  LEU786  VAL792 
 PHE793  MET794  SER795  GLU796  ALA797  LYS798  CYS799  TRP800  GLU811  SER814 

> <Gold.Protein.RotatedAtoms>
  150.8103  133.8434  159.3185 H   0  0  0  0  0  0  0  0  0  0  0  0  # atno 6907 bound_to 6896
  151.6221  135.1029  160.0113 H   0  0  0  0  0  0  0  0  0  0  0  0  # atno 6908 bound_to 6896
  152.4195  133.7053  159.6504 H   0  0  0  0  0  0  0  0  0  0  0  0  # atno 6909 bound_to 6896
  145.2084  139.2918  143.4281 H   0  0  0  0  0  0  0  0  0  0  0  0  # atno 7974 bound_to 7965
  156.2545  140.1974  156.6602 H   0  0  0  0  0  0  0  0  0  0  0  0  # atno 8008 bound_to 7997
  154.6470  140.0576  156.9937 H   0  0  0  0  0  0  0  0  0  0  0  0  # atno 8009 bound_to 7997
  155.1476  140.3248  155.4441 H   0  0  0  0  0  0  0  0  0  0  0  0  # atno 8010 bound_to 7997
  139.4821  144.5047  151.8115 H   0  0  0  0  0  0  0  0  0  0  0  0  # atno 10167 bound_to 10162
  156.0960  130.4193  150.0916 H   0  0  0  0  0  0  0  0  0  0  0  0  # atno 10718 bound_to 10713
  153.9873  135.6709  153.4752 H   0  0  0  0  0  0  0  0  0  0  0  0  # atno 10763 bound_to 10752
  153.0721  135.4968  154.8323 H   0  0  0  0  0  0  0  0  0  0  0  0  # atno 10764 bound_to 10752
  154.7130  135.3101  154.9130 H   0  0  0  0  0  0  0  0  0  0  0  0  # atno 10765 bound_to 10752
  139.9680  134.9585  156.9314 H   0  0  0  0  0  0  0  0  0  0  0  0  # atno 11005 bound_to 11000
  146.3403  140.2352  142.8594 LP  0  0  0  0  0  0  0  0  0  0  0  0  # atno 17320 bound_to 7965
  144.9879  140.8520  143.5357 LP  0  0  0  0  0  0  0  0  0  0  0  0  # atno 17321 bound_to 7965
  140.4544  144.1810  150.5900 LP  0  0  0  0  0  0  0  0  0  0  0  0  # atno 17342 bound_to 10162
  140.4551  143.2471  151.9296 LP  0  0  0  0  0  0  0  0  0  0  0  0  # atno 17343 bound_to 10162
  156.8915  130.9590  151.3588 LP  0  0  0  0  0  0  0  0  0  0  0  0  # atno 17370 bound_to 10713
  157.6120  130.8590  149.8968 LP  0  0  0  0  0  0  0  0  0  0  0  0  # atno 17371 bound_to 10713
  140.5354  134.0772  155.7327 LP  0  0  0  0  0  0  0  0  0  0  0  0  # atno 17394 bound_to 11000
  141.1360  133.9221  157.2432 LP  0  0  0  0  0  0  0  0  0  0  0  0  # atno 17395 bound_to 11000

$$$$
