AV-unprocessed.smi:3237|AV-procd|sdf|12371|dock10
  -GOLD-   2272018233D 1   1.00000     0.00000
 Structure written by MMmdl.
 36 38  0  0  0  0  0  0  0  0  3 V2000
  153.0945  143.2349  159.6336 C   0  0  0  0  0  0  0  0  0  0  0  0
  152.2576  142.6734  158.5358 C   0  0  0  0  0  0  0  0  0  0  0  0
  151.3614  143.2342  157.6703 C   0  0  0  0  0  0  0  0  0  0  0  0
  150.9327  142.1275  156.8899 C   0  0  0  0  0  0  0  0  0  0  0  0
  149.9777  142.3003  155.8535 N   0  0  0  0  0  0  0  0  0  0  0  0
  149.7387  141.5147  154.7876 C   0  0  0  0  0  0  0  0  0  0  0  0
  150.3905  140.4779  154.6158 O   0  0  0  0  0  0  0  0  0  0  0  0
  148.7463  142.0085  153.9967 N   0  5  0  0  0  0  0  0  0  0  0  0
  147.3903  141.4629  153.9213 C   0  0  2  0  0  0  0  0  0  0  0  0
  146.8864  140.9735  155.2814 C   0  0  0  0  0  0  0  0  0  0  0  0
  145.8770  139.8684  154.9384 C   0  0  0  0  0  0  0  0  0  0  0  0
  146.1192  139.4939  153.5250 N   0  3  2  0  0  0  0  0  0  0  0  0
  146.1219  138.0369  153.2708 C   0  0  0  0  0  0  0  0  0  0  0  0
  145.9108  137.6763  151.8198 C   0  0  0  0  0  0  0  0  0  0  0  0
  144.7855  137.5009  152.8170 C   0  0  0  0  0  0  0  0  0  0  0  0
  147.3468  140.1857  153.0853 C   0  0  0  0  0  0  0  0  0  0  0  0
  151.5181  140.9935  157.2462 N   0  0  0  0  0  0  0  0  0  0  0  0
  152.3699  141.3376  158.3027 O   0  0  0  0  0  0  0  0  0  0  0  0
  152.7606  144.2368  159.9038 H   0  0  0  0  0  0  0  0  0  0  0  0
  154.1388  143.2970  159.3283 H   0  0  0  0  0  0  0  0  0  0  0  0
  153.0375  142.6085  160.5239 H   0  0  0  0  0  0  0  0  0  0  0  0
  151.0611  144.2695  157.6074 H   0  0  0  0  0  0  0  0  0  0  0  0
  149.3991  143.1238  155.9281 H   0  0  0  0  0  0  0  0  0  0  0  0
  146.6701  142.1711  153.5079 H   0  0  0  0  0  0  0  0  0  0  0  0
  147.7050  140.5438  155.8621 H   0  0  0  0  0  0  0  0  0  0  0  0
  146.4449  141.7744  155.8759 H   0  0  0  0  0  0  0  0  0  0  0  0
  145.9982  139.0182  155.6118 H   0  0  0  0  0  0  0  0  0  0  0  0
  144.8493  140.2214  155.0386 H   0  0  0  0  0  0  0  0  0  0  0  0
  146.7746  137.4355  153.9013 H   0  0  0  0  0  0  0  0  0  0  0  0
  145.8205  138.4844  151.0960 H   0  0  0  0  0  0  0  0  0  0  0  0
  146.3960  136.7748  151.4511 H   0  0  0  0  0  0  0  0  0  0  0  0
  144.5290  136.4833  153.1043 H   0  0  0  0  0  0  0  0  0  0  0  0
  143.9473  138.1929  152.7567 H   0  0  0  0  0  0  0  0  0  0  0  0
  147.3309  140.3860  152.0137 H   0  0  0  0  0  0  0  0  0  0  0  0
  148.2141  139.5574  153.2999 H   0  0  0  0  0  0  0  0  0  0  0  0
  145.3630  139.8996  152.9929 H   0  0  0  0  0  0  0  0  0  0  0  0
  1  2  1  0  0  0  0
  1 19  1  0  0  0  0
  1 20  1  0  0  0  0
  1 21  1  0  0  0  0
  2 18  1  0  0  0  0
  2  3  2  0  0  0  0
  3  4  1  0  0  0  0
  3 22  1  0  0  0  0
  4  5  1  0  0  0  0
  4 17  2  0  0  0  0
  5  6  1  0  0  0  0
  5 23  1  0  0  0  0
  6  7  2  0  0  0  0
  6  8  1  0  0  0  0
  8  9  1  0  0  0  0
  9 16  1  0  0  0  0
  9 10  1  0  0  0  0
  9 24  1  0  0  0  0
 10 11  1  0  0  0  0
 10 25  1  0  0  0  0
 10 26  1  0  0  0  0
 11 12  1  0  0  0  0
 11 27  1  0  0  0  0
 11 28  1  0  0  0  0
 12 13  1  0  0  0  0
 12 16  1  0  0  0  0
 12 36  1  0  0  0  0
 13 15  1  0  0  0  0
 13 14  1  0  0  0  0
 13 29  1  0  0  0  0
 14 15  1  0  0  0  0
 14 30  1  0  0  0  0
 14 31  1  0  0  0  0
 15 32  1  0  0  0  0
 15 33  1  0  0  0  0
 16 34  1  0  0  0  0
 16 35  1  0  0  0  0
 17 18  1  0  0  0  0
M  CHG  1   8  -1
M  CHG  1  12   1
M  END
> <s_m_source_file>
AV-unprocessed.smi

> <i_m_source_file_index>
3237

> <i_lp_mmshare_version>
43012

> <i_f3d_flags>
0

> <s_epik_input>
W0NIM11jMVtjSF1jKG5vMSlbTkhdQyg9TylbTkhdW0NAQEhdMltDSDJdW0NIMl1OKFtDSDJdMilbQ0hdM1tDSDJdW0NIMl0z

> <s_epik_cmdline>
J2VwaWtfcHl0aG9uJywgJy1waCcsICc3LjAnLCAnLXRuJywgJzgnLCAnLW1hJywgJzIwMCcsICctbWV0YWxfYmluZGluZycsICctaW1hZScsICc8aW5maWxlLm1hZT4nLCAnLW9tYWUnLCAnPG91dGZpbGUubWFlPic=

> <r_epik_Ionization_Penalty>
6.76456

> <r_epik_Ionization_Penalty_Charging>
6.76456

> <r_epik_Ionization_Penalty_Neutral>
5.76722e-06

> <r_epik_State_Penalty>
6.78919

> <r_epik_Charging_Adjusted_Penalty>
13.5538

> <i_epik_Tot_Q>
0

> <i_epik_Tot_abs_Q>
2

> <r_epik_Metal_State_Penalty>
2.728

> <b_epik_Metal_Only>
1

> <s_lp_Force_Field>
OPLS_2005

> <r_lp_Energy>
30.701

> <b_lp_Chiralities_Consistent>
1

> <s_lp_Variant>
AV-unprocessed.smi:3237-9

> <Gold.Version>
5.8.1

> <Gold.Id.Protein>
6NUR|6NUR_protein|mol2

> <Gold.PLP.Fitness>
41.9873

> <Gold.PLP.PLP>
-30.8166

> <Gold.PLP.part.hbond>
-4.0000

> <Gold.PLP.part.metal>
0.0000

> <Gold.PLP.part.buried>
-2.3911

> <Gold.PLP.part.nonpolar>
-24.7215

> <Gold.PLP.part.repulsive>
0.4247

> <Gold.PLP.ligand.clash>
0.0000

> <Gold.PLP.ligand.torsion>
1.7131

> <Gold.PLP.Chemscore.Hbond>
4.4373

> <Gold.PLP.Chemscore.CHOScore>
0.0000

> <Gold.PLP.Chemscore.Metal>
0.0000

> <Gold.Chemscore.Hbonds>
donor molecule, donor type, donor heavy atom, donor atom, acceptor molecule, acceptor atom, score
      L1  H     5    23       P1  8028  1.00
      L1  H    12    36       P1 10175  2.00
      P1  H  7989  7998       L1     7  0.99
      P1  H  8011  8017       L1     8  0.42

> <Gold.PLP.Chemscore.Internal.Correction>
1.2849

> <Gold.Rescore>
     Score         DG    S(hbond)    S(metal)    S(lipo)     H(rot)  DE(clash)    DE(int)     intcor
     16.49     -19.57       2.66        0.00      71.80       1.25       0.34       2.74       ----

> <Gold.Chemscore.Fitness>
16.4941

> <Gold.Chemscore.DG>
-19.5738

> <Gold.Chemscore.ZeroCoef>
-5.4800

> <Gold.Chemscore.Hbond>
2.6601

> <Gold.Chemscore.Metal>
0.0000

> <Gold.Chemscore.Lipo>
71.7952

> <Gold.Chemscore.Internal_Hbond>
0.0000

> <Gold.Chemscore.DEClash>
0.3431

> <Gold.Chemscore.DEInternal>
2.7366

> <Gold.Chemscore.Rot>
1.2464

> <Gold.Chemscore.Internal.Correction>
   9.000000E+99

> <Gold.Chemscore.Hbonds>
donor molecule, donor type, donor heavy atom, donor atom, acceptor molecule, acceptor atom, score
      L1  H     5    23       P1  8028  0.99
      L1  H    12    36       P1 10175  1.00
      P1  H  7989  7998       L1     7  0.52
      P1  H  8011  8017       L1     8  0.12

> <Gold.Chemscore.Hbond.Weighted>
-8.8846

> <Gold.Chemscore.Metal.Weighted>
-0.0000

> <Gold.Chemscore.Lipo.Weighted>
-8.4000

> <Gold.Chemscore.Internal_Hbond.Weighted>
0.0000

> <Gold.Chemscore.DEClash.Weighted>
0.3431

> <Gold.Chemscore.DEInternal.Weighted>
2.7366

> <Gold.Chemscore.Rot.Weighted>
3.1909

> <Gold.Chemscore.Internal.Correction.Weighted>
   9.000000E+99

> <Gold.Protein.RotatedTorsions>
[ 6907 6896 6895 6894 ] final  -53.04 input  -60.11 | X-H torsion
[ 7974 7965 7964 7962 ] final -104.63 input  175.53 | X-H torsion
[ 8008 7997 7996 7995 ] final  -39.77 input   59.86 | X-H torsion
[ 10167 10162 10161 10158 ] final  -30.95 input  -65.29 | X-H torsion
[ 10718 10713 10712 10709 ] final   -0.13 input   66.30 | X-H torsion
[ 10763 10752 10751 10750 ] final   61.22 input  -60.55 | X-H torsion
[ 11005 11000 10999 10996 ] final   87.89 input  -57.11 | X-H torsion

> <Gold.Protein.ActiveResidues>
 VAL166  LYS551  ARG553  GLY616  TRP617  ASP618  TYR619  PRO620  LYS621  CYS622 
 ASP623  PHE694  ASN695  SER759  ASP760  ASP761  ALA762  ILE779  LEU786  VAL792 
 PHE793  MET794  SER795  GLU796  ALA797  LYS798  CYS799  TRP800  GLU811  SER814 

> <Gold.Protein.RotatedAtoms>
  150.8463  134.7772  159.6972 H   0  0  0  0  0  0  0  0  0  0  0  0  # atno 6907 bound_to 6896
  152.4539  134.5332  159.9827 H   0  0  0  0  0  0  0  0  0  0  0  0  # atno 6908 bound_to 6896
  151.5461  133.3387  159.2980 H   0  0  0  0  0  0  0  0  0  0  0  0  # atno 6909 bound_to 6896
  145.2407  140.9204  143.3152 H   0  0  0  0  0  0  0  0  0  0  0  0  # atno 7974 bound_to 7965
  154.4019  140.1543  156.2918 H   0  0  0  0  0  0  0  0  0  0  0  0  # atno 8008 bound_to 7997
  155.8778  140.3445  155.5845 H   0  0  0  0  0  0  0  0  0  0  0  0  # atno 8009 bound_to 7997
  155.7701  140.0829  157.2103 H   0  0  0  0  0  0  0  0  0  0  0  0  # atno 8010 bound_to 7997
  140.7243  143.3809  151.1603 H   0  0  0  0  0  0  0  0  0  0  0  0  # atno 10167 bound_to 10162
  156.8250  130.5469  149.5693 H   0  0  0  0  0  0  0  0  0  0  0  0  # atno 10718 bound_to 10713
  152.9944  135.5508  154.6000 H   0  0  0  0  0  0  0  0  0  0  0  0  # atno 10763 bound_to 10752
  154.5343  135.2815  155.1154 H   0  0  0  0  0  0  0  0  0  0  0  0  # atno 10764 bound_to 10752
  154.2457  135.6408  153.5275 H   0  0  0  0  0  0  0  0  0  0  0  0  # atno 10765 bound_to 10752
  139.8909  134.8452  156.2924 H   0  0  0  0  0  0  0  0  0  0  0  0  # atno 11005 bound_to 11000
  144.9592  139.3998  143.6364 LP  0  0  0  0  0  0  0  0  0  0  0  0  # atno 17320 bound_to 7965
  146.3329  139.8637  142.8852 LP  0  0  0  0  0  0  0  0  0  0  0  0  # atno 17321 bound_to 7965
  139.7397  143.8943  152.3046 LP  0  0  0  0  0  0  0  0  0  0  0  0  # atno 17342 bound_to 10162
  139.8760  144.7043  150.8932 LP  0  0  0  0  0  0  0  0  0  0  0  0  # atno 17343 bound_to 10162
  156.0967  130.5937  150.9825 LP  0  0  0  0  0  0  0  0  0  0  0  0  # atno 17370 bound_to 10713
  157.6437  131.0907  150.8198 LP  0  0  0  0  0  0  0  0  0  0  0  0  # atno 17371 bound_to 10713
  140.9967  133.7176  156.0897 LP  0  0  0  0  0  0  0  0  0  0  0  0  # atno 17394 bound_to 11000
  140.7552  134.4000  157.5535 LP  0  0  0  0  0  0  0  0  0  0  0  0  # atno 17395 bound_to 11000

$$$$
