AV-unprocessed.smi:1921|AV-procd|sdf|7785|dock10
  -GOLD-   22720 9533D 1   1.00000     0.00000
 Structure written by MMmdl.
 27 28  0  0  0  0  0  0  0  0  1 V2000
  152.9678  144.6778  157.7107 C   0  0  0  0  0  0  0  0  0  0  0  0
  151.9120  143.6988  158.2422 C   0  0  2  0  0  0  0  0  0  0  0  0
  150.9970  143.3638  157.1556 N   0  0  0  0  0  0  0  0  0  0  0  0
  150.7864  142.1320  156.6688 C   0  0  0  0  0  0  0  0  0  0  0  0
  151.3583  141.1262  157.0903 O   0  0  0  0  0  0  0  0  0  0  0  0
  149.8807  142.1512  155.6750 N   0  0  0  0  0  0  0  0  0  0  0  0
  149.3894  141.0583  154.9135 C   0  0  0  0  0  0  0  0  0  0  0  0
  150.1151  139.9856  154.5769 N   0  0  0  0  0  0  0  0  0  0  0  0
  149.3766  139.0675  153.8259 C   0  0  0  0  0  0  0  0  0  0  0  0
  148.0809  139.4598  153.5992 C   0  0  0  0  0  0  0  0  0  0  0  0
  147.7341  141.0066  154.3247 S   0  0  0  0  0  0  0  0  0  0  0  0
  151.2141  144.2676  159.4665 C   0  0  0  0  0  0  0  0  0  0  0  0
  151.6192  145.6053  160.0397 C   0  0  0  0  0  0  0  0  0  0  0  0
  151.9060  144.3357  160.8078 C   0  0  0  0  0  0  0  0  0  0  0  0
  153.7065  144.9125  158.4775 H   0  0  0  0  0  0  0  0  0  0  0  0
  152.5141  145.6159  157.3892 H   0  0  0  0  0  0  0  0  0  0  0  0
  153.5032  144.2562  156.8593 H   0  0  0  0  0  0  0  0  0  0  0  0
  152.4375  142.7906  158.5446 H   0  0  0  0  0  0  0  0  0  0  0  0
  150.4822  144.1296  156.7461 H   0  0  0  0  0  0  0  0  0  0  0  0
  149.4979  143.0535  155.4343 H   0  0  0  0  0  0  0  0  0  0  0  0
  149.8536  138.1577  153.4926 H   0  0  0  0  0  0  0  0  0  0  0  0
  147.3127  138.9343  153.0518 H   0  0  0  0  0  0  0  0  0  0  0  0
  150.1470  144.0538  159.4947 H   0  0  0  0  0  0  0  0  0  0  0  0
  152.4655  146.1176  159.5862 H   0  0  0  0  0  0  0  0  0  0  0  0
  150.8276  146.2520  160.4127 H   0  0  0  0  0  0  0  0  0  0  0  0
  151.3053  144.1337  161.6920 H   0  0  0  0  0  0  0  0  0  0  0  0
  152.9423  144.0086  160.8640 H   0  0  0  0  0  0  0  0  0  0  0  0
  1  2  1  0  0  0  0
  1 15  1  0  0  0  0
  1 16  1  0  0  0  0
  1 17  1  0  0  0  0
  2  3  1  0  0  0  0
  2 12  1  0  0  0  0
  2 18  1  0  0  0  0
  3  4  1  0  0  0  0
  3 19  1  0  0  0  0
  4  5  2  0  0  0  0
  4  6  1  0  0  0  0
  6  7  1  0  0  0  0
  6 20  1  0  0  0  0
  7 11  1  0  0  0  0
  7  8  2  0  0  0  0
  8  9  1  0  0  0  0
  9 10  2  0  0  0  0
  9 21  1  0  0  0  0
 10 11  1  0  0  0  0
 10 22  1  0  0  0  0
 12 14  1  0  0  0  0
 12 13  1  0  0  0  0
 12 23  1  0  0  0  0
 13 14  1  0  0  0  0
 13 24  1  0  0  0  0
 13 25  1  0  0  0  0
 14 26  1  0  0  0  0
 14 27  1  0  0  0  0
M  END
> <s_m_source_file>
AV-unprocessed.smi

> <i_m_source_file_index>
1921

> <i_lp_mmshare_version>
43012

> <i_f3d_flags>
0

> <s_epik_input>
W0NIMl0xW0NIMl1bQ0hdMVtDQEhdKFtDSDNdKVtOSF1DKD1PKVtOSF1jMm5bY0hdW2NIXXMy

> <s_epik_cmdline>
J2VwaWtfcHl0aG9uJywgJy1waCcsICc3LjAnLCAnLXRuJywgJzgnLCAnLW1hJywgJzIwMCcsICctbWV0YWxfYmluZGluZycsICctaW1hZScsICc8aW5maWxlLm1hZT4nLCAnLW9tYWUnLCAnPG91dGZpbGUubWFlPic=

> <r_lp_tautomer_probability>
0.999

> <r_epik_Ionization_Penalty>
0.000426276

> <r_epik_Ionization_Penalty_Charging>
0

> <r_epik_Ionization_Penalty_Neutral>
0.000426276

> <r_epik_State_Penalty>
0.000177984

> <r_epik_Charging_Adjusted_Penalty>
0.000177984

> <i_epik_Tot_Q>
0

> <i_epik_Tot_abs_Q>
0

> <r_epik_Metal_State_Penalty>
-0

> <b_epik_Metal_Only>
0

> <s_lp_Force_Field>
OPLS_2005

> <r_lp_Energy>
11.4039

> <b_lp_Chiralities_Consistent>
1

> <s_lp_Variant>
AV-unprocessed.smi:1921-1

> <Gold.Version>
5.8.1

> <Gold.Id.Protein>
6NUR|6NUR_protein|mol2

> <Gold.PLP.Fitness>
42.5442

> <Gold.PLP.PLP>
-32.5302

> <Gold.PLP.part.hbond>
-3.0000

> <Gold.PLP.part.metal>
0.0000

> <Gold.PLP.part.buried>
-1.6562

> <Gold.PLP.part.nonpolar>
-29.1405

> <Gold.PLP.part.repulsive>
0.2864

> <Gold.PLP.ligand.clash>
0.0000

> <Gold.PLP.ligand.torsion>
1.0932

> <Gold.PLP.Chemscore.Hbond>
2.9760

> <Gold.PLP.Chemscore.CHOScore>
0.7370

> <Gold.PLP.Chemscore.Metal>
0.0000

> <Gold.Chemscore.Hbonds>
donor molecule, donor type, donor heavy atom, donor atom, acceptor molecule, acceptor atom, score
      L1  H     3    19       P1  8028  0.98
      L1  H     6    20       P1  8028  1.00
      P1  H  7989  7998       L1     8  0.94
      L1  C     9    21       P1  7948  0.73

> <Gold.PLP.Chemscore.Internal.Correction>
1.0616

> <Gold.Rescore>
     Score         DG    S(hbond)    S(metal)    S(lipo)     H(rot)  DE(clash)    DE(int)     intcor
     16.83     -20.62       2.63        0.00      81.77       1.26       1.90       1.89       ----

> <Gold.Chemscore.Fitness>
16.8315

> <Gold.Chemscore.DG>
-20.6248

> <Gold.Chemscore.ZeroCoef>
-5.4800

> <Gold.Chemscore.Hbond>
2.6349

> <Gold.Chemscore.Metal>
0.0000

> <Gold.Chemscore.Lipo>
81.7732

> <Gold.Chemscore.Internal_Hbond>
0.0000

> <Gold.Chemscore.DEClash>
1.9038

> <Gold.Chemscore.DEInternal>
1.8895

> <Gold.Chemscore.Rot>
1.2591

> <Gold.Chemscore.Internal.Correction>
   9.000000E+99

> <Gold.Chemscore.Hbonds>
donor molecule, donor type, donor heavy atom, donor atom, acceptor molecule, acceptor atom, score
      L1  H     3    19       P1  8028  0.90
      L1  H     6    20       P1  8028  1.00
      P1  H  7989  7998       L1     8  0.23

> <Gold.Chemscore.Hbond.Weighted>
-8.8006

> <Gold.Chemscore.Metal.Weighted>
-0.0000

> <Gold.Chemscore.Lipo.Weighted>
-9.5675

> <Gold.Chemscore.Internal_Hbond.Weighted>
0.0000

> <Gold.Chemscore.DEClash.Weighted>
1.9038

> <Gold.Chemscore.DEInternal.Weighted>
1.8895

> <Gold.Chemscore.Rot.Weighted>
3.2233

> <Gold.Chemscore.Internal.Correction.Weighted>
   9.000000E+99

> <Gold.Protein.RotatedTorsions>
[ 6907 6896 6895 6894 ] final  101.84 input  -60.11 | X-H torsion
[ 7974 7965 7964 7962 ] final -158.09 input  175.53 | X-H torsion
[ 8008 7997 7996 7995 ] final   -8.98 input   59.86 | X-H torsion
[ 10167 10162 10161 10158 ] final  -38.96 input  -65.29 | X-H torsion
[ 10718 10713 10712 10709 ] final -112.33 input   66.30 | X-H torsion
[ 10763 10752 10751 10750 ] final -104.19 input  -60.55 | X-H torsion
[ 11005 11000 10999 10996 ] final  -49.88 input  -57.11 | X-H torsion

> <Gold.Protein.ActiveResidues>
 VAL166  LYS551  ARG553  GLY616  TRP617  ASP618  TYR619  PRO620  LYS621  CYS622 
 ASP623  PHE694  ASN695  SER759  ASP760  ASP761  ALA762  ILE779  LEU786  VAL792 
 PHE793  MET794  SER795  GLU796  ALA797  LYS798  CYS799  TRP800  GLU811  SER814 

> <Gold.Protein.RotatedAtoms>
  152.5339  134.0065  159.7918 H   0  0  0  0  0  0  0  0  0  0  0  0  # atno 6907 bound_to 6896
  151.0275  133.5812  159.2671 H   0  0  0  0  0  0  0  0  0  0  0  0  # atno 6908 bound_to 6896
  151.2829  135.0726  159.9229 H   0  0  0  0  0  0  0  0  0  0  0  0  # atno 6909 bound_to 6896
  144.7520  140.3876  143.6041 H   0  0  0  0  0  0  0  0  0  0  0  0  # atno 7974 bound_to 7965
  154.5690  140.2367  155.8221 H   0  0  0  0  0  0  0  0  0  0  0  0  # atno 8008 bound_to 7997
  156.2091  140.3031  155.9651 H   0  0  0  0  0  0  0  0  0  0  0  0  # atno 8009 bound_to 7997
  155.2748  140.0420  157.3001 H   0  0  0  0  0  0  0  0  0  0  0  0  # atno 8010 bound_to 7997
  140.7078  143.3244  151.2715 H   0  0  0  0  0  0  0  0  0  0  0  0  # atno 10167 bound_to 10162
  156.0699  130.5914  150.8494 H   0  0  0  0  0  0  0  0  0  0  0  0  # atno 10718 bound_to 10713
  154.7861  135.4795  153.9949 H   0  0  0  0  0  0  0  0  0  0  0  0  # atno 10763 bound_to 10752
  153.1562  135.6800  153.8816 H   0  0  0  0  0  0  0  0  0  0  0  0  # atno 10764 bound_to 10752
  153.8444  135.3175  155.3406 H   0  0  0  0  0  0  0  0  0  0  0  0  # atno 10765 bound_to 10752
  141.0784  133.6659  156.3649 H   0  0  0  0  0  0  0  0  0  0  0  0  # atno 11005 bound_to 11000
  145.6911  139.1639  143.2646 LP  0  0  0  0  0  0  0  0  0  0  0  0  # atno 17320 bound_to 7965
  146.1483  140.6962  142.9334 LP  0  0  0  0  0  0  0  0  0  0  0  0  # atno 17321 bound_to 7965
  139.6708  144.0024  152.2751 LP  0  0  0  0  0  0  0  0  0  0  0  0  # atno 17342 bound_to 10162
  139.9622  144.6550  150.8069 LP  0  0  0  0  0  0  0  0  0  0  0  0  # atno 17343 bound_to 10162
  157.5764  131.0946  150.9339 LP  0  0  0  0  0  0  0  0  0  0  0  0  # atno 17370 bound_to 10713
  156.9544  130.5432  149.5283 LP  0  0  0  0  0  0  0  0  0  0  0  0  # atno 17371 bound_to 10713
  140.5522  134.6016  157.5411 LP  0  0  0  0  0  0  0  0  0  0  0  0  # atno 17394 bound_to 11000
  139.9597  134.7474  156.0264 LP  0  0  0  0  0  0  0  0  0  0  0  0  # atno 17395 bound_to 11000

$$$$
