AV-unprocessed.smi:2973|AV-procd|sdf|11337|dock3
  -GOLD-   2272016243D 1   1.00000     0.00000
 Structure written by MMmdl.
 49 51  0  0  0  0  0  0  0  0  1 V2000
  154.7782  136.8406  164.6835 C   0  0  0  0  0  0  0  0  0  0  0  0
  155.3395  135.5012  164.1606 C   0  0  2  0  0  0  0  0  0  0  0  0
  156.3475  134.9031  165.1657 C   0  0  0  0  0  0  0  0  0  0  0  0
  156.8497  133.5230  164.7135 C   0  0  0  0  0  0  0  0  0  0  0  0
  157.4697  133.5830  163.3106 C   0  0  0  0  0  0  0  0  0  0  0  0
  156.4811  134.1752  162.2904 C   0  0  0  0  0  0  0  0  0  0  0  0
  155.9258  135.5588  162.7140 C   0  0  1  0  0  0  0  0  0  0  0  0
  154.9212  135.9930  161.7588 N   0  0  0  0  0  0  0  0  0  0  0  0
  155.2579  137.1140  161.1097 C   0  0  0  0  0  0  0  0  0  0  0  0
  154.5677  137.6765  160.2611 O   0  0  0  0  0  0  0  0  0  0  0  0
  156.4638  137.5118  161.5515 N   0  0  0  0  0  0  0  0  0  0  0  0
  157.1431  138.7338  161.1016 C   0  0  0  0  0  0  0  0  0  0  0  0
  156.3612  140.0159  161.4226 C   0  0  0  0  0  0  0  0  0  0  0  0
  156.8404  140.8876  162.1497 O   0  0  0  0  0  0  0  0  0  0  0  0
  155.1489  140.1165  160.8580 N   0  0  0  0  0  0  0  0  0  0  0  0
  154.2265  141.2307  161.0427 C   0  0  0  0  0  0  0  0  0  0  0  0
  153.5343  141.6256  159.7277 C   0  0  0  0  0  0  0  0  0  0  0  0
  152.6965  142.8808  159.8811 C   0  0  0  0  0  0  0  0  0  0  0  0
  152.2237  143.5740  158.7462 C   0  0  0  0  0  0  0  0  0  0  0  0
  151.4350  144.7239  158.9431 C   0  0  0  0  0  0  0  0  0  0  0  0
  151.1502  145.1340  160.2600 C   0  0  0  0  0  0  0  0  0  0  0  0
  151.6694  144.3726  161.3260 C   0  0  0  0  0  0  0  0  0  0  0  0
  152.4262  143.2683  161.1482 N   0  0  0  0  0  0  0  0  0  0  0  0
  156.9415  136.6815  162.4888 C   0  0  0  0  0  0  0  0  0  0  0  0
  158.0108  136.7884  163.0899 O   0  0  0  0  0  0  0  0  0  0  0  0
  155.5609  137.5906  164.8000 H   0  0  0  0  0  0  0  0  0  0  0  0
  154.3082  136.7090  165.6583 H   0  0  0  0  0  0  0  0  0  0  0  0
  154.0208  137.2498  164.0152 H   0  0  0  0  0  0  0  0  0  0  0  0
  154.4913  134.8154  164.1255 H   0  0  0  0  0  0  0  0  0  0  0  0
  157.1943  135.5760  165.3019 H   0  0  0  0  0  0  0  0  0  0  0  0
  155.8790  134.8078  166.1459 H   0  0  0  0  0  0  0  0  0  0  0  0
  157.5813  133.1421  165.4264 H   0  0  0  0  0  0  0  0  0  0  0  0
  156.0199  132.8151  164.7151 H   0  0  0  0  0  0  0  0  0  0  0  0
  158.3850  134.1743  163.3377 H   0  0  0  0  0  0  0  0  0  0  0  0
  157.7658  132.5820  162.9962 H   0  0  0  0  0  0  0  0  0  0  0  0
  156.9667  134.2404  161.3154 H   0  0  0  0  0  0  0  0  0  0  0  0
  155.6507  133.4795  162.1618 H   0  0  0  0  0  0  0  0  0  0  0  0
  154.0563  135.4926  161.6132 H   0  0  0  0  0  0  0  0  0  0  0  0
  158.1325  138.8088  161.5556 H   0  0  0  0  0  0  0  0  0  0  0  0
  157.3146  138.6790  160.0250 H   0  0  0  0  0  0  0  0  0  0  0  0
  154.8352  139.3572  160.2707 H   0  0  0  0  0  0  0  0  0  0  0  0
  153.4790  140.9285  161.7768 H   0  0  0  0  0  0  0  0  0  0  0  0
  154.7535  142.0851  161.4711 H   0  0  0  0  0  0  0  0  0  0  0  0
  154.2751  141.7905  158.9441 H   0  0  0  0  0  0  0  0  0  0  0  0
  152.8981  140.8100  159.3806 H   0  0  0  0  0  0  0  0  0  0  0  0
  152.4550  143.2316  157.7481 H   0  0  0  0  0  0  0  0  0  0  0  0
  151.0541  145.2796  158.0990 H   0  0  0  0  0  0  0  0  0  0  0  0
  150.5480  146.0101  160.4494 H   0  0  0  0  0  0  0  0  0  0  0  0
  151.4697  144.6572  162.3486 H   0  0  0  0  0  0  0  0  0  0  0  0
  1  2  1  0  0  0  0
  1 26  1  0  0  0  0
  1 27  1  0  0  0  0
  1 28  1  0  0  0  0
  2  7  1  0  0  0  0
  2  3  1  0  0  0  0
  2 29  1  0  0  0  0
  3  4  1  0  0  0  0
  3 30  1  0  0  0  0
  3 31  1  0  0  0  0
  4  5  1  0  0  0  0
  4 32  1  0  0  0  0
  4 33  1  0  0  0  0
  5  6  1  0  0  0  0
  5 34  1  0  0  0  0
  5 35  1  0  0  0  0
  6  7  1  0  0  0  0
  6 36  1  0  0  0  0
  6 37  1  0  0  0  0
  7 24  1  0  0  0  0
  7  8  1  0  0  0  0
  8  9  1  0  0  0  0
  8 38  1  0  0  0  0
  9 10  2  0  0  0  0
  9 11  1  0  0  0  0
 11 12  1  0  0  0  0
 11 24  1  0  0  0  0
 12 13  1  0  0  0  0
 12 39  1  0  0  0  0
 12 40  1  0  0  0  0
 13 14  2  0  0  0  0
 13 15  1  0  0  0  0
 15 16  1  0  0  0  0
 15 41  1  0  0  0  0
 16 17  1  0  0  0  0
 16 42  1  0  0  0  0
 16 43  1  0  0  0  0
 17 18  1  0  0  0  0
 17 44  1  0  0  0  0
 17 45  1  0  0  0  0
 18 23  1  0  0  0  0
 18 19  2  0  0  0  0
 19 20  1  0  0  0  0
 19 46  1  0  0  0  0
 20 21  2  0  0  0  0
 20 47  1  0  0  0  0
 21 22  1  0  0  0  0
 21 48  1  0  0  0  0
 22 23  2  0  0  0  0
 22 49  1  0  0  0  0
 24 25  2  0  0  0  0
M  END
> <s_m_source_file>
AV-unprocessed.smi

> <i_m_source_file_index>
2973

> <i_lp_mmshare_version>
43012

> <i_f3d_flags>
0

> <s_epik_input>
W0NIMl0xW0NIMl1bQ0gyXVtDSDJdW0NAQEhdKFtDSDNdKVtDQF0xMltOSF1DKD1PKU4oQzI9TylbQ0gyXUMoPU8pW05IXVtDSDJdW0NIMl1jM1tjSF1bY0hdW2NIXVtjSF1uMw==

> <s_epik_cmdline>
J2VwaWtfcHl0aG9uJywgJy1waCcsICc3LjAnLCAnLXRuJywgJzgnLCAnLW1hJywgJzIwMCcsICctbWV0YWxfYmluZGluZycsICctaW1hZScsICc8aW5maWxlLm1hZT4nLCAnLW9tYWUnLCAnPG91dGZpbGUubWFlPic=

> <r_lp_tautomer_probability>
1

> <r_epik_Ionization_Penalty>
0.0245152

> <r_epik_Ionization_Penalty_Charging>
0

> <r_epik_Ionization_Penalty_Neutral>
0.0245152

> <r_epik_State_Penalty>
0.0198648

> <r_epik_Charging_Adjusted_Penalty>
0.0198648

> <i_epik_Tot_Q>
0

> <i_epik_Tot_abs_Q>
0

> <r_epik_Metal_State_Penalty>
0.0400162

> <b_epik_Metal_Only>
0

> <s_lp_Force_Field>
OPLS_2005

> <r_lp_Energy>
16.1581

> <b_lp_Chiralities_Consistent>
1

> <s_lp_Variant>
AV-unprocessed.smi:2973-1

> <Gold.Version>
5.8.1

> <Gold.Id.Protein>
6NUR|6NUR_protein|mol2

> <Gold.PLP.Fitness>
43.5694

> <Gold.PLP.PLP>
-44.1713

> <Gold.PLP.part.hbond>
-0.9766

> <Gold.PLP.part.metal>
0.0000

> <Gold.PLP.part.buried>
-4.4464

> <Gold.PLP.part.nonpolar>
-39.0814

> <Gold.PLP.part.repulsive>
0.1827

> <Gold.PLP.ligand.clash>
0.0000

> <Gold.PLP.ligand.torsion>
0.3322

> <Gold.PLP.Chemscore.Hbond>
0.0000

> <Gold.PLP.Chemscore.CHOScore>
0.0000

> <Gold.PLP.Chemscore.Metal>
0.0000

> <Gold.PLP.Chemscore.Internal.Correction>
0.0626

> <Gold.Rescore>
     Score         DG    S(hbond)    S(metal)    S(lipo)     H(rot)  DE(clash)    DE(int)     intcor
     14.41     -16.18       0.00        0.00     132.08       1.86       1.46       0.31       ----

> <Gold.Chemscore.Fitness>
14.4125

> <Gold.Chemscore.DG>
-16.1840

> <Gold.Chemscore.ZeroCoef>
-5.4800

> <Gold.Chemscore.Hbond>
0.0000

> <Gold.Chemscore.Metal>
0.0000

> <Gold.Chemscore.Lipo>
132.0830

> <Gold.Chemscore.Internal_Hbond>
0.0000

> <Gold.Chemscore.DEClash>
1.4597

> <Gold.Chemscore.DEInternal>
0.3118

> <Gold.Chemscore.Rot>
1.8553

> <Gold.Chemscore.Internal.Correction>
   9.000000E+99

> <Gold.Chemscore.Hbond.Weighted>
-0.0000

> <Gold.Chemscore.Metal.Weighted>
-0.0000

> <Gold.Chemscore.Lipo.Weighted>
-15.4537

> <Gold.Chemscore.Internal_Hbond.Weighted>
0.0000

> <Gold.Chemscore.DEClash.Weighted>
1.4597

> <Gold.Chemscore.DEInternal.Weighted>
0.3118

> <Gold.Chemscore.Rot.Weighted>
4.7497

> <Gold.Chemscore.Internal.Correction.Weighted>
   9.000000E+99

> <Gold.Protein.RotatedTorsions>
[ 6907 6896 6895 6894 ] final -154.87 input  -60.11 | X-H torsion
[ 7974 7965 7964 7962 ] final  -64.70 input  175.53 | X-H torsion
[ 8008 7997 7996 7995 ] final  -56.91 input   59.86 | X-H torsion
[ 10167 10162 10161 10158 ] final  -48.24 input  -65.29 | X-H torsion
[ 10718 10713 10712 10709 ] final  151.28 input   66.30 | X-H torsion
[ 10763 10752 10751 10750 ] final -161.48 input  -60.55 | X-H torsion
[ 11005 11000 10999 10996 ] final  132.63 input  -57.11 | X-H torsion

> <Gold.Protein.ActiveResidues>
 VAL166  LYS551  ARG553  GLY616  TRP617  ASP618  TYR619  PRO620  LYS621  CYS622 
 ASP623  PHE694  ASN695  SER759  ASP760  ASP761  ALA762  ILE779  LEU786  VAL792 
 PHE793  MET794  SER795  GLU796  ALA797  LYS798  CYS799  TRP800  GLU811  SER814 

> <Gold.Protein.RotatedAtoms>
  151.2639  133.4288  159.2617 H   0  0  0  0  0  0  0  0  0  0  0  0  # atno 6907 bound_to 6896
  151.0505  134.9670  159.8219 H   0  0  0  0  0  0  0  0  0  0  0  0  # atno 6908 bound_to 6896
  152.5382  134.2594  159.8982 H   0  0  0  0  0  0  0  0  0  0  0  0  # atno 6909 bound_to 6896
  145.7634  140.8850  143.0418 H   0  0  0  0  0  0  0  0  0  0  0  0  # atno 7974 bound_to 7965
  154.4247  140.1119  156.5712 H   0  0  0  0  0  0  0  0  0  0  0  0  # atno 8008 bound_to 7997
  155.6210  140.3495  155.4633 H   0  0  0  0  0  0  0  0  0  0  0  0  # atno 8009 bound_to 7997
  156.0024  140.1202  157.0524 H   0  0  0  0  0  0  0  0  0  0  0  0  # atno 8010 bound_to 7997
  140.6740  143.2748  151.4043 H   0  0  0  0  0  0  0  0  0  0  0  0  # atno 10167 bound_to 10162
  157.2727  131.0820  151.1588 H   0  0  0  0  0  0  0  0  0  0  0  0  # atno 10718 bound_to 10713
  154.7300  135.3044  154.8907 H   0  0  0  0  0  0  0  0  0  0  0  0  # atno 10763 bound_to 10752
  153.9753  135.6737  153.4752 H   0  0  0  0  0  0  0  0  0  0  0  0  # atno 10764 bound_to 10752
  153.0910  135.4959  154.8609 H   0  0  0  0  0  0  0  0  0  0  0  0  # atno 10765 bound_to 10752
  139.9802  134.9550  156.9609 H   0  0  0  0  0  0  0  0  0  0  0  0  # atno 11005 bound_to 11000
  144.6826  139.9755  143.7483 LP  0  0  0  0  0  0  0  0  0  0  0  0  # atno 17320 bound_to 7965
  146.0241  139.3277  143.0795 LP  0  0  0  0  0  0  0  0  0  0  0  0  # atno 17321 bound_to 7965
  139.6022  144.1272  152.2210 LP  0  0  0  0  0  0  0  0  0  0  0  0  # atno 17342 bound_to 10162
  140.0660  144.5818  150.7227 LP  0  0  0  0  0  0  0  0  0  0  0  0  # atno 17343 bound_to 10162
  157.3053  130.6863  149.6186 LP  0  0  0  0  0  0  0  0  0  0  0  0  # atno 17370 bound_to 10713
  155.9663  130.4380  150.5198 LP  0  0  0  0  0  0  0  0  0  0  0  0  # atno 17371 bound_to 10713
  140.5112  134.1000  155.7271 LP  0  0  0  0  0  0  0  0  0  0  0  0  # atno 17394 bound_to 11000
  141.1475  133.9029  157.2180 LP  0  0  0  0  0  0  0  0  0  0  0  0  # atno 17395 bound_to 11000

$$$$
