AV-unprocessed.smi:2100|AV-procd|sdf|8575|dock4
  -GOLD-   2272011303D 1   1.00000     0.00000
 Structure written by MMmdl.
 41 42  0  0  0  0  0  0  0  0  1 V2000
  146.6205  138.4696  152.5974 C   0  0  0  0  0  0  0  0  0  0  0  0
  147.0653  139.5319  153.6086 C   0  0  1  0  0  0  0  0  0  0  0  0
  148.5033  139.2916  154.0995 C   0  0  0  0  0  0  0  0  0  0  0  0
  148.9538  140.3924  154.9624 N   0  0  0  0  0  0  0  0  0  0  0  0
  150.3932  140.1254  155.8881 S   0  0  0  0  0  0  0  0  0  0  0  0
  150.0691  139.2479  157.0236 O   0  0  0  0  0  0  0  0  0  0  0  0
  151.4834  139.7990  154.9566 O   0  0  0  0  0  0  0  0  0  0  0  0
  150.6473  141.7195  156.4946 N   0  0  0  0  0  0  0  0  0  0  0  0
  150.6972  141.9485  157.9396 C   0  0  0  0  0  0  0  0  0  0  0  0
  152.0147  141.4290  158.5391 C   0  0  0  0  0  0  0  0  0  0  0  0
  152.3288  142.0086  159.9093 C   0  0  0  0  0  0  0  0  0  0  0  0
  153.3427  141.4420  160.7112 C   0  0  0  0  0  0  0  0  0  0  0  0
  153.6013  142.0138  161.9721 C   0  0  0  0  0  0  0  0  0  0  0  0
  152.8355  143.1212  162.3843 C   0  0  0  0  0  0  0  0  0  0  0  0
  151.8453  143.6132  161.5112 C   0  0  0  0  0  0  0  0  0  0  0  0
  151.5936  143.0757  160.2983 N   0  0  0  0  0  0  0  0  0  0  0  0
  148.7747  141.7185  154.3460 C   0  0  0  0  0  0  0  0  0  0  0  0
  147.3449  141.9028  153.8030 C   0  0  2  0  0  0  0  0  0  0  0  0
  146.3074  142.1757  154.9054 C   0  0  0  0  0  0  0  0  0  0  0  0
  146.9754  140.8029  152.9756 O   0  0  0  0  0  0  0  0  0  0  0  0
  146.6576  137.4716  153.0347 H   0  0  0  0  0  0  0  0  0  0  0  0
  147.2597  138.4728  151.7141 H   0  0  0  0  0  0  0  0  0  0  0  0
  145.5968  138.6500  152.2683 H   0  0  0  0  0  0  0  0  0  0  0  0
  146.3807  139.4930  154.4559 H   0  0  0  0  0  0  0  0  0  0  0  0
  148.5507  138.3509  154.6484 H   0  0  0  0  0  0  0  0  0  0  0  0
  149.1885  139.2044  153.2551 H   0  0  0  0  0  0  0  0  0  0  0  0
  150.1186  142.4273  155.9842 H   0  0  0  0  0  0  0  0  0  0  0  0
  150.5826  143.0122  158.1505 H   0  0  0  0  0  0  0  0  0  0  0  0
  149.8502  141.4383  158.3988 H   0  0  0  0  0  0  0  0  0  0  0  0
  151.9646  140.3429  158.6239 H   0  0  0  0  0  0  0  0  0  0  0  0
  152.8440  141.6375  157.8614 H   0  0  0  0  0  0  0  0  0  0  0  0
  153.9104  140.5885  160.3709 H   0  0  0  0  0  0  0  0  0  0  0  0
  154.3694  141.6071  162.6130 H   0  0  0  0  0  0  0  0  0  0  0  0
  153.0034  143.5829  163.3460 H   0  0  0  0  0  0  0  0  0  0  0  0
  151.2393  144.4612  161.7942 H   0  0  0  0  0  0  0  0  0  0  0  0
  149.0069  142.5059  155.0622 H   0  0  0  0  0  0  0  0  0  0  0  0
  149.4920  141.8177  153.5304 H   0  0  0  0  0  0  0  0  0  0  0  0
  147.3485  142.7785  153.1535 H   0  0  0  0  0  0  0  0  0  0  0  0
  146.5274  143.1150  155.4104 H   0  0  0  0  0  0  0  0  0  0  0  0
  146.2956  141.3959  155.6663 H   0  0  0  0  0  0  0  0  0  0  0  0
  145.3043  142.2549  154.4867 H   0  0  0  0  0  0  0  0  0  0  0  0
  1  2  1  0  0  0  0
  1 21  1  0  0  0  0
  1 22  1  0  0  0  0
  1 23  1  0  0  0  0
  2 20  1  0  0  0  0
  2  3  1  0  0  0  0
  2 24  1  0  0  0  0
  3  4  1  0  0  0  0
  3 25  1  0  0  0  0
  3 26  1  0  0  0  0
  4  5  1  0  0  0  0
  4 17  1  0  0  0  0
  5  6  2  0  0  0  0
  5  7  2  0  0  0  0
  5  8  1  0  0  0  0
  8  9  1  0  0  0  0
  8 27  1  0  0  0  0
  9 10  1  0  0  0  0
  9 28  1  0  0  0  0
  9 29  1  0  0  0  0
 10 11  1  0  0  0  0
 10 30  1  0  0  0  0
 10 31  1  0  0  0  0
 11 16  1  0  0  0  0
 11 12  2  0  0  0  0
 12 13  1  0  0  0  0
 12 32  1  0  0  0  0
 13 14  2  0  0  0  0
 13 33  1  0  0  0  0
 14 15  1  0  0  0  0
 14 34  1  0  0  0  0
 15 16  2  0  0  0  0
 15 35  1  0  0  0  0
 17 18  1  0  0  0  0
 17 36  1  0  0  0  0
 17 37  1  0  0  0  0
 18 19  1  0  0  0  0
 18 20  1  0  0  0  0
 18 38  1  0  0  0  0
 19 39  1  0  0  0  0
 19 40  1  0  0  0  0
 19 41  1  0  0  0  0
M  END
> <s_m_source_file>
AV-unprocessed.smi

> <i_m_source_file_index>
2100

> <i_lp_mmshare_version>
43012

> <i_f3d_flags>
0

> <s_epik_input>
W0NIM11bQ0BASF0xW0NIMl1OKFtDSDJdW0NASF0oTzEpW0NIM10pUyg9TykoPU8pW05IXVtDSDJdW0NIMl1jMltjSF1bY0hdW2NIXVtjSF1uMg==

> <s_epik_cmdline>
J2VwaWtfcHl0aG9uJywgJy1waCcsICc3LjAnLCAnLXRuJywgJzgnLCAnLW1hJywgJzIwMCcsICctbWV0YWxfYmluZGluZycsICctaW1hZScsICc8aW5maWxlLm1hZT4nLCAnLW9tYWUnLCAnPG91dGZpbGUubWFlPic=

> <r_epik_Ionization_Penalty>
0.085378

> <r_epik_Ionization_Penalty_Charging>
0

> <r_epik_Ionization_Penalty_Neutral>
0.085378

> <r_epik_State_Penalty>
0.0441186

> <r_epik_Charging_Adjusted_Penalty>
0.0441186

> <i_epik_Tot_Q>
0

> <i_epik_Tot_abs_Q>
0

> <r_epik_Metal_State_Penalty>
0.24397

> <b_epik_Metal_Only>
0

> <s_lp_Force_Field>
OPLS_2005

> <r_lp_Energy>
8.75792

> <b_lp_Chiralities_Consistent>
1

> <s_lp_Variant>
AV-unprocessed.smi:2100-3

> <Gold.Version>
5.8.1

> <Gold.Id.Protein>
6NUR|6NUR_protein|mol2

> <Gold.PLP.Fitness>
43.9655

> <Gold.PLP.PLP>
-42.1956

> <Gold.PLP.part.hbond>
-1.0864

> <Gold.PLP.part.metal>
0.0000

> <Gold.PLP.part.buried>
-5.1535

> <Gold.PLP.part.nonpolar>
-35.5343

> <Gold.PLP.part.repulsive>
0.3706

> <Gold.PLP.ligand.clash>
0.0000

> <Gold.PLP.ligand.torsion>
0.9815

> <Gold.PLP.Chemscore.Hbond>
1.0000

> <Gold.PLP.Chemscore.CHOScore>
0.0000

> <Gold.PLP.Chemscore.Metal>
0.0000

> <Gold.Chemscore.Hbonds>
donor molecule, donor type, donor heavy atom, donor atom, acceptor molecule, acceptor atom, score
      P1  H  7989  7998       L1     7  1.00

> <Gold.PLP.Chemscore.Internal.Correction>
0.7330

> <Gold.Rescore>
     Score         DG    S(hbond)    S(metal)    S(lipo)     H(rot)  DE(clash)    DE(int)     intcor
     16.00     -16.95       0.97        0.00     107.70       1.71       0.09       0.86       ----

> <Gold.Chemscore.Fitness>
16.0008

> <Gold.Chemscore.DG>
-16.9498

> <Gold.Chemscore.ZeroCoef>
-5.4800

> <Gold.Chemscore.Hbond>
0.9691

> <Gold.Chemscore.Metal>
0.0000

> <Gold.Chemscore.Lipo>
107.6961

> <Gold.Chemscore.Internal_Hbond>
0.0000

> <Gold.Chemscore.DEClash>
0.0892

> <Gold.Chemscore.DEInternal>
0.8598

> <Gold.Chemscore.Rot>
1.7060

> <Gold.Chemscore.Internal.Correction>
   9.000000E+99

> <Gold.Chemscore.Hbonds>
donor molecule, donor type, donor heavy atom, donor atom, acceptor molecule, acceptor atom, score
      P1  H  7989  7998       L1     7  0.94

> <Gold.Chemscore.Hbond.Weighted>
-3.2367

> <Gold.Chemscore.Metal.Weighted>
-0.0000

> <Gold.Chemscore.Lipo.Weighted>
-12.6004

> <Gold.Chemscore.Internal_Hbond.Weighted>
0.0000

> <Gold.Chemscore.DEClash.Weighted>
0.0892

> <Gold.Chemscore.DEInternal.Weighted>
0.8598

> <Gold.Chemscore.Rot.Weighted>
4.3674

> <Gold.Chemscore.Internal.Correction.Weighted>
   9.000000E+99

> <Gold.Protein.RotatedTorsions>
[ 6907 6896 6895 6894 ] final  -44.98 input  -60.11 | X-H torsion
[ 7974 7965 7964 7962 ] final   43.49 input  175.53 | X-H torsion
[ 8008 7997 7996 7995 ] final  149.03 input   59.86 | X-H torsion
[ 10167 10162 10161 10158 ] final -177.31 input  -65.29 | X-H torsion
[ 10718 10713 10712 10709 ] final   60.28 input   66.30 | X-H torsion
[ 10763 10752 10751 10750 ] final   53.70 input  -60.55 | X-H torsion
[ 11005 11000 10999 10996 ] final  -99.76 input  -57.11 | X-H torsion

> <Gold.Protein.ActiveResidues>
 VAL166  LYS551  ARG553  GLY616  TRP617  ASP618  TYR619  PRO620  LYS621  CYS622 
 ASP623  PHE694  ASN695  SER759  ASP760  ASP761  ALA762  ILE779  LEU786  VAL792 
 PHE793  MET794  SER795  GLU796  ALA797  LYS798  CYS799  TRP800  GLU811  SER814 

> <Gold.Protein.RotatedAtoms>
  150.9269  134.8685  159.7525 H   0  0  0  0  0  0  0  0  0  0  0  0  # atno 6907 bound_to 6896
  152.5019  134.4136  159.9467 H   0  0  0  0  0  0  0  0  0  0  0  0  # atno 6908 bound_to 6896
  151.4166  133.3671  159.2786 H   0  0  0  0  0  0  0  0  0  0  0  0  # atno 6909 bound_to 6896
  146.0651  139.5181  142.9633 H   0  0  0  0  0  0  0  0  0  0  0  0  # atno 7974 bound_to 7965
  156.2770  140.2113  156.5793 H   0  0  0  0  0  0  0  0  0  0  0  0  # atno 8008 bound_to 7997
  154.7072  140.0515  157.0538 H   0  0  0  0  0  0  0  0  0  0  0  0  # atno 8009 bound_to 7997
  155.0655  140.3171  155.4650 H   0  0  0  0  0  0  0  0  0  0  0  0  # atno 8010 bound_to 7997
  139.5487  144.2168  152.1036 H   0  0  0  0  0  0  0  0  0  0  0  0  # atno 10167 bound_to 10162
  157.5741  130.8930  149.9316 H   0  0  0  0  0  0  0  0  0  0  0  0  # atno 10718 bound_to 10713
  152.9797  135.5770  154.4784 H   0  0  0  0  0  0  0  0  0  0  0  0  # atno 10763 bound_to 10752
  154.4336  135.2774  155.1897 H   0  0  0  0  0  0  0  0  0  0  0  0  # atno 10764 bound_to 10752
  154.3595  135.6191  153.5737 H   0  0  0  0  0  0  0  0  0  0  0  0  # atno 10765 bound_to 10752
  141.1296  133.8346  157.1014 H   0  0  0  0  0  0  0  0  0  0  0  0  # atno 11005 bound_to 11000
  145.6491  141.0267  143.1770 LP  0  0  0  0  0  0  0  0  0  0  0  0  # atno 17320 bound_to 7965
  144.7197  139.8071  143.7386 LP  0  0  0  0  0  0  0  0  0  0  0  0  # atno 17321 bound_to 7965
  140.1659  144.4982  150.6606 LP  0  0  0  0  0  0  0  0  0  0  0  0  # atno 17342 bound_to 10162
  140.6743  143.2298  151.5548 LP  0  0  0  0  0  0  0  0  0  0  0  0  # atno 17343 bound_to 10162
  156.0785  130.3676  150.0627 LP  0  0  0  0  0  0  0  0  0  0  0  0  # atno 17370 bound_to 10713
  156.8776  130.9545  151.3603 LP  0  0  0  0  0  0  0  0  0  0  0  0  # atno 17371 bound_to 10713
  140.0331  134.9891  157.0819 LP  0  0  0  0  0  0  0  0  0  0  0  0  # atno 17394 bound_to 11000
  140.4253  134.1837  155.7166 LP  0  0  0  0  0  0  0  0  0  0  0  0  # atno 17395 bound_to 11000

$$$$
