AV-unprocessed.smi:1844|AV-procd|sdf|7509|dock1
  -GOLD-   22720 9213D 1   1.00000     0.00000
 Structure written by MMmdl.
 45 46  0  0  0  0  0  0  0  0  1 V2000
  143.5879  132.5912  149.4990 C   0  0  0  0  0  0  0  0  0  0  0  0
  144.6144  132.2440  150.4701 N   0  0  0  0  0  0  0  0  0  0  0  0
  145.4268  133.1305  151.0688 C   0  0  0  0  0  0  0  0  0  0  0  0
  145.3567  134.3370  150.8285 O   0  0  0  0  0  0  0  0  0  0  0  0
  146.3760  132.5251  152.0060 C   0  0  0  0  0  0  0  0  0  0  0  0
  146.2354  131.1706  152.5189 C   0  0  0  0  0  0  0  0  0  0  0  0
  147.1556  130.6565  153.3584 C   0  0  0  0  0  0  0  0  0  0  0  0
  148.3256  131.4274  153.7876 C   0  0  0  0  0  0  0  0  0  0  0  0
  149.1839  130.9523  154.5311 O   0  0  0  0  0  0  0  0  0  0  0  0
  148.4090  132.7020  153.2985 N   0  0  0  0  0  0  0  0  0  0  0  0
  149.5591  133.5656  153.6269 C   0  0  0  0  0  0  0  0  0  0  0  0
  149.3438  134.4644  154.8573 C   0  0  0  0  0  0  0  0  0  0  0  0
  149.2284  133.9495  155.9686 O   0  0  0  0  0  0  0  0  0  0  0  0
  149.2951  135.7916  154.6577 N   0  0  0  0  0  0  0  0  0  0  0  0
  149.1156  136.8231  155.6753 C   0  0  1  0  0  0  0  0  0  0  0  0
  150.4485  137.5515  155.9525 C   0  0  0  0  0  0  0  0  0  0  0  0
  150.9028  138.4009  154.7524 C   0  0  0  0  0  0  0  0  0  0  0  0
  149.8095  139.3945  154.3316 C   0  0  0  0  0  0  0  0  0  0  0  0
  148.4813  138.6778  154.0394 C   0  0  0  0  0  0  0  0  0  0  0  0
  148.0173  137.8254  155.2402 C   0  0  1  0  0  0  0  0  0  0  0  0
  146.6674  137.1436  154.9552 C   0  0  0  0  0  0  0  0  0  0  0  0
  147.4462  133.2325  152.4176 C   0  0  0  0  0  0  0  0  0  0  0  0
  143.0660  131.6914  149.1731 H   0  0  0  0  0  0  0  0  0  0  0  0
  144.0281  133.0669  148.6216 H   0  0  0  0  0  0  0  0  0  0  0  0
  142.8554  133.2718  149.9343 H   0  0  0  0  0  0  0  0  0  0  0  0
  144.7162  131.2672  150.7036 H   0  0  0  0  0  0  0  0  0  0  0  0
  145.3961  130.5493  152.2429 H   0  0  0  0  0  0  0  0  0  0  0  0
  147.0296  129.6486  153.7258 H   0  0  0  0  0  0  0  0  0  0  0  0
  150.4444  132.9537  153.8061 H   0  0  0  0  0  0  0  0  0  0  0  0
  149.8218  134.1970  152.7766 H   0  0  0  0  0  0  0  0  0  0  0  0
  149.3973  136.1198  153.7083 H   0  0  0  0  0  0  0  0  0  0  0  0
  148.7875  136.3401  156.5975 H   0  0  0  0  0  0  0  0  0  0  0  0
  150.3277  138.1988  156.8220 H   0  0  0  0  0  0  0  0  0  0  0  0
  151.2269  136.8351  156.2174 H   0  0  0  0  0  0  0  0  0  0  0  0
  151.8163  138.9400  155.0051 H   0  0  0  0  0  0  0  0  0  0  0  0
  151.1525  137.7517  153.9119 H   0  0  0  0  0  0  0  0  0  0  0  0
  149.6605  140.1289  155.1241 H   0  0  0  0  0  0  0  0  0  0  0  0
  150.1330  139.9513  153.4516 H   0  0  0  0  0  0  0  0  0  0  0  0
  147.7185  139.4167  153.7920 H   0  0  0  0  0  0  0  0  0  0  0  0
  148.5943  138.0486  153.1553 H   0  0  0  0  0  0  0  0  0  0  0  0
  147.8551  138.5059  156.0774 H   0  0  0  0  0  0  0  0  0  0  0  0
  146.7212  136.4820  154.0897 H   0  0  0  0  0  0  0  0  0  0  0  0
  145.8923  137.8832  154.7536 H   0  0  0  0  0  0  0  0  0  0  0  0
  146.3405  136.5499  155.8093 H   0  0  0  0  0  0  0  0  0  0  0  0
  147.6533  134.2424  152.0909 H   0  0  0  0  0  0  0  0  0  0  0  0
  1  2  1  0  0  0  0
  1 23  1  0  0  0  0
  1 24  1  0  0  0  0
  1 25  1  0  0  0  0
  2  3  1  0  0  0  0
  2 26  1  0  0  0  0
  3  4  2  0  0  0  0
  3  5  1  0  0  0  0
  5 22  2  0  0  0  0
  5  6  1  0  0  0  0
  6  7  2  0  0  0  0
  6 27  1  0  0  0  0
  7  8  1  0  0  0  0
  7 28  1  0  0  0  0
  8  9  2  0  0  0  0
  8 10  1  0  0  0  0
 10 11  1  0  0  0  0
 10 22  1  0  0  0  0
 11 12  1  0  0  0  0
 11 29  1  0  0  0  0
 11 30  1  0  0  0  0
 12 13  2  0  0  0  0
 12 14  1  0  0  0  0
 14 15  1  0  0  0  0
 14 31  1  0  0  0  0
 15 20  1  0  0  0  0
 15 16  1  0  0  0  0
 15 32  1  0  0  0  0
 16 17  1  0  0  0  0
 16 33  1  0  0  0  0
 16 34  1  0  0  0  0
 17 18  1  0  0  0  0
 17 35  1  0  0  0  0
 17 36  1  0  0  0  0
 18 19  1  0  0  0  0
 18 37  1  0  0  0  0
 18 38  1  0  0  0  0
 19 20  1  0  0  0  0
 19 39  1  0  0  0  0
 19 40  1  0  0  0  0
 20 21  1  0  0  0  0
 20 41  1  0  0  0  0
 21 42  1  0  0  0  0
 21 43  1  0  0  0  0
 21 44  1  0  0  0  0
 22 45  1  0  0  0  0
M  END
> <s_m_source_file>
AV-unprocessed.smi

> <i_m_source_file_index>
1844

> <i_lp_mmshare_version>
43012

> <i_f3d_flags>
0

> <s_epik_input>
W0NIM11bTkhdQyg9TyljMVtjSF1bY0hdYyg9TyluKFtjSF0xKVtDSDJdQyg9TylbTkhdW0NAQEhdMltDSDJdW0NIMl1bQ0gyXVtDSDJdW0NASF0yW0NIM10=

> <s_epik_cmdline>
J2VwaWtfcHl0aG9uJywgJy1waCcsICc3LjAnLCAnLXRuJywgJzgnLCAnLW1hJywgJzIwMCcsICctbWV0YWxfYmluZGluZycsICctaW1hZScsICc8aW5maWxlLm1hZT4nLCAnLW9tYWUnLCAnPG91dGZpbGUubWFlPic=

> <r_lp_tautomer_probability>
1

> <r_epik_Ionization_Penalty>
3.66612e-07

> <r_epik_Ionization_Penalty_Charging>
5.18929e-08

> <r_epik_Ionization_Penalty_Neutral>
3.14719e-07

> <r_epik_State_Penalty>
-0

> <r_epik_Charging_Adjusted_Penalty>
5.18929e-08

> <i_epik_Tot_Q>
0

> <i_epik_Tot_abs_Q>
0

> <r_epik_Metal_State_Penalty>
-0

> <b_epik_Metal_Only>
0

> <s_lp_Force_Field>
OPLS_2005

> <r_lp_Energy>
21.2081

> <b_lp_Chiralities_Consistent>
1

> <s_lp_Variant>
AV-unprocessed.smi:1844-2

> <Gold.Version>
5.8.1

> <Gold.Id.Protein>
6NUR|6NUR_protein|mol2

> <Gold.PLP.Fitness>
38.5850

> <Gold.PLP.PLP>
-33.9719

> <Gold.PLP.part.hbond>
-1.0000

> <Gold.PLP.part.metal>
0.0000

> <Gold.PLP.part.buried>
-5.7230

> <Gold.PLP.part.nonpolar>
-28.3892

> <Gold.PLP.part.repulsive>
0.9628

> <Gold.PLP.ligand.clash>
0.0000

> <Gold.PLP.ligand.torsion>
0.6760

> <Gold.PLP.Chemscore.Hbond>
1.0000

> <Gold.PLP.Chemscore.CHOScore>
0.9766

> <Gold.PLP.Chemscore.Metal>
0.0000

> <Gold.Chemscore.Hbonds>
donor molecule, donor type, donor heavy atom, donor atom, acceptor molecule, acceptor atom, score
      L1  H    14    31       P1  7948  1.00
      L1  C    22    45       P1  7948  1.00

> <Gold.PLP.Chemscore.Internal.Correction>
0.0354

> <Gold.Rescore>
     Score         DG    S(hbond)    S(metal)    S(lipo)     H(rot)  DE(clash)    DE(int)     intcor
     11.81     -12.41       0.85        0.00      67.61       1.49       0.14       0.45       ----

> <Gold.Chemscore.Fitness>
11.8143

> <Gold.Chemscore.DG>
-12.4074

> <Gold.Chemscore.ZeroCoef>
-5.4800

> <Gold.Chemscore.Hbond>
0.8497

> <Gold.Chemscore.Metal>
0.0000

> <Gold.Chemscore.Lipo>
67.6054

> <Gold.Chemscore.Internal_Hbond>
0.0000

> <Gold.Chemscore.DEClash>
0.1391

> <Gold.Chemscore.DEInternal>
0.4539

> <Gold.Chemscore.Rot>
1.4923

> <Gold.Chemscore.Internal.Correction>
   9.000000E+99

> <Gold.Chemscore.Hbonds>
donor molecule, donor type, donor heavy atom, donor atom, acceptor molecule, acceptor atom, score
      L1  H    14    31       P1  7948  0.69

> <Gold.Chemscore.Hbond.Weighted>
-2.8379

> <Gold.Chemscore.Metal.Weighted>
-0.0000

> <Gold.Chemscore.Lipo.Weighted>
-7.9098

> <Gold.Chemscore.Internal_Hbond.Weighted>
0.0000

> <Gold.Chemscore.DEClash.Weighted>
0.1391

> <Gold.Chemscore.DEInternal.Weighted>
0.4539

> <Gold.Chemscore.Rot.Weighted>
3.8204

> <Gold.Chemscore.Internal.Correction.Weighted>
   9.000000E+99

> <Gold.Protein.RotatedTorsions>
[ 6907 6896 6895 6894 ] final   20.51 input  -60.11 | X-H torsion
[ 7974 7965 7964 7962 ] final   -1.77 input  175.53 | X-H torsion
[ 8008 7997 7996 7995 ] final -144.06 input   59.86 | X-H torsion
[ 10167 10162 10161 10158 ] final -137.28 input  -65.29 | X-H torsion
[ 10718 10713 10712 10709 ] final  136.17 input   66.30 | X-H torsion
[ 10763 10752 10751 10750 ] final  -29.82 input  -60.55 | X-H torsion
[ 11005 11000 10999 10996 ] final   40.38 input  -57.11 | X-H torsion

> <Gold.Protein.ActiveResidues>
 VAL166  LYS551  ARG553  GLY616  TRP617  ASP618  TYR619  PRO620  LYS621  CYS622 
 ASP623  PHE694  ASN695  SER759  ASP760  ASP761  ALA762  ILE779  LEU786  VAL792 
 PHE793  MET794  SER795  GLU796  ALA797  LYS798  CYS799  TRP800  GLU811  SER814 

> <Gold.Protein.RotatedAtoms>
  151.8976  135.0391  160.0503 H   0  0  0  0  0  0  0  0  0  0  0  0  # atno 6907 bound_to 6896
  152.2385  133.5111  159.5265 H   0  0  0  0  0  0  0  0  0  0  0  0  # atno 6908 bound_to 6896
  150.7046  134.1037  159.4018 H   0  0  0  0  0  0  0  0  0  0  0  0  # atno 6909 bound_to 6896
  146.2413  140.1470  142.8334 H   0  0  0  0  0  0  0  0  0  0  0  0  # atno 7974 bound_to 7965
  155.5207  140.0591  157.2907 H   0  0  0  0  0  0  0  0  0  0  0  0  # atno 8008 bound_to 7997
  154.4518  140.1953  156.0442 H   0  0  0  0  0  0  0  0  0  0  0  0  # atno 8009 bound_to 7997
  156.0720  140.3258  155.7592 H   0  0  0  0  0  0  0  0  0  0  0  0  # atno 8010 bound_to 7997
  139.8593  143.7097  152.2651 H   0  0  0  0  0  0  0  0  0  0  0  0  # atno 10167 bound_to 10162
  157.4495  131.1065  151.0050 H   0  0  0  0  0  0  0  0  0  0  0  0  # atno 10718 bound_to 10713
  153.7709  135.6912  153.4907 H   0  0  0  0  0  0  0  0  0  0  0  0  # atno 10763 bound_to 10752
  153.1875  135.4483  155.0106 H   0  0  0  0  0  0  0  0  0  0  0  0  # atno 10764 bound_to 10752
  154.8118  135.3381  154.7218 H   0  0  0  0  0  0  0  0  0  0  0  0  # atno 10765 bound_to 10752
  140.1936  134.3956  155.8133 H   0  0  0  0  0  0  0  0  0  0  0  0  # atno 11005 bound_to 11000
  145.0199  140.8785  143.5173 LP  0  0  0  0  0  0  0  0  0  0  0  0  # atno 17320 bound_to 7965
  145.1517  139.2510  143.5437 LP  0  0  0  0  0  0  0  0  0  0  0  0  # atno 17321 bound_to 7965
  139.7389  144.7564  151.0684 LP  0  0  0  0  0  0  0  0  0  0  0  0  # atno 17342 bound_to 10162
  140.7777  143.4996  150.9788 LP  0  0  0  0  0  0  0  0  0  0  0  0  # atno 17343 bound_to 10162
  157.0885  130.5932  149.5435 LP  0  0  0  0  0  0  0  0  0  0  0  0  # atno 17370 bound_to 10713
  155.9981  130.5054  150.7559 LP  0  0  0  0  0  0  0  0  0  0  0  0  # atno 17371 bound_to 10713
  141.2226  133.7059  156.8138 LP  0  0  0  0  0  0  0  0  0  0  0  0  # atno 17394 bound_to 11000
  140.2132  134.8812  157.3297 LP  0  0  0  0  0  0  0  0  0  0  0  0  # atno 17395 bound_to 11000

$$$$
