AV-unprocessed.smi:967|AV-procd|sdf|4288|dock10
  -GOLD-   22720 2193D 1   1.00000     0.00000
 Structure written by MMmdl.
 42 43  0  0  0  0  0  0  0  0  1 V2000
  145.2754  142.7782  155.2876 C   0  0  0  0  0  0  0  0  0  0  0  0
  145.7898  141.6467  156.0435 N   0  0  0  0  0  0  0  0  0  0  0  0
  146.8212  141.9468  157.0246 C   0  0  0  0  0  0  0  0  0  0  0  0
  146.1105  140.5475  155.2358 C   0  0  0  0  0  0  0  0  0  0  0  0
  147.1855  140.5973  154.3195 C   0  0  0  0  0  0  0  0  0  0  0  0
  147.4623  139.4605  153.5362 C   0  0  0  0  0  0  0  0  0  0  0  0
  146.6604  138.3061  153.6994 C   0  0  0  0  0  0  0  0  0  0  0  0
  146.8269  137.1064  152.9566 N   0  0  0  0  0  0  0  0  0  0  0  0
  145.9599  136.0909  152.8047 C   0  0  0  0  0  0  0  0  0  0  0  0
  144.8249  136.0497  153.2792 O   0  0  0  0  0  0  0  0  0  0  0  0
  146.4843  135.1204  152.0424 N   0  0  0  0  0  0  0  0  0  0  0  0
  145.8175  133.8800  151.6550 C   0  0  2  0  0  0  0  0  0  0  0  0
  146.5720  133.2299  150.4812 C   0  0  0  0  0  0  0  0  0  0  0  0
  145.8639  131.9546  149.9910 C   0  0  0  0  0  0  0  0  0  0  0  0
  144.3878  132.2087  149.6304 C   0  0  2  0  0  0  0  0  0  0  0  0
  144.3036  132.9914  148.4557 O   0  0  0  0  0  0  0  0  0  0  0  0
  143.6353  132.9012  150.7828 C   0  0  0  0  0  0  0  0  0  0  0  0
  144.3546  134.1707  151.2721 C   0  0  0  0  0  0  0  0  0  0  0  0
  145.6029  138.3680  154.6302 C   0  0  0  0  0  0  0  0  0  0  0  0
  145.3327  139.4536  155.3853 N   0  0  0  0  0  0  0  0  0  0  0  0
  144.5131  142.4567  154.5768 H   0  0  0  0  0  0  0  0  0  0  0  0
  146.0739  143.2762  154.7366 H   0  0  0  0  0  0  0  0  0  0  0  0
  144.8215  143.5050  155.9616 H   0  0  0  0  0  0  0  0  0  0  0  0
  147.1397  141.0416  157.5435 H   0  0  0  0  0  0  0  0  0  0  0  0
  146.4393  142.6451  157.7695 H   0  0  0  0  0  0  0  0  0  0  0  0
  147.6932  142.3980  156.5495 H   0  0  0  0  0  0  0  0  0  0  0  0
  147.7863  141.4886  154.2133 H   0  0  0  0  0  0  0  0  0  0  0  0
  148.2691  139.5025  152.8211 H   0  0  0  0  0  0  0  0  0  0  0  0
  147.6869  137.0382  152.4323 H   0  0  0  0  0  0  0  0  0  0  0  0
  147.4226  135.2521  151.6939 H   0  0  0  0  0  0  0  0  0  0  0  0
  145.8187  133.1739  152.4873 H   0  0  0  0  0  0  0  0  0  0  0  0
  146.6560  133.9392  149.6564 H   0  0  0  0  0  0  0  0  0  0  0  0
  147.5919  132.9878  150.7825 H   0  0  0  0  0  0  0  0  0  0  0  0
  146.3961  131.5344  149.1369 H   0  0  0  0  0  0  0  0  0  0  0  0
  145.9114  131.2007  150.7780 H   0  0  0  0  0  0  0  0  0  0  0  0
  143.9046  131.2560  149.4115 H   0  0  0  0  0  0  0  0  0  0  0  0
  145.1135  133.4676  148.3535 H   0  0  0  0  0  0  0  0  0  0  0  0
  142.6158  133.1410  150.4791 H   0  0  0  0  0  0  0  0  0  0  0  0
  143.5469  132.2042  151.6171 H   0  0  0  0  0  0  0  0  0  0  0  0
  143.8210  134.5857  152.1280 H   0  0  0  0  0  0  0  0  0  0  0  0
  144.3206  134.9316  150.4909 H   0  0  0  0  0  0  0  0  0  0  0  0
  144.9543  137.5172  154.7797 H   0  0  0  0  0  0  0  0  0  0  0  0
  1  2  1  0  0  0  0
  1 21  1  0  0  0  0
  1 22  1  0  0  0  0
  1 23  1  0  0  0  0
  2  3  1  0  0  0  0
  2  4  1  0  0  0  0
  3 24  1  0  0  0  0
  3 25  1  0  0  0  0
  3 26  1  0  0  0  0
  4 20  1  0  0  0  0
  4  5  2  0  0  0  0
  5  6  1  0  0  0  0
  5 27  1  0  0  0  0
  6  7  2  0  0  0  0
  6 28  1  0  0  0  0
  7  8  1  0  0  0  0
  7 19  1  0  0  0  0
  8  9  1  0  0  0  0
  8 29  1  0  0  0  0
  9 10  2  0  0  0  0
  9 11  1  0  0  0  0
 11 12  1  0  0  0  0
 11 30  1  0  0  0  0
 12 18  1  0  0  0  0
 12 13  1  0  0  0  0
 12 31  1  0  0  0  0
 13 14  1  0  0  0  0
 13 32  1  0  0  0  0
 13 33  1  0  0  0  0
 14 15  1  0  0  0  0
 14 34  1  0  0  0  0
 14 35  1  0  0  0  0
 15 16  1  0  0  0  0
 15 17  1  0  0  0  0
 15 36  1  0  0  0  0
 16 37  1  0  0  0  0
 17 18  1  0  0  0  0
 17 38  1  0  0  0  0
 17 39  1  0  0  0  0
 18 40  1  0  0  0  0
 18 41  1  0  0  0  0
 19 20  2  0  0  0  0
 19 42  1  0  0  0  0
M  END
> <s_m_source_file>
AV-unprocessed.smi

> <i_m_source_file_index>
967

> <i_lp_mmshare_version>
43012

> <i_f3d_flags>
0

> <s_epik_input>
W0NIM11OKFtDSDNdKWMxW2NIXVtjSF1jKFtjSF1uMSlbTkhdQyg9TylbTkhdW0NAQEhdMltDSDJdW0NIMl1bQ0BASF0oW09IXSlbQ0gyXVtDSDJdMg==

> <s_epik_cmdline>
J2VwaWtfcHl0aG9uJywgJy1waCcsICc3LjAnLCAnLXRuJywgJzgnLCAnLW1hJywgJzIwMCcsICctbWV0YWxfYmluZGluZycsICctaW1hZScsICc8aW5maWxlLm1hZT4nLCAnLW9tYWUnLCAnPG91dGZpbGUubWFlPic=

> <r_lp_tautomer_probability>
1

> <r_epik_Ionization_Penalty>
0.629464

> <r_epik_Ionization_Penalty_Charging>
0

> <r_epik_Ionization_Penalty_Neutral>
0.629464

> <r_epik_State_Penalty>
0.645019

> <r_epik_Charging_Adjusted_Penalty>
0.645019

> <i_epik_Tot_Q>
0

> <i_epik_Tot_abs_Q>
0

> <r_epik_Metal_State_Penalty>
0.308581

> <b_epik_Metal_Only>
0

> <s_lp_Force_Field>
OPLS_2005

> <r_lp_Energy>
18.5045

> <b_lp_Chiralities_Consistent>
1

> <s_lp_Variant>
AV-unprocessed.smi:967-4

> <Gold.Version>
5.8.1

> <Gold.Id.Protein>
6NUR|6NUR_protein|mol2

> <Gold.PLP.Fitness>
38.7025

> <Gold.PLP.PLP>
-30.3872

> <Gold.PLP.part.hbond>
-3.8729

> <Gold.PLP.part.metal>
0.0000

> <Gold.PLP.part.buried>
-4.1961

> <Gold.PLP.part.nonpolar>
-23.1084

> <Gold.PLP.part.repulsive>
0.3324

> <Gold.PLP.ligand.clash>
0.0000

> <Gold.PLP.ligand.torsion>
0.3848

> <Gold.PLP.Chemscore.Hbond>
2.9600

> <Gold.PLP.Chemscore.CHOScore>
0.0000

> <Gold.PLP.Chemscore.Metal>
0.0000

> <Gold.Chemscore.Hbonds>
donor molecule, donor type, donor heavy atom, donor atom, acceptor molecule, acceptor atom, score
      L1  H     8    29       P1  7948  1.00
      L1  H    11    30       P1  7948  0.94
      L1  H    16    37       P1  7921  1.00

> <Gold.PLP.Chemscore.Internal.Correction>
0.2049

> <Gold.Rescore>
     Score         DG    S(hbond)    S(metal)    S(lipo)     H(rot)  DE(clash)    DE(int)     intcor
     15.51     -18.95       2.76        0.00      73.84       1.71       0.06       3.38       ----

> <Gold.Chemscore.Fitness>
15.5116

> <Gold.Chemscore.DG>
-18.9505

> <Gold.Chemscore.ZeroCoef>
-5.4800

> <Gold.Chemscore.Hbond>
2.7560

> <Gold.Chemscore.Metal>
0.0000

> <Gold.Chemscore.Lipo>
73.8360

> <Gold.Chemscore.Internal_Hbond>
0.0000

> <Gold.Chemscore.DEClash>
0.0576

> <Gold.Chemscore.DEInternal>
3.3813

> <Gold.Chemscore.Rot>
1.7084

> <Gold.Chemscore.Internal.Correction>
   9.000000E+99

> <Gold.Chemscore.Hbonds>
donor molecule, donor type, donor heavy atom, donor atom, acceptor molecule, acceptor atom, score
      L1  H     8    29       P1  7948  0.96
      L1  H    11    30       P1  7948  0.84
      L1  H    16    37       P1  7921  0.58

> <Gold.Chemscore.Hbond.Weighted>
-9.2052

> <Gold.Chemscore.Metal.Weighted>
-0.0000

> <Gold.Chemscore.Lipo.Weighted>
-8.6388

> <Gold.Chemscore.Internal_Hbond.Weighted>
0.0000

> <Gold.Chemscore.DEClash.Weighted>
0.0576

> <Gold.Chemscore.DEInternal.Weighted>
3.3813

> <Gold.Chemscore.Rot.Weighted>
4.3735

> <Gold.Chemscore.Internal.Correction.Weighted>
   9.000000E+99

> <Gold.Protein.RotatedTorsions>
[ 6907 6896 6895 6894 ] final  127.89 input  -60.11 | X-H torsion
[ 7974 7965 7964 7962 ] final  -12.18 input  175.53 | X-H torsion
[ 8008 7997 7996 7995 ] final -124.87 input   59.86 | X-H torsion
[ 10167 10162 10161 10158 ] final -119.27 input  -65.29 | X-H torsion
[ 10718 10713 10712 10709 ] final  -56.89 input   66.30 | X-H torsion
[ 10763 10752 10751 10750 ] final  -97.31 input  -60.55 | X-H torsion
[ 11005 11000 10999 10996 ] final  -33.41 input  -57.11 | X-H torsion

> <Gold.Protein.ActiveResidues>
 VAL166  LYS551  ARG553  GLY616  TRP617  ASP618  TYR619  PRO620  LYS621  CYS622 
 ASP623  PHE694  ASN695  SER759  ASP760  ASP761  ALA762  ILE779  LEU786  VAL792 
 PHE793  MET794  SER795  GLU796  ALA797  LYS798  CYS799  TRP800  GLU811  SER814 

> <Gold.Protein.RotatedAtoms>
  152.3770  133.6495  159.6131 H   0  0  0  0  0  0  0  0  0  0  0  0  # atno 6907 bound_to 6896
  150.7711  133.9176  159.3397 H   0  0  0  0  0  0  0  0  0  0  0  0  # atno 6908 bound_to 6896
  151.6989  135.0935  160.0298 H   0  0  0  0  0  0  0  0  0  0  0  0  # atno 6909 bound_to 6896
  146.2161  140.3020  142.8376 H   0  0  0  0  0  0  0  0  0  0  0  0  # atno 7974 bound_to 7965
  155.2039  140.0417  157.2922 H   0  0  0  0  0  0  0  0  0  0  0  0  # atno 8008 bound_to 7997
  154.6056  140.2463  155.7707 H   0  0  0  0  0  0  0  0  0  0  0  0  # atno 8009 bound_to 7997
  156.2348  140.2925  156.0292 H   0  0  0  0  0  0  0  0  0  0  0  0  # atno 8010 bound_to 7997
  140.0484  143.5084  152.2094 H   0  0  0  0  0  0  0  0  0  0  0  0  # atno 10167 bound_to 10162
  156.1253  130.4163  150.0367 H   0  0  0  0  0  0  0  0  0  0  0  0  # atno 10718 bound_to 10713
  154.7317  135.5051  153.8974 H   0  0  0  0  0  0  0  0  0  0  0  0  # atno 10763 bound_to 10752
  153.0956  135.6671  153.9779 H   0  0  0  0  0  0  0  0  0  0  0  0  # atno 10764 bound_to 10752
  153.9578  135.3051  155.3414 H   0  0  0  0  0  0  0  0  0  0  0  0  # atno 10765 bound_to 10752
  140.9632  133.7152  156.1403 H   0  0  0  0  0  0  0  0  0  0  0  0  # atno 11005 bound_to 11000
  144.9050  140.7689  143.5843 LP  0  0  0  0  0  0  0  0  0  0  0  0  # atno 17320 bound_to 7965
  145.2948  139.1871  143.4721 LP  0  0  0  0  0  0  0  0  0  0  0  0  # atno 17321 bound_to 7965
  139.5969  144.7570  151.3266 LP  0  0  0  0  0  0  0  0  0  0  0  0  # atno 17342 bound_to 10162
  140.7228  143.7088  150.7786 LP  0  0  0  0  0  0  0  0  0  0  0  0  # atno 17343 bound_to 10162
  156.8294  130.9387  151.3638 LP  0  0  0  0  0  0  0  0  0  0  0  0  # atno 17370 bound_to 10713
  157.6435  130.8825  149.9493 LP  0  0  0  0  0  0  0  0  0  0  0  0  # atno 17371 bound_to 10713
  140.7437  134.4122  157.5551 LP  0  0  0  0  0  0  0  0  0  0  0  0  # atno 17394 bound_to 11000
  139.8885  134.8854  156.2469 LP  0  0  0  0  0  0  0  0  0  0  0  0  # atno 17395 bound_to 11000

$$$$
