AV-unprocessed.smi:72|AV-procd|sdf|740|dock7
  -GOLD-   2262017 73D 1   1.00000     0.00000
 Structure written by MMmdl.
 28 29  0  0  0  0  0  0  0  0  2 V2000
  152.3393  135.7654  156.6911 N   0  0  0  0  0  0  0  0  0  0  0  0
  151.8450  136.8205  156.2092 C   0  0  0  0  0  0  0  0  0  0  0  0
  150.4138  137.0266  156.2361 N   0  0  0  0  0  0  0  0  0  0  0  0
  149.9536  138.1429  155.7607 C   0  0  0  0  0  0  0  0  0  0  0  0
  150.8352  139.1775  155.2291 N   0  0  0  0  0  0  0  0  0  0  0  0
  150.3141  140.4935  154.6694 C   0  0  1  0  0  0  0  0  0  0  0  0
  149.4302  140.2483  153.6121 O   0  0  0  0  0  0  0  0  0  0  0  0
  148.0864  140.3119  154.0812 C   0  0  2  0  0  0  0  0  0  0  0  0
  147.0961  140.4746  152.9153 C   0  0  0  0  0  0  0  0  0  0  0  0
  147.2507  139.4091  152.0022 O   0  0  0  0  0  0  0  0  0  0  0  0
  148.1522  141.4798  155.0694 C   0  0  2  0  0  0  0  0  0  0  0  0
  148.0710  142.7181  154.3818 O   0  0  0  0  0  0  0  0  0  0  0  0
  149.5097  141.2661  155.7388 C   0  0  2  0  0  0  0  0  0  0  0  0
  150.1180  142.4827  156.1311 O   0  0  0  0  0  0  0  0  0  0  0  0
  152.2327  138.9231  155.1727 C   0  0  0  0  0  0  0  0  0  0  0  0
  152.9592  139.7836  154.6746 O   0  0  0  0  0  0  0  0  0  0  0  0
  152.7079  137.7465  155.6673 N   0  5  0  0  0  0  0  0  0  0  0  0
  151.1955  141.0167  154.2943 H   0  0  0  0  0  0  0  0  0  0  0  0
  147.8525  139.4063  154.6441 H   0  0  0  0  0  0  0  0  0  0  0  0
  147.3389  141.4421  155.7947 H   0  0  0  0  0  0  0  0  0  0  0  0
  149.3772  140.6339  156.6184 H   0  0  0  0  0  0  0  0  0  0  0  0
  151.6394  135.1424  157.0667 H   0  0  0  0  0  0  0  0  0  0  0  0
  148.8872  138.3652  155.7332 H   0  0  0  0  0  0  0  0  0  0  0  0
  146.0710  140.4428  153.2855 H   0  0  0  0  0  0  0  0  0  0  0  0
  147.2309  141.4297  152.4066 H   0  0  0  0  0  0  0  0  0  0  0  0
  148.1105  139.4717  151.6146 H   0  0  0  0  0  0  0  0  0  0  0  0
  148.3099  143.4054  154.9854 H   0  0  0  0  0  0  0  0  0  0  0  0
  149.4939  143.1804  155.9952 H   0  0  0  0  0  0  0  0  0  0  0  0
  1  2  2  0  0  0  0
  1 22  1  0  0  0  0
  2 17  1  0  0  0  0
  2  3  1  0  0  0  0
  3  4  2  0  0  0  0
  4  5  1  0  0  0  0
  4 23  1  0  0  0  0
  5  6  1  0  0  0  0
  5 15  1  0  0  0  0
  6 18  1  0  0  0  0
  6 13  1  0  0  0  0
  6  7  1  0  0  0  0
  7  8  1  0  0  0  0
  8 19  1  0  0  0  0
  8  9  1  0  0  0  0
  8 11  1  0  0  0  0
  9 10  1  0  0  0  0
  9 24  1  0  0  0  0
  9 25  1  0  0  0  0
 10 26  1  0  0  0  0
 11 20  1  0  0  0  0
 11 12  1  0  0  0  0
 11 13  1  0  0  0  0
 12 27  1  0  0  0  0
 13 21  1  0  0  0  0
 13 14  1  0  0  0  0
 14 28  1  0  0  0  0
 15 16  2  0  0  0  0
 15 17  1  0  0  0  0
M  CHG  1  17  -1
M  END
> <s_m_source_file>
AV-unprocessed.smi

> <i_m_source_file_index>
72

> <i_lp_mmshare_version>
43012

> <i_f3d_flags>
0

> <s_epik_input>
W05IMl1jMW5bY0hdbihjKD1PKW4xKVtDQEBIXTJPW0NASF0oW0NIMl1bT0hdKVtDQEBIXShbT0hdKVtDQEhdMltPSF0=

> <s_epik_cmdline>
J2VwaWtfcHl0aG9uJywgJy1waCcsICc3LjAnLCAnLXRuJywgJzgnLCAnLW1hJywgJzIwMCcsICctbWV0YWxfYmluZGluZycsICctaW1hZScsICc8aW5maWxlLm1hZT4nLCAnLW9tYWUnLCAnPG91dGZpbGUubWFlPic=

> <r_lp_tautomer_probability>
7.17554e-07

> <r_epik_Ionization_Penalty>
12.8705

> <r_epik_Ionization_Penalty_Charging>
5.64144

> <r_epik_Ionization_Penalty_Neutral>
7.22905

> <r_epik_State_Penalty>
3.30104

> <r_epik_Charging_Adjusted_Penalty>
8.94249

> <i_epik_Tot_Q>
-1

> <i_epik_Tot_abs_Q>
1

> <r_epik_Metal_State_Penalty>
0.529074

> <b_epik_Metal_Only>
1

> <s_epik_Chemistry_Notes>
This compound contains an acetal/aminal-like group ( X-CH(R)-Y where X, Y are N, S, or O) that may be acid/base labile, releasing an aldehyde.

> <s_lp_Force_Field>
OPLS_2005

> <r_lp_Energy>
36.2844

> <b_lp_Chiralities_Consistent>
1

> <s_lp_Variant>
AV-unprocessed.smi:72-78

> <Gold.Version>
5.8.1

> <Gold.Id.Protein>
6NUR|6NUR_protein|mol2

> <Gold.PLP.Fitness>
38.8418

> <Gold.PLP.PLP>
-23.0140

> <Gold.PLP.part.hbond>
-9.2460

> <Gold.PLP.part.metal>
0.0000

> <Gold.PLP.part.buried>
-1.0898

> <Gold.PLP.part.nonpolar>
-17.7655

> <Gold.PLP.part.repulsive>
4.2114

> <Gold.PLP.ligand.clash>
0.0000

> <Gold.PLP.ligand.torsion>
0.0252

> <Gold.PLP.Chemscore.Hbond>
5.2856

> <Gold.PLP.Chemscore.CHOScore>
0.0000

> <Gold.PLP.Chemscore.Metal>
0.0000

> <Gold.Chemscore.Hbonds>
donor molecule, donor type, donor heavy atom, donor atom, acceptor molecule, acceptor atom, score
      L1  H    10    26       P1  7957  1.00
      L1  H    12    27       P1  8028  1.00
      L1  H    14    28       P1  8028  1.00
      P1  H  7989  7998       L1    16  0.34
      P1  H  7997  8008       L1    16  1.00
      P1  H 10752 10765       L1     1  0.96

> <Gold.PLP.Chemscore.Internal.Correction>
0.0213

> <Gold.Rescore>
     Score         DG    S(hbond)    S(metal)    S(lipo)     H(rot)  DE(clash)    DE(int)     intcor
     10.21     -11.85       4.20        0.00      22.98       4.04       1.62       0.03       ----

> <Gold.Chemscore.Fitness>
10.2071

> <Gold.Chemscore.DG>
-11.8508

> <Gold.Chemscore.ZeroCoef>
-5.4800

> <Gold.Chemscore.Hbond>
4.1991

> <Gold.Chemscore.Metal>
0.0000

> <Gold.Chemscore.Lipo>
22.9815

> <Gold.Chemscore.Internal_Hbond>
0.0000

> <Gold.Chemscore.DEClash>
1.6186

> <Gold.Chemscore.DEInternal>
0.0251

> <Gold.Chemscore.Rot>
4.0403

> <Gold.Chemscore.Internal.Correction>
   9.000000E+99

> <Gold.Chemscore.Hbonds>
donor molecule, donor type, donor heavy atom, donor atom, acceptor molecule, acceptor atom, score
      L1  H    10    26       P1  7957  0.99
      L1  H    12    27       P1  8028  0.93
      L1  H    14    28       P1  8028  1.00
      P1  H  7989  7998       L1    16  0.15
      P1  H  7997  8008       L1    16  0.73
      P1  H 10752 10765       L1     1  0.24

> <Gold.Chemscore.Hbond.Weighted>
-14.0251

> <Gold.Chemscore.Metal.Weighted>
-0.0000

> <Gold.Chemscore.Lipo.Weighted>
-2.6888

> <Gold.Chemscore.Internal_Hbond.Weighted>
0.0000

> <Gold.Chemscore.DEClash.Weighted>
1.6186

> <Gold.Chemscore.DEInternal.Weighted>
0.0251

> <Gold.Chemscore.Rot.Weighted>
10.3431

> <Gold.Chemscore.Internal.Correction.Weighted>
   9.000000E+99

> <Gold.Protein.RotatedTorsions>
[ 6907 6896 6895 6894 ] final   20.81 input  -60.11 | X-H torsion
[ 7974 7965 7964 7962 ] final -130.19 input  175.53 | X-H torsion
[ 8008 7997 7996 7995 ] final  -16.98 input   59.86 | X-H torsion
[ 10167 10162 10161 10158 ] final   20.70 input  -65.29 | X-H torsion
[ 10718 10713 10712 10709 ] final  -91.27 input   66.30 | X-H torsion
[ 10763 10752 10751 10750 ] final -114.15 input  -60.55 | X-H torsion
[ 11005 11000 10999 10996 ] final  -36.50 input  -57.11 | X-H torsion

> <Gold.Protein.ActiveResidues>
 VAL166  LYS551  ARG553  GLY616  TRP617  ASP618  TYR619  PRO620  LYS621  CYS622 
 ASP623  PHE694  ASN695  SER759  ASP760  ASP761  ALA762  ILE779  LEU786  VAL792 
 PHE793  MET794  SER795  GLU796  ALA797  LYS798  CYS799  TRP800  GLU811  SER814 

> <Gold.Protein.RotatedAtoms>
  151.9021  135.0374  160.0506 H   0  0  0  0  0  0  0  0  0  0  0  0  # atno 6907 bound_to 6896
  152.2349  133.5084  159.5245 H   0  0  0  0  0  0  0  0  0  0  0  0  # atno 6908 bound_to 6896
  150.7036  134.1083  159.4033 H   0  0  0  0  0  0  0  0  0  0  0  0  # atno 6909 bound_to 6896
  144.9499  140.7333  143.4794 H   0  0  0  0  0  0  0  0  0  0  0  0  # atno 7974 bound_to 7965
  154.5012  140.2155  155.9342 H   0  0  0  0  0  0  0  0  0  0  0  0  # atno 8008 bound_to 7997
  156.1437  140.3175  155.8503 H   0  0  0  0  0  0  0  0  0  0  0  0  # atno 8009 bound_to 7997
  155.4072  140.0488  157.3024 H   0  0  0  0  0  0  0  0  0  0  0  0  # atno 8010 bound_to 7997
  140.5484  143.9554  150.6562 H   0  0  0  0  0  0  0  0  0  0  0  0  # atno 10167 bound_to 10162
  155.9992  130.4941  150.5449 H   0  0  0  0  0  0  0  0  0  0  0  0  # atno 10718 bound_to 10713
  154.8427  135.4428  154.1460 H   0  0  0  0  0  0  0  0  0  0  0  0  # atno 10763 bound_to 10752
  153.2633  135.6938  153.7562 H   0  0  0  0  0  0  0  0  0  0  0  0  # atno 10764 bound_to 10752
  153.6830  135.3400  155.3158 H   0  0  0  0  0  0  0  0  0  0  0  0  # atno 10765 bound_to 10752
  140.9880  133.7020  156.1799 H   0  0  0  0  0  0  0  0  0  0  0  0  # atno 11005 bound_to 11000
  145.2860  139.1901  143.4765 LP  0  0  0  0  0  0  0  0  0  0  0  0  # atno 17320 bound_to 7965
  146.3317  140.2830  142.8611 LP  0  0  0  0  0  0  0  0  0  0  0  0  # atno 17321 bound_to 7965
  140.2973  143.3284  152.1006 LP  0  0  0  0  0  0  0  0  0  0  0  0  # atno 17342 bound_to 10162
  139.5017  144.6719  151.6223 LP  0  0  0  0  0  0  0  0  0  0  0  0  # atno 17343 bound_to 10162
  157.3380  131.0711  151.1810 LP  0  0  0  0  0  0  0  0  0  0  0  0  # atno 17370 bound_to 10713
  157.2668  130.6685  149.6000 LP  0  0  0  0  0  0  0  0  0  0  0  0  # atno 17371 bound_to 10713
  140.7085  134.4487  157.5583 LP  0  0  0  0  0  0  0  0  0  0  0  0  # atno 17394 bound_to 11000
  139.8979  134.8626  156.2024 LP  0  0  0  0  0  0  0  0  0  0  0  0  # atno 17395 bound_to 11000

$$$$
