AV-unprocessed.smi:1683|AV-procd|sdf|6749|dock3
  -GOLD-   22720 7503D 1   1.00000     0.00000
 Structure written by MMmdl.
 37 38  0  0  0  0  0  0  0  0  2 V2000
  149.8173  135.2316  155.9144 O   0  0  0  0  0  0  0  0  0  0  0  0
  150.1725  135.2236  154.7357 C   0  0  0  0  0  0  0  0  0  0  0  0
  150.0316  134.1626  153.9283 N   0  0  0  0  0  0  0  0  0  0  0  0
  149.4676  132.8768  154.3262 C   0  0  0  0  0  0  0  0  0  0  0  0
  147.9954  132.7239  153.8964 C   0  0  2  0  0  0  0  0  0  0  0  0
  147.5164  131.2754  153.8292 C   0  0  0  0  0  0  0  0  0  0  0  0
  146.3229  131.3088  152.8654 C   0  0  0  0  0  0  0  0  0  0  0  0
  146.3970  132.5964  152.1325 N   0  3  2  0  0  0  0  0  0  0  0  0
  146.1447  132.5155  150.6732 C   0  0  0  0  0  0  0  0  0  0  0  0
  144.7005  132.8940  150.3003 C   0  0  0  0  0  0  0  0  0  0  0  0
  143.8584  132.2113  151.0747 F   0  0  0  0  0  0  0  0  0  0  0  0
  144.4794  134.1956  150.4804 F   0  0  0  0  0  0  0  0  0  0  0  0
  144.4608  132.5799  149.0274 F   0  0  0  0  0  0  0  0  0  0  0  0
  147.6811  133.2321  152.4894 C   0  0  0  0  0  0  0  0  0  0  0  0
  150.7388  136.2573  154.0919 N   0  0  0  0  0  0  0  0  0  0  0  0
  151.0478  137.5357  154.6218 C   0  0  0  0  0  0  0  0  0  0  0  0
  150.4842  138.7585  154.1660 C   0  0  0  0  0  0  0  0  0  0  0  0
  150.9590  139.7927  154.8451 N   0  0  0  0  0  0  0  0  0  0  0  0
  151.8212  139.2423  155.7295 N   0  0  0  0  0  0  0  0  0  0  0  0
  151.9078  137.8712  155.6298 C   0  0  0  0  0  0  0  0  0  0  0  0
  152.3376  139.8092  156.3870 H   0  0  0  0  0  0  0  0  0  0  0  0
  150.3565  134.2437  152.9757 H   0  0  0  0  0  0  0  0  0  0  0  0
  150.0738  132.0905  153.8755 H   0  0  0  0  0  0  0  0  0  0  0  0
  149.5597  132.7541  155.4068 H   0  0  0  0  0  0  0  0  0  0  0  0
  147.3552  133.2549  154.6032 H   0  0  0  0  0  0  0  0  0  0  0  0
  148.3005  130.6411  153.4129 H   0  0  0  0  0  0  0  0  0  0  0  0
  147.2534  130.8755  154.8091 H   0  0  0  0  0  0  0  0  0  0  0  0
  146.3540  130.4481  152.1961 H   0  0  0  0  0  0  0  0  0  0  0  0
  145.3788  131.2710  153.4101 H   0  0  0  0  0  0  0  0  0  0  0  0
  146.8196  133.2104  150.1710 H   0  0  0  0  0  0  0  0  0  0  0  0
  146.3952  131.5204  150.3023 H   0  0  0  0  0  0  0  0  0  0  0  0
  147.6142  134.3196  152.4413 H   0  0  0  0  0  0  0  0  0  0  0  0
  148.4579  132.9092  151.7937 H   0  0  0  0  0  0  0  0  0  0  0  0
  150.9799  136.1150  153.1220 H   0  0  0  0  0  0  0  0  0  0  0  0
  149.7613  138.9265  153.3813 H   0  0  0  0  0  0  0  0  0  0  0  0
  152.5543  137.2852  156.2661 H   0  0  0  0  0  0  0  0  0  0  0  0
  145.6791  133.1887  152.5257 H   0  0  0  0  0  0  0  0  0  0  0  0
  1  2  2  0  0  0  0
  2  3  1  0  0  0  0
  2 15  1  0  0  0  0
  3  4  1  0  0  0  0
  3 22  1  0  0  0  0
  4  5  1  0  0  0  0
  4 23  1  0  0  0  0
  4 24  1  0  0  0  0
  5 14  1  0  0  0  0
  5  6  1  0  0  0  0
  5 25  1  0  0  0  0
  6  7  1  0  0  0  0
  6 26  1  0  0  0  0
  6 27  1  0  0  0  0
  7  8  1  0  0  0  0
  7 28  1  0  0  0  0
  7 29  1  0  0  0  0
  8  9  1  0  0  0  0
  8 14  1  0  0  0  0
  8 37  1  0  0  0  0
  9 10  1  0  0  0  0
  9 30  1  0  0  0  0
  9 31  1  0  0  0  0
 10 11  1  0  0  0  0
 10 12  1  0  0  0  0
 10 13  1  0  0  0  0
 14 32  1  0  0  0  0
 14 33  1  0  0  0  0
 15 16  1  0  0  0  0
 15 34  1  0  0  0  0
 16 20  2  0  0  0  0
 16 17  1  0  0  0  0
 17 18  2  0  0  0  0
 17 35  1  0  0  0  0
 18 19  1  0  0  0  0
 19 21  1  0  0  0  0
 19 20  1  0  0  0  0
 20 36  1  0  0  0  0
M  CHG  1   8   1
M  END
> <s_m_source_file>
AV-unprocessed.smi

> <i_m_source_file_index>
1683

> <i_lp_mmshare_version>
43012

> <i_f3d_flags>
0

> <s_epik_input>
W2NIXTFbbkhdbltjSF1jMVtOSF1DKD1PKVtOSF1bQ0gyXVtDQEBIXTJbQ0gyXVtDSDJdTihbQ0gyXTIpW0NIMl1DKEYpKEYpRg==

> <s_epik_cmdline>
J2VwaWtfcHl0aG9uJywgJy1waCcsICc3LjAnLCAnLXRuJywgJzgnLCAnLW1hJywgJzIwMCcsICctbWV0YWxfYmluZGluZycsICctaW1hZScsICc8aW5maWxlLm1hZT4nLCAnLW9tYWUnLCAnPG91dGZpbGUubWFlPic=

> <r_lp_tautomer_probability>
0.5

> <r_epik_Ionization_Penalty>
0.641865

> <r_epik_Ionization_Penalty_Charging>
0.64182

> <r_epik_Ionization_Penalty_Neutral>
4.50685e-05

> <r_epik_State_Penalty>
0.65957

> <r_epik_Charging_Adjusted_Penalty>
1.30139

> <i_epik_Tot_Q>
1

> <i_epik_Tot_abs_Q>
1

> <r_epik_Metal_State_Penalty>
0.659571

> <b_epik_Metal_Only>
0

> <s_lp_Force_Field>
OPLS_2005

> <r_lp_Energy>
30.3314

> <b_lp_Chiralities_Consistent>
1

> <s_lp_Variant>
AV-unprocessed.smi:1683-3

> <Gold.Version>
5.8.1

> <Gold.Id.Protein>
6NUR|6NUR_protein|mol2

> <Gold.PLP.Fitness>
41.9468

> <Gold.PLP.PLP>
-35.8691

> <Gold.PLP.part.hbond>
-4.4791

> <Gold.PLP.part.metal>
0.0000

> <Gold.PLP.part.buried>
-0.5098

> <Gold.PLP.part.nonpolar>
-30.6248

> <Gold.PLP.part.repulsive>
0.4129

> <Gold.PLP.ligand.clash>
0.0000

> <Gold.PLP.ligand.torsion>
1.5626

> <Gold.PLP.Chemscore.Hbond>
1.9000

> <Gold.PLP.Chemscore.CHOScore>
1.0000

> <Gold.PLP.Chemscore.Metal>
0.0000

> <Gold.Chemscore.Hbonds>
donor molecule, donor type, donor heavy atom, donor atom, acceptor molecule, acceptor atom, score
      L1  H    15    34       P1  7949  0.85
      P1  H  7989  7998       L1    18  1.00
      L1  C    17    35       P1  7957  1.00

> <Gold.PLP.Chemscore.Internal.Correction>
0.5029

> <Gold.Rescore>
     Score         DG    S(hbond)    S(metal)    S(lipo)     H(rot)  DE(clash)    DE(int)     intcor
     10.40     -12.53       1.26        0.00      64.04       1.81       0.54       1.58       ----

> <Gold.Chemscore.Fitness>
10.4044

> <Gold.Chemscore.DG>
-12.5339

> <Gold.Chemscore.ZeroCoef>
-5.4800

> <Gold.Chemscore.Hbond>
1.2572

> <Gold.Chemscore.Metal>
0.0000

> <Gold.Chemscore.Lipo>
64.0409

> <Gold.Chemscore.Internal_Hbond>
0.0000

> <Gold.Chemscore.DEClash>
0.5447

> <Gold.Chemscore.DEInternal>
1.5848

> <Gold.Chemscore.Rot>
1.8116

> <Gold.Chemscore.Internal.Correction>
   9.000000E+99

> <Gold.Chemscore.Hbonds>
donor molecule, donor type, donor heavy atom, donor atom, acceptor molecule, acceptor atom, score
      L1  H    15    34       P1  7949  0.15
      P1  H  7989  7998       L1    18  0.34

> <Gold.Chemscore.Hbond.Weighted>
-4.1989

> <Gold.Chemscore.Metal.Weighted>
-0.0000

> <Gold.Chemscore.Lipo.Weighted>
-7.4928

> <Gold.Chemscore.Internal_Hbond.Weighted>
0.0000

> <Gold.Chemscore.DEClash.Weighted>
0.5447

> <Gold.Chemscore.DEInternal.Weighted>
1.5848

> <Gold.Chemscore.Rot.Weighted>
4.6378

> <Gold.Chemscore.Internal.Correction.Weighted>
   9.000000E+99

> <Gold.Protein.RotatedTorsions>
[ 6907 6896 6895 6894 ] final  108.94 input  -60.11 | X-H torsion
[ 7974 7965 7964 7962 ] final  161.06 input  175.53 | X-H torsion
[ 8008 7997 7996 7995 ] final    4.32 input   59.86 | X-H torsion
[ 10167 10162 10161 10158 ] final  -59.11 input  -65.29 | X-H torsion
[ 10718 10713 10712 10709 ] final -159.33 input   66.30 | X-H torsion
[ 10763 10752 10751 10750 ] final -170.06 input  -60.55 | X-H torsion
[ 11005 11000 10999 10996 ] final -144.33 input  -57.11 | X-H torsion

> <Gold.Protein.ActiveResidues>
 VAL166  LYS551  ARG553  GLY616  TRP617  ASP618  TYR619  PRO620  LYS621  CYS622 
 ASP623  PHE694  ASN695  SER759  ASP760  ASP761  ALA762  ILE779  LEU786  VAL792 
 PHE793  MET794  SER795  GLU796  ALA797  LYS798  CYS799  TRP800  GLU811  SER814 

> <Gold.Protein.RotatedAtoms>
  152.5090  133.9016  159.7443 H   0  0  0  0  0  0  0  0  0  0  0  0  # atno 6907 bound_to 6896
  150.9431  133.6625  159.2793 H   0  0  0  0  0  0  0  0  0  0  0  0  # atno 6908 bound_to 6896
  151.3930  135.0964  159.9585 H   0  0  0  0  0  0  0  0  0  0  0  0  # atno 6909 bound_to 6896
  144.7705  139.7845  143.6299 H   0  0  0  0  0  0  0  0  0  0  0  0  # atno 7974 bound_to 7965
  154.7145  140.2699  155.6598 H   0  0  0  0  0  0  0  0  0  0  0  0  # atno 8008 bound_to 7997
  156.2805  140.2746  156.1722 H   0  0  0  0  0  0  0  0  0  0  0  0  # atno 8009 bound_to 7997
  155.0589  140.0371  157.2560 H   0  0  0  0  0  0  0  0  0  0  0  0  # atno 8010 bound_to 7997
  140.6156  143.2401  151.5606 H   0  0  0  0  0  0  0  0  0  0  0  0  # atno 10167 bound_to 10162
  156.5666  130.8670  151.2825 H   0  0  0  0  0  0  0  0  0  0  0  0  # atno 10718 bound_to 10713
  154.6455  135.2904  155.0051 H   0  0  0  0  0  0  0  0  0  0  0  0  # atno 10763 bound_to 10752
  154.1162  135.6555  153.4898 H   0  0  0  0  0  0  0  0  0  0  0  0  # atno 10764 bound_to 10752
  153.0349  135.5277  154.7341 H   0  0  0  0  0  0  0  0  0  0  0  0  # atno 10765 bound_to 10752
  140.8035  134.2829  157.4969 H   0  0  0  0  0  0  0  0  0  0  0  0  # atno 11005 bound_to 11000
  146.1847  139.5056  142.9844 LP  0  0  0  0  0  0  0  0  0  0  0  0  # atno 17320 bound_to 7965
  145.6340  141.0298  143.1848 LP  0  0  0  0  0  0  0  0  0  0  0  0  # atno 17321 bound_to 7965
  139.5396  144.2685  152.1322 LP  0  0  0  0  0  0  0  0  0  0  0  0  # atno 17342 bound_to 10162
  140.1894  144.4767  150.6487 LP  0  0  0  0  0  0  0  0  0  0  0  0  # atno 17343 bound_to 10162
  157.7357  130.9767  150.2096 LP  0  0  0  0  0  0  0  0  0  0  0  0  # atno 17370 bound_to 10713
  156.2751  130.3726  149.7991 LP  0  0  0  0  0  0  0  0  0  0  0  0  # atno 17371 bound_to 10713
  139.8719  134.9443  156.3877 LP  0  0  0  0  0  0  0  0  0  0  0  0  # atno 17394 bound_to 11000
  140.9271  133.7605  155.9978 LP  0  0  0  0  0  0  0  0  0  0  0  0  # atno 17395 bound_to 11000

$$$$
