AV-unprocessed.smi:248|AV-procd|sdf|1896|dock2
  -GOLD-   2262020563D 1   1.00000     0.00000
 Structure written by MMmdl.
 62 65  0  0  0  0  0  0  0  0  1 V2000
  152.5579  142.5971  159.1675 C   0  0  0  0  0  0  0  0  0  0  0  0
  151.8742  141.5813  158.2402 C   0  0  0  0  0  0  0  0  0  0  0  0
  150.4059  141.9768  158.0070 C   0  0  0  0  0  0  0  0  0  0  0  0
  152.0511  140.1450  158.7887 C   0  0  0  0  0  0  0  0  0  0  0  0
  151.4924  139.1105  157.9053 N   0  0  0  0  0  0  0  0  0  0  0  0
  150.5640  138.1866  158.5677 C   0  0  0  0  0  0  0  0  0  0  0  0
  150.4183  136.8601  157.8172 C   0  0  0  0  0  0  0  0  0  0  0  0
  150.1371  137.1297  156.4157 N   0  0  0  0  0  0  0  0  0  0  0  0
  149.7080  136.0281  155.7587 C   0  0  0  0  0  0  0  0  0  0  0  0
  150.5628  134.9971  155.5297 N   0  0  0  0  0  0  0  0  0  0  0  0
  150.1312  133.9056  154.8909 C   0  0  0  0  0  0  0  0  0  0  0  0
  148.9137  133.6474  154.4079 N   0  0  0  0  0  0  0  0  0  0  0  0
  148.0571  134.6849  154.6330 C   0  0  0  0  0  0  0  0  0  0  0  0
  148.3707  135.9003  155.3023 C   0  0  0  0  0  0  0  0  0  0  0  0
  147.2510  136.7184  155.3602 N   0  0  0  0  0  0  0  0  0  0  0  0
  146.3235  136.0231  154.7602 C   0  0  0  0  0  0  0  0  0  0  0  0
  146.7234  134.7964  154.2757 N   0  0  0  0  0  0  0  0  0  0  0  0
  145.8928  133.8231  153.5777 C   0  0  0  0  0  0  0  0  0  0  0  0
  146.2619  133.5804  152.0791 C   0  0  0  0  0  0  0  0  0  0  0  0
  147.7201  133.0462  152.0025 C   0  0  0  0  0  0  0  0  0  0  0  0
  147.8772  131.7516  152.5496 O   0  0  0  0  0  0  0  0  0  0  0  0
  145.2970  132.5706  151.4050 C   0  0  0  0  0  0  0  0  0  0  0  0
  143.8809  133.1448  151.2123 C   0  0  0  0  0  0  0  0  0  0  0  0
  143.9435  134.3505  150.4608 O   0  0  0  0  0  0  0  0  0  0  0  0
  144.6846  135.3722  151.1158 C   0  0  0  0  0  0  0  0  0  0  0  0
  146.1446  134.9219  151.3086 C   0  0  0  0  0  0  0  0  0  0  0  0
  151.1230  137.9546  155.7037 C   0  0  1  0  0  0  0  0  0  0  0  0
  150.5082  138.5207  154.4037 C   0  0  0  0  0  0  0  0  0  0  0  0
  151.7392  139.0805  156.5708 C   0  0  0  0  0  0  0  0  0  0  0  0
  152.4719  139.9051  156.0219 O   0  0  0  0  0  0  0  0  0  0  0  0
  152.0997  142.6008  160.1568 H   0  0  0  0  0  0  0  0  0  0  0  0
  152.4883  143.6082  158.7651 H   0  0  0  0  0  0  0  0  0  0  0  0
  153.6164  142.3671  159.2918 H   0  0  0  0  0  0  0  0  0  0  0  0
  152.3816  141.6374  157.2764 H   0  0  0  0  0  0  0  0  0  0  0  0
  149.8211  141.8852  158.9227 H   0  0  0  0  0  0  0  0  0  0  0  0
  149.9381  141.3534  157.2453 H   0  0  0  0  0  0  0  0  0  0  0  0
  150.3278  143.0091  157.6652 H   0  0  0  0  0  0  0  0  0  0  0  0
  153.1139  139.9418  158.9298 H   0  0  0  0  0  0  0  0  0  0  0  0
  151.6205  140.0756  159.7892 H   0  0  0  0  0  0  0  0  0  0  0  0
  150.8862  137.9891  159.5907 H   0  0  0  0  0  0  0  0  0  0  0  0
  149.5918  138.6768  158.6361 H   0  0  0  0  0  0  0  0  0  0  0  0
  151.3389  136.2796  157.9029 H   0  0  0  0  0  0  0  0  0  0  0  0
  149.6200  136.2669  158.2668 H   0  0  0  0  0  0  0  0  0  0  0  0
  150.8658  133.1268  154.7467 H   0  0  0  0  0  0  0  0  0  0  0  0
  145.3146  136.3926  154.6476 H   0  0  0  0  0  0  0  0  0  0  0  0
  145.9221  132.8977  154.1511 H   0  0  0  0  0  0  0  0  0  0  0  0
  144.8604  134.1694  153.6457 H   0  0  0  0  0  0  0  0  0  0  0  0
  148.0596  133.0173  150.9664 H   0  0  0  0  0  0  0  0  0  0  0  0
  148.4024  133.7030  152.5420 H   0  0  0  0  0  0  0  0  0  0  0  0
  148.3521  131.2186  151.9305 H   0  0  0  0  0  0  0  0  0  0  0  0
  145.6750  132.3010  150.4183 H   0  0  0  0  0  0  0  0  0  0  0  0
  145.2537  131.6365  151.9641 H   0  0  0  0  0  0  0  0  0  0  0  0
  143.2628  132.4298  150.6696 H   0  0  0  0  0  0  0  0  0  0  0  0
  143.3828  133.3246  152.1648 H   0  0  0  0  0  0  0  0  0  0  0  0
  144.6550  136.2702  150.4984 H   0  0  0  0  0  0  0  0  0  0  0  0
  144.2118  135.6339  152.0627 H   0  0  0  0  0  0  0  0  0  0  0  0
  146.7121  135.7037  151.8144 H   0  0  0  0  0  0  0  0  0  0  0  0
  146.5851  134.8286  150.3159 H   0  0  0  0  0  0  0  0  0  0  0  0
  151.9645  137.3172  155.4273 H   0  0  0  0  0  0  0  0  0  0  0  0
  151.2158  139.1470  153.8595 H   0  0  0  0  0  0  0  0  0  0  0  0
  149.6255  139.1251  154.6162 H   0  0  0  0  0  0  0  0  0  0  0  0
  150.2084  137.7266  153.7196 H   0  0  0  0  0  0  0  0  0  0  0  0
  1  2  1  0  0  0  0
  1 31  1  0  0  0  0
  1 32  1  0  0  0  0
  1 33  1  0  0  0  0
  2  3  1  0  0  0  0
  2  4  1  0  0  0  0
  2 34  1  0  0  0  0
  3 35  1  0  0  0  0
  3 36  1  0  0  0  0
  3 37  1  0  0  0  0
  4  5  1  0  0  0  0
  4 38  1  0  0  0  0
  4 39  1  0  0  0  0
  5 29  1  0  0  0  0
  5  6  1  0  0  0  0
  6  7  1  0  0  0  0
  6 40  1  0  0  0  0
  6 41  1  0  0  0  0
  7  8  1  0  0  0  0
  7 42  1  0  0  0  0
  7 43  1  0  0  0  0
  8  9  1  0  0  0  0
  8 27  1  0  0  0  0
  9 14  1  0  0  0  0
  9 10  2  0  0  0  0
 10 11  1  0  0  0  0
 11 12  2  0  0  0  0
 11 44  1  0  0  0  0
 12 13  1  0  0  0  0
 13 17  1  0  0  0  0
 13 14  2  0  0  0  0
 14 15  1  0  0  0  0
 15 16  2  0  0  0  0
 16 17  1  0  0  0  0
 16 45  1  0  0  0  0
 17 18  1  0  0  0  0
 18 19  1  0  0  0  0
 18 46  1  0  0  0  0
 18 47  1  0  0  0  0
 19 26  1  0  0  0  0
 19 20  1  0  0  0  0
 19 22  1  0  0  0  0
 20 21  1  0  0  0  0
 20 48  1  0  0  0  0
 20 49  1  0  0  0  0
 21 50  1  0  0  0  0
 22 23  1  0  0  0  0
 22 51  1  0  0  0  0
 22 52  1  0  0  0  0
 23 24  1  0  0  0  0
 23 53  1  0  0  0  0
 23 54  1  0  0  0  0
 24 25  1  0  0  0  0
 25 26  1  0  0  0  0
 25 55  1  0  0  0  0
 25 56  1  0  0  0  0
 26 57  1  0  0  0  0
 26 58  1  0  0  0  0
 27 28  1  0  0  0  0
 27 29  1  0  0  0  0
 27 59  1  0  0  0  0
 28 60  1  0  0  0  0
 28 61  1  0  0  0  0
 28 62  1  0  0  0  0
 29 30  2  0  0  0  0
M  END
> <s_m_source_file>
AV-unprocessed.smi

> <i_m_source_file_index>
248

> <i_lp_mmshare_version>
43012

> <i_f3d_flags>
0

> <s_epik_input>
W0NIM11bQ0hdKFtDSDNdKVtDSDJdTjFbQ0gyXVtDSDJdTihbQ0BASF0oW0NIM10pQzE9TyljKG5bY0hdbjIpYyhjMjMpbltjSF1uM1tDSDJdQzQoW0NIMl1bT0hdKVtDSDJdW0NIMl1PW0NIMl1bQ0gyXTQ=

> <s_epik_cmdline>
J2VwaWtfcHl0aG9uJywgJy1waCcsICc3LjAnLCAnLXRuJywgJzgnLCAnLW1hJywgJzIwMCcsICctbWV0YWxfYmluZGluZycsICctaW1hZScsICc8aW5maWxlLm1hZT4nLCAnLW9tYWUnLCAnPG91dGZpbGUubWFlPic=

> <r_lp_tautomer_probability>
1

> <r_epik_Ionization_Penalty>
0.000593973

> <r_epik_Ionization_Penalty_Charging>
0

> <r_epik_Ionization_Penalty_Neutral>
0.000593973

> <r_epik_State_Penalty>
0.000283267

> <r_epik_Charging_Adjusted_Penalty>
0.000283267

> <i_epik_Tot_Q>
0

> <i_epik_Tot_abs_Q>
0

> <r_epik_Metal_State_Penalty>
-0

> <b_epik_Metal_Only>
0

> <s_lp_Force_Field>
OPLS_2005

> <r_lp_Energy>
46.1111

> <b_lp_Chiralities_Consistent>
1

> <s_lp_Variant>
AV-unprocessed.smi:248-1

> <Gold.Version>
5.8.1

> <Gold.Id.Protein>
6NUR|6NUR_protein|mol2

> <Gold.PLP.Fitness>
45.4674

> <Gold.PLP.PLP>
-39.6757

> <Gold.PLP.part.hbond>
-2.0000

> <Gold.PLP.part.metal>
0.0000

> <Gold.PLP.part.buried>
-5.6676

> <Gold.PLP.part.nonpolar>
-32.2102

> <Gold.PLP.part.repulsive>
0.5267

> <Gold.PLP.ligand.clash>
0.0000

> <Gold.PLP.ligand.torsion>
0.3221

> <Gold.PLP.Chemscore.Hbond>
2.0000

> <Gold.PLP.Chemscore.CHOScore>
0.0000

> <Gold.PLP.Chemscore.Metal>
0.0000

> <Gold.Chemscore.Hbonds>
donor molecule, donor type, donor heavy atom, donor atom, acceptor molecule, acceptor atom, score
      L1  H    21    50       P1 10747  1.00
      P1  H  7997  8008       L1    30  1.00

> <Gold.PLP.Chemscore.Internal.Correction>
0.4359

> <Gold.Rescore>
     Score         DG    S(hbond)    S(metal)    S(lipo)     H(rot)  DE(clash)    DE(int)     intcor
     11.94     -15.36       1.99        0.00      87.75       2.75       0.42       3.00       ----

> <Gold.Chemscore.Fitness>
11.9354

> <Gold.Chemscore.DG>
-15.3583

> <Gold.Chemscore.ZeroCoef>
-5.4800

> <Gold.Chemscore.Hbond>
1.9932

> <Gold.Chemscore.Metal>
0.0000

> <Gold.Chemscore.Lipo>
87.7508

> <Gold.Chemscore.Internal_Hbond>
0.0000

> <Gold.Chemscore.DEClash>
0.4245

> <Gold.Chemscore.DEInternal>
2.9985

> <Gold.Chemscore.Rot>
2.7523

> <Gold.Chemscore.Internal.Correction>
   9.000000E+99

> <Gold.Chemscore.Hbonds>
donor molecule, donor type, donor heavy atom, donor atom, acceptor molecule, acceptor atom, score
      L1  H    21    50       P1 10747  0.97
      P1  H  7997  8008       L1    30  0.99

> <Gold.Chemscore.Hbond.Weighted>
-6.6574

> <Gold.Chemscore.Metal.Weighted>
-0.0000

> <Gold.Chemscore.Lipo.Weighted>
-10.2668

> <Gold.Chemscore.Internal_Hbond.Weighted>
0.0000

> <Gold.Chemscore.DEClash.Weighted>
0.4245

> <Gold.Chemscore.DEInternal.Weighted>
2.9985

> <Gold.Chemscore.Rot.Weighted>
7.0459

> <Gold.Chemscore.Internal.Correction.Weighted>
   9.000000E+99

> <Gold.Protein.RotatedTorsions>
[ 6907 6896 6895 6894 ] final -179.39 input  -60.11 | X-H torsion
[ 7974 7965 7964 7962 ] final -108.95 input  175.53 | X-H torsion
[ 8008 7997 7996 7995 ] final  -44.76 input   59.86 | X-H torsion
[ 10167 10162 10161 10158 ] final -147.69 input  -65.29 | X-H torsion
[ 10718 10713 10712 10709 ] final   89.66 input   66.30 | X-H torsion
[ 10763 10752 10751 10750 ] final  -53.52 input  -60.55 | X-H torsion
[ 11005 11000 10999 10996 ] final  146.25 input  -57.11 | X-H torsion

> <Gold.Protein.ActiveResidues>
 VAL166  LYS551  ARG553  GLY616  TRP617  ASP618  TYR619  PRO620  LYS621  CYS622 
 ASP623  PHE694  ASN695  SER759  ASP760  ASP761  ALA762  ILE779  LEU786  VAL792 
 PHE793  MET794  SER795  GLU796  ALA797  LYS798  CYS799  TRP800  GLU811  SER814 

> <Gold.Protein.RotatedAtoms>
  151.6526  133.3320  159.3155 H   0  0  0  0  0  0  0  0  0  0  0  0  # atno 6907 bound_to 6896
  150.7953  134.7011  159.6560 H   0  0  0  0  0  0  0  0  0  0  0  0  # atno 6908 bound_to 6896
  152.4039  134.6244  160.0111 H   0  0  0  0  0  0  0  0  0  0  0  0  # atno 6909 bound_to 6896
  145.1865  140.8995  143.3449 H   0  0  0  0  0  0  0  0  0  0  0  0  # atno 7974 bound_to 7965
  154.3998  140.1414  156.3735 H   0  0  0  0  0  0  0  0  0  0  0  0  # atno 8008 bound_to 7997
  155.8070  140.3474  155.5415 H   0  0  0  0  0  0  0  0  0  0  0  0  # atno 8009 bound_to 7997
  155.8425  140.0929  157.1716 H   0  0  0  0  0  0  0  0  0  0  0  0  # atno 8010 bound_to 7997
  139.7599  143.8392  152.2605 H   0  0  0  0  0  0  0  0  0  0  0  0  # atno 10167 bound_to 10162
  157.6956  131.0341  150.3459 H   0  0  0  0  0  0  0  0  0  0  0  0  # atno 10718 bound_to 10713
  154.1601  135.6476  153.4984 H   0  0  0  0  0  0  0  0  0  0  0  0  # atno 10763 bound_to 10752
  153.0113  135.5359  154.6719 H   0  0  0  0  0  0  0  0  0  0  0  0  # atno 10764 bound_to 10752
  154.6030  135.2946  155.0486 H   0  0  0  0  0  0  0  0  0  0  0  0  # atno 10765 bound_to 10752
  140.0778  134.9115  157.1450 H   0  0  0  0  0  0  0  0  0  0  0  0  # atno 11005 bound_to 11000
  145.0084  139.3533  143.6132 LP  0  0  0  0  0  0  0  0  0  0  0  0  # atno 17320 bound_to 7965
  146.3444  139.9336  142.8750 LP  0  0  0  0  0  0  0  0  0  0  0  0  # atno 17321 bound_to 7965
  139.8395  144.7216  150.9349 LP  0  0  0  0  0  0  0  0  0  0  0  0  # atno 17342 bound_to 10162
  140.7806  143.3996  151.1171 LP  0  0  0  0  0  0  0  0  0  0  0  0  # atno 17343 bound_to 10162
  156.3914  130.3898  149.7027 LP  0  0  0  0  0  0  0  0  0  0  0  0  # atno 17370 bound_to 10713
  156.4376  130.7845  151.2866 LP  0  0  0  0  0  0  0  0  0  0  0  0  # atno 17371 bound_to 10713
  140.3533  134.2575  155.7196 LP  0  0  0  0  0  0  0  0  0  0  0  0  # atno 17394 bound_to 11000
  141.2035  133.7909  157.0333 LP  0  0  0  0  0  0  0  0  0  0  0  0  # atno 17395 bound_to 11000

$$$$
