AV-unprocessed.smi:213|AV-procd|sdf|1633|dock2
  -GOLD-   2262019593D 1   1.00000     0.00000
 Structure written by MMmdl.
 59 62  0  0  0  0  0  0  0  0  2 V2000
  147.2409  133.5674  155.4220 C   0  0  0  0  0  0  0  0  0  0  0  0
  148.2909  134.1859  154.4846 C   0  0  2  0  0  0  0  0  0  0  0  0
  148.9146  133.1149  153.5557 C   0  0  0  0  0  0  0  0  0  0  0  0
  147.9101  132.4224  152.7085 N   0  3  0  0  0  0  0  0  0  0  0  0
  147.2095  131.3257  153.4139 C   0  0  0  0  0  0  0  0  0  0  0  0
  146.2669  130.5931  152.4443 C   0  0  0  0  0  0  0  0  0  0  0  0
  145.3443  131.5190  151.8829 O   0  0  0  0  0  0  0  0  0  0  0  0
  145.9978  132.5398  151.1379 C   0  0  0  0  0  0  0  0  0  0  0  0
  146.9330  133.3344  152.0644 C   0  0  0  0  0  0  0  0  0  0  0  0
  149.3018  134.9476  155.2356 N   0  0  0  0  0  0  0  0  0  0  0  0
  150.6341  134.3752  155.4293 C   0  0  0  0  0  0  0  0  0  0  0  0
  149.2285  136.3018  155.1376 C   0  0  0  0  0  0  0  0  0  0  0  0
  148.0208  136.8895  154.9184 N   0  0  0  0  0  0  0  0  0  0  0  0
  147.9114  138.2203  154.8831 C   0  0  0  0  0  0  0  0  0  0  0  0
  148.8639  139.1383  155.0507 N   0  0  0  0  0  0  0  0  0  0  0  0
  150.0804  138.5579  155.2556 C   0  0  0  0  0  0  0  0  0  0  0  0
  150.3512  137.1614  155.3074 C   0  0  0  0  0  0  0  0  0  0  0  0
  151.7076  136.9532  155.5294 N   0  0  0  0  0  0  0  0  0  0  0  0
  152.2077  138.1556  155.6145 C   0  0  0  0  0  0  0  0  0  0  0  0
  151.2975  139.1779  155.4743 N   0  0  0  0  0  0  0  0  0  0  0  0
  151.5749  140.6026  155.5427 C   0  0  0  0  0  0  0  0  0  0  0  0
  150.5749  141.3569  156.4463 C   0  0  2  0  0  0  0  0  0  0  0  0
  149.5650  141.9133  155.6253 O   0  0  0  0  0  0  0  0  0  0  0  0
  151.2256  142.5076  157.2401 C   0  0  2  0  0  0  0  0  0  0  0  0
  152.2789  142.0724  158.2598 C   0  0  0  0  0  0  0  0  0  0  0  0
  152.3174  143.2349  159.2355 C   0  0  0  0  0  0  0  0  0  0  0  0
  150.9534  143.9053  159.0544 C   0  0  0  0  0  0  0  0  0  0  0  0
  150.2656  143.1143  158.0931 O   0  0  0  0  0  0  0  0  0  0  0  0
  146.4304  133.1154  154.8496 H   0  0  0  0  0  0  0  0  0  0  0  0
  146.7995  134.3251  156.0701 H   0  0  0  0  0  0  0  0  0  0  0  0
  147.6636  132.7872  156.0549 H   0  0  0  0  0  0  0  0  0  0  0  0
  147.7322  134.8726  153.8524 H   0  0  0  0  0  0  0  0  0  0  0  0
  149.6534  133.5979  152.9147 H   0  0  0  0  0  0  0  0  0  0  0  0
  149.4626  132.3742  154.1401 H   0  0  0  0  0  0  0  0  0  0  0  0
  147.9367  130.6207  153.8184 H   0  0  0  0  0  0  0  0  0  0  0  0
  146.6471  131.7300  154.2569 H   0  0  0  0  0  0  0  0  0  0  0  0
  146.8320  130.0995  151.6516 H   0  0  0  0  0  0  0  0  0  0  0  0
  145.7125  129.8168  152.9719 H   0  0  0  0  0  0  0  0  0  0  0  0
  146.5521  132.1030  150.3060 H   0  0  0  0  0  0  0  0  0  0  0  0
  145.2462  133.2003  150.7056 H   0  0  0  0  0  0  0  0  0  0  0  0
  146.3519  133.8506  152.8300 H   0  0  0  0  0  0  0  0  0  0  0  0
  147.4457  134.0997  151.4832 H   0  0  0  0  0  0  0  0  0  0  0  0
  151.2020  134.9521  156.1604 H   0  0  0  0  0  0  0  0  0  0  0  0
  151.1941  134.3626  154.4938 H   0  0  0  0  0  0  0  0  0  0  0  0
  150.5746  133.3542  155.8040 H   0  0  0  0  0  0  0  0  0  0  0  0
  146.9177  138.6046  154.7059 H   0  0  0  0  0  0  0  0  0  0  0  0
  153.2590  138.3316  155.7919 H   0  0  0  0  0  0  0  0  0  0  0  0
  152.5941  140.7259  155.9099 H   0  0  0  0  0  0  0  0  0  0  0  0
  151.5570  141.0138  154.5325 H   0  0  0  0  0  0  0  0  0  0  0  0
  150.1134  140.6498  157.1370 H   0  0  0  0  0  0  0  0  0  0  0  0
  149.5981  142.8535  155.7094 H   0  0  0  0  0  0  0  0  0  0  0  0
  151.6523  143.2567  156.5696 H   0  0  0  0  0  0  0  0  0  0  0  0
  151.9504  141.1705  158.7786 H   0  0  0  0  0  0  0  0  0  0  0  0
  153.2506  141.8698  157.8083 H   0  0  0  0  0  0  0  0  0  0  0  0
  152.4822  142.8973  160.2590 H   0  0  0  0  0  0  0  0  0  0  0  0
  153.1161  143.9310  158.9768 H   0  0  0  0  0  0  0  0  0  0  0  0
  150.3879  143.9519  159.9852 H   0  0  0  0  0  0  0  0  0  0  0  0
  151.0702  144.9211  158.6750 H   0  0  0  0  0  0  0  0  0  0  0  0
  148.4316  131.9809  151.9637 H   0  0  0  0  0  0  0  0  0  0  0  0
  1  2  1  0  0  0  0
  1 29  1  0  0  0  0
  1 30  1  0  0  0  0
  1 31  1  0  0  0  0
  2  3  1  0  0  0  0
  2 10  1  0  0  0  0
  2 32  1  0  0  0  0
  3  4  1  0  0  0  0
  3 33  1  0  0  0  0
  3 34  1  0  0  0  0
  4  9  1  0  0  0  0
  4  5  1  0  0  0  0
  4 59  1  0  0  0  0
  5  6  1  0  0  0  0
  5 35  1  0  0  0  0
  5 36  1  0  0  0  0
  6  7  1  0  0  0  0
  6 37  1  0  0  0  0
  6 38  1  0  0  0  0
  7  8  1  0  0  0  0
  8  9  1  0  0  0  0
  8 39  1  0  0  0  0
  8 40  1  0  0  0  0
  9 41  1  0  0  0  0
  9 42  1  0  0  0  0
 10 11  1  0  0  0  0
 10 12  1  0  0  0  0
 11 43  1  0  0  0  0
 11 44  1  0  0  0  0
 11 45  1  0  0  0  0
 12 17  1  0  0  0  0
 12 13  2  0  0  0  0
 13 14  1  0  0  0  0
 14 15  2  0  0  0  0
 14 46  1  0  0  0  0
 15 16  1  0  0  0  0
 16 20  1  0  0  0  0
 16 17  2  0  0  0  0
 17 18  1  0  0  0  0
 18 19  2  0  0  0  0
 19 20  1  0  0  0  0
 19 47  1  0  0  0  0
 20 21  1  0  0  0  0
 21 22  1  0  0  0  0
 21 48  1  0  0  0  0
 21 49  1  0  0  0  0
 22 23  1  0  0  0  0
 22 24  1  0  0  0  0
 22 50  1  0  0  0  0
 23 51  1  0  0  0  0
 24 28  1  0  0  0  0
 24 25  1  0  0  0  0
 24 52  1  0  0  0  0
 25 26  1  0  0  0  0
 25 53  1  0  0  0  0
 25 54  1  0  0  0  0
 26 27  1  0  0  0  0
 26 55  1  0  0  0  0
 26 56  1  0  0  0  0
 27 28  1  0  0  0  0
 27 57  1  0  0  0  0
 27 58  1  0  0  0  0
M  CHG  1   4   1
M  END
> <s_m_source_file>
AV-unprocessed.smi

> <i_m_source_file_index>
213

> <i_lp_mmshare_version>
43012

> <i_f3d_flags>
0

> <s_epik_input>
W0NIMl0xW0NIMl1PW0NIMl1bQ0gyXU4xW0NIMl1bQ0BASF0oW0NIM10pTihbQ0gzXSljKG5bY0hdbjIpYyhjMjMpbltjSF1uM1tDSDJdW0NASF0oW09IXSlbQ0BASF00W0NIMl1bQ0gyXVtDSDJdTzQ=

> <s_epik_cmdline>
J2VwaWtfcHl0aG9uJywgJy1waCcsICc3LjAnLCAnLXRuJywgJzgnLCAnLW1hJywgJzIwMCcsICctbWV0YWxfYmluZGluZycsICctaW1hZScsICc8aW5maWxlLm1hZT4nLCAnLW9tYWUnLCAnPG91dGZpbGUubWFlPic=

> <r_lp_tautomer_probability>
1

> <r_epik_Ionization_Penalty>
0.399679

> <r_epik_Ionization_Penalty_Charging>
0.399433

> <r_epik_Ionization_Penalty_Neutral>
0.000246213

> <r_epik_State_Penalty>
0.286032

> <r_epik_Charging_Adjusted_Penalty>
0.685465

> <i_epik_Tot_Q>
1

> <i_epik_Tot_abs_Q>
1

> <r_epik_Metal_State_Penalty>
0.286072

> <b_epik_Metal_Only>
0

> <s_lp_Force_Field>
OPLS_2005

> <r_lp_Energy>
46.7886

> <b_lp_Chiralities_Consistent>
1

> <s_lp_Variant>
AV-unprocessed.smi:213-1

> <Gold.Version>
5.8.1

> <Gold.Id.Protein>
6NUR|6NUR_protein|mol2

> <Gold.PLP.Fitness>
50.1826

> <Gold.PLP.PLP>
-42.4244

> <Gold.PLP.part.hbond>
-3.0000

> <Gold.PLP.part.metal>
0.0000

> <Gold.PLP.part.buried>
-5.0097

> <Gold.PLP.part.nonpolar>
-34.6594

> <Gold.PLP.part.repulsive>
0.5679

> <Gold.PLP.ligand.clash>
0.0000

> <Gold.PLP.ligand.torsion>
1.3360

> <Gold.PLP.Chemscore.Hbond>
3.0000

> <Gold.PLP.Chemscore.CHOScore>
0.0000

> <Gold.PLP.Chemscore.Metal>
0.0000

> <Gold.Chemscore.Hbonds>
donor molecule, donor type, donor heavy atom, donor atom, acceptor molecule, acceptor atom, score
      L1  H     4    59       P1 10747  0.86
      L1  H    23    51       P1  8028  1.00
      P1  H 10752 10763       L1    18  0.98

> <Gold.PLP.Chemscore.Internal.Correction>
1.4301

> <Gold.Rescore>
     Score         DG    S(hbond)    S(metal)    S(lipo)     H(rot)  DE(clash)    DE(int)     intcor
     15.35     -19.37       2.72        0.00     102.96       2.83       0.16       3.87       ----

> <Gold.Chemscore.Fitness>
15.3465

> <Gold.Chemscore.DG>
-19.3732

> <Gold.Chemscore.ZeroCoef>
-5.4800

> <Gold.Chemscore.Hbond>
2.7184

> <Gold.Chemscore.Metal>
0.0000

> <Gold.Chemscore.Lipo>
102.9628

> <Gold.Chemscore.Internal_Hbond>
0.0000

> <Gold.Chemscore.DEClash>
0.1573

> <Gold.Chemscore.DEInternal>
3.8693

> <Gold.Chemscore.Rot>
2.8254

> <Gold.Chemscore.Internal.Correction>
   9.000000E+99

> <Gold.Chemscore.Hbonds>
donor molecule, donor type, donor heavy atom, donor atom, acceptor molecule, acceptor atom, score
      L1  H     4    59       P1 10747  0.84
      L1  H    23    51       P1  8028  0.95
      P1  H 10752 10763       L1    18  0.81

> <Gold.Chemscore.Hbond.Weighted>
-9.0795

> <Gold.Chemscore.Metal.Weighted>
-0.0000

> <Gold.Chemscore.Lipo.Weighted>
-12.0466

> <Gold.Chemscore.Internal_Hbond.Weighted>
0.0000

> <Gold.Chemscore.DEClash.Weighted>
0.1573

> <Gold.Chemscore.DEInternal.Weighted>
3.8693

> <Gold.Chemscore.Rot.Weighted>
7.2330

> <Gold.Chemscore.Internal.Correction.Weighted>
   9.000000E+99

> <Gold.Protein.RotatedTorsions>
[ 6907 6896 6895 6894 ] final -122.88 input  -60.11 | X-H torsion
[ 7974 7965 7964 7962 ] final    4.27 input  175.53 | X-H torsion
[ 8008 7997 7996 7995 ] final   18.71 input   59.86 | X-H torsion
[ 10167 10162 10161 10158 ] final  -64.85 input  -65.29 | X-H torsion
[ 10718 10713 10712 10709 ] final  148.21 input   66.30 | X-H torsion
[ 10763 10752 10751 10750 ] final   66.26 input  -60.55 | X-H torsion
[ 11005 11000 10999 10996 ] final -148.40 input  -57.11 | X-H torsion

> <Gold.Protein.ActiveResidues>
 VAL166  LYS551  ARG553  GLY616  TRP617  ASP618  TYR619  PRO620  LYS621  CYS622 
 ASP623  PHE694  ASN695  SER759  ASP760  ASP761  ALA762  ILE779  LEU786  VAL792 
 PHE793  MET794  SER795  GLU796  ALA797  LYS798  CYS799  TRP800  GLU811  SER814 

> <Gold.Protein.RotatedAtoms>
  150.8617  133.7633  159.2989 H   0  0  0  0  0  0  0  0  0  0  0  0  # atno 6907 bound_to 6896
  151.5273  135.1066  159.9903 H   0  0  0  0  0  0  0  0  0  0  0  0  # atno 6908 bound_to 6896
  152.4631  133.7821  159.6912 H   0  0  0  0  0  0  0  0  0  0  0  0  # atno 6909 bound_to 6896
  146.2444  140.0559  142.8372 H   0  0  0  0  0  0  0  0  0  0  0  0  # atno 7974 bound_to 7965
  154.9100  140.3012  155.5271 H   0  0  0  0  0  0  0  0  0  0  0  0  # atno 8008 bound_to 7997
  156.3015  140.2391  156.4073 H   0  0  0  0  0  0  0  0  0  0  0  0  # atno 8009 bound_to 7997
  154.8435  140.0412  157.1546 H   0  0  0  0  0  0  0  0  0  0  0  0  # atno 8010 bound_to 7997
  140.5772  143.2323  151.6418 H   0  0  0  0  0  0  0  0  0  0  0  0  # atno 10167 bound_to 10162
  157.3114  131.0888  151.1313 H   0  0  0  0  0  0  0  0  0  0  0  0  # atno 10718 bound_to 10713
  153.0132  135.5327  154.6796 H   0  0  0  0  0  0  0  0  0  0  0  0  # atno 10763 bound_to 10752
  154.5959  135.2863  155.0588 H   0  0  0  0  0  0  0  0  0  0  0  0  # atno 10764 bound_to 10752
  154.1664  135.6539  153.5051 H   0  0  0  0  0  0  0  0  0  0  0  0  # atno 10765 bound_to 10752
  140.7616  134.3292  157.5100 H   0  0  0  0  0  0  0  0  0  0  0  0  # atno 11005 bound_to 11000
  145.0942  140.9304  143.4751 LP  0  0  0  0  0  0  0  0  0  0  0  0  # atno 17320 bound_to 7965
  145.0739  139.3011  143.5818 LP  0  0  0  0  0  0  0  0  0  0  0  0  # atno 17321 bound_to 7965
  139.5149  144.3396  152.0753 LP  0  0  0  0  0  0  0  0  0  0  0  0  # atno 17342 bound_to 10162
  140.2541  144.4138  150.6210 LP  0  0  0  0  0  0  0  0  0  0  0  0  # atno 17343 bound_to 10162
  157.2634  130.6669  149.5985 LP  0  0  0  0  0  0  0  0  0  0  0  0  # atno 17370 bound_to 10713
  155.9678  130.4501  150.5686 LP  0  0  0  0  0  0  0  0  0  0  0  0  # atno 17371 bound_to 10713
  139.8770  134.9205  156.3253 LP  0  0  0  0  0  0  0  0  0  0  0  0  # atno 17394 bound_to 11000
  140.9658  133.7359  156.0464 LP  0  0  0  0  0  0  0  0  0  0  0  0  # atno 17395 bound_to 11000

$$$$
