AV-unprocessed.smi:2943|AV-procd|sdf|11269|dock4
  -GOLD-   2272016163D 1   1.00000     0.00000
 Structure written by MMmdl.
 36 38  0  0  0  0  0  0  0  0  1 V2000
  152.3505  137.2090  156.0068 C   0  0  0  0  0  0  0  0  0  0  0  0
  151.8745  138.5280  156.5400 C   0  0  0  0  0  0  0  0  0  0  0  0
  152.1281  139.0436  157.7905 C   0  0  0  0  0  0  0  0  0  0  0  0
  152.9227  138.4282  158.9019 C   0  0  0  0  0  0  0  0  0  0  0  0
  151.5271  140.2978  157.9176 N   0  0  0  0  0  0  0  0  0  0  0  0
  151.5778  141.1557  159.0938 C   0  0  0  0  0  0  0  0  0  0  0  0
  152.4400  142.4076  158.8600 C   0  0  1  0  0  0  0  0  0  0  0  0
  151.8384  143.3929  157.8589 C   0  0  0  0  0  0  0  0  0  0  0  0
  152.4630  144.6968  158.2993 C   0  0  0  0  0  0  0  0  0  0  0  0
  152.4506  144.5432  159.8166 C   0  0  0  0  0  0  0  0  0  0  0  0
  152.6161  143.1504  160.0652 O   0  0  0  0  0  0  0  0  0  0  0  0
  150.8633  140.5973  156.7369 C   0  0  0  0  0  0  0  0  0  0  0  0
  150.1481  141.7281  156.4557 N   0  0  0  0  0  0  0  0  0  0  0  0
  149.6280  141.6968  155.2263 C   0  0  0  0  0  0  0  0  0  0  0  0
  149.7295  140.7383  154.3014 N   0  0  0  0  0  0  0  0  0  0  0  0
  150.4408  139.6242  154.5864 C   0  0  0  0  0  0  0  0  0  0  0  0
  150.5191  138.6485  153.5951 N   0  0  0  0  0  0  0  0  0  0  0  0
  151.0622  139.4975  155.8569 C   0  0  0  0  0  0  0  0  0  0  0  0
  153.3034  136.9156  156.4470 H   0  0  0  0  0  0  0  0  0  0  0  0
  152.5000  137.2438  154.9282 H   0  0  0  0  0  0  0  0  0  0  0  0
  151.6298  136.4187  156.2169 H   0  0  0  0  0  0  0  0  0  0  0  0
  153.0761  137.3617  158.7411 H   0  0  0  0  0  0  0  0  0  0  0  0
  152.4163  138.5366  159.8604 H   0  0  0  0  0  0  0  0  0  0  0  0
  153.9024  138.8992  158.9815 H   0  0  0  0  0  0  0  0  0  0  0  0
  150.5635  141.4377  159.3767 H   0  0  0  0  0  0  0  0  0  0  0  0
  151.9742  140.5773  159.9292 H   0  0  0  0  0  0  0  0  0  0  0  0
  153.4337  142.1195  158.5149 H   0  0  0  0  0  0  0  0  0  0  0  0
  152.0633  143.1371  156.8231 H   0  0  0  0  0  0  0  0  0  0  0  0
  150.7545  143.4453  157.9718 H   0  0  0  0  0  0  0  0  0  0  0  0
  153.4888  144.7643  157.9343 H   0  0  0  0  0  0  0  0  0  0  0  0
  151.9165  145.5751  157.9541 H   0  0  0  0  0  0  0  0  0  0  0  0
  153.2291  145.1313  160.3030 H   0  0  0  0  0  0  0  0  0  0  0  0
  151.4870  144.8535  160.2227 H   0  0  0  0  0  0  0  0  0  0  0  0
  149.0482  142.5623  154.9414 H   0  0  0  0  0  0  0  0  0  0  0  0
  150.0642  138.7672  152.7014 H   0  0  0  0  0  0  0  0  0  0  0  0
  151.0356  137.7928  153.7391 H   0  0  0  0  0  0  0  0  0  0  0  0
  1  2  1  0  0  0  0
  1 19  1  0  0  0  0
  1 20  1  0  0  0  0
  1 21  1  0  0  0  0
  2 18  1  0  0  0  0
  2  3  2  0  0  0  0
  3  4  1  0  0  0  0
  3  5  1  0  0  0  0
  4 22  1  0  0  0  0
  4 23  1  0  0  0  0
  4 24  1  0  0  0  0
  5  6  1  0  0  0  0
  5 12  1  0  0  0  0
  6  7  1  0  0  0  0
  6 25  1  0  0  0  0
  6 26  1  0  0  0  0
  7 11  1  0  0  0  0
  7  8  1  0  0  0  0
  7 27  1  0  0  0  0
  8  9  1  0  0  0  0
  8 28  1  0  0  0  0
  8 29  1  0  0  0  0
  9 10  1  0  0  0  0
  9 30  1  0  0  0  0
  9 31  1  0  0  0  0
 10 11  1  0  0  0  0
 10 32  1  0  0  0  0
 10 33  1  0  0  0  0
 12 18  1  0  0  0  0
 12 13  2  0  0  0  0
 13 14  1  0  0  0  0
 14 15  2  0  0  0  0
 14 34  1  0  0  0  0
 15 16  1  0  0  0  0
 16 17  1  0  0  0  0
 16 18  2  0  0  0  0
 17 35  1  0  0  0  0
 17 36  1  0  0  0  0
M  END
> <s_m_source_file>
AV-unprocessed.smi

> <i_m_source_file_index>
2943

> <i_lp_mmshare_version>
43012

> <i_f3d_flags>
0

> <s_epik_input>
bjFbY0hdbmMoW05IMl0pYyhjMTIpYyhbQ0gzXSljKFtDSDNdKW4yW0NIMl1bQ0BASF0zW0NIMl1bQ0gyXVtDSDJdTzM=

> <s_epik_cmdline>
J2VwaWtfcHl0aG9uJywgJy1waCcsICc3LjAnLCAnLXRuJywgJzgnLCAnLW1hJywgJzIwMCcsICctbWV0YWxfYmluZGluZycsICctaW1hZScsICc8aW5maWxlLm1hZT4nLCAnLW9tYWUnLCAnPG91dGZpbGUubWFlPic=

> <r_epik_Ionization_Penalty>
0.0115167

> <r_epik_Ionization_Penalty_Charging>
0

> <r_epik_Ionization_Penalty_Neutral>
0.0115167

> <r_epik_State_Penalty>
0.00863248

> <r_epik_Charging_Adjusted_Penalty>
0.00863248

> <i_epik_Tot_Q>
0

> <i_epik_Tot_abs_Q>
0

> <r_epik_Metal_State_Penalty>
0.00847169

> <b_epik_Metal_Only>
0

> <s_lp_Force_Field>
OPLS_2005

> <r_lp_Energy>
17.4582

> <b_lp_Chiralities_Consistent>
1

> <s_lp_Variant>
AV-unprocessed.smi:2943-2

> <Gold.Version>
5.8.1

> <Gold.Id.Protein>
6NUR|6NUR_protein|mol2

> <Gold.PLP.Fitness>
37.3658

> <Gold.PLP.PLP>
-31.7432

> <Gold.PLP.part.hbond>
-2.0564

> <Gold.PLP.part.metal>
0.0000

> <Gold.PLP.part.buried>
-0.0274

> <Gold.PLP.part.nonpolar>
-28.8095

> <Gold.PLP.part.repulsive>
0.3270

> <Gold.PLP.ligand.clash>
0.0000

> <Gold.PLP.ligand.torsion>
0.1289

> <Gold.PLP.Chemscore.Hbond>
0.9600

> <Gold.PLP.Chemscore.CHOScore>
1.0000

> <Gold.PLP.Chemscore.Metal>
0.0000

> <Gold.Chemscore.Hbonds>
donor molecule, donor type, donor heavy atom, donor atom, acceptor molecule, acceptor atom, score
      L1  H    17    35       P1  7957  0.96
      L1  C    14    34       P1  8028  1.00

> <Gold.PLP.Chemscore.Internal.Correction>
0.0004

> <Gold.Rescore>
     Score         DG    S(hbond)    S(metal)    S(lipo)     H(rot)  DE(clash)    DE(int)     intcor
     12.14     -14.01       0.52        0.00      85.52       1.26       0.28       1.59       ----

> <Gold.Chemscore.Fitness>
12.1365

> <Gold.Chemscore.DG>
-14.0105

> <Gold.Chemscore.ZeroCoef>
-5.4800

> <Gold.Chemscore.Hbond>
0.5244

> <Gold.Chemscore.Metal>
0.0000

> <Gold.Chemscore.Lipo>
85.5233

> <Gold.Chemscore.Internal_Hbond>
0.0000

> <Gold.Chemscore.DEClash>
0.2803

> <Gold.Chemscore.DEInternal>
1.5937

> <Gold.Chemscore.Rot>
1.2607

> <Gold.Chemscore.Internal.Correction>
   9.000000E+99

> <Gold.Chemscore.Hbonds>
donor molecule, donor type, donor heavy atom, donor atom, acceptor molecule, acceptor atom, score
      L1  H    17    35       P1  7957  0.43

> <Gold.Chemscore.Hbond.Weighted>
-1.7517

> <Gold.Chemscore.Metal.Weighted>
-0.0000

> <Gold.Chemscore.Lipo.Weighted>
-10.0062

> <Gold.Chemscore.Internal_Hbond.Weighted>
0.0000

> <Gold.Chemscore.DEClash.Weighted>
0.2803

> <Gold.Chemscore.DEInternal.Weighted>
1.5937

> <Gold.Chemscore.Rot.Weighted>
3.2274

> <Gold.Chemscore.Internal.Correction.Weighted>
   9.000000E+99

> <Gold.Protein.RotatedTorsions>
[ 6907 6896 6895 6894 ] final  175.66 input  -60.11 | X-H torsion
[ 7974 7965 7964 7962 ] final  -17.42 input  175.53 | X-H torsion
[ 8008 7997 7996 7995 ] final  -93.18 input   59.86 | X-H torsion
[ 10167 10162 10161 10158 ] final -122.39 input  -65.29 | X-H torsion
[ 10718 10713 10712 10709 ] final  162.92 input   66.30 | X-H torsion
[ 10763 10752 10751 10750 ] final   38.35 input  -60.55 | X-H torsion
[ 11005 11000 10999 10996 ] final  -28.70 input  -57.11 | X-H torsion

> <Gold.Protein.ActiveResidues>
 VAL166  LYS551  ARG553  GLY616  TRP617  ASP618  TYR619  PRO620  LYS621  CYS622 
 ASP623  PHE694  ASN695  SER759  ASP760  ASP761  ALA762  ILE779  LEU786  VAL792 
 PHE793  MET794  SER795  GLU796  ALA797  LYS798  CYS799  TRP800  GLU811  SER814 

> <Gold.Protein.RotatedAtoms>
  151.7327  133.3318  159.3344 H   0  0  0  0  0  0  0  0  0  0  0  0  # atno 6907 bound_to 6896
  150.7606  134.6349  159.6215 H   0  0  0  0  0  0  0  0  0  0  0  0  # atno 6908 bound_to 6896
  152.3582  134.6913  160.0267 H   0  0  0  0  0  0  0  0  0  0  0  0  # atno 6909 bound_to 6896
  146.1942  140.3777  142.8447 H   0  0  0  0  0  0  0  0  0  0  0  0  # atno 7974 bound_to 7965
  154.7325  140.0501  157.0739 H   0  0  0  0  0  0  0  0  0  0  0  0  # atno 8008 bound_to 7997
  155.0284  140.3155  155.4748 H   0  0  0  0  0  0  0  0  0  0  0  0  # atno 8009 bound_to 7997
  156.2845  140.2154  156.5404 H   0  0  0  0  0  0  0  0  0  0  0  0  # atno 8010 bound_to 7997
  140.0148  143.5405  152.2247 H   0  0  0  0  0  0  0  0  0  0  0  0  # atno 10167 bound_to 10162
  157.1158  131.0479  151.2437 H   0  0  0  0  0  0  0  0  0  0  0  0  # atno 10718 bound_to 10713
  153.0004  135.6252  154.2291 H   0  0  0  0  0  0  0  0  0  0  0  0  # atno 10763 bound_to 10752
  154.2033  135.2803  155.2985 H   0  0  0  0  0  0  0  0  0  0  0  0  # atno 10764 bound_to 10752
  154.5665  135.5689  153.7115 H   0  0  0  0  0  0  0  0  0  0  0  0  # atno 10765 bound_to 10752
  140.9232  133.7386  156.0830 H   0  0  0  0  0  0  0  0  0  0  0  0  # atno 11005 bound_to 11000
  144.8546  140.7051  143.6146 LP  0  0  0  0  0  0  0  0  0  0  0  0  # atno 17320 bound_to 7965
  145.3698  139.1661  143.4338 LP  0  0  0  0  0  0  0  0  0  0  0  0  # atno 17321 bound_to 7965
  139.6180  144.7623  151.2803 LP  0  0  0  0  0  0  0  0  0  0  0  0  # atno 17342 bound_to 10162
  140.7367  143.6700  150.8090 LP  0  0  0  0  0  0  0  0  0  0  0  0  # atno 17343 bound_to 10162
  157.4520  130.7603  149.7159 LP  0  0  0  0  0  0  0  0  0  0  0  0  # atno 17370 bound_to 10713
  155.9840  130.3995  150.3335 LP  0  0  0  0  0  0  0  0  0  0  0  0  # atno 17371 bound_to 10713
  140.7961  134.3562  157.5452 LP  0  0  0  0  0  0  0  0  0  0  0  0  # atno 17394 bound_to 11000
  139.8780  134.9169  156.3167 LP  0  0  0  0  0  0  0  0  0  0  0  0  # atno 17395 bound_to 11000

$$$$
