AV-unprocessed.smi:280|AV-procd|sdf|2098|dock2
  -GOLD-   2262021383D 1   1.00000     0.00000
 Structure written by MMmdl.
 59 62  0  0  0  0  0  0  0  0  2 V2000
  150.8232  140.2670  155.5833 C   0  0  0  0  0  0  0  0  0  0  0  0
  150.0526  141.6038  155.5088 C   0  0  1  0  0  0  0  0  0  0  0  0
  148.5956  141.4009  155.0398 C   0  0  0  0  0  0  0  0  0  0  0  0
  147.7782  140.8105  156.1004 N   0  0  0  0  0  0  0  0  0  0  0  0
  147.5271  139.4726  156.0597 C   0  0  0  0  0  0  0  0  0  0  0  0
  147.8357  138.8177  154.9098 N   0  0  0  0  0  0  0  0  0  0  0  0
  147.6203  137.5058  154.7905 C   0  0  0  0  0  0  0  0  0  0  0  0
  147.1111  136.6623  155.6872 N   0  0  0  0  0  0  0  0  0  0  0  0
  146.7944  137.3034  156.8468 C   0  0  0  0  0  0  0  0  0  0  0  0
  146.9688  138.6926  157.1197 C   0  0  0  0  0  0  0  0  0  0  0  0
  146.5509  138.9600  158.4196 N   0  0  0  0  0  0  0  0  0  0  0  0
  146.1481  137.8081  158.8796 C   0  0  0  0  0  0  0  0  0  0  0  0
  146.2489  136.7586  157.9966 N   0  0  0  0  0  0  0  0  0  0  0  0
  145.8766  135.3740  158.2494 C   0  0  0  0  0  0  0  0  0  0  0  0
  144.5419  134.9477  157.6066 C   0  0  0  0  0  0  0  0  0  0  0  0
  144.7600  134.7323  156.0946 C   0  0  0  0  0  0  0  0  0  0  0  0
  143.5522  134.4918  155.4003 O   0  0  0  0  0  0  0  0  0  0  0  0
  143.7562  133.8450  158.3313 C   0  0  0  0  0  0  0  0  0  0  0  0
  142.5521  134.6424  158.3517 O   0  0  0  0  0  0  0  0  0  0  0  0
  143.3319  135.8071  158.0024 C   0  0  0  0  0  0  0  0  0  0  0  0
  147.7979  141.5441  157.3614 C   0  0  0  0  0  0  0  0  0  0  0  0
  149.2415  141.7576  157.8546 C   0  0  0  0  0  0  0  0  0  0  0  0
  150.0783  142.3730  156.7884 N   0  3  1  0  0  0  0  0  0  0  0  0
  151.4403  142.7729  157.2376 C   0  0  0  0  0  0  0  0  0  0  0  0
  151.4292  143.9308  158.2654 C   0  0  0  0  0  0  0  0  0  0  0  0
  151.0562  143.3935  159.6577 C   0  0  0  0  0  0  0  0  0  0  0  0
  152.7781  144.6714  158.3252 C   0  0  0  0  0  0  0  0  0  0  0  0
  150.4253  144.8632  157.9197 O   0  0  0  0  0  0  0  0  0  0  0  0
  150.7858  139.7501  154.6241 H   0  0  0  0  0  0  0  0  0  0  0  0
  150.4071  139.5904  156.3291 H   0  0  0  0  0  0  0  0  0  0  0  0
  151.8756  140.4135  155.8249 H   0  0  0  0  0  0  0  0  0  0  0  0
  150.5453  142.2189  154.7546 H   0  0  0  0  0  0  0  0  0  0  0  0
  148.1592  142.3679  154.7869 H   0  0  0  0  0  0  0  0  0  0  0  0
  148.5789  140.8192  154.1182 H   0  0  0  0  0  0  0  0  0  0  0  0
  147.8955  137.0698  153.8413 H   0  0  0  0  0  0  0  0  0  0  0  0
  145.7591  137.6926  159.8810 H   0  0  0  0  0  0  0  0  0  0  0  0
  146.6919  134.7404  157.8978 H   0  0  0  0  0  0  0  0  0  0  0  0
  145.8371  135.2270  159.3295 H   0  0  0  0  0  0  0  0  0  0  0  0
  145.2408  135.6008  155.6430 H   0  0  0  0  0  0  0  0  0  0  0  0
  145.4104  133.8773  155.9101 H   0  0  0  0  0  0  0  0  0  0  0  0
  143.4108  133.5583  155.3568 H   0  0  0  0  0  0  0  0  0  0  0  0
  143.6447  132.9237  157.7585 H   0  0  0  0  0  0  0  0  0  0  0  0
  144.1071  133.6342  159.3418 H   0  0  0  0  0  0  0  0  0  0  0  0
  143.5081  136.4471  158.8686 H   0  0  0  0  0  0  0  0  0  0  0  0
  142.8948  136.3800  157.1838 H   0  0  0  0  0  0  0  0  0  0  0  0
  147.3349  142.5153  157.1834 H   0  0  0  0  0  0  0  0  0  0  0  0
  147.1812  141.0650  158.1207 H   0  0  0  0  0  0  0  0  0  0  0  0
  149.2215  142.3929  158.7384 H   0  0  0  0  0  0  0  0  0  0  0  0
  149.6858  140.8134  158.1683 H   0  0  0  0  0  0  0  0  0  0  0  0
  151.9761  141.9053  157.6264 H   0  0  0  0  0  0  0  0  0  0  0  0
  152.0181  143.1153  156.3780 H   0  0  0  0  0  0  0  0  0  0  0  0
  151.7930  142.6722  160.0132 H   0  0  0  0  0  0  0  0  0  0  0  0
  150.0871  142.8929  159.6457 H   0  0  0  0  0  0  0  0  0  0  0  0
  151.0018  144.1955  160.3953 H   0  0  0  0  0  0  0  0  0  0  0  0
  153.5897  143.9902  158.5839 H   0  0  0  0  0  0  0  0  0  0  0  0
  152.7627  145.4620  159.0765 H   0  0  0  0  0  0  0  0  0  0  0  0
  153.0302  145.1371  157.3721 H   0  0  0  0  0  0  0  0  0  0  0  0
  149.9677  144.5450  157.1558 H   0  0  0  0  0  0  0  0  0  0  0  0
  149.6189  143.2445  156.5658 H   0  0  0  0  0  0  0  0  0  0  0  0
  1  2  1  0  0  0  0
  1 29  1  0  0  0  0
  1 30  1  0  0  0  0
  1 31  1  0  0  0  0
  2 23  1  0  0  0  0
  2  3  1  0  0  0  0
  2 32  1  0  0  0  0
  3  4  1  0  0  0  0
  3 33  1  0  0  0  0
  3 34  1  0  0  0  0
  4  5  1  0  0  0  0
  4 21  1  0  0  0  0
  5 10  1  0  0  0  0
  5  6  2  0  0  0  0
  6  7  1  0  0  0  0
  7  8  2  0  0  0  0
  7 35  1  0  0  0  0
  8  9  1  0  0  0  0
  9 13  1  0  0  0  0
  9 10  2  0  0  0  0
 10 11  1  0  0  0  0
 11 12  2  0  0  0  0
 12 13  1  0  0  0  0
 12 36  1  0  0  0  0
 13 14  1  0  0  0  0
 14 15  1  0  0  0  0
 14 37  1  0  0  0  0
 14 38  1  0  0  0  0
 15 20  1  0  0  0  0
 15 16  1  0  0  0  0
 15 18  1  0  0  0  0
 16 17  1  0  0  0  0
 16 39  1  0  0  0  0
 16 40  1  0  0  0  0
 17 41  1  0  0  0  0
 18 19  1  0  0  0  0
 18 42  1  0  0  0  0
 18 43  1  0  0  0  0
 19 20  1  0  0  0  0
 20 44  1  0  0  0  0
 20 45  1  0  0  0  0
 21 22  1  0  0  0  0
 21 46  1  0  0  0  0
 21 47  1  0  0  0  0
 22 23  1  0  0  0  0
 22 48  1  0  0  0  0
 22 49  1  0  0  0  0
 23 24  1  0  0  0  0
 23 59  1  0  0  0  0
 24 25  1  0  0  0  0
 24 50  1  0  0  0  0
 24 51  1  0  0  0  0
 25 26  1  0  0  0  0
 25 27  1  0  0  0  0
 25 28  1  0  0  0  0
 26 52  1  0  0  0  0
 26 53  1  0  0  0  0
 26 54  1  0  0  0  0
 27 55  1  0  0  0  0
 27 56  1  0  0  0  0
 27 57  1  0  0  0  0
 28 58  1  0  0  0  0
M  CHG  1  23   1
M  END
> <s_m_source_file>
AV-unprocessed.smi

> <i_m_source_file_index>
280

> <i_lp_mmshare_version>
43012

> <i_f3d_flags>
0

> <s_epik_input>
W0NIM11DKFtDSDNdKShbT0hdKVtDSDJdTjFbQ0gyXVtDSDJdTihbQ0gyXVtDQEhdMVtDSDNdKWMobltjSF1uMiljKGMyMyluW2NIXW4zW0NIMl1DNChbQ0gyXVtPSF0pW0NIMl1PW0NIMl00

> <s_epik_cmdline>
J2VwaWtfcHl0aG9uJywgJy1waCcsICc3LjAnLCAnLXRuJywgJzgnLCAnLW1hJywgJzIwMCcsICctbWV0YWxfYmluZGluZycsICctaW1hZScsICc8aW5maWxlLm1hZT4nLCAnLW9tYWUnLCAnPG91dGZpbGUubWFlPic=

> <r_lp_tautomer_probability>
1

> <r_epik_Ionization_Penalty>
0.00179402

> <r_epik_Ionization_Penalty_Charging>
0.00173996

> <r_epik_Ionization_Penalty_Neutral>
5.40607e-05

> <r_epik_State_Penalty>
-0

> <r_epik_Charging_Adjusted_Penalty>
0.00173996

> <i_epik_Tot_Q>
1

> <i_epik_Tot_abs_Q>
1

> <r_epik_Metal_State_Penalty>
-0

> <b_epik_Metal_Only>
0

> <s_lp_Force_Field>
OPLS_2005

> <r_lp_Energy>
54.8934

> <b_lp_Chiralities_Consistent>
1

> <s_lp_Variant>
AV-unprocessed.smi:280-2

> <Gold.Version>
5.8.1

> <Gold.Id.Protein>
6NUR|6NUR_protein|mol2

> <Gold.PLP.Fitness>
47.9317

> <Gold.PLP.PLP>
-30.8384

> <Gold.PLP.part.hbond>
-6.0000

> <Gold.PLP.part.metal>
0.0000

> <Gold.PLP.part.buried>
-3.9279

> <Gold.PLP.part.nonpolar>
-20.9759

> <Gold.PLP.part.repulsive>
0.1693

> <Gold.PLP.ligand.clash>
0.0000

> <Gold.PLP.ligand.torsion>
1.0525

> <Gold.PLP.Chemscore.Hbond>
5.0000

> <Gold.PLP.Chemscore.CHOScore>
1.0000

> <Gold.PLP.Chemscore.Metal>
0.0000

> <Gold.Chemscore.Hbonds>
donor molecule, donor type, donor heavy atom, donor atom, acceptor molecule, acceptor atom, score
      L1  H    17    41       P1 10957  1.00
      L1  H    23    59       P1  8028  2.00
      L1  H    28    58       P1  8028  1.00
      P1  H 11000 11005       L1    19  1.00
      L1  C     7    35       P1  7948  1.00

> <Gold.PLP.Chemscore.Internal.Correction>
1.1983

> <Gold.Rescore>
     Score         DG    S(hbond)    S(metal)    S(lipo)     H(rot)  DE(clash)    DE(int)     intcor
     13.90     -16.95       3.33        0.00      74.98       3.30       0.15       2.90       ----

> <Gold.Chemscore.Fitness>
13.8976

> <Gold.Chemscore.DG>
-16.9465

> <Gold.Chemscore.ZeroCoef>
-5.4800

> <Gold.Chemscore.Hbond>
3.3350

> <Gold.Chemscore.Metal>
0.0000

> <Gold.Chemscore.Lipo>
74.9850

> <Gold.Chemscore.Internal_Hbond>
0.0000

> <Gold.Chemscore.DEClash>
0.1483

> <Gold.Chemscore.DEInternal>
2.9007

> <Gold.Chemscore.Rot>
3.2991

> <Gold.Chemscore.Internal.Correction>
   9.000000E+99

> <Gold.Chemscore.Hbonds>
donor molecule, donor type, donor heavy atom, donor atom, acceptor molecule, acceptor atom, score
      L1  H    17    41       P1 10957  0.94
      L1  H    23    59       P1  8028  1.00
      L1  H    28    58       P1  8028  0.34
      P1  H 11000 11005       L1    19  0.93

> <Gold.Chemscore.Hbond.Weighted>
-11.1389

> <Gold.Chemscore.Metal.Weighted>
-0.0000

> <Gold.Chemscore.Lipo.Weighted>
-8.7732

> <Gold.Chemscore.Internal_Hbond.Weighted>
0.0000

> <Gold.Chemscore.DEClash.Weighted>
0.1483

> <Gold.Chemscore.DEInternal.Weighted>
2.9007

> <Gold.Chemscore.Rot.Weighted>
8.4456

> <Gold.Chemscore.Internal.Correction.Weighted>
   9.000000E+99

> <Gold.Protein.RotatedTorsions>
[ 6907 6896 6895 6894 ] final -145.34 input  -60.11 | X-H torsion
[ 7974 7965 7964 7962 ] final   33.93 input  175.53 | X-H torsion
[ 8008 7997 7996 7995 ] final  -39.29 input   59.86 | X-H torsion
[ 10167 10162 10161 10158 ] final  106.74 input  -65.29 | X-H torsion
[ 10718 10713 10712 10709 ] final  104.80 input   66.30 | X-H torsion
[ 10763 10752 10751 10750 ] final  -39.30 input  -60.55 | X-H torsion
[ 11005 11000 10999 10996 ] final -120.44 input  -57.11 | X-H torsion

> <Gold.Protein.ActiveResidues>
 VAL166  LYS551  ARG553  GLY616  TRP617  ASP618  TYR619  PRO620  LYS621  CYS622 
 ASP623  PHE694  ASN695  SER759  ASP760  ASP761  ALA762  ILE779  LEU786  VAL792 
 PHE793  MET794  SER795  GLU796  ALA797  LYS798  CYS799  TRP800  GLU811  SER814 

> <Gold.Protein.RotatedAtoms>
  151.1265  133.5067  159.2600 H   0  0  0  0  0  0  0  0  0  0  0  0  # atno 6907 bound_to 6896
  151.1804  135.0358  159.8800 H   0  0  0  0  0  0  0  0  0  0  0  0  # atno 6908 bound_to 6896
  152.5458  134.1118  159.8415 H   0  0  0  0  0  0  0  0  0  0  0  0  # atno 6909 bound_to 6896
  146.1387  139.6333  142.9178 H   0  0  0  0  0  0  0  0  0  0  0  0  # atno 7974 bound_to 7965
  154.4025  140.1555  156.2840 H   0  0  0  0  0  0  0  0  0  0  0  0  # atno 8008 bound_to 7997
  155.8845  140.3442  155.5889 H   0  0  0  0  0  0  0  0  0  0  0  0  # atno 8009 bound_to 7997
  155.7629  140.0820  157.2137 H   0  0  0  0  0  0  0  0  0  0  0  0  # atno 8010 bound_to 7997
  139.6985  144.7098  151.1226 H   0  0  0  0  0  0  0  0  0  0  0  0  # atno 10167 bound_to 10162
  157.6727  131.0812  150.5761 H   0  0  0  0  0  0  0  0  0  0  0  0  # atno 10718 bound_to 10713
  153.9271  135.6776  153.4746 H   0  0  0  0  0  0  0  0  0  0  0  0  # atno 10763 bound_to 10752
  153.0998  135.4833  154.8844 H   0  0  0  0  0  0  0  0  0  0  0  0  # atno 10764 bound_to 10752
  154.7447  135.3169  154.8622 H   0  0  0  0  0  0  0  0  0  0  0  0  # atno 10765 bound_to 10752
  141.0143  134.0218  157.3371 H   0  0  0  0  0  0  0  0  0  0  0  0  # atno 11005 bound_to 11000
  145.5097  141.0436  143.2495 LP  0  0  0  0  0  0  0  0  0  0  0  0  # atno 17320 bound_to 7965
  144.7768  139.6612  143.7171 LP  0  0  0  0  0  0  0  0  0  0  0  0  # atno 17321 bound_to 7965
  140.7703  143.5458  150.9260 LP  0  0  0  0  0  0  0  0  0  0  0  0  # atno 17342 bound_to 10162
  139.9139  143.6687  152.3110 LP  0  0  0  0  0  0  0  0  0  0  0  0  # atno 17343 bound_to 10162
  156.6062  130.4368  149.5877 LP  0  0  0  0  0  0  0  0  0  0  0  0  # atno 17370 bound_to 10713
  156.2466  130.6883  151.1606 LP  0  0  0  0  0  0  0  0  0  0  0  0  # atno 17371 bound_to 10713
  139.9108  135.0189  156.7682 LP  0  0  0  0  0  0  0  0  0  0  0  0  # atno 17394 bound_to 11000
  140.6681  133.9584  155.7841 LP  0  0  0  0  0  0  0  0  0  0  0  0  # atno 17395 bound_to 11000

$$$$
