AV-unprocessed.smi:1534|AV-procd|sdf|6168|dock3
  -GOLD-   22720 6313D 1   1.00000     0.00000
 Structure written by MMmdl.
 37 38  0  0  0  0  0  0  0  0  2 V2000
  147.5975  137.5229  154.0892 O   0  0  0  0  0  0  0  0  0  0  0  0
  148.1128  138.3382  153.3268 C   0  0  0  0  0  0  0  0  0  0  0  0
  147.4871  138.8369  152.2469 N   0  0  0  0  0  0  0  0  0  0  0  0
  146.1311  138.4943  151.8350 C   0  0  0  0  0  0  0  0  0  0  0  0
  145.9366  136.9716  151.7374 C   0  0  0  0  0  0  0  0  0  0  0  0
  144.5788  136.5326  152.2494 C   0  0  0  0  0  0  0  0  0  0  0  0
  144.2297  135.1703  152.3749 C   0  0  0  0  0  0  0  0  0  0  0  0
  142.9468  134.8288  152.8516 C   0  0  0  0  0  0  0  0  0  0  0  0
  142.0409  135.8551  153.1913 C   0  0  0  0  0  0  0  0  0  0  0  0
  142.4413  137.1989  153.0442 C   0  0  0  0  0  0  0  0  0  0  0  0
  143.6789  137.4859  152.5834 N   0  3  0  0  0  0  0  0  0  0  0  0
  149.3566  138.8093  153.5266 N   0  0  0  0  0  0  0  0  0  0  0  0
  150.2907  138.4691  154.6006 C   0  0  2  0  0  0  0  0  0  0  0  0
  150.6767  139.7211  155.4101 C   0  0  0  0  0  0  0  0  0  0  0  0
  151.9031  139.3957  156.2725 C   0  0  0  0  0  0  0  0  0  0  0  0
  152.8459  138.1151  155.3601 S   0  0  0  0  0  0  0  0  0  0  0  0
  154.0445  138.7158  154.7558 O   0  0  0  0  0  0  0  0  0  0  0  0
  152.9415  136.9096  156.1972 O   0  0  0  0  0  0  0  0  0  0  0  0
  151.5876  137.8474  154.0572 C   0  0  0  0  0  0  0  0  0  0  0  0
  147.9854  139.5023  151.6736 H   0  0  0  0  0  0  0  0  0  0  0  0
  145.4389  138.9148  152.5650 H   0  0  0  0  0  0  0  0  0  0  0  0
  145.9031  138.9708  150.8798 H   0  0  0  0  0  0  0  0  0  0  0  0
  146.0440  136.6406  150.7034 H   0  0  0  0  0  0  0  0  0  0  0  0
  146.7138  136.4583  152.3055 H   0  0  0  0  0  0  0  0  0  0  0  0
  144.9337  134.3956  152.1073 H   0  0  0  0  0  0  0  0  0  0  0  0
  142.6610  133.7921  152.9541 H   0  0  0  0  0  0  0  0  0  0  0  0
  141.0534  135.6147  153.5579 H   0  0  0  0  0  0  0  0  0  0  0  0
  141.8142  138.0463  153.2793 H   0  0  0  0  0  0  0  0  0  0  0  0
  149.6846  139.4985  152.8651 H   0  0  0  0  0  0  0  0  0  0  0  0
  149.8229  137.7649  155.2910 H   0  0  0  0  0  0  0  0  0  0  0  0
  150.9408  140.5257  154.7221 H   0  0  0  0  0  0  0  0  0  0  0  0
  149.8468  140.0835  156.0178 H   0  0  0  0  0  0  0  0  0  0  0  0
  152.5325  140.2658  156.4600 H   0  0  0  0  0  0  0  0  0  0  0  0
  151.6016  138.9724  157.2310 H   0  0  0  0  0  0  0  0  0  0  0  0
  151.5001  136.7838  153.8360 H   0  0  0  0  0  0  0  0  0  0  0  0
  151.9260  138.3637  153.1580 H   0  0  0  0  0  0  0  0  0  0  0  0
  143.9469  138.4654  152.4842 H   0  0  0  0  0  0  0  0  0  0  0  0
  1  2  2  0  0  0  0
  2  3  1  0  0  0  0
  2 12  1  0  0  0  0
  3  4  1  0  0  0  0
  3 20  1  0  0  0  0
  4  5  1  0  0  0  0
  4 21  1  0  0  0  0
  4 22  1  0  0  0  0
  5  6  1  0  0  0  0
  5 23  1  0  0  0  0
  5 24  1  0  0  0  0
  6 11  1  0  0  0  0
  6  7  2  0  0  0  0
  7  8  1  0  0  0  0
  7 25  1  0  0  0  0
  8  9  2  0  0  0  0
  8 26  1  0  0  0  0
  9 10  1  0  0  0  0
  9 27  1  0  0  0  0
 10 11  2  0  0  0  0
 10 28  1  0  0  0  0
 11 37  1  0  0  0  0
 12 13  1  0  0  0  0
 12 29  1  0  0  0  0
 13 19  1  0  0  0  0
 13 14  1  0  0  0  0
 13 30  1  0  0  0  0
 14 15  1  0  0  0  0
 14 31  1  0  0  0  0
 14 32  1  0  0  0  0
 15 16  1  0  0  0  0
 15 33  1  0  0  0  0
 15 34  1  0  0  0  0
 16 17  2  0  0  0  0
 16 18  2  0  0  0  0
 16 19  1  0  0  0  0
 19 35  1  0  0  0  0
 19 36  1  0  0  0  0
M  CHG  1  11   1
M  END
> <s_m_source_file>
AV-unprocessed.smi

> <i_m_source_file_index>
1534

> <i_lp_mmshare_version>
43012

> <i_f3d_flags>
0

> <s_epik_input>
Tz1TMSg9TylbQ0gyXVtDSDJdW0NASF0oW0NIMl0xKVtOSF1DKD1PKVtOSF1bQ0gyXVtDSDJdYzJbY0hdW2NIXVtjSF1bY0hdbjI=

> <s_epik_cmdline>
J2VwaWtfcHl0aG9uJywgJy1waCcsICc3LjAnLCAnLXRuJywgJzgnLCAnLW1hJywgJzIwMCcsICctbWV0YWxfYmluZGluZycsICctaW1hZScsICc8aW5maWxlLm1hZT4nLCAnLW9tYWUnLCAnPG91dGZpbGUubWFlPic=

> <r_epik_Ionization_Penalty>
1.58466

> <r_epik_Ionization_Penalty_Charging>
1.58462

> <r_epik_Ionization_Penalty_Neutral>
3.4911e-05

> <r_epik_State_Penalty>
1.6815

> <r_epik_Charging_Adjusted_Penalty>
3.26612

> <i_epik_Tot_Q>
1

> <i_epik_Tot_abs_Q>
1

> <r_epik_Metal_State_Penalty>
1.72144

> <b_epik_Metal_Only>
0

> <s_lp_Force_Field>
OPLS_2005

> <r_lp_Energy>
16.0644

> <b_lp_Chiralities_Consistent>
1

> <s_lp_Variant>
AV-unprocessed.smi:1534-3

> <Gold.Version>
5.8.1

> <Gold.Id.Protein>
6NUR|6NUR_protein|mol2

> <Gold.PLP.Fitness>
49.3245

> <Gold.PLP.PLP>
-33.1844

> <Gold.PLP.part.hbond>
-8.0000

> <Gold.PLP.part.metal>
0.0000

> <Gold.PLP.part.buried>
1.8989

> <Gold.PLP.part.nonpolar>
-28.9587

> <Gold.PLP.part.repulsive>
0.7838

> <Gold.PLP.ligand.clash>
0.0000

> <Gold.PLP.ligand.torsion>
0.3463

> <Gold.PLP.Chemscore.Hbond>
5.6080

> <Gold.PLP.Chemscore.CHOScore>
0.0000

> <Gold.PLP.Chemscore.Metal>
0.0000

> <Gold.Chemscore.Hbonds>
donor molecule, donor type, donor heavy atom, donor atom, acceptor molecule, acceptor atom, score
      L1  H     3    20       P1  7957  0.90
      L1  H    11    37       P1 10175  2.00
      L1  H    12    29       P1  7957  0.90
      P1  H  7997  8009       L1    17  0.77
      P1  H 10752 10765       L1    18  0.78

> <Gold.PLP.Chemscore.Internal.Correction>
0.0087

> <Gold.Rescore>
     Score         DG    S(hbond)    S(metal)    S(lipo)     H(rot)  DE(clash)    DE(int)     intcor
     18.68     -21.85       4.05        0.00      64.21       1.82       1.75       1.42       ----

> <Gold.Chemscore.Fitness>
18.6803

> <Gold.Chemscore.DG>
-21.8523

> <Gold.Chemscore.ZeroCoef>
-5.4800

> <Gold.Chemscore.Hbond>
4.0492

> <Gold.Chemscore.Metal>
0.0000

> <Gold.Chemscore.Lipo>
64.2063

> <Gold.Chemscore.Internal_Hbond>
0.0000

> <Gold.Chemscore.DEClash>
1.7492

> <Gold.Chemscore.DEInternal>
1.4228

> <Gold.Chemscore.Rot>
1.8220

> <Gold.Chemscore.Internal.Correction>
   9.000000E+99

> <Gold.Chemscore.Hbonds>
donor molecule, donor type, donor heavy atom, donor atom, acceptor molecule, acceptor atom, score
      L1  H     3    20       P1  7957  0.88
      L1  H    11    37       P1 10175  0.95
      L1  H    12    29       P1  7957  0.88
      P1  H  7997  8009       L1    17  0.51
      P1  H 10752 10765       L1    18  0.61

> <Gold.Chemscore.Hbond.Weighted>
-13.5243

> <Gold.Chemscore.Metal.Weighted>
-0.0000

> <Gold.Chemscore.Lipo.Weighted>
-7.5121

> <Gold.Chemscore.Internal_Hbond.Weighted>
0.0000

> <Gold.Chemscore.DEClash.Weighted>
1.7492

> <Gold.Chemscore.DEInternal.Weighted>
1.4228

> <Gold.Chemscore.Rot.Weighted>
4.6642

> <Gold.Chemscore.Internal.Correction.Weighted>
   9.000000E+99

> <Gold.Protein.RotatedTorsions>
[ 6907 6896 6895 6894 ] final -169.59 input  -60.11 | X-H torsion
[ 7974 7965 7964 7962 ] final  -57.68 input  175.53 | X-H torsion
[ 8008 7997 7996 7995 ] final -130.27 input   59.86 | X-H torsion
[ 10167 10162 10161 10158 ] final -141.34 input  -65.29 | X-H torsion
[ 10718 10713 10712 10709 ] final -115.03 input   66.30 | X-H torsion
[ 10763 10752 10751 10750 ] final -137.10 input  -60.55 | X-H torsion
[ 11005 11000 10999 10996 ] final   18.06 input  -57.11 | X-H torsion

> <Gold.Protein.ActiveResidues>
 VAL166  LYS551  ARG553  GLY616  TRP617  ASP618  TYR619  PRO620  LYS621  CYS622 
 ASP623  PHE694  ASN695  SER759  ASP760  ASP761  ALA762  ILE779  LEU786  VAL792 
 PHE793  MET794  SER795  GLU796  ALA797  LYS798  CYS799  TRP800  GLU811  SER814 

> <Gold.Protein.RotatedAtoms>
  151.4940  133.3518  159.2857 H   0  0  0  0  0  0  0  0  0  0  0  0  # atno 6907 bound_to 6896
  150.8816  134.8210  159.7240 H   0  0  0  0  0  0  0  0  0  0  0  0  # atno 6908 bound_to 6896
  152.4766  134.4838  159.9726 H   0  0  0  0  0  0  0  0  0  0  0  0  # atno 6909 bound_to 6896
  145.8482  140.8371  142.9999 H   0  0  0  0  0  0  0  0  0  0  0  0  # atno 7974 bound_to 7965
  155.2929  140.0449  157.3024 H   0  0  0  0  0  0  0  0  0  0  0  0  # atno 8008 bound_to 7997
  154.5531  140.2323  155.8421 H   0  0  0  0  0  0  0  0  0  0  0  0  # atno 8009 bound_to 7997
  156.1984  140.3032  155.9481 H   0  0  0  0  0  0  0  0  0  0  0  0  # atno 8010 bound_to 7997
  139.8194  143.7594  152.2666 H   0  0  0  0  0  0  0  0  0  0  0  0  # atno 10167 bound_to 10162
  156.0869  130.6059  150.8853 H   0  0  0  0  0  0  0  0  0  0  0  0  # atno 10718 bound_to 10713
  154.8669  135.3652  154.5168 H   0  0  0  0  0  0  0  0  0  0  0  0  # atno 10763 bound_to 10752
  153.5800  135.7018  153.5472 H   0  0  0  0  0  0  0  0  0  0  0  0  # atno 10764 bound_to 10752
  153.3466  135.4083  155.1576 H   0  0  0  0  0  0  0  0  0  0  0  0  # atno 10765 bound_to 10752
  140.4290  134.1440  155.7679 H   0  0  0  0  0  0  0  0  0  0  0  0  # atno 11005 bound_to 11000
  144.6730  140.0913  143.7465 LP  0  0  0  0  0  0  0  0  0  0  0  0  # atno 17320 bound_to 7965
  145.9388  139.2655  143.1281 LP  0  0  0  0  0  0  0  0  0  0  0  0  # atno 17321 bound_to 7965
  139.7768  144.7458  151.0145 LP  0  0  0  0  0  0  0  0  0  0  0  0  # atno 17342 bound_to 10162
  140.7814  143.4585  151.0311 LP  0  0  0  0  0  0  0  0  0  0  0  0  # atno 17343 bound_to 10162
  157.6006  131.0941  150.8967 LP  0  0  0  0  0  0  0  0  0  0  0  0  # atno 17370 bound_to 10713
  156.9125  130.5286  149.5280 LP  0  0  0  0  0  0  0  0  0  0  0  0  # atno 17371 bound_to 10713
  141.1753  133.8526  157.1440 LP  0  0  0  0  0  0  0  0  0  0  0  0  # atno 17394 bound_to 11000
  140.0147  134.9972  157.0469 LP  0  0  0  0  0  0  0  0  0  0  0  0  # atno 17395 bound_to 11000

$$$$
