AV-unprocessed.smi:2044|AV-procd|sdf|8307|dock10
  -GOLD-   2272010573D 1   1.00000     0.00000
 Structure written by MMmdl.
 39 40  0  0  0  0  0  0  0  0  3 V2000
  153.3510  142.1809  161.3385 C   0  0  0  0  0  0  0  0  0  0  0  0
  153.0822  141.4716  160.0553 C   0  0  0  0  0  0  0  0  0  0  0  0
  152.1740  141.6756  159.0550 C   0  0  0  0  0  0  0  0  0  0  0  0
  152.4678  140.6331  158.1364 C   0  0  0  0  0  0  0  0  0  0  0  0
  151.7304  140.5008  156.9305 N   0  0  0  0  0  0  0  0  0  0  0  0
  152.0065  139.7403  155.8560 C   0  0  0  0  0  0  0  0  0  0  0  0
  152.9876  138.9871  155.8585 O   0  0  0  0  0  0  0  0  0  0  0  0
  151.1175  139.9326  154.8421 N   0  5  0  0  0  0  0  0  0  0  0  0
  150.3949  138.8655  154.1408 C   0  0  0  0  0  0  0  0  0  0  0  0
  149.0658  138.4966  154.8572 C   0  0  1  0  0  0  0  0  0  0  0  0
  148.6016  139.5334  155.9108 C   0  0  0  0  0  0  0  0  0  0  0  0
  148.0125  138.0999  153.8687 N   0  3  0  0  0  0  0  0  0  0  0  0
  146.9640  137.2076  154.4195 C   0  0  0  0  0  0  0  0  0  0  0  0
  146.0726  136.6789  153.2825 C   0  0  0  0  0  0  0  0  0  0  0  0
  145.5097  137.7680  152.5603 O   0  0  0  0  0  0  0  0  0  0  0  0
  146.5092  138.5879  151.9658 C   0  0  0  0  0  0  0  0  0  0  0  0
  147.3936  139.1902  153.0678 C   0  0  0  0  0  0  0  0  0  0  0  0
  153.4714  139.8662  158.5372 N   0  0  0  0  0  0  0  0  0  0  0  0
  153.8676  140.3974  159.7703 O   0  0  0  0  0  0  0  0  0  0  0  0
  153.2779  143.2605  161.2063 H   0  0  0  0  0  0  0  0  0  0  0  0
  154.3506  141.9544  161.7105 H   0  0  0  0  0  0  0  0  0  0  0  0
  152.6308  141.8838  162.1009 H   0  0  0  0  0  0  0  0  0  0  0  0
  151.4199  142.4463  158.9930 H   0  0  0  0  0  0  0  0  0  0  0  0
  150.8987  141.0687  156.8635 H   0  0  0  0  0  0  0  0  0  0  0  0
  150.1693  139.1371  153.1085 H   0  0  0  0  0  0  0  0  0  0  0  0
  151.0090  137.9681  154.0654 H   0  0  0  0  0  0  0  0  0  0  0  0
  149.3097  137.6043  155.4357 H   0  0  0  0  0  0  0  0  0  0  0  0
  149.3605  139.6952  156.6785 H   0  0  0  0  0  0  0  0  0  0  0  0
  147.7083  139.1842  156.4293 H   0  0  0  0  0  0  0  0  0  0  0  0
  148.3713  140.5074  155.4760 H   0  0  0  0  0  0  0  0  0  0  0  0
  147.4235  136.3644  154.9369 H   0  0  0  0  0  0  0  0  0  0  0  0
  146.3667  137.7524  155.1520 H   0  0  0  0  0  0  0  0  0  0  0  0
  146.6444  136.0396  152.6075 H   0  0  0  0  0  0  0  0  0  0  0  0
  145.2656  136.0700  153.6902 H   0  0  0  0  0  0  0  0  0  0  0  0
  147.1062  138.0081  151.2596 H   0  0  0  0  0  0  0  0  0  0  0  0
  146.0239  139.3813  151.3972 H   0  0  0  0  0  0  0  0  0  0  0  0
  146.7902  139.8351  153.7076 H   0  0  0  0  0  0  0  0  0  0  0  0
  148.1626  139.8129  152.6107 H   0  0  0  0  0  0  0  0  0  0  0  0
  148.5160  137.5340  153.1988 H   0  0  0  0  0  0  0  0  0  0  0  0
  1  2  1  0  0  0  0
  1 20  1  0  0  0  0
  1 21  1  0  0  0  0
  1 22  1  0  0  0  0
  2 19  1  0  0  0  0
  2  3  2  0  0  0  0
  3  4  1  0  0  0  0
  3 23  1  0  0  0  0
  4  5  1  0  0  0  0
  4 18  2  0  0  0  0
  5  6  1  0  0  0  0
  5 24  1  0  0  0  0
  6  7  2  0  0  0  0
  6  8  1  0  0  0  0
  8  9  1  0  0  0  0
  9 10  1  0  0  0  0
  9 25  1  0  0  0  0
  9 26  1  0  0  0  0
 10 11  1  0  0  0  0
 10 12  1  0  0  0  0
 10 27  1  0  0  0  0
 11 28  1  0  0  0  0
 11 29  1  0  0  0  0
 11 30  1  0  0  0  0
 12 17  1  0  0  0  0
 12 13  1  0  0  0  0
 12 39  1  0  0  0  0
 13 14  1  0  0  0  0
 13 31  1  0  0  0  0
 13 32  1  0  0  0  0
 14 15  1  0  0  0  0
 14 33  1  0  0  0  0
 14 34  1  0  0  0  0
 15 16  1  0  0  0  0
 16 17  1  0  0  0  0
 16 35  1  0  0  0  0
 16 36  1  0  0  0  0
 17 37  1  0  0  0  0
 17 38  1  0  0  0  0
 18 19  1  0  0  0  0
M  CHG  1   8  -1
M  CHG  1  12   1
M  END
> <s_m_source_file>
AV-unprocessed.smi

> <i_m_source_file_index>
2044

> <i_lp_mmshare_version>
43012

> <i_f3d_flags>
0

> <s_epik_input>
W0NIM11jMVtjSF1jKG5vMSlbTkhdQyg9TylbTkhdW0NIMl1bQ0BIXShbQ0gzXSlOMltDSDJdW0NIMl1PW0NIMl1bQ0gyXTI=

> <s_epik_cmdline>
J2VwaWtfcHl0aG9uJywgJy1waCcsICc3LjAnLCAnLXRuJywgJzgnLCAnLW1hJywgJzIwMCcsICctbWV0YWxfYmluZGluZycsICctaW1hZScsICc8aW5maWxlLm1hZT4nLCAnLW9tYWUnLCAnPG91dGZpbGUubWFlPic=

> <r_epik_Ionization_Penalty>
6.79272

> <r_epik_Ionization_Penalty_Charging>
6.79272

> <r_epik_Ionization_Penalty_Neutral>
5.6208e-06

> <r_epik_State_Penalty>
7.45901

> <r_epik_Charging_Adjusted_Penalty>
14.2517

> <i_epik_Tot_Q>
0

> <i_epik_Tot_abs_Q>
2

> <r_epik_Metal_State_Penalty>
3.38639

> <b_epik_Metal_Only>
1

> <s_lp_Force_Field>
OPLS_2005

> <r_lp_Energy>
15.3215

> <b_lp_Chiralities_Consistent>
1

> <s_lp_Variant>
AV-unprocessed.smi:2044-10

> <Gold.Version>
5.8.1

> <Gold.Id.Protein>
6NUR|6NUR_protein|mol2

> <Gold.PLP.Fitness>
41.2628

> <Gold.PLP.PLP>
-31.0305

> <Gold.PLP.part.hbond>
-4.0000

> <Gold.PLP.part.metal>
0.0000

> <Gold.PLP.part.buried>
-3.0569

> <Gold.PLP.part.nonpolar>
-23.8499

> <Gold.PLP.part.repulsive>
0.4342

> <Gold.PLP.ligand.clash>
0.0000

> <Gold.PLP.ligand.torsion>
1.4613

> <Gold.PLP.Chemscore.Hbond>
4.3120

> <Gold.PLP.Chemscore.CHOScore>
0.0000

> <Gold.PLP.Chemscore.Metal>
0.0000

> <Gold.Chemscore.Hbonds>
donor molecule, donor type, donor heavy atom, donor atom, acceptor molecule, acceptor atom, score
      L1  H    12    39       P1  7948  2.00
      P1  H  7989  7998       L1     8  1.00
      P1  H  7997  8008       L1     7  0.62
      P1  H  7997  8010       L1    18  0.67

> <Gold.PLP.Chemscore.Internal.Correction>
0.2190

> <Gold.Rescore>
     Score         DG    S(hbond)    S(metal)    S(lipo)     H(rot)  DE(clash)    DE(int)     intcor
     13.94     -16.98       2.45        0.00      63.33       1.59       0.10       2.93       ----

> <Gold.Chemscore.Fitness>
13.9446

> <Gold.Chemscore.DG>
-16.9784

> <Gold.Chemscore.ZeroCoef>
-5.4800

> <Gold.Chemscore.Hbond>
2.4452

> <Gold.Chemscore.Metal>
0.0000

> <Gold.Chemscore.Lipo>
63.3290

> <Gold.Chemscore.Internal_Hbond>
0.0000

> <Gold.Chemscore.DEClash>
0.1046

> <Gold.Chemscore.DEInternal>
2.9291

> <Gold.Chemscore.Rot>
1.5930

> <Gold.Chemscore.Internal.Correction>
   9.000000E+99

> <Gold.Chemscore.Hbonds>
donor molecule, donor type, donor heavy atom, donor atom, acceptor molecule, acceptor atom, score
      L1  H    12    39       P1  7948  1.00
      P1  H  7989  7998       L1     8  0.24
      P1  H  7997  8008       L1     7  0.29
      P1  H  7997  8010       L1    18  0.28

> <Gold.Chemscore.Hbond.Weighted>
-8.1669

> <Gold.Chemscore.Metal.Weighted>
-0.0000

> <Gold.Chemscore.Lipo.Weighted>
-7.4095

> <Gold.Chemscore.Internal_Hbond.Weighted>
0.0000

> <Gold.Chemscore.DEClash.Weighted>
0.1046

> <Gold.Chemscore.DEInternal.Weighted>
2.9291

> <Gold.Chemscore.Rot.Weighted>
4.0781

> <Gold.Chemscore.Internal.Correction.Weighted>
   9.000000E+99

> <Gold.Protein.RotatedTorsions>
[ 6907 6896 6895 6894 ] final  115.74 input  -60.11 | X-H torsion
[ 7974 7965 7964 7962 ] final  145.03 input  175.53 | X-H torsion
[ 8008 7997 7996 7995 ] final   -1.46 input   59.86 | X-H torsion
[ 10167 10162 10161 10158 ] final -163.36 input  -65.29 | X-H torsion
[ 10718 10713 10712 10709 ] final -162.19 input   66.30 | X-H torsion
[ 10763 10752 10751 10750 ] final  172.02 input  -60.55 | X-H torsion
[ 11005 11000 10999 10996 ] final   -3.15 input  -57.11 | X-H torsion

> <Gold.Protein.ActiveResidues>
 VAL166  LYS551  ARG553  GLY616  TRP617  ASP618  TYR619  PRO620  LYS621  CYS622 
 ASP623  PHE694  ASN695  SER759  ASP760  ASP761  ALA762  ILE779  LEU786  VAL792 
 PHE793  MET794  SER795  GLU796  ALA797  LYS798  CYS799  TRP800  GLU811  SER814 

> <Gold.Protein.RotatedAtoms>
  152.4722  133.8056  159.6975 H   0  0  0  0  0  0  0  0  0  0  0  0  # atno 6907 bound_to 6896
  150.8718  133.7485  159.2965 H   0  0  0  0  0  0  0  0  0  0  0  0  # atno 6908 bound_to 6896
  151.5018  135.1065  159.9883 H   0  0  0  0  0  0  0  0  0  0  0  0  # atno 6909 bound_to 6896
  144.8786  139.5733  143.5853 H   0  0  0  0  0  0  0  0  0  0  0  0  # atno 7974 bound_to 7965
  154.6465  140.2559  155.7262 H   0  0  0  0  0  0  0  0  0  0  0  0  # atno 8008 bound_to 7997
  156.2555  140.2876  156.0802 H   0  0  0  0  0  0  0  0  0  0  0  0  # atno 8009 bound_to 7997
  155.1515  140.0382  157.2812 H   0  0  0  0  0  0  0  0  0  0  0  0  # atno 8010 bound_to 7997
  139.6326  144.0410  152.2028 H   0  0  0  0  0  0  0  0  0  0  0  0  # atno 10167 bound_to 10162
  156.6069  130.8834  151.2927 H   0  0  0  0  0  0  0  0  0  0  0  0  # atno 10718 bound_to 10713
  154.4201  135.2757  155.1981 H   0  0  0  0  0  0  0  0  0  0  0  0  # atno 10763 bound_to 10752
  154.3930  135.6062  153.5857 H   0  0  0  0  0  0  0  0  0  0  0  0  # atno 10764 bound_to 10752
  152.9833  135.5908  154.4496 H   0  0  0  0  0  0  0  0  0  0  0  0  # atno 10765 bound_to 10752
  140.6661  133.9277  155.8466 H   0  0  0  0  0  0  0  0  0  0  0  0  # atno 11005 bound_to 11000
  146.2980  139.7336  142.9113 LP  0  0  0  0  0  0  0  0  0  0  0  0  # atno 17320 bound_to 7965
  145.3995  141.0383  143.3078 LP  0  0  0  0  0  0  0  0  0  0  0  0  # atno 17321 bound_to 7965
  140.0080  144.6245  150.7672 LP  0  0  0  0  0  0  0  0  0  0  0  0  # atno 17342 bound_to 10162
  140.7448  143.2865  151.3448 LP  0  0  0  0  0  0  0  0  0  0  0  0  # atno 17343 bound_to 10162
  157.7265  130.9630  150.1658 LP  0  0  0  0  0  0  0  0  0  0  0  0  # atno 17370 bound_to 10713
  156.2422  130.3692  149.8324 LP  0  0  0  0  0  0  0  0  0  0  0  0  # atno 17371 bound_to 10713
  141.0428  134.0597  157.3881 LP  0  0  0  0  0  0  0  0  0  0  0  0  # atno 17394 bound_to 11000
  139.8997  135.0159  156.7206 LP  0  0  0  0  0  0  0  0  0  0  0  0  # atno 17395 bound_to 11000

$$$$
