AV-unprocessed.smi:1047|AV-procd|sdf|4585|dock7
  -GOLD-   22720 3 53D 1   1.00000     0.00000
 Structure written by MMmdl.
 58 60  0  0  0  0  0  0  0  0  4 V2000
  143.0838  147.6717  155.1174 C   0  0  0  0  0  0  0  0  0  0  0  0
  143.3053  146.6684  156.2584 C   0  0  0  0  0  0  0  0  0  0  0  0
  142.8934  145.2874  155.8904 N   0  3  2  0  0  0  0  0  0  0  0  0
  142.7941  144.3702  157.0516 C   0  0  0  0  0  0  0  0  0  0  0  0
  144.1851  143.8868  157.4993 C   0  0  0  0  0  0  0  0  0  0  0  0
  144.8470  143.2671  156.4028 O   0  0  0  0  0  0  0  0  0  0  0  0
  145.0637  144.1621  155.3161 C   0  0  1  0  0  0  0  0  0  0  0  0
  145.8337  143.4048  154.2230 C   0  0  0  0  0  0  0  0  0  0  0  0
  147.0357  142.7424  154.7687 N   0  3  0  0  0  0  0  0  0  0  0  0
  147.7887  141.9502  153.7751 C   0  0  0  0  0  0  0  0  0  0  0  0
  148.9300  141.1580  154.4349 C   0  0  1  0  0  0  0  0  0  0  0  0
  149.8510  140.7727  153.4334 O   0  0  0  0  0  0  0  0  0  0  0  0
  149.6540  141.9900  155.5118 C   0  0  0  0  0  0  0  0  0  0  0  0
  150.5115  141.1768  156.3871 N   0  0  0  0  0  0  0  0  0  0  0  0
  150.9126  139.8833  156.2496 C   0  0  0  0  0  0  0  0  0  0  0  0
  151.6857  139.5752  157.3272 N   0  3  0  0  0  0  0  0  0  0  0  0
  151.7786  140.6863  158.1674 C   0  0  0  0  0  0  0  0  0  0  0  0
  152.4451  140.8599  159.3743 C   0  0  0  0  0  0  0  0  0  0  0  0
  152.3444  142.1276  159.9902 C   0  0  0  0  0  0  0  0  0  0  0  0
  153.0594  142.3499  161.3123 C   0  0  0  0  0  0  0  0  0  0  0  0
  151.5942  143.1725  159.3915 C   0  0  0  0  0  0  0  0  0  0  0  0
  151.4958  144.5325  160.0614 C   0  0  0  0  0  0  0  0  0  0  0  0
  150.9223  142.9754  158.1636 C   0  0  0  0  0  0  0  0  0  0  0  0
  151.0289  141.7191  157.5705 C   0  0  0  0  0  0  0  0  0  0  0  0
  143.6936  144.6626  154.8052 C   0  0  0  0  0  0  0  0  0  0  0  0
  143.2958  148.6867  155.4542 H   0  0  0  0  0  0  0  0  0  0  0  0
  142.0509  147.6507  154.7685 H   0  0  0  0  0  0  0  0  0  0  0  0
  143.7325  147.4752  154.2644 H   0  0  0  0  0  0  0  0  0  0  0  0
  144.3430  146.6927  156.5905 H   0  0  0  0  0  0  0  0  0  0  0  0
  142.7068  147.0002  157.1077 H   0  0  0  0  0  0  0  0  0  0  0  0
  142.2631  144.8457  157.8770 H   0  0  0  0  0  0  0  0  0  0  0  0
  142.1919  143.5096  156.7576 H   0  0  0  0  0  0  0  0  0  0  0  0
  144.7859  144.7095  157.8895 H   0  0  0  0  0  0  0  0  0  0  0  0
  144.0854  143.1593  158.3050 H   0  0  0  0  0  0  0  0  0  0  0  0
  145.6694  145.0056  155.6512 H   0  0  0  0  0  0  0  0  0  0  0  0
  145.1874  142.6635  153.7509 H   0  0  0  0  0  0  0  0  0  0  0  0
  146.1466  144.1009  153.4436 H   0  0  0  0  0  0  0  0  0  0  0  0
  147.6509  143.4447  155.1537 H   0  0  0  0  0  0  0  0  0  0  0  0
  147.1108  141.2753  153.2497 H   0  0  0  0  0  0  0  0  0  0  0  0
  148.1983  142.6336  153.0301 H   0  0  0  0  0  0  0  0  0  0  0  0
  148.5277  140.2548  154.8961 H   0  0  0  0  0  0  0  0  0  0  0  0
  149.5630  139.9536  153.0591 H   0  0  0  0  0  0  0  0  0  0  0  0
  150.2469  142.7887  155.0653 H   0  0  0  0  0  0  0  0  0  0  0  0
  148.9213  142.4807  156.1537 H   0  0  0  0  0  0  0  0  0  0  0  0
  150.6601  139.2187  155.4357 H   0  0  0  0  0  0  0  0  0  0  0  0
  153.0156  140.0602  159.8240 H   0  0  0  0  0  0  0  0  0  0  0  0
  152.3477  142.6259  162.0908 H   0  0  0  0  0  0  0  0  0  0  0  0
  153.7986  143.1461  161.2196 H   0  0  0  0  0  0  0  0  0  0  0  0
  153.5793  141.4496  161.6413 H   0  0  0  0  0  0  0  0  0  0  0  0
  150.9033  145.2287  159.4670 H   0  0  0  0  0  0  0  0  0  0  0  0
  152.4866  144.9680  160.1933 H   0  0  0  0  0  0  0  0  0  0  0  0
  151.0231  144.4438  161.0397 H   0  0  0  0  0  0  0  0  0  0  0  0
  150.3542  143.7738  157.7098 H   0  0  0  0  0  0  0  0  0  0  0  0
  143.1239  143.8169  154.4170 H   0  0  0  0  0  0  0  0  0  0  0  0
  143.8196  145.3475  153.9675 H   0  0  0  0  0  0  0  0  0  0  0  0
  146.7501  142.1208  155.5126 H   0  0  0  0  0  0  0  0  0  0  0  0
  141.9522  145.3825  155.5355 H   0  0  0  0  0  0  0  0  0  0  0  0
  152.1138  138.6704  157.4780 H   0  0  0  0  0  0  0  0  0  0  0  0
  1  2  1  0  0  0  0
  1 26  1  0  0  0  0
  1 27  1  0  0  0  0
  1 28  1  0  0  0  0
  2  3  1  0  0  0  0
  2 29  1  0  0  0  0
  2 30  1  0  0  0  0
  3 25  1  0  0  0  0
  3  4  1  0  0  0  0
  3 57  1  0  0  0  0
  4  5  1  0  0  0  0
  4 31  1  0  0  0  0
  4 32  1  0  0  0  0
  5  6  1  0  0  0  0
  5 33  1  0  0  0  0
  5 34  1  0  0  0  0
  6  7  1  0  0  0  0
  7  8  1  0  0  0  0
  7 25  1  0  0  0  0
  7 35  1  0  0  0  0
  8  9  1  0  0  0  0
  8 36  1  0  0  0  0
  8 37  1  0  0  0  0
  9 10  1  0  0  0  0
  9 38  1  0  0  0  0
  9 56  1  0  0  0  0
 10 11  1  0  0  0  0
 10 39  1  0  0  0  0
 10 40  1  0  0  0  0
 11 12  1  0  0  0  0
 11 13  1  0  0  0  0
 11 41  1  0  0  0  0
 12 42  1  0  0  0  0
 13 14  1  0  0  0  0
 13 43  1  0  0  0  0
 13 44  1  0  0  0  0
 14 24  1  0  0  0  0
 14 15  1  0  0  0  0
 15 16  2  0  0  0  0
 15 45  1  0  0  0  0
 16 17  1  0  0  0  0
 16 58  1  0  0  0  0
 17 24  2  0  0  0  0
 17 18  1  0  0  0  0
 18 19  2  0  0  0  0
 18 46  1  0  0  0  0
 19 20  1  0  0  0  0
 19 21  1  0  0  0  0
 20 47  1  0  0  0  0
 20 48  1  0  0  0  0
 20 49  1  0  0  0  0
 21 22  1  0  0  0  0
 21 23  2  0  0  0  0
 22 50  1  0  0  0  0
 22 51  1  0  0  0  0
 22 52  1  0  0  0  0
 23 24  1  0  0  0  0
 23 53  1  0  0  0  0
 25 54  1  0  0  0  0
 25 55  1  0  0  0  0
M  CHG  1   3   1
M  CHG  1   9   1
M  CHG  1  16   1
M  END
> <s_m_source_file>
AV-unprocessed.smi

> <i_m_source_file_index>
1047

> <i_lp_mmshare_version>
43012

> <i_f3d_flags>
0

> <s_epik_input>
W0NIM11bQ0gyXU4xW0NIMl1bQ0gyXU9bQ0BIXShbQ0gyXTEpW0NIMl1bTkhdW0NIMl1bQ0BIXShbT0hdKVtDSDJdbihbY0hdbjIpYyhjMjMpW2NIXWMoW0NIM10pYyhbY0hdMylbQ0gzXQ==

> <s_epik_cmdline>
J2VwaWtfcHl0aG9uJywgJy1waCcsICc3LjAnLCAnLXRuJywgJzgnLCAnLW1hJywgJzIwMCcsICctbWV0YWxfYmluZGluZycsICctaW1hZScsICc8aW5maWxlLm1hZT4nLCAnLW9tYWUnLCAnPG91dGZpbGUubWFlPic=

> <r_epik_Ionization_Penalty>
1.6114

> <r_epik_Ionization_Penalty_Charging>
1.61139

> <r_epik_Ionization_Penalty_Neutral>
5.04732e-06

> <r_epik_State_Penalty>
1.63724

> <r_epik_Charging_Adjusted_Penalty>
3.24864

> <i_epik_Tot_Q>
3

> <i_epik_Tot_abs_Q>
3

> <r_epik_Metal_State_Penalty>
5.64594

> <b_epik_Metal_Only>
0

> <s_lp_Force_Field>
OPLS_2005

> <r_lp_Energy>
39.6477

> <b_lp_Chiralities_Consistent>
1

> <s_lp_Variant>
AV-unprocessed.smi:1047-26

> <Gold.Version>
5.8.1

> <Gold.Id.Protein>
6NUR|6NUR_protein|mol2

> <Gold.PLP.Fitness>
60.5751

> <Gold.PLP.PLP>
-51.0619

> <Gold.PLP.part.hbond>
-3.0914

> <Gold.PLP.part.metal>
0.0000

> <Gold.PLP.part.buried>
-3.7201

> <Gold.PLP.part.nonpolar>
-42.9809

> <Gold.PLP.part.repulsive>
0.2722

> <Gold.PLP.ligand.clash>
0.0000

> <Gold.PLP.ligand.torsion>
0.5038

> <Gold.PLP.Chemscore.Hbond>
3.4393

> <Gold.PLP.Chemscore.CHOScore>
0.0000

> <Gold.PLP.Chemscore.Metal>
0.0000

> <Gold.Chemscore.Hbonds>
donor molecule, donor type, donor heavy atom, donor atom, acceptor molecule, acceptor atom, score
      L1  H     9    38       P1  8028  2.00
      L1  H    12    42       P1  7957  0.21
      P1  H  7989  7998       L1    12  0.34
      P1  H  8011  8017       L1    12  0.95

> <Gold.PLP.Chemscore.Internal.Correction>
0.2031

> <Gold.Rescore>
     Score         DG    S(hbond)    S(metal)    S(lipo)     H(rot)  DE(clash)    DE(int)     intcor
     16.36     -18.24       1.30        0.00     132.89       2.78       1.32       0.56       ----

> <Gold.Chemscore.Fitness>
16.3609

> <Gold.Chemscore.DG>
-18.2422

> <Gold.Chemscore.ZeroCoef>
-5.4800

> <Gold.Chemscore.Hbond>
1.3002

> <Gold.Chemscore.Metal>
0.0000

> <Gold.Chemscore.Lipo>
132.8943

> <Gold.Chemscore.Internal_Hbond>
0.0000

> <Gold.Chemscore.DEClash>
1.3172

> <Gold.Chemscore.DEInternal>
0.5641

> <Gold.Chemscore.Rot>
2.7848

> <Gold.Chemscore.Internal.Correction>
   9.000000E+99

> <Gold.Chemscore.Hbonds>
donor molecule, donor type, donor heavy atom, donor atom, acceptor molecule, acceptor atom, score
      L1  H     9    38       P1  8028  0.26
      L1  H    12    42       P1  7957  0.20
      P1  H  7989  7998       L1    12  0.28
      P1  H  8011  8017       L1    12  0.20

> <Gold.Chemscore.Hbond.Weighted>
-4.3427

> <Gold.Chemscore.Metal.Weighted>
-0.0000

> <Gold.Chemscore.Lipo.Weighted>
-15.5486

> <Gold.Chemscore.Internal_Hbond.Weighted>
0.0000

> <Gold.Chemscore.DEClash.Weighted>
1.3172

> <Gold.Chemscore.DEInternal.Weighted>
0.5641

> <Gold.Chemscore.Rot.Weighted>
7.1291

> <Gold.Chemscore.Internal.Correction.Weighted>
   9.000000E+99

> <Gold.Protein.RotatedTorsions>
[ 6907 6896 6895 6894 ] final   51.88 input  -60.11 | X-H torsion
[ 7974 7965 7964 7962 ] final  -97.42 input  175.53 | X-H torsion
[ 8008 7997 7996 7995 ] final  -88.82 input   59.86 | X-H torsion
[ 10167 10162 10161 10158 ] final  120.63 input  -65.29 | X-H torsion
[ 10718 10713 10712 10709 ] final   21.57 input   66.30 | X-H torsion
[ 10763 10752 10751 10750 ] final   57.80 input  -60.55 | X-H torsion
[ 11005 11000 10999 10996 ] final  -89.16 input  -57.11 | X-H torsion

> <Gold.Protein.ActiveResidues>
 VAL166  LYS551  ARG553  GLY616  TRP617  ASP618  TYR619  PRO620  LYS621  CYS622 
 ASP623  PHE694  ASN695  SER759  ASP760  ASP761  ALA762  ILE779  LEU786  VAL792 
 PHE793  MET794  SER795  GLU796  ALA797  LYS798  CYS799  TRP800  GLU811  SER814 

> <Gold.Protein.RotatedAtoms>
  152.3173  134.7423  160.0321 H   0  0  0  0  0  0  0  0  0  0  0  0  # atno 6907 bound_to 6896
  151.7884  133.3351  159.3500 H   0  0  0  0  0  0  0  0  0  0  0  0  # atno 6908 bound_to 6896
  150.7351  134.5797  159.5976 H   0  0  0  0  0  0  0  0  0  0  0  0  # atno 6909 bound_to 6896
  145.3340  140.9447  143.2645 H   0  0  0  0  0  0  0  0  0  0  0  0  # atno 7974 bound_to 7965
  154.6793  140.0549  157.0249 H   0  0  0  0  0  0  0  0  0  0  0  0  # atno 8008 bound_to 7997
  155.0974  140.3225  155.4538 H   0  0  0  0  0  0  0  0  0  0  0  0  # atno 8009 bound_to 7997
  156.2688  140.2037  156.6100 H   0  0  0  0  0  0  0  0  0  0  0  0  # atno 8010 bound_to 7997
  139.5970  144.7045  151.3152 H   0  0  0  0  0  0  0  0  0  0  0  0  # atno 10167 bound_to 10162
  157.1403  130.6629  149.5979 H   0  0  0  0  0  0  0  0  0  0  0  0  # atno 10718 bound_to 10713
  152.9857  135.5629  154.5449 H   0  0  0  0  0  0  0  0  0  0  0  0  # atno 10763 bound_to 10752
  154.4897  135.2792  155.1508 H   0  0  0  0  0  0  0  0  0  0  0  0  # atno 10764 bound_to 10752
  154.2983  135.6312  153.5467 H   0  0  0  0  0  0  0  0  0  0  0  0  # atno 10765 bound_to 10752
  141.1589  133.7613  156.9554 H   0  0  0  0  0  0  0  0  0  0  0  0  # atno 11005 bound_to 11000
  144.8842  139.4862  143.6708 LP  0  0  0  0  0  0  0  0  0  0  0  0  # atno 17320 bound_to 7965
  146.3034  139.7500  142.9074 LP  0  0  0  0  0  0  0  0  0  0  0  0  # atno 17321 bound_to 7965
  140.7220  143.7110  150.7770 LP  0  0  0  0  0  0  0  0  0  0  0  0  # atno 17342 bound_to 10162
  140.0678  143.5091  152.2595 LP  0  0  0  0  0  0  0  0  0  0  0  0  # atno 17343 bound_to 10162
  155.9790  130.4780  150.6688 LP  0  0  0  0  0  0  0  0  0  0  0  0  # atno 17370 bound_to 10713
  157.4313  131.0849  151.1036 LP  0  0  0  0  0  0  0  0  0  0  0  0  # atno 17371 bound_to 10713
  140.1229  134.9406  157.2228 LP  0  0  0  0  0  0  0  0  0  0  0  0  # atno 17394 bound_to 11000
  140.3050  134.3089  155.7280 LP  0  0  0  0  0  0  0  0  0  0  0  0  # atno 17395 bound_to 11000

$$$$
