AV-unprocessed.smi:3144|AV-procd|sdf|11978|dock9
  -GOLD-   2272017383D 1   1.00000     0.00000
 Structure written by MMmdl.
 40 41  0  0  0  0  0  0  0  0  2 V2000
  146.1665  143.3008  154.1468 C   0  0  0  0  0  0  0  0  0  0  0  0
  146.9374  142.0128  154.1027 C   0  0  0  0  0  0  0  0  0  0  0  0
  148.2708  141.7783  154.5433 C   0  0  0  0  0  0  0  0  0  0  0  0
  148.6594  140.5263  154.3626 N   0  0  0  0  0  0  0  0  0  0  0  0
  147.5919  139.9197  153.8028 N   0  0  0  0  0  0  0  0  0  0  0  0
  147.6632  138.5121  153.4629 C   0  0  0  0  0  0  0  0  0  0  0  0
  146.3717  138.0255  152.7901 C   0  0  0  0  0  0  0  0  0  0  0  0
  146.4818  136.6080  152.3962 N   0  3  0  0  0  0  0  0  0  0  0  0
  145.5976  136.2243  151.2775 C   0  0  0  0  0  0  0  0  0  0  0  0
  145.2508  134.7245  151.3150 C   0  0  0  0  0  0  0  0  0  0  0  0
  146.5305  133.8631  151.2906 C   0  0  0  0  0  0  0  0  0  0  0  0
  146.2069  132.3607  151.3335 C   0  0  0  0  0  0  0  0  0  0  0  0
  145.2686  131.9611  150.1849 C   0  0  0  0  0  0  0  0  0  0  0  0
  143.9899  132.8117  150.1956 C   0  0  0  0  0  0  0  0  0  0  0  0
  144.3181  134.3132  150.1542 C   0  0  0  0  0  0  0  0  0  0  0  0
  146.5380  140.7926  153.6349 C   0  0  0  0  0  0  0  0  0  0  0  0
  146.4687  143.9233  154.9893 H   0  0  0  0  0  0  0  0  0  0  0  0
  145.0944  143.1286  154.2449 H   0  0  0  0  0  0  0  0  0  0  0  0
  146.3174  143.8896  153.2419 H   0  0  0  0  0  0  0  0  0  0  0  0
  148.9641  142.4778  154.9869 H   0  0  0  0  0  0  0  0  0  0  0  0
  148.5202  138.3577  152.8055 H   0  0  0  0  0  0  0  0  0  0  0  0
  147.8561  137.9440  154.3739 H   0  0  0  0  0  0  0  0  0  0  0  0
  145.5283  138.1467  153.4712 H   0  0  0  0  0  0  0  0  0  0  0  0
  146.1600  138.6251  151.9037 H   0  0  0  0  0  0  0  0  0  0  0  0
  147.4379  136.4235  152.1276 H   0  0  0  0  0  0  0  0  0  0  0  0
  144.6874  136.8252  151.3055 H   0  0  0  0  0  0  0  0  0  0  0  0
  146.1066  136.4613  150.3421 H   0  0  0  0  0  0  0  0  0  0  0  0
  144.7359  134.5214  152.2558 H   0  0  0  0  0  0  0  0  0  0  0  0
  147.1071  134.0838  150.3911 H   0  0  0  0  0  0  0  0  0  0  0  0
  147.1704  134.1189  152.1360 H   0  0  0  0  0  0  0  0  0  0  0  0
  147.1282  131.7800  151.2790 H   0  0  0  0  0  0  0  0  0  0  0  0
  145.7421  132.1135  152.2890 H   0  0  0  0  0  0  0  0  0  0  0  0
  145.7833  132.0863  149.2315 H   0  0  0  0  0  0  0  0  0  0  0  0
  145.0134  130.9037  150.2620 H   0  0  0  0  0  0  0  0  0  0  0  0
  143.3600  132.5449  149.3466 H   0  0  0  0  0  0  0  0  0  0  0  0
  143.4101  132.5886  151.0923 H   0  0  0  0  0  0  0  0  0  0  0  0
  143.3890  134.8824  150.1923 H   0  0  0  0  0  0  0  0  0  0  0  0
  144.7873  134.5549  149.1996 H   0  0  0  0  0  0  0  0  0  0  0  0
  145.6005  140.4780  153.2003 H   0  0  0  0  0  0  0  0  0  0  0  0
  146.2537  136.0334  153.1949 H   0  0  0  0  0  0  0  0  0  0  0  0
  1  2  1  0  0  0  0
  1 17  1  0  0  0  0
  1 18  1  0  0  0  0
  1 19  1  0  0  0  0
  2 16  2  0  0  0  0
  2  3  1  0  0  0  0
  3  4  2  0  0  0  0
  3 20  1  0  0  0  0
  4  5  1  0  0  0  0
  5  6  1  0  0  0  0
  5 16  1  0  0  0  0
  6  7  1  0  0  0  0
  6 21  1  0  0  0  0
  6 22  1  0  0  0  0
  7  8  1  0  0  0  0
  7 23  1  0  0  0  0
  7 24  1  0  0  0  0
  8  9  1  0  0  0  0
  8 25  1  0  0  0  0
  8 40  1  0  0  0  0
  9 10  1  0  0  0  0
  9 26  1  0  0  0  0
  9 27  1  0  0  0  0
 10 15  1  0  0  0  0
 10 11  1  0  0  0  0
 10 28  1  0  0  0  0
 11 12  1  0  0  0  0
 11 29  1  0  0  0  0
 11 30  1  0  0  0  0
 12 13  1  0  0  0  0
 12 31  1  0  0  0  0
 12 32  1  0  0  0  0
 13 14  1  0  0  0  0
 13 33  1  0  0  0  0
 13 34  1  0  0  0  0
 14 15  1  0  0  0  0
 14 35  1  0  0  0  0
 14 36  1  0  0  0  0
 15 37  1  0  0  0  0
 15 38  1  0  0  0  0
 16 39  1  0  0  0  0
M  CHG  1   8   1
M  END
> <s_m_source_file>
AV-unprocessed.smi

> <i_m_source_file_index>
3144

> <i_lp_mmshare_version>
43012

> <i_f3d_flags>
0

> <s_epik_input>
W0NIM11jMVtjSF1ubihbY0hdMSlbQ0gyXVtDSDJdW05IXVtDSDJdW0NIXTJbQ0gyXVtDSDJdW0NIMl1bQ0gyXVtDSDJdMg==

> <s_epik_cmdline>
J2VwaWtfcHl0aG9uJywgJy1waCcsICc3LjAnLCAnLXRuJywgJzgnLCAnLW1hJywgJzIwMCcsICctbWV0YWxfYmluZGluZycsICctaW1hZScsICc8aW5maWxlLm1hZT4nLCAnLW9tYWUnLCAnPG91dGZpbGUubWFlPic=

> <r_lp_tautomer_probability>
1

> <r_epik_Ionization_Penalty>
0.0017464

> <r_epik_Ionization_Penalty_Charging>
0.00174052

> <r_epik_Ionization_Penalty_Neutral>
5.87243e-06

> <r_epik_State_Penalty>
-0

> <r_epik_Charging_Adjusted_Penalty>
0.00174052

> <i_epik_Tot_Q>
1

> <i_epik_Tot_abs_Q>
1

> <r_epik_Metal_State_Penalty>
-0

> <b_epik_Metal_Only>
0

> <s_lp_Force_Field>
OPLS_2005

> <r_lp_Energy>
13.1437

> <b_lp_Chiralities_Consistent>
1

> <s_lp_Variant>
AV-unprocessed.smi:3144-1

> <Gold.Version>
5.8.1

> <Gold.Id.Protein>
6NUR|6NUR_protein|mol2

> <Gold.PLP.Fitness>
44.4483

> <Gold.PLP.PLP>
-32.9957

> <Gold.PLP.part.hbond>
-1.0000

> <Gold.PLP.part.metal>
0.0000

> <Gold.PLP.part.buried>
-1.3540

> <Gold.PLP.part.nonpolar>
-32.0562

> <Gold.PLP.part.repulsive>
0.1584

> <Gold.PLP.ligand.clash>
0.0000

> <Gold.PLP.ligand.torsion>
0.2986

> <Gold.PLP.Chemscore.Hbond>
2.0000

> <Gold.PLP.Chemscore.CHOScore>
2.0000

> <Gold.PLP.Chemscore.Metal>
0.0000

> <Gold.Chemscore.Hbonds>
donor molecule, donor type, donor heavy atom, donor atom, acceptor molecule, acceptor atom, score
      L1  H     8    25       P1  7948  2.00
      L1  C     3    20       P1  8028  1.00
      L1  C    16    39       P1 10175  1.00

> <Gold.PLP.Chemscore.Internal.Correction>
0.0497

> <Gold.Rescore>
     Score         DG    S(hbond)    S(metal)    S(lipo)     H(rot)  DE(clash)    DE(int)     intcor
     15.52     -15.96       0.98        0.00      94.52       1.50       0.17       0.26       ----

> <Gold.Chemscore.Fitness>
15.5230

> <Gold.Chemscore.DG>
-15.9576

> <Gold.Chemscore.ZeroCoef>
-5.4800

> <Gold.Chemscore.Hbond>
0.9784

> <Gold.Chemscore.Metal>
0.0000

> <Gold.Chemscore.Lipo>
94.5199

> <Gold.Chemscore.Internal_Hbond>
0.0000

> <Gold.Chemscore.DEClash>
0.1741

> <Gold.Chemscore.DEInternal>
0.2604

> <Gold.Chemscore.Rot>
1.5036

> <Gold.Chemscore.Internal.Correction>
   9.000000E+99

> <Gold.Chemscore.Hbonds>
donor molecule, donor type, donor heavy atom, donor atom, acceptor molecule, acceptor atom, score
      L1  H     8    25       P1  7948  0.93

> <Gold.Chemscore.Hbond.Weighted>
-3.2680

> <Gold.Chemscore.Metal.Weighted>
-0.0000

> <Gold.Chemscore.Lipo.Weighted>
-11.0588

> <Gold.Chemscore.Internal_Hbond.Weighted>
0.0000

> <Gold.Chemscore.DEClash.Weighted>
0.1741

> <Gold.Chemscore.DEInternal.Weighted>
0.2604

> <Gold.Chemscore.Rot.Weighted>
3.8492

> <Gold.Chemscore.Internal.Correction.Weighted>
   9.000000E+99

> <Gold.Protein.RotatedTorsions>
[ 6907 6896 6895 6894 ] final  169.94 input  -60.11 | X-H torsion
[ 7974 7965 7964 7962 ] final -158.49 input  175.53 | X-H torsion
[ 8008 7997 7996 7995 ] final   14.49 input   59.86 | X-H torsion
[ 10167 10162 10161 10158 ] final  144.82 input  -65.29 | X-H torsion
[ 10718 10713 10712 10709 ] final  141.92 input   66.30 | X-H torsion
[ 10763 10752 10751 10750 ] final   86.05 input  -60.55 | X-H torsion
[ 11005 11000 10999 10996 ] final   46.03 input  -57.11 | X-H torsion

> <Gold.Protein.ActiveResidues>
 VAL166  LYS551  ARG553  GLY616  TRP617  ASP618  TYR619  PRO620  LYS621  CYS622 
 ASP623  PHE694  ASN695  SER759  ASP760  ASP761  ALA762  ILE779  LEU786  VAL792 
 PHE793  MET794  SER795  GLU796  ALA797  LYS798  CYS799  TRP800  GLU811  SER814 

> <Gold.Protein.RotatedAtoms>
  151.8240  133.3398  159.3592 H   0  0  0  0  0  0  0  0  0  0  0  0  # atno 6907 bound_to 6896
  150.7285  134.5546  159.5821 H   0  0  0  0  0  0  0  0  0  0  0  0  # atno 6908 bound_to 6896
  152.2985  134.7640  160.0414 H   0  0  0  0  0  0  0  0  0  0  0  0  # atno 6909 bound_to 6896
  144.7503  140.3819  143.6053 H   0  0  0  0  0  0  0  0  0  0  0  0  # atno 7974 bound_to 7965
  154.8492  140.2927  155.5609 H   0  0  0  0  0  0  0  0  0  0  0  0  # atno 8008 bound_to 7997
  156.3015  140.2499  156.3380 H   0  0  0  0  0  0  0  0  0  0  0  0  # atno 8009 bound_to 7997
  154.9040  140.0390  157.1898 H   0  0  0  0  0  0  0  0  0  0  0  0  # atno 8010 bound_to 7997
  139.4939  144.5945  151.6612 H   0  0  0  0  0  0  0  0  0  0  0  0  # atno 10167 bound_to 10162
  157.3865  131.0999  151.0689 H   0  0  0  0  0  0  0  0  0  0  0  0  # atno 10718 bound_to 10713
  153.1533  135.4594  154.9668 H   0  0  0  0  0  0  0  0  0  0  0  0  # atno 10763 bound_to 10752
  154.7842  135.3198  154.7926 H   0  0  0  0  0  0  0  0  0  0  0  0  # atno 10764 bound_to 10752
  153.8427  135.6928  153.4855 H   0  0  0  0  0  0  0  0  0  0  0  0  # atno 10765 bound_to 10752
  140.1406  134.4588  155.8453 H   0  0  0  0  0  0  0  0  0  0  0  0  # atno 11005 bound_to 11000
  145.6968  139.1652  143.2615 LP  0  0  0  0  0  0  0  0  0  0  0  0  # atno 17320 bound_to 7965
  146.1444  140.7013  142.9352 LP  0  0  0  0  0  0  0  0  0  0  0  0  # atno 17321 bound_to 7965
  140.5580  144.0316  150.6156 LP  0  0  0  0  0  0  0  0  0  0  0  0  # atno 17342 bound_to 10162
  140.3393  143.3029  152.0605 LP  0  0  0  0  0  0  0  0  0  0  0  0  # atno 17343 bound_to 10162
  157.1738  130.6279  149.5649 LP  0  0  0  0  0  0  0  0  0  0  0  0  # atno 17370 bound_to 10713
  155.9788  130.4776  150.6676 LP  0  0  0  0  0  0  0  0  0  0  0  0  # atno 17371 bound_to 10713
  141.2185  133.6831  156.7239 LP  0  0  0  0  0  0  0  0  0  0  0  0  # atno 17394 bound_to 11000
  140.2727  134.8379  157.3862 LP  0  0  0  0  0  0  0  0  0  0  0  0  # atno 17395 bound_to 11000

$$$$
