AV-unprocessed.smi:11|AV-procd|sdf|60|dock6
  -GOLD-   2262015183D 1   1.00000     0.00000
 Structure written by MMmdl.
 33 35  0  0  0  0  0  0  0  0  1 V2000
  151.3177  135.9087  156.7003 C   0  0  0  0  0  0  0  0  0  0  0  0
  150.6438  137.1388  156.0713 C   0  0  0  0  0  0  0  0  0  0  0  0
  151.3380  137.6915  154.8016 C   0  0  2  0  0  0  0  0  0  0  0  0
  151.5726  136.6230  153.9052 O   0  0  0  0  0  0  0  0  0  0  0  0
  152.6583  138.3934  155.1346 C   0  0  0  0  0  0  0  0  0  0  0  0
  152.2382  139.8279  155.4722 C   0  0  0  0  0  0  0  0  0  0  0  0
  150.9660  140.0569  154.7928 N   0  0  0  0  0  0  0  0  0  0  0  0
  150.0138  140.7910  155.5319 C   0  0  0  0  0  0  0  0  0  0  0  0
  150.3131  141.2101  156.7881 N   0  0  0  0  0  0  0  0  0  0  0  0
  149.3749  141.9317  157.4531 C   0  0  0  0  0  0  0  0  0  0  0  0
  148.1431  142.2986  157.0199 N   0  0  0  0  0  0  0  0  0  0  0  0
  147.8195  141.8814  155.7598 C   0  0  0  0  0  0  0  0  0  0  0  0
  146.6879  142.0875  155.0937 N   0  0  0  0  0  0  0  0  0  0  0  0
  146.8347  141.4772  153.9048 C   0  0  0  0  0  0  0  0  0  0  0  0
  148.1187  140.8262  153.7486 C   0  0  0  0  0  0  0  0  0  0  0  0
  148.7416  141.1264  154.9974 C   0  0  0  0  0  0  0  0  0  0  0  0
  150.5701  138.8265  154.1099 C   0  0  0  0  0  0  0  0  0  0  0  0
  150.7926  135.6081  157.6068 H   0  0  0  0  0  0  0  0  0  0  0  0
  152.3523  136.1144  156.9749 H   0  0  0  0  0  0  0  0  0  0  0  0
  151.3111  135.0537  156.0254 H   0  0  0  0  0  0  0  0  0  0  0  0
  149.6076  136.8854  155.8448 H   0  0  0  0  0  0  0  0  0  0  0  0
  150.5961  137.9280  156.8227 H   0  0  0  0  0  0  0  0  0  0  0  0
  151.7072  136.9815  153.0412 H   0  0  0  0  0  0  0  0  0  0  0  0
  153.2168  137.9137  155.9392 H   0  0  0  0  0  0  0  0  0  0  0  0
  153.3043  138.4148  154.2554 H   0  0  0  0  0  0  0  0  0  0  0  0
  152.1170  139.9356  156.5514 H   0  0  0  0  0  0  0  0  0  0  0  0
  152.9929  140.5435  155.1462 H   0  0  0  0  0  0  0  0  0  0  0  0
  149.6430  142.2527  158.4488 H   0  0  0  0  0  0  0  0  0  0  0  0
  146.0434  141.4916  153.1657 H   0  0  0  0  0  0  0  0  0  0  0  0
  148.4978  140.2609  152.9069 H   0  0  0  0  0  0  0  0  0  0  0  0
  150.9036  138.9233  153.0758 H   0  0  0  0  0  0  0  0  0  0  0  0
  149.4972  138.6484  154.0626 H   0  0  0  0  0  0  0  0  0  0  0  0
  147.5424  142.8384  157.6266 H   0  0  0  0  0  0  0  0  0  0  0  0
  1  2  1  0  0  0  0
  1 18  1  0  0  0  0
  1 19  1  0  0  0  0
  1 20  1  0  0  0  0
  2  3  1  0  0  0  0
  2 21  1  0  0  0  0
  2 22  1  0  0  0  0
  3 17  1  0  0  0  0
  3  4  1  0  0  0  0
  3  5  1  0  0  0  0
  4 23  1  0  0  0  0
  5  6  1  0  0  0  0
  5 24  1  0  0  0  0
  5 25  1  0  0  0  0
  6  7  1  0  0  0  0
  6 26  1  0  0  0  0
  6 27  1  0  0  0  0
  7  8  1  0  0  0  0
  7 17  1  0  0  0  0
  8 16  2  0  0  0  0
  8  9  1  0  0  0  0
  9 10  2  0  0  0  0
 10 11  1  0  0  0  0
 10 28  1  0  0  0  0
 11 12  1  0  0  0  0
 11 33  1  0  0  0  0
 12 16  1  0  0  0  0
 12 13  2  0  0  0  0
 13 14  1  0  0  0  0
 14 15  2  0  0  0  0
 14 29  1  0  0  0  0
 15 16  1  0  0  0  0
 15 30  1  0  0  0  0
 17 31  1  0  0  0  0
 17 32  1  0  0  0  0
M  END
> <s_m_source_file>
AV-unprocessed.smi

> <i_m_source_file_index>
11

> <i_lp_mmshare_version>
43012

> <i_f3d_flags>
0

> <s_epik_input>
W0NIM11bQ0gyXVtDQEBdMShbT0hdKVtDSDJdW0NIMl1OKFtDSDJdMSljKG5bY0hdbjIpYyhjMjMpW2NIXVtjSF1bbkhdMw==

> <s_epik_cmdline>
J2VwaWtfcHl0aG9uJywgJy1waCcsICc3LjAnLCAnLXRuJywgJzgnLCAnLW1hJywgJzIwMCcsICctbWV0YWxfYmluZGluZycsICctaW1hZScsICc8aW5maWxlLm1hZT4nLCAnLW9tYWUnLCAnPG91dGZpbGUubWFlPic=

> <r_lp_tautomer_probability>
1.75997e-05

> <r_epik_Ionization_Penalty>
5.31594

> <r_epik_Ionization_Penalty_Charging>
0

> <r_epik_Ionization_Penalty_Neutral>
5.31594

> <r_epik_State_Penalty>
7.79803

> <r_epik_Charging_Adjusted_Penalty>
7.79803

> <i_epik_Tot_Q>
0

> <i_epik_Tot_abs_Q>
0

> <r_epik_Metal_State_Penalty>
4.83511

> <b_epik_Metal_Only>
1

> <s_lp_Force_Field>
OPLS_2005

> <r_lp_Energy>
41.8975

> <b_lp_Chiralities_Consistent>
1

> <s_lp_Variant>
AV-unprocessed.smi:11-6

> <Gold.Version>
5.8.1

> <Gold.Id.Protein>
6NUR|6NUR_protein|mol2

> <Gold.PLP.Fitness>
37.9048

> <Gold.PLP.PLP>
-28.9947

> <Gold.PLP.part.hbond>
-4.0000

> <Gold.PLP.part.metal>
0.0000

> <Gold.PLP.part.buried>
-1.8579

> <Gold.PLP.part.nonpolar>
-23.5534

> <Gold.PLP.part.repulsive>
0.2813

> <Gold.PLP.ligand.clash>
0.0000

> <Gold.PLP.ligand.torsion>
0.1967

> <Gold.PLP.Chemscore.Hbond>
2.1120

> <Gold.PLP.Chemscore.CHOScore>
0.9303

> <Gold.PLP.Chemscore.Metal>
0.0000

> <Gold.Chemscore.Hbonds>
donor molecule, donor type, donor heavy atom, donor atom, acceptor molecule, acceptor atom, score
      L1  H     4    23       P1  7949  0.42
      P1  H  7989  7998       L1     7  0.71
      P1  H 10752 10764       L1     4  1.00
      L1  C    14    29       P1 10175  0.53

> <Gold.PLP.Chemscore.Internal.Correction>
0.1767

> <Gold.Rescore>
     Score         DG    S(hbond)    S(metal)    S(lipo)     H(rot)  DE(clash)    DE(int)     intcor
     12.42     -12.87       1.54        0.00      59.27       1.83       0.30       0.14       ----

> <Gold.Chemscore.Fitness>
12.4199

> <Gold.Chemscore.DG>
-12.8685

> <Gold.Chemscore.ZeroCoef>
-5.4800

> <Gold.Chemscore.Hbond>
1.5357

> <Gold.Chemscore.Metal>
0.0000

> <Gold.Chemscore.Lipo>
59.2692

> <Gold.Chemscore.Internal_Hbond>
0.0000

> <Gold.Chemscore.DEClash>
0.3045

> <Gold.Chemscore.DEInternal>
0.1441

> <Gold.Chemscore.Rot>
1.8263

> <Gold.Chemscore.Internal.Correction>
   9.000000E+99

> <Gold.Chemscore.Hbonds>
donor molecule, donor type, donor heavy atom, donor atom, acceptor molecule, acceptor atom, score
      L1  H     4    23       P1  7949  0.39
      P1  H  7989  7998       L1     7  0.02
      P1  H 10752 10764       L1     4  0.42

> <Gold.Chemscore.Hbond.Weighted>
-5.1293

> <Gold.Chemscore.Metal.Weighted>
-0.0000

> <Gold.Chemscore.Lipo.Weighted>
-6.9345

> <Gold.Chemscore.Internal_Hbond.Weighted>
0.0000

> <Gold.Chemscore.DEClash.Weighted>
0.3045

> <Gold.Chemscore.DEInternal.Weighted>
0.1441

> <Gold.Chemscore.Rot.Weighted>
4.6752

> <Gold.Chemscore.Internal.Correction.Weighted>
   9.000000E+99

> <Gold.Protein.RotatedTorsions>
[ 6907 6896 6895 6894 ] final  102.48 input  -60.11 | X-H torsion
[ 7974 7965 7964 7962 ] final -172.80 input  175.53 | X-H torsion
[ 8008 7997 7996 7995 ] final   49.15 input   59.86 | X-H torsion
[ 10167 10162 10161 10158 ] final   80.64 input  -65.29 | X-H torsion
[ 10718 10713 10712 10709 ] final   76.20 input   66.30 | X-H torsion
[ 10763 10752 10751 10750 ] final  -84.25 input  -60.55 | X-H torsion
[ 11005 11000 10999 10996 ] final  140.87 input  -57.11 | X-H torsion

> <Gold.Protein.ActiveResidues>
 VAL166  LYS551  ARG553  GLY616  TRP617  ASP618  TYR619  PRO620  LYS621  CYS622 
 ASP623  PHE694  ASN695  SER759  ASP760  ASP761  ALA762  ILE779  LEU786  VAL792 
 PHE793  MET794  SER795  GLU796  ALA797  LYS798  CYS799  TRP800  GLU811  SER814 

> <Gold.Protein.RotatedAtoms>
  152.5322  133.9970  159.7876 H   0  0  0  0  0  0  0  0  0  0  0  0  # atno 6907 bound_to 6896
  151.0195  133.5882  159.2680 H   0  0  0  0  0  0  0  0  0  0  0  0  # atno 6908 bound_to 6896
  151.2926  135.0753  159.9263 H   0  0  0  0  0  0  0  0  0  0  0  0  # atno 6909 bound_to 6896
  144.7143  140.1717  143.6367 H   0  0  0  0  0  0  0  0  0  0  0  0  # atno 7974 bound_to 7965
  155.3975  140.3436  155.4255 H   0  0  0  0  0  0  0  0  0  0  0  0  # atno 8008 bound_to 7997
  156.1522  140.1574  156.8783 H   0  0  0  0  0  0  0  0  0  0  0  0  # atno 8009 bound_to 7997
  154.5063  140.0801  156.7882 H   0  0  0  0  0  0  0  0  0  0  0  0  # atno 8010 bound_to 7997
  139.9476  144.6048  150.8192 H   0  0  0  0  0  0  0  0  0  0  0  0  # atno 10167 bound_to 10162
  157.6664  130.9763  150.1463 H   0  0  0  0  0  0  0  0  0  0  0  0  # atno 10718 bound_to 10713
  154.5973  135.5527  153.7338 H   0  0  0  0  0  0  0  0  0  0  0  0  # atno 10763 bound_to 10752
  153.0140  135.6358  154.1764 H   0  0  0  0  0  0  0  0  0  0  0  0  # atno 10764 bound_to 10752
  154.1704  135.2892  155.3062 H   0  0  0  0  0  0  0  0  0  0  0  0  # atno 10765 bound_to 10752
  140.0359  134.9329  157.0752 H   0  0  0  0  0  0  0  0  0  0  0  0  # atno 11005 bound_to 11000
  145.8937  139.2390  143.1534 LP  0  0  0  0  0  0  0  0  0  0  0  0  # atno 17320 bound_to 7965
  145.9878  140.8628  143.0081 LP  0  0  0  0  0  0  0  0  0  0  0  0  # atno 17321 bound_to 7965
  140.7592  143.3125  151.2812 LP  0  0  0  0  0  0  0  0  0  0  0  0  # atno 17342 bound_to 10162
  139.6654  144.0114  152.2719 LP  0  0  0  0  0  0  0  0  0  0  0  0  # atno 17343 bound_to 10162
  156.2273  130.3679  149.8486 LP  0  0  0  0  0  0  0  0  0  0  0  0  # atno 17370 bound_to 10713
  156.6322  130.8670  151.3497 LP  0  0  0  0  0  0  0  0  0  0  0  0  # atno 17371 bound_to 10713
  140.4148  134.1943  155.7163 LP  0  0  0  0  0  0  0  0  0  0  0  0  # atno 17394 bound_to 11000
  141.1857  133.8317  157.1095 LP  0  0  0  0  0  0  0  0  0  0  0  0  # atno 17395 bound_to 11000

$$$$
