AV-unprocessed.smi:3276|AV-procd|sdf|12534|dock2
  -GOLD-   2272018453D 1   1.00000     0.00000
 Structure written by MMmdl.
 39 40  0  0  0  0  0  0  0  0  1 V2000
  146.2855  142.7175  154.3021 C   0  0  0  0  0  0  0  0  0  0  0  0
  147.3093  141.6058  154.2191 C   0  0  0  0  0  0  0  0  0  0  0  0
  148.5542  141.6972  154.8771 C   0  0  0  0  0  0  0  0  0  0  0  0
  149.4679  140.7054  154.8033 N   0  0  0  0  0  0  0  0  0  0  0  0
  149.1333  139.6209  154.0666 C   0  0  0  0  0  0  0  0  0  0  0  0
  150.1731  138.5169  153.9925 C   0  0  0  0  0  0  0  0  0  0  0  0
  147.8849  139.5242  153.4005 C   0  0  0  0  0  0  0  0  0  0  0  0
  147.5715  138.3833  152.6469 N   0  0  0  0  0  0  0  0  0  0  0  0
  146.4556  138.4060  151.7119 C   0  0  0  0  0  0  0  0  0  0  0  0
  146.1323  136.9995  151.1981 C   0  0  0  0  0  0  0  0  0  0  0  0
  145.5133  136.2672  152.2422 O   0  0  0  0  0  0  0  0  0  0  0  0
  146.0807  134.9819  152.4331 C   0  0  0  0  0  0  0  0  0  0  0  0
  145.8939  134.1423  151.1615 C   0  0  2  0  0  0  0  0  0  0  0  0
  144.4669  134.1095  150.6075 C   0  0  0  0  0  0  0  0  0  0  0  0
  144.4421  132.7693  149.9083 C   0  0  0  0  0  0  0  0  0  0  0  0
  145.2722  131.9142  150.8607 C   0  0  0  0  0  0  0  0  0  0  0  0
  146.2699  132.7852  151.3846 O   0  0  0  0  0  0  0  0  0  0  0  0
  146.9727  140.5239  153.4825 N   0  0  0  0  0  0  0  0  0  0  0  0
  146.6050  143.4955  154.9962 H   0  0  0  0  0  0  0  0  0  0  0  0
  145.3269  142.3275  154.6458 H   0  0  0  0  0  0  0  0  0  0  0  0
  146.1419  143.1727  153.3217 H   0  0  0  0  0  0  0  0  0  0  0  0
  148.8202  142.5646  155.4634 H   0  0  0  0  0  0  0  0  0  0  0  0
  150.4485  138.3231  152.9555 H   0  0  0  0  0  0  0  0  0  0  0  0
  149.7780  137.5961  154.4224 H   0  0  0  0  0  0  0  0  0  0  0  0
  151.0792  138.7837  154.5382 H   0  0  0  0  0  0  0  0  0  0  0  0
  148.2788  137.6732  152.5231 H   0  0  0  0  0  0  0  0  0  0  0  0
  145.5830  138.8169  152.2209 H   0  0  0  0  0  0  0  0  0  0  0  0
  146.6829  139.0661  150.8738 H   0  0  0  0  0  0  0  0  0  0  0  0
  145.4844  137.0505  150.3213 H   0  0  0  0  0  0  0  0  0  0  0  0
  147.0531  136.4978  150.8977 H   0  0  0  0  0  0  0  0  0  0  0  0
  147.1446  135.0754  152.6553 H   0  0  0  0  0  0  0  0  0  0  0  0
  145.6105  134.4857  153.2835 H   0  0  0  0  0  0  0  0  0  0  0  0
  146.5588  134.5229  150.3846 H   0  0  0  0  0  0  0  0  0  0  0  0
  143.7291  134.1151  151.4108 H   0  0  0  0  0  0  0  0  0  0  0  0
  144.2500  134.9454  149.9419 H   0  0  0  0  0  0  0  0  0  0  0  0
  143.4344  132.3824  149.7552 H   0  0  0  0  0  0  0  0  0  0  0  0
  144.9345  132.8414  148.9377 H   0  0  0  0  0  0  0  0  0  0  0  0
  144.6545  131.5583  151.6862 H   0  0  0  0  0  0  0  0  0  0  0  0
  145.7148  131.0474  150.3699 H   0  0  0  0  0  0  0  0  0  0  0  0
  1  2  1  0  0  0  0
  1 19  1  0  0  0  0
  1 20  1  0  0  0  0
  1 21  1  0  0  0  0
  2 18  1  0  0  0  0
  2  3  2  0  0  0  0
  3  4  1  0  0  0  0
  3 22  1  0  0  0  0
  4  5  2  0  0  0  0
  5  6  1  0  0  0  0
  5  7  1  0  0  0  0
  6 23  1  0  0  0  0
  6 24  1  0  0  0  0
  6 25  1  0  0  0  0
  7  8  1  0  0  0  0
  7 18  2  0  0  0  0
  8  9  1  0  0  0  0
  8 26  1  0  0  0  0
  9 10  1  0  0  0  0
  9 27  1  0  0  0  0
  9 28  1  0  0  0  0
 10 11  1  0  0  0  0
 10 29  1  0  0  0  0
 10 30  1  0  0  0  0
 11 12  1  0  0  0  0
 12 13  1  0  0  0  0
 12 31  1  0  0  0  0
 12 32  1  0  0  0  0
 13 17  1  0  0  0  0
 13 14  1  0  0  0  0
 13 33  1  0  0  0  0
 14 15  1  0  0  0  0
 14 34  1  0  0  0  0
 14 35  1  0  0  0  0
 15 16  1  0  0  0  0
 15 36  1  0  0  0  0
 15 37  1  0  0  0  0
 16 17  1  0  0  0  0
 16 38  1  0  0  0  0
 16 39  1  0  0  0  0
M  END
> <s_m_source_file>
AV-unprocessed.smi

> <i_m_source_file_index>
3276

> <i_lp_mmshare_version>
43012

> <i_f3d_flags>
0

> <s_epik_input>
W0NIM11jMVtjSF1uYyhbQ0gzXSljKG4xKVtOSF1bQ0gyXVtDSDJdT1tDSDJdW0NAQEhdMltDSDJdW0NIMl1bQ0gyXU8y

> <s_epik_cmdline>
J2VwaWtfcHl0aG9uJywgJy1waCcsICc3LjAnLCAnLXRuJywgJzgnLCAnLW1hJywgJzIwMCcsICctbWV0YWxfYmluZGluZycsICctaW1hZScsICc8aW5maWxlLm1hZT4nLCAnLW9tYWUnLCAnPG91dGZpbGUubWFlPic=

> <r_lp_tautomer_probability>
1

> <r_epik_Ionization_Penalty>
0.000506

> <r_epik_Ionization_Penalty_Charging>
0

> <r_epik_Ionization_Penalty_Neutral>
0.000506

> <r_epik_State_Penalty>
-0

> <r_epik_Charging_Adjusted_Penalty>
0

> <i_epik_Tot_Q>
0

> <i_epik_Tot_abs_Q>
0

> <r_epik_Metal_State_Penalty>
-0

> <b_epik_Metal_Only>
0

> <s_lp_Force_Field>
OPLS_2005

> <r_lp_Energy>
26.3084

> <b_lp_Chiralities_Consistent>
1

> <s_lp_Variant>
AV-unprocessed.smi:3276-1

> <Gold.Version>
5.8.1

> <Gold.Id.Protein>
6NUR|6NUR_protein|mol2

> <Gold.PLP.Fitness>
39.1529

> <Gold.PLP.PLP>
-33.9918

> <Gold.PLP.part.hbond>
-2.0000

> <Gold.PLP.part.metal>
0.0000

> <Gold.PLP.part.buried>
2.5168

> <Gold.PLP.part.nonpolar>
-35.3006

> <Gold.PLP.part.repulsive>
0.6776

> <Gold.PLP.ligand.clash>
0.0000

> <Gold.PLP.ligand.torsion>
0.5278

> <Gold.PLP.Chemscore.Hbond>
1.0000

> <Gold.PLP.Chemscore.CHOScore>
1.0000

> <Gold.PLP.Chemscore.Metal>
0.0000

> <Gold.Chemscore.Hbonds>
donor molecule, donor type, donor heavy atom, donor atom, acceptor molecule, acceptor atom, score
      L1  H     8    26       P1  7948  1.00
      L1  C     3    22       P1  8028  1.00

> <Gold.PLP.Chemscore.Internal.Correction>
0.2169

> <Gold.Rescore>
     Score         DG    S(hbond)    S(metal)    S(lipo)     H(rot)  DE(clash)    DE(int)     intcor
     12.64     -14.77       0.99        0.00      87.80       1.68       1.54       0.59       ----

> <Gold.Chemscore.Fitness>
12.6429

> <Gold.Chemscore.DG>
-14.7655

> <Gold.Chemscore.ZeroCoef>
-5.4800

> <Gold.Chemscore.Hbond>
0.9937

> <Gold.Chemscore.Metal>
0.0000

> <Gold.Chemscore.Lipo>
87.7973

> <Gold.Chemscore.Internal_Hbond>
0.0000

> <Gold.Chemscore.DEClash>
1.5373

> <Gold.Chemscore.DEInternal>
0.5853

> <Gold.Chemscore.Rot>
1.6820

> <Gold.Chemscore.Internal.Correction>
   9.000000E+99

> <Gold.Chemscore.Hbonds>
donor molecule, donor type, donor heavy atom, donor atom, acceptor molecule, acceptor atom, score
      L1  H     8    26       P1  7948  0.98

> <Gold.Chemscore.Hbond.Weighted>
-3.3190

> <Gold.Chemscore.Metal.Weighted>
-0.0000

> <Gold.Chemscore.Lipo.Weighted>
-10.2723

> <Gold.Chemscore.Internal_Hbond.Weighted>
0.0000

> <Gold.Chemscore.DEClash.Weighted>
1.5373

> <Gold.Chemscore.DEInternal.Weighted>
0.5853

> <Gold.Chemscore.Rot.Weighted>
4.3058

> <Gold.Chemscore.Internal.Correction.Weighted>
   9.000000E+99

> <Gold.Protein.RotatedTorsions>
[ 6907 6896 6895 6894 ] final  -27.69 input  -60.11 | X-H torsion
[ 7974 7965 7964 7962 ] final  172.85 input  175.53 | X-H torsion
[ 8008 7997 7996 7995 ] final  128.52 input   59.86 | X-H torsion
[ 10167 10162 10161 10158 ] final  146.34 input  -65.29 | X-H torsion
[ 10718 10713 10712 10709 ] final -164.11 input   66.30 | X-H torsion
[ 10763 10752 10751 10750 ] final   73.65 input  -60.55 | X-H torsion
[ 11005 11000 10999 10996 ] final -174.81 input  -57.11 | X-H torsion

> <Gold.Protein.ActiveResidues>
 VAL166  LYS551  ARG553  GLY616  TRP617  ASP618  TYR619  PRO620  LYS621  CYS622 
 ASP623  PHE694  ASN695  SER759  ASP760  ASP761  ALA762  ILE779  LEU786  VAL792 
 PHE793  MET794  SER795  GLU796  ALA797  LYS798  CYS799  TRP800  GLU811  SER814 

> <Gold.Protein.RotatedAtoms>
  151.1433  135.0190  159.8635 H   0  0  0  0  0  0  0  0  0  0  0  0  # atno 6907 bound_to 6896
  152.5452  134.1473  159.8514 H   0  0  0  0  0  0  0  0  0  0  0  0  # atno 6908 bound_to 6896
  151.1551  133.4836  159.2627 H   0  0  0  0  0  0  0  0  0  0  0  0  # atno 6909 bound_to 6896
  144.7258  139.9559  143.6433 H   0  0  0  0  0  0  0  0  0  0  0  0  # atno 7974 bound_to 7965
  156.2916  140.2643  156.2448 H   0  0  0  0  0  0  0  0  0  0  0  0  # atno 8008 bound_to 7997
  154.9941  140.0388  157.2350 H   0  0  0  0  0  0  0  0  0  0  0  0  # atno 8009 bound_to 7997
  154.7660  140.2769  155.6181 H   0  0  0  0  0  0  0  0  0  0  0  0  # atno 8010 bound_to 7997
  139.4909  144.5836  151.6822 H   0  0  0  0  0  0  0  0  0  0  0  0  # atno 10167 bound_to 10162
  156.6343  130.8942  151.2983 H   0  0  0  0  0  0  0  0  0  0  0  0  # atno 10718 bound_to 10713
  153.0535  135.5055  154.7924 H   0  0  0  0  0  0  0  0  0  0  0  0  # atno 10763 bound_to 10752
  154.6768  135.2962  154.9669 H   0  0  0  0  0  0  0  0  0  0  0  0  # atno 10764 bound_to 10752
  154.0469  135.6709  153.4848 H   0  0  0  0  0  0  0  0  0  0  0  0  # atno 10765 bound_to 10752
  140.4703  134.6171  157.4879 H   0  0  0  0  0  0  0  0  0  0  0  0  # atno 11005 bound_to 11000
  146.0675  139.3665  143.0543 LP  0  0  0  0  0  0  0  0  0  0  0  0  # atno 17320 bound_to 7965
  145.8012  140.9770  143.0998 LP  0  0  0  0  0  0  0  0  0  0  0  0  # atno 17321 bound_to 7965
  140.5448  144.0521  150.6102 LP  0  0  0  0  0  0  0  0  0  0  0  0  # atno 17342 bound_to 10162
  140.3555  143.2938  152.0440 LP  0  0  0  0  0  0  0  0  0  0  0  0  # atno 17343 bound_to 10162
  157.7190  130.9534  150.1366 LP  0  0  0  0  0  0  0  0  0  0  0  0  # atno 17370 bound_to 10713
  156.2210  130.3674  149.8556 LP  0  0  0  0  0  0  0  0  0  0  0  0  # atno 17371 bound_to 10713
  139.9889  134.7017  155.9724 LP  0  0  0  0  0  0  0  0  0  0  0  0  # atno 17394 bound_to 11000
  141.1580  133.6541  156.4224 LP  0  0  0  0  0  0  0  0  0  0  0  0  # atno 17395 bound_to 11000

$$$$
