AV-unprocessed.smi:3250|AV-procd|sdf|12425|dock1
  -GOLD-   2272018313D 1   1.00000     0.00000
 Structure written by MMmdl.
 39 40  0  0  0  0  0  0  0  0  2 V2000
  144.6023  132.8148  151.0510 C   0  0  0  0  0  0  0  0  0  0  0  0
  143.7345  133.4404  152.1525 C   0  0  0  0  0  0  0  0  0  0  0  0
  143.7525  134.9242  152.1218 N   0  3  1  0  0  0  0  0  0  0  0  0
  142.7036  135.5162  152.9858 C   0  0  0  0  0  0  0  0  0  0  0  0
  142.7289  137.0505  152.8939 C   0  0  0  0  0  0  0  0  0  0  0  0
  144.0244  137.5257  153.2375 O   0  0  0  0  0  0  0  0  0  0  0  0
  145.0254  137.0491  152.3457 C   0  0  1  0  0  0  0  0  0  0  0  0
  146.3562  137.7186  152.7343 C   0  0  0  0  0  0  0  0  0  0  0  0
  146.2461  139.1674  152.8513 N   0  0  0  0  0  0  0  0  0  0  0  0
  147.2492  139.9987  153.3168 C   0  0  0  0  0  0  0  0  0  0  0  0
  146.9517  141.2992  153.3436 N   0  0  0  0  0  0  0  0  0  0  0  0
  147.9076  142.1376  153.8008 C   0  0  0  0  0  0  0  0  0  0  0  0
  149.1630  141.6669  154.2346 C   0  0  0  0  0  0  0  0  0  0  0  0
  149.3715  140.2750  154.1635 C   0  0  0  0  0  0  0  0  0  0  0  0
  150.5770  139.7447  154.5736 O   0  0  0  0  0  0  0  0  0  0  0  0
  150.7473  138.3331  154.5019 C   0  0  0  0  0  0  0  0  0  0  0  0
  148.4042  139.4441  153.7015 N   0  0  0  0  0  0  0  0  0  0  0  0
  145.0778  135.5102  152.4409 C   0  0  0  0  0  0  0  0  0  0  0  0
  144.4781  131.7318  151.0364 H   0  0  0  0  0  0  0  0  0  0  0  0
  145.6629  133.0143  151.2018 H   0  0  0  0  0  0  0  0  0  0  0  0
  144.3234  133.1918  150.0667 H   0  0  0  0  0  0  0  0  0  0  0  0
  142.7096  133.0972  152.0054 H   0  0  0  0  0  0  0  0  0  0  0  0
  144.0429  133.0816  153.1355 H   0  0  0  0  0  0  0  0  0  0  0  0
  141.7223  135.1487  152.6828 H   0  0  0  0  0  0  0  0  0  0  0  0
  142.8608  135.2020  154.0188 H   0  0  0  0  0  0  0  0  0  0  0  0
  142.4566  137.3872  151.8922 H   0  0  0  0  0  0  0  0  0  0  0  0
  142.0007  137.4802  153.5821 H   0  0  0  0  0  0  0  0  0  0  0  0
  144.7536  137.3452  151.3310 H   0  0  0  0  0  0  0  0  0  0  0  0
  146.7138  137.3150  153.6826 H   0  0  0  0  0  0  0  0  0  0  0  0
  147.1226  137.4862  151.9947 H   0  0  0  0  0  0  0  0  0  0  0  0
  145.3570  139.5961  152.6382 H   0  0  0  0  0  0  0  0  0  0  0  0
  147.6684  143.1905  153.8229 H   0  0  0  0  0  0  0  0  0  0  0  0
  149.9251  142.3385  154.6014 H   0  0  0  0  0  0  0  0  0  0  0  0
  151.7436  138.0708  154.8578 H   0  0  0  0  0  0  0  0  0  0  0  0
  150.6565  137.9711  153.4765 H   0  0  0  0  0  0  0  0  0  0  0  0
  150.0232  137.8120  155.1298 H   0  0  0  0  0  0  0  0  0  0  0  0
  145.3831  135.2041  153.4428 H   0  0  0  0  0  0  0  0  0  0  0  0
  145.8285  135.1313  151.7480 H   0  0  0  0  0  0  0  0  0  0  0  0
  143.5285  135.1983  151.1755 H   0  0  0  0  0  0  0  0  0  0  0  0
  1  2  1  0  0  0  0
  1 19  1  0  0  0  0
  1 20  1  0  0  0  0
  1 21  1  0  0  0  0
  2  3  1  0  0  0  0
  2 22  1  0  0  0  0
  2 23  1  0  0  0  0
  3 18  1  0  0  0  0
  3  4  1  0  0  0  0
  3 39  1  0  0  0  0
  4  5  1  0  0  0  0
  4 24  1  0  0  0  0
  4 25  1  0  0  0  0
  5  6  1  0  0  0  0
  5 26  1  0  0  0  0
  5 27  1  0  0  0  0
  6  7  1  0  0  0  0
  7  8  1  0  0  0  0
  7 18  1  0  0  0  0
  7 28  1  0  0  0  0
  8  9  1  0  0  0  0
  8 29  1  0  0  0  0
  8 30  1  0  0  0  0
  9 10  1  0  0  0  0
  9 31  1  0  0  0  0
 10 17  1  0  0  0  0
 10 11  2  0  0  0  0
 11 12  1  0  0  0  0
 12 13  2  0  0  0  0
 12 32  1  0  0  0  0
 13 14  1  0  0  0  0
 13 33  1  0  0  0  0
 14 15  1  0  0  0  0
 14 17  2  0  0  0  0
 15 16  1  0  0  0  0
 16 34  1  0  0  0  0
 16 35  1  0  0  0  0
 16 36  1  0  0  0  0
 18 37  1  0  0  0  0
 18 38  1  0  0  0  0
M  CHG  1   3   1
M  END
> <s_m_source_file>
AV-unprocessed.smi

> <i_m_source_file_index>
3250

> <i_lp_mmshare_version>
43012

> <i_f3d_flags>
0

> <s_epik_input>
W0NIM11bQ0gyXU4xW0NIMl1bQ0gyXU9bQ0BIXShbQ0gyXTEpW0NIMl1bTkhdYzJuW2NIXVtjSF1jKG4yKU9bQ0gzXQ==

> <s_epik_cmdline>
J2VwaWtfcHl0aG9uJywgJy1waCcsICc3LjAnLCAnLXRuJywgJzgnLCAnLW1hJywgJzIwMCcsICctbWV0YWxfYmluZGluZycsICctaW1hZScsICc8aW5maWxlLm1hZT4nLCAnLW9tYWUnLCAnPG91dGZpbGUubWFlPic=

> <r_lp_tautomer_probability>
1

> <r_epik_Ionization_Penalty>
0.19684

> <r_epik_Ionization_Penalty_Charging>
0.178504

> <r_epik_Ionization_Penalty_Neutral>
0.0183356

> <r_epik_State_Penalty>
0.162939

> <r_epik_Charging_Adjusted_Penalty>
0.341443

> <i_epik_Tot_Q>
1

> <i_epik_Tot_abs_Q>
1

> <r_epik_Metal_State_Penalty>
0.1608

> <b_epik_Metal_Only>
0

> <s_lp_Force_Field>
OPLS_2005

> <r_lp_Energy>
7.38775

> <b_lp_Chiralities_Consistent>
1

> <s_lp_Variant>
AV-unprocessed.smi:3250-1

> <Gold.Version>
5.8.1

> <Gold.Id.Protein>
6NUR|6NUR_protein|mol2

> <Gold.PLP.Fitness>
39.6266

> <Gold.PLP.PLP>
-30.7952

> <Gold.PLP.part.hbond>
-2.0000

> <Gold.PLP.part.metal>
0.0000

> <Gold.PLP.part.buried>
-3.1960

> <Gold.PLP.part.nonpolar>
-26.4377

> <Gold.PLP.part.repulsive>
1.8072

> <Gold.PLP.ligand.clash>
0.0000

> <Gold.PLP.ligand.torsion>
0.1121

> <Gold.PLP.Chemscore.Hbond>
2.0000

> <Gold.PLP.Chemscore.CHOScore>
1.0000

> <Gold.PLP.Chemscore.Metal>
0.0000

> <Gold.Chemscore.Hbonds>
donor molecule, donor type, donor heavy atom, donor atom, acceptor molecule, acceptor atom, score
      L1  H     9    31       P1 10175  1.00
      P1  H  7989  7998       L1    15  0.75
      L1  C    12    32       P1  8028  0.60

> <Gold.PLP.Chemscore.Internal.Correction>
0.0556

> <Gold.Rescore>
     Score         DG    S(hbond)    S(metal)    S(lipo)     H(rot)  DE(clash)    DE(int)     intcor
     12.33     -13.22       1.53        0.00      59.89       1.71       0.68       0.22       ----

> <Gold.Chemscore.Fitness>
12.3302

> <Gold.Chemscore.DG>
-13.2223

> <Gold.Chemscore.ZeroCoef>
-5.4800

> <Gold.Chemscore.Hbond>
1.5327

> <Gold.Chemscore.Metal>
0.0000

> <Gold.Chemscore.Lipo>
59.8945

> <Gold.Chemscore.Internal_Hbond>
0.0000

> <Gold.Chemscore.DEClash>
0.6752

> <Gold.Chemscore.DEInternal>
0.2169

> <Gold.Chemscore.Rot>
1.7127

> <Gold.Chemscore.Internal.Correction>
   9.000000E+99

> <Gold.Chemscore.Hbonds>
donor molecule, donor type, donor heavy atom, donor atom, acceptor molecule, acceptor atom, score
      L1  H     9    31       P1 10175  1.00
      P1  H  7989  7998       L1    15  0.09

> <Gold.Chemscore.Hbond.Weighted>
-5.1192

> <Gold.Chemscore.Metal.Weighted>
-0.0000

> <Gold.Chemscore.Lipo.Weighted>
-7.0077

> <Gold.Chemscore.Internal_Hbond.Weighted>
0.0000

> <Gold.Chemscore.DEClash.Weighted>
0.6752

> <Gold.Chemscore.DEInternal.Weighted>
0.2169

> <Gold.Chemscore.Rot.Weighted>
4.3846

> <Gold.Chemscore.Internal.Correction.Weighted>
   9.000000E+99

> <Gold.Protein.RotatedTorsions>
[ 6907 6896 6895 6894 ] final   50.20 input  -60.11 | X-H torsion
[ 7974 7965 7964 7962 ] final  -20.94 input  175.53 | X-H torsion
[ 8008 7997 7996 7995 ] final   63.53 input   59.86 | X-H torsion
[ 10167 10162 10161 10158 ] final   -1.73 input  -65.29 | X-H torsion
[ 10718 10713 10712 10709 ] final  -64.47 input   66.30 | X-H torsion
[ 10763 10752 10751 10750 ] final   53.91 input  -60.55 | X-H torsion
[ 11005 11000 10999 10996 ] final -106.47 input  -57.11 | X-H torsion

> <Gold.Protein.ActiveResidues>
 VAL166  LYS551  ARG553  GLY616  TRP617  ASP618  TYR619  PRO620  LYS621  CYS622 
 ASP623  PHE694  ASN695  SER759  ASP760  ASP761  ALA762  ILE779  LEU786  VAL792 
 PHE793  MET794  SER795  GLU796  ALA797  LYS798  CYS799  TRP800  GLU811  SER814 

> <Gold.Protein.RotatedAtoms>
  152.2992  134.7631  160.0361 H   0  0  0  0  0  0  0  0  0  0  0  0  # atno 6907 bound_to 6896
  151.8150  133.3381  159.3575 H   0  0  0  0  0  0  0  0  0  0  0  0  # atno 6908 bound_to 6896
  150.7265  134.5557  159.5861 H   0  0  0  0  0  0  0  0  0  0  0  0  # atno 6909 bound_to 6896
  146.1760  140.4273  142.8513 H   0  0  0  0  0  0  0  0  0  0  0  0  # atno 7974 bound_to 7965
  155.6317  140.3496  155.4685 H   0  0  0  0  0  0  0  0  0  0  0  0  # atno 8008 bound_to 7997
  155.9998  140.1211  157.0582 H   0  0  0  0  0  0  0  0  0  0  0  0  # atno 8009 bound_to 7997
  154.4245  140.1103  156.5667 H   0  0  0  0  0  0  0  0  0  0  0  0  # atno 8010 bound_to 7997
  140.6822  143.6740  150.8161 H   0  0  0  0  0  0  0  0  0  0  0  0  # atno 10167 bound_to 10162
  156.0727  130.4234  150.1424 H   0  0  0  0  0  0  0  0  0  0  0  0  # atno 10718 bound_to 10713
  152.9799  135.5762  154.4819 H   0  0  0  0  0  0  0  0  0  0  0  0  # atno 10763 bound_to 10752
  154.4366  135.2775  155.1878 H   0  0  0  0  0  0  0  0  0  0  0  0  # atno 10764 bound_to 10752
  154.3563  135.6198  153.5722 H   0  0  0  0  0  0  0  0  0  0  0  0  # atno 10765 bound_to 10752
  141.1003  133.8896  157.1859 H   0  0  0  0  0  0  0  0  0  0  0  0  # atno 11005 bound_to 11000
  144.8237  140.6593  143.6336 LP  0  0  0  0  0  0  0  0  0  0  0  0  # atno 17320 bound_to 7965
  145.4209  139.1564  143.4074 LP  0  0  0  0  0  0  0  0  0  0  0  0  # atno 17321 bound_to 7965
  140.0442  143.5315  152.2704 LP  0  0  0  0  0  0  0  0  0  0  0  0  # atno 17342 bound_to 10162
  139.6153  144.7618  151.2860 LP  0  0  0  0  0  0  0  0  0  0  0  0  # atno 17343 bound_to 10162
  156.9472  130.9763  151.3505 LP  0  0  0  0  0  0  0  0  0  0  0  0  # atno 17370 bound_to 10713
  157.5807  130.8374  149.8518 LP  0  0  0  0  0  0  0  0  0  0  0  0  # atno 17371 bound_to 10713
  139.9852  135.0084  156.9846 LP  0  0  0  0  0  0  0  0  0  0  0  0  # atno 17394 bound_to 11000
  140.5038  134.1070  155.7256 LP  0  0  0  0  0  0  0  0  0  0  0  0  # atno 17395 bound_to 11000

$$$$
