AV-unprocessed.smi:2531|AV-procd|sdf|9966|dock1
  -GOLD-   2272014 03D 1   1.00000     0.00000
 Structure written by MMmdl.
 45 47  0  0  0  0  0  0  0  0  2 V2000
  147.0063  134.2401  159.1560 O   0  0  0  0  0  0  0  0  0  0  0  0
  147.5778  135.0235  159.9158 C   0  0  0  0  0  0  0  0  0  0  0  0
  147.6695  134.7267  161.4270 C   0  0  0  0  0  0  0  0  0  0  0  0
  147.0353  133.3686  161.8050 C   0  0  0  0  0  0  0  0  0  0  0  0
  145.7439  133.6695  162.5821 C   0  0  0  0  0  0  0  0  0  0  0  0
  145.4982  135.1708  162.4335 C   0  0  0  0  0  0  0  0  0  0  0  0
  146.8935  135.7661  162.2532 C   0  0  0  0  0  0  0  0  0  0  0  0
  148.0817  136.2444  159.4580 N   0  0  0  0  0  0  0  0  0  0  0  0
  149.1545  136.9218  160.1713 C   0  0  0  0  0  0  0  0  0  0  0  0
  149.5544  137.4941  158.8074 C   0  0  0  0  0  0  0  0  0  0  0  0
  151.3766  137.4078  158.5024 S   0  0  0  0  0  0  0  0  0  0  0  0
  151.9894  137.2596  159.8325 O   0  0  0  0  0  0  0  0  0  0  0  0
  151.6048  136.3135  157.5445 O   0  0  0  0  0  0  0  0  0  0  0  0
  151.6328  138.8683  157.8435 N   0  5  0  0  0  0  0  0  0  0  0  0
  151.3839  140.0680  158.6291 C   0  0  0  0  0  0  0  0  0  0  0  0
  152.0042  141.3142  157.9514 C   0  0  0  0  0  0  0  0  0  0  0  0
  151.7977  142.6378  158.6832 C   0  0  0  0  0  0  0  0  0  0  0  0
  152.4188  142.8710  159.9315 C   0  0  0  0  0  0  0  0  0  0  0  0
  152.2089  144.1083  160.5689 C   0  0  0  0  0  0  0  0  0  0  0  0
  151.3786  145.0598  159.9467 C   0  0  0  0  0  0  0  0  0  0  0  0
  150.7921  144.7291  158.7092 C   0  0  0  0  0  0  0  0  0  0  0  0
  150.9857  143.5457  158.0886 N   0  0  0  0  0  0  0  0  0  0  0  0
  148.7314  136.3715  158.1607 C   0  0  0  0  0  0  0  0  0  0  0  0
  148.7190  134.7240  161.7236 H   0  0  0  0  0  0  0  0  0  0  0  0
  146.8212  132.7521  160.9306 H   0  0  0  0  0  0  0  0  0  0  0  0
  147.7182  132.7893  162.4272 H   0  0  0  0  0  0  0  0  0  0  0  0
  144.8983  133.0805  162.2256 H   0  0  0  0  0  0  0  0  0  0  0  0
  145.8896  133.4266  163.6354 H   0  0  0  0  0  0  0  0  0  0  0  0
  144.8978  135.3602  161.5428 H   0  0  0  0  0  0  0  0  0  0  0  0
  144.9684  135.5957  163.2865 H   0  0  0  0  0  0  0  0  0  0  0  0
  147.3717  135.8881  163.2258 H   0  0  0  0  0  0  0  0  0  0  0  0
  146.8553  136.7521  161.7875 H   0  0  0  0  0  0  0  0  0  0  0  0
  148.8104  137.6645  160.8911 H   0  0  0  0  0  0  0  0  0  0  0  0
  149.8966  136.2399  160.5924 H   0  0  0  0  0  0  0  0  0  0  0  0
  149.1630  138.4983  158.6375 H   0  0  0  0  0  0  0  0  0  0  0  0
  150.3218  140.2408  158.8062 H   0  0  0  0  0  0  0  0  0  0  0  0
  151.8263  139.9684  159.6205 H   0  0  0  0  0  0  0  0  0  0  0  0
  153.0775  141.1555  157.8418 H   0  0  0  0  0  0  0  0  0  0  0  0
  151.6192  141.4086  156.9351 H   0  0  0  0  0  0  0  0  0  0  0  0
  153.0576  142.1245  160.3800 H   0  0  0  0  0  0  0  0  0  0  0  0
  152.6783  144.3240  161.5171 H   0  0  0  0  0  0  0  0  0  0  0  0
  151.1966  146.0200  160.4055 H   0  0  0  0  0  0  0  0  0  0  0  0
  150.1475  145.4337  158.2050 H   0  0  0  0  0  0  0  0  0  0  0  0
  149.3075  135.4912  157.8748 H   0  0  0  0  0  0  0  0  0  0  0  0
  148.0656  136.7074  157.3656 H   0  0  0  0  0  0  0  0  0  0  0  0
  1  2  2  0  0  0  0
  2  3  1  0  0  0  0
  2  8  1  0  0  0  0
  3  7  1  0  0  0  0
  3  4  1  0  0  0  0
  3 24  1  0  0  0  0
  4  5  1  0  0  0  0
  4 25  1  0  0  0  0
  4 26  1  0  0  0  0
  5  6  1  0  0  0  0
  5 27  1  0  0  0  0
  5 28  1  0  0  0  0
  6  7  1  0  0  0  0
  6 29  1  0  0  0  0
  6 30  1  0  0  0  0
  7 31  1  0  0  0  0
  7 32  1  0  0  0  0
  8 23  1  0  0  0  0
  8  9  1  0  0  0  0
  9 10  1  0  0  0  0
  9 33  1  0  0  0  0
  9 34  1  0  0  0  0
 10 11  1  0  0  0  0
 10 23  1  0  0  0  0
 10 35  1  0  0  0  0
 11 12  2  0  0  0  0
 11 13  2  0  0  0  0
 11 14  1  0  0  0  0
 14 15  1  0  0  0  0
 15 16  1  0  0  0  0
 15 36  1  0  0  0  0
 15 37  1  0  0  0  0
 16 17  1  0  0  0  0
 16 38  1  0  0  0  0
 16 39  1  0  0  0  0
 17 22  1  0  0  0  0
 17 18  2  0  0  0  0
 18 19  1  0  0  0  0
 18 40  1  0  0  0  0
 19 20  2  0  0  0  0
 19 41  1  0  0  0  0
 20 21  1  0  0  0  0
 20 42  1  0  0  0  0
 21 22  2  0  0  0  0
 21 43  1  0  0  0  0
 23 44  1  0  0  0  0
 23 45  1  0  0  0  0
M  CHG  1  14  -1
M  END
> <s_m_source_file>
AV-unprocessed.smi

> <i_m_source_file_index>
2531

> <i_lp_mmshare_version>
43012

> <i_f3d_flags>
0

> <s_epik_input>
W0NIMl0xW0NIMl1bQ0gyXVtDSDJdW0NIXTFDKD1PKU4yW0NIMl1bQ0hdKFtDSDJdMilTKD1PKSg9TylbTkhdW0NIMl1bQ0gyXWMzW2NIXVtjSF1bY0hdW2NIXW4z

> <s_epik_cmdline>
J2VwaWtfcHl0aG9uJywgJy1waCcsICc3LjAnLCAnLXRuJywgJzgnLCAnLW1hJywgJzIwMCcsICctbWV0YWxfYmluZGluZycsICctaW1hZScsICc8aW5maWxlLm1hZT4nLCAnLW9tYWUnLCAnPG91dGZpbGUubWFlPic=

> <r_epik_Ionization_Penalty>
5.87379

> <r_epik_Ionization_Penalty_Charging>
5.8024

> <r_epik_Ionization_Penalty_Neutral>
0.0713848

> <r_epik_State_Penalty>
5.81862

> <r_epik_Charging_Adjusted_Penalty>
11.621

> <i_epik_Tot_Q>
-1

> <i_epik_Tot_abs_Q>
1

> <r_epik_Metal_State_Penalty>
1.80653

> <b_epik_Metal_Only>
1

> <s_lp_Force_Field>
OPLS_2005

> <r_lp_Energy>
33.3625

> <b_lp_Chiralities_Consistent>
1

> <s_lp_Variant>
AV-unprocessed.smi:2531-3

> <Gold.Version>
5.8.1

> <Gold.Id.Protein>
6NUR|6NUR_protein|mol2

> <Gold.PLP.Fitness>
48.9640

> <Gold.PLP.PLP>
-43.2656

> <Gold.PLP.part.hbond>
-1.4468

> <Gold.PLP.part.metal>
0.0000

> <Gold.PLP.part.buried>
-5.5373

> <Gold.PLP.part.nonpolar>
-36.5687

> <Gold.PLP.part.repulsive>
0.1306

> <Gold.PLP.ligand.clash>
0.0000

> <Gold.PLP.ligand.torsion>
1.4624

> <Gold.PLP.Chemscore.Hbond>
1.0000

> <Gold.PLP.Chemscore.CHOScore>
1.0159

> <Gold.PLP.Chemscore.Metal>
0.0000

> <Gold.Chemscore.Hbonds>
donor molecule, donor type, donor heavy atom, donor atom, acceptor molecule, acceptor atom, score
      P1  H  6896  6909       L1    12  0.67
      L1  C    21    43       P1  8028  0.01
      L1  C    21    43       P1  8029  1.00

> <Gold.PLP.Chemscore.Internal.Correction>
2.5755

> <Gold.Rescore>
     Score         DG    S(hbond)    S(metal)    S(lipo)     H(rot)  DE(clash)    DE(int)     intcor
     16.96     -18.49       0.91        0.00     120.36       1.61       0.01       1.52       ----

> <Gold.Chemscore.Fitness>
16.9640

> <Gold.Chemscore.DG>
-18.4935

> <Gold.Chemscore.ZeroCoef>
-5.4800

> <Gold.Chemscore.Hbond>
0.9147

> <Gold.Chemscore.Metal>
0.0000

> <Gold.Chemscore.Lipo>
120.3639

> <Gold.Chemscore.Internal_Hbond>
0.0000

> <Gold.Chemscore.DEClash>
0.0126

> <Gold.Chemscore.DEInternal>
1.5168

> <Gold.Chemscore.Rot>
1.6110

> <Gold.Chemscore.Internal.Correction>
   9.000000E+99

> <Gold.Chemscore.Hbonds>
donor molecule, donor type, donor heavy atom, donor atom, acceptor molecule, acceptor atom, score
      P1  H  6896  6909       L1    12  0.13

> <Gold.Chemscore.Hbond.Weighted>
-3.0552

> <Gold.Chemscore.Metal.Weighted>
-0.0000

> <Gold.Chemscore.Lipo.Weighted>
-14.0826

> <Gold.Chemscore.Internal_Hbond.Weighted>
0.0000

> <Gold.Chemscore.DEClash.Weighted>
0.0126

> <Gold.Chemscore.DEInternal.Weighted>
1.5168

> <Gold.Chemscore.Rot.Weighted>
4.1243

> <Gold.Chemscore.Internal.Correction.Weighted>
   9.000000E+99

> <Gold.Protein.RotatedTorsions>
[ 6907 6896 6895 6894 ] final  132.00 input  -60.11 | X-H torsion
[ 7974 7965 7964 7962 ] final   72.05 input  175.53 | X-H torsion
[ 8008 7997 7996 7995 ] final -169.85 input   59.86 | X-H torsion
[ 10167 10162 10161 10158 ] final   35.95 input  -65.29 | X-H torsion
[ 10718 10713 10712 10709 ] final   81.34 input   66.30 | X-H torsion
[ 10763 10752 10751 10750 ] final  -59.65 input  -60.55 | X-H torsion
[ 11005 11000 10999 10996 ] final   81.24 input  -57.11 | X-H torsion

> <Gold.Protein.ActiveResidues>
 VAL166  LYS551  ARG553  GLY616  TRP617  ASP618  TYR619  PRO620  LYS621  CYS622 
 ASP623  PHE694  ASN695  SER759  ASP760  ASP761  ALA762  ILE779  LEU786  VAL792 
 PHE793  MET794  SER795  GLU796  ALA797  LYS798  CYS799  TRP800  GLU811  SER814 

> <Gold.Protein.RotatedAtoms>
  152.3369  133.6022  159.5848 H   0  0  0  0  0  0  0  0  0  0  0  0  # atno 6907 bound_to 6896
  150.7455  133.9782  159.3576 H   0  0  0  0  0  0  0  0  0  0  0  0  # atno 6908 bound_to 6896
  151.7651  135.0801  160.0402 H   0  0  0  0  0  0  0  0  0  0  0  0  # atno 6909 bound_to 6896
  145.7582  139.2789  143.1392 H   0  0  0  0  0  0  0  0  0  0  0  0  # atno 7974 bound_to 7965
  155.9106  140.1056  157.1282 H   0  0  0  0  0  0  0  0  0  0  0  0  # atno 8008 bound_to 7997
  154.4039  140.1275  156.4616 H   0  0  0  0  0  0  0  0  0  0  0  0  # atno 8009 bound_to 7997
  155.7315  140.3468  155.5064 H   0  0  0  0  0  0  0  0  0  0  0  0  # atno 8010 bound_to 7997
  140.4173  144.1509  150.6144 H   0  0  0  0  0  0  0  0  0  0  0  0  # atno 10167 bound_to 10162
  157.6830  131.0000  150.2213 H   0  0  0  0  0  0  0  0  0  0  0  0  # atno 10718 bound_to 10713
  154.2570  135.6315  153.5261 H   0  0  0  0  0  0  0  0  0  0  0  0  # atno 10763 bound_to 10752
  152.9902  135.5578  154.5745 H   0  0  0  0  0  0  0  0  0  0  0  0  # atno 10764 bound_to 10752
  154.5286  135.2887  155.1175 H   0  0  0  0  0  0  0  0  0  0  0  0  # atno 10765 bound_to 10752
  139.9105  134.7982  156.2016 H   0  0  0  0  0  0  0  0  0  0  0  0  # atno 11005 bound_to 11000
  146.0290  140.8276  142.9885 LP  0  0  0  0  0  0  0  0  0  0  0  0  # atno 17320 bound_to 7965
  144.6836  140.2741  143.7301 LP  0  0  0  0  0  0  0  0  0  0  0  0  # atno 17321 bound_to 7965
  140.4572  143.2463  151.9269 LP  0  0  0  0  0  0  0  0  0  0  0  0  # atno 17342 bound_to 10162
  139.4782  144.5504  151.8395 LP  0  0  0  0  0  0  0  0  0  0  0  0  # atno 17343 bound_to 10162
  156.2864  130.3740  149.7885 LP  0  0  0  0  0  0  0  0  0  0  0  0  # atno 17370 bound_to 10713
  156.5557  130.8361  151.3313 LP  0  0  0  0  0  0  0  0  0  0  0  0  # atno 17371 bound_to 10713
  141.0521  133.6883  156.1792 LP  0  0  0  0  0  0  0  0  0  0  0  0  # atno 17394 bound_to 11000
  140.6793  134.4784  157.5589 LP  0  0  0  0  0  0  0  0  0  0  0  0  # atno 17395 bound_to 11000

$$$$
