AV-unprocessed.smi:53|AV-procd|sdf|524|dock4
  -GOLD-   2262016393D 1   1.00000     0.00000
 Structure written by MMmdl.
 30 31  0  0  0  0  0  0  0  0  1 V2000
  153.0507  143.4271  159.1233 N   0  0  0  0  0  0  0  0  0  0  0  0
  152.1664  142.6176  158.5242 C   0  0  0  0  0  0  0  0  0  0  0  0
  150.9919  143.1652  157.8838 C   0  0  0  0  0  0  0  0  0  0  0  0
  150.1476  142.2843  157.3039 C   0  0  0  0  0  0  0  0  0  0  0  0
  150.3806  140.9165  157.3174 N   0  0  0  0  0  0  0  0  0  0  0  0
  149.4125  139.9594  156.6524 C   0  0  1  0  0  0  0  0  0  0  0  0
  148.2168  140.6377  156.4069 O   0  0  0  0  0  0  0  0  0  0  0  0
  147.7291  140.2856  155.1181 C   0  0  1  0  0  0  0  0  0  0  0  0
  146.7293  141.3359  154.6024 C   0  0  0  0  0  0  0  0  0  0  0  0
  146.4717  141.1350  153.2289 O   0  0  0  0  0  0  0  0  0  0  0  0
  149.0009  140.0620  154.2869 C   0  0  1  0  0  0  0  0  0  0  0  0
  149.5064  141.2881  153.7844 O   0  0  0  0  0  0  0  0  0  0  0  0
  149.9344  139.4124  155.3045 C   0  0  1  0  0  0  0  0  0  0  0  0
  151.3063  139.6424  155.0319 O   0  0  0  0  0  0  0  0  0  0  0  0
  151.5460  140.4104  157.9432 C   0  0  0  0  0  0  0  0  0  0  0  0
  151.8090  139.2084  157.9590 O   0  0  0  0  0  0  0  0  0  0  0  0
  152.3885  141.3174  158.5284 N   0  0  0  0  0  0  0  0  0  0  0  0
  149.1984  139.1673  157.3715 H   0  0  0  0  0  0  0  0  0  0  0  0
  147.2145  139.3290  155.2279 H   0  0  0  0  0  0  0  0  0  0  0  0
  148.8152  139.4028  153.4383 H   0  0  0  0  0  0  0  0  0  0  0  0
  149.7613  138.3354  155.3073 H   0  0  0  0  0  0  0  0  0  0  0  0
  153.8713  143.0423  159.5687 H   0  0  0  0  0  0  0  0  0  0  0  0
  152.8924  144.4245  159.1284 H   0  0  0  0  0  0  0  0  0  0  0  0
  150.7691  144.2221  157.8521 H   0  0  0  0  0  0  0  0  0  0  0  0
  149.2660  142.6756  156.8182 H   0  0  0  0  0  0  0  0  0  0  0  0
  145.7875  141.2466  155.1441 H   0  0  0  0  0  0  0  0  0  0  0  0
  147.0919  142.3510  154.7654 H   0  0  0  0  0  0  0  0  0  0  0  0
  145.5789  140.8409  153.1302 H   0  0  0  0  0  0  0  0  0  0  0  0
  149.6723  141.1845  152.8596 H   0  0  0  0  0  0  0  0  0  0  0  0
  151.7124  138.8095  154.8448 H   0  0  0  0  0  0  0  0  0  0  0  0
  1  2  1  0  0  0  0
  1 22  1  0  0  0  0
  1 23  1  0  0  0  0
  2 17  2  0  0  0  0
  2  3  1  0  0  0  0
  3  4  2  0  0  0  0
  3 24  1  0  0  0  0
  4  5  1  0  0  0  0
  4 25  1  0  0  0  0
  5  6  1  0  0  0  0
  5 15  1  0  0  0  0
  6 18  1  0  0  0  0
  6 13  1  0  0  0  0
  6  7  1  0  0  0  0
  7  8  1  0  0  0  0
  8 19  1  0  0  0  0
  8  9  1  0  0  0  0
  8 11  1  0  0  0  0
  9 10  1  0  0  0  0
  9 26  1  0  0  0  0
  9 27  1  0  0  0  0
 10 28  1  0  0  0  0
 11 20  1  0  0  0  0
 11 12  1  0  0  0  0
 11 13  1  0  0  0  0
 12 29  1  0  0  0  0
 13 21  1  0  0  0  0
 13 14  1  0  0  0  0
 14 30  1  0  0  0  0
 15 16  2  0  0  0  0
 15 17  1  0  0  0  0
M  END
> <s_m_source_file>
AV-unprocessed.smi

> <i_m_source_file_index>
53

> <i_lp_mmshare_version>
43012

> <i_f3d_flags>
0

> <s_epik_input>
W05IMl1jMVtjSF1bY0hdbihjKD1PKW4xKVtDQEBIXTJPW0NASF0oW0NIMl1bT0hdKVtDQEBIXShbT0hdKVtDQEBIXTJbT0hd

> <s_epik_cmdline>
J2VwaWtfcHl0aG9uJywgJy1waCcsICc3LjAnLCAnLXRuJywgJzgnLCAnLW1hJywgJzIwMCcsICctbWV0YWxfYmluZGluZycsICctaW1hZScsICc8aW5maWxlLm1hZT4nLCAnLW9tYWUnLCAnPG91dGZpbGUubWFlPic=

> <r_lp_tautomer_probability>
0.99996

> <r_epik_Ionization_Penalty>
0.00069087

> <r_epik_Ionization_Penalty_Charging>
2.61959e-08

> <r_epik_Ionization_Penalty_Neutral>
0.000690844

> <r_epik_State_Penalty>
1.15523e-05

> <r_epik_Charging_Adjusted_Penalty>
1.15785e-05

> <i_epik_Tot_Q>
0

> <i_epik_Tot_abs_Q>
0

> <r_epik_Metal_State_Penalty>
-0

> <b_epik_Metal_Only>
0

> <s_epik_Chemistry_Notes>
This compound contains an acetal/aminal-like group ( X-CH(R)-Y where X, Y are N, S, or O) that may be acid/base labile, releasing an aldehyde.

> <s_lp_Force_Field>
OPLS_2005

> <r_lp_Energy>
39.3068

> <b_lp_Chiralities_Consistent>
1

> <s_lp_Variant>
AV-unprocessed.smi:53-12

> <Gold.Version>
5.8.1

> <Gold.Id.Protein>
6NUR|6NUR_protein|mol2

> <Gold.PLP.Fitness>
34.3479

> <Gold.PLP.PLP>
-23.2255

> <Gold.PLP.part.hbond>
-5.0000

> <Gold.PLP.part.metal>
0.0000

> <Gold.PLP.part.buried>
-3.9000

> <Gold.PLP.part.nonpolar>
-14.7084

> <Gold.PLP.part.repulsive>
0.0654

> <Gold.PLP.ligand.clash>
0.0000

> <Gold.PLP.ligand.torsion>
0.4429

> <Gold.PLP.Chemscore.Hbond>
3.0000

> <Gold.PLP.Chemscore.CHOScore>
1.0000

> <Gold.PLP.Chemscore.Metal>
0.0000

> <Gold.Chemscore.Hbonds>
donor molecule, donor type, donor heavy atom, donor atom, acceptor molecule, acceptor atom, score
      L1  H    10    28       P1 10175  1.00
      L1  H    12    29       P1  7957  0.99
      P1  H  7989  7998       L1    14  1.00
      L1  C     4    25       P1  8028  1.00

> <Gold.PLP.Chemscore.Internal.Correction>
0.0081

> <Gold.Rescore>
     Score         DG    S(hbond)    S(metal)    S(lipo)     H(rot)  DE(clash)    DE(int)     intcor
      8.91      -9.70       2.80        0.00      37.43       3.71       0.20       0.59       ----

> <Gold.Chemscore.Fitness>
8.9131

> <Gold.Chemscore.DG>
-9.7043

> <Gold.Chemscore.ZeroCoef>
-5.4800

> <Gold.Chemscore.Hbond>
2.7966

> <Gold.Chemscore.Metal>
0.0000

> <Gold.Chemscore.Lipo>
37.4350

> <Gold.Chemscore.Internal_Hbond>
0.0000

> <Gold.Chemscore.DEClash>
0.2014

> <Gold.Chemscore.DEInternal>
0.5897

> <Gold.Chemscore.Rot>
3.7095

> <Gold.Chemscore.Internal.Correction>
   9.000000E+99

> <Gold.Chemscore.Hbonds>
donor molecule, donor type, donor heavy atom, donor atom, acceptor molecule, acceptor atom, score
      L1  H    10    28       P1 10175  0.56
      L1  H    12    29       P1  7957  0.88
      P1  H  7989  7998       L1    14  0.58

> <Gold.Chemscore.Hbond.Weighted>
-9.3408

> <Gold.Chemscore.Metal.Weighted>
-0.0000

> <Gold.Chemscore.Lipo.Weighted>
-4.3799

> <Gold.Chemscore.Internal_Hbond.Weighted>
0.0000

> <Gold.Chemscore.DEClash.Weighted>
0.2014

> <Gold.Chemscore.DEInternal.Weighted>
0.5897

> <Gold.Chemscore.Rot.Weighted>
9.4964

> <Gold.Chemscore.Internal.Correction.Weighted>
   9.000000E+99

> <Gold.Protein.RotatedTorsions>
[ 6907 6896 6895 6894 ] final -152.75 input  -60.11 | X-H torsion
[ 7974 7965 7964 7962 ] final -110.52 input  175.53 | X-H torsion
[ 8008 7997 7996 7995 ] final  -29.87 input   59.86 | X-H torsion
[ 10167 10162 10161 10158 ] final   60.52 input  -65.29 | X-H torsion
[ 10718 10713 10712 10709 ] final  164.13 input   66.30 | X-H torsion
[ 10763 10752 10751 10750 ] final -162.20 input  -60.55 | X-H torsion
[ 11005 11000 10999 10996 ] final   88.35 input  -57.11 | X-H torsion

> <Gold.Protein.ActiveResidues>
 VAL166  LYS551  ARG553  GLY616  TRP617  ASP618  TYR619  PRO620  LYS621  CYS622 
 ASP623  PHE694  ASN695  SER759  ASP760  ASP761  ALA762  ILE779  LEU786  VAL792 
 PHE793  MET794  SER795  GLU796  ALA797  LYS798  CYS799  TRP800  GLU811  SER814 

> <Gold.Protein.RotatedAtoms>
  151.2324  133.4443  159.2604 H   0  0  0  0  0  0  0  0  0  0  0  0  # atno 6907 bound_to 6896
  151.0782  134.9842  159.8353 H   0  0  0  0  0  0  0  0  0  0  0  0  # atno 6908 bound_to 6896
  152.5421  134.2265  159.8861 H   0  0  0  0  0  0  0  0  0  0  0  0  # atno 6909 bound_to 6896
  145.1673  140.8908  143.3556 H   0  0  0  0  0  0  0  0  0  0  0  0  # atno 7974 bound_to 7965
  154.4273  140.1807  156.1316 H   0  0  0  0  0  0  0  0  0  0  0  0  # atno 8008 bound_to 7997
  156.0063  140.3355  155.6871 H   0  0  0  0  0  0  0  0  0  0  0  0  # atno 8009 bound_to 7997
  155.6173  140.0656  157.2679 H   0  0  0  0  0  0  0  0  0  0  0  0  # atno 8010 bound_to 7997
  140.1647  144.4336  150.6691 H   0  0  0  0  0  0  0  0  0  0  0  0  # atno 10167 bound_to 10162
  157.0987  131.0437  151.2507 H   0  0  0  0  0  0  0  0  0  0  0  0  # atno 10718 bound_to 10713
  154.7235  135.3031  154.9008 H   0  0  0  0  0  0  0  0  0  0  0  0  # atno 10763 bound_to 10752
  153.9873  135.6723  153.4756 H   0  0  0  0  0  0  0  0  0  0  0  0  # atno 10764 bound_to 10752
  153.0855  135.4986  154.8506 H   0  0  0  0  0  0  0  0  0  0  0  0  # atno 10765 bound_to 10752
  139.8898  134.8482  156.2988 H   0  0  0  0  0  0  0  0  0  0  0  0  # atno 11005 bound_to 11000
  145.0269  139.3374  143.6044 LP  0  0  0  0  0  0  0  0  0  0  0  0  # atno 17320 bound_to 7965
  146.3474  139.9592  142.8719 LP  0  0  0  0  0  0  0  0  0  0  0  0  # atno 17321 bound_to 7965
  140.6621  143.2255  151.5832 LP  0  0  0  0  0  0  0  0  0  0  0  0  # atno 17342 bound_to 10162
  139.5365  144.2766  152.1262 LP  0  0  0  0  0  0  0  0  0  0  0  0  # atno 17343 bound_to 10162
  157.4660  130.7680  149.7279 LP  0  0  0  0  0  0  0  0  0  0  0  0  # atno 17370 bound_to 10713
  155.9879  130.3963  150.3142 LP  0  0  0  0  0  0  0  0  0  0  0  0  # atno 17371 bound_to 10713
  140.9927  133.7199  156.0838 LP  0  0  0  0  0  0  0  0  0  0  0  0  # atno 17394 bound_to 11000
  140.7604  134.3946  157.5526 LP  0  0  0  0  0  0  0  0  0  0  0  0  # atno 17395 bound_to 11000

$$$$
