AV-unprocessed.smi:1276|AV-procd|sdf|5344|dock10
  -GOLD-   22720 4473D 1   1.00000     0.00000
 Structure written by MMmdl.
 44 45  0  0  0  0  0  0  0  0  1 V2000
  145.7767  143.6582  153.0008 C   0  0  0  0  0  0  0  0  0  0  0  0
  146.3204  142.6747  154.0016 C   0  0  0  0  0  0  0  0  0  0  0  0
  147.6019  142.5074  154.0136 N   0  0  0  0  0  0  0  0  0  0  0  0
  148.2041  141.6240  154.8887 N   0  0  0  0  0  0  0  0  0  0  0  0
  149.6655  141.5420  154.7480 C   0  0  0  0  0  0  0  0  0  0  0  0
  150.4064  141.5604  156.0931 C   0  0  0  0  0  0  0  0  0  0  0  0
  151.0415  140.5769  156.4763 O   0  0  0  0  0  0  0  0  0  0  0  0
  150.3324  142.7056  156.7892 N   0  0  0  0  0  0  0  0  0  0  0  0
  150.9547  142.9527  158.0885 C   0  0  0  0  0  0  0  0  0  0  0  0
  150.9237  144.4736  158.3514 C   0  0  0  0  0  0  0  0  0  0  0  0
  151.8191  145.0113  159.4829 C   0  0  0  0  0  0  0  0  0  0  0  0
  151.9882  144.0910  160.7017 C   0  0  0  0  0  0  0  0  0  0  0  0
  153.1168  143.0632  160.5144 C   0  0  0  0  0  0  0  0  0  0  0  0
  152.7814  141.9054  159.5631 C   0  0  0  0  0  0  0  0  0  0  0  0
  152.3638  142.3221  158.1416 C   0  0  0  0  0  0  0  0  0  0  0  0
  147.5389  140.8680  155.8092 C   0  0  0  0  0  0  0  0  0  0  0  0
  148.1182  140.0967  156.5757 O   0  0  0  0  0  0  0  0  0  0  0  0
  146.0876  141.0638  155.7910 C   0  0  0  0  0  0  0  0  0  0  0  0
  145.3524  140.2873  156.7366 C   0  0  0  0  0  0  0  0  0  0  0  0
  144.7389  139.6643  157.4951 N   0  0  0  0  0  0  0  0  0  0  0  0
  145.4842  141.9237  154.9326 C   0  0  0  0  0  0  0  0  0  0  0  0
  143.9815  142.1617  154.8726 C   0  0  0  0  0  0  0  0  0  0  0  0
  145.2701  144.4817  153.5043 H   0  0  0  0  0  0  0  0  0  0  0  0
  145.0614  143.1768  152.3339 H   0  0  0  0  0  0  0  0  0  0  0  0
  146.5659  144.0868  152.3812 H   0  0  0  0  0  0  0  0  0  0  0  0
  149.9429  140.6257  154.2238 H   0  0  0  0  0  0  0  0  0  0  0  0
  150.0258  142.3582  154.1190 H   0  0  0  0  0  0  0  0  0  0  0  0
  149.7939  143.4627  156.3942 H   0  0  0  0  0  0  0  0  0  0  0  0
  150.3345  142.4752  158.8495 H   0  0  0  0  0  0  0  0  0  0  0  0
  151.1880  145.0118  157.4398 H   0  0  0  0  0  0  0  0  0  0  0  0
  149.8907  144.7539  158.5627 H   0  0  0  0  0  0  0  0  0  0  0  0
  152.8026  145.2565  159.0797 H   0  0  0  0  0  0  0  0  0  0  0  0
  151.4035  145.9637  159.8141 H   0  0  0  0  0  0  0  0  0  0  0  0
  152.2504  144.7145  161.5572 H   0  0  0  0  0  0  0  0  0  0  0  0
  151.0479  143.6054  160.9648 H   0  0  0  0  0  0  0  0  0  0  0  0
  154.0229  143.5665  160.1753 H   0  0  0  0  0  0  0  0  0  0  0  0
  153.3647  142.6395  161.4880 H   0  0  0  0  0  0  0  0  0  0  0  0
  153.6598  141.2631  159.4908 H   0  0  0  0  0  0  0  0  0  0  0  0
  152.0018  141.2836  160.0048 H   0  0  0  0  0  0  0  0  0  0  0  0
  152.3758  141.4169  157.5326 H   0  0  0  0  0  0  0  0  0  0  0  0
  153.1048  142.9862  157.6953 H   0  0  0  0  0  0  0  0  0  0  0  0
  143.4422  141.5861  155.6241 H   0  0  0  0  0  0  0  0  0  0  0  0
  143.5885  141.8760  153.8965 H   0  0  0  0  0  0  0  0  0  0  0  0
  143.7520  143.2140  155.0417 H   0  0  0  0  0  0  0  0  0  0  0  0
  1  2  1  0  0  0  0
  1 23  1  0  0  0  0
  1 24  1  0  0  0  0
  1 25  1  0  0  0  0
  2 21  1  0  0  0  0
  2  3  2  0  0  0  0
  3  4  1  0  0  0  0
  4  5  1  0  0  0  0
  4 16  1  0  0  0  0
  5  6  1  0  0  0  0
  5 26  1  0  0  0  0
  5 27  1  0  0  0  0
  6  7  2  0  0  0  0
  6  8  1  0  0  0  0
  8  9  1  0  0  0  0
  8 28  1  0  0  0  0
  9 15  1  0  0  0  0
  9 10  1  0  0  0  0
  9 29  1  0  0  0  0
 10 11  1  0  0  0  0
 10 30  1  0  0  0  0
 10 31  1  0  0  0  0
 11 12  1  0  0  0  0
 11 32  1  0  0  0  0
 11 33  1  0  0  0  0
 12 13  1  0  0  0  0
 12 34  1  0  0  0  0
 12 35  1  0  0  0  0
 13 14  1  0  0  0  0
 13 36  1  0  0  0  0
 13 37  1  0  0  0  0
 14 15  1  0  0  0  0
 14 38  1  0  0  0  0
 14 39  1  0  0  0  0
 15 40  1  0  0  0  0
 15 41  1  0  0  0  0
 16 17  2  0  0  0  0
 16 18  1  0  0  0  0
 18 19  1  0  0  0  0
 18 21  2  0  0  0  0
 19 20  3  0  0  0  0
 21 22  1  0  0  0  0
 22 42  1  0  0  0  0
 22 43  1  0  0  0  0
 22 44  1  0  0  0  0
M  END
> <s_m_source_file>
AV-unprocessed.smi

> <i_m_source_file_index>
1276

> <i_lp_mmshare_version>
43012

> <i_f3d_flags>
0

> <s_epik_input>
TiNDYyhjMVtDSDNdKWMoPU8pbihuYzFbQ0gzXSlbQ0gyXUMoPU8pW05IXVtDSF0yW0NIMl1bQ0gyXVtDSDJdW0NIMl1bQ0gyXVtDSDJdMg==

> <s_epik_cmdline>
J2VwaWtfcHl0aG9uJywgJy1waCcsICc3LjAnLCAnLXRuJywgJzgnLCAnLW1hJywgJzIwMCcsICctbWV0YWxfYmluZGluZycsICctaW1hZScsICc8aW5maWxlLm1hZT4nLCAnLW9tYWUnLCAnPG91dGZpbGUubWFlPic=

> <r_lp_tautomer_probability>
1

> <r_epik_Ionization_Penalty>
2.02378e-08

> <r_epik_Ionization_Penalty_Charging>
2.27609e-11

> <r_epik_Ionization_Penalty_Neutral>
2.0215e-08

> <r_epik_State_Penalty>
-0

> <r_epik_Charging_Adjusted_Penalty>
2.27609e-11

> <i_epik_Tot_Q>
0

> <i_epik_Tot_abs_Q>
0

> <r_epik_Metal_State_Penalty>
-0

> <b_epik_Metal_Only>
0

> <s_lp_Force_Field>
OPLS_2005

> <r_lp_Energy>
30.1422

> <b_lp_Chiralities_Consistent>
1

> <s_lp_Variant>
AV-unprocessed.smi:1276-1

> <Gold.Version>
5.8.1

> <Gold.Id.Protein>
6NUR|6NUR_protein|mol2

> <Gold.PLP.Fitness>
43.0620

> <Gold.PLP.PLP>
-40.9555

> <Gold.PLP.part.hbond>
-1.0000

> <Gold.PLP.part.metal>
0.0000

> <Gold.PLP.part.buried>
-6.7143

> <Gold.PLP.part.nonpolar>
-34.6651

> <Gold.PLP.part.repulsive>
1.2188

> <Gold.PLP.ligand.clash>
0.0000

> <Gold.PLP.ligand.torsion>
0.4565

> <Gold.PLP.Chemscore.Hbond>
1.0000

> <Gold.PLP.Chemscore.CHOScore>
0.0000

> <Gold.PLP.Chemscore.Metal>
0.0000

> <Gold.Chemscore.Hbonds>
donor molecule, donor type, donor heavy atom, donor atom, acceptor molecule, acceptor atom, score
      L1  H     8    28       P1  8028  1.00

> <Gold.PLP.Chemscore.Internal.Correction>
0.0194

> <Gold.Rescore>
     Score         DG    S(hbond)    S(metal)    S(lipo)     H(rot)  DE(clash)    DE(int)     intcor
     14.48     -17.17       1.00        0.00     103.38       1.46       0.22       2.47       ----

> <Gold.Chemscore.Fitness>
14.4835

> <Gold.Chemscore.DG>
-17.1734

> <Gold.Chemscore.ZeroCoef>
-5.4800

> <Gold.Chemscore.Hbond>
0.9999

> <Gold.Chemscore.Metal>
0.0000

> <Gold.Chemscore.Lipo>
103.3784

> <Gold.Chemscore.Internal_Hbond>
0.0000

> <Gold.Chemscore.DEClash>
0.2214

> <Gold.Chemscore.DEInternal>
2.4685

> <Gold.Chemscore.Rot>
1.4615

> <Gold.Chemscore.Internal.Correction>
   9.000000E+99

> <Gold.Chemscore.Hbonds>
donor molecule, donor type, donor heavy atom, donor atom, acceptor molecule, acceptor atom, score
      L1  H     8    28       P1  8028  1.00
      P1  H  8022  8030       L1     3  0.01

> <Gold.Chemscore.Hbond.Weighted>
-3.3395

> <Gold.Chemscore.Metal.Weighted>
-0.0000

> <Gold.Chemscore.Lipo.Weighted>
-12.0953

> <Gold.Chemscore.Internal_Hbond.Weighted>
0.0000

> <Gold.Chemscore.DEClash.Weighted>
0.2214

> <Gold.Chemscore.DEInternal.Weighted>
2.4685

> <Gold.Chemscore.Rot.Weighted>
3.7414

> <Gold.Chemscore.Internal.Correction.Weighted>
   9.000000E+99

> <Gold.Protein.RotatedTorsions>
[ 6907 6896 6895 6894 ] final  140.27 input  -60.11 | X-H torsion
[ 7974 7965 7964 7962 ] final  -30.78 input  175.53 | X-H torsion
[ 8008 7997 7996 7995 ] final -170.98 input   59.86 | X-H torsion
[ 10167 10162 10161 10158 ] final  134.30 input  -65.29 | X-H torsion
[ 10718 10713 10712 10709 ] final  154.19 input   66.30 | X-H torsion
[ 10763 10752 10751 10750 ] final    0.90 input  -60.55 | X-H torsion
[ 11005 11000 10999 10996 ] final -136.83 input  -57.11 | X-H torsion

> <Gold.Protein.ActiveResidues>
 VAL166  LYS551  ARG553  GLY616  TRP617  ASP618  TYR619  PRO620  LYS621  CYS622 
 ASP623  PHE694  ASN695  SER759  ASP760  ASP761  ALA762  ILE779  LEU786  VAL792 
 PHE793  MET794  SER795  GLU796  ALA797  LYS798  CYS799  TRP800  GLU811  SER814 

> <Gold.Protein.RotatedAtoms>
  152.2450  133.5167  159.5291 H   0  0  0  0  0  0  0  0  0  0  0  0  # atno 6907 bound_to 6896
  150.7076  134.1038  159.3984 H   0  0  0  0  0  0  0  0  0  0  0  0  # atno 6908 bound_to 6896
  151.8958  135.0398  160.0552 H   0  0  0  0  0  0  0  0  0  0  0  0  # atno 6909 bound_to 6896
  146.1117  140.5584  142.8775 H   0  0  0  0  0  0  0  0  0  0  0  0  # atno 7974 bound_to 7965
  155.9255  140.1082  157.1173 H   0  0  0  0  0  0  0  0  0  0  0  0  # atno 8008 bound_to 7997
  154.4061  140.1247  156.4800 H   0  0  0  0  0  0  0  0  0  0  0  0  # atno 8009 bound_to 7997
  155.7144  140.3470  155.4990 H   0  0  0  0  0  0  0  0  0  0  0  0  # atno 8010 bound_to 7997
  139.5262  144.6574  151.5120 H   0  0  0  0  0  0  0  0  0  0  0  0  # atno 10167 bound_to 10162
  157.2348  131.0747  151.1830 H   0  0  0  0  0  0  0  0  0  0  0  0  # atno 10718 bound_to 10713
  153.3149  135.6965  153.7082 H   0  0  0  0  0  0  0  0  0  0  0  0  # atno 10763 bound_to 10752
  153.5945  135.3473  155.2924 H   0  0  0  0  0  0  0  0  0  0  0  0  # atno 10764 bound_to 10752
  154.8584  135.4326  154.2297 H   0  0  0  0  0  0  0  0  0  0  0  0  # atno 10765 bound_to 10752
  140.8769  134.1981  157.4616 H   0  0  0  0  0  0  0  0  0  0  0  0  # atno 11005 bound_to 11000
  144.7517  140.5208  143.6797 LP  0  0  0  0  0  0  0  0  0  0  0  0  # atno 17320 bound_to 7965
  145.5650  139.1481  143.3320 LP  0  0  0  0  0  0  0  0  0  0  0  0  # atno 17321 bound_to 7965
  140.6406  143.8897  150.6688 LP  0  0  0  0  0  0  0  0  0  0  0  0  # atno 17342 bound_to 10162
  140.2230  143.3794  152.1627 LP  0  0  0  0  0  0  0  0  0  0  0  0  # atno 17343 bound_to 10162
  157.3440  130.7048  149.6399 LP  0  0  0  0  0  0  0  0  0  0  0  0  # atno 17370 bound_to 10713
  155.9673  130.4271  150.4731 LP  0  0  0  0  0  0  0  0  0  0  0  0  # atno 17371 bound_to 10713
  139.8716  134.9799  156.5057 LP  0  0  0  0  0  0  0  0  0  0  0  0  # atno 17394 bound_to 11000
  140.8508  133.8134  155.9166 LP  0  0  0  0  0  0  0  0  0  0  0  0  # atno 17395 bound_to 11000

$$$$
