AV-unprocessed.smi:3030|AV-procd|sdf|11539|dock1
  -GOLD-   2272016483D 1   1.00000     0.00000
 Structure written by MMmdl.
 52 53  0  0  0  0  0  0  0  0  1 V2000
  148.6331  131.3378  161.5623 C   0  0  0  0  0  0  0  0  0  0  0  0
  147.2525  131.9638  161.3356 C   0  0  0  0  0  0  0  0  0  0  0  0
  147.3102  133.4183  161.3538 N   0  0  0  0  0  0  0  0  0  0  0  0
  146.7593  134.1508  162.3999 C   0  0  0  0  0  0  0  0  0  0  0  0
  146.8249  135.4925  162.4986 C   0  0  0  0  0  0  0  0  0  0  0  0
  147.5225  136.2619  161.4485 C   0  0  0  0  0  0  0  0  0  0  0  0
  147.6027  137.4889  161.5073 O   0  0  0  0  0  0  0  0  0  0  0  0
  148.1147  135.4791  160.3315 C   0  0  0  0  0  0  0  0  0  0  0  0
  148.7814  136.2192  159.3411 N   0  0  0  0  0  0  0  0  0  0  0  0
  148.3796  137.3211  158.6820 C   0  0  0  0  0  0  0  0  0  0  0  0
  147.3128  137.9127  158.8450 O   0  0  0  0  0  0  0  0  0  0  0  0
  149.3180  137.7220  157.8121 N   0  0  0  0  0  0  0  0  0  0  0  0
  149.2382  138.9053  156.9611 C   0  0  2  0  0  0  0  0  0  0  0  0
  148.1197  138.7556  155.9129 C   0  0  0  0  0  0  0  0  0  0  0  0
  147.8922  140.0791  155.1547 C   0  0  2  0  0  0  0  0  0  0  0  0
  146.8097  139.9308  154.0760 C   0  0  0  0  0  0  0  0  0  0  0  0
  149.2131  140.6140  154.5645 C   0  0  0  0  0  0  0  0  0  0  0  0
  150.3246  140.6943  155.6289 C   0  0  0  0  0  0  0  0  0  0  0  0
  150.5891  139.3243  156.3039 C   0  0  2  0  0  0  0  0  0  0  0  0
  151.2600  138.2808  155.3416 C   0  0  0  0  0  0  0  0  0  0  0  0
  151.5833  136.9278  156.0069 C   0  0  0  0  0  0  0  0  0  0  0  0
  152.5596  138.8172  154.7073 C   0  0  0  0  0  0  0  0  0  0  0  0
  147.9783  134.1285  160.3583 C   0  0  0  0  0  0  0  0  0  0  0  0
  148.5725  130.2497  161.5431 H   0  0  0  0  0  0  0  0  0  0  0  0
  149.0446  131.6315  162.5284 H   0  0  0  0  0  0  0  0  0  0  0  0
  149.3375  131.6464  160.7895 H   0  0  0  0  0  0  0  0  0  0  0  0
  146.8466  131.6272  160.3809 H   0  0  0  0  0  0  0  0  0  0  0  0
  146.5577  131.6179  162.1016 H   0  0  0  0  0  0  0  0  0  0  0  0
  146.2566  133.5526  163.1463 H   0  0  0  0  0  0  0  0  0  0  0  0
  146.3787  136.0197  163.3292 H   0  0  0  0  0  0  0  0  0  0  0  0
  149.7039  135.8760  159.1160 H   0  0  0  0  0  0  0  0  0  0  0  0
  150.1649  137.1768  157.7460 H   0  0  0  0  0  0  0  0  0  0  0  0
  148.9282  139.7187  157.6209 H   0  0  0  0  0  0  0  0  0  0  0  0
  148.3584  137.9534  155.2142 H   0  0  0  0  0  0  0  0  0  0  0  0
  147.1924  138.4614  156.4064 H   0  0  0  0  0  0  0  0  0  0  0  0
  147.5336  140.8149  155.8763 H   0  0  0  0  0  0  0  0  0  0  0  0
  147.1036  139.2057  153.3164 H   0  0  0  0  0  0  0  0  0  0  0  0
  146.6214  140.8806  153.5749 H   0  0  0  0  0  0  0  0  0  0  0  0
  145.8672  139.5952  154.5096 H   0  0  0  0  0  0  0  0  0  0  0  0
  149.5366  139.9811  153.7379 H   0  0  0  0  0  0  0  0  0  0  0  0
  149.0492  141.6045  154.1385 H   0  0  0  0  0  0  0  0  0  0  0  0
  151.2316  141.1175  155.2010 H   0  0  0  0  0  0  0  0  0  0  0  0
  150.0228  141.4131  156.3920 H   0  0  0  0  0  0  0  0  0  0  0  0
  151.3024  139.5093  157.1083 H   0  0  0  0  0  0  0  0  0  0  0  0
  150.5795  138.0702  154.5172 H   0  0  0  0  0  0  0  0  0  0  0  0
  152.1189  137.0630  156.9471 H   0  0  0  0  0  0  0  0  0  0  0  0
  152.2048  136.3054  155.3624 H   0  0  0  0  0  0  0  0  0  0  0  0
  150.6860  136.3437  156.2021 H   0  0  0  0  0  0  0  0  0  0  0  0
  153.2629  139.1547  155.4693 H   0  0  0  0  0  0  0  0  0  0  0  0
  152.3713  139.6455  154.0255 H   0  0  0  0  0  0  0  0  0  0  0  0
  153.0590  138.0494  154.1154 H   0  0  0  0  0  0  0  0  0  0  0  0
  148.3849  133.4807  159.5983 H   0  0  0  0  0  0  0  0  0  0  0  0
  1  2  1  0  0  0  0
  1 24  1  0  0  0  0
  1 25  1  0  0  0  0
  1 26  1  0  0  0  0
  2  3  1  0  0  0  0
  2 27  1  0  0  0  0
  2 28  1  0  0  0  0
  3 23  1  0  0  0  0
  3  4  1  0  0  0  0
  4  5  2  0  0  0  0
  4 29  1  0  0  0  0
  5  6  1  0  0  0  0
  5 30  1  0  0  0  0
  6  7  2  0  0  0  0
  6  8  1  0  0  0  0
  8  9  1  0  0  0  0
  8 23  2  0  0  0  0
  9 10  1  0  0  0  0
  9 31  1  0  0  0  0
 10 11  2  0  0  0  0
 10 12  1  0  0  0  0
 12 13  1  0  0  0  0
 12 32  1  0  0  0  0
 13 19  1  0  0  0  0
 13 14  1  0  0  0  0
 13 33  1  0  0  0  0
 14 15  1  0  0  0  0
 14 34  1  0  0  0  0
 14 35  1  0  0  0  0
 15 16  1  0  0  0  0
 15 17  1  0  0  0  0
 15 36  1  0  0  0  0
 16 37  1  0  0  0  0
 16 38  1  0  0  0  0
 16 39  1  0  0  0  0
 17 18  1  0  0  0  0
 17 40  1  0  0  0  0
 17 41  1  0  0  0  0
 18 19  1  0  0  0  0
 18 42  1  0  0  0  0
 18 43  1  0  0  0  0
 19 20  1  0  0  0  0
 19 44  1  0  0  0  0
 20 21  1  0  0  0  0
 20 22  1  0  0  0  0
 20 45  1  0  0  0  0
 21 46  1  0  0  0  0
 21 47  1  0  0  0  0
 21 48  1  0  0  0  0
 22 49  1  0  0  0  0
 22 50  1  0  0  0  0
 22 51  1  0  0  0  0
 23 52  1  0  0  0  0
M  END
> <s_m_source_file>
AV-unprocessed.smi

> <i_m_source_file_index>
3030

> <i_lp_mmshare_version>
43012

> <i_f3d_flags>
0

> <s_epik_input>
W0NIM11bQ0gyXW4xW2NIXVtjSF1jKD1PKWMoW2NIXTEpW05IXUMoPU8pW05IXVtDQEBIXTJbQ0gyXVtDQEBIXShbQ0gzXSlbQ0gyXVtDSDJdW0NASF0yW0NIXShbQ0gzXSlbQ0gzXQ==

> <s_epik_cmdline>
J2VwaWtfcHl0aG9uJywgJy1waCcsICc3LjAnLCAnLXRuJywgJzgnLCAnLW1hJywgJzIwMCcsICctbWV0YWxfYmluZGluZycsICctaW1hZScsICc8aW5maWxlLm1hZT4nLCAnLW9tYWUnLCAnPG91dGZpbGUubWFlPic=

> <r_lp_tautomer_probability>
1

> <r_epik_Ionization_Penalty>
0.00147933

> <r_epik_Ionization_Penalty_Charging>
0.00145753

> <r_epik_Ionization_Penalty_Neutral>
2.17987e-05

> <r_epik_State_Penalty>
0.00097457

> <r_epik_Charging_Adjusted_Penalty>
0.0024321

> <i_epik_Tot_Q>
0

> <i_epik_Tot_abs_Q>
0

> <r_epik_Metal_State_Penalty>
-0

> <b_epik_Metal_Only>
0

> <s_lp_Force_Field>
OPLS_2005

> <r_lp_Energy>
13.9811

> <b_lp_Chiralities_Consistent>
1

> <s_lp_Variant>
AV-unprocessed.smi:3030-7

> <Gold.Version>
5.8.1

> <Gold.Id.Protein>
6NUR|6NUR_protein|mol2

> <Gold.PLP.Fitness>
41.2679

> <Gold.PLP.PLP>
-37.6549

> <Gold.PLP.part.hbond>
-2.9314

> <Gold.PLP.part.metal>
0.0000

> <Gold.PLP.part.buried>
-3.4123

> <Gold.PLP.part.nonpolar>
-31.9570

> <Gold.PLP.part.repulsive>
0.2427

> <Gold.PLP.ligand.clash>
0.0000

> <Gold.PLP.ligand.torsion>
0.5979

> <Gold.PLP.Chemscore.Hbond>
1.5680

> <Gold.PLP.Chemscore.CHOScore>
0.0000

> <Gold.PLP.Chemscore.Metal>
0.0000

> <Gold.Chemscore.Hbonds>
donor molecule, donor type, donor heavy atom, donor atom, acceptor molecule, acceptor atom, score
      P1  H  6931  6943       L1     7  0.82
      P1  H  6934  6947       L1     7  0.75

> <Gold.PLP.Chemscore.Internal.Correction>
0.1049

> <Gold.Rescore>
     Score         DG    S(hbond)    S(metal)    S(lipo)     H(rot)  DE(clash)    DE(int)     intcor
     14.88     -18.13       1.76        0.00      85.63       1.27       0.05       3.20       ----

> <Gold.Chemscore.Fitness>
14.8782

> <Gold.Chemscore.DG>
-18.1278

> <Gold.Chemscore.ZeroCoef>
-5.4800

> <Gold.Chemscore.Hbond>
1.7594

> <Gold.Chemscore.Metal>
0.0000

> <Gold.Chemscore.Lipo>
85.6304

> <Gold.Chemscore.Internal_Hbond>
0.0000

> <Gold.Chemscore.DEClash>
0.0462

> <Gold.Chemscore.DEInternal>
3.2034

> <Gold.Chemscore.Rot>
1.2685

> <Gold.Chemscore.Internal.Correction>
   9.000000E+99

> <Gold.Chemscore.Hbonds>
donor molecule, donor type, donor heavy atom, donor atom, acceptor molecule, acceptor atom, score
      P1  H  6931  6943       L1     7  0.80
      P1  H  6934  6947       L1     7  0.74

> <Gold.Chemscore.Hbond.Weighted>
-5.8765

> <Gold.Chemscore.Metal.Weighted>
-0.0000

> <Gold.Chemscore.Lipo.Weighted>
-10.0188

> <Gold.Chemscore.Internal_Hbond.Weighted>
0.0000

> <Gold.Chemscore.DEClash.Weighted>
0.0462

> <Gold.Chemscore.DEInternal.Weighted>
3.2034

> <Gold.Chemscore.Rot.Weighted>
3.2474

> <Gold.Chemscore.Internal.Correction.Weighted>
   9.000000E+99

> <Gold.Protein.RotatedTorsions>
[ 6907 6896 6895 6894 ] final   18.80 input  -60.11 | X-H torsion
[ 7974 7965 7964 7962 ] final  -29.82 input  175.53 | X-H torsion
[ 8008 7997 7996 7995 ] final  -69.39 input   59.86 | X-H torsion
[ 10167 10162 10161 10158 ] final   -6.68 input  -65.29 | X-H torsion
[ 10718 10713 10712 10709 ] final   47.76 input   66.30 | X-H torsion
[ 10763 10752 10751 10750 ] final  115.17 input  -60.55 | X-H torsion
[ 11005 11000 10999 10996 ] final  -44.31 input  -57.11 | X-H torsion

> <Gold.Protein.ActiveResidues>
 VAL166  LYS551  ARG553  GLY616  TRP617  ASP618  TYR619  PRO620  LYS621  CYS622 
 ASP623  PHE694  ASN695  SER759  ASP760  ASP761  ALA762  ILE779  LEU786  VAL792 
 PHE793  MET794  SER795  GLU796  ALA797  LYS798  CYS799  TRP800  GLU811  SER814 

> <Gold.Protein.RotatedAtoms>
  151.8710  135.0489  160.0478 H   0  0  0  0  0  0  0  0  0  0  0  0  # atno 6907 bound_to 6896
  152.2589  133.5275  159.5378 H   0  0  0  0  0  0  0  0  0  0  0  0  # atno 6908 bound_to 6896
  150.7109  134.0774  159.3928 H   0  0  0  0  0  0  0  0  0  0  0  0  # atno 6909 bound_to 6896
  146.1189  140.5461  142.8744 H   0  0  0  0  0  0  0  0  0  0  0  0  # atno 7974 bound_to 7965
  154.4935  140.0854  156.7646 H   0  0  0  0  0  0  0  0  0  0  0  0  # atno 8008 bound_to 7997
  155.4172  140.3444  155.4250 H   0  0  0  0  0  0  0  0  0  0  0  0  # atno 8009 bound_to 7997
  156.1362  140.1516  156.8978 H   0  0  0  0  0  0  0  0  0  0  0  0  # atno 8010 bound_to 7997
  140.7005  143.6166  150.8652 H   0  0  0  0  0  0  0  0  0  0  0  0  # atno 10167 bound_to 10162
  157.4618  130.8201  149.7894 H   0  0  0  0  0  0  0  0  0  0  0  0  # atno 10718 bound_to 10713
  153.5181  135.3603  155.2619 H   0  0  0  0  0  0  0  0  0  0  0  0  # atno 10763 bound_to 10752
  154.8737  135.4039  154.3291 H   0  0  0  0  0  0  0  0  0  0  0  0  # atno 10764 bound_to 10752
  153.3956  135.7073  153.6530 H   0  0  0  0  0  0  0  0  0  0  0  0  # atno 10765 bound_to 10752
  141.0442  133.6768  156.2854 H   0  0  0  0  0  0  0  0  0  0  0  0  # atno 11005 bound_to 11000
  144.7578  140.5350  143.6756 LP  0  0  0  0  0  0  0  0  0  0  0  0  # atno 17320 bound_to 7965
  145.5509  139.1477  143.3395 LP  0  0  0  0  0  0  0  0  0  0  0  0  # atno 17321 bound_to 7965
  139.9888  143.5870  152.2917 LP  0  0  0  0  0  0  0  0  0  0  0  0  # atno 17342 bound_to 10162
  139.6518  144.7661  151.2134 LP  0  0  0  0  0  0  0  0  0  0  0  0  # atno 17343 bound_to 10162
  156.0032  130.3869  150.2528 LP  0  0  0  0  0  0  0  0  0  0  0  0  # atno 17370 bound_to 10713
  157.0706  131.0115  151.3191 LP  0  0  0  0  0  0  0  0  0  0  0  0  # atno 17371 bound_to 10713
  140.6178  134.5392  157.5543 LP  0  0  0  0  0  0  0  0  0  0  0  0  # atno 17394 bound_to 11000
  139.9299  134.7984  156.0962 LP  0  0  0  0  0  0  0  0  0  0  0  0  # atno 17395 bound_to 11000

$$$$
