AV-unprocessed.smi:1629|AV-procd|sdf|6521|dock1
  -GOLD-   22720 7193D 1   1.00000     0.00000
 Structure written by MMmdl.
 44 45  0  0  0  0  0  0  0  0  1 V2000
  150.1238  133.4996  155.0024 C   0  0  0  0  0  0  0  0  0  0  0  0
  150.4126  134.5189  156.5037 S   0  0  0  0  0  0  0  0  0  0  0  0
  149.9022  133.7944  157.6775 O   0  0  0  0  0  0  0  0  0  0  0  0
  151.8009  135.0042  156.4758 O   0  0  0  0  0  0  0  0  0  0  0  0
  149.3733  135.8703  156.2360 N   0  0  0  0  0  0  0  0  0  0  0  0
  149.7016  136.8364  155.1828 C   0  0  0  0  0  0  0  0  0  0  0  0
  151.0185  137.5792  155.5190 C   0  0  0  0  0  0  0  0  0  0  0  0
  151.2373  138.7981  154.6053 C   0  0  0  0  0  0  0  0  0  0  0  0
  150.0526  139.6644  154.6961 N   0  0  0  0  0  0  0  0  0  0  0  0
  149.9277  140.7752  155.4655 C   0  0  0  0  0  0  0  0  0  0  0  0
  148.8694  141.3950  155.5801 O   0  0  0  0  0  0  0  0  0  0  0  0
  151.0445  141.1322  156.1255 N   0  0  0  0  0  0  0  0  0  0  0  0
  151.1295  142.1728  157.1495 C   0  0  0  0  0  0  0  0  0  0  0  0
  152.1223  141.8071  158.2730 C   0  0  0  0  0  0  0  0  0  0  0  0
  152.1278  142.7868  159.4361 C   0  0  0  0  0  0  0  0  0  0  0  0
  151.8747  144.1586  159.2218 C   0  0  0  0  0  0  0  0  0  0  0  0
  151.9449  145.0353  160.3212 C   0  0  0  0  0  0  0  0  0  0  0  0
  152.2563  144.5078  161.5886 C   0  0  0  0  0  0  0  0  0  0  0  0
  152.4769  143.1205  161.7014 C   0  0  0  0  0  0  0  0  0  0  0  0
  152.4120  142.2714  160.6532 N   0  0  0  0  0  0  0  0  0  0  0  0
  148.8837  139.0020  154.1094 C   0  0  0  0  0  0  0  0  0  0  0  0
  148.5126  137.8086  155.0083 C   0  0  0  0  0  0  0  0  0  0  0  0
  150.7408  132.6025  155.0493 H   0  0  0  0  0  0  0  0  0  0  0  0
  150.3890  134.0748  154.1154 H   0  0  0  0  0  0  0  0  0  0  0  0
  149.0734  133.2145  154.9507 H   0  0  0  0  0  0  0  0  0  0  0  0
  149.1632  136.3467  157.1127 H   0  0  0  0  0  0  0  0  0  0  0  0
  149.8382  136.2973  154.2447 H   0  0  0  0  0  0  0  0  0  0  0  0
  150.9993  137.9130  156.5550 H   0  0  0  0  0  0  0  0  0  0  0  0
  151.8679  136.9011  155.4326 H   0  0  0  0  0  0  0  0  0  0  0  0
  152.1685  139.3034  154.8621 H   0  0  0  0  0  0  0  0  0  0  0  0
  151.3668  138.4681  153.5736 H   0  0  0  0  0  0  0  0  0  0  0  0
  151.8768  140.5835  155.9669 H   0  0  0  0  0  0  0  0  0  0  0  0
  151.4365  143.1052  156.6754 H   0  0  0  0  0  0  0  0  0  0  0  0
  150.1468  142.3668  157.5819 H   0  0  0  0  0  0  0  0  0  0  0  0
  151.8812  140.8141  158.6544 H   0  0  0  0  0  0  0  0  0  0  0  0
  153.1312  141.7343  157.8648 H   0  0  0  0  0  0  0  0  0  0  0  0
  151.6508  144.5364  158.2351 H   0  0  0  0  0  0  0  0  0  0  0  0
  151.7701  146.0933  160.1928 H   0  0  0  0  0  0  0  0  0  0  0  0
  152.3222  145.1498  162.4543 H   0  0  0  0  0  0  0  0  0  0  0  0
  152.7144  142.6813  162.6588 H   0  0  0  0  0  0  0  0  0  0  0  0
  148.0306  139.6734  154.0004 H   0  0  0  0  0  0  0  0  0  0  0  0
  149.1180  138.6575  153.1012 H   0  0  0  0  0  0  0  0  0  0  0  0
  147.6545  137.2801  154.5918 H   0  0  0  0  0  0  0  0  0  0  0  0
  148.1974  138.1861  155.9829 H   0  0  0  0  0  0  0  0  0  0  0  0
  1  2  1  0  0  0  0
  1 23  1  0  0  0  0
  1 24  1  0  0  0  0
  1 25  1  0  0  0  0
  2  3  2  0  0  0  0
  2  4  2  0  0  0  0
  2  5  1  0  0  0  0
  5  6  1  0  0  0  0
  5 26  1  0  0  0  0
  6 22  1  0  0  0  0
  6  7  1  0  0  0  0
  6 27  1  0  0  0  0
  7  8  1  0  0  0  0
  7 28  1  0  0  0  0
  7 29  1  0  0  0  0
  8  9  1  0  0  0  0
  8 30  1  0  0  0  0
  8 31  1  0  0  0  0
  9 10  1  0  0  0  0
  9 21  1  0  0  0  0
 10 11  2  0  0  0  0
 10 12  1  0  0  0  0
 12 13  1  0  0  0  0
 12 32  1  0  0  0  0
 13 14  1  0  0  0  0
 13 33  1  0  0  0  0
 13 34  1  0  0  0  0
 14 15  1  0  0  0  0
 14 35  1  0  0  0  0
 14 36  1  0  0  0  0
 15 20  1  0  0  0  0
 15 16  2  0  0  0  0
 16 17  1  0  0  0  0
 16 37  1  0  0  0  0
 17 18  2  0  0  0  0
 17 38  1  0  0  0  0
 18 19  1  0  0  0  0
 18 39  1  0  0  0  0
 19 20  2  0  0  0  0
 19 40  1  0  0  0  0
 21 22  1  0  0  0  0
 21 41  1  0  0  0  0
 21 42  1  0  0  0  0
 22 43  1  0  0  0  0
 22 44  1  0  0  0  0
M  END
> <s_m_source_file>
AV-unprocessed.smi

> <i_m_source_file_index>
1629

> <i_lp_mmshare_version>
43012

> <i_f3d_flags>
0

> <s_epik_input>
W0NIM11TKD1PKSg9TylbTkhdW0NIXTFbQ0gyXVtDSDJdTihbQ0gyXVtDSDJdMSlDKD1PKVtOSF1bQ0gyXVtDSDJdYzJbY0hdW2NIXVtjSF1bY0hdbjI=

> <s_epik_cmdline>
J2VwaWtfcHl0aG9uJywgJy1waCcsICc3LjAnLCAnLXRuJywgJzgnLCAnLW1hJywgJzIwMCcsICctbWV0YWxfYmluZGluZycsICctaW1hZScsICc8aW5maWxlLm1hZT4nLCAnLW9tYWUnLCAnPG91dGZpbGUubWFlPic=

> <r_epik_Ionization_Penalty>
0.044864

> <r_epik_Ionization_Penalty_Charging>
0

> <r_epik_Ionization_Penalty_Neutral>
0.044864

> <r_epik_State_Penalty>
0.0379889

> <r_epik_Charging_Adjusted_Penalty>
0.0379889

> <i_epik_Tot_Q>
0

> <i_epik_Tot_abs_Q>
0

> <r_epik_Metal_State_Penalty>
0.04187

> <b_epik_Metal_Only>
0

> <s_lp_Force_Field>
OPLS_2005

> <r_lp_Energy>
21.9129

> <b_lp_Chiralities_Consistent>
1

> <s_lp_Variant>
AV-unprocessed.smi:1629-1

> <Gold.Version>
5.8.1

> <Gold.Id.Protein>
6NUR|6NUR_protein|mol2

> <Gold.PLP.Fitness>
46.4452

> <Gold.PLP.PLP>
-42.6545

> <Gold.PLP.part.hbond>
-2.0000

> <Gold.PLP.part.metal>
0.0000

> <Gold.PLP.part.buried>
-5.5552

> <Gold.PLP.part.nonpolar>
-35.2794

> <Gold.PLP.part.repulsive>
0.2586

> <Gold.PLP.ligand.clash>
0.0000

> <Gold.PLP.ligand.torsion>
0.7661

> <Gold.PLP.Chemscore.Hbond>
1.6960

> <Gold.PLP.Chemscore.CHOScore>
0.0000

> <Gold.PLP.Chemscore.Metal>
0.0000

> <Gold.Chemscore.Hbonds>
donor molecule, donor type, donor heavy atom, donor atom, acceptor molecule, acceptor atom, score
      P1  H  6896  6909       L1     3  0.78
      P1  H 10752 10763       L1     4  0.87

> <Gold.PLP.Chemscore.Internal.Correction>
0.2349

> <Gold.Rescore>
     Score         DG    S(hbond)    S(metal)    S(lipo)     H(rot)  DE(clash)    DE(int)     intcor
     16.20     -18.31       1.72        0.00     105.12       2.03       0.03       2.08       ----

> <Gold.Chemscore.Fitness>
16.2020

> <Gold.Chemscore.DG>
-18.3097

> <Gold.Chemscore.ZeroCoef>
-5.4800

> <Gold.Chemscore.Hbond>
1.7179

> <Gold.Chemscore.Metal>
0.0000

> <Gold.Chemscore.Lipo>
105.1193

> <Gold.Chemscore.Internal_Hbond>
0.0000

> <Gold.Chemscore.DEClash>
0.0297

> <Gold.Chemscore.DEInternal>
2.0780

> <Gold.Chemscore.Rot>
2.0340

> <Gold.Chemscore.Internal.Correction>
   9.000000E+99

> <Gold.Chemscore.Hbonds>
donor molecule, donor type, donor heavy atom, donor atom, acceptor molecule, acceptor atom, score
      P1  H  6896  6909       L1     3  0.76
      P1  H 10752 10763       L1     4  0.80

> <Gold.Chemscore.Hbond.Weighted>
-5.7378

> <Gold.Chemscore.Metal.Weighted>
-0.0000

> <Gold.Chemscore.Lipo.Weighted>
-12.2990

> <Gold.Chemscore.Internal_Hbond.Weighted>
0.0000

> <Gold.Chemscore.DEClash.Weighted>
0.0297

> <Gold.Chemscore.DEInternal.Weighted>
2.0780

> <Gold.Chemscore.Rot.Weighted>
5.2071

> <Gold.Chemscore.Internal.Correction.Weighted>
   9.000000E+99

> <Gold.Protein.RotatedTorsions>
[ 6907 6896 6895 6894 ] final  -21.69 input  -60.11 | X-H torsion
[ 7974 7965 7964 7962 ] final  -95.85 input  175.53 | X-H torsion
[ 8008 7997 7996 7995 ] final  -81.68 input   59.86 | X-H torsion
[ 10167 10162 10161 10158 ] final -117.29 input  -65.29 | X-H torsion
[ 10718 10713 10712 10709 ] final -154.27 input   66.30 | X-H torsion
[ 10763 10752 10751 10750 ] final   79.91 input  -60.55 | X-H torsion
[ 11005 11000 10999 10996 ] final -120.96 input  -57.11 | X-H torsion

> <Gold.Protein.ActiveResidues>
 VAL166  LYS551  ARG553  GLY616  TRP617  ASP618  TYR619  PRO620  LYS621  CYS622 
 ASP623  PHE694  ASN695  SER759  ASP760  ASP761  ALA762  ILE779  LEU786  VAL792 
 PHE793  MET794  SER795  GLU796  ALA797  LYS798  CYS799  TRP800  GLU811  SER814 

> <Gold.Protein.RotatedAtoms>
  151.2296  135.0549  159.8981 H   0  0  0  0  0  0  0  0  0  0  0  0  # atno 6907 bound_to 6896
  152.5406  134.0552  159.8138 H   0  0  0  0  0  0  0  0  0  0  0  0  # atno 6908 bound_to 6896
  151.0730  133.5402  159.2657 H   0  0  0  0  0  0  0  0  0  0  0  0  # atno 6909 bound_to 6896
  145.3546  140.9482  143.2535 H   0  0  0  0  0  0  0  0  0  0  0  0  # atno 7974 bound_to 7965
  154.6008  140.0644  156.9366 H   0  0  0  0  0  0  0  0  0  0  0  0  # atno 8008 bound_to 7997
  155.2135  140.3324  155.4307 H   0  0  0  0  0  0  0  0  0  0  0  0  # atno 8009 bound_to 7997
  156.2317  140.1844  156.7209 H   0  0  0  0  0  0  0  0  0  0  0  0  # atno 8010 bound_to 7997
  140.0700  143.4886  152.1985 H   0  0  0  0  0  0  0  0  0  0  0  0  # atno 10167 bound_to 10162
  156.4970  130.8373  151.2594 H   0  0  0  0  0  0  0  0  0  0  0  0  # atno 10718 bound_to 10713
  153.0991  135.4822  154.8833 H   0  0  0  0  0  0  0  0  0  0  0  0  # atno 10763 bound_to 10752
  154.7358  135.3070  154.8816 H   0  0  0  0  0  0  0  0  0  0  0  0  # atno 10764 bound_to 10752
  153.9439  135.6831  153.4797 H   0  0  0  0  0  0  0  0  0  0  0  0  # atno 10765 bound_to 10752
  141.0105  134.0271  157.3419 H   0  0  0  0  0  0  0  0  0  0  0  0  # atno 11005 bound_to 11000
  144.8692  139.5063  143.6776 LP  0  0  0  0  0  0  0  0  0  0  0  0  # atno 17320 bound_to 7965
  146.2953  139.7260  142.9131 LP  0  0  0  0  0  0  0  0  0  0  0  0  # atno 17321 bound_to 7965
  139.5842  144.7524  151.3563 LP  0  0  0  0  0  0  0  0  0  0  0  0  # atno 17342 bound_to 10162
  140.7130  143.7340  150.7602 LP  0  0  0  0  0  0  0  0  0  0  0  0  # atno 17343 bound_to 10162
  157.7467  130.9994  150.2889 LP  0  0  0  0  0  0  0  0  0  0  0  0  # atno 17370 bound_to 10713
  156.3370  130.3809  149.7441 LP  0  0  0  0  0  0  0  0  0  0  0  0  # atno 17371 bound_to 10713
  139.9087  135.0185  156.7600 LP  0  0  0  0  0  0  0  0  0  0  0  0  # atno 17394 bound_to 11000
  140.6741  133.9533  155.7873 LP  0  0  0  0  0  0  0  0  0  0  0  0  # atno 17395 bound_to 11000

$$$$
