AV-unprocessed.smi:2007|AV-procd|sdf|8136|dock7
  -GOLD-   2272010373D 1   1.00000     0.00000
 Structure written by MMmdl.
 37 38  0  0  0  0  0  0  0  0  2 V2000
  148.0301  141.8185  153.8636 C   0  0  0  0  0  0  0  0  0  0  0  0
  148.2516  141.1266  155.2155 C   0  0  1  0  0  0  0  0  0  0  0  0
  149.7284  140.7006  155.3885 C   0  0  0  0  0  0  0  0  0  0  0  0
  149.9410  139.2413  155.2142 N   0  3  0  0  0  0  0  0  0  0  0  0
  149.4618  138.7245  153.9092 C   0  0  0  0  0  0  0  0  0  0  0  0
  149.6446  137.1991  153.8435 C   0  0  0  0  0  0  0  0  0  0  0  0
  151.0137  136.8750  154.0546 O   0  0  0  0  0  0  0  0  0  0  0  0
  151.4704  137.2969  155.3341 C   0  0  0  0  0  0  0  0  0  0  0  0
  151.3427  138.8254  155.4519 C   0  0  0  0  0  0  0  0  0  0  0  0
  147.8224  142.0292  156.2851 N   0  0  0  0  0  0  0  0  0  0  0  0
  146.9856  141.7227  157.2882 C   0  0  0  0  0  0  0  0  0  0  0  0
  146.4996  140.6027  157.4471 O   0  0  0  0  0  0  0  0  0  0  0  0
  146.7650  142.7849  158.0821 N   0  0  0  0  0  0  0  0  0  0  0  0
  145.9769  142.8485  159.2611 C   0  0  0  0  0  0  0  0  0  0  0  0
  145.0486  141.9451  159.5976 N   0  0  0  0  0  0  0  0  0  0  0  0
  144.4303  142.2563  160.8115 C   0  0  0  0  0  0  0  0  0  0  0  0
  144.9063  143.4059  161.3913 C   0  0  0  0  0  0  0  0  0  0  0  0
  146.1579  144.1477  160.4308 S   0  0  0  0  0  0  0  0  0  0  0  0
  148.3002  141.1599  153.0375 H   0  0  0  0  0  0  0  0  0  0  0  0
  148.6308  142.7246  153.7757 H   0  0  0  0  0  0  0  0  0  0  0  0
  146.9842  142.0977  153.7310 H   0  0  0  0  0  0  0  0  0  0  0  0
  147.6164  140.2398  155.2223 H   0  0  0  0  0  0  0  0  0  0  0  0
  150.3717  141.2465  154.6967 H   0  0  0  0  0  0  0  0  0  0  0  0
  150.0482  140.9912  156.3905 H   0  0  0  0  0  0  0  0  0  0  0  0
  148.4097  138.9687  153.7655 H   0  0  0  0  0  0  0  0  0  0  0  0
  150.0143  139.2016  153.0982 H   0  0  0  0  0  0  0  0  0  0  0  0
  149.0197  136.6993  154.5857 H   0  0  0  0  0  0  0  0  0  0  0  0
  149.3393  136.8256  152.8661 H   0  0  0  0  0  0  0  0  0  0  0  0
  150.9004  136.7973  156.1192 H   0  0  0  0  0  0  0  0  0  0  0  0
  152.5110  136.9960  155.4554 H   0  0  0  0  0  0  0  0  0  0  0  0
  151.9986  139.3157  154.7307 H   0  0  0  0  0  0  0  0  0  0  0  0
  151.6613  139.1422  156.4455 H   0  0  0  0  0  0  0  0  0  0  0  0
  148.1708  142.9760  156.2385 H   0  0  0  0  0  0  0  0  0  0  0  0
  147.2140  143.6486  157.8154 H   0  0  0  0  0  0  0  0  0  0  0  0
  143.6596  141.6019  161.1911 H   0  0  0  0  0  0  0  0  0  0  0  0
  144.5975  143.8592  162.3218 H   0  0  0  0  0  0  0  0  0  0  0  0
  149.3880  138.7874  155.9278 H   0  0  0  0  0  0  0  0  0  0  0  0
  1  2  1  0  0  0  0
  1 19  1  0  0  0  0
  1 20  1  0  0  0  0
  1 21  1  0  0  0  0
  2  3  1  0  0  0  0
  2 10  1  0  0  0  0
  2 22  1  0  0  0  0
  3  4  1  0  0  0  0
  3 23  1  0  0  0  0
  3 24  1  0  0  0  0
  4  9  1  0  0  0  0
  4  5  1  0  0  0  0
  4 37  1  0  0  0  0
  5  6  1  0  0  0  0
  5 25  1  0  0  0  0
  5 26  1  0  0  0  0
  6  7  1  0  0  0  0
  6 27  1  0  0  0  0
  6 28  1  0  0  0  0
  7  8  1  0  0  0  0
  8  9  1  0  0  0  0
  8 29  1  0  0  0  0
  8 30  1  0  0  0  0
  9 31  1  0  0  0  0
  9 32  1  0  0  0  0
 10 11  1  0  0  0  0
 10 33  1  0  0  0  0
 11 12  2  0  0  0  0
 11 13  1  0  0  0  0
 13 14  1  0  0  0  0
 13 34  1  0  0  0  0
 14 18  1  0  0  0  0
 14 15  2  0  0  0  0
 15 16  1  0  0  0  0
 16 17  2  0  0  0  0
 16 35  1  0  0  0  0
 17 18  1  0  0  0  0
 17 36  1  0  0  0  0
M  CHG  1   4   1
M  END
> <s_m_source_file>
AV-unprocessed.smi

> <i_m_source_file_index>
2007

> <i_lp_mmshare_version>
43012

> <i_f3d_flags>
0

> <s_epik_input>
W0NIMl0xW0NIMl1PW0NIMl1bQ0gyXU4xW0NIMl1bQ0BASF0oW0NIM10pW05IXUMoPU8pW05IXWMybltjSF1bY0hdczI=

> <s_epik_cmdline>
J2VwaWtfcHl0aG9uJywgJy1waCcsICc3LjAnLCAnLXRuJywgJzgnLCAnLW1hJywgJzIwMCcsICctbWV0YWxfYmluZGluZycsICctaW1hZScsICc8aW5maWxlLm1hZT4nLCAnLW9tYWUnLCAnPG91dGZpbGUubWFlPic=

> <r_lp_tautomer_probability>
0.999

> <r_epik_Ionization_Penalty>
0.695848

> <r_epik_Ionization_Penalty_Charging>
0.695697

> <r_epik_Ionization_Penalty_Neutral>
0.000150585

> <r_epik_State_Penalty>
0.717972

> <r_epik_Charging_Adjusted_Penalty>
1.41367

> <i_epik_Tot_Q>
1

> <i_epik_Tot_abs_Q>
1

> <r_epik_Metal_State_Penalty>
0.763271

> <b_epik_Metal_Only>
0

> <s_lp_Force_Field>
OPLS_2005

> <r_lp_Energy>
20.6539

> <b_lp_Chiralities_Consistent>
1

> <s_lp_Variant>
AV-unprocessed.smi:2007-4

> <Gold.Version>
5.8.1

> <Gold.Id.Protein>
6NUR|6NUR_protein|mol2

> <Gold.PLP.Fitness>
44.3988

> <Gold.PLP.PLP>
-34.9684

> <Gold.PLP.part.hbond>
-5.0000

> <Gold.PLP.part.metal>
0.0000

> <Gold.PLP.part.buried>
-5.9174

> <Gold.PLP.part.nonpolar>
-26.4057

> <Gold.PLP.part.repulsive>
0.3299

> <Gold.PLP.ligand.clash>
0.0000

> <Gold.PLP.ligand.torsion>
0.8295

> <Gold.PLP.Chemscore.Hbond>
3.6892

> <Gold.PLP.Chemscore.CHOScore>
0.0000

> <Gold.PLP.Chemscore.Metal>
0.0000

> <Gold.Chemscore.Hbonds>
donor molecule, donor type, donor heavy atom, donor atom, acceptor molecule, acceptor atom, score
      L1  H    10    33       P1  8028  1.00

> <Gold.PLP.Chemscore.Internal.Correction>
0.0218

> <Gold.Rescore>
     Score         DG    S(hbond)    S(metal)    S(lipo)     H(rot)  DE(clash)    DE(int)     intcor
     15.72     -17.73       2.77        0.00      61.40       1.63       0.00       2.00       ----

> <Gold.Chemscore.Fitness>
15.7210

> <Gold.Chemscore.DG>
-17.7258

> <Gold.Chemscore.ZeroCoef>
-5.4800

> <Gold.Chemscore.Hbond>
2.7655

> <Gold.Chemscore.Metal>
0.0000

> <Gold.Chemscore.Lipo>
61.3971

> <Gold.Chemscore.Internal_Hbond>
0.0000

> <Gold.Chemscore.DEClash>
0.0015

> <Gold.Chemscore.DEInternal>
2.0033

> <Gold.Chemscore.Rot>
1.6306

> <Gold.Chemscore.Internal.Correction>
   9.000000E+99

> <Gold.Chemscore.Hbonds>
donor molecule, donor type, donor heavy atom, donor atom, acceptor molecule, acceptor atom, score
      L1  H    10    33       P1  8028  0.64

> <Gold.Chemscore.Hbond.Weighted>
-9.2366

> <Gold.Chemscore.Metal.Weighted>
-0.0000

> <Gold.Chemscore.Lipo.Weighted>
-7.1835

> <Gold.Chemscore.Internal_Hbond.Weighted>
0.0000

> <Gold.Chemscore.DEClash.Weighted>
0.0015

> <Gold.Chemscore.DEInternal.Weighted>
2.0033

> <Gold.Chemscore.Rot.Weighted>
4.1743

> <Gold.Chemscore.Internal.Correction.Weighted>
   9.000000E+99

> <Gold.Protein.RotatedTorsions>
[ 6907 6896 6895 6894 ] final  -33.56 input  -60.11 | X-H torsion
[ 7974 7965 7964 7962 ] final   91.33 input  175.53 | X-H torsion
[ 8008 7997 7996 7995 ] final  -24.90 input   59.86 | X-H torsion
[ 10167 10162 10161 10158 ] final   99.46 input  -65.29 | X-H torsion
[ 10718 10713 10712 10709 ] final -106.72 input   66.30 | X-H torsion
[ 10763 10752 10751 10750 ] final  165.90 input  -60.55 | X-H torsion
[ 11005 11000 10999 10996 ] final    5.48 input  -57.11 | X-H torsion

> <Gold.Protein.ActiveResidues>
 VAL166  LYS551  ARG553  GLY616  TRP617  ASP618  TYR619  PRO620  LYS621  CYS622 
 ASP623  PHE694  ASN695  SER759  ASP760  ASP761  ALA762  ILE779  LEU786  VAL792 
 PHE793  MET794  SER795  GLU796  ALA797  LYS798  CYS799  TRP800  GLU811  SER814 

> <Gold.Protein.RotatedAtoms>
  151.0640  134.9755  159.8274 H   0  0  0  0  0  0  0  0  0  0  0  0  # atno 6907 bound_to 6896
  152.5399  134.2381  159.8861 H   0  0  0  0  0  0  0  0  0  0  0  0  # atno 6908 bound_to 6896
  151.2403  133.4360  159.2641 H   0  0  0  0  0  0  0  0  0  0  0  0  # atno 6909 bound_to 6896
  145.5070  139.2276  143.2745 H   0  0  0  0  0  0  0  0  0  0  0  0  # atno 7974 bound_to 7965
  154.4504  140.1941  156.0536 H   0  0  0  0  0  0  0  0  0  0  0  0  # atno 8008 bound_to 7997
  156.0636  140.3293  155.7463 H   0  0  0  0  0  0  0  0  0  0  0  0  # atno 8009 bound_to 7997
  155.5374  140.0583  157.2868 H   0  0  0  0  0  0  0  0  0  0  0  0  # atno 8010 bound_to 7997
  139.7615  144.6952  151.0285 H   0  0  0  0  0  0  0  0  0  0  0  0  # atno 10167 bound_to 10162
  156.0403  130.5627  150.7721 H   0  0  0  0  0  0  0  0  0  0  0  0  # atno 10718 bound_to 10713
  154.3310  135.2755  155.2472 H   0  0  0  0  0  0  0  0  0  0  0  0  # atno 10763 bound_to 10752
  154.4784  135.5865  153.6375 H   0  0  0  0  0  0  0  0  0  0  0  0  # atno 10764 bound_to 10752
  152.9866  135.6105  154.3502 H   0  0  0  0  0  0  0  0  0  0  0  0  # atno 10765 bound_to 10752
  140.5702  134.0109  155.8006 H   0  0  0  0  0  0  0  0  0  0  0  0  # atno 11005 bound_to 11000
  146.2190  140.5875  142.9025 LP  0  0  0  0  0  0  0  0  0  0  0  0  # atno 17320 bound_to 7965
  144.7748  140.5716  143.6645 LP  0  0  0  0  0  0  0  0  0  0  0  0  # atno 17321 bound_to 7965
  140.7807  143.4691  151.0171 LP  0  0  0  0  0  0  0  0  0  0  0  0  # atno 17342 bound_to 10162
  139.8377  143.7606  152.3180 LP  0  0  0  0  0  0  0  0  0  0  0  0  # atno 17343 bound_to 10162
  157.5212  131.0931  151.0076 LP  0  0  0  0  0  0  0  0  0  0  0  0  # atno 17370 bound_to 10713
  157.0407  130.5748  149.5355 LP  0  0  0  0  0  0  0  0  0  0  0  0  # atno 17371 bound_to 10713
  141.1061  133.9692  157.2995 LP  0  0  0  0  0  0  0  0  0  0  0  0  # atno 17394 bound_to 11000
  139.9365  135.0196  156.8573 LP  0  0  0  0  0  0  0  0  0  0  0  0  # atno 17395 bound_to 11000

$$$$
