AV-unprocessed.smi:993|AV-procd|sdf|4338|dock7
  -GOLD-   22720 2233D 1   1.00000     0.00000
 Structure written by MMmdl.
 30 31  0  0  0  0  0  0  0  0  3 V2000
  149.5805  141.5719  154.9910 C   0  0  0  0  0  0  0  0  0  0  0  0
  150.4941  141.2782  156.1681 C   0  0  0  0  0  0  0  0  0  0  0  0
  150.6962  142.3374  157.0656 N   0  0  0  0  0  0  0  0  0  0  0  0
  151.4718  142.1801  158.0948 C   0  0  0  0  0  0  0  0  0  0  0  0
  151.6924  143.2156  159.0038 N   0  0  0  0  0  0  0  0  0  0  0  0
  151.1749  144.5700  158.8513 C   0  0  0  0  0  0  0  0  0  0  0  0
  151.8890  145.4241  159.8988 C   0  0  0  0  0  0  0  0  0  0  0  0
  152.1880  144.4263  161.0094 C   0  0  0  0  0  0  0  0  0  0  0  0
  152.4522  143.1269  160.2475 C   0  0  0  0  0  0  0  0  0  0  0  0
  152.1286  140.9886  158.3590 N   0  5  0  0  0  0  0  0  0  0  0  0
  151.9676  139.9127  157.5364 C   0  0  0  0  0  0  0  0  0  0  0  0
  152.5258  138.8383  157.7573 O   0  0  0  0  0  0  0  0  0  0  0  0
  151.0969  140.0703  156.3574 C   0  0  0  0  0  0  0  0  0  0  0  0
  150.9224  138.8897  155.3970 C   0  0  0  0  0  0  0  0  0  0  0  0
  152.2152  138.3709  154.7545 C   0  0  0  0  0  0  0  0  0  0  0  0
  153.2559  139.0178  155.0041 O   0  0  0  0  0  0  0  0  0  0  0  0
  152.1590  137.3532  154.0288 O   0  5  0  0  0  0  0  0  0  0  0  0
  150.1372  141.5239  154.0552 H   0  0  0  0  0  0  0  0  0  0  0  0
  149.1415  142.5671  155.0703 H   0  0  0  0  0  0  0  0  0  0  0  0
  148.7647  140.8502  154.9487 H   0  0  0  0  0  0  0  0  0  0  0  0
  151.3413  144.9556  157.8446 H   0  0  0  0  0  0  0  0  0  0  0  0
  150.1001  144.5558  159.0357 H   0  0  0  0  0  0  0  0  0  0  0  0
  152.8242  145.8066  159.4874 H   0  0  0  0  0  0  0  0  0  0  0  0
  151.2929  146.2734  160.2334 H   0  0  0  0  0  0  0  0  0  0  0  0
  153.0245  144.7253  161.6414 H   0  0  0  0  0  0  0  0  0  0  0  0
  151.3084  144.3090  161.6436 H   0  0  0  0  0  0  0  0  0  0  0  0
  152.1620  142.2574  160.8383 H   0  0  0  0  0  0  0  0  0  0  0  0
  153.5114  143.0332  160.0045 H   0  0  0  0  0  0  0  0  0  0  0  0
  150.4630  138.0627  155.9382 H   0  0  0  0  0  0  0  0  0  0  0  0
  150.2136  139.1344  154.6055 H   0  0  0  0  0  0  0  0  0  0  0  0
  1  2  1  0  0  0  0
  1 18  1  0  0  0  0
  1 19  1  0  0  0  0
  1 20  1  0  0  0  0
  2 13  2  0  0  0  0
  2  3  1  0  0  0  0
  3  4  2  0  0  0  0
  4  5  1  0  0  0  0
  4 10  1  0  0  0  0
  5  9  1  0  0  0  0
  5  6  1  0  0  0  0
  6  7  1  0  0  0  0
  6 21  1  0  0  0  0
  6 22  1  0  0  0  0
  7  8  1  0  0  0  0
  7 23  1  0  0  0  0
  7 24  1  0  0  0  0
  8  9  1  0  0  0  0
  8 25  1  0  0  0  0
  8 26  1  0  0  0  0
  9 27  1  0  0  0  0
  9 28  1  0  0  0  0
 10 11  1  0  0  0  0
 11 12  2  0  0  0  0
 11 13  1  0  0  0  0
 13 14  1  0  0  0  0
 14 15  1  0  0  0  0
 14 29  1  0  0  0  0
 14 30  1  0  0  0  0
 15 16  2  0  0  0  0
 15 17  1  0  0  0  0
M  CHG  1  10  -1
M  CHG  1  17  -1
M  END
> <s_m_source_file>
AV-unprocessed.smi

> <i_m_source_file_index>
993

> <i_lp_mmshare_version>
43012

> <i_f3d_flags>
0

> <s_epik_input>
W0NIMl0xW0NIMl1bQ0gyXVtDSDJdTjFjKG5jMltDSDNdKVtuSF1jKD1PKWMyW0NIMl1DKD1PKVtPSF0=

> <s_epik_cmdline>
J2VwaWtfcHl0aG9uJywgJy1waCcsICc3LjAnLCAnLXRuJywgJzgnLCAnLW1hJywgJzIwMCcsICctbWV0YWxfYmluZGluZycsICctaW1hZScsICc8aW5maWxlLm1hZT4nLCAnLW9tYWUnLCAnPG91dGZpbGUubWFlPic=

> <r_lp_tautomer_probability>
0.878553

> <r_epik_Ionization_Penalty>
9.99622

> <r_epik_Ionization_Penalty_Charging>
0.001774

> <r_epik_Ionization_Penalty_Neutral>
9.99445

> <r_epik_State_Penalty>
6.17728

> <r_epik_Charging_Adjusted_Penalty>
6.17906

> <i_epik_Tot_Q>
-2

> <i_epik_Tot_abs_Q>
2

> <r_epik_Metal_State_Penalty>
2.31379

> <b_epik_Metal_Only>
1

> <s_lp_Force_Field>
OPLS_2005

> <r_lp_Energy>
32.9743

> <b_lp_Chiralities_Consistent>
1

> <s_lp_Variant>
AV-unprocessed.smi:993-4

> <Gold.Version>
5.8.1

> <Gold.Id.Protein>
6NUR|6NUR_protein|mol2

> <Gold.PLP.Fitness>
49.4831

> <Gold.PLP.PLP>
-38.0812

> <Gold.PLP.part.hbond>
-2.0000

> <Gold.PLP.part.metal>
0.0000

> <Gold.PLP.part.buried>
-6.7689

> <Gold.PLP.part.nonpolar>
-31.4381

> <Gold.PLP.part.repulsive>
0.7704

> <Gold.PLP.ligand.clash>
0.0000

> <Gold.PLP.ligand.torsion>
0.0353

> <Gold.PLP.Chemscore.Hbond>
3.8240

> <Gold.PLP.Chemscore.CHOScore>
0.0000

> <Gold.PLP.Chemscore.Metal>
0.0000

> <Gold.Chemscore.Hbonds>
donor molecule, donor type, donor heavy atom, donor atom, acceptor molecule, acceptor atom, score
      P1  H  7997  8009       L1    16  2.00
      P1  H 10752 10765       L1    17  1.79

> <Gold.PLP.Chemscore.Internal.Correction>
0.0005

> <Gold.Rescore>
     Score         DG    S(hbond)    S(metal)    S(lipo)     H(rot)  DE(clash)    DE(int)     intcor
     16.40     -16.54       1.87        0.00      73.91       1.49       0.02       0.12       ----

> <Gold.Chemscore.Fitness>
16.4043

> <Gold.Chemscore.DG>
-16.5407

> <Gold.Chemscore.ZeroCoef>
-5.4800

> <Gold.Chemscore.Hbond>
1.8670

> <Gold.Chemscore.Metal>
0.0000

> <Gold.Chemscore.Lipo>
73.9070

> <Gold.Chemscore.Internal_Hbond>
0.0000

> <Gold.Chemscore.DEClash>
0.0211

> <Gold.Chemscore.DEInternal>
0.1152

> <Gold.Chemscore.Rot>
1.4931

> <Gold.Chemscore.Internal.Correction>
   9.000000E+99

> <Gold.Chemscore.Hbonds>
donor molecule, donor type, donor heavy atom, donor atom, acceptor molecule, acceptor atom, score
      P1  H  7997  8009       L1    16  0.97
      P1  H 10752 10765       L1    17  0.88

> <Gold.Chemscore.Hbond.Weighted>
-6.2358

> <Gold.Chemscore.Metal.Weighted>
-0.0000

> <Gold.Chemscore.Lipo.Weighted>
-8.6471

> <Gold.Chemscore.Internal_Hbond.Weighted>
0.0000

> <Gold.Chemscore.DEClash.Weighted>
0.0211

> <Gold.Chemscore.DEInternal.Weighted>
0.1152

> <Gold.Chemscore.Rot.Weighted>
3.8222

> <Gold.Chemscore.Internal.Correction.Weighted>
   9.000000E+99

> <Gold.Protein.RotatedTorsions>
[ 6907 6896 6895 6894 ] final -121.41 input  -60.11 | X-H torsion
[ 7974 7965 7964 7962 ] final -178.82 input  175.53 | X-H torsion
[ 8008 7997 7996 7995 ] final -147.18 input   59.86 | X-H torsion
[ 10167 10162 10161 10158 ] final   -7.77 input  -65.29 | X-H torsion
[ 10718 10713 10712 10709 ] final  136.40 input   66.30 | X-H torsion
[ 10763 10752 10751 10750 ] final  155.65 input  -60.55 | X-H torsion
[ 11005 11000 10999 10996 ] final -130.57 input  -57.11 | X-H torsion

> <Gold.Protein.ActiveResidues>
 VAL166  LYS551  ARG553  GLY616  TRP617  ASP618  TYR619  PRO620  LYS621  CYS622 
 ASP623  PHE694  ASN695  SER759  ASP760  ASP761  ALA762  ILE779  LEU786  VAL792 
 PHE793  MET794  SER795  GLU796  ALA797  LYS798  CYS799  TRP800  GLU811  SER814 

> <Gold.Protein.RotatedAtoms>
  150.8481  133.7830  159.3035 H   0  0  0  0  0  0  0  0  0  0  0  0  # atno 6907 bound_to 6896
  151.5511  135.1066  159.9959 H   0  0  0  0  0  0  0  0  0  0  0  0  # atno 6908 bound_to 6896
  152.4530  133.7623  159.6809 H   0  0  0  0  0  0  0  0  0  0  0  0  # atno 6909 bound_to 6896
  144.7133  140.0811  143.6425 H   0  0  0  0  0  0  0  0  0  0  0  0  # atno 7974 bound_to 7965
  155.5714  140.0634  157.2805 H   0  0  0  0  0  0  0  0  0  0  0  0  # atno 8008 bound_to 7997
  154.4360  140.1868  156.0929 H   0  0  0  0  0  0  0  0  0  0  0  0  # atno 8009 bound_to 7997
  156.0373  140.3299  155.7209 H   0  0  0  0  0  0  0  0  0  0  0  0  # atno 8010 bound_to 7997
  140.7039  143.6043  150.8766 H   0  0  0  0  0  0  0  0  0  0  0  0  # atno 10167 bound_to 10162
  157.4470  131.1062  151.0077 H   0  0  0  0  0  0  0  0  0  0  0  0  # atno 10718 bound_to 10713
  154.1717  135.2804  155.3079 H   0  0  0  0  0  0  0  0  0  0  0  0  # atno 10763 bound_to 10752
  154.6070  135.5511  153.7436 H   0  0  0  0  0  0  0  0  0  0  0  0  # atno 10764 bound_to 10752
  153.0163  135.6406  154.1857 H   0  0  0  0  0  0  0  0  0  0  0  0  # atno 10765 bound_to 10752
  140.9334  134.1289  157.4215 H   0  0  0  0  0  0  0  0  0  0  0  0  # atno 11005 bound_to 11000
  145.9701  139.2863  143.1104 LP  0  0  0  0  0  0  0  0  0  0  0  0  # atno 17320 bound_to 7965
  145.9126  140.9170  143.0446 LP  0  0  0  0  0  0  0  0  0  0  0  0  # atno 17321 bound_to 7965
  139.9767  143.5996  152.2956 LP  0  0  0  0  0  0  0  0  0  0  0  0  # atno 17342 bound_to 10162
  139.6603  144.7662  151.1977 LP  0  0  0  0  0  0  0  0  0  0  0  0  # atno 17343 bound_to 10162
  157.0920  130.5946  149.5442 LP  0  0  0  0  0  0  0  0  0  0  0  0  # atno 17370 bound_to 10713
  155.9971  130.5042  150.7523 LP  0  0  0  0  0  0  0  0  0  0  0  0  # atno 17371 bound_to 10713
  139.8802  135.0013  156.6058 LP  0  0  0  0  0  0  0  0  0  0  0  0  # atno 17394 bound_to 11000
  140.7832  133.8643  155.8584 LP  0  0  0  0  0  0  0  0  0  0  0  0  # atno 17395 bound_to 11000

$$$$
