AV-unprocessed.smi:1819|AV-procd|sdf|7383|dock4
  -GOLD-   22720 9 53D 1   1.00000     0.00000
 Structure written by MMmdl.
 28 28  0  0  0  0  0  0  0  0  2 V2000
  149.8657  140.1733  154.3026 O   0  0  0  0  0  0  0  0  0  0  0  0
  149.2985  141.2458  154.5144 C   0  0  0  0  0  0  0  0  0  0  0  0
  148.0835  141.6577  153.6749 C   0  0  0  0  0  0  0  0  0  0  0  0
  146.8624  141.7727  154.4878 N   0  0  0  0  0  0  0  0  0  0  0  0
  146.1862  143.0053  154.4869 C   0  0  0  0  0  0  0  0  0  0  0  0
  145.0655  143.2012  155.2074 C   0  0  0  0  0  0  0  0  0  0  0  0
  144.5544  142.0926  156.0043 C   0  0  0  0  0  0  0  0  0  0  0  0
  143.5297  142.2519  156.6647 O   0  0  0  0  0  0  0  0  0  0  0  0
  145.2488  140.9174  155.9759 N   0  5  0  0  0  0  0  0  0  0  0  0
  146.3887  140.7333  155.2402 C   0  0  0  0  0  0  0  0  0  0  0  0
  147.0018  139.6647  155.2310 O   0  0  0  0  0  0  0  0  0  0  0  0
  149.6770  142.1070  155.4711 N   0  0  0  0  0  0  0  0  0  0  0  0
  150.8422  141.9557  156.3363 C   0  0  0  0  0  0  0  0  0  0  0  0
  151.1468  143.2536  157.1021 C   0  0  0  0  0  0  0  0  0  0  0  0
  150.7948  143.1178  158.8800 S   0  0  0  0  0  0  0  0  0  0  0  0
  152.1687  144.0864  159.5586 C   0  0  0  0  0  0  0  0  0  0  0  0
  152.2228  145.2741  158.9586 F   0  0  0  0  0  0  0  0  0  0  0  0
  151.9989  144.2756  160.8666 F   0  0  0  0  0  0  0  0  0  0  0  0
  153.3235  143.4533  159.3557 F   0  0  0  0  0  0  0  0  0  0  0  0
  148.3131  142.6056  153.1868 H   0  0  0  0  0  0  0  0  0  0  0  0
  147.9246  140.9460  152.8622 H   0  0  0  0  0  0  0  0  0  0  0  0
  146.6337  143.7759  153.8764 H   0  0  0  0  0  0  0  0  0  0  0  0
  144.5594  144.1552  155.1986 H   0  0  0  0  0  0  0  0  0  0  0  0
  149.1450  142.9593  155.5704 H   0  0  0  0  0  0  0  0  0  0  0  0
  150.6170  141.1628  157.0497 H   0  0  0  0  0  0  0  0  0  0  0  0
  151.7199  141.6232  155.7796 H   0  0  0  0  0  0  0  0  0  0  0  0
  152.1904  143.5378  156.9626 H   0  0  0  0  0  0  0  0  0  0  0  0
  150.5419  144.0654  156.6983 H   0  0  0  0  0  0  0  0  0  0  0  0
  1  2  2  0  0  0  0
  2  3  1  0  0  0  0
  2 12  1  0  0  0  0
  3  4  1  0  0  0  0
  3 20  1  0  0  0  0
  3 21  1  0  0  0  0
  4 10  1  0  0  0  0
  4  5  1  0  0  0  0
  5  6  2  0  0  0  0
  5 22  1  0  0  0  0
  6  7  1  0  0  0  0
  6 23  1  0  0  0  0
  7  8  2  0  0  0  0
  7  9  1  0  0  0  0
  9 10  1  0  0  0  0
 10 11  2  0  0  0  0
 12 13  1  0  0  0  0
 12 24  1  0  0  0  0
 13 14  1  0  0  0  0
 13 25  1  0  0  0  0
 13 26  1  0  0  0  0
 14 15  1  0  0  0  0
 14 27  1  0  0  0  0
 14 28  1  0  0  0  0
 15 16  1  0  0  0  0
 16 17  1  0  0  0  0
 16 18  1  0  0  0  0
 16 19  1  0  0  0  0
M  CHG  1   9  -1
M  END
> <s_m_source_file>
AV-unprocessed.smi

> <i_m_source_file_index>
1819

> <i_lp_mmshare_version>
43012

> <i_f3d_flags>
0

> <s_epik_input>
RkMoRikoRilTW0NIMl1bQ0gyXVtOSF1DKD1PKVtDSDJdbjFbY0hdW2NIXWMoPU8pW25IXWMxPU8=

> <s_epik_cmdline>
J2VwaWtfcHl0aG9uJywgJy1waCcsICc3LjAnLCAnLXRuJywgJzgnLCAnLW1hJywgJzIwMCcsICctbWV0YWxfYmluZGluZycsICctaW1hZScsICc8aW5maWxlLm1hZT4nLCAnLW9tYWUnLCAnPG91dGZpbGUubWFlPic=

> <r_lp_tautomer_probability>
0.999537

> <r_epik_Ionization_Penalty>
3.04617

> <r_epik_Ionization_Penalty_Charging>
2.49125e-08

> <r_epik_Ionization_Penalty_Neutral>
3.04617

> <r_epik_State_Penalty>
3.04516

> <r_epik_Charging_Adjusted_Penalty>
3.04516

> <i_epik_Tot_Q>
-1

> <i_epik_Tot_abs_Q>
1

> <r_epik_Metal_State_Penalty>
0.457105

> <b_epik_Metal_Only>
1

> <s_lp_Force_Field>
OPLS_2005

> <r_lp_Energy>
9.91428

> <b_lp_Chiralities_Consistent>
1

> <s_lp_Variant>
AV-unprocessed.smi:1819-2

> <Gold.Version>
5.8.1

> <Gold.Id.Protein>
6NUR|6NUR_protein|mol2

> <Gold.PLP.Fitness>
43.8187

> <Gold.PLP.PLP>
-39.5291

> <Gold.PLP.part.hbond>
-2.0000

> <Gold.PLP.part.metal>
0.0000

> <Gold.PLP.part.buried>
-2.7935

> <Gold.PLP.part.nonpolar>
-35.0723

> <Gold.PLP.part.repulsive>
0.4353

> <Gold.PLP.ligand.clash>
0.0000

> <Gold.PLP.ligand.torsion>
0.7512

> <Gold.PLP.Chemscore.Hbond>
1.9040

> <Gold.PLP.Chemscore.CHOScore>
0.0000

> <Gold.PLP.Chemscore.Metal>
0.0000

> <Gold.Chemscore.Hbonds>
donor molecule, donor type, donor heavy atom, donor atom, acceptor molecule, acceptor atom, score
      L1  H    12    24       P1  8028  1.00
      P1  H  7989  7998       L1     1  0.82

> <Gold.PLP.Chemscore.Internal.Correction>
0.0798

> <Gold.Rescore>
     Score         DG    S(hbond)    S(metal)    S(lipo)     H(rot)  DE(clash)    DE(int)     intcor
      7.44      -9.56       1.57        0.00      52.90       2.88       0.50       1.62       ----

> <Gold.Chemscore.Fitness>
7.4368

> <Gold.Chemscore.DG>
-9.5558

> <Gold.Chemscore.ZeroCoef>
-5.4800

> <Gold.Chemscore.Hbond>
1.5708

> <Gold.Chemscore.Metal>
0.0000

> <Gold.Chemscore.Lipo>
52.9026

> <Gold.Chemscore.Internal_Hbond>
0.0000

> <Gold.Chemscore.DEClash>
0.4977

> <Gold.Chemscore.DEInternal>
1.6214

> <Gold.Chemscore.Rot>
2.8751

> <Gold.Chemscore.Internal.Correction>
   9.000000E+99

> <Gold.Chemscore.Hbonds>
donor molecule, donor type, donor heavy atom, donor atom, acceptor molecule, acceptor atom, score
      L1  H    12    24       P1  8028  0.99
      P1  H  7989  7998       L1     1  0.17

> <Gold.Chemscore.Hbond.Weighted>
-5.2465

> <Gold.Chemscore.Metal.Weighted>
-0.0000

> <Gold.Chemscore.Lipo.Weighted>
-6.1896

> <Gold.Chemscore.Internal_Hbond.Weighted>
0.0000

> <Gold.Chemscore.DEClash.Weighted>
0.4977

> <Gold.Chemscore.DEInternal.Weighted>
1.6214

> <Gold.Chemscore.Rot.Weighted>
7.3603

> <Gold.Chemscore.Internal.Correction.Weighted>
   9.000000E+99

> <Gold.Protein.RotatedTorsions>
[ 6907 6896 6895 6894 ] final   48.83 input  -60.11 | X-H torsion
[ 7974 7965 7964 7962 ] final  116.32 input  175.53 | X-H torsion
[ 8008 7997 7996 7995 ] final   69.88 input   59.86 | X-H torsion
[ 10167 10162 10161 10158 ] final  -75.97 input  -65.29 | X-H torsion
[ 10718 10713 10712 10709 ] final -137.30 input   66.30 | X-H torsion
[ 10763 10752 10751 10750 ] final   70.85 input  -60.55 | X-H torsion
[ 11005 11000 10999 10996 ] final   78.36 input  -57.11 | X-H torsion

> <Gold.Protein.ActiveResidues>
 VAL166  LYS551  ARG553  GLY616  TRP617  ASP618  TYR619  PRO620  LYS621  CYS622 
 ASP623  PHE694  ASN695  SER759  ASP760  ASP761  ALA762  ILE779  LEU786  VAL792 
 PHE793  MET794  SER795  GLU796  ALA797  LYS798  CYS799  TRP800  GLU811  SER814 

> <Gold.Protein.RotatedAtoms>
  152.2839  134.7797  160.0390 H   0  0  0  0  0  0  0  0  0  0  0  0  # atno 6907 bound_to 6896
  151.8367  133.3412  159.3638 H   0  0  0  0  0  0  0  0  0  0  0  0  # atno 6908 bound_to 6896
  150.7201  134.5359  159.5768 H   0  0  0  0  0  0  0  0  0  0  0  0  # atno 6909 bound_to 6896
  145.1811  139.3049  143.4417 H   0  0  0  0  0  0  0  0  0  0  0  0  # atno 7974 bound_to 7965
  155.7303  140.3492  155.5056 H   0  0  0  0  0  0  0  0  0  0  0  0  # atno 8008 bound_to 7997
  155.9188  140.1063  157.1244 H   0  0  0  0  0  0  0  0  0  0  0  0  # atno 8009 bound_to 7997
  154.4066  140.1253  156.4639 H   0  0  0  0  0  0  0  0  0  0  0  0  # atno 8010 bound_to 7997
  140.4897  143.2383  151.7927 H   0  0  0  0  0  0  0  0  0  0  0  0  # atno 10167 bound_to 10162
  156.2866  130.7351  151.1364 H   0  0  0  0  0  0  0  0  0  0  0  0  # atno 10718 bound_to 10713
  153.0365  135.5158  154.7504 H   0  0  0  0  0  0  0  0  0  0  0  0  # atno 10763 bound_to 10752
  154.6476  135.2920  155.0029 H   0  0  0  0  0  0  0  0  0  0  0  0  # atno 10764 bound_to 10752
  154.0924  135.6648  153.4907 H   0  0  0  0  0  0  0  0  0  0  0  0  # atno 10765 bound_to 10752
  139.9216  134.7757  156.1640 H   0  0  0  0  0  0  0  0  0  0  0  0  # atno 11005 bound_to 11000
  146.3453  140.1991  142.8589 LP  0  0  0  0  0  0  0  0  0  0  0  0  # atno 17320 bound_to 7965
  145.0135  140.8734  143.5210 LP  0  0  0  0  0  0  0  0  0  0  0  0  # atno 17321 bound_to 7965
  139.4849  144.4666  151.9477 LP  0  0  0  0  0  0  0  0  0  0  0  0  # atno 17342 bound_to 10162
  140.3752  144.2805  150.5915 LP  0  0  0  0  0  0  0  0  0  0  0  0  # atno 17343 bound_to 10162
  157.7330  131.0594  150.5598 LP  0  0  0  0  0  0  0  0  0  0  0  0  # atno 17370 bound_to 10713
  156.5710  130.4280  149.6019 LP  0  0  0  0  0  0  0  0  0  0  0  0  # atno 17371 bound_to 10713
  141.0741  133.6783  156.2199 LP  0  0  0  0  0  0  0  0  0  0  0  0  # atno 17394 bound_to 11000
  140.6458  134.5118  157.5573 LP  0  0  0  0  0  0  0  0  0  0  0  0  # atno 17395 bound_to 11000

$$$$
