AV-unprocessed.smi:2047|AV-procd|sdf|8315|dock2
  -GOLD-   2272010583D 1   1.00000     0.00000
 Structure written by MMmdl.
 42 44  0  0  0  0  0  0  0  0  1 V2000
  150.0946  134.7966  156.1744 O   0  0  0  0  0  0  0  0  0  0  0  0
  149.7062  135.1031  155.0473 C   0  0  0  0  0  0  0  0  0  0  0  0
  149.1700  134.2581  154.1508 N   0  0  0  0  0  0  0  0  0  0  0  0
  148.9064  132.8647  154.2855 C   0  0  0  0  0  0  0  0  0  0  0  0
  149.7501  132.0124  155.0402 C   0  0  0  0  0  0  0  0  0  0  0  0
  149.4797  130.6338  155.0823 C   0  0  0  0  0  0  0  0  0  0  0  0
  148.3816  130.1492  154.3532 C   0  0  0  0  0  0  0  0  0  0  0  0
  147.5776  130.9433  153.6190 N   0  0  0  0  0  0  0  0  0  0  0  0
  147.8165  132.2775  153.5800 C   0  0  0  0  0  0  0  0  0  0  0  0
  146.9327  133.0610  152.8026 N   0  0  0  0  0  0  0  0  0  0  0  0
  146.9955  133.0212  151.3455 C   0  0  0  0  0  0  0  0  0  0  0  0
  145.6924  133.6623  150.8774 C   0  0  0  0  0  0  0  0  0  0  0  0
  144.7005  133.1924  151.9368 C   0  0  0  0  0  0  0  0  0  0  0  0
  145.5360  133.1395  153.2207 C   0  0  0  0  0  0  0  0  0  0  0  0
  149.7579  136.3507  154.5610 N   0  0  0  0  0  0  0  0  0  0  0  0
  150.3000  137.5058  155.2697 C   0  0  2  0  0  0  0  0  0  0  0  0
  150.0509  138.8061  154.4832 C   0  0  0  0  0  0  0  0  0  0  0  0
  150.9420  139.9093  155.0651 C   0  0  0  0  0  0  0  0  0  0  0  0
  152.4604  139.0727  155.6592 S   0  0  0  0  0  0  0  0  0  0  0  0
  153.5433  139.2695  154.6835 O   0  0  0  0  0  0  0  0  0  0  0  0
  152.6558  139.3903  157.0818 O   0  0  0  0  0  0  0  0  0  0  0  0
  151.8141  137.3657  155.4949 C   0  0  0  0  0  0  0  0  0  0  0  0
  148.8250  134.6774  153.2997 H   0  0  0  0  0  0  0  0  0  0  0  0
  150.6140  132.3846  155.5682 H   0  0  0  0  0  0  0  0  0  0  0  0
  150.1078  129.9630  155.6494 H   0  0  0  0  0  0  0  0  0  0  0  0
  148.1456  129.0953  154.3534 H   0  0  0  0  0  0  0  0  0  0  0  0
  147.8688  133.5554  150.9703 H   0  0  0  0  0  0  0  0  0  0  0  0
  147.0414  131.9918  150.9871 H   0  0  0  0  0  0  0  0  0  0  0  0
  145.7795  134.7496  150.9038 H   0  0  0  0  0  0  0  0  0  0  0  0
  145.4118  133.3668  149.8662 H   0  0  0  0  0  0  0  0  0  0  0  0
  143.8299  133.8431  152.0242 H   0  0  0  0  0  0  0  0  0  0  0  0
  144.3476  132.1908  151.6881 H   0  0  0  0  0  0  0  0  0  0  0  0
  145.2473  132.2955  153.8489 H   0  0  0  0  0  0  0  0  0  0  0  0
  145.3914  134.0549  153.7950 H   0  0  0  0  0  0  0  0  0  0  0  0
  149.4080  136.5121  153.6279 H   0  0  0  0  0  0  0  0  0  0  0  0
  149.8111  137.6085  156.2405 H   0  0  0  0  0  0  0  0  0  0  0  0
  150.3257  138.6527  153.4385 H   0  0  0  0  0  0  0  0  0  0  0  0
  148.9991  139.0934  154.4969 H   0  0  0  0  0  0  0  0  0  0  0  0
  151.1953  140.6818  154.3391 H   0  0  0  0  0  0  0  0  0  0  0  0
  150.4614  140.3809  155.9225 H   0  0  0  0  0  0  0  0  0  0  0  0
  152.0593  136.7831  156.3832 H   0  0  0  0  0  0  0  0  0  0  0  0
  152.3030  136.9082  154.6340 H   0  0  0  0  0  0  0  0  0  0  0  0
  1  2  2  0  0  0  0
  2  3  1  0  0  0  0
  2 15  1  0  0  0  0
  3  4  1  0  0  0  0
  3 23  1  0  0  0  0
  4  9  1  0  0  0  0
  4  5  2  0  0  0  0
  5  6  1  0  0  0  0
  5 24  1  0  0  0  0
  6  7  2  0  0  0  0
  6 25  1  0  0  0  0
  7  8  1  0  0  0  0
  7 26  1  0  0  0  0
  8  9  2  0  0  0  0
  9 10  1  0  0  0  0
 10 14  1  0  0  0  0
 10 11  1  0  0  0  0
 11 12  1  0  0  0  0
 11 27  1  0  0  0  0
 11 28  1  0  0  0  0
 12 13  1  0  0  0  0
 12 29  1  0  0  0  0
 12 30  1  0  0  0  0
 13 14  1  0  0  0  0
 13 31  1  0  0  0  0
 13 32  1  0  0  0  0
 14 33  1  0  0  0  0
 14 34  1  0  0  0  0
 15 16  1  0  0  0  0
 15 35  1  0  0  0  0
 16 22  1  0  0  0  0
 16 17  1  0  0  0  0
 16 36  1  0  0  0  0
 17 18  1  0  0  0  0
 17 37  1  0  0  0  0
 17 38  1  0  0  0  0
 18 19  1  0  0  0  0
 18 39  1  0  0  0  0
 18 40  1  0  0  0  0
 19 20  2  0  0  0  0
 19 21  2  0  0  0  0
 19 22  1  0  0  0  0
 22 41  1  0  0  0  0
 22 42  1  0  0  0  0
M  END
> <s_m_source_file>
AV-unprocessed.smi

> <i_m_source_file_index>
2047

> <i_lp_mmshare_version>
43012

> <i_f3d_flags>
0

> <s_epik_input>
Tz1TMSg9TylbQ0gyXVtDSDJdW0NASF0oW0NIMl0xKVtOSF1DKD1PKVtOSF1jMltjSF1bY0hdW2NIXW5jMk4zW0NIMl1bQ0gyXVtDSDJdW0NIMl0z

> <s_epik_cmdline>
J2VwaWtfcHl0aG9uJywgJy1waCcsICc3LjAnLCAnLXRuJywgJzgnLCAnLW1hJywgJzIwMCcsICctbWV0YWxfYmluZGluZycsICctaW1hZScsICc8aW5maWxlLm1hZT4nLCAnLW9tYWUnLCAnPG91dGZpbGUubWFlPic=

> <r_lp_tautomer_probability>
1

> <r_epik_Ionization_Penalty>
0.0840625

> <r_epik_Ionization_Penalty_Charging>
0

> <r_epik_Ionization_Penalty_Neutral>
0.0840625

> <r_epik_State_Penalty>
0.0741601

> <r_epik_Charging_Adjusted_Penalty>
0.0741601

> <i_epik_Tot_Q>
0

> <i_epik_Tot_abs_Q>
0

> <r_epik_Metal_State_Penalty>
0.0657339

> <b_epik_Metal_Only>
0

> <s_lp_Force_Field>
OPLS_2005

> <r_lp_Energy>
32.0686

> <b_lp_Chiralities_Consistent>
1

> <s_lp_Variant>
AV-unprocessed.smi:2047-1

> <Gold.Version>
5.8.1

> <Gold.Id.Protein>
6NUR|6NUR_protein|mol2

> <Gold.PLP.Fitness>
44.9385

> <Gold.PLP.PLP>
-36.6432

> <Gold.PLP.part.hbond>
-4.9140

> <Gold.PLP.part.metal>
0.0000

> <Gold.PLP.part.buried>
-3.8880

> <Gold.PLP.part.nonpolar>
-28.9262

> <Gold.PLP.part.repulsive>
0.3312

> <Gold.PLP.ligand.clash>
0.0000

> <Gold.PLP.ligand.torsion>
0.4349

> <Gold.PLP.Chemscore.Hbond>
2.9485

> <Gold.PLP.Chemscore.CHOScore>
0.0000

> <Gold.PLP.Chemscore.Metal>
0.0000

> <Gold.Chemscore.Hbonds>
donor molecule, donor type, donor heavy atom, donor atom, acceptor molecule, acceptor atom, score
      L1  H     3    23       P1  7948  0.81
      L1  H    15    35       P1  7948  1.00
      P1  H  7997  8008       L1    20  0.75

> <Gold.PLP.Chemscore.Internal.Correction>
0.3197

> <Gold.Rescore>
     Score         DG    S(hbond)    S(metal)    S(lipo)     H(rot)  DE(clash)    DE(int)     intcor
     16.50     -17.97       2.52        0.00      62.12       1.25       0.10       1.38       ----

> <Gold.Chemscore.Fitness>
16.4972

> <Gold.Chemscore.DG>
-17.9747

> <Gold.Chemscore.ZeroCoef>
-5.4800

> <Gold.Chemscore.Hbond>
2.5214

> <Gold.Chemscore.Metal>
0.0000

> <Gold.Chemscore.Lipo>
62.1210

> <Gold.Chemscore.Internal_Hbond>
0.0000

> <Gold.Chemscore.DEClash>
0.0998

> <Gold.Chemscore.DEInternal>
1.3777

> <Gold.Chemscore.Rot>
1.2480

> <Gold.Chemscore.Internal.Correction>
   9.000000E+99

> <Gold.Chemscore.Hbonds>
donor molecule, donor type, donor heavy atom, donor atom, acceptor molecule, acceptor atom, score
      L1  H     3    23       P1  7948  0.17
      L1  H    15    35       P1  7948  0.85
      P1  H  7997  8008       L1    20  0.09

> <Gold.Chemscore.Hbond.Weighted>
-8.4214

> <Gold.Chemscore.Metal.Weighted>
-0.0000

> <Gold.Chemscore.Lipo.Weighted>
-7.2682

> <Gold.Chemscore.Internal_Hbond.Weighted>
0.0000

> <Gold.Chemscore.DEClash.Weighted>
0.0998

> <Gold.Chemscore.DEInternal.Weighted>
1.3777

> <Gold.Chemscore.Rot.Weighted>
3.1948

> <Gold.Chemscore.Internal.Correction.Weighted>
   9.000000E+99

> <Gold.Protein.RotatedTorsions>
[ 6907 6896 6895 6894 ] final  176.70 input  -60.11 | X-H torsion
[ 7974 7965 7964 7962 ] final    0.04 input  175.53 | X-H torsion
[ 8008 7997 7996 7995 ] final   -7.25 input   59.86 | X-H torsion
[ 10167 10162 10161 10158 ] final   90.03 input  -65.29 | X-H torsion
[ 10718 10713 10712 10709 ] final  -27.39 input   66.30 | X-H torsion
[ 10763 10752 10751 10750 ] final -140.70 input  -60.55 | X-H torsion
[ 11005 11000 10999 10996 ] final  114.85 input  -57.11 | X-H torsion

> <Gold.Protein.ActiveResidues>
 VAL166  LYS551  ARG553  GLY616  TRP617  ASP618  TYR619  PRO620  LYS621  CYS622 
 ASP623  PHE694  ASN695  SER759  ASP760  ASP761  ALA762  ILE779  LEU786  VAL792 
 PHE793  MET794  SER795  GLU796  ALA797  LYS798  CYS799  TRP800  GLU811  SER814 

> <Gold.Protein.RotatedAtoms>
  151.7159  133.3313  159.3302 H   0  0  0  0  0  0  0  0  0  0  0  0  # atno 6907 bound_to 6896
  150.7673  134.6491  159.6287 H   0  0  0  0  0  0  0  0  0  0  0  0  # atno 6908 bound_to 6896
  152.3682  134.6775  160.0236 H   0  0  0  0  0  0  0  0  0  0  0  0  # atno 6909 bound_to 6896
  146.2431  140.1198  142.8341 H   0  0  0  0  0  0  0  0  0  0  0  0  # atno 7974 bound_to 7965
  154.5856  140.2412  155.7992 H   0  0  0  0  0  0  0  0  0  0  0  0  # atno 8008 bound_to 7997
  156.2211  140.2997  155.9910 H   0  0  0  0  0  0  0  0  0  0  0  0  # atno 8009 bound_to 7997
  155.2463  140.0409  157.2972 H   0  0  0  0  0  0  0  0  0  0  0  0  # atno 8010 bound_to 7997
  139.8514  144.6591  150.9165 H   0  0  0  0  0  0  0  0  0  0  0  0  # atno 10167 bound_to 10162
  156.4388  130.4460  149.7066 H   0  0  0  0  0  0  0  0  0  0  0  0  # atno 10718 bound_to 10713
  154.8570  135.3545  154.5750 H   0  0  0  0  0  0  0  0  0  0  0  0  # atno 10763 bound_to 10752
  153.6362  135.7000  153.5262 H   0  0  0  0  0  0  0  0  0  0  0  0  # atno 10764 bound_to 10752
  153.3009  135.4207  155.1210 H   0  0  0  0  0  0  0  0  0  0  0  0  # atno 10765 bound_to 10752
  139.8992  134.9574  156.6955 H   0  0  0  0  0  0  0  0  0  0  0  0  # atno 11005 bound_to 11000
  145.0416  140.8950  143.5049 LP  0  0  0  0  0  0  0  0  0  0  0  0  # atno 17320 bound_to 7965
  145.1279  139.2650  143.5554 LP  0  0  0  0  0  0  0  0  0  0  0  0  # atno 17321 bound_to 7965
  140.7787  143.3824  151.1453 LP  0  0  0  0  0  0  0  0  0  0  0  0  # atno 17342 bound_to 10162
  139.7462  143.8849  152.3064 LP  0  0  0  0  0  0  0  0  0  0  0  0  # atno 17343 bound_to 10162
  156.3939  130.7641  151.2644 LP  0  0  0  0  0  0  0  0  0  0  0  0  # atno 17370 bound_to 10713
  157.7507  131.0259  150.3941 LP  0  0  0  0  0  0  0  0  0  0  0  0  # atno 17371 bound_to 10713
  140.7191  133.9156  155.8135 LP  0  0  0  0  0  0  0  0  0  0  0  0  # atno 17394 bound_to 11000
  141.0241  134.0848  157.4088 LP  0  0  0  0  0  0  0  0  0  0  0  0  # atno 17395 bound_to 11000

$$$$
