AV-unprocessed.smi:125|AV-procd|sdf|1150|dock3
  -GOLD-   2262018283D 1   1.00000     0.00000
 Structure written by MMmdl.
 59 62  0  0  0  0  0  0  0  0  1 V2000
  145.2856  134.7274  157.1592 C   0  0  0  0  0  0  0  0  0  0  0  0
  146.4149  135.7204  156.9383 C   0  0  0  0  0  0  0  0  0  0  0  0
  146.1438  136.8937  156.2030 C   0  0  0  0  0  0  0  0  0  0  0  0
  147.1521  137.8464  155.9659 C   0  0  0  0  0  0  0  0  0  0  0  0
  148.4562  137.6436  156.4733 C   0  0  0  0  0  0  0  0  0  0  0  0
  149.5330  138.5440  156.2517 N   0  0  0  0  0  0  0  0  0  0  0  0
  150.6983  138.6396  156.9172 C   0  0  0  0  0  0  0  0  0  0  0  0
  151.0390  137.8936  157.8363 O   0  0  0  0  0  0  0  0  0  0  0  0
  151.6347  139.7561  156.4280 C   0  0  0  0  0  0  0  0  0  0  0  0
  152.0102  140.7228  157.4835 N   0  0  0  0  0  0  0  0  0  0  0  0
  153.0001  140.3483  158.4259 C   0  0  0  0  0  0  0  0  0  0  0  0
  153.5415  139.2427  158.3775 O   0  0  0  0  0  0  0  0  0  0  0  0
  153.3239  141.3526  159.4328 C   0  0  0  0  0  0  0  0  0  0  0  0
  154.2389  141.0774  160.3776 F   0  0  0  0  0  0  0  0  0  0  0  0
  152.7147  142.5560  159.4344 C   0  0  0  0  0  0  0  0  0  0  0  0
  151.7634  142.9151  158.4968 N   0  0  0  0  0  0  0  0  0  0  0  0
  151.0975  144.2737  158.5266 C   0  0  1  0  0  0  0  0  0  0  0  0
  150.0487  144.3239  159.6429 C   0  0  0  0  0  0  0  0  0  0  0  0
  150.8534  144.8804  160.7970 C   0  0  0  0  0  0  0  0  0  0  0  0
  151.7910  145.8459  160.0802 C   0  0  0  0  0  0  0  0  0  0  0  0
  152.0574  145.2506  158.8120 O   0  0  0  0  0  0  0  0  0  0  0  0
  151.3863  141.9930  157.4962 C   0  0  0  0  0  0  0  0  0  0  0  0
  150.5335  142.2896  156.6566 O   0  0  0  0  0  0  0  0  0  0  0  0
  148.7363  136.4672  157.1957 C   0  0  0  0  0  0  0  0  0  0  0  0
  147.7270  135.5109  157.4366 C   0  0  0  0  0  0  0  0  0  0  0  0
  148.1801  134.0325  158.3607 S   0  0  0  0  0  0  0  0  0  0  0  0
  147.2394  132.9475  158.0391 O   0  0  0  0  0  0  0  0  0  0  0  0
  149.6267  133.8182  158.1997 O   0  0  0  0  0  0  0  0  0  0  0  0
  147.8761  134.5067  159.9981 N   0  0  0  0  0  0  0  0  0  0  0  0
  148.2197  135.8685  160.4373 C   0  0  0  0  0  0  0  0  0  0  0  0
  147.5001  136.2194  161.7501 C   0  0  0  0  0  0  0  0  0  0  0  0
  147.7368  135.2168  162.7272 O   0  0  0  0  0  0  0  0  0  0  0  0
  147.2142  133.9606  162.3215 C   0  0  0  0  0  0  0  0  0  0  0  0
  147.9275  133.4792  161.0486 C   0  0  0  0  0  0  0  0  0  0  0  0
  144.3664  135.0653  156.6802 H   0  0  0  0  0  0  0  0  0  0  0  0
  145.0725  134.6097  158.2208 H   0  0  0  0  0  0  0  0  0  0  0  0
  145.5299  133.7544  156.7365 H   0  0  0  0  0  0  0  0  0  0  0  0
  145.1543  137.0693  155.8067 H   0  0  0  0  0  0  0  0  0  0  0  0
  146.9054  138.7169  155.3780 H   0  0  0  0  0  0  0  0  0  0  0  0
  149.4310  139.1527  155.4526 H   0  0  0  0  0  0  0  0  0  0  0  0
  152.5191  139.2956  155.9847 H   0  0  0  0  0  0  0  0  0  0  0  0
  151.1570  140.2654  155.5895 H   0  0  0  0  0  0  0  0  0  0  0  0
  152.9902  143.2564  160.2085 H   0  0  0  0  0  0  0  0  0  0  0  0
  150.6925  144.4351  157.5262 H   0  0  0  0  0  0  0  0  0  0  0  0
  149.2634  145.0225  159.3517 H   0  0  0  0  0  0  0  0  0  0  0  0
  149.6009  143.3495  159.8406 H   0  0  0  0  0  0  0  0  0  0  0  0
  150.2378  145.3661  161.5546 H   0  0  0  0  0  0  0  0  0  0  0  0
  151.4234  144.0847  161.2781 H   0  0  0  0  0  0  0  0  0  0  0  0
  151.2954  146.8037  159.9168 H   0  0  0  0  0  0  0  0  0  0  0  0
  152.7101  146.0295  160.6370 H   0  0  0  0  0  0  0  0  0  0  0  0
  149.7369  136.3045  157.5678 H   0  0  0  0  0  0  0  0  0  0  0  0
  149.3001  135.9309  160.5701 H   0  0  0  0  0  0  0  0  0  0  0  0
  147.9470  136.5915  159.6688 H   0  0  0  0  0  0  0  0  0  0  0  0
  147.8620  137.1751  162.1294 H   0  0  0  0  0  0  0  0  0  0  0  0
  146.4276  136.3326  161.5833 H   0  0  0  0  0  0  0  0  0  0  0  0
  147.3608  133.2403  163.1263 H   0  0  0  0  0  0  0  0  0  0  0  0
  146.1380  134.0358  162.1571 H   0  0  0  0  0  0  0  0  0  0  0  0
  147.4684  132.5588  160.6874 H   0  0  0  0  0  0  0  0  0  0  0  0
  148.9719  133.2526  161.2660 H   0  0  0  0  0  0  0  0  0  0  0  0
  1  2  1  0  0  0  0
  1 35  1  0  0  0  0
  1 36  1  0  0  0  0
  1 37  1  0  0  0  0
  2 25  1  0  0  0  0
  2  3  2  0  0  0  0
  3  4  1  0  0  0  0
  3 38  1  0  0  0  0
  4  5  2  0  0  0  0
  4 39  1  0  0  0  0
  5  6  1  0  0  0  0
  5 24  1  0  0  0  0
  6  7  1  0  0  0  0
  6 40  1  0  0  0  0
  7  8  2  0  0  0  0
  7  9  1  0  0  0  0
  9 10  1  0  0  0  0
  9 41  1  0  0  0  0
  9 42  1  0  0  0  0
 10 22  1  0  0  0  0
 10 11  1  0  0  0  0
 11 12  2  0  0  0  0
 11 13  1  0  0  0  0
 13 14  1  0  0  0  0
 13 15  2  0  0  0  0
 15 16  1  0  0  0  0
 15 43  1  0  0  0  0
 16 17  1  0  0  0  0
 16 22  1  0  0  0  0
 17 21  1  0  0  0  0
 17 18  1  0  0  0  0
 17 44  1  0  0  0  0
 18 19  1  0  0  0  0
 18 45  1  0  0  0  0
 18 46  1  0  0  0  0
 19 20  1  0  0  0  0
 19 47  1  0  0  0  0
 19 48  1  0  0  0  0
 20 21  1  0  0  0  0
 20 49  1  0  0  0  0
 20 50  1  0  0  0  0
 22 23  2  0  0  0  0
 24 25  2  0  0  0  0
 24 51  1  0  0  0  0
 25 26  1  0  0  0  0
 26 27  2  0  0  0  0
 26 28  2  0  0  0  0
 26 29  1  0  0  0  0
 29 34  1  0  0  0  0
 29 30  1  0  0  0  0
 30 31  1  0  0  0  0
 30 52  1  0  0  0  0
 30 53  1  0  0  0  0
 31 32  1  0  0  0  0
 31 54  1  0  0  0  0
 31 55  1  0  0  0  0
 32 33  1  0  0  0  0
 33 34  1  0  0  0  0
 33 56  1  0  0  0  0
 33 57  1  0  0  0  0
 34 58  1  0  0  0  0
 34 59  1  0  0  0  0
M  END
> <s_m_source_file>
AV-unprocessed.smi

> <i_m_source_file_index>
125

> <i_lp_mmshare_version>
43012

> <i_f3d_flags>
0

> <s_epik_input>
W0NIMl0xW0NIMl1PW0NIMl1bQ0gyXU4xUyg9TykoPU8pYzJbY0hdYyhbY0hdW2NIXWMyW0NIM10pW05IXUMoPU8pW0NIMl1uM2MoPU8pYyhGKVtjSF1uKGMzPU8pW0NAQEhdNFtDSDJdW0NIMl1bQ0gyXU80

> <s_epik_cmdline>
J2VwaWtfcHl0aG9uJywgJy1waCcsICc3LjAnLCAnLXRuJywgJzgnLCAnLW1hJywgJzIwMCcsICctbWV0YWxfYmluZGluZycsICctaW1hZScsICc8aW5maWxlLm1hZT4nLCAnLW9tYWUnLCAnPG91dGZpbGUubWFlPic=

> <r_lp_tautomer_probability>
1

> <r_epik_Ionization_Penalty>
4.12263e-06

> <r_epik_Ionization_Penalty_Charging>
3.88729e-08

> <r_epik_Ionization_Penalty_Neutral>
4.08376e-06

> <r_epik_State_Penalty>
-0

> <r_epik_Charging_Adjusted_Penalty>
3.88729e-08

> <i_epik_Tot_Q>
0

> <i_epik_Tot_abs_Q>
0

> <r_epik_Metal_State_Penalty>
-0

> <b_epik_Metal_Only>
0

> <s_epik_Chemistry_Notes>
This compound contains an acetal/aminal-like group ( X-CH(R)-Y where X, Y are N, S, or O) that may be acid/base labile, releasing an aldehyde.

> <s_lp_Force_Field>
OPLS_2005

> <r_lp_Energy>
38.7063

> <b_lp_Chiralities_Consistent>
1

> <s_lp_Variant>
AV-unprocessed.smi:125-2

> <Gold.Version>
5.8.1

> <Gold.Id.Protein>
6NUR|6NUR_protein|mol2

> <Gold.PLP.Fitness>
50.5707

> <Gold.PLP.PLP>
-47.5101

> <Gold.PLP.part.hbond>
-2.1215

> <Gold.PLP.part.metal>
0.0000

> <Gold.PLP.part.buried>
-3.7413

> <Gold.PLP.part.nonpolar>
-42.0135

> <Gold.PLP.part.repulsive>
1.2739

> <Gold.PLP.ligand.clash>
0.0000

> <Gold.PLP.ligand.torsion>
2.9653

> <Gold.PLP.Chemscore.Hbond>
1.5948

> <Gold.PLP.Chemscore.CHOScore>
0.0000

> <Gold.PLP.Chemscore.Metal>
0.0000

> <Gold.Chemscore.Hbonds>
donor molecule, donor type, donor heavy atom, donor atom, acceptor molecule, acceptor atom, score
      P1  H  6896  6907       L1    28  1.00
      P1  H  7997  8010       L1    12  0.45

> <Gold.PLP.Chemscore.Internal.Correction>
4.2069

> <Gold.Rescore>
     Score         DG    S(hbond)    S(metal)    S(lipo)     H(rot)  DE(clash)    DE(int)     intcor
      8.15     -15.22       1.00        0.00      90.86       1.65       0.06       7.01       ----

> <Gold.Chemscore.Fitness>
8.1484

> <Gold.Chemscore.DG>
-15.2209

> <Gold.Chemscore.ZeroCoef>
-5.4800

> <Gold.Chemscore.Hbond>
0.9989

> <Gold.Chemscore.Metal>
0.0000

> <Gold.Chemscore.Lipo>
90.8630

> <Gold.Chemscore.Internal_Hbond>
0.0000

> <Gold.Chemscore.DEClash>
0.0635

> <Gold.Chemscore.DEInternal>
7.0090

> <Gold.Chemscore.Rot>
1.6510

> <Gold.Chemscore.Internal.Correction>
   9.000000E+99

> <Gold.Chemscore.Hbonds>
donor molecule, donor type, donor heavy atom, donor atom, acceptor molecule, acceptor atom, score
      P1  H  6896  6907       L1    28  0.96
      P1  H  7997  8010       L1    12  0.02

> <Gold.Chemscore.Hbond.Weighted>
-3.3365

> <Gold.Chemscore.Metal.Weighted>
-0.0000

> <Gold.Chemscore.Lipo.Weighted>
-10.6310

> <Gold.Chemscore.Internal_Hbond.Weighted>
0.0000

> <Gold.Chemscore.DEClash.Weighted>
0.0635

> <Gold.Chemscore.DEInternal.Weighted>
7.0090

> <Gold.Chemscore.Rot.Weighted>
4.2265

> <Gold.Chemscore.Internal.Correction.Weighted>
   9.000000E+99

> <Gold.Protein.RotatedTorsions>
[ 6907 6896 6895 6894 ] final -116.92 input  -60.11 | X-H torsion
[ 7974 7965 7964 7962 ] final  148.90 input  175.53 | X-H torsion
[ 8008 7997 7996 7995 ] final    8.01 input   59.86 | X-H torsion
[ 10167 10162 10161 10158 ] final   -0.50 input  -65.29 | X-H torsion
[ 10718 10713 10712 10709 ] final   63.35 input   66.30 | X-H torsion
[ 10763 10752 10751 10750 ] final  144.72 input  -60.55 | X-H torsion
[ 11005 11000 10999 10996 ] final -136.16 input  -57.11 | X-H torsion

> <Gold.Protein.ActiveResidues>
 VAL166  LYS551  ARG553  GLY616  TRP617  ASP618  TYR619  PRO620  LYS621  CYS622 
 ASP623  PHE694  ASN695  SER759  ASP760  ASP761  ALA762  ILE779  LEU786  VAL792 
 PHE793  MET794  SER795  GLU796  ALA797  LYS798  CYS799  TRP800  GLU811  SER814 

> <Gold.Protein.RotatedAtoms>
  150.8095  133.8448  159.3189 H   0  0  0  0  0  0  0  0  0  0  0  0  # atno 6907 bound_to 6896
  151.6238  135.1028  160.0117 H   0  0  0  0  0  0  0  0  0  0  0  0  # atno 6908 bound_to 6896
  152.4186  133.7039  159.6497 H   0  0  0  0  0  0  0  0  0  0  0  0  # atno 6909 bound_to 6896
  144.8478  139.6213  143.5987 H   0  0  0  0  0  0  0  0  0  0  0  0  # atno 7974 bound_to 7965
  154.7613  140.2785  155.6212 H   0  0  0  0  0  0  0  0  0  0  0  0  # atno 8008 bound_to 7997
  156.2916  140.2659  156.2319 H   0  0  0  0  0  0  0  0  0  0  0  0  # atno 8009 bound_to 7997
  155.0014  140.0373  157.2351 H   0  0  0  0  0  0  0  0  0  0  0  0  # atno 8010 bound_to 7997
  140.6770  143.6886  150.8046 H   0  0  0  0  0  0  0  0  0  0  0  0  # atno 10167 bound_to 10162
  157.5965  130.9100  149.9705 H   0  0  0  0  0  0  0  0  0  0  0  0  # atno 10718 bound_to 10713
  153.9936  135.2930  155.3409 H   0  0  0  0  0  0  0  0  0  0  0  0  # atno 10763 bound_to 10752
  154.7200  135.5113  153.8801 H   0  0  0  0  0  0  0  0  0  0  0  0  # atno 10764 bound_to 10752
  153.0798  135.6675  154.0185 H   0  0  0  0  0  0  0  0  0  0  0  0  # atno 10765 bound_to 10752
  140.8831  134.1906  157.4578 H   0  0  0  0  0  0  0  0  0  0  0  0  # atno 11005 bound_to 11000
  146.2759  139.6752  142.9263 LP  0  0  0  0  0  0  0  0  0  0  0  0  # atno 17320 bound_to 7965
  145.4561  141.0431  143.2777 LP  0  0  0  0  0  0  0  0  0  0  0  0  # atno 17321 bound_to 7965
  140.0581  143.5182  152.2641 LP  0  0  0  0  0  0  0  0  0  0  0  0  # atno 17342 bound_to 10162
  139.6069  144.7598  151.3042 LP  0  0  0  0  0  0  0  0  0  0  0  0  # atno 17343 bound_to 10162
  156.1029  130.3654  150.0186 LP  0  0  0  0  0  0  0  0  0  0  0  0  # atno 17370 bound_to 10713
  156.8298  130.9388  151.3637 LP  0  0  0  0  0  0  0  0  0  0  0  0  # atno 17371 bound_to 10713
  139.8721  134.9826  156.5163 LP  0  0  0  0  0  0  0  0  0  0  0  0  # atno 17394 bound_to 11000
  140.8437  133.8185  155.9100 LP  0  0  0  0  0  0  0  0  0  0  0  0  # atno 17395 bound_to 11000

$$$$
