AV-unprocessed.smi:157|AV-procd|sdf|1314|dock4
  -GOLD-   2262019 03D 1   1.00000     0.00000
 Structure written by MMmdl.
 36 38  0  0  0  0  0  0  0  0  2 V2000
  149.9396  139.5947  153.7909 O   0  0  0  0  0  0  0  0  0  0  0  0
  149.4813  138.4022  154.3927 C   0  0  0  0  0  0  0  0  0  0  0  0
  150.3894  137.9992  155.5721 C   0  0  2  0  0  0  0  0  0  0  0  0
  150.2622  139.0233  156.5620 O   0  0  0  0  0  0  0  0  0  0  0  0
  151.5007  139.6130  156.8122 C   0  0  2  0  0  0  0  0  0  0  0  0
  151.3025  141.0842  156.9729 N   0  0  0  0  0  0  0  0  0  0  0  0
  150.6665  141.8998  156.1061 C   0  0  0  0  0  0  0  0  0  0  0  0
  150.6294  143.1681  156.4780 N   0  3  0  0  0  0  0  0  0  0  0  0
  151.2893  143.2401  157.6866 C   0  0  0  0  0  0  0  0  0  0  0  0
  151.6923  141.9349  157.9818 C   0  0  0  0  0  0  0  0  0  0  0  0
  152.3981  141.4417  159.0899 N   0  0  0  0  0  0  0  0  0  0  0  0
  152.5376  142.1092  160.1891 C   0  0  0  0  0  0  0  0  0  0  0  0
  152.1421  143.4041  160.4806 N   0  0  0  0  0  0  0  0  0  0  0  0
  152.3842  144.5251  159.5898 C   0  0  0  0  0  0  0  0  0  0  0  0
  151.4483  144.5599  158.3743 C   0  0  2  0  0  0  0  0  0  0  0  0
  150.2122  145.1155  158.7731 O   0  0  0  0  0  0  0  0  0  0  0  0
  152.3751  139.3172  155.6020 C   0  0  0  0  0  0  0  0  0  0  0  0
  151.8998  137.9215  155.2671 C   0  0  2  0  0  0  0  0  0  0  0  0
  152.2255  137.5747  153.9364 O   0  0  0  0  0  0  0  0  0  0  0  0
  150.0386  137.0590  155.9997 H   0  0  0  0  0  0  0  0  0  0  0  0
  151.9136  139.2488  157.7535 H   0  0  0  0  0  0  0  0  0  0  0  0
  151.8723  145.2591  157.6525 H   0  0  0  0  0  0  0  0  0  0  0  0
  152.3702  137.2076  155.9451 H   0  0  0  0  0  0  0  0  0  0  0  0
  149.7197  139.5723  152.8719 H   0  0  0  0  0  0  0  0  0  0  0  0
  148.4432  138.5129  154.7069 H   0  0  0  0  0  0  0  0  0  0  0  0
  149.5015  137.6248  153.6283 H   0  0  0  0  0  0  0  0  0  0  0  0
  150.2306  141.5421  155.1904 H   0  0  0  0  0  0  0  0  0  0  0  0
  153.0365  141.6340  161.0349 H   0  0  0  0  0  0  0  0  0  0  0  0
  152.1230  143.6981  161.4470 H   0  0  0  0  0  0  0  0  0  0  0  0
  152.3263  145.4588  160.1502 H   0  0  0  0  0  0  0  0  0  0  0  0
  153.4148  144.4462  159.2400 H   0  0  0  0  0  0  0  0  0  0  0  0
  149.6582  145.2037  158.0129 H   0  0  0  0  0  0  0  0  0  0  0  0
  152.1454  140.0162  154.7958 H   0  0  0  0  0  0  0  0  0  0  0  0
  153.4351  139.3814  155.8496 H   0  0  0  0  0  0  0  0  0  0  0  0
  152.2886  138.3683  153.4262 H   0  0  0  0  0  0  0  0  0  0  0  0
  150.2062  143.9324  155.9670 H   0  0  0  0  0  0  0  0  0  0  0  0
  1  2  1  0  0  0  0
  1 24  1  0  0  0  0
  2  3  1  0  0  0  0
  2 25  1  0  0  0  0
  2 26  1  0  0  0  0
  3 20  1  0  0  0  0
  3 18  1  0  0  0  0
  3  4  1  0  0  0  0
  4  5  1  0  0  0  0
  5 21  1  0  0  0  0
  5  6  1  0  0  0  0
  5 17  1  0  0  0  0
  6 10  1  0  0  0  0
  6  7  1  0  0  0  0
  7  8  2  0  0  0  0
  7 27  1  0  0  0  0
  8  9  1  0  0  0  0
  8 36  1  0  0  0  0
  9 15  1  0  0  0  0
  9 10  2  0  0  0  0
 10 11  1  0  0  0  0
 11 12  2  0  0  0  0
 12 13  1  0  0  0  0
 12 28  1  0  0  0  0
 13 14  1  0  0  0  0
 13 29  1  0  0  0  0
 14 15  1  0  0  0  0
 14 30  1  0  0  0  0
 14 31  1  0  0  0  0
 15 22  1  0  0  0  0
 15 16  1  0  0  0  0
 16 32  1  0  0  0  0
 17 18  1  0  0  0  0
 17 33  1  0  0  0  0
 17 34  1  0  0  0  0
 18 23  1  0  0  0  0
 18 19  1  0  0  0  0
 19 35  1  0  0  0  0
M  CHG  1   8   1
M  END
> <s_m_source_file>
AV-unprocessed.smi

> <i_m_source_file_index>
157

> <i_lp_mmshare_version>
43012

> <i_f3d_flags>
0

> <s_epik_input>
W09IXVtDSDJdW0NASF0xT1tDQEhdKFtDSDJdW0NAQEhdMVtPSF0pbihbY0hdbjIpYyhjMjMpTj1bQ0hdW05IXVtDSDJdW0NASF0zW09IXQ==

> <s_epik_cmdline>
J2VwaWtfcHl0aG9uJywgJy1waCcsICc3LjAnLCAnLXRuJywgJzgnLCAnLW1hJywgJzIwMCcsICctbWV0YWxfYmluZGluZycsICctaW1hZScsICc8aW5maWxlLm1hZT4nLCAnLW9tYWUnLCAnPG91dGZpbGUubWFlPic=

> <r_epik_Ionization_Penalty>
1.68594

> <r_epik_Ionization_Penalty_Charging>
0

> <r_epik_Ionization_Penalty_Neutral>
1.68594

> <r_epik_State_Penalty>
1.79006

> <r_epik_Charging_Adjusted_Penalty>
1.79006

> <i_epik_Tot_Q>
1

> <i_epik_Tot_abs_Q>
1

> <r_epik_Metal_State_Penalty>
5.85324

> <b_epik_Metal_Only>
0

> <s_epik_Chemistry_Notes>
This compound has an imine and may undergo hydrolysis. This compound contains an acetal/aminal-like group ( X-CH(R)-Y where X, Y are N, S, or O) that may be acid/base labile, releasing an aldehyde.

> <s_lp_Force_Field>
OPLS_2005

> <r_lp_Energy>
55.0394

> <b_lp_Chiralities_Consistent>
1

> <s_lp_Variant>
AV-unprocessed.smi:157-24

> <Gold.Version>
5.8.1

> <Gold.Id.Protein>
6NUR|6NUR_protein|mol2

> <Gold.PLP.Fitness>
53.6915

> <Gold.PLP.PLP>
-38.6926

> <Gold.PLP.part.hbond>
-5.5763

> <Gold.PLP.part.metal>
0.0000

> <Gold.PLP.part.buried>
-6.5405

> <Gold.PLP.part.nonpolar>
-27.8508

> <Gold.PLP.part.repulsive>
0.1472

> <Gold.PLP.ligand.clash>
0.0000

> <Gold.PLP.ligand.torsion>
0.0902

> <Gold.PLP.Chemscore.Hbond>
5.0550

> <Gold.PLP.Chemscore.CHOScore>
0.0000

> <Gold.PLP.Chemscore.Metal>
0.0000

> <Gold.Chemscore.Hbonds>
donor molecule, donor type, donor heavy atom, donor atom, acceptor molecule, acceptor atom, score
      L1  H     1    24       P1  7957  1.00
      L1  H     8    36       P1  8028  1.89
      L1  H    16    32       P1  8029  0.83
      P1  H  7989  7998       L1     1  0.44
      P1  H 10752 10764       L1    19  0.85

> <Gold.PLP.Chemscore.Internal.Correction>
0.0143

> <Gold.Rescore>
     Score         DG    S(hbond)    S(metal)    S(lipo)     H(rot)  DE(clash)    DE(int)     intcor
     12.00     -12.87       2.99        0.00      58.08       3.67       0.07       0.79       ----

> <Gold.Chemscore.Fitness>
12.0009

> <Gold.Chemscore.DG>
-12.8668

> <Gold.Chemscore.ZeroCoef>
-5.4800

> <Gold.Chemscore.Hbond>
2.9869

> <Gold.Chemscore.Metal>
0.0000

> <Gold.Chemscore.Lipo>
58.0804

> <Gold.Chemscore.Internal_Hbond>
0.0000

> <Gold.Chemscore.DEClash>
0.0727

> <Gold.Chemscore.DEInternal>
0.7931

> <Gold.Chemscore.Rot>
3.6659

> <Gold.Chemscore.Internal.Correction>
   9.000000E+99

> <Gold.Chemscore.Hbonds>
donor molecule, donor type, donor heavy atom, donor atom, acceptor molecule, acceptor atom, score
      L1  H     1    24       P1  7957  1.00
      L1  H     8    36       P1  8028  0.87
      L1  H    16    32       P1  8029  0.15
      P1  H  7989  7998       L1     1  0.04
      P1  H 10752 10764       L1    19  0.39

> <Gold.Chemscore.Hbond.Weighted>
-9.9762

> <Gold.Chemscore.Metal.Weighted>
-0.0000

> <Gold.Chemscore.Lipo.Weighted>
-6.7954

> <Gold.Chemscore.Internal_Hbond.Weighted>
0.0000

> <Gold.Chemscore.DEClash.Weighted>
0.0727

> <Gold.Chemscore.DEInternal.Weighted>
0.7931

> <Gold.Chemscore.Rot.Weighted>
9.3848

> <Gold.Chemscore.Internal.Correction.Weighted>
   9.000000E+99

> <Gold.Protein.RotatedTorsions>
[ 6907 6896 6895 6894 ] final   -8.52 input  -60.11 | X-H torsion
[ 7974 7965 7964 7962 ] final    7.66 input  175.53 | X-H torsion
[ 8008 7997 7996 7995 ] final  112.34 input   59.86 | X-H torsion
[ 10167 10162 10161 10158 ] final -143.56 input  -65.29 | X-H torsion
[ 10718 10713 10712 10709 ] final  -12.49 input   66.30 | X-H torsion
[ 10763 10752 10751 10750 ] final  -90.57 input  -60.55 | X-H torsion
[ 11005 11000 10999 10996 ] final  147.83 input  -57.11 | X-H torsion

> <Gold.Protein.ActiveResidues>
 VAL166  LYS551  ARG553  GLY616  TRP617  ASP618  TYR619  PRO620  LYS621  CYS622 
 ASP623  PHE694  ASN695  SER759  ASP760  ASP761  ALA762  ILE779  LEU786  VAL792 
 PHE793  MET794  SER795  GLU796  ALA797  LYS798  CYS799  TRP800  GLU811  SER814 

> <Gold.Protein.RotatedAtoms>
  151.4324  135.1011  159.9645 H   0  0  0  0  0  0  0  0  0  0  0  0  # atno 6907 bound_to 6896
  152.4951  133.8605  159.7258 H   0  0  0  0  0  0  0  0  0  0  0  0  # atno 6908 bound_to 6896
  150.9146  133.6897  159.2874 H   0  0  0  0  0  0  0  0  0  0  0  0  # atno 6909 bound_to 6896
  146.2424  140.0050  142.8412 H   0  0  0  0  0  0  0  0  0  0  0  0  # atno 7974 bound_to 7965
  156.2186  140.3001  155.9897 H   0  0  0  0  0  0  0  0  0  0  0  0  # atno 8008 bound_to 7997
  155.2542  140.0427  157.3007 H   0  0  0  0  0  0  0  0  0  0  0  0  # atno 8009 bound_to 7997
  154.5805  140.2374  155.8069 H   0  0  0  0  0  0  0  0  0  0  0  0  # atno 8010 bound_to 7997
  139.7982  143.7871  152.2656 H   0  0  0  0  0  0  0  0  0  0  0  0  # atno 10167 bound_to 10162
  156.6439  130.4936  149.6085 H   0  0  0  0  0  0  0  0  0  0  0  0  # atno 10718 bound_to 10713
  154.6671  135.5299  153.8091 H   0  0  0  0  0  0  0  0  0  0  0  0  # atno 10763 bound_to 10752
  153.0478  135.6520  154.0782 H   0  0  0  0  0  0  0  0  0  0  0  0  # atno 10764 bound_to 10752
  154.0684  135.2956  155.3292 H   0  0  0  0  0  0  0  0  0  0  0  0  # atno 10765 bound_to 10752
  140.0909  134.9042  157.1648 H   0  0  0  0  0  0  0  0  0  0  0  0  # atno 11005 bound_to 11000
  145.1380  140.9555  143.4505 LP  0  0  0  0  0  0  0  0  0  0  0  0  # atno 17320 bound_to 7965
  145.0323  139.3330  143.6018 LP  0  0  0  0  0  0  0  0  0  0  0  0  # atno 17321 bound_to 7965
  139.7982  144.7384  150.9860 LP  0  0  0  0  0  0  0  0  0  0  0  0  # atno 17342 bound_to 10162
  140.7820  143.4371  151.0606 LP  0  0  0  0  0  0  0  0  0  0  0  0  # atno 17343 bound_to 10162
  156.2137  130.6694  151.1296 LP  0  0  0  0  0  0  0  0  0  0  0  0  # atno 17370 bound_to 10713
  157.7162  131.0708  150.6316 LP  0  0  0  0  0  0  0  0  0  0  0  0  # atno 17371 bound_to 10713
  140.3354  134.2763  155.7221 LP  0  0  0  0  0  0  0  0  0  0  0  0  # atno 17394 bound_to 11000
  141.2077  133.7797  157.0101 LP  0  0  0  0  0  0  0  0  0  0  0  0  # atno 17395 bound_to 11000

$$$$
