AV-unprocessed.smi:2004|AV-procd|sdf|8121|dock10
  -GOLD-   2272010353D 1   1.00000     0.00000
 Structure written by MMmdl.
 39 41  0  0  0  0  0  0  0  0  1 V2000
  150.9163  140.5272  154.8497 O   0  0  0  0  0  0  0  0  0  0  0  0
  149.6929  140.2897  155.5142 C   0  0  2  0  0  0  0  0  0  0  0  0
  148.5625  140.3134  154.4691 C   0  0  0  0  0  0  0  0  0  0  0  0
  147.6778  141.3785  154.7759 O   0  0  0  0  0  0  0  0  0  0  0  0
  146.6871  141.5748  153.7797 C   0  0  0  0  0  0  0  0  0  0  0  0
  145.6741  142.6248  154.1931 C   0  0  0  0  0  0  0  0  0  0  0  0
  145.0657  142.5591  155.4646 C   0  0  0  0  0  0  0  0  0  0  0  0
  144.1357  143.5418  155.8567 C   0  0  0  0  0  0  0  0  0  0  0  0
  143.8145  144.5971  154.9812 C   0  0  0  0  0  0  0  0  0  0  0  0
  144.4252  144.6706  153.7143 C   0  0  0  0  0  0  0  0  0  0  0  0
  145.3555  143.6882  153.3219 C   0  0  0  0  0  0  0  0  0  0  0  0
  149.5521  141.3691  156.6058 C   0  0  0  0  0  0  0  0  0  0  0  0
  150.6074  141.3041  157.6008 N   0  0  0  0  0  0  0  0  0  0  0  0
  151.2167  140.1938  158.0593 C   0  0  0  0  0  0  0  0  0  0  0  0
  152.1673  140.3538  158.9754 N   0  0  0  0  0  0  0  0  0  0  0  0
  152.1805  141.7297  159.1265 C   0  0  0  0  0  0  0  0  0  0  0  0
  152.9728  142.5528  159.9585 C   0  0  0  0  0  0  0  0  0  0  0  0
  152.8081  143.9533  159.9434 C   0  0  0  0  0  0  0  0  0  0  0  0
  151.8508  144.5518  159.0988 C   0  0  0  0  0  0  0  0  0  0  0  0
  151.0490  143.7525  158.2614 C   0  0  0  0  0  0  0  0  0  0  0  0
  151.2170  142.3551  158.2784 C   0  0  0  0  0  0  0  0  0  0  0  0
  151.4888  140.9941  155.4393 H   0  0  0  0  0  0  0  0  0  0  0  0
  149.7366  139.3078  155.9874 H   0  0  0  0  0  0  0  0  0  0  0  0
  148.9681  140.4932  153.4732 H   0  0  0  0  0  0  0  0  0  0  0  0
  148.0397  139.3559  154.4362 H   0  0  0  0  0  0  0  0  0  0  0  0
  147.1534  141.8958  152.8472 H   0  0  0  0  0  0  0  0  0  0  0  0
  146.1765  140.6312  153.5799 H   0  0  0  0  0  0  0  0  0  0  0  0
  145.3108  141.7541  156.1418 H   0  0  0  0  0  0  0  0  0  0  0  0
  143.6702  143.4868  156.8297 H   0  0  0  0  0  0  0  0  0  0  0  0
  143.1020  145.3510  155.2820 H   0  0  0  0  0  0  0  0  0  0  0  0
  144.1816  145.4813  153.0436 H   0  0  0  0  0  0  0  0  0  0  0  0
  145.8212  143.7540  152.3495 H   0  0  0  0  0  0  0  0  0  0  0  0
  149.5753  142.3634  156.1572 H   0  0  0  0  0  0  0  0  0  0  0  0
  148.5887  141.2786  157.1090 H   0  0  0  0  0  0  0  0  0  0  0  0
  150.9446  139.2119  157.7007 H   0  0  0  0  0  0  0  0  0  0  0  0
  153.7095  142.1056  160.6093 H   0  0  0  0  0  0  0  0  0  0  0  0
  153.4200  144.5719  160.5835 H   0  0  0  0  0  0  0  0  0  0  0  0
  151.7319  145.6255  159.0942 H   0  0  0  0  0  0  0  0  0  0  0  0
  150.3141  144.2087  157.6150 H   0  0  0  0  0  0  0  0  0  0  0  0
  1  2  1  0  0  0  0
  1 22  1  0  0  0  0
  2  3  1  0  0  0  0
  2 12  1  0  0  0  0
  2 23  1  0  0  0  0
  3  4  1  0  0  0  0
  3 24  1  0  0  0  0
  3 25  1  0  0  0  0
  4  5  1  0  0  0  0
  5  6  1  0  0  0  0
  5 26  1  0  0  0  0
  5 27  1  0  0  0  0
  6 11  1  0  0  0  0
  6  7  2  0  0  0  0
  7  8  1  0  0  0  0
  7 28  1  0  0  0  0
  8  9  2  0  0  0  0
  8 29  1  0  0  0  0
  9 10  1  0  0  0  0
  9 30  1  0  0  0  0
 10 11  2  0  0  0  0
 10 31  1  0  0  0  0
 11 32  1  0  0  0  0
 12 13  1  0  0  0  0
 12 33  1  0  0  0  0
 12 34  1  0  0  0  0
 13 21  1  0  0  0  0
 13 14  1  0  0  0  0
 14 15  2  0  0  0  0
 14 35  1  0  0  0  0
 15 16  1  0  0  0  0
 16 21  2  0  0  0  0
 16 17  1  0  0  0  0
 17 18  2  0  0  0  0
 17 36  1  0  0  0  0
 18 19  1  0  0  0  0
 18 37  1  0  0  0  0
 19 20  2  0  0  0  0
 19 38  1  0  0  0  0
 20 21  1  0  0  0  0
 20 39  1  0  0  0  0
M  END
> <s_m_source_file>
AV-unprocessed.smi

> <i_m_source_file_index>
2004

> <i_lp_mmshare_version>
43012

> <i_f3d_flags>
0

> <s_epik_input>
W2NIXTFbY0hdW2NIXVtjSF1jKGMxMiluKFtjSF1uMilbQ0gyXVtDQEhdKFtPSF0pW0NIMl1PW0NIMl1jM1tjSF1bY0hdW2NIXVtjSF1bY0hdMw==

> <s_epik_cmdline>
J2VwaWtfcHl0aG9uJywgJy1waCcsICc3LjAnLCAnLXRuJywgJzgnLCAnLW1hJywgJzIwMCcsICctbWV0YWxfYmluZGluZycsICctaW1hZScsICc8aW5maWxlLm1hZT4nLCAnLW9tYWUnLCAnPG91dGZpbGUubWFlPic=

> <r_epik_Ionization_Penalty>
0.0713119

> <r_epik_Ionization_Penalty_Charging>
0

> <r_epik_Ionization_Penalty_Neutral>
0.0713119

> <r_epik_State_Penalty>
0.06259

> <r_epik_Charging_Adjusted_Penalty>
0.06259

> <i_epik_Tot_Q>
0

> <i_epik_Tot_abs_Q>
0

> <r_epik_Metal_State_Penalty>
6.60119e-05

> <b_epik_Metal_Only>
0

> <s_lp_Force_Field>
OPLS_2005

> <r_lp_Energy>
16.1981

> <b_lp_Chiralities_Consistent>
1

> <s_lp_Variant>
AV-unprocessed.smi:2004-1

> <Gold.Version>
5.8.1

> <Gold.Id.Protein>
6NUR|6NUR_protein|mol2

> <Gold.PLP.Fitness>
48.0388

> <Gold.PLP.PLP>
-47.3606

> <Gold.PLP.part.hbond>
-0.9734

> <Gold.PLP.part.metal>
0.0000

> <Gold.PLP.part.buried>
-7.7463

> <Gold.PLP.part.nonpolar>
-38.5695

> <Gold.PLP.part.repulsive>
0.1277

> <Gold.PLP.ligand.clash>
0.0000

> <Gold.PLP.ligand.torsion>
1.2167

> <Gold.PLP.Chemscore.Hbond>
1.0000

> <Gold.PLP.Chemscore.CHOScore>
0.0000

> <Gold.PLP.Chemscore.Metal>
0.0000

> <Gold.Chemscore.Hbonds>
donor molecule, donor type, donor heavy atom, donor atom, acceptor molecule, acceptor atom, score
      P1  H  7989  7998       L1     1  0.90

> <Gold.PLP.Chemscore.Internal.Correction>
0.1115

> <Gold.Rescore>
     Score         DG    S(hbond)    S(metal)    S(lipo)     H(rot)  DE(clash)    DE(int)     intcor
     15.40     -17.10       0.70        0.00     130.20       2.33       0.44       1.26       ----

> <Gold.Chemscore.Fitness>
15.4020

> <Gold.Chemscore.DG>
-17.0972

> <Gold.Chemscore.ZeroCoef>
-5.4800

> <Gold.Chemscore.Hbond>
0.7021

> <Gold.Chemscore.Metal>
0.0000

> <Gold.Chemscore.Lipo>
130.2030

> <Gold.Chemscore.Internal_Hbond>
0.0000

> <Gold.Chemscore.DEClash>
0.4356

> <Gold.Chemscore.DEInternal>
1.2597

> <Gold.Chemscore.Rot>
2.3288

> <Gold.Chemscore.Internal.Correction>
   9.000000E+99

> <Gold.Chemscore.Hbonds>
donor molecule, donor type, donor heavy atom, donor atom, acceptor molecule, acceptor atom, score
      P1  H  7989  7998       L1     1  0.17

> <Gold.Chemscore.Hbond.Weighted>
-2.3451

> <Gold.Chemscore.Metal.Weighted>
-0.0000

> <Gold.Chemscore.Lipo.Weighted>
-15.2337

> <Gold.Chemscore.Internal_Hbond.Weighted>
0.0000

> <Gold.Chemscore.DEClash.Weighted>
0.4356

> <Gold.Chemscore.DEInternal.Weighted>
1.2597

> <Gold.Chemscore.Rot.Weighted>
5.9616

> <Gold.Chemscore.Internal.Correction.Weighted>
   9.000000E+99

> <Gold.Protein.RotatedTorsions>
[ 6907 6896 6895 6894 ] final -153.66 input  -60.11 | X-H torsion
[ 7974 7965 7964 7962 ] final  -97.24 input  175.53 | X-H torsion
[ 8008 7997 7996 7995 ] final  -65.30 input   59.86 | X-H torsion
[ 10167 10162 10161 10158 ] final  -95.89 input  -65.29 | X-H torsion
[ 10718 10713 10712 10709 ] final -128.60 input   66.30 | X-H torsion
[ 10763 10752 10751 10750 ] final  146.96 input  -60.55 | X-H torsion
[ 11005 11000 10999 10996 ] final   69.08 input  -57.11 | X-H torsion

> <Gold.Protein.ActiveResidues>
 VAL166  LYS551  ARG553  GLY616  TRP617  ASP618  TYR619  PRO620  LYS621  CYS622 
 ASP623  PHE694  ASN695  SER759  ASP760  ASP761  ALA762  ILE779  LEU786  VAL792 
 PHE793  MET794  SER795  GLU796  ALA797  LYS798  CYS799  TRP800  GLU811  SER814 

> <Gold.Protein.RotatedAtoms>
  151.2459  133.4375  159.2609 H   0  0  0  0  0  0  0  0  0  0  0  0  # atno 6907 bound_to 6896
  151.0662  134.9769  159.8295 H   0  0  0  0  0  0  0  0  0  0  0  0  # atno 6908 bound_to 6896
  152.5405  134.2407  159.8913 H   0  0  0  0  0  0  0  0  0  0  0  0  # atno 6909 bound_to 6896
  145.3364  140.9451  143.2633 H   0  0  0  0  0  0  0  0  0  0  0  0  # atno 7974 bound_to 7965
  154.4663  140.0936  156.7029 H   0  0  0  0  0  0  0  0  0  0  0  0  # atno 8008 bound_to 7997
  155.4848  140.3469  155.4327 H   0  0  0  0  0  0  0  0  0  0  0  0  # atno 8009 bound_to 7997
  156.0962  140.1410  156.9516 H   0  0  0  0  0  0  0  0  0  0  0  0  # atno 8010 bound_to 7997
  140.2994  143.3171  152.0264 H   0  0  0  0  0  0  0  0  0  0  0  0  # atno 10167 bound_to 10162
  156.1967  130.6830  151.0489 H   0  0  0  0  0  0  0  0  0  0  0  0  # atno 10718 bound_to 10713
  154.0304  135.2898  155.3369 H   0  0  0  0  0  0  0  0  0  0  0  0  # atno 10763 bound_to 10752
  154.6991  135.5195  153.8504 H   0  0  0  0  0  0  0  0  0  0  0  0  # atno 10764 bound_to 10752
  153.0642  135.6625  154.0518 H   0  0  0  0  0  0  0  0  0  0  0  0  # atno 10765 bound_to 10752
  139.9674  134.6957  156.0517 H   0  0  0  0  0  0  0  0  0  0  0  0  # atno 11005 bound_to 11000
  144.8824  139.4885  143.6716 LP  0  0  0  0  0  0  0  0  0  0  0  0  # atno 17320 bound_to 7965
  146.3025  139.7472  142.9081 LP  0  0  0  0  0  0  0  0  0  0  0  0  # atno 17321 bound_to 7965
  139.4918  144.6467  151.6764 LP  0  0  0  0  0  0  0  0  0  0  0  0  # atno 17342 bound_to 10162
  140.5664  144.0183  150.6194 LP  0  0  0  0  0  0  0  0  0  0  0  0  # atno 17343 bound_to 10162
  157.6961  131.0793  150.6963 LP  0  0  0  0  0  0  0  0  0  0  0  0  # atno 17370 bound_to 10713
  156.7020  130.4626  149.5570 LP  0  0  0  0  0  0  0  0  0  0  0  0  # atno 17371 bound_to 10713
  141.1354  133.6576  156.3579 LP  0  0  0  0  0  0  0  0  0  0  0  0  # atno 17394 bound_to 11000
  140.5366  134.6160  157.5367 LP  0  0  0  0  0  0  0  0  0  0  0  0  # atno 17395 bound_to 11000

$$$$
