AV-unprocessed.smi:1692|AV-procd|sdf|6784|dock7
  -GOLD-   22720 7543D 1   1.00000     0.00000
 Structure written by MMmdl.
 45 46  0  0  0  0  0  0  0  0  1 V2000
  150.9112  142.3948  157.2317 C   0  0  0  0  0  0  0  0  0  0  0  0
  150.3243  140.9730  157.2257 C   0  0  1  0  0  0  0  0  0  0  0  0
  149.1122  140.8163  156.2850 C   0  0  0  0  0  0  0  0  0  0  0  0
  149.4901  140.7908  154.8731 N   0  0  0  0  0  0  0  0  0  0  0  0
  148.3415  140.6039  153.9876 C   0  0  0  0  0  0  0  0  0  0  0  0
  147.7532  139.1826  153.9730 C   0  0  0  0  0  0  0  0  0  0  0  0
  146.7992  138.9635  152.7875 C   0  0  0  0  0  0  0  0  0  0  0  0
  146.9715  137.6430  152.1922 N   0  0  0  0  0  0  0  0  0  0  0  0
  145.9933  136.7403  152.0278 C   0  0  0  0  0  0  0  0  0  0  0  0
  144.8256  136.9372  152.3658 O   0  0  0  0  0  0  0  0  0  0  0  0
  146.4588  135.6163  151.4548 N   0  0  0  0  0  0  0  0  0  0  0  0
  145.7364  134.4427  151.1094 C   0  0  0  0  0  0  0  0  0  0  0  0
  146.5310  133.3527  150.6876 C   0  0  0  0  0  0  0  0  0  0  0  0
  145.9097  132.1431  150.3204 C   0  0  0  0  0  0  0  0  0  0  0  0
  144.5079  132.0542  150.3848 C   0  0  0  0  0  0  0  0  0  0  0  0
  143.7911  133.1855  150.8164 C   0  0  0  0  0  0  0  0  0  0  0  0
  144.3845  134.3457  151.1685 N   0  0  0  0  0  0  0  0  0  0  0  0
  150.4809  139.7418  154.6676 C   0  0  0  0  0  0  0  0  0  0  0  0
  151.7215  139.9372  155.5573 C   0  0  2  0  0  0  0  0  0  0  0  0
  152.7281  138.7925  155.4032 C   0  0  0  0  0  0  0  0  0  0  0  0
  151.3176  139.9918  156.9243 O   0  0  0  0  0  0  0  0  0  0  0  0
  150.1705  143.1184  157.5719 H   0  0  0  0  0  0  0  0  0  0  0  0
  151.2393  142.7075  156.2407 H   0  0  0  0  0  0  0  0  0  0  0  0
  151.7675  142.4586  157.9031 H   0  0  0  0  0  0  0  0  0  0  0  0
  149.9873  140.7654  158.2416 H   0  0  0  0  0  0  0  0  0  0  0  0
  148.5902  139.8914  156.5353 H   0  0  0  0  0  0  0  0  0  0  0  0
  148.4111  141.6270  156.4798 H   0  0  0  0  0  0  0  0  0  0  0  0
  147.5480  141.2841  154.3001 H   0  0  0  0  0  0  0  0  0  0  0  0
  148.6058  140.8995  152.9712 H   0  0  0  0  0  0  0  0  0  0  0  0
  148.5565  138.4476  153.9245 H   0  0  0  0  0  0  0  0  0  0  0  0
  147.2194  139.0003  154.9069 H   0  0  0  0  0  0  0  0  0  0  0  0
  145.7651  139.0491  153.1222 H   0  0  0  0  0  0  0  0  0  0  0  0
  146.9454  139.7362  152.0308 H   0  0  0  0  0  0  0  0  0  0  0  0
  147.9025  137.3994  151.8875 H   0  0  0  0  0  0  0  0  0  0  0  0
  147.4439  135.5986  151.2373 H   0  0  0  0  0  0  0  0  0  0  0  0
  147.6072  133.4378  150.6438 H   0  0  0  0  0  0  0  0  0  0  0  0
  146.4994  131.2988  149.9950 H   0  0  0  0  0  0  0  0  0  0  0  0
  143.9956  131.1437  150.1113 H   0  0  0  0  0  0  0  0  0  0  0  0
  142.7135  133.1588  150.8810 H   0  0  0  0  0  0  0  0  0  0  0  0
  150.0340  138.7674  154.8732 H   0  0  0  0  0  0  0  0  0  0  0  0
  150.7898  139.7270  153.6218 H   0  0  0  0  0  0  0  0  0  0  0  0
  152.2197  140.8692  155.2886 H   0  0  0  0  0  0  0  0  0  0  0  0
  153.0871  138.7215  154.3762 H   0  0  0  0  0  0  0  0  0  0  0  0
  152.2804  137.8346  155.6693 H   0  0  0  0  0  0  0  0  0  0  0  0
  153.5939  138.9462  156.0475 H   0  0  0  0  0  0  0  0  0  0  0  0
  1  2  1  0  0  0  0
  1 22  1  0  0  0  0
  1 23  1  0  0  0  0
  1 24  1  0  0  0  0
  2 21  1  0  0  0  0
  2  3  1  0  0  0  0
  2 25  1  0  0  0  0
  3  4  1  0  0  0  0
  3 26  1  0  0  0  0
  3 27  1  0  0  0  0
  4  5  1  0  0  0  0
  4 18  1  0  0  0  0
  5  6  1  0  0  0  0
  5 28  1  0  0  0  0
  5 29  1  0  0  0  0
  6  7  1  0  0  0  0
  6 30  1  0  0  0  0
  6 31  1  0  0  0  0
  7  8  1  0  0  0  0
  7 32  1  0  0  0  0
  7 33  1  0  0  0  0
  8  9  1  0  0  0  0
  8 34  1  0  0  0  0
  9 10  2  0  0  0  0
  9 11  1  0  0  0  0
 11 12  1  0  0  0  0
 11 35  1  0  0  0  0
 12 17  1  0  0  0  0
 12 13  2  0  0  0  0
 13 14  1  0  0  0  0
 13 36  1  0  0  0  0
 14 15  2  0  0  0  0
 14 37  1  0  0  0  0
 15 16  1  0  0  0  0
 15 38  1  0  0  0  0
 16 17  2  0  0  0  0
 16 39  1  0  0  0  0
 18 19  1  0  0  0  0
 18 40  1  0  0  0  0
 18 41  1  0  0  0  0
 19 20  1  0  0  0  0
 19 21  1  0  0  0  0
 19 42  1  0  0  0  0
 20 43  1  0  0  0  0
 20 44  1  0  0  0  0
 20 45  1  0  0  0  0
M  END
> <s_m_source_file>
AV-unprocessed.smi

> <i_m_source_file_index>
1692

> <i_lp_mmshare_version>
43012

> <i_f3d_flags>
0

> <s_epik_input>
W0NIM11bQ0BASF0xW0NIMl1OKFtDSDJdW0NASF0oTzEpW0NIM10pW0NIMl1bQ0gyXVtDSDJdW05IXUMoPU8pW05IXWMyW2NIXVtjSF1bY0hdW2NIXW4y

> <s_epik_cmdline>
J2VwaWtfcHl0aG9uJywgJy1waCcsICc3LjAnLCAnLXRuJywgJzgnLCAnLW1hJywgJzIwMCcsICctbWV0YWxfYmluZGluZycsICctaW1hZScsICc8aW5maWxlLm1hZT4nLCAnLW9tYWUnLCAnPG91dGZpbGUubWFlPic=

> <r_epik_Ionization_Penalty>
0.594711

> <r_epik_Ionization_Penalty_Charging>
0

> <r_epik_Ionization_Penalty_Neutral>
0.594711

> <r_epik_State_Penalty>
0.608529

> <r_epik_Charging_Adjusted_Penalty>
0.608529

> <i_epik_Tot_Q>
0

> <i_epik_Tot_abs_Q>
0

> <r_epik_Metal_State_Penalty>
0.608528

> <b_epik_Metal_Only>
0

> <s_lp_Force_Field>
OPLS_2005

> <r_lp_Energy>
25.6838

> <b_lp_Chiralities_Consistent>
1

> <s_lp_Variant>
AV-unprocessed.smi:1692-7

> <Gold.Version>
5.8.1

> <Gold.Id.Protein>
6NUR|6NUR_protein|mol2

> <Gold.PLP.Fitness>
45.0774

> <Gold.PLP.PLP>
-37.4445

> <Gold.PLP.part.hbond>
-1.7798

> <Gold.PLP.part.metal>
0.0000

> <Gold.PLP.part.buried>
-2.4658

> <Gold.PLP.part.nonpolar>
-33.5412

> <Gold.PLP.part.repulsive>
0.6396

> <Gold.PLP.ligand.clash>
0.0000

> <Gold.PLP.ligand.torsion>
0.4366

> <Gold.PLP.Chemscore.Hbond>
1.8240

> <Gold.PLP.Chemscore.CHOScore>
0.9996

> <Gold.PLP.Chemscore.Metal>
0.0000

> <Gold.Chemscore.Hbonds>
donor molecule, donor type, donor heavy atom, donor atom, acceptor molecule, acceptor atom, score
      L1  H     8    34       P1  7948  0.90
      L1  H    11    35       P1  7948  0.83
      L1  C    16    39       P1 10186  1.00

> <Gold.PLP.Chemscore.Internal.Correction>
0.0354

> <Gold.Rescore>
     Score         DG    S(hbond)    S(metal)    S(lipo)     H(rot)  DE(clash)    DE(int)     intcor
     16.19     -17.94       1.82        0.00      92.18       1.73       0.05       1.69       ----

> <Gold.Chemscore.Fitness>
16.1909

> <Gold.Chemscore.DG>
-17.9399

> <Gold.Chemscore.ZeroCoef>
-5.4800

> <Gold.Chemscore.Hbond>
1.8247

> <Gold.Chemscore.Metal>
0.0000

> <Gold.Chemscore.Lipo>
92.1827

> <Gold.Chemscore.Internal_Hbond>
0.0000

> <Gold.Chemscore.DEClash>
0.0545

> <Gold.Chemscore.DEInternal>
1.6945

> <Gold.Chemscore.Rot>
1.7266

> <Gold.Chemscore.Internal.Correction>
   9.000000E+99

> <Gold.Chemscore.Hbonds>
donor molecule, donor type, donor heavy atom, donor atom, acceptor molecule, acceptor atom, score
      L1  H     8    34       P1  7948  0.83
      L1  H    11    35       P1  7948  0.69

> <Gold.Chemscore.Hbond.Weighted>
-6.0946

> <Gold.Chemscore.Metal.Weighted>
-0.0000

> <Gold.Chemscore.Lipo.Weighted>
-10.7854

> <Gold.Chemscore.Internal_Hbond.Weighted>
0.0000

> <Gold.Chemscore.DEClash.Weighted>
0.0545

> <Gold.Chemscore.DEInternal.Weighted>
1.6945

> <Gold.Chemscore.Rot.Weighted>
4.4200

> <Gold.Chemscore.Internal.Correction.Weighted>
   9.000000E+99

> <Gold.Protein.RotatedTorsions>
[ 6907 6896 6895 6894 ] final   -9.27 input  -60.11 | X-H torsion
[ 7974 7965 7964 7962 ] final  -14.04 input  175.53 | X-H torsion
[ 8008 7997 7996 7995 ] final -137.34 input   59.86 | X-H torsion
[ 10167 10162 10161 10158 ] final    5.90 input  -65.29 | X-H torsion
[ 10718 10713 10712 10709 ] final  -31.84 input   66.30 | X-H torsion
[ 10763 10752 10751 10750 ] final -171.16 input  -60.55 | X-H torsion
[ 11005 11000 10999 10996 ] final -178.00 input  -57.11 | X-H torsion

> <Gold.Protein.ActiveResidues>
 VAL166  LYS551  ARG553  GLY616  TRP617  ASP618  TYR619  PRO620  LYS621  CYS622 
 ASP623  PHE694  ASN695  SER759  ASP760  ASP761  ALA762  ILE779  LEU786  VAL792 
 PHE793  MET794  SER795  GLU796  ALA797  LYS798  CYS799  TRP800  GLU811  SER814 

> <Gold.Protein.RotatedAtoms>
  151.4205  135.0997  159.9612 H   0  0  0  0  0  0  0  0  0  0  0  0  # atno 6907 bound_to 6896
  152.4990  133.8712  159.7309 H   0  0  0  0  0  0  0  0  0  0  0  0  # atno 6908 bound_to 6896
  150.9226  133.6804  159.2856 H   0  0  0  0  0  0  0  0  0  0  0  0  # atno 6909 bound_to 6896
  146.2090  140.3290  142.8397 H   0  0  0  0  0  0  0  0  0  0  0  0  # atno 7974 bound_to 7965
  155.4102  140.0511  157.3032 H   0  0  0  0  0  0  0  0  0  0  0  0  # atno 8008 bound_to 7997
  154.4950  140.2135  155.9427 H   0  0  0  0  0  0  0  0  0  0  0  0  # atno 8009 bound_to 7997
  156.1393  140.3157  155.8475 H   0  0  0  0  0  0  0  0  0  0  0  0  # atno 8010 bound_to 7997
  140.6457  143.7668  150.7495 H   0  0  0  0  0  0  0  0  0  0  0  0  # atno 10167 bound_to 10162
  156.3822  130.4358  149.7460 H   0  0  0  0  0  0  0  0  0  0  0  0  # atno 10718 bound_to 10713
  154.6335  135.2889  155.0188 H   0  0  0  0  0  0  0  0  0  0  0  0  # atno 10763 bound_to 10752
  154.1340  135.6529  153.4932 H   0  0  0  0  0  0  0  0  0  0  0  0  # atno 10764 bound_to 10752
  153.0291  135.5317  154.7173 H   0  0  0  0  0  0  0  0  0  0  0  0  # atno 10765 bound_to 10752
  140.4347  134.6487  157.4729 H   0  0  0  0  0  0  0  0  0  0  0  0  # atno 11005 bound_to 11000
  144.8866  140.7469  143.5953 LP  0  0  0  0  0  0  0  0  0  0  0  0  # atno 17320 bound_to 7965
  145.3212  139.1788  143.4587 LP  0  0  0  0  0  0  0  0  0  0  0  0  # atno 17321 bound_to 7965
  140.1308  143.4527  152.2255 LP  0  0  0  0  0  0  0  0  0  0  0  0  # atno 17342 bound_to 10162
  139.5668  144.7439  151.4001 LP  0  0  0  0  0  0  0  0  0  0  0  0  # atno 17343 bound_to 10162
  156.4545  130.7922  151.2944 LP  0  0  0  0  0  0  0  0  0  0  0  0  # atno 17370 bound_to 10713
  157.7493  131.0085  150.3230 LP  0  0  0  0  0  0  0  0  0  0  0  0  # atno 17371 bound_to 10713
  140.0110  134.6690  155.9380 LP  0  0  0  0  0  0  0  0  0  0  0  0  # atno 17394 bound_to 11000
  141.1731  133.6538  156.4726 LP  0  0  0  0  0  0  0  0  0  0  0  0  # atno 17395 bound_to 11000

$$$$
