AV-unprocessed.smi:1995|AV-procd|sdf|8080|dock3
  -GOLD-   2272010293D 1   1.00000     0.00000
 Structure written by MMmdl.
 41 42  0  0  0  0  0  0  0  0  2 V2000
  147.2229  140.9864  153.9653 C   0  0  0  0  0  0  0  0  0  0  0  0
  148.2713  139.8719  154.1380 C   0  0  0  0  0  0  0  0  0  0  0  0
  148.5839  139.4589  155.6116 C   0  0  1  0  0  0  0  0  0  0  0  0
  148.8113  140.7797  156.3956 C   0  0  0  0  0  0  0  0  0  0  0  0
  147.3290  138.7468  156.2144 C   0  0  0  0  0  0  0  0  0  0  0  0
  147.3527  138.6357  157.6737 N   0  0  0  0  0  0  0  0  0  0  0  0
  147.4378  137.5049  158.3897 C   0  0  0  0  0  0  0  0  0  0  0  0
  147.5166  136.4153  157.8177 O   0  0  0  0  0  0  0  0  0  0  0  0
  147.4134  137.7071  159.7267 N   0  5  0  0  0  0  0  0  0  0  0  0
  147.4041  136.6577  160.5647 C   0  0  0  0  0  0  0  0  0  0  0  0
  147.7689  136.7455  161.8489 N   0  0  0  0  0  0  0  0  0  0  0  0
  147.6746  135.5343  162.5367 C   0  0  0  0  0  0  0  0  0  0  0  0
  147.2201  134.5017  161.7600 C   0  0  0  0  0  0  0  0  0  0  0  0
  146.8941  135.0231  160.1317 S   0  0  0  0  0  0  0  0  0  0  0  0
  149.7990  138.5966  155.6735 N   0  0  0  0  0  0  0  0  0  0  0  0
  149.6242  137.2287  155.1721 C   0  0  0  0  0  0  0  0  0  0  0  0
  150.8762  136.3665  155.4073 C   0  0  0  0  0  0  0  0  0  0  0  0
  152.0052  136.9811  154.7977 O   0  0  0  0  0  0  0  0  0  0  0  0
  152.2432  138.2933  155.2933 C   0  0  0  0  0  0  0  0  0  0  0  0
  151.0017  139.1699  155.0566 C   0  0  0  0  0  0  0  0  0  0  0  0
  147.0709  141.2041  152.9081 H   0  0  0  0  0  0  0  0  0  0  0  0
  147.5321  141.9143  154.4459 H   0  0  0  0  0  0  0  0  0  0  0  0
  146.2563  140.6997  154.3780 H   0  0  0  0  0  0  0  0  0  0  0  0
  147.9146  139.0076  153.5772 H   0  0  0  0  0  0  0  0  0  0  0  0
  149.1874  140.1670  153.6262 H   0  0  0  0  0  0  0  0  0  0  0  0
  148.0431  141.5225  156.1776 H   0  0  0  0  0  0  0  0  0  0  0  0
  149.7731  141.2325  156.1539 H   0  0  0  0  0  0  0  0  0  0  0  0
  148.7872  140.6226  157.4740 H   0  0  0  0  0  0  0  0  0  0  0  0
  146.4093  139.2383  155.8972 H   0  0  0  0  0  0  0  0  0  0  0  0
  147.2572  137.7253  155.8430 H   0  0  0  0  0  0  0  0  0  0  0  0
  147.2889  139.4998  158.1914 H   0  0  0  0  0  0  0  0  0  0  0  0
  147.9510  135.4986  163.5798 H   0  0  0  0  0  0  0  0  0  0  0  0
  147.0561  133.4733  162.0444 H   0  0  0  0  0  0  0  0  0  0  0  0
  148.7867  136.7369  155.6636 H   0  0  0  0  0  0  0  0  0  0  0  0
  149.4042  137.2413  154.1048 H   0  0  0  0  0  0  0  0  0  0  0  0
  151.0577  136.2339  156.4751 H   0  0  0  0  0  0  0  0  0  0  0  0
  150.7378  135.3732  154.9802 H   0  0  0  0  0  0  0  0  0  0  0  0
  152.4889  138.2507  156.3554 H   0  0  0  0  0  0  0  0  0  0  0  0
  153.1078  138.7154  154.7811 H   0  0  0  0  0  0  0  0  0  0  0  0
  150.8582  139.2848  153.9824 H   0  0  0  0  0  0  0  0  0  0  0  0
  151.2118  140.1609  155.4541 H   0  0  0  0  0  0  0  0  0  0  0  0
  1  2  1  0  0  0  0
  1 21  1  0  0  0  0
  1 22  1  0  0  0  0
  1 23  1  0  0  0  0
  2  3  1  0  0  0  0
  2 24  1  0  0  0  0
  2 25  1  0  0  0  0
  3  4  1  0  0  0  0
  3  5  1  0  0  0  0
  3 15  1  0  0  0  0
  4 26  1  0  0  0  0
  4 27  1  0  0  0  0
  4 28  1  0  0  0  0
  5  6  1  0  0  0  0
  5 29  1  0  0  0  0
  5 30  1  0  0  0  0
  6  7  1  0  0  0  0
  6 31  1  0  0  0  0
  7  8  2  0  0  0  0
  7  9  1  0  0  0  0
  9 10  1  0  0  0  0
 10 14  1  0  0  0  0
 10 11  2  0  0  0  0
 11 12  1  0  0  0  0
 12 13  2  0  0  0  0
 12 32  1  0  0  0  0
 13 14  1  0  0  0  0
 13 33  1  0  0  0  0
 15 20  1  0  0  0  0
 15 16  1  0  0  0  0
 16 17  1  0  0  0  0
 16 34  1  0  0  0  0
 16 35  1  0  0  0  0
 17 18  1  0  0  0  0
 17 36  1  0  0  0  0
 17 37  1  0  0  0  0
 18 19  1  0  0  0  0
 19 20  1  0  0  0  0
 19 38  1  0  0  0  0
 19 39  1  0  0  0  0
 20 40  1  0  0  0  0
 20 41  1  0  0  0  0
M  CHG  1   9  -1
M  END
> <s_m_source_file>
AV-unprocessed.smi

> <i_m_source_file_index>
1995

> <i_lp_mmshare_version>
43012

> <i_f3d_flags>
0

> <s_epik_input>
W0NIMl0xW0NIMl1PW0NIMl1bQ0gyXU4xW0NAQF0oW0NIM10pKFtDSDJdW0NIM10pW0NIMl1bTkhdQyg9TylbTkhdYzJuW2NIXVtjSF1zMg==

> <s_epik_cmdline>
J2VwaWtfcHl0aG9uJywgJy1waCcsICc3LjAnLCAnLXRuJywgJzgnLCAnLW1hJywgJzIwMCcsICctbWV0YWxfYmluZGluZycsICctaW1hZScsICc8aW5maWxlLm1hZT4nLCAnLW9tYWUnLCAnPG91dGZpbGUubWFlPic=

> <r_lp_tautomer_probability>
0.999

> <r_epik_Ionization_Penalty>
8.86479

> <r_epik_Ionization_Penalty_Charging>
6.76546

> <r_epik_Ionization_Penalty_Neutral>
2.09933

> <r_epik_State_Penalty>
7.05418

> <r_epik_Charging_Adjusted_Penalty>
13.8196

> <i_epik_Tot_Q>
-1

> <i_epik_Tot_abs_Q>
1

> <r_epik_Metal_State_Penalty>
2.97744

> <b_epik_Metal_Only>
1

> <s_lp_Force_Field>
OPLS_2005

> <r_lp_Energy>
37.7031

> <b_lp_Chiralities_Consistent>
1

> <s_lp_Variant>
AV-unprocessed.smi:1995-5

> <Gold.Version>
5.8.1

> <Gold.Id.Protein>
6NUR|6NUR_protein|mol2

> <Gold.PLP.Fitness>
36.9761

> <Gold.PLP.PLP>
-27.1467

> <Gold.PLP.part.hbond>
-3.1308

> <Gold.PLP.part.metal>
0.0000

> <Gold.PLP.part.buried>
-5.3584

> <Gold.PLP.part.nonpolar>
-20.4474

> <Gold.PLP.part.repulsive>
0.2268

> <Gold.PLP.ligand.clash>
0.0000

> <Gold.PLP.ligand.torsion>
0.4444

> <Gold.PLP.Chemscore.Hbond>
3.5120

> <Gold.PLP.Chemscore.CHOScore>
0.0000

> <Gold.PLP.Chemscore.Metal>
0.0000

> <Gold.Chemscore.Hbonds>
donor molecule, donor type, donor heavy atom, donor atom, acceptor molecule, acceptor atom, score
      P1  H  6931  6943       L1    11  1.00
      P1  H  6934  6947       L1     9  1.54
      P1  H 10752 10764       L1    18  0.98

> <Gold.PLP.Chemscore.Internal.Correction>
0.1821

> <Gold.Rescore>
     Score         DG    S(hbond)    S(metal)    S(lipo)     H(rot)  DE(clash)    DE(int)     intcor
     12.78     -14.67       1.78        0.00      64.79       1.70       0.01       1.88       ----

> <Gold.Chemscore.Fitness>
12.7792

> <Gold.Chemscore.DG>
-14.6730

> <Gold.Chemscore.ZeroCoef>
-5.4800

> <Gold.Chemscore.Hbond>
1.7847

> <Gold.Chemscore.Metal>
0.0000

> <Gold.Chemscore.Lipo>
64.7892

> <Gold.Chemscore.Internal_Hbond>
0.0000

> <Gold.Chemscore.DEClash>
0.0149

> <Gold.Chemscore.DEInternal>
1.8789

> <Gold.Chemscore.Rot>
1.6985

> <Gold.Chemscore.Internal.Correction>
   9.000000E+99

> <Gold.Chemscore.Hbonds>
donor molecule, donor type, donor heavy atom, donor atom, acceptor molecule, acceptor atom, score
      P1  H  6931  6943       L1    11  0.49
      P1  H  6934  6947       L1     9  0.19
      P1  H 10752 10764       L1    18  0.28

> <Gold.Chemscore.Hbond.Weighted>
-5.9609

> <Gold.Chemscore.Metal.Weighted>
-0.0000

> <Gold.Chemscore.Lipo.Weighted>
-7.5803

> <Gold.Chemscore.Internal_Hbond.Weighted>
0.0000

> <Gold.Chemscore.DEClash.Weighted>
0.0149

> <Gold.Chemscore.DEInternal.Weighted>
1.8789

> <Gold.Chemscore.Rot.Weighted>
4.3482

> <Gold.Chemscore.Internal.Correction.Weighted>
   9.000000E+99

> <Gold.Protein.RotatedTorsions>
[ 6907 6896 6895 6894 ] final  -35.54 input  -60.11 | X-H torsion
[ 7974 7965 7964 7962 ] final  177.74 input  175.53 | X-H torsion
[ 8008 7997 7996 7995 ] final  164.34 input   59.86 | X-H torsion
[ 10167 10162 10161 10158 ] final  151.50 input  -65.29 | X-H torsion
[ 10718 10713 10712 10709 ] final  136.49 input   66.30 | X-H torsion
[ 10763 10752 10751 10750 ] final  -70.38 input  -60.55 | X-H torsion
[ 11005 11000 10999 10996 ] final  150.87 input  -57.11 | X-H torsion

> <Gold.Protein.ActiveResidues>
 VAL166  LYS551  ARG553  GLY616  TRP617  ASP618  TYR619  PRO620  LYS621  CYS622 
 ASP623  PHE694  ASN695  SER759  ASP760  ASP761  ALA762  ILE779  LEU786  VAL792 
 PHE793  MET794  SER795  GLU796  ALA797  LYS798  CYS799  TRP800  GLU811  SER814 

> <Gold.Protein.RotatedAtoms>
  151.0386  134.9591  159.8149 H   0  0  0  0  0  0  0  0  0  0  0  0  # atno 6907 bound_to 6896
  152.5359  134.2688  159.8973 H   0  0  0  0  0  0  0  0  0  0  0  0  # atno 6908 bound_to 6896
  151.2699  133.4218  159.2654 H   0  0  0  0  0  0  0  0  0  0  0  0  # atno 6909 bound_to 6896
  144.7165  140.0293  143.6439 H   0  0  0  0  0  0  0  0  0  0  0  0  # atno 7974 bound_to 7965
  156.1888  140.1699  156.8134 H   0  0  0  0  0  0  0  0  0  0  0  0  # atno 8008 bound_to 7997
  154.5446  140.0730  156.8599 H   0  0  0  0  0  0  0  0  0  0  0  0  # atno 8009 bound_to 7997
  155.3148  140.3370  155.4245 H   0  0  0  0  0  0  0  0  0  0  0  0  # atno 8010 bound_to 7997
  139.4840  144.5436  151.7523 H   0  0  0  0  0  0  0  0  0  0  0  0  # atno 10167 bound_to 10162
  157.4461  131.1062  151.0087 H   0  0  0  0  0  0  0  0  0  0  0  0  # atno 10718 bound_to 10713
  154.4169  135.5996  153.5986 H   0  0  0  0  0  0  0  0  0  0  0  0  # atno 10763 bound_to 10752
  152.9792  135.5943  154.4003 H   0  0  0  0  0  0  0  0  0  0  0  0  # atno 10764 bound_to 10752
  154.3823  135.2841  155.2183 H   0  0  0  0  0  0  0  0  0  0  0  0  # atno 10765 bound_to 10752
  140.1169  134.8888  157.2017 H   0  0  0  0  0  0  0  0  0  0  0  0  # atno 11005 bound_to 11000
  146.0116  139.3174  143.0867 LP  0  0  0  0  0  0  0  0  0  0  0  0  # atno 17320 bound_to 7965
  145.8675  140.9439  143.0668 LP  0  0  0  0  0  0  0  0  0  0  0  0  # atno 17321 bound_to 7965
  140.4979  144.1213  150.5964 LP  0  0  0  0  0  0  0  0  0  0  0  0  # atno 17342 bound_to 10162
  140.4096  143.2663  151.9849 LP  0  0  0  0  0  0  0  0  0  0  0  0  # atno 17343 bound_to 10162
  157.0933  130.5951  149.5444 LP  0  0  0  0  0  0  0  0  0  0  0  0  # atno 17370 bound_to 10713
  155.9968  130.5038  150.7510 LP  0  0  0  0  0  0  0  0  0  0  0  0  # atno 17371 bound_to 10713
  140.3016  134.3125  155.7288 LP  0  0  0  0  0  0  0  0  0  0  0  0  # atno 17394 bound_to 11000
  141.2143  133.7595  156.9649 LP  0  0  0  0  0  0  0  0  0  0  0  0  # atno 17395 bound_to 11000

$$$$
