AV-unprocessed.smi:2173|AV-procd|sdf|8838|dock9
  -GOLD-   2272012 33D 1   1.00000     0.00000
 Structure written by MMmdl.
 35 36  0  0  0  0  0  0  0  0  1 V2000
  152.9868  139.4910  158.0026 O   0  0  0  0  0  0  0  0  0  0  0  0
  152.1856  140.2984  157.5302 C   0  0  0  0  0  0  0  0  0  0  0  0
  151.6330  140.1641  156.3137 N   0  0  0  0  0  0  0  0  0  0  0  0
  151.9278  139.0975  155.3601 C   0  0  0  0  0  0  0  0  0  0  0  0
  150.6543  138.4383  154.7922 C   0  0  0  0  0  0  0  0  0  0  0  0
  149.5378  139.4207  154.4780 C   0  0  0  0  0  0  0  0  0  0  0  0
  148.2817  138.9576  154.0323 C   0  0  0  0  0  0  0  0  0  0  0  0
  147.2919  139.9065  153.7115 C   0  0  0  0  0  0  0  0  0  0  0  0
  147.5941  141.2752  153.8486 C   0  0  0  0  0  0  0  0  0  0  0  0
  148.8782  141.6353  154.3029 C   0  0  0  0  0  0  0  0  0  0  0  0
  149.8339  140.7337  154.6141 N   0  0  0  0  0  0  0  0  0  0  0  0
  151.7877  141.5482  158.3250 C   0  0  2  0  0  0  0  0  0  0  0  0
  151.3734  142.6944  157.3743 C   0  0  0  0  0  0  0  0  0  0  0  0
  151.2143  144.0157  158.1054 C   0  0  0  0  0  0  0  0  0  0  0  0
  151.6982  144.2401  159.3392 C   0  0  0  0  0  0  0  0  0  0  0  0
  152.4641  143.2006  160.1388 C   0  0  0  0  0  0  0  0  0  0  0  0
  152.9155  142.0119  159.2689 C   0  0  0  0  0  0  0  0  0  0  0  0
  150.9873  140.8785  156.0101 H   0  0  0  0  0  0  0  0  0  0  0  0
  152.5492  139.4717  154.5449 H   0  0  0  0  0  0  0  0  0  0  0  0
  152.5262  138.3446  155.8733 H   0  0  0  0  0  0  0  0  0  0  0  0
  150.9031  137.8893  153.8835 H   0  0  0  0  0  0  0  0  0  0  0  0
  150.2832  137.6940  155.4986 H   0  0  0  0  0  0  0  0  0  0  0  0
  148.0850  137.9009  153.9266 H   0  0  0  0  0  0  0  0  0  0  0  0
  146.3200  139.5906  153.3622 H   0  0  0  0  0  0  0  0  0  0  0  0
  146.8606  142.0306  153.6096 H   0  0  0  0  0  0  0  0  0  0  0  0
  149.1464  142.6750  154.4168 H   0  0  0  0  0  0  0  0  0  0  0  0
  150.9259  141.2948  158.9458 H   0  0  0  0  0  0  0  0  0  0  0  0
  152.1064  142.8347  156.5784 H   0  0  0  0  0  0  0  0  0  0  0  0
  150.4266  142.4485  156.8921 H   0  0  0  0  0  0  0  0  0  0  0  0
  150.6909  144.8022  157.5816 H   0  0  0  0  0  0  0  0  0  0  0  0
  151.5385  145.1982  159.8118 H   0  0  0  0  0  0  0  0  0  0  0  0
  153.3304  143.6708  160.6047 H   0  0  0  0  0  0  0  0  0  0  0  0
  151.8181  142.8525  160.9454 H   0  0  0  0  0  0  0  0  0  0  0  0
  153.2477  141.1934  159.9088 H   0  0  0  0  0  0  0  0  0  0  0  0
  153.7837  142.3128  158.6798 H   0  0  0  0  0  0  0  0  0  0  0  0
  1  2  2  0  0  0  0
  2  3  1  0  0  0  0
  2 12  1  0  0  0  0
  3  4  1  0  0  0  0
  3 18  1  0  0  0  0
  4  5  1  0  0  0  0
  4 19  1  0  0  0  0
  4 20  1  0  0  0  0
  5  6  1  0  0  0  0
  5 21  1  0  0  0  0
  5 22  1  0  0  0  0
  6 11  1  0  0  0  0
  6  7  2  0  0  0  0
  7  8  1  0  0  0  0
  7 23  1  0  0  0  0
  8  9  2  0  0  0  0
  8 24  1  0  0  0  0
  9 10  1  0  0  0  0
  9 25  1  0  0  0  0
 10 11  2  0  0  0  0
 10 26  1  0  0  0  0
 12 17  1  0  0  0  0
 12 13  1  0  0  0  0
 12 27  1  0  0  0  0
 13 14  1  0  0  0  0
 13 28  1  0  0  0  0
 13 29  1  0  0  0  0
 14 15  2  0  0  0  0
 14 30  1  0  0  0  0
 15 16  1  0  0  0  0
 15 31  1  0  0  0  0
 16 17  1  0  0  0  0
 16 32  1  0  0  0  0
 16 33  1  0  0  0  0
 17 34  1  0  0  0  0
 17 35  1  0  0  0  0
M  END
> <s_m_source_file>
AV-unprocessed.smi

> <i_m_source_file_index>
2173

> <i_lp_mmshare_version>
43012

> <i_f3d_flags>
0

> <s_epik_input>
W0NIMl0xW0NIMl1bQ0hdPVtDSF1bQ0gyXVtDQEhdMUMoPU8pW05IXVtDSDJdW0NIMl1jMltjSF1bY0hdW2NIXVtjSF1uMg==

> <s_epik_cmdline>
J2VwaWtfcHl0aG9uJywgJy1waCcsICc3LjAnLCAnLXRuJywgJzgnLCAnLW1hJywgJzIwMCcsICctbWV0YWxfYmluZGluZycsICctaW1hZScsICc8aW5maWxlLm1hZT4nLCAnLW9tYWUnLCAnPG91dGZpbGUubWFlPic=

> <r_epik_Ionization_Penalty>
0.0268825

> <r_epik_Ionization_Penalty_Charging>
0

> <r_epik_Ionization_Penalty_Neutral>
0.0268825

> <r_epik_State_Penalty>
0.0219706

> <r_epik_Charging_Adjusted_Penalty>
0.0219706

> <i_epik_Tot_Q>
0

> <i_epik_Tot_abs_Q>
0

> <r_epik_Metal_State_Penalty>
0.0210138

> <b_epik_Metal_Only>
0

> <s_lp_Force_Field>
OPLS_2005

> <r_lp_Energy>
7.98713

> <b_lp_Chiralities_Consistent>
1

> <s_lp_Variant>
AV-unprocessed.smi:2173-1

> <Gold.Version>
5.8.1

> <Gold.Id.Protein>
6NUR|6NUR_protein|mol2

> <Gold.PLP.Fitness>
46.3489

> <Gold.PLP.PLP>
-40.0021

> <Gold.PLP.part.hbond>
-2.0000

> <Gold.PLP.part.metal>
0.0000

> <Gold.PLP.part.buried>
-2.8946

> <Gold.PLP.part.nonpolar>
-35.6956

> <Gold.PLP.part.repulsive>
0.2657

> <Gold.PLP.ligand.clash>
0.0000

> <Gold.PLP.ligand.torsion>
0.9097

> <Gold.PLP.Chemscore.Hbond>
1.7137

> <Gold.PLP.Chemscore.CHOScore>
1.0000

> <Gold.PLP.Chemscore.Metal>
0.0000

> <Gold.Chemscore.Hbonds>
donor molecule, donor type, donor heavy atom, donor atom, acceptor molecule, acceptor atom, score
      P1  H  7989  7998       L1    11  0.60
      P1  H  7997  8008       L1     1  1.00
      L1  C    10    26       P1  8028  1.00

> <Gold.PLP.Chemscore.Internal.Correction>
0.0251

> <Gold.Rescore>
     Score         DG    S(hbond)    S(metal)    S(lipo)     H(rot)  DE(clash)    DE(int)     intcor
     17.04     -19.80       1.48        0.00     110.54       1.39       0.28       2.48       ----

> <Gold.Chemscore.Fitness>
17.0441

> <Gold.Chemscore.DG>
-19.7997

> <Gold.Chemscore.ZeroCoef>
-5.4800

> <Gold.Chemscore.Hbond>
1.4810

> <Gold.Chemscore.Metal>
0.0000

> <Gold.Chemscore.Lipo>
110.5393

> <Gold.Chemscore.Internal_Hbond>
0.0000

> <Gold.Chemscore.DEClash>
0.2803

> <Gold.Chemscore.DEInternal>
2.4752

> <Gold.Chemscore.Rot>
1.3907

> <Gold.Chemscore.Internal.Correction>
   9.000000E+99

> <Gold.Chemscore.Hbonds>
donor molecule, donor type, donor heavy atom, donor atom, acceptor molecule, acceptor atom, score
      P1  H  7989  7998       L1    11  0.18
      P1  H  7997  8008       L1     1  0.33

> <Gold.Chemscore.Hbond.Weighted>
-4.9467

> <Gold.Chemscore.Metal.Weighted>
-0.0000

> <Gold.Chemscore.Lipo.Weighted>
-12.9331

> <Gold.Chemscore.Internal_Hbond.Weighted>
0.0000

> <Gold.Chemscore.DEClash.Weighted>
0.2803

> <Gold.Chemscore.DEInternal.Weighted>
2.4752

> <Gold.Chemscore.Rot.Weighted>
3.5601

> <Gold.Chemscore.Internal.Correction.Weighted>
   9.000000E+99

> <Gold.Protein.RotatedTorsions>
[ 6907 6896 6895 6894 ] final -172.55 input  -60.11 | X-H torsion
[ 7974 7965 7964 7962 ] final  -96.32 input  175.53 | X-H torsion
[ 8008 7997 7996 7995 ] final  -94.75 input   59.86 | X-H torsion
[ 10167 10162 10161 10158 ] final  -57.38 input  -65.29 | X-H torsion
[ 10718 10713 10712 10709 ] final  -56.77 input   66.30 | X-H torsion
[ 10763 10752 10751 10750 ] final -165.18 input  -60.55 | X-H torsion
[ 11005 11000 10999 10996 ] final  139.89 input  -57.11 | X-H torsion

> <Gold.Protein.ActiveResidues>
 VAL166  LYS551  ARG553  GLY616  TRP617  ASP618  TYR619  PRO620  LYS621  CYS622 
 ASP623  PHE694  ASN695  SER759  ASP760  ASP761  ALA762  ILE779  LEU786  VAL792 
 PHE793  MET794  SER795  GLU796  ALA797  LYS798  CYS799  TRP800  GLU811  SER814 

> <Gold.Protein.RotatedAtoms>
  151.5418  133.3431  159.2936 H   0  0  0  0  0  0  0  0  0  0  0  0  # atno 6907 bound_to 6896
  150.8531  134.7865  159.7035 H   0  0  0  0  0  0  0  0  0  0  0  0  # atno 6908 bound_to 6896
  152.4572  134.5273  159.9852 H   0  0  0  0  0  0  0  0  0  0  0  0  # atno 6909 bound_to 6896
  145.3484  140.9472  143.2568 H   0  0  0  0  0  0  0  0  0  0  0  0  # atno 7974 bound_to 7965
  154.7525  140.0486  157.0905 H   0  0  0  0  0  0  0  0  0  0  0  0  # atno 8008 bound_to 7997
  155.0039  140.3128  155.4837 H   0  0  0  0  0  0  0  0  0  0  0  0  # atno 8009 bound_to 7997
  156.2888  140.2196  156.5151 H   0  0  0  0  0  0  0  0  0  0  0  0  # atno 8010 bound_to 7997
  140.6261  143.2439  151.5359 H   0  0  0  0  0  0  0  0  0  0  0  0  # atno 10167 bound_to 10162
  156.1263  130.4162  150.0350 H   0  0  0  0  0  0  0  0  0  0  0  0  # atno 10718 bound_to 10713
  154.6957  135.2979  154.9414 H   0  0  0  0  0  0  0  0  0  0  0  0  # atno 10763 bound_to 10752
  154.0363  135.6663  153.4789 H   0  0  0  0  0  0  0  0  0  0  0  0  # atno 10764 bound_to 10752
  153.0644  135.5096  154.8074 H   0  0  0  0  0  0  0  0  0  0  0  0  # atno 10765 bound_to 10752
  140.0287  134.9362  157.0620 H   0  0  0  0  0  0  0  0  0  0  0  0  # atno 11005 bound_to 11000
  144.8737  139.5002  143.6756 LP  0  0  0  0  0  0  0  0  0  0  0  0  # atno 17320 bound_to 7965
  146.2978  139.7333  142.9113 LP  0  0  0  0  0  0  0  0  0  0  0  0  # atno 17321 bound_to 7965
  139.5482  144.2466  152.1481 LP  0  0  0  0  0  0  0  0  0  0  0  0  # atno 17342 bound_to 10162
  140.1698  144.4947  150.6586 LP  0  0  0  0  0  0  0  0  0  0  0  0  # atno 17343 bound_to 10162
  156.8274  130.9380  151.3638 LP  0  0  0  0  0  0  0  0  0  0  0  0  # atno 17370 bound_to 10713
  157.6444  130.8832  149.9510 LP  0  0  0  0  0  0  0  0  0  0  0  0  # atno 17371 bound_to 10713
  140.4262  134.1828  155.7166 LP  0  0  0  0  0  0  0  0  0  0  0  0  # atno 17394 bound_to 11000
  141.1818  133.8397  157.1230 LP  0  0  0  0  0  0  0  0  0  0  0  0  # atno 17395 bound_to 11000

$$$$
