AV-unprocessed.smi:927|AV-procd|sdf|4187|dock4
  -GOLD-   22720 2 93D 1   1.00000     0.00000
 Structure written by MMmdl.
 21 21  0  0  0  0  0  0  0  0  2 V2000
  148.0832  138.8029  152.7833 N   0  3  0  0  0  0  0  0  0  0  0  0
  148.2315  139.0563  154.2274 C   0  0  0  0  0  0  0  0  0  0  0  0
  149.1210  140.2814  154.5052 C   0  0  2  0  0  0  0  0  0  0  0  0
  149.4566  140.8888  153.2726 O   0  0  0  0  0  0  0  0  0  0  0  0
  150.3601  139.8937  155.2969 C   0  0  0  0  0  0  0  0  0  0  0  0
  151.2685  138.9437  154.7845 C   0  0  0  0  0  0  0  0  0  0  0  0
  152.4066  138.6180  155.5495 C   0  0  0  0  0  0  0  0  0  0  0  0
  152.6754  139.1717  156.7511 N   0  0  0  0  0  0  0  0  0  0  0  0
  151.8043  140.0817  157.2366 C   0  0  0  0  0  0  0  0  0  0  0  0
  150.6378  140.4776  156.5521 C   0  0  0  0  0  0  0  0  0  0  0  0
  148.3122  137.8398  152.5831 H   0  0  0  0  0  0  0  0  0  0  0  0
  148.7090  139.4114  152.2745 H   0  0  0  0  0  0  0  0  0  0  0  0
  147.2365  139.2145  154.6450 H   0  0  0  0  0  0  0  0  0  0  0  0
  148.6395  138.1646  154.7053 H   0  0  0  0  0  0  0  0  0  0  0  0
  148.5564  141.0133  155.0850 H   0  0  0  0  0  0  0  0  0  0  0  0
  149.3102  140.2619  152.5799 H   0  0  0  0  0  0  0  0  0  0  0  0
  151.1024  138.4712  153.8273 H   0  0  0  0  0  0  0  0  0  0  0  0
  153.1207  137.8943  155.1854 H   0  0  0  0  0  0  0  0  0  0  0  0
  152.0446  140.5091  158.1989 H   0  0  0  0  0  0  0  0  0  0  0  0
  149.9754  141.2131  156.9848 H   0  0  0  0  0  0  0  0  0  0  0  0
  147.1313  138.9900  152.5026 H   0  0  0  0  0  0  0  0  0  0  0  0
  1  2  1  0  0  0  0
  1 11  1  0  0  0  0
  1 12  1  0  0  0  0
  1 21  1  0  0  0  0
  2  3  1  0  0  0  0
  2 13  1  0  0  0  0
  2 14  1  0  0  0  0
  3  4  1  0  0  0  0
  3  5  1  0  0  0  0
  3 15  1  0  0  0  0
  4 16  1  0  0  0  0
  5 10  1  0  0  0  0
  5  6  2  0  0  0  0
  6  7  1  0  0  0  0
  6 17  1  0  0  0  0
  7  8  2  0  0  0  0
  7 18  1  0  0  0  0
  8  9  1  0  0  0  0
  9 10  2  0  0  0  0
  9 19  1  0  0  0  0
 10 20  1  0  0  0  0
M  CHG  1   1   1
M  END
> <s_m_source_file>
AV-unprocessed.smi

> <i_m_source_file_index>
927

> <i_lp_mmshare_version>
43012

> <i_f3d_flags>
0

> <s_epik_input>
W05IMl1bQ0gyXVtDQEhdKFtPSF0pYzFbY0hdW2NIXW5bY0hdW2NIXTE=

> <s_epik_cmdline>
J2VwaWtfcHl0aG9uJywgJy1waCcsICc3LjAnLCAnLXRuJywgJzgnLCAnLW1hJywgJzIwMCcsICctbWV0YWxfYmluZGluZycsICctaW1hZScsICc8aW5maWxlLm1hZT4nLCAnLW9tYWUnLCAnPG91dGZpbGUubWFlPic=

> <r_epik_Ionization_Penalty>
0.0159363

> <r_epik_Ionization_Penalty_Charging>
0.0140431

> <r_epik_Ionization_Penalty_Neutral>
0.00189321

> <r_epik_State_Penalty>
0.0109628

> <r_epik_Charging_Adjusted_Penalty>
0.0250059

> <i_epik_Tot_Q>
1

> <i_epik_Tot_abs_Q>
1

> <r_epik_Metal_State_Penalty>
0.0113463

> <b_epik_Metal_Only>
0

> <s_lp_Force_Field>
OPLS_2005

> <r_lp_Energy>
4.52457

> <b_lp_Chiralities_Consistent>
1

> <s_lp_Variant>
AV-unprocessed.smi:927-1

> <Gold.Version>
5.8.1

> <Gold.Id.Protein>
6NUR|6NUR_protein|mol2

> <Gold.PLP.Fitness>
38.7471

> <Gold.PLP.PLP>
-22.6400

> <Gold.PLP.part.hbond>
-5.2523

> <Gold.PLP.part.metal>
0.0000

> <Gold.PLP.part.buried>
-3.6243

> <Gold.PLP.part.nonpolar>
-15.0577

> <Gold.PLP.part.repulsive>
0.0684

> <Gold.PLP.ligand.clash>
0.0000

> <Gold.PLP.ligand.torsion>
0.7538

> <Gold.PLP.Chemscore.Hbond>
5.8694

> <Gold.PLP.Chemscore.CHOScore>
0.0000

> <Gold.PLP.Chemscore.Metal>
0.0000

> <Gold.Chemscore.Hbonds>
donor molecule, donor type, donor heavy atom, donor atom, acceptor molecule, acceptor atom, score
      L1  H     1    11       P1  7948  2.00
      L1  H     1    12       P1  7957  1.00
      L1  H     4    16       P1  7957  0.69
      P1  H  7989  7998       L1     4  0.16
      P1  H  7997  8010       L1     8  1.00
      P1  H  8011  8017       L1     4  1.00

> <Gold.PLP.Chemscore.Internal.Correction>
0.0066

> <Gold.Rescore>
     Score         DG    S(hbond)    S(metal)    S(lipo)     H(rot)  DE(clash)    DE(int)     intcor
     18.41     -19.16       3.95        0.00      45.74       1.90       0.01       0.74       ----

> <Gold.Chemscore.Fitness>
18.4101

> <Gold.Chemscore.DG>
-19.1644

> <Gold.Chemscore.ZeroCoef>
-5.4800

> <Gold.Chemscore.Hbond>
3.9497

> <Gold.Chemscore.Metal>
0.0000

> <Gold.Chemscore.Lipo>
45.7405

> <Gold.Chemscore.Internal_Hbond>
0.0000

> <Gold.Chemscore.DEClash>
0.0126

> <Gold.Chemscore.DEInternal>
0.7417

> <Gold.Chemscore.Rot>
1.8981

> <Gold.Chemscore.Internal.Correction>
   9.000000E+99

> <Gold.Chemscore.Hbonds>
donor molecule, donor type, donor heavy atom, donor atom, acceptor molecule, acceptor atom, score
      L1  H     1    11       P1  7948  1.00
      L1  H     1    12       P1  7957  0.95
      L1  H     4    16       P1  7957  0.67
      P1  H  7989  7998       L1     4  0.02
      P1  H  7997  8010       L1     8  0.43
      P1  H  8011  8017       L1     4  0.30

> <Gold.Chemscore.Hbond.Weighted>
-13.1919

> <Gold.Chemscore.Metal.Weighted>
-0.0000

> <Gold.Chemscore.Lipo.Weighted>
-5.3516

> <Gold.Chemscore.Internal_Hbond.Weighted>
0.0000

> <Gold.Chemscore.DEClash.Weighted>
0.0126

> <Gold.Chemscore.DEInternal.Weighted>
0.7417

> <Gold.Chemscore.Rot.Weighted>
4.8592

> <Gold.Chemscore.Internal.Correction.Weighted>
   9.000000E+99

> <Gold.Protein.RotatedTorsions>
[ 6907 6896 6895 6894 ] final  129.26 input  -60.11 | X-H torsion
[ 7974 7965 7964 7962 ] final -179.74 input  175.53 | X-H torsion
[ 8008 7997 7996 7995 ] final   51.20 input   59.86 | X-H torsion
[ 10167 10162 10161 10158 ] final  175.59 input  -65.29 | X-H torsion
[ 10718 10713 10712 10709 ] final  -35.20 input   66.30 | X-H torsion
[ 10763 10752 10751 10750 ] final  175.75 input  -60.55 | X-H torsion
[ 11005 11000 10999 10996 ] final  -71.20 input  -57.11 | X-H torsion

> <Gold.Protein.ActiveResidues>
 VAL166  LYS551  ARG553  GLY616  TRP617  ASP618  TYR619  PRO620  LYS621  CYS622 
 ASP623  PHE694  ASN695  SER759  ASP760  ASP761  ALA762  ILE779  LEU786  VAL792 
 PHE793  MET794  SER795  GLU796  ALA797  LYS798  CYS799  TRP800  GLU811  SER814 

> <Gold.Protein.RotatedAtoms>
  152.3641  133.6334  159.6036 H   0  0  0  0  0  0  0  0  0  0  0  0  # atno 6907 bound_to 6896
  150.7621  133.9376  159.3455 H   0  0  0  0  0  0  0  0  0  0  0  0  # atno 6908 bound_to 6896
  151.7210  135.0895  160.0335 H   0  0  0  0  0  0  0  0  0  0  0  0  # atno 6909 bound_to 6896
  144.7139  140.0672  143.6430 H   0  0  0  0  0  0  0  0  0  0  0  0  # atno 7974 bound_to 7965
  155.4313  140.3450  155.4280 H   0  0  0  0  0  0  0  0  0  0  0  0  # atno 8008 bound_to 7997
  156.1334  140.1521  156.9061 H   0  0  0  0  0  0  0  0  0  0  0  0  # atno 8009 bound_to 7997
  154.4913  140.0840  156.7580 H   0  0  0  0  0  0  0  0  0  0  0  0  # atno 8010 bound_to 7997
  139.5183  144.3014  152.0375 H   0  0  0  0  0  0  0  0  0  0  0  0  # atno 10167 bound_to 10162
  156.3415  130.4294  149.7783 H   0  0  0  0  0  0  0  0  0  0  0  0  # atno 10718 bound_to 10713
  154.4718  135.2771  155.1637 H   0  0  0  0  0  0  0  0  0  0  0  0  # atno 10763 bound_to 10752
  154.3383  135.6175  153.5587 H   0  0  0  0  0  0  0  0  0  0  0  0  # atno 10764 bound_to 10752
  152.9865  135.5782  154.5101 H   0  0  0  0  0  0  0  0  0  0  0  0  # atno 10765 bound_to 10752
  141.1588  133.6811  156.6869 H   0  0  0  0  0  0  0  0  0  0  0  0  # atno 11005 bound_to 11000
  145.9814  139.2944  143.1040 LP  0  0  0  0  0  0  0  0  0  0  0  0  # atno 17320 bound_to 7965
  145.9006  140.9245  143.0505 LP  0  0  0  0  0  0  0  0  0  0  0  0  # atno 17321 bound_to 7965
  140.2462  144.4218  150.6240 LP  0  0  0  0  0  0  0  0  0  0  0  0  # atno 17342 bound_to 10162
  140.6257  143.2181  151.6602 LP  0  0  0  0  0  0  0  0  0  0  0  0  # atno 17343 bound_to 10162
  156.5018  130.8132  151.3135 LP  0  0  0  0  0  0  0  0  0  0  0  0  # atno 17370 bound_to 10713
  157.7447  130.9942  150.2700 LP  0  0  0  0  0  0  0  0  0  0  0  0  # atno 17371 bound_to 10713
  140.3060  134.8125  157.4137 LP  0  0  0  0  0  0  0  0  0  0  0  0  # atno 17394 bound_to 11000
  140.1220  134.5207  155.8176 LP  0  0  0  0  0  0  0  0  0  0  0  0  # atno 17395 bound_to 11000

$$$$
