AV-unprocessed.smi:1213|AV-procd|sdf|5086|dock5
  -GOLD-   22720 4133D 1   1.00000     0.00000
 Structure written by MMmdl.
 37 38  0  0  0  0  0  0  0  0  2 V2000
  145.3884  138.8697  151.5175 N   0  0  0  0  0  0  0  0  0  0  0  0
  146.6437  138.7066  151.9415 C   0  0  0  0  0  0  0  0  0  0  0  0
  147.5991  138.6828  151.1674 O   0  0  0  0  0  0  0  0  0  0  0  0
  146.8453  138.5276  153.4504 C   0  0  0  0  0  0  0  0  0  0  0  0
  148.2414  138.1724  153.8149 N   0  3  2  0  0  0  0  0  0  0  0  0
  148.3239  137.4640  155.1176 C   0  0  0  0  0  0  0  0  0  0  0  0
  149.7578  136.9784  155.4002 C   0  0  0  0  0  0  0  0  0  0  0  0
  150.7826  138.1242  155.3340 C   0  0  2  0  0  0  0  0  0  0  0  0
  150.6384  139.0093  156.4899 N   0  0  0  0  0  0  0  0  0  0  0  0
  151.6443  139.4320  157.2701 C   0  0  0  0  0  0  0  0  0  0  0  0
  152.8203  139.1159  157.0888 O   0  0  0  0  0  0  0  0  0  0  0  0
  151.1965  140.2338  158.2522 N   0  0  0  0  0  0  0  0  0  0  0  0
  151.9508  140.8911  159.2596 C   0  0  0  0  0  0  0  0  0  0  0  0
  151.7591  142.1600  159.6385 N   0  0  0  0  0  0  0  0  0  0  0  0
  152.6425  142.5443  160.6503 C   0  0  0  0  0  0  0  0  0  0  0  0
  153.5052  141.5478  161.0336 C   0  0  0  0  0  0  0  0  0  0  0  0
  153.2421  140.0789  160.1323 S   0  0  0  0  0  0  0  0  0  0  0  0
  150.6243  138.8863  154.0029 C   0  0  0  0  0  0  0  0  0  0  0  0
  149.1714  139.3320  153.7640 C   0  0  0  0  0  0  0  0  0  0  0  0
  145.2045  138.9860  150.5307 H   0  0  0  0  0  0  0  0  0  0  0  0
  144.6242  138.8716  152.1776 H   0  0  0  0  0  0  0  0  0  0  0  0
  146.5344  139.4253  153.9874 H   0  0  0  0  0  0  0  0  0  0  0  0
  146.1710  137.7281  153.7602 H   0  0  0  0  0  0  0  0  0  0  0  0
  147.9806  138.1247  155.9149 H   0  0  0  0  0  0  0  0  0  0  0  0
  147.6541  136.6033  155.1106 H   0  0  0  0  0  0  0  0  0  0  0  0
  149.8029  136.4847  156.3719 H   0  0  0  0  0  0  0  0  0  0  0  0
  150.0252  136.2191  154.6638 H   0  0  0  0  0  0  0  0  0  0  0  0
  151.7815  137.6856  155.3714 H   0  0  0  0  0  0  0  0  0  0  0  0
  149.7034  139.3132  156.7190 H   0  0  0  0  0  0  0  0  0  0  0  0
  150.2016  140.4005  158.2799 H   0  0  0  0  0  0  0  0  0  0  0  0
  152.5873  143.5493  161.0415 H   0  0  0  0  0  0  0  0  0  0  0  0
  154.2763  141.5891  161.7885 H   0  0  0  0  0  0  0  0  0  0  0  0
  151.2904  139.7491  153.9698 H   0  0  0  0  0  0  0  0  0  0  0  0
  150.9351  138.2381  153.1823 H   0  0  0  0  0  0  0  0  0  0  0  0
  149.1068  139.8240  152.7933 H   0  0  0  0  0  0  0  0  0  0  0  0
  148.8758  140.0724  154.5091 H   0  0  0  0  0  0  0  0  0  0  0  0
  148.5532  137.5149  153.1139 H   0  0  0  0  0  0  0  0  0  0  0  0
  1  2  1  0  0  0  0
  1 20  1  0  0  0  0
  1 21  1  0  0  0  0
  2  3  2  0  0  0  0
  2  4  1  0  0  0  0
  4  5  1  0  0  0  0
  4 22  1  0  0  0  0
  4 23  1  0  0  0  0
  5 19  1  0  0  0  0
  5  6  1  0  0  0  0
  5 37  1  0  0  0  0
  6  7  1  0  0  0  0
  6 24  1  0  0  0  0
  6 25  1  0  0  0  0
  7  8  1  0  0  0  0
  7 26  1  0  0  0  0
  7 27  1  0  0  0  0
  8  9  1  0  0  0  0
  8 18  1  0  0  0  0
  8 28  1  0  0  0  0
  9 10  1  0  0  0  0
  9 29  1  0  0  0  0
 10 11  2  0  0  0  0
 10 12  1  0  0  0  0
 12 13  1  0  0  0  0
 12 30  1  0  0  0  0
 13 17  1  0  0  0  0
 13 14  2  0  0  0  0
 14 15  1  0  0  0  0
 15 16  2  0  0  0  0
 15 31  1  0  0  0  0
 16 17  1  0  0  0  0
 16 32  1  0  0  0  0
 18 19  1  0  0  0  0
 18 33  1  0  0  0  0
 18 34  1  0  0  0  0
 19 35  1  0  0  0  0
 19 36  1  0  0  0  0
M  CHG  1   5   1
M  END
> <s_m_source_file>
AV-unprocessed.smi

> <i_m_source_file_index>
1213

> <i_lp_mmshare_version>
43012

> <i_f3d_flags>
0

> <s_epik_input>
W05IMl1DKD1PKVtDSDJdTjFbQ0gyXVtDSDJdW0NIXShbQ0gyXVtDSDJdMSlbTkhdQyg9TylbTkhdYzJuW2NIXVtjSF1zMg==

> <s_epik_cmdline>
J2VwaWtfcHl0aG9uJywgJy1waCcsICc3LjAnLCAnLXRuJywgJzgnLCAnLW1hJywgJzIwMCcsICctbWV0YWxfYmluZGluZycsICctaW1hZScsICc8aW5maWxlLm1hZT4nLCAnLW9tYWUnLCAnPG91dGZpbGUubWFlPic=

> <r_lp_tautomer_probability>
0.999

> <r_epik_Ionization_Penalty>
0.86253

> <r_epik_Ionization_Penalty_Charging>
0.862349

> <r_epik_Ionization_Penalty_Neutral>
0.000180085

> <r_epik_State_Penalty>
0.898939

> <r_epik_Charging_Adjusted_Penalty>
1.76129

> <i_epik_Tot_Q>
1

> <i_epik_Tot_abs_Q>
1

> <r_epik_Metal_State_Penalty>
0.948529

> <b_epik_Metal_Only>
0

> <s_lp_Force_Field>
OPLS_2005

> <r_lp_Energy>
11.1317

> <b_lp_Chiralities_Consistent>
1

> <s_lp_Variant>
AV-unprocessed.smi:1213-3

> <Gold.Version>
5.8.1

> <Gold.Id.Protein>
6NUR|6NUR_protein|mol2

> <Gold.PLP.Fitness>
42.7251

> <Gold.PLP.PLP>
-29.2162

> <Gold.PLP.part.hbond>
-5.5288

> <Gold.PLP.part.metal>
0.0000

> <Gold.PLP.part.buried>
-4.0584

> <Gold.PLP.part.nonpolar>
-22.4038

> <Gold.PLP.part.repulsive>
3.3198

> <Gold.PLP.ligand.clash>
0.0000

> <Gold.PLP.ligand.torsion>
0.7457

> <Gold.PLP.Chemscore.Hbond>
4.9913

> <Gold.PLP.Chemscore.CHOScore>
0.0000

> <Gold.PLP.Chemscore.Metal>
0.0000

> <Gold.Chemscore.Hbonds>
donor molecule, donor type, donor heavy atom, donor atom, acceptor molecule, acceptor atom, score
      L1  H     1    20       P1 10171  0.53
      L1  H     1    21       P1 10175  0.38
      L1  H     5    37       P1  7948  2.00
      P1  H  7954  7966       L1     3  0.88
      P1  H  7997  8009       L1    11  1.00

> <Gold.PLP.Chemscore.Internal.Correction>
0.0267

> <Gold.Rescore>
     Score         DG    S(hbond)    S(metal)    S(lipo)     H(rot)  DE(clash)    DE(int)     intcor
     18.27     -20.40       3.98        0.00      59.07       2.06       1.46       0.67       ----

> <Gold.Chemscore.Fitness>
18.2713

> <Gold.Chemscore.DG>
-20.4020

> <Gold.Chemscore.ZeroCoef>
-5.4800

> <Gold.Chemscore.Hbond>
3.9797

> <Gold.Chemscore.Metal>
0.0000

> <Gold.Chemscore.Lipo>
59.0726

> <Gold.Chemscore.Internal_Hbond>
0.0000

> <Gold.Chemscore.DEClash>
1.4624

> <Gold.Chemscore.DEInternal>
0.6682

> <Gold.Chemscore.Rot>
2.0631

> <Gold.Chemscore.Internal.Correction>
   9.000000E+99

> <Gold.Chemscore.Hbonds>
donor molecule, donor type, donor heavy atom, donor atom, acceptor molecule, acceptor atom, score
      L1  H     1    20       P1 10171  0.51
      L1  H     1    21       P1 10175  0.38
      L1  H     5    37       P1  7948  1.00
      P1  H  7954  7966       L1     3  0.85
      P1  H  7997  8009       L1    11  1.00

> <Gold.Chemscore.Hbond.Weighted>
-13.2921

> <Gold.Chemscore.Metal.Weighted>
-0.0000

> <Gold.Chemscore.Lipo.Weighted>
-6.9115

> <Gold.Chemscore.Internal_Hbond.Weighted>
0.0000

> <Gold.Chemscore.DEClash.Weighted>
1.4624

> <Gold.Chemscore.DEInternal.Weighted>
0.6682

> <Gold.Chemscore.Rot.Weighted>
5.2816

> <Gold.Chemscore.Internal.Correction.Weighted>
   9.000000E+99

> <Gold.Protein.RotatedTorsions>
[ 6907 6896 6895 6894 ] final   30.26 input  -60.11 | X-H torsion
[ 7974 7965 7964 7962 ] final -114.78 input  175.53 | X-H torsion
[ 8008 7997 7996 7995 ] final -171.94 input   59.86 | X-H torsion
[ 10167 10162 10161 10158 ] final  114.66 input  -65.29 | X-H torsion
[ 10718 10713 10712 10709 ] final   96.66 input   66.30 | X-H torsion
[ 10763 10752 10751 10750 ] final  -70.91 input  -60.55 | X-H torsion
[ 11005 11000 10999 10996 ] final  -43.78 input  -57.11 | X-H torsion

> <Gold.Protein.ActiveResidues>
 VAL166  LYS551  ARG553  GLY616  TRP617  ASP618  TYR619  PRO620  LYS621  CYS622 
 ASP623  PHE694  ASN695  SER759  ASP760  ASP761  ALA762  ILE779  LEU786  VAL792 
 PHE793  MET794  SER795  GLU796  ALA797  LYS798  CYS799  TRP800  GLU811  SER814 

> <Gold.Protein.RotatedAtoms>
  152.0434  134.9698  160.0573 H   0  0  0  0  0  0  0  0  0  0  0  0  # atno 6907 bound_to 6896
  152.1127  133.4305  159.4647 H   0  0  0  0  0  0  0  0  0  0  0  0  # atno 6908 bound_to 6896
  150.6844  134.2547  159.4568 H   0  0  0  0  0  0  0  0  0  0  0  0  # atno 6909 bound_to 6896
  145.1161  140.8641  143.3841 H   0  0  0  0  0  0  0  0  0  0  0  0  # atno 7974 bound_to 7965
  155.9381  140.1103  157.1078 H   0  0  0  0  0  0  0  0  0  0  0  0  # atno 8008 bound_to 7997
  154.4084  140.1224  156.4957 H   0  0  0  0  0  0  0  0  0  0  0  0  # atno 8009 bound_to 7997
  155.6996  140.3472  155.4930 H   0  0  0  0  0  0  0  0  0  0  0  0  # atno 8010 bound_to 7997
  139.6372  144.7121  151.2310 H   0  0  0  0  0  0  0  0  0  0  0  0  # atno 10167 bound_to 10162
  157.6924  131.0585  150.4526 H   0  0  0  0  0  0  0  0  0  0  0  0  # atno 10718 bound_to 10713
  154.4243  135.5979  153.6029 H   0  0  0  0  0  0  0  0  0  0  0  0  # atno 10763 bound_to 10752
  152.9795  135.5960  154.3916 H   0  0  0  0  0  0  0  0  0  0  0  0  # atno 10764 bound_to 10752
  154.3746  135.2841  155.2225 H   0  0  0  0  0  0  0  0  0  0  0  0  # atno 10765 bound_to 10752
  141.0406  133.6781  156.2780 H   0  0  0  0  0  0  0  0  0  0  0  0  # atno 11005 bound_to 11000
  145.0793  139.2972  143.5792 LP  0  0  0  0  0  0  0  0  0  0  0  0  # atno 17320 bound_to 7965
  146.3524  140.0293  142.8652 LP  0  0  0  0  0  0  0  0  0  0  0  0  # atno 17321 bound_to 7965
  140.7472  143.6375  150.8366 LP  0  0  0  0  0  0  0  0  0  0  0  0  # atno 17342 bound_to 10162
  140.0007  143.5747  152.2876 LP  0  0  0  0  0  0  0  0  0  0  0  0  # atno 17343 bound_to 10162
  156.4876  130.4088  149.6425 LP  0  0  0  0  0  0  0  0  0  0  0  0  # atno 17370 bound_to 10713
  156.3448  130.7401  151.2351 LP  0  0  0  0  0  0  0  0  0  0  0  0  # atno 17371 bound_to 10713
  140.6240  134.5332  157.5551 LP  0  0  0  0  0  0  0  0  0  0  0  0  # atno 17394 bound_to 11000
  139.9273  134.8031  156.1031 LP  0  0  0  0  0  0  0  0  0  0  0  0  # atno 17395 bound_to 11000

$$$$
