AV-unprocessed.smi:3202|AV-procd|sdf|12242|dock3
  -GOLD-   2272018 73D 1   1.00000     0.00000
 Structure written by MMmdl.
 43 44  0  0  0  0  0  0  0  0  2 V2000
  146.5354  138.6924  151.6303 C   0  0  0  0  0  0  0  0  0  0  0  0
  147.2733  139.3120  152.7683 C   0  0  0  0  0  0  0  0  0  0  0  0
  147.1414  140.5286  153.3767 C   0  0  0  0  0  0  0  0  0  0  0  0
  148.1410  140.5255  154.3934 C   0  0  0  0  0  0  0  0  0  0  0  0
  148.4552  141.6168  155.3814 C   0  0  0  0  0  0  0  0  0  0  0  0
  149.6613  141.2993  156.2930 C   0  0  1  0  0  0  0  0  0  0  0  0
  150.9035  140.8428  155.5099 C   0  0  0  0  0  0  0  0  0  0  0  0
  150.0153  142.4885  157.1008 N   0  3  0  0  0  0  0  0  0  0  0  0
  151.3179  142.4329  157.8054 C   0  0  2  0  0  0  0  0  0  0  0  0
  151.4065  141.3290  158.8663 C   0  0  0  0  0  0  0  0  0  0  0  0
  152.4968  141.7934  159.8399 C   0  0  0  0  0  0  0  0  0  0  0  0
  152.7927  143.2616  159.4931 C   0  0  0  0  0  0  0  0  0  0  0  0
  151.6603  143.7342  158.5619 C   0  0  0  0  0  0  0  0  0  0  0  0
  152.1484  144.8388  157.6056 C   0  0  0  0  0  0  0  0  0  0  0  0
  150.4781  144.2668  159.4053 C   0  0  0  0  0  0  0  0  0  0  0  0
  148.8351  139.3962  154.4149 N   0  0  0  0  0  0  0  0  0  0  0  0
  148.2974  138.6654  153.4206 N   0  0  0  0  0  0  0  0  0  0  0  0
  148.6372  137.7399  153.1991 H   0  0  0  0  0  0  0  0  0  0  0  0
  145.6217  139.2451  151.4111 H   0  0  0  0  0  0  0  0  0  0  0  0
  146.2585  137.6630  151.8595 H   0  0  0  0  0  0  0  0  0  0  0  0
  147.1493  138.6859  150.7296 H   0  0  0  0  0  0  0  0  0  0  0  0
  146.4357  141.3082  153.1306 H   0  0  0  0  0  0  0  0  0  0  0  0
  148.6393  142.5518  154.8501 H   0  0  0  0  0  0  0  0  0  0  0  0
  147.5713  141.7991  155.9915 H   0  0  0  0  0  0  0  0  0  0  0  0
  149.3854  140.4841  156.9639 H   0  0  0  0  0  0  0  0  0  0  0  0
  150.7282  139.9001  154.9916 H   0  0  0  0  0  0  0  0  0  0  0  0
  151.7510  140.6851  156.1782 H   0  0  0  0  0  0  0  0  0  0  0  0
  151.1997  141.5836  154.7665 H   0  0  0  0  0  0  0  0  0  0  0  0
  150.0651  143.2717  156.4649 H   0  0  0  0  0  0  0  0  0  0  0  0
  152.0999  142.2558  157.0643 H   0  0  0  0  0  0  0  0  0  0  0  0
  150.4615  141.2380  159.4033 H   0  0  0  0  0  0  0  0  0  0  0  0
  151.6311  140.3547  158.4305 H   0  0  0  0  0  0  0  0  0  0  0  0
  152.1515  141.6952  160.8699 H   0  0  0  0  0  0  0  0  0  0  0  0
  153.3990  141.1887  159.7401 H   0  0  0  0  0  0  0  0  0  0  0  0
  152.8929  143.8830  160.3840 H   0  0  0  0  0  0  0  0  0  0  0  0
  153.7495  143.3079  158.9705 H   0  0  0  0  0  0  0  0  0  0  0  0
  152.4641  145.7252  158.1570 H   0  0  0  0  0  0  0  0  0  0  0  0
  151.3597  145.1430  156.9167 H   0  0  0  0  0  0  0  0  0  0  0  0
  152.9969  144.5073  157.0060 H   0  0  0  0  0  0  0  0  0  0  0  0
  150.7807  145.1291  160.0003 H   0  0  0  0  0  0  0  0  0  0  0  0
  150.0958  143.5170  160.0981 H   0  0  0  0  0  0  0  0  0  0  0  0
  149.6470  144.5898  158.7780 H   0  0  0  0  0  0  0  0  0  0  0  0
  149.2786  142.6711  157.7672 H   0  0  0  0  0  0  0  0  0  0  0  0
  1  2  1  0  0  0  0
  1 19  1  0  0  0  0
  1 20  1  0  0  0  0
  1 21  1  0  0  0  0
  2 17  1  0  0  0  0
  2  3  2  0  0  0  0
  3  4  1  0  0  0  0
  3 22  1  0  0  0  0
  4  5  1  0  0  0  0
  4 16  2  0  0  0  0
  5  6  1  0  0  0  0
  5 23  1  0  0  0  0
  5 24  1  0  0  0  0
  6  7  1  0  0  0  0
  6  8  1  0  0  0  0
  6 25  1  0  0  0  0
  7 26  1  0  0  0  0
  7 27  1  0  0  0  0
  7 28  1  0  0  0  0
  8  9  1  0  0  0  0
  8 29  1  0  0  0  0
  8 43  1  0  0  0  0
  9 13  1  0  0  0  0
  9 10  1  0  0  0  0
  9 30  1  0  0  0  0
 10 11  1  0  0  0  0
 10 31  1  0  0  0  0
 10 32  1  0  0  0  0
 11 12  1  0  0  0  0
 11 33  1  0  0  0  0
 11 34  1  0  0  0  0
 12 13  1  0  0  0  0
 12 35  1  0  0  0  0
 12 36  1  0  0  0  0
 13 14  1  0  0  0  0
 13 15  1  0  0  0  0
 14 37  1  0  0  0  0
 14 38  1  0  0  0  0
 14 39  1  0  0  0  0
 15 40  1  0  0  0  0
 15 41  1  0  0  0  0
 15 42  1  0  0  0  0
 16 17  1  0  0  0  0
 17 18  1  0  0  0  0
M  CHG  1   8   1
M  END
> <s_m_source_file>
AV-unprocessed.smi

> <i_m_source_file_index>
3202

> <i_lp_mmshare_version>
43012

> <i_f3d_flags>
0

> <s_epik_input>
W0NIM11jMVtjSF1jKG5bbkhdMSlbQ0gyXVtDQEhdKFtDSDNdKVtOSF1bQ0BASF0oQzIoW0NIM10pW0NIM10pW0NIMl1bQ0gyXVtDSDJdMg==

> <s_epik_cmdline>
J2VwaWtfcHl0aG9uJywgJy1waCcsICc3LjAnLCAnLXRuJywgJzgnLCAnLW1hJywgJzIwMCcsICctbWV0YWxfYmluZGluZycsICctaW1hZScsICc8aW5maWxlLm1hZT4nLCAnLW9tYWUnLCAnPG91dGZpbGUubWFlPic=

> <r_lp_tautomer_probability>
0.5

> <r_epik_Ionization_Penalty>
0.000341671

> <r_epik_Ionization_Penalty_Charging>
0.000281809

> <r_epik_Ionization_Penalty_Neutral>
5.9862e-05

> <r_epik_State_Penalty>
0.41068

> <r_epik_Charging_Adjusted_Penalty>
0.410962

> <i_epik_Tot_Q>
1

> <i_epik_Tot_abs_Q>
1

> <r_epik_Metal_State_Penalty>
0.410672

> <b_epik_Metal_Only>
0

> <s_lp_Force_Field>
OPLS_2005

> <r_lp_Energy>
29.8366

> <b_lp_Chiralities_Consistent>
1

> <s_lp_Variant>
AV-unprocessed.smi:3202-2

> <Gold.Version>
5.8.1

> <Gold.Id.Protein>
6NUR|6NUR_protein|mol2

> <Gold.PLP.Fitness>
45.5221

> <Gold.PLP.PLP>
-37.8347

> <Gold.PLP.part.hbond>
-3.0000

> <Gold.PLP.part.metal>
0.0000

> <Gold.PLP.part.buried>
-0.7346

> <Gold.PLP.part.nonpolar>
-34.9612

> <Gold.PLP.part.repulsive>
0.1875

> <Gold.PLP.ligand.clash>
0.0000

> <Gold.PLP.ligand.torsion>
0.1644

> <Gold.PLP.Chemscore.Hbond>
2.6640

> <Gold.PLP.Chemscore.CHOScore>
0.0000

> <Gold.PLP.Chemscore.Metal>
0.0000

> <Gold.Chemscore.Hbonds>
donor molecule, donor type, donor heavy atom, donor atom, acceptor molecule, acceptor atom, score
      L1  H     8    29       P1  8028  1.63
      L1  H    17    18       P1  7948  1.00

> <Gold.PLP.Chemscore.Internal.Correction>
0.0242

> <Gold.Rescore>
     Score         DG    S(hbond)    S(metal)    S(lipo)     H(rot)  DE(clash)    DE(int)     intcor
     18.59     -21.83       1.79        0.00     120.57       1.46       1.61       1.63       ----

> <Gold.Chemscore.Fitness>
18.5900

> <Gold.Chemscore.DG>
-21.8285

> <Gold.Chemscore.ZeroCoef>
-5.4800

> <Gold.Chemscore.Hbond>
1.7899

> <Gold.Chemscore.Metal>
0.0000

> <Gold.Chemscore.Lipo>
120.5713

> <Gold.Chemscore.Internal_Hbond>
0.0000

> <Gold.Chemscore.DEClash>
1.6097

> <Gold.Chemscore.DEInternal>
1.6288

> <Gold.Chemscore.Rot>
1.4596

> <Gold.Chemscore.Internal.Correction>
   9.000000E+99

> <Gold.Chemscore.Hbonds>
donor molecule, donor type, donor heavy atom, donor atom, acceptor molecule, acceptor atom, score
      L1  H     8    29       P1  8028  0.76
      L1  H    17    18       P1  7948  0.88

> <Gold.Chemscore.Hbond.Weighted>
-5.9781

> <Gold.Chemscore.Metal.Weighted>
-0.0000

> <Gold.Chemscore.Lipo.Weighted>
-14.1068

> <Gold.Chemscore.Internal_Hbond.Weighted>
0.0000

> <Gold.Chemscore.DEClash.Weighted>
1.6097

> <Gold.Chemscore.DEInternal.Weighted>
1.6288

> <Gold.Chemscore.Rot.Weighted>
3.7365

> <Gold.Chemscore.Internal.Correction.Weighted>
   9.000000E+99

> <Gold.Protein.RotatedTorsions>
[ 6907 6896 6895 6894 ] final  -23.90 input  -60.11 | X-H torsion
[ 7974 7965 7964 7962 ] final  -58.11 input  175.53 | X-H torsion
[ 8008 7997 7996 7995 ] final  -44.36 input   59.86 | X-H torsion
[ 10167 10162 10161 10158 ] final   96.85 input  -65.29 | X-H torsion
[ 10718 10713 10712 10709 ] final   -6.86 input   66.30 | X-H torsion
[ 10763 10752 10751 10750 ] final -136.28 input  -60.55 | X-H torsion
[ 11005 11000 10999 10996 ] final  164.45 input  -57.11 | X-H torsion

> <Gold.Protein.ActiveResidues>
 VAL166  LYS551  ARG553  GLY616  TRP617  ASP618  TYR619  PRO620  LYS621  CYS622 
 ASP623  PHE694  ASN695  SER759  ASP760  ASP761  ALA762  ILE779  LEU786  VAL792 
 PHE793  MET794  SER795  GLU796  ALA797  LYS798  CYS799  TRP800  GLU811  SER814 

> <Gold.Protein.RotatedAtoms>
  151.1972  135.0427  159.8856 H   0  0  0  0  0  0  0  0  0  0  0  0  # atno 6907 bound_to 6896
  152.5435  134.0890  159.8278 H   0  0  0  0  0  0  0  0  0  0  0  0  # atno 6908 bound_to 6896
  151.1026  133.5185  159.2641 H   0  0  0  0  0  0  0  0  0  0  0  0  # atno 6909 bound_to 6896
  145.8431  140.8403  143.0024 H   0  0  0  0  0  0  0  0  0  0  0  0  # atno 7974 bound_to 7965
  154.3997  140.1424  156.3670 H   0  0  0  0  0  0  0  0  0  0  0  0  # atno 8008 bound_to 7997
  155.8128  140.3472  155.5447 H   0  0  0  0  0  0  0  0  0  0  0  0  # atno 8009 bound_to 7997
  155.8369  140.0921  157.1749 H   0  0  0  0  0  0  0  0  0  0  0  0  # atno 8010 bound_to 7997
  139.7855  144.6872  150.9963 H   0  0  0  0  0  0  0  0  0  0  0  0  # atno 10167 bound_to 10162
  156.7257  130.5164  149.5857 H   0  0  0  0  0  0  0  0  0  0  0  0  # atno 10718 bound_to 10713
  154.8687  135.3677  154.5035 H   0  0  0  0  0  0  0  0  0  0  0  0  # atno 10763 bound_to 10752
  153.5674  135.7021  153.5525 H   0  0  0  0  0  0  0  0  0  0  0  0  # atno 10764 bound_to 10752
  153.3573  135.4056  155.1654 H   0  0  0  0  0  0  0  0  0  0  0  0  # atno 10765 bound_to 10752
  140.2460  134.8014  157.3457 H   0  0  0  0  0  0  0  0  0  0  0  0  # atno 11005 bound_to 11000
  144.6732  140.0842  143.7468 LP  0  0  0  0  0  0  0  0  0  0  0  0  # atno 17320 bound_to 7965
  145.9442  139.2689  143.1250 LP  0  0  0  0  0  0  0  0  0  0  0  0  # atno 17321 bound_to 7965
  140.7819  143.4436  151.0515 LP  0  0  0  0  0  0  0  0  0  0  0  0  # atno 17342 bound_to 10162
  139.8115  143.7944  152.3171 LP  0  0  0  0  0  0  0  0  0  0  0  0  # atno 17343 bound_to 10162
  156.1564  130.6344  151.0662 LP  0  0  0  0  0  0  0  0  0  0  0  0  # atno 17370 bound_to 10713
  157.6880  131.0819  150.7189 LP  0  0  0  0  0  0  0  0  0  0  0  0  # atno 17371 bound_to 10713
  140.1605  134.4735  155.7898 LP  0  0  0  0  0  0  0  0  0  0  0  0  # atno 17394 bound_to 11000
  141.2206  133.6899  156.7536 LP  0  0  0  0  0  0  0  0  0  0  0  0  # atno 17395 bound_to 11000

$$$$
