AV-unprocessed.smi:1381|AV-procd|sdf|5606|dock4
  -GOLD-   22720 5213D 1   1.00000     0.00000
 Structure written by MMmdl.
 43 44  0  0  0  0  0  0  0  0  2 V2000
  153.1667  137.3020  157.0652 C   0  0  0  0  0  0  0  0  0  0  0  0
  152.3946  138.0696  156.0477 C   0  0  0  0  0  0  0  0  0  0  0  0
  151.2275  137.8200  155.3819 C   0  0  0  0  0  0  0  0  0  0  0  0
  151.0739  138.9707  154.5638 C   0  0  0  0  0  0  0  0  0  0  0  0
  149.9579  139.1057  153.6989 N   0  0  0  0  0  0  0  0  0  0  0  0
  148.7076  138.6569  153.9016 C   0  0  0  0  0  0  0  0  0  0  0  0
  148.3264  138.0380  154.8956 O   0  0  0  0  0  0  0  0  0  0  0  0
  147.9044  138.9636  152.8725 N   0  0  0  0  0  0  0  0  0  0  0  0
  146.4893  138.6204  152.7939 C   0  0  0  0  0  0  0  0  0  0  0  0
  146.1847  137.7570  151.5547 C   0  0  0  0  0  0  0  0  0  0  0  0
  146.2519  136.3047  151.8507 N   0  3  1  0  0  0  0  0  0  0  0  0
  145.7782  135.9834  153.2179 C   0  0  0  0  0  0  0  0  0  0  0  0
  145.9200  134.4782  153.5185 C   0  0  2  0  0  0  0  0  0  0  0  0
  147.3733  134.0338  153.7614 C   0  0  0  0  0  0  0  0  0  0  0  0
  145.2818  133.7091  152.4990 O   0  0  0  0  0  0  0  0  0  0  0  0
  145.7387  133.9723  151.1748 C   0  0  1  0  0  0  0  0  0  0  0  0
  144.9519  133.0706  150.2170 C   0  0  0  0  0  0  0  0  0  0  0  0
  145.5455  135.4652  150.8532 C   0  0  0  0  0  0  0  0  0  0  0  0
  152.0585  139.8431  154.7151 N   0  0  0  0  0  0  0  0  0  0  0  0
  152.9105  139.2695  155.6663 O   0  0  0  0  0  0  0  0  0  0  0  0
  152.5779  136.4717  157.4555 H   0  0  0  0  0  0  0  0  0  0  0  0
  153.4452  137.9411  157.9031 H   0  0  0  0  0  0  0  0  0  0  0  0
  154.0799  136.8956  156.6308 H   0  0  0  0  0  0  0  0  0  0  0  0
  150.5892  136.9534  155.4699 H   0  0  0  0  0  0  0  0  0  0  0  0
  150.1316  139.5971  152.8347 H   0  0  0  0  0  0  0  0  0  0  0  0
  148.2963  139.4756  152.0954 H   0  0  0  0  0  0  0  0  0  0  0  0
  146.1930  138.1178  153.7153 H   0  0  0  0  0  0  0  0  0  0  0  0
  145.9174  139.5477  152.7493 H   0  0  0  0  0  0  0  0  0  0  0  0
  145.1804  138.0066  151.2091 H   0  0  0  0  0  0  0  0  0  0  0  0
  146.8602  137.9932  150.7310 H   0  0  0  0  0  0  0  0  0  0  0  0
  146.3345  136.5627  153.9561 H   0  0  0  0  0  0  0  0  0  0  0  0
  144.7315  136.2789  153.3090 H   0  0  0  0  0  0  0  0  0  0  0  0
  145.3718  134.2718  154.4382 H   0  0  0  0  0  0  0  0  0  0  0  0
  147.7923  134.5421  154.6301 H   0  0  0  0  0  0  0  0  0  0  0  0
  148.0221  134.2544  152.9143 H   0  0  0  0  0  0  0  0  0  0  0  0
  147.4247  132.9616  153.9524 H   0  0  0  0  0  0  0  0  0  0  0  0
  146.7942  133.7133  151.0902 H   0  0  0  0  0  0  0  0  0  0  0  0
  145.2655  133.2254  149.1844 H   0  0  0  0  0  0  0  0  0  0  0  0
  143.8815  133.2700  150.2751 H   0  0  0  0  0  0  0  0  0  0  0  0
  145.1075  132.0186  150.4565 H   0  0  0  0  0  0  0  0  0  0  0  0
  144.4835  135.7172  150.8515 H   0  0  0  0  0  0  0  0  0  0  0  0
  145.9212  135.6676  149.8509 H   0  0  0  0  0  0  0  0  0  0  0  0
  147.2281  136.0475  151.8204 H   0  0  0  0  0  0  0  0  0  0  0  0
  1  2  1  0  0  0  0
  1 21  1  0  0  0  0
  1 22  1  0  0  0  0
  1 23  1  0  0  0  0
  2 20  1  0  0  0  0
  2  3  2  0  0  0  0
  3  4  1  0  0  0  0
  3 24  1  0  0  0  0
  4  5  1  0  0  0  0
  4 19  2  0  0  0  0
  5  6  1  0  0  0  0
  5 25  1  0  0  0  0
  6  7  2  0  0  0  0
  6  8  1  0  0  0  0
  8  9  1  0  0  0  0
  8 26  1  0  0  0  0
  9 10  1  0  0  0  0
  9 27  1  0  0  0  0
  9 28  1  0  0  0  0
 10 11  1  0  0  0  0
 10 29  1  0  0  0  0
 10 30  1  0  0  0  0
 11 18  1  0  0  0  0
 11 12  1  0  0  0  0
 11 43  1  0  0  0  0
 12 13  1  0  0  0  0
 12 31  1  0  0  0  0
 12 32  1  0  0  0  0
 13 14  1  0  0  0  0
 13 15  1  0  0  0  0
 13 33  1  0  0  0  0
 14 34  1  0  0  0  0
 14 35  1  0  0  0  0
 14 36  1  0  0  0  0
 15 16  1  0  0  0  0
 16 17  1  0  0  0  0
 16 18  1  0  0  0  0
 16 37  1  0  0  0  0
 17 38  1  0  0  0  0
 17 39  1  0  0  0  0
 17 40  1  0  0  0  0
 18 41  1  0  0  0  0
 18 42  1  0  0  0  0
 19 20  1  0  0  0  0
M  CHG  1  11   1
M  END
> <s_m_source_file>
AV-unprocessed.smi

> <i_m_source_file_index>
1381

> <i_lp_mmshare_version>
43012

> <i_f3d_flags>
0

> <s_epik_input>
W0NIM11jMVtjSF1jKG5vMSlbTkhdQyg9TylbTkhdW0NIMl1bQ0gyXU4yW0NIMl1bQ0BASF0oW0NIM10pT1tDQEBIXShbQ0gzXSlbQ0gyXTI=

> <s_epik_cmdline>
J2VwaWtfcHl0aG9uJywgJy1waCcsICc3LjAnLCAnLXRuJywgJzgnLCAnLW1hJywgJzIwMCcsICctbWV0YWxfYmluZGluZycsICctaW1hZScsICc8aW5maWxlLm1hZT4nLCAnLW9tYWUnLCAnPG91dGZpbGUubWFlPic=

> <r_epik_Ionization_Penalty>
0.707076

> <r_epik_Ionization_Penalty_Charging>
0.707039

> <r_epik_Ionization_Penalty_Neutral>
3.6548e-05

> <r_epik_State_Penalty>
0.730276

> <r_epik_Charging_Adjusted_Penalty>
1.43732

> <i_epik_Tot_Q>
1

> <i_epik_Tot_abs_Q>
1

> <r_epik_Metal_State_Penalty>
0.743132

> <b_epik_Metal_Only>
0

> <s_lp_Force_Field>
OPLS_2005

> <r_lp_Energy>
14.5355

> <b_lp_Chiralities_Consistent>
1

> <s_lp_Variant>
AV-unprocessed.smi:1381-5

> <Gold.Version>
5.8.1

> <Gold.Id.Protein>
6NUR|6NUR_protein|mol2

> <Gold.PLP.Fitness>
46.1267

> <Gold.PLP.PLP>
-30.0495

> <Gold.PLP.part.hbond>
-5.6845

> <Gold.PLP.part.metal>
0.0000

> <Gold.PLP.part.buried>
-1.6277

> <Gold.PLP.part.nonpolar>
-22.7314

> <Gold.PLP.part.repulsive>
0.4779

> <Gold.PLP.ligand.clash>
0.0000

> <Gold.PLP.ligand.torsion>
0.6681

> <Gold.PLP.Chemscore.Hbond>
5.7976

> <Gold.PLP.Chemscore.CHOScore>
0.0000

> <Gold.PLP.Chemscore.Metal>
0.0000

> <Gold.Chemscore.Hbonds>
donor molecule, donor type, donor heavy atom, donor atom, acceptor molecule, acceptor atom, score
      L1  H     5    25       P1  7957  1.00
      L1  H     8    26       P1  7957  1.00
      L1  H    11    43       P1  7948  2.00
      P1  H  7989  7998       L1    19  0.81
      P1  H  7997  8009       L1    20  1.00

> <Gold.PLP.Chemscore.Internal.Correction>
0.0205

> <Gold.Rescore>
     Score         DG    S(hbond)    S(metal)    S(lipo)     H(rot)  DE(clash)    DE(int)     intcor
     21.26     -23.60       4.60        0.00      58.87       1.61       0.58       1.76       ----

> <Gold.Chemscore.Fitness>
21.2622

> <Gold.Chemscore.DG>
-23.5992

> <Gold.Chemscore.ZeroCoef>
-5.4800

> <Gold.Chemscore.Hbond>
4.5952

> <Gold.Chemscore.Metal>
0.0000

> <Gold.Chemscore.Lipo>
58.8718

> <Gold.Chemscore.Internal_Hbond>
0.0000

> <Gold.Chemscore.DEClash>
0.5808

> <Gold.Chemscore.DEInternal>
1.7562

> <Gold.Chemscore.Rot>
1.6081

> <Gold.Chemscore.Internal.Correction>
   9.000000E+99

> <Gold.Chemscore.Hbonds>
donor molecule, donor type, donor heavy atom, donor atom, acceptor molecule, acceptor atom, score
      L1  H     5    25       P1  7957  0.92
      L1  H     8    26       P1  7957  0.98
      L1  H    11    43       P1  7948  1.00
      P1  H  7989  7998       L1    19  0.18
      P1  H  7997  8009       L1    20  0.94

> <Gold.Chemscore.Hbond.Weighted>
-15.3479

> <Gold.Chemscore.Metal.Weighted>
-0.0000

> <Gold.Chemscore.Lipo.Weighted>
-6.8880

> <Gold.Chemscore.Internal_Hbond.Weighted>
0.0000

> <Gold.Chemscore.DEClash.Weighted>
0.5808

> <Gold.Chemscore.DEInternal.Weighted>
1.7562

> <Gold.Chemscore.Rot.Weighted>
4.1167

> <Gold.Chemscore.Internal.Correction.Weighted>
   9.000000E+99

> <Gold.Protein.RotatedTorsions>
[ 6907 6896 6895 6894 ] final   -4.09 input  -60.11 | X-H torsion
[ 7974 7965 7964 7962 ] final -170.86 input  175.53 | X-H torsion
[ 8008 7997 7996 7995 ] final -146.75 input   59.86 | X-H torsion
[ 10167 10162 10161 10158 ] final -151.73 input  -65.29 | X-H torsion
[ 10718 10713 10712 10709 ] final  127.33 input   66.30 | X-H torsion
[ 10763 10752 10751 10750 ] final -158.16 input  -60.55 | X-H torsion
[ 11005 11000 10999 10996 ] final   69.17 input  -57.11 | X-H torsion

> <Gold.Protein.ActiveResidues>
 VAL166  LYS551  ARG553  GLY616  TRP617  ASP618  TYR619  PRO620  LYS621  CYS622 
 ASP623  PHE694  ASN695  SER759  ASP760  ASP761  ALA762  ILE779  LEU786  VAL792 
 PHE793  MET794  SER795  GLU796  ALA797  LYS798  CYS799  TRP800  GLU811  SER814 

> <Gold.Protein.RotatedAtoms>
  151.5032  135.1062  159.9834 H   0  0  0  0  0  0  0  0  0  0  0  0  # atno 6907 bound_to 6896
  152.4693  133.7989  159.6953 H   0  0  0  0  0  0  0  0  0  0  0  0  # atno 6908 bound_to 6896
  150.8693  133.7465  159.2992 H   0  0  0  0  0  0  0  0  0  0  0  0  # atno 6909 bound_to 6896
  144.7164  140.2008  143.6338 H   0  0  0  0  0  0  0  0  0  0  0  0  # atno 7974 bound_to 7965
  155.5644  140.0628  157.2821 H   0  0  0  0  0  0  0  0  0  0  0  0  # atno 8008 bound_to 7997
  154.4380  140.1880  156.0861 H   0  0  0  0  0  0  0  0  0  0  0  0  # atno 8009 bound_to 7997
  156.0423  140.3294  155.7261 H   0  0  0  0  0  0  0  0  0  0  0  0  # atno 8010 bound_to 7997
  139.7242  143.8909  152.2514 H   0  0  0  0  0  0  0  0  0  0  0  0  # atno 10167 bound_to 10162
  157.5342  131.1098  150.8961 H   0  0  0  0  0  0  0  0  0  0  0  0  # atno 10718 bound_to 10713
  154.7579  135.3109  154.8435 H   0  0  0  0  0  0  0  0  0  0  0  0  # atno 10763 bound_to 10752
  153.9204  135.6796  153.4752 H   0  0  0  0  0  0  0  0  0  0  0  0  # atno 10764 bound_to 10752
  153.1177  135.4837  154.9074 H   0  0  0  0  0  0  0  0  0  0  0  0  # atno 10765 bound_to 10752
  139.9669  134.6966  156.0527 H   0  0  0  0  0  0  0  0  0  0  0  0  # atno 11005 bound_to 11000
  145.8681  139.2258  143.1677 LP  0  0  0  0  0  0  0  0  0  0  0  0  # atno 17320 bound_to 7965
  146.0110  140.8435  142.9971 LP  0  0  0  0  0  0  0  0  0  0  0  0  # atno 17321 bound_to 7965
  139.8813  144.7016  150.8874 LP  0  0  0  0  0  0  0  0  0  0  0  0  # atno 17342 bound_to 10162
  140.7759  143.3659  151.1741 LP  0  0  0  0  0  0  0  0  0  0  0  0  # atno 17343 bound_to 10162
  156.9533  130.5428  149.5283 LP  0  0  0  0  0  0  0  0  0  0  0  0  # atno 17370 bound_to 10713
  156.0446  130.5524  150.8850 LP  0  0  0  0  0  0  0  0  0  0  0  0  # atno 17371 bound_to 10713
  141.1348  133.6577  156.3564 LP  0  0  0  0  0  0  0  0  0  0  0  0  # atno 17394 bound_to 11000
  140.5378  134.6150  157.5370 LP  0  0  0  0  0  0  0  0  0  0  0  0  # atno 17395 bound_to 11000

$$$$
