AV-unprocessed.smi:898|AV-procd|sdf|4086|dock8
  -GOLD-   22720 1573D 1   1.00000     0.00000
 Structure written by MMmdl.
 33 35  0  0  0  0  0  0  0  0  2 V2000
  154.9441  141.1753  160.5995 O   0  0  0  0  0  0  0  0  0  0  0  0
  154.2107  140.7880  159.6868 C   0  0  0  0  0  0  0  0  0  0  0  0
  154.1782  139.5434  159.1584 N   0  5  0  0  0  0  0  0  0  0  0  0
  154.2137  138.4701  159.9652 C   0  0  0  0  0  0  0  0  0  0  0  0
  153.7121  137.2812  159.6025 N   0  0  0  0  0  0  0  0  0  0  0  0
  153.8477  136.3108  160.5848 N   0  0  0  0  0  0  0  0  0  0  0  0
  154.4453  136.7836  161.6810 C   0  0  0  0  0  0  0  0  0  0  0  0
  154.7086  135.9322  162.8779 C   0  0  0  0  0  0  0  0  0  0  0  0
  155.0339  136.5377  164.2263 C   0  0  0  0  0  0  0  0  0  0  0  0
  156.1031  135.8136  163.4486 C   0  0  0  0  0  0  0  0  0  0  0  0
  154.8869  138.4814  161.5947 S   0  0  0  0  0  0  0  0  0  0  0  0
  153.3331  141.6335  159.1273 N   0  0  0  0  0  0  0  0  0  0  0  0
  153.1244  143.0311  159.4971 C   0  0  1  0  0  0  0  0  0  0  0  0
  152.0676  143.6471  158.5601 C   0  0  0  0  0  0  0  0  0  0  0  0
  151.8263  145.1401  158.8358 C   0  0  0  0  0  0  0  0  0  0  0  0
  151.3140  145.3952  160.2600 C   0  0  0  0  0  0  0  0  0  0  0  0
  152.5270  144.8642  161.4982 S   0  0  0  0  0  0  0  0  0  0  0  0
  152.7052  143.1355  160.9768 C   0  0  0  0  0  0  0  0  0  0  0  0
  154.0870  135.0392  162.8586 H   0  0  0  0  0  0  0  0  0  0  0  0
  155.1195  137.6201  164.2986 H   0  0  0  0  0  0  0  0  0  0  0  0
  154.6321  136.0428  165.1080 H   0  0  0  0  0  0  0  0  0  0  0  0
  156.4151  134.8362  163.8108 H   0  0  0  0  0  0  0  0  0  0  0  0
  156.8875  136.4156  162.9938 H   0  0  0  0  0  0  0  0  0  0  0  0
  152.7557  141.2700  158.3835 H   0  0  0  0  0  0  0  0  0  0  0  0
  154.0616  143.5726  159.3550 H   0  0  0  0  0  0  0  0  0  0  0  0
  152.3881  143.5275  157.5243 H   0  0  0  0  0  0  0  0  0  0  0  0
  151.1265  143.1028  158.6521 H   0  0  0  0  0  0  0  0  0  0  0  0
  152.7466  145.7010  158.6683 H   0  0  0  0  0  0  0  0  0  0  0  0
  151.0998  145.5243  158.1193 H   0  0  0  0  0  0  0  0  0  0  0  0
  151.1101  146.4564  160.4039 H   0  0  0  0  0  0  0  0  0  0  0  0
  150.3771  144.8633  160.4287 H   0  0  0  0  0  0  0  0  0  0  0  0
  151.7609  142.6164  161.1442 H   0  0  0  0  0  0  0  0  0  0  0  0
  153.4466  142.6632  161.6221 H   0  0  0  0  0  0  0  0  0  0  0  0
  1  2  2  0  0  0  0
  2  3  1  0  0  0  0
  2 12  1  0  0  0  0
  3  4  1  0  0  0  0
  4 11  1  0  0  0  0
  4  5  2  0  0  0  0
  5  6  1  0  0  0  0
  6  7  2  0  0  0  0
  7  8  1  0  0  0  0
  7 11  1  0  0  0  0
  8 10  1  0  0  0  0
  8  9  1  0  0  0  0
  8 19  1  0  0  0  0
  9 10  1  0  0  0  0
  9 20  1  0  0  0  0
  9 21  1  0  0  0  0
 10 22  1  0  0  0  0
 10 23  1  0  0  0  0
 12 13  1  0  0  0  0
 12 24  1  0  0  0  0
 13 18  1  0  0  0  0
 13 14  1  0  0  0  0
 13 25  1  0  0  0  0
 14 15  1  0  0  0  0
 14 26  1  0  0  0  0
 14 27  1  0  0  0  0
 15 16  1  0  0  0  0
 15 28  1  0  0  0  0
 15 29  1  0  0  0  0
 16 17  1  0  0  0  0
 16 30  1  0  0  0  0
 16 31  1  0  0  0  0
 17 18  1  0  0  0  0
 18 32  1  0  0  0  0
 18 33  1  0  0  0  0
M  CHG  1   3  -1
M  END
> <s_m_source_file>
AV-unprocessed.smi

> <i_m_source_file_index>
898

> <i_lp_mmshare_version>
43012

> <i_f3d_flags>
0

> <s_epik_input>
W0NIMl0xU1tDSDJdW0NIMl1bQ0gyXVtDQEhdMVtOSF1DKD1PKVtOSF1jMm5uYyhzMilbQ0hdM1tDSDJdW0NIMl0z

> <s_epik_cmdline>
J2VwaWtfcHl0aG9uJywgJy1waCcsICc3LjAnLCAnLXRuJywgJzgnLCAnLW1hJywgJzIwMCcsICctbWV0YWxfYmluZGluZycsICctaW1hZScsICc8aW5maWxlLm1hZT4nLCAnLW9tYWUnLCAnPG91dGZpbGUubWFlPic=

> <r_lp_tautomer_probability>
1

> <r_epik_Ionization_Penalty>
4.71411

> <r_epik_Ionization_Penalty_Charging>
4.5615

> <r_epik_Ionization_Penalty_Neutral>
0.152604

> <r_epik_State_Penalty>
4.56123

> <r_epik_Charging_Adjusted_Penalty>
9.12273

> <i_epik_Tot_Q>
-1

> <i_epik_Tot_abs_Q>
1

> <r_epik_Metal_State_Penalty>
0.850765

> <b_epik_Metal_Only>
1

> <s_lp_Force_Field>
OPLS_2005

> <r_lp_Energy>
0.516701

> <b_lp_Chiralities_Consistent>
1

> <s_lp_Variant>
AV-unprocessed.smi:898-4

> <Gold.Version>
5.8.1

> <Gold.Id.Protein>
6NUR|6NUR_protein|mol2

> <Gold.PLP.Fitness>
46.2975

> <Gold.PLP.PLP>
-38.8036

> <Gold.PLP.part.hbond>
-2.8712

> <Gold.PLP.part.metal>
0.0000

> <Gold.PLP.part.buried>
-1.6985

> <Gold.PLP.part.nonpolar>
-33.2887

> <Gold.PLP.part.repulsive>
0.0866

> <Gold.PLP.ligand.clash>
0.0000

> <Gold.PLP.ligand.torsion>
0.7358

> <Gold.PLP.Chemscore.Hbond>
2.9413

> <Gold.PLP.Chemscore.CHOScore>
0.0000

> <Gold.PLP.Chemscore.Metal>
0.0000

> <Gold.Chemscore.Hbonds>
donor molecule, donor type, donor heavy atom, donor atom, acceptor molecule, acceptor atom, score
      P1  H  6896  6909       L1     6  0.62
      P1  H  7997  8008       L1     3  1.46

> <Gold.PLP.Chemscore.Internal.Correction>
0.1417

> <Gold.Rescore>
     Score         DG    S(hbond)    S(metal)    S(lipo)     H(rot)  DE(clash)    DE(int)     intcor
     15.34     -19.43       1.29        0.00     108.57       1.19       0.92       3.17       ----

> <Gold.Chemscore.Fitness>
15.3376

> <Gold.Chemscore.DG>
-19.4311

> <Gold.Chemscore.ZeroCoef>
-5.4800

> <Gold.Chemscore.Hbond>
1.2868

> <Gold.Chemscore.Metal>
0.0000

> <Gold.Chemscore.Lipo>
108.5685

> <Gold.Chemscore.Internal_Hbond>
0.0000

> <Gold.Chemscore.DEClash>
0.9214

> <Gold.Chemscore.DEInternal>
3.1721

> <Gold.Chemscore.Rot>
1.1911

> <Gold.Chemscore.Internal.Correction>
   9.000000E+99

> <Gold.Chemscore.Hbonds>
donor molecule, donor type, donor heavy atom, donor atom, acceptor molecule, acceptor atom, score
      P1  H  6896  6909       L1     6  0.24
      P1  H  7997  8008       L1     3  0.12

> <Gold.Chemscore.Hbond.Weighted>
-4.2978

> <Gold.Chemscore.Metal.Weighted>
-0.0000

> <Gold.Chemscore.Lipo.Weighted>
-12.7025

> <Gold.Chemscore.Internal_Hbond.Weighted>
0.0000

> <Gold.Chemscore.DEClash.Weighted>
0.9214

> <Gold.Chemscore.DEInternal.Weighted>
3.1721

> <Gold.Chemscore.Rot.Weighted>
3.0492

> <Gold.Chemscore.Internal.Correction.Weighted>
   9.000000E+99

> <Gold.Protein.RotatedTorsions>
[ 6907 6896 6895 6894 ] final  164.84 input  -60.11 | X-H torsion
[ 7974 7965 7964 7962 ] final -179.48 input  175.53 | X-H torsion
[ 8008 7997 7996 7995 ] final -116.01 input   59.86 | X-H torsion
[ 10167 10162 10161 10158 ] final  146.24 input  -65.29 | X-H torsion
[ 10718 10713 10712 10709 ] final   65.75 input   66.30 | X-H torsion
[ 10763 10752 10751 10750 ] final   72.83 input  -60.55 | X-H torsion
[ 11005 11000 10999 10996 ] final  142.31 input  -57.11 | X-H torsion

> <Gold.Protein.ActiveResidues>
 VAL166  LYS551  ARG553  GLY616  TRP617  ASP618  TYR619  PRO620  LYS621  CYS622 
 ASP623  PHE694  ASN695  SER759  ASP760  ASP761  ALA762  ILE779  LEU786  VAL792 
 PHE793  MET794  SER795  GLU796  ALA797  LYS798  CYS799  TRP800  GLU811  SER814 

> <Gold.Protein.RotatedAtoms>
  151.9036  133.3544  159.3838 H   0  0  0  0  0  0  0  0  0  0  0  0  # atno 6907 bound_to 6896
  150.7074  134.4803  159.5476 H   0  0  0  0  0  0  0  0  0  0  0  0  # atno 6908 bound_to 6896
  152.2396  134.8242  160.0513 H   0  0  0  0  0  0  0  0  0  0  0  0  # atno 6909 bound_to 6896
  144.7137  140.0711  143.6429 H   0  0  0  0  0  0  0  0  0  0  0  0  # atno 7974 bound_to 7965
  155.0611  140.0393  157.2577 H   0  0  0  0  0  0  0  0  0  0  0  0  # atno 8008 bound_to 7997
  154.7058  140.2682  155.6651 H   0  0  0  0  0  0  0  0  0  0  0  0  # atno 8009 bound_to 7997
  156.2774  140.2731  156.1684 H   0  0  0  0  0  0  0  0  0  0  0  0  # atno 8010 bound_to 7997
  139.4911  144.5844  151.6808 H   0  0  0  0  0  0  0  0  0  0  0  0  # atno 10167 bound_to 10162
  157.6126  130.9231  150.0018 H   0  0  0  0  0  0  0  0  0  0  0  0  # atno 10718 bound_to 10713
  153.0483  135.5085  154.7803 H   0  0  0  0  0  0  0  0  0  0  0  0  # atno 10763 bound_to 10752
  154.6685  135.2949  154.9775 H   0  0  0  0  0  0  0  0  0  0  0  0  # atno 10764 bound_to 10752
  154.0601  135.6692  153.4863 H   0  0  0  0  0  0  0  0  0  0  0  0  # atno 10765 bound_to 10752
  140.0467  134.9277  157.0943 H   0  0  0  0  0  0  0  0  0  0  0  0  # atno 11005 bound_to 11000
  145.9782  139.2921  143.1058 LP  0  0  0  0  0  0  0  0  0  0  0  0  # atno 17320 bound_to 7965
  145.9040  140.9224  143.0488 LP  0  0  0  0  0  0  0  0  0  0  0  0  # atno 17321 bound_to 7965
  140.5457  144.0507  150.6106 LP  0  0  0  0  0  0  0  0  0  0  0  0  # atno 17342 bound_to 10162
  140.3544  143.2944  152.0452 LP  0  0  0  0  0  0  0  0  0  0  0  0  # atno 17343 bound_to 10162
  156.1234  130.3645  149.9849 LP  0  0  0  0  0  0  0  0  0  0  0  0  # atno 17370 bound_to 10713
  156.7925  130.9261  151.3646 LP  0  0  0  0  0  0  0  0  0  0  0  0  # atno 17371 bound_to 10713
  140.3982  134.2111  155.7164 LP  0  0  0  0  0  0  0  0  0  0  0  0  # atno 17394 bound_to 11000
  141.1910  133.8204  157.0895 LP  0  0  0  0  0  0  0  0  0  0  0  0  # atno 17395 bound_to 11000

$$$$
