AV-unprocessed.smi:271|AV-procd|sdf|2049|dock5
  -GOLD-   2262021283D 1   1.00000     0.00000
 Structure written by MMmdl.
 58 60  0  0  0  0  0  0  0  0  1 V2000
  144.9450  131.7617  148.7915 C   0  0  0  0  0  0  0  0  0  0  0  0
  145.4713  132.6824  149.9031 C   0  0  0  0  0  0  0  0  0  0  0  0
  145.9390  131.8521  151.1106 C   0  0  0  0  0  0  0  0  0  0  0  0
  144.4102  133.7311  150.2901 C   0  0  0  0  0  0  0  0  0  0  0  0
  144.9510  134.8521  151.2032 C   0  0  0  0  0  0  0  0  0  0  0  0
  144.7678  134.5890  152.6307 N   0  0  0  0  0  0  0  0  0  0  0  0
  143.3883  134.3188  153.0303 C   0  0  0  0  0  0  0  0  0  0  0  0
  142.4726  135.5499  152.9358 C   0  0  0  0  0  0  0  0  0  0  0  0
  141.1326  135.2918  153.4825 C   0  0  0  0  0  0  0  0  0  0  0  0
  140.0781  135.0886  153.9131 N   0  0  0  0  0  0  0  0  0  0  0  0
  145.3796  135.4923  153.4303 C   0  0  0  0  0  0  0  0  0  0  0  0
  145.4484  135.2022  154.7527 N   0  0  0  0  0  0  0  0  0  0  0  0
  146.0493  136.0518  155.5906 C   0  0  0  0  0  0  0  0  0  0  0  0
  146.6353  137.2192  155.3171 N   0  0  0  0  0  0  0  0  0  0  0  0
  146.5703  137.5122  153.9868 C   0  0  0  0  0  0  0  0  0  0  0  0
  145.9574  136.7133  152.9814 C   0  0  0  0  0  0  0  0  0  0  0  0
  146.0705  137.3363  151.7450 N   0  0  0  0  0  0  0  0  0  0  0  0
  146.7162  138.4398  152.0046 C   0  0  0  0  0  0  0  0  0  0  0  0
  147.0761  138.6174  153.3224 N   0  0  0  0  0  0  0  0  0  0  0  0
  147.8101  139.7468  153.8756 C   0  0  0  0  0  0  0  0  0  0  0  0
  149.3443  139.5221  153.9853 C   0  0  2  0  0  0  0  0  0  0  0  0
  149.7238  138.0216  153.9858 C   0  0  0  0  0  0  0  0  0  0  0  0
  149.7999  137.5157  152.6692 O   0  0  0  0  0  0  0  0  0  0  0  0
  149.9580  140.2579  155.2054 C   0  0  2  0  0  0  0  0  0  0  0  0
  151.4242  139.9478  155.4606 C   0  0  0  0  0  0  0  0  0  0  0  0
  151.6081  140.4241  156.8968 C   0  0  0  0  0  0  0  0  0  0  0  0
  150.3588  140.1921  157.5374 O   0  0  0  0  0  0  0  0  0  0  0  0
  149.3691  139.8682  156.5660 C   0  0  0  0  0  0  0  0  0  0  0  0
  144.0680  131.2033  149.1211 H   0  0  0  0  0  0  0  0  0  0  0  0
  145.7029  131.0399  148.4857 H   0  0  0  0  0  0  0  0  0  0  0  0
  144.6625  132.3328  147.9067 H   0  0  0  0  0  0  0  0  0  0  0  0
  146.3383  133.2095  149.5027 H   0  0  0  0  0  0  0  0  0  0  0  0
  145.1046  131.3317  151.5815 H   0  0  0  0  0  0  0  0  0  0  0  0
  146.4145  132.4741  151.8685 H   0  0  0  0  0  0  0  0  0  0  0  0
  146.6697  131.1013  150.8088 H   0  0  0  0  0  0  0  0  0  0  0  0
  144.0159  134.1903  149.3824 H   0  0  0  0  0  0  0  0  0  0  0  0
  143.5684  133.2238  150.7631 H   0  0  0  0  0  0  0  0  0  0  0  0
  146.0079  135.0286  151.0050 H   0  0  0  0  0  0  0  0  0  0  0  0
  144.4367  135.7824  150.9597 H   0  0  0  0  0  0  0  0  0  0  0  0
  142.9829  133.5059  152.4267 H   0  0  0  0  0  0  0  0  0  0  0  0
  143.3923  133.9618  154.0608 H   0  0  0  0  0  0  0  0  0  0  0  0
  142.9014  136.3879  153.4855 H   0  0  0  0  0  0  0  0  0  0  0  0
  142.3433  135.8690  151.9012 H   0  0  0  0  0  0  0  0  0  0  0  0
  146.0649  135.7533  156.6286 H   0  0  0  0  0  0  0  0  0  0  0  0
  146.9597  139.1554  151.2329 H   0  0  0  0  0  0  0  0  0  0  0  0
  147.6088  140.6138  153.2456 H   0  0  0  0  0  0  0  0  0  0  0  0
  147.3843  139.9940  154.8480 H   0  0  0  0  0  0  0  0  0  0  0  0
  149.7913  139.9607  153.0917 H   0  0  0  0  0  0  0  0  0  0  0  0
  150.7024  137.8681  154.4399 H   0  0  0  0  0  0  0  0  0  0  0  0
  149.0154  137.4301  154.5657 H   0  0  0  0  0  0  0  0  0  0  0  0
  149.3969  138.1391  152.0840 H   0  0  0  0  0  0  0  0  0  0  0  0
  149.8391  141.3356  155.0844 H   0  0  0  0  0  0  0  0  0  0  0  0
  151.6024  138.8732  155.3998 H   0  0  0  0  0  0  0  0  0  0  0  0
  152.1082  140.4405  154.7712 H   0  0  0  0  0  0  0  0  0  0  0  0
  152.4221  139.9088  157.4072 H   0  0  0  0  0  0  0  0  0  0  0  0
  151.8168  141.4944  156.9181 H   0  0  0  0  0  0  0  0  0  0  0  0
  148.4327  140.3840  156.7800 H   0  0  0  0  0  0  0  0  0  0  0  0
  149.1822  138.7944  156.6136 H   0  0  0  0  0  0  0  0  0  0  0  0
  1  2  1  0  0  0  0
  1 29  1  0  0  0  0
  1 30  1  0  0  0  0
  1 31  1  0  0  0  0
  2  3  1  0  0  0  0
  2  4  1  0  0  0  0
  2 32  1  0  0  0  0
  3 33  1  0  0  0  0
  3 34  1  0  0  0  0
  3 35  1  0  0  0  0
  4  5  1  0  0  0  0
  4 36  1  0  0  0  0
  4 37  1  0  0  0  0
  5  6  1  0  0  0  0
  5 38  1  0  0  0  0
  5 39  1  0  0  0  0
  6  7  1  0  0  0  0
  6 11  1  0  0  0  0
  7  8  1  0  0  0  0
  7 40  1  0  0  0  0
  7 41  1  0  0  0  0
  8  9  1  0  0  0  0
  8 42  1  0  0  0  0
  8 43  1  0  0  0  0
  9 10  3  0  0  0  0
 11 16  1  0  0  0  0
 11 12  2  0  0  0  0
 12 13  1  0  0  0  0
 13 14  2  0  0  0  0
 13 44  1  0  0  0  0
 14 15  1  0  0  0  0
 15 19  1  0  0  0  0
 15 16  2  0  0  0  0
 16 17  1  0  0  0  0
 17 18  2  0  0  0  0
 18 19  1  0  0  0  0
 18 45  1  0  0  0  0
 19 20  1  0  0  0  0
 20 21  1  0  0  0  0
 20 46  1  0  0  0  0
 20 47  1  0  0  0  0
 21 22  1  0  0  0  0
 21 24  1  0  0  0  0
 21 48  1  0  0  0  0
 22 23  1  0  0  0  0
 22 49  1  0  0  0  0
 22 50  1  0  0  0  0
 23 51  1  0  0  0  0
 24 28  1  0  0  0  0
 24 25  1  0  0  0  0
 24 52  1  0  0  0  0
 25 26  1  0  0  0  0
 25 53  1  0  0  0  0
 25 54  1  0  0  0  0
 26 27  1  0  0  0  0
 26 55  1  0  0  0  0
 26 56  1  0  0  0  0
 27 28  1  0  0  0  0
 28 57  1  0  0  0  0
 28 58  1  0  0  0  0
M  END
> <s_m_source_file>
AV-unprocessed.smi

> <i_m_source_file_index>
271

> <i_lp_mmshare_version>
43012

> <i_f3d_flags>
0

> <s_epik_input>
W0NIM11bQ0hdKFtDSDNdKVtDSDJdW0NIMl1OKFtDSDJdW0NIMl1DI04pYyhuW2NIXW4xKWMoYzEyKW5bY0hdbjJbQ0gyXVtDQEhdKFtDSDJdW09IXSlbQ0BASF0zW0NIMl1bQ0gyXU9bQ0gyXTM=

> <s_epik_cmdline>
J2VwaWtfcHl0aG9uJywgJy1waCcsICc3LjAnLCAnLXRuJywgJzgnLCAnLW1hJywgJzIwMCcsICctbWV0YWxfYmluZGluZycsICctaW1hZScsICc8aW5maWxlLm1hZT4nLCAnLW9tYWUnLCAnPG91dGZpbGUubWFlPic=

> <r_lp_tautomer_probability>
1

> <r_epik_Ionization_Penalty>
0.000825874

> <r_epik_Ionization_Penalty_Charging>
0

> <r_epik_Ionization_Penalty_Neutral>
0.000825874

> <r_epik_State_Penalty>
0.000396768

> <r_epik_Charging_Adjusted_Penalty>
0.000396768

> <i_epik_Tot_Q>
0

> <i_epik_Tot_abs_Q>
0

> <r_epik_Metal_State_Penalty>
-0

> <b_epik_Metal_Only>
0

> <s_lp_Force_Field>
OPLS_2005

> <r_lp_Energy>
34.7872

> <b_lp_Chiralities_Consistent>
1

> <s_lp_Variant>
AV-unprocessed.smi:271-1

> <Gold.Version>
5.8.1

> <Gold.Id.Protein>
6NUR|6NUR_protein|mol2

> <Gold.PLP.Fitness>
51.3123

> <Gold.PLP.PLP>
-46.1385

> <Gold.PLP.part.hbond>
-4.2056

> <Gold.PLP.part.metal>
0.0000

> <Gold.PLP.part.buried>
-5.6817

> <Gold.PLP.part.nonpolar>
-36.0588

> <Gold.PLP.part.repulsive>
0.6083

> <Gold.PLP.ligand.clash>
0.0000

> <Gold.PLP.ligand.torsion>
1.6530

> <Gold.PLP.Chemscore.Hbond>
1.9913

> <Gold.PLP.Chemscore.CHOScore>
0.6457

> <Gold.PLP.Chemscore.Metal>
0.0000

> <Gold.Chemscore.Hbonds>
donor molecule, donor type, donor heavy atom, donor atom, acceptor molecule, acceptor atom, score
      L1  H    23    51       P1  7957  0.55
      P1  H 11000 11005       L1    10  1.00
      L1  C    18    45       P1  7957  0.35

> <Gold.PLP.Chemscore.Internal.Correction>
0.5689

> <Gold.Rescore>
     Score         DG    S(hbond)    S(metal)    S(lipo)     H(rot)  DE(clash)    DE(int)     intcor
      9.51     -12.90       1.93        0.00      90.90       3.77       0.07       3.32       ----

> <Gold.Chemscore.Fitness>
9.5099

> <Gold.Chemscore.DG>
-12.9017

> <Gold.Chemscore.ZeroCoef>
-5.4800

> <Gold.Chemscore.Hbond>
1.9262

> <Gold.Chemscore.Metal>
0.0000

> <Gold.Chemscore.Lipo>
90.8984

> <Gold.Chemscore.Internal_Hbond>
0.0000

> <Gold.Chemscore.DEClash>
0.0684

> <Gold.Chemscore.DEInternal>
3.3234

> <Gold.Chemscore.Rot>
3.7683

> <Gold.Chemscore.Internal.Correction>
   9.000000E+99

> <Gold.Chemscore.Hbonds>
donor molecule, donor type, donor heavy atom, donor atom, acceptor molecule, acceptor atom, score
      L1  H    23    51       P1  7957  0.05
      P1  H 11000 11005       L1    10  0.73

> <Gold.Chemscore.Hbond.Weighted>
-6.4334

> <Gold.Chemscore.Metal.Weighted>
-0.0000

> <Gold.Chemscore.Lipo.Weighted>
-10.6351

> <Gold.Chemscore.Internal_Hbond.Weighted>
0.0000

> <Gold.Chemscore.DEClash.Weighted>
0.0684

> <Gold.Chemscore.DEInternal.Weighted>
3.3234

> <Gold.Chemscore.Rot.Weighted>
9.6468

> <Gold.Chemscore.Internal.Correction.Weighted>
   9.000000E+99

> <Gold.Protein.RotatedTorsions>
[ 6907 6896 6895 6894 ] final  -73.97 input  -60.11 | X-H torsion
[ 7974 7965 7964 7962 ] final  -69.74 input  175.53 | X-H torsion
[ 8008 7997 7996 7995 ] final  132.22 input   59.86 | X-H torsion
[ 10167 10162 10161 10158 ] final  -20.65 input  -65.29 | X-H torsion
[ 10718 10713 10712 10709 ] final -130.83 input   66.30 | X-H torsion
[ 10763 10752 10751 10750 ] final  120.62 input  -60.55 | X-H torsion
[ 11005 11000 10999 10996 ] final   37.33 input  -57.11 | X-H torsion

> <Gold.Protein.ActiveResidues>
 VAL166  LYS551  ARG553  GLY616  TRP617  ASP618  TYR619  PRO620  LYS621  CYS622 
 ASP623  PHE694  ASN695  SER759  ASP760  ASP761  ALA762  ILE779  LEU786  VAL792 
 PHE793  MET794  SER795  GLU796  ALA797  LYS798  CYS799  TRP800  GLU811  SER814 

> <Gold.Protein.RotatedAtoms>
  150.7110  134.4938  159.5528 H   0  0  0  0  0  0  0  0  0  0  0  0  # atno 6907 bound_to 6896
  152.2550  134.8091  160.0449 H   0  0  0  0  0  0  0  0  0  0  0  0  # atno 6908 bound_to 6896
  151.8825  133.3463  159.3808 H   0  0  0  0  0  0  0  0  0  0  0  0  # atno 6909 bound_to 6896
  145.6999  140.9121  143.0737 H   0  0  0  0  0  0  0  0  0  0  0  0  # atno 7974 bound_to 7965
  156.2980  140.2552  156.3054 H   0  0  0  0  0  0  0  0  0  0  0  0  # atno 8008 bound_to 7997
  154.9377  140.0397  157.2099 H   0  0  0  0  0  0  0  0  0  0  0  0  # atno 8009 bound_to 7997
  154.8157  140.2851  155.5826 H   0  0  0  0  0  0  0  0  0  0  0  0  # atno 8010 bound_to 7997
  140.7277  143.4702  151.0257 H   0  0  0  0  0  0  0  0  0  0  0  0  # atno 10167 bound_to 10162
  156.2183  130.6962  151.0727 H   0  0  0  0  0  0  0  0  0  0  0  0  # atno 10718 bound_to 10713
  153.6013  135.3447  155.2946 H   0  0  0  0  0  0  0  0  0  0  0  0  # atno 10763 bound_to 10752
  154.8635  135.4228  154.2409 H   0  0  0  0  0  0  0  0  0  0  0  0  # atno 10764 bound_to 10752
  153.3239  135.7040  153.7078 H   0  0  0  0  0  0  0  0  0  0  0  0  # atno 10765 bound_to 10752
  140.2237  134.3611  155.7994 H   0  0  0  0  0  0  0  0  0  0  0  0  # atno 11005 bound_to 11000
  144.6972  139.8933  143.7454 LP  0  0  0  0  0  0  0  0  0  0  0  0  # atno 17320 bound_to 7965
  146.0807  139.3795  143.0466 LP  0  0  0  0  0  0  0  0  0  0  0  0  # atno 17321 bound_to 7965
  139.8394  143.7585  152.3180 LP  0  0  0  0  0  0  0  0  0  0  0  0  # atno 17342 bound_to 10162
  139.7728  144.7471  151.0200 LP  0  0  0  0  0  0  0  0  0  0  0  0  # atno 17343 bound_to 10162
  157.7074  131.0750  150.6618 LP  0  0  0  0  0  0  0  0  0  0  0  0  # atno 17370 bound_to 10713
  156.6680  130.4531  149.5666 LP  0  0  0  0  0  0  0  0  0  0  0  0  # atno 17371 bound_to 10713
  141.2222  133.7207  156.8617 LP  0  0  0  0  0  0  0  0  0  0  0  0  # atno 17394 bound_to 11000
  140.1823  134.9024  157.2963 LP  0  0  0  0  0  0  0  0  0  0  0  0  # atno 17395 bound_to 11000

$$$$
