AV-unprocessed.smi:1550|AV-procd|sdf|6224|dock2
  -GOLD-   22720 6393D 1   1.00000     0.00000
 Structure written by MMmdl.
 43 44  0  0  0  0  0  0  0  0  1 V2000
  152.3294  139.4467  155.0535 C   0  0  0  0  0  0  0  0  0  0  0  0
  151.0167  138.9215  155.6538 C   0  0  2  0  0  0  0  0  0  0  0  0
  151.0022  139.2831  157.0320 O   0  0  0  0  0  0  0  0  0  0  0  0
  150.4091  140.5427  157.3282 C   0  0  0  0  0  0  0  0  0  0  0  0
  151.5128  141.5316  157.7230 C   0  0  2  0  0  0  0  0  0  0  0  0
  152.0735  141.2506  159.1315 C   0  0  0  0  0  0  0  0  0  0  0  0
  153.1058  142.3138  159.5225 C   0  0  0  0  0  0  0  0  0  0  0  0
  152.4988  143.7104  159.3510 C   0  0  0  0  0  0  0  0  0  0  0  0
  151.9171  143.8706  157.9375 C   0  0  0  0  0  0  0  0  0  0  0  0
  150.9603  142.8457  157.6858 O   0  0  0  0  0  0  0  0  0  0  0  0
  150.8997  137.3956  155.5027 C   0  0  0  0  0  0  0  0  0  0  0  0
  151.8461  136.7614  155.0379 O   0  0  0  0  0  0  0  0  0  0  0  0
  149.7398  136.8624  155.9361 N   0  0  0  0  0  0  0  0  0  0  0  0
  149.3143  135.5229  155.9657 C   0  0  0  0  0  0  0  0  0  0  0  0
  149.1686  134.7196  154.8789 C   0  0  0  0  0  0  0  0  0  0  0  0
  148.7231  133.3405  154.9922 C   0  0  0  0  0  0  0  0  0  0  0  0
  148.5093  132.4694  153.7637 C   0  0  0  0  0  0  0  0  0  0  0  0
  147.2363  132.0858  153.6565 F   0  0  0  0  0  0  0  0  0  0  0  0
  148.8446  133.1218  152.6504 F   0  0  0  0  0  0  0  0  0  0  0  0
  149.2663  131.3763  153.8473 F   0  0  0  0  0  0  0  0  0  0  0  0
  148.4338  132.9028  156.2315 C   0  0  0  0  0  0  0  0  0  0  0  0
  148.5839  133.7199  157.3537 N   0  0  0  0  0  0  0  0  0  0  0  0
  149.0045  135.0036  157.3085 C   0  0  0  0  0  0  0  0  0  0  0  0
  149.1075  135.6592  158.3448 O   0  0  0  0  0  0  0  0  0  0  0  0
  148.3572  133.3147  158.2503 H   0  0  0  0  0  0  0  0  0  0  0  0
  152.4101  139.1960  153.9951 H   0  0  0  0  0  0  0  0  0  0  0  0
  153.1998  139.0327  155.5641 H   0  0  0  0  0  0  0  0  0  0  0  0
  152.3853  140.5321  155.1390 H   0  0  0  0  0  0  0  0  0  0  0  0
  150.1865  139.4129  155.1424 H   0  0  0  0  0  0  0  0  0  0  0  0
  149.8875  140.9089  156.4428 H   0  0  0  0  0  0  0  0  0  0  0  0
  149.6739  140.4682  158.1303 H   0  0  0  0  0  0  0  0  0  0  0  0
  152.3151  141.4710  156.9853 H   0  0  0  0  0  0  0  0  0  0  0  0
  151.2600  141.2482  159.8582 H   0  0  0  0  0  0  0  0  0  0  0  0
  152.5279  140.2600  159.1692 H   0  0  0  0  0  0  0  0  0  0  0  0
  153.4348  142.1648  160.5512 H   0  0  0  0  0  0  0  0  0  0  0  0
  153.9900  142.2166  158.8912 H   0  0  0  0  0  0  0  0  0  0  0  0
  151.7090  143.8598  160.0883 H   0  0  0  0  0  0  0  0  0  0  0  0
  153.2522  144.4756  159.5394 H   0  0  0  0  0  0  0  0  0  0  0  0
  151.4278  144.8400  157.8423 H   0  0  0  0  0  0  0  0  0  0  0  0
  152.7069  143.8386  157.1854 H   0  0  0  0  0  0  0  0  0  0  0  0
  149.0772  137.5153  156.3296 H   0  0  0  0  0  0  0  0  0  0  0  0
  149.3753  135.0788  153.8849 H   0  0  0  0  0  0  0  0  0  0  0  0
  148.0678  131.9120  156.4572 H   0  0  0  0  0  0  0  0  0  0  0  0
  1  2  1  0  0  0  0
  1 26  1  0  0  0  0
  1 27  1  0  0  0  0
  1 28  1  0  0  0  0
  2  3  1  0  0  0  0
  2 11  1  0  0  0  0
  2 29  1  0  0  0  0
  3  4  1  0  0  0  0
  4  5  1  0  0  0  0
  4 30  1  0  0  0  0
  4 31  1  0  0  0  0
  5 10  1  0  0  0  0
  5  6  1  0  0  0  0
  5 32  1  0  0  0  0
  6  7  1  0  0  0  0
  6 33  1  0  0  0  0
  6 34  1  0  0  0  0
  7  8  1  0  0  0  0
  7 35  1  0  0  0  0
  7 36  1  0  0  0  0
  8  9  1  0  0  0  0
  8 37  1  0  0  0  0
  8 38  1  0  0  0  0
  9 10  1  0  0  0  0
  9 39  1  0  0  0  0
  9 40  1  0  0  0  0
 11 12  2  0  0  0  0
 11 13  1  0  0  0  0
 13 14  1  0  0  0  0
 13 41  1  0  0  0  0
 14 23  1  0  0  0  0
 14 15  2  0  0  0  0
 15 16  1  0  0  0  0
 15 42  1  0  0  0  0
 16 17  1  0  0  0  0
 16 21  2  0  0  0  0
 17 18  1  0  0  0  0
 17 19  1  0  0  0  0
 17 20  1  0  0  0  0
 21 22  1  0  0  0  0
 21 43  1  0  0  0  0
 22 25  1  0  0  0  0
 22 23  1  0  0  0  0
 23 24  2  0  0  0  0
M  END
> <s_m_source_file>
AV-unprocessed.smi

> <i_m_source_file_index>
1550

> <i_lp_mmshare_version>
43012

> <i_f3d_flags>
0

> <s_epik_input>
TzFbQ0gyXVtDSDJdW0NIMl1bQ0gyXVtDQEhdMVtDSDJdT1tDQEBIXShbQ0gzXSlDKD1PKVtOSF1jMltjSF1jKEMoRikoRilGKVtjSF1bbkhdYzI9Tw==

> <s_epik_cmdline>
J2VwaWtfcHl0aG9uJywgJy1waCcsICc3LjAnLCAnLXRuJywgJzgnLCAnLW1hJywgJzIwMCcsICctbWV0YWxfYmluZGluZycsICctaW1hZScsICc8aW5maWxlLm1hZT4nLCAnLW9tYWUnLCAnPG91dGZpbGUubWFlPic=

> <r_lp_tautomer_probability>
0.999

> <r_epik_Ionization_Penalty>
0.00891333

> <r_epik_Ionization_Penalty_Charging>
0.00891323

> <r_epik_Ionization_Penalty_Neutral>
1.00146e-07

> <r_epik_State_Penalty>
0.00674197

> <r_epik_Charging_Adjusted_Penalty>
0.0156552

> <i_epik_Tot_Q>
0

> <i_epik_Tot_abs_Q>
0

> <r_epik_Metal_State_Penalty>
0.321024

> <b_epik_Metal_Only>
0

> <s_lp_Force_Field>
OPLS_2005

> <r_lp_Energy>
25.3727

> <b_lp_Chiralities_Consistent>
1

> <s_lp_Variant>
AV-unprocessed.smi:1550-1

> <Gold.Version>
5.8.1

> <Gold.Id.Protein>
6NUR|6NUR_protein|mol2

> <Gold.PLP.Fitness>
41.6383

> <Gold.PLP.PLP>
-38.4184

> <Gold.PLP.part.hbond>
-2.0000

> <Gold.PLP.part.metal>
0.0000

> <Gold.PLP.part.buried>
-4.2357

> <Gold.PLP.part.nonpolar>
-33.0454

> <Gold.PLP.part.repulsive>
0.3113

> <Gold.PLP.ligand.clash>
0.0000

> <Gold.PLP.ligand.torsion>
1.4652

> <Gold.PLP.Chemscore.Hbond>
2.0000

> <Gold.PLP.Chemscore.CHOScore>
0.0000

> <Gold.PLP.Chemscore.Metal>
0.0000

> <Gold.Chemscore.Hbonds>
donor molecule, donor type, donor heavy atom, donor atom, acceptor molecule, acceptor atom, score
      P1  H  6896  6908       L1    24  0.37
      P1  H 10752 10763       L1    12  1.00

> <Gold.PLP.Chemscore.Internal.Correction>
0.1502

> <Gold.Rescore>
     Score         DG    S(hbond)    S(metal)    S(lipo)     H(rot)  DE(clash)    DE(int)     intcor
     15.93     -17.44       1.87        0.00      89.51       1.86       0.07       1.44       ----

> <Gold.Chemscore.Fitness>
15.9295

> <Gold.Chemscore.DG>
-17.4383

> <Gold.Chemscore.ZeroCoef>
-5.4800

> <Gold.Chemscore.Hbond>
1.8681

> <Gold.Chemscore.Metal>
0.0000

> <Gold.Chemscore.Lipo>
89.5112

> <Gold.Chemscore.Internal_Hbond>
0.0000

> <Gold.Chemscore.DEClash>
0.0699

> <Gold.Chemscore.DEInternal>
1.4389

> <Gold.Chemscore.Rot>
1.8571

> <Gold.Chemscore.Internal.Correction>
   9.000000E+99

> <Gold.Chemscore.Hbonds>
donor molecule, donor type, donor heavy atom, donor atom, acceptor molecule, acceptor atom, score
      P1  H  6896  6908       L1    24  0.26
      P1  H 10752 10763       L1    12  0.95

> <Gold.Chemscore.Hbond.Weighted>
-6.2396

> <Gold.Chemscore.Metal.Weighted>
-0.0000

> <Gold.Chemscore.Lipo.Weighted>
-10.4728

> <Gold.Chemscore.Internal_Hbond.Weighted>
0.0000

> <Gold.Chemscore.DEClash.Weighted>
0.0699

> <Gold.Chemscore.DEInternal.Weighted>
1.4389

> <Gold.Chemscore.Rot.Weighted>
4.7541

> <Gold.Chemscore.Internal.Correction.Weighted>
   9.000000E+99

> <Gold.Protein.RotatedTorsions>
[ 6907 6896 6895 6894 ] final -177.25 input  -60.11 | X-H torsion
[ 7974 7965 7964 7962 ] final -177.99 input  175.53 | X-H torsion
[ 8008 7997 7996 7995 ] final -167.11 input   59.86 | X-H torsion
[ 10167 10162 10161 10158 ] final -149.77 input  -65.29 | X-H torsion
[ 10718 10713 10712 10709 ] final  -21.57 input   66.30 | X-H torsion
[ 10763 10752 10751 10750 ] final   73.17 input  -60.55 | X-H torsion
[ 11005 11000 10999 10996 ] final  -60.87 input  -57.11 | X-H torsion

> <Gold.Protein.ActiveResidues>
 VAL166  LYS551  ARG553  GLY616  TRP617  ASP618  TYR619  PRO620  LYS621  CYS622 
 ASP623  PHE694  ASN695  SER759  ASP760  ASP761  ALA762  ILE779  LEU786  VAL792 
 PHE793  MET794  SER795  GLU796  ALA797  LYS798  CYS799  TRP800  GLU811  SER814 

> <Gold.Protein.RotatedAtoms>
  151.6179  133.3341  159.3081 H   0  0  0  0  0  0  0  0  0  0  0  0  # atno 6907 bound_to 6896
  150.8121  134.7286  159.6709 H   0  0  0  0  0  0  0  0  0  0  0  0  # atno 6908 bound_to 6896
  152.4218  134.5947  160.0035 H   0  0  0  0  0  0  0  0  0  0  0  0  # atno 6909 bound_to 6896
  144.7129  140.0935  143.6420 H   0  0  0  0  0  0  0  0  0  0  0  0  # atno 7974 bound_to 7965
  155.8732  140.0997  157.1536 H   0  0  0  0  0  0  0  0  0  0  0  0  # atno 8008 bound_to 7997
  154.3999  140.1343  156.4167 H   0  0  0  0  0  0  0  0  0  0  0  0  # atno 8009 bound_to 7997
  155.7727  140.3460  155.5258 H   0  0  0  0  0  0  0  0  0  0  0  0  # atno 8010 bound_to 7997
  139.7413  143.8658  152.2563 H   0  0  0  0  0  0  0  0  0  0  0  0  # atno 10167 bound_to 10162
  156.5163  130.4622  149.6621 H   0  0  0  0  0  0  0  0  0  0  0  0  # atno 10718 bound_to 10713
  153.0504  135.5073  154.7853 H   0  0  0  0  0  0  0  0  0  0  0  0  # atno 10763 bound_to 10752
  154.6719  135.2954  154.9732 H   0  0  0  0  0  0  0  0  0  0  0  0  # atno 10764 bound_to 10752
  154.0547  135.6699  153.4857 H   0  0  0  0  0  0  0  0  0  0  0  0  # atno 10765 bound_to 10752
  141.1303  133.6625  156.5289 H   0  0  0  0  0  0  0  0  0  0  0  0  # atno 11005 bound_to 11000
  145.9599  139.2793  143.1161 LP  0  0  0  0  0  0  0  0  0  0  0  0  # atno 17320 bound_to 7965
  145.9232  140.9101  143.0394 LP  0  0  0  0  0  0  0  0  0  0  0  0  # atno 17321 bound_to 7965
  139.8609  144.7117  150.9101 LP  0  0  0  0  0  0  0  0  0  0  0  0  # atno 17342 bound_to 10162
  140.7786  143.3818  151.1463 LP  0  0  0  0  0  0  0  0  0  0  0  0  # atno 17343 bound_to 10162
  156.3192  130.7271  151.2179 LP  0  0  0  0  0  0  0  0  0  0  0  0  # atno 17370 bound_to 10713
  157.7443  131.0460  150.4873 LP  0  0  0  0  0  0  0  0  0  0  0  0  # atno 17371 bound_to 10713
  140.4232  134.7169  157.4901 LP  0  0  0  0  0  0  0  0  0  0  0  0  # atno 17394 bound_to 11000
  140.0345  134.6357  155.9061 LP  0  0  0  0  0  0  0  0  0  0  0  0  # atno 17395 bound_to 11000

$$$$
