AV-unprocessed.smi:2746|AV-procd|sdf|10571|dock5
  -GOLD-   2272015 23D 1   1.00000     0.00000
 Structure written by MMmdl.
 38 39  0  0  0  0  0  0  0  0  1 V2000
  153.9798  141.0930  160.7593 C   0  0  0  0  0  0  0  0  0  0  0  0
  152.8515  141.6876  160.3345 C   0  0  0  0  0  0  0  0  0  0  0  0
  152.7143  142.6547  159.1658 C   0  0  2  0  0  0  0  0  0  0  0  0
  152.2859  144.0460  159.6509 C   0  0  0  0  0  0  0  0  0  0  0  0
  151.7693  142.1776  158.1561 N   0  0  0  0  0  0  0  0  0  0  0  0
  151.8258  141.0042  157.5020 C   0  0  0  0  0  0  0  0  0  0  0  0
  152.7281  140.1808  157.6609 O   0  0  0  0  0  0  0  0  0  0  0  0
  150.7168  140.7542  156.5144 C   0  0  0  0  0  0  0  0  0  0  0  0
  149.4574  141.3720  156.6978 C   0  0  0  0  0  0  0  0  0  0  0  0
  148.4351  141.1461  155.7544 C   0  0  0  0  0  0  0  0  0  0  0  0
  147.1859  141.7565  155.9323 N   0  0  0  0  0  0  0  0  0  0  0  0
  146.4618  141.2576  157.0942 C   0  0  0  0  0  0  0  0  0  0  0  0
  145.1661  142.0639  157.2922 C   0  0  0  0  0  0  0  0  0  0  0  0
  144.3847  142.0136  156.1016 O   0  0  0  0  0  0  0  0  0  0  0  0
  145.0737  142.5710  154.9855 C   0  0  0  0  0  0  0  0  0  0  0  0
  146.3647  141.7744  154.7282 C   0  0  0  0  0  0  0  0  0  0  0  0
  148.7099  140.3037  154.6553 C   0  0  0  0  0  0  0  0  0  0  0  0
  149.9925  139.7336  154.5524 C   0  0  0  0  0  0  0  0  0  0  0  0
  150.9743  139.9513  155.4522 N   0  0  0  0  0  0  0  0  0  0  0  0
  154.9340  141.2602  160.2818 H   0  0  0  0  0  0  0  0  0  0  0  0
  153.9602  140.4212  161.6047 H   0  0  0  0  0  0  0  0  0  0  0  0
  151.9343  141.4730  160.8635 H   0  0  0  0  0  0  0  0  0  0  0  0
  153.7107  142.7480  158.7314 H   0  0  0  0  0  0  0  0  0  0  0  0
  152.9957  144.4450  160.3763 H   0  0  0  0  0  0  0  0  0  0  0  0
  151.3052  144.0159  160.1272 H   0  0  0  0  0  0  0  0  0  0  0  0
  152.2324  144.7525  158.8219 H   0  0  0  0  0  0  0  0  0  0  0  0
  150.9907  142.7845  157.9426 H   0  0  0  0  0  0  0  0  0  0  0  0
  149.2725  142.0131  157.5480 H   0  0  0  0  0  0  0  0  0  0  0  0
  146.2228  140.2024  156.9547 H   0  0  0  0  0  0  0  0  0  0  0  0
  147.0896  141.3324  157.9830 H   0  0  0  0  0  0  0  0  0  0  0  0
  144.5862  141.6481  158.1163 H   0  0  0  0  0  0  0  0  0  0  0  0
  145.3883  143.1009  157.5496 H   0  0  0  0  0  0  0  0  0  0  0  0
  144.4253  142.5307  154.1102 H   0  0  0  0  0  0  0  0  0  0  0  0
  145.2956  143.6234  155.1705 H   0  0  0  0  0  0  0  0  0  0  0  0
  146.9238  142.2208  153.9049 H   0  0  0  0  0  0  0  0  0  0  0  0
  146.1136  140.7544  154.4341 H   0  0  0  0  0  0  0  0  0  0  0  0
  147.9600  140.0955  153.9064 H   0  0  0  0  0  0  0  0  0  0  0  0
  150.2374  139.0856  153.7241 H   0  0  0  0  0  0  0  0  0  0  0  0
  1  2  2  0  0  0  0
  1 20  1  0  0  0  0
  1 21  1  0  0  0  0
  2  3  1  0  0  0  0
  2 22  1  0  0  0  0
  3  4  1  0  0  0  0
  3  5  1  0  0  0  0
  3 23  1  0  0  0  0
  4 24  1  0  0  0  0
  4 25  1  0  0  0  0
  4 26  1  0  0  0  0
  5  6  1  0  0  0  0
  5 27  1  0  0  0  0
  6  7  2  0  0  0  0
  6  8  1  0  0  0  0
  8 19  1  0  0  0  0
  8  9  2  0  0  0  0
  9 10  1  0  0  0  0
  9 28  1  0  0  0  0
 10 11  1  0  0  0  0
 10 17  2  0  0  0  0
 11 16  1  0  0  0  0
 11 12  1  0  0  0  0
 12 13  1  0  0  0  0
 12 29  1  0  0  0  0
 12 30  1  0  0  0  0
 13 14  1  0  0  0  0
 13 31  1  0  0  0  0
 13 32  1  0  0  0  0
 14 15  1  0  0  0  0
 15 16  1  0  0  0  0
 15 33  1  0  0  0  0
 15 34  1  0  0  0  0
 16 35  1  0  0  0  0
 16 36  1  0  0  0  0
 17 18  1  0  0  0  0
 17 37  1  0  0  0  0
 18 19  2  0  0  0  0
 18 38  1  0  0  0  0
M  END
> <s_m_source_file>
AV-unprocessed.smi

> <i_m_source_file_index>
2746

> <i_lp_mmshare_version>
43012

> <i_f3d_flags>
0

> <s_epik_input>
W0NIMl09W0NIXVtDQEhdKFtDSDNdKVtOSF1DKD1PKWMxW2NIXWMoW2NIXVtjSF1uMSlOMltDSDJdW0NIMl1PW0NIMl1bQ0gyXTI=

> <s_epik_cmdline>
J2VwaWtfcHl0aG9uJywgJy1waCcsICc3LjAnLCAnLXRuJywgJzgnLCAnLW1hJywgJzIwMCcsICctbWV0YWxfYmluZGluZycsICctaW1hZScsICc8aW5maWxlLm1hZT4nLCAnLW9tYWUnLCAnPG91dGZpbGUubWFlPic=

> <r_lp_tautomer_probability>
1

> <r_epik_Ionization_Penalty>
0.373275

> <r_epik_Ionization_Penalty_Charging>
0

> <r_epik_Ionization_Penalty_Neutral>
0.373275

> <r_epik_State_Penalty>
0.370855

> <r_epik_Charging_Adjusted_Penalty>
0.370855

> <i_epik_Tot_Q>
0

> <i_epik_Tot_abs_Q>
0

> <r_epik_Metal_State_Penalty>
0.225885

> <b_epik_Metal_Only>
0

> <s_lp_Force_Field>
OPLS_2005

> <r_lp_Energy>
24.2376

> <b_lp_Chiralities_Consistent>
1

> <s_lp_Variant>
AV-unprocessed.smi:2746-1

> <Gold.Version>
5.8.1

> <Gold.Id.Protein>
6NUR|6NUR_protein|mol2

> <Gold.PLP.Fitness>
40.4345

> <Gold.PLP.PLP>
-37.6190

> <Gold.PLP.part.hbond>
-1.8581

> <Gold.PLP.part.metal>
0.0000

> <Gold.PLP.part.buried>
-2.6985

> <Gold.PLP.part.nonpolar>
-34.0770

> <Gold.PLP.part.repulsive>
1.4631

> <Gold.PLP.ligand.clash>
0.0000

> <Gold.PLP.ligand.torsion>
0.6020

> <Gold.PLP.Chemscore.Hbond>
1.0000

> <Gold.PLP.Chemscore.CHOScore>
0.2987

> <Gold.PLP.Chemscore.Metal>
0.0000

> <Gold.Chemscore.Hbonds>
donor molecule, donor type, donor heavy atom, donor atom, acceptor molecule, acceptor atom, score
      P1  H  7997  8010       L1     7  1.00
      L1  C    18    38       P1  7957  0.25

> <Gold.PLP.Chemscore.Internal.Correction>
0.1235

> <Gold.Rescore>
     Score         DG    S(hbond)    S(metal)    S(lipo)     H(rot)  DE(clash)    DE(int)     intcor
     15.58     -16.10       0.96        0.00      91.41       1.27       0.21       0.32       ----

> <Gold.Chemscore.Fitness>
15.5793

> <Gold.Chemscore.DG>
-16.1032

> <Gold.Chemscore.ZeroCoef>
-5.4800

> <Gold.Chemscore.Hbond>
0.9553

> <Gold.Chemscore.Metal>
0.0000

> <Gold.Chemscore.Lipo>
91.4053

> <Gold.Chemscore.Internal_Hbond>
0.0000

> <Gold.Chemscore.DEClash>
0.2085

> <Gold.Chemscore.DEInternal>
0.3154

> <Gold.Chemscore.Rot>
1.2742

> <Gold.Chemscore.Internal.Correction>
   9.000000E+99

> <Gold.Chemscore.Hbonds>
donor molecule, donor type, donor heavy atom, donor atom, acceptor molecule, acceptor atom, score
      P1  H  7997  8010       L1     7  0.95

> <Gold.Chemscore.Hbond.Weighted>
-3.1907

> <Gold.Chemscore.Metal.Weighted>
-0.0000

> <Gold.Chemscore.Lipo.Weighted>
-10.6944

> <Gold.Chemscore.Internal_Hbond.Weighted>
0.0000

> <Gold.Chemscore.DEClash.Weighted>
0.2085

> <Gold.Chemscore.DEInternal.Weighted>
0.3154

> <Gold.Chemscore.Rot.Weighted>
3.2619

> <Gold.Chemscore.Internal.Correction.Weighted>
   9.000000E+99

> <Gold.Protein.RotatedTorsions>
[ 6907 6896 6895 6894 ] final    3.13 input  -60.11 | X-H torsion
[ 7974 7965 7964 7962 ] final   75.33 input  175.53 | X-H torsion
[ 8008 7997 7996 7995 ] final   52.29 input   59.86 | X-H torsion
[ 10167 10162 10161 10158 ] final -126.50 input  -65.29 | X-H torsion
[ 10718 10713 10712 10709 ] final   58.09 input   66.30 | X-H torsion
[ 10763 10752 10751 10750 ] final   55.29 input  -60.55 | X-H torsion
[ 11005 11000 10999 10996 ] final -130.11 input  -57.11 | X-H torsion

> <Gold.Protein.ActiveResidues>
 VAL166  LYS551  ARG553  GLY616  TRP617  ASP618  TYR619  PRO620  LYS621  CYS622 
 ASP623  PHE694  ASN695  SER759  ASP760  ASP761  ALA762  ILE779  LEU786  VAL792 
 PHE793  MET794  SER795  GLU796  ALA797  LYS798  CYS799  TRP800  GLU811  SER814 

> <Gold.Protein.RotatedAtoms>
  151.6201  135.1033  160.0099 H   0  0  0  0  0  0  0  0  0  0  0  0  # atno 6907 bound_to 6896
  152.4162  133.7038  159.6450 H   0  0  0  0  0  0  0  0  0  0  0  0  # atno 6908 bound_to 6896
  150.8051  133.8452  159.3231 H   0  0  0  0  0  0  0  0  0  0  0  0  # atno 6909 bound_to 6896
  145.7169  139.2634  143.1618 H   0  0  0  0  0  0  0  0  0  0  0  0  # atno 7974 bound_to 7965
  155.4494  140.3457  155.4299 H   0  0  0  0  0  0  0  0  0  0  0  0  # atno 8008 bound_to 7997
  156.1230  140.1492  156.9207 H   0  0  0  0  0  0  0  0  0  0  0  0  # atno 8009 bound_to 7997
  154.4837  140.0862  156.7416 H   0  0  0  0  0  0  0  0  0  0  0  0  # atno 8010 bound_to 7997
  139.9708  143.5847  152.2413 H   0  0  0  0  0  0  0  0  0  0  0  0  # atno 10167 bound_to 10162
  157.5568  130.8806  149.9048 H   0  0  0  0  0  0  0  0  0  0  0  0  # atno 10718 bound_to 10713
  152.9815  135.5715  154.5043 H   0  0  0  0  0  0  0  0  0  0  0  0  # atno 10763 bound_to 10752
  154.4557  135.2780  155.1751 H   0  0  0  0  0  0  0  0  0  0  0  0  # atno 10764 bound_to 10752
  154.3360  135.6239  153.5627 H   0  0  0  0  0  0  0  0  0  0  0  0  # atno 10765 bound_to 10752
  140.9374  134.1239  157.4182 H   0  0  0  0  0  0  0  0  0  0  0  0  # atno 11005 bound_to 11000
  146.0661  140.7919  142.9711 LP  0  0  0  0  0  0  0  0  0  0  0  0  # atno 17320 bound_to 7965
  144.6927  140.3271  143.7222 LP  0  0  0  0  0  0  0  0  0  0  0  0  # atno 17321 bound_to 7965
  139.6482  144.7659  151.2200 LP  0  0  0  0  0  0  0  0  0  0  0  0  # atno 17342 bound_to 10162
  140.7522  143.6203  150.8519 LP  0  0  0  0  0  0  0  0  0  0  0  0  # atno 17343 bound_to 10162
  156.0626  130.3697  150.0949 LP  0  0  0  0  0  0  0  0  0  0  0  0  # atno 17370 bound_to 10713
  156.9116  130.9654  151.3562 LP  0  0  0  0  0  0  0  0  0  0  0  0  # atno 17371 bound_to 10713
  139.8811  135.0025  156.6131 LP  0  0  0  0  0  0  0  0  0  0  0  0  # atno 17394 bound_to 11000
  140.7781  133.8683  155.8545 LP  0  0  0  0  0  0  0  0  0  0  0  0  # atno 17395 bound_to 11000

$$$$
