AV-unprocessed.smi:565|AV-procd|sdf|2952|dock5
  -GOLD-   2262023453D 1   1.00000     0.00000
 Structure written by MMmdl.
 50 51  0  0  0  0  0  0  0  0  2 V2000
  152.1576  145.1312  158.1641 C   0  0  0  0  0  0  0  0  0  0  0  0
  152.3471  143.7569  158.7402 C   0  0  0  0  0  0  0  0  0  0  0  0
  153.1711  143.5937  159.7613 N   0  0  0  0  0  0  0  0  0  0  0  0
  153.1286  142.2736  160.0311 N   0  0  0  0  0  0  0  0  0  0  0  0
  153.9283  141.7441  161.1188 C   0  0  0  0  0  0  0  0  0  0  0  0
  152.2818  141.5995  159.1729 C   0  0  0  0  0  0  0  0  0  0  0  0
  152.0707  140.1220  159.2589 C   0  0  0  0  0  0  0  0  0  0  0  0
  151.7504  142.5307  158.3208 C   0  0  0  0  0  0  0  0  0  0  0  0
  150.7720  142.3226  157.1927 C   0  0  0  0  0  0  0  0  0  0  0  0
  149.4274  141.8801  157.7675 C   0  0  0  0  0  0  0  0  0  0  0  0
  149.3774  140.9580  158.5817 O   0  0  0  0  0  0  0  0  0  0  0  0
  148.3416  142.5276  157.3176 N   0  0  0  0  0  0  0  0  0  0  0  0
  146.9685  142.2071  157.6848 C   0  0  0  0  0  0  0  0  0  0  0  0
  145.9650  142.9761  156.8036 C   0  0  0  0  0  0  0  0  0  0  0  0
  145.5024  144.2370  157.4354 N   0  3  2  0  0  0  0  0  0  0  0  0
  145.4146  144.1236  158.9143 C   0  0  0  0  0  0  0  0  0  0  0  0
  145.0948  145.4827  159.5566 C   0  0  0  0  0  0  0  0  0  0  0  0
  143.8070  146.0799  158.9717 C   0  0  0  0  0  0  0  0  0  0  0  0
  143.8668  146.1403  157.4343 C   0  0  1  0  0  0  0  0  0  0  0  0
  144.7922  147.2555  156.9160 C   0  0  0  0  0  0  0  0  0  0  0  0
  144.2366  144.7601  156.8526 C   0  0  0  0  0  0  0  0  0  0  0  0
  151.1227  145.2929  157.8630 H   0  0  0  0  0  0  0  0  0  0  0  0
  152.7857  145.2719  157.2844 H   0  0  0  0  0  0  0  0  0  0  0  0
  152.4149  145.9088  158.8844 H   0  0  0  0  0  0  0  0  0  0  0  0
  153.2885  141.1968  161.8115 H   0  0  0  0  0  0  0  0  0  0  0  0
  154.4248  142.5501  161.6608 H   0  0  0  0  0  0  0  0  0  0  0  0
  154.6846  141.0673  160.7213 H   0  0  0  0  0  0  0  0  0  0  0  0
  151.5677  139.7417  158.3699 H   0  0  0  0  0  0  0  0  0  0  0  0
  151.4596  139.8695  160.1256 H   0  0  0  0  0  0  0  0  0  0  0  0
  153.0214  139.5959  159.3491 H   0  0  0  0  0  0  0  0  0  0  0  0
  150.6238  143.2352  156.6148 H   0  0  0  0  0  0  0  0  0  0  0  0
  151.1335  141.5769  156.4838 H   0  0  0  0  0  0  0  0  0  0  0  0
  148.4771  143.2754  156.6523 H   0  0  0  0  0  0  0  0  0  0  0  0
  146.8006  141.1313  157.6099 H   0  0  0  0  0  0  0  0  0  0  0  0
  146.8474  142.4682  158.7352 H   0  0  0  0  0  0  0  0  0  0  0  0
  146.3922  143.1874  155.8218 H   0  0  0  0  0  0  0  0  0  0  0  0
  145.1015  142.3325  156.6293 H   0  0  0  0  0  0  0  0  0  0  0  0
  144.6511  143.3902  159.1792 H   0  0  0  0  0  0  0  0  0  0  0  0
  146.3599  143.7561  159.3154 H   0  0  0  0  0  0  0  0  0  0  0  0
  144.9922  145.3675  160.6360 H   0  0  0  0  0  0  0  0  0  0  0  0
  145.9284  146.1684  159.4019 H   0  0  0  0  0  0  0  0  0  0  0  0
  142.9601  145.4622  159.2736 H   0  0  0  0  0  0  0  0  0  0  0  0
  143.6250  147.0711  159.3887 H   0  0  0  0  0  0  0  0  0  0  0  0
  142.8644  146.3858  157.0807 H   0  0  0  0  0  0  0  0  0  0  0  0
  145.8316  147.0878  157.1985 H   0  0  0  0  0  0  0  0  0  0  0  0
  144.4942  148.2272  157.3110 H   0  0  0  0  0  0  0  0  0  0  0  0
  144.7546  147.3203  155.8282 H   0  0  0  0  0  0  0  0  0  0  0  0
  144.3136  144.8401  155.7690 H   0  0  0  0  0  0  0  0  0  0  0  0
  143.4334  144.0488  157.0522 H   0  0  0  0  0  0  0  0  0  0  0  0
  146.2182  144.9255  157.2507 H   0  0  0  0  0  0  0  0  0  0  0  0
  1  2  1  0  0  0  0
  1 22  1  0  0  0  0
  1 23  1  0  0  0  0
  1 24  1  0  0  0  0
  2  8  1  0  0  0  0
  2  3  2  0  0  0  0
  3  4  1  0  0  0  0
  4  5  1  0  0  0  0
  4  6  1  0  0  0  0
  5 25  1  0  0  0  0
  5 26  1  0  0  0  0
  5 27  1  0  0  0  0
  6  7  1  0  0  0  0
  6  8  2  0  0  0  0
  7 28  1  0  0  0  0
  7 29  1  0  0  0  0
  7 30  1  0  0  0  0
  8  9  1  0  0  0  0
  9 10  1  0  0  0  0
  9 31  1  0  0  0  0
  9 32  1  0  0  0  0
 10 11  2  0  0  0  0
 10 12  1  0  0  0  0
 12 13  1  0  0  0  0
 12 33  1  0  0  0  0
 13 14  1  0  0  0  0
 13 34  1  0  0  0  0
 13 35  1  0  0  0  0
 14 15  1  0  0  0  0
 14 36  1  0  0  0  0
 14 37  1  0  0  0  0
 15 21  1  0  0  0  0
 15 16  1  0  0  0  0
 15 50  1  0  0  0  0
 16 17  1  0  0  0  0
 16 38  1  0  0  0  0
 16 39  1  0  0  0  0
 17 18  1  0  0  0  0
 17 40  1  0  0  0  0
 17 41  1  0  0  0  0
 18 19  1  0  0  0  0
 18 42  1  0  0  0  0
 18 43  1  0  0  0  0
 19 20  1  0  0  0  0
 19 21  1  0  0  0  0
 19 44  1  0  0  0  0
 20 45  1  0  0  0  0
 20 46  1  0  0  0  0
 20 47  1  0  0  0  0
 21 48  1  0  0  0  0
 21 49  1  0  0  0  0
M  CHG  1  15   1
M  END
> <s_m_source_file>
AV-unprocessed.smi

> <i_m_source_file_index>
565

> <i_lp_mmshare_version>
43012

> <i_f3d_flags>
0

> <s_epik_input>
W0NIM11jMW5uKFtDSDNdKWMoW0NIM10pYzFbQ0gyXUMoPU8pW05IXVtDSDJdW0NIMl1OMltDSDJdW0NIMl1bQ0gyXVtDQEBIXShbQ0gzXSlbQ0gyXTI=

> <s_epik_cmdline>
J2VwaWtfcHl0aG9uJywgJy1waCcsICc3LjAnLCAnLXRuJywgJzgnLCAnLW1hJywgJzIwMCcsICctbWV0YWxfYmluZGluZycsICctaW1hZScsICc8aW5maWxlLm1hZT4nLCAnLW9tYWUnLCAnPG91dGZpbGUubWFlPic=

> <r_lp_tautomer_probability>
1

> <r_epik_Ionization_Penalty>
0.00411138

> <r_epik_Ionization_Penalty_Charging>
0.0019503

> <r_epik_Ionization_Penalty_Neutral>
0.00216107

> <r_epik_State_Penalty>
-0

> <r_epik_Charging_Adjusted_Penalty>
0.0019503

> <i_epik_Tot_Q>
1

> <i_epik_Tot_abs_Q>
1

> <r_epik_Metal_State_Penalty>
-0

> <b_epik_Metal_Only>
0

> <s_lp_Force_Field>
OPLS_2005

> <r_lp_Energy>
12.6128

> <b_lp_Chiralities_Consistent>
1

> <s_lp_Variant>
AV-unprocessed.smi:565-2

> <Gold.Version>
5.8.1

> <Gold.Id.Protein>
6NUR|6NUR_protein|mol2

> <Gold.PLP.Fitness>
45.8404

> <Gold.PLP.PLP>
-38.1280

> <Gold.PLP.part.hbond>
-2.5788

> <Gold.PLP.part.metal>
0.0000

> <Gold.PLP.part.buried>
-3.5800

> <Gold.PLP.part.nonpolar>
-31.1228

> <Gold.PLP.part.repulsive>
0.0552

> <Gold.PLP.ligand.clash>
0.0000

> <Gold.PLP.ligand.torsion>
0.6742

> <Gold.PLP.Chemscore.Hbond>
3.0000

> <Gold.PLP.Chemscore.CHOScore>
0.0000

> <Gold.PLP.Chemscore.Metal>
0.0000

> <Gold.Chemscore.Hbonds>
donor molecule, donor type, donor heavy atom, donor atom, acceptor molecule, acceptor atom, score
      L1  H    12    33       P1  8028  1.00
      L1  H    15    50       P1  8029  1.00

> <Gold.PLP.Chemscore.Internal.Correction>
0.0609

> <Gold.Rescore>
     Score         DG    S(hbond)    S(metal)    S(lipo)     H(rot)  DE(clash)    DE(int)     intcor
     15.31     -15.97       1.03        0.00      95.66       1.61       0.04       0.63       ----

> <Gold.Chemscore.Fitness>
15.3074

> <Gold.Chemscore.DG>
-15.9707

> <Gold.Chemscore.ZeroCoef>
-5.4800

> <Gold.Chemscore.Hbond>
1.0273

> <Gold.Chemscore.Metal>
0.0000

> <Gold.Chemscore.Lipo>
95.6586

> <Gold.Chemscore.Internal_Hbond>
0.0000

> <Gold.Chemscore.DEClash>
0.0366

> <Gold.Chemscore.DEInternal>
0.6268

> <Gold.Chemscore.Rot>
1.6142

> <Gold.Chemscore.Internal.Correction>
   9.000000E+99

> <Gold.Chemscore.Hbonds>
donor molecule, donor type, donor heavy atom, donor atom, acceptor molecule, acceptor atom, score
      L1  H    12    33       P1  8028  0.55
      L1  H    15    50       P1  8029  0.02

> <Gold.Chemscore.Hbond.Weighted>
-3.4311

> <Gold.Chemscore.Metal.Weighted>
-0.0000

> <Gold.Chemscore.Lipo.Weighted>
-11.1921

> <Gold.Chemscore.Internal_Hbond.Weighted>
0.0000

> <Gold.Chemscore.DEClash.Weighted>
0.0366

> <Gold.Chemscore.DEInternal.Weighted>
0.6268

> <Gold.Chemscore.Rot.Weighted>
4.1324

> <Gold.Chemscore.Internal.Correction.Weighted>
   9.000000E+99

> <Gold.Protein.RotatedTorsions>
[ 6907 6896 6895 6894 ] final  -10.26 input  -60.11 | X-H torsion
[ 7974 7965 7964 7962 ] final   22.68 input  175.53 | X-H torsion
[ 8008 7997 7996 7995 ] final  -79.83 input   59.86 | X-H torsion
[ 10167 10162 10161 10158 ] final  110.72 input  -65.29 | X-H torsion
[ 10718 10713 10712 10709 ] final    4.45 input   66.30 | X-H torsion
[ 10763 10752 10751 10750 ] final   60.34 input  -60.55 | X-H torsion
[ 11005 11000 10999 10996 ] final -137.05 input  -57.11 | X-H torsion

> <Gold.Protein.ActiveResidues>
 VAL166  LYS551  ARG553  GLY616  TRP617  ASP618  TYR619  PRO620  LYS621  CYS622 
 ASP623  PHE694  ASN695  SER759  ASP760  ASP761  ALA762  ILE779  LEU786  VAL792 
 PHE793  MET794  SER795  GLU796  ALA797  LYS798  CYS799  TRP800  GLU811  SER814 

> <Gold.Protein.RotatedAtoms>
  151.4048  135.0976  159.9566 H   0  0  0  0  0  0  0  0  0  0  0  0  # atno 6907 bound_to 6896
  152.5039  133.8853  159.7377 H   0  0  0  0  0  0  0  0  0  0  0  0  # atno 6908 bound_to 6896
  150.9335  133.6682  159.2834 H   0  0  0  0  0  0  0  0  0  0  0  0  # atno 6909 bound_to 6896
  146.2018  139.7850  142.8756 H   0  0  0  0  0  0  0  0  0  0  0  0  # atno 7974 bound_to 7965
  154.5823  140.0672  156.9122 H   0  0  0  0  0  0  0  0  0  0  0  0  # atno 8008 bound_to 7997
  155.2440  140.3347  155.4271 H   0  0  0  0  0  0  0  0  0  0  0  0  # atno 8009 bound_to 7997
  156.2198  140.1794  156.7488 H   0  0  0  0  0  0  0  0  0  0  0  0  # atno 8010 bound_to 7997
  139.6666  144.7127  151.1765 H   0  0  0  0  0  0  0  0  0  0  0  0  # atno 10167 bound_to 10162
  156.8928  130.5693  149.5649 H   0  0  0  0  0  0  0  0  0  0  0  0  # atno 10718 bound_to 10713
  152.9918  135.5540  154.5858 H   0  0  0  0  0  0  0  0  0  0  0  0  # atno 10763 bound_to 10752
  154.5230  135.2809  155.1248 H   0  0  0  0  0  0  0  0  0  0  0  0  # atno 10764 bound_to 10752
  154.2594  135.6384  153.5322 H   0  0  0  0  0  0  0  0  0  0  0  0  # atno 10765 bound_to 10752
  140.8747  134.2007  157.4629 H   0  0  0  0  0  0  0  0  0  0  0  0  # atno 11005 bound_to 11000
  145.3458  141.0297  143.3366 LP  0  0  0  0  0  0  0  0  0  0  0  0  # atno 17320 bound_to 7965
  144.8700  139.5051  143.6772 LP  0  0  0  0  0  0  0  0  0  0  0  0  # atno 17321 bound_to 7965
  140.7602  143.5909  150.8797 LP  0  0  0  0  0  0  0  0  0  0  0  0  # atno 17342 bound_to 10162
  139.9571  143.6206  152.3013 LP  0  0  0  0  0  0  0  0  0  0  0  0  # atno 17343 bound_to 10162
  156.0621  130.5671  150.9213 LP  0  0  0  0  0  0  0  0  0  0  0  0  # atno 17370 bound_to 10713
  157.6074  131.0938  150.8856 LP  0  0  0  0  0  0  0  0  0  0  0  0  # atno 17371 bound_to 10713
  139.8714  134.9790  156.5020 LP  0  0  0  0  0  0  0  0  0  0  0  0  # atno 17394 bound_to 11000
  140.8532  133.8116  155.9189 LP  0  0  0  0  0  0  0  0  0  0  0  0  # atno 17395 bound_to 11000

$$$$
