AV-unprocessed.smi:1464|AV-procd|sdf|5944|dock1
  -GOLD-   22720 6 23D 1   1.00000     0.00000
 Structure written by MMmdl.
 41 42  0  0  0  0  0  0  0  0  1 V2000
  152.1975  144.3510  159.8402 C   0  0  0  0  0  0  0  0  0  0  0  0
  152.1728  143.2969  158.7207 C   0  0  1  0  0  0  0  0  0  0  0  0
  152.4311  141.8774  159.2658 C   0  0  0  0  0  0  0  0  0  0  0  0
  152.5050  140.8430  158.1315 C   0  0  0  0  0  0  0  0  0  0  0  0
  151.2526  140.8876  157.2432 C   0  0  0  0  0  0  0  0  0  0  0  0
  151.0044  142.3075  156.6989 C   0  0  1  0  0  0  0  0  0  0  0  0
  149.8302  142.3068  155.8290 N   0  0  0  0  0  0  0  0  0  0  0  0
  149.5695  141.4000  154.8750 C   0  0  0  0  0  0  0  0  0  0  0  0
  150.3201  140.4582  154.6154 O   0  0  0  0  0  0  0  0  0  0  0  0
  148.2714  141.6131  154.0827 C   0  0  0  0  0  0  0  0  0  0  0  0
  147.5493  140.3642  153.7996 N   0  0  0  0  0  0  0  0  0  0  0  0
  147.4479  140.0611  152.4501 N   0  0  0  0  0  0  0  0  0  0  0  0
  146.8465  138.9829  152.0753 C   0  0  0  0  0  0  0  0  0  0  0  0
  146.7728  138.7188  150.7298 O   0  0  0  0  0  0  0  0  0  0  0  0
  146.2652  138.0755  153.0401 C   0  0  0  0  0  0  0  0  0  0  0  0
  146.3651  138.3817  154.3523 C   0  0  0  0  0  0  0  0  0  0  0  0
  147.0414  139.5959  154.8121 C   0  0  0  0  0  0  0  0  0  0  0  0
  147.1458  139.9004  156.0002 O   0  0  0  0  0  0  0  0  0  0  0  0
  150.8916  143.3496  157.8460 C   0  0  1  0  0  0  0  0  0  0  0  0
  149.5824  143.2206  158.6594 C   0  0  0  0  0  0  0  0  0  0  0  0
  145.8545  138.7724  150.5138 H   0  0  0  0  0  0  0  0  0  0  0  0
  151.4617  144.1367  160.6152 H   0  0  0  0  0  0  0  0  0  0  0  0
  151.9942  145.3476  159.4478 H   0  0  0  0  0  0  0  0  0  0  0  0
  153.1752  144.3818  160.3219 H   0  0  0  0  0  0  0  0  0  0  0  0
  153.0094  143.5395  158.0632 H   0  0  0  0  0  0  0  0  0  0  0  0
  153.3648  141.8609  159.8291 H   0  0  0  0  0  0  0  0  0  0  0  0
  151.6476  141.5960  159.9699 H   0  0  0  0  0  0  0  0  0  0  0  0
  153.3886  141.0360  157.5217 H   0  0  0  0  0  0  0  0  0  0  0  0
  152.6310  139.8431  158.5476 H   0  0  0  0  0  0  0  0  0  0  0  0
  151.3724  140.1879  156.4150 H   0  0  0  0  0  0  0  0  0  0  0  0
  150.3881  140.5420  157.8109 H   0  0  0  0  0  0  0  0  0  0  0  0
  151.8699  142.5695  156.0865 H   0  0  0  0  0  0  0  0  0  0  0  0
  149.1623  143.0511  155.9684 H   0  0  0  0  0  0  0  0  0  0  0  0
  147.6213  142.3035  154.6235 H   0  0  0  0  0  0  0  0  0  0  0  0
  148.5261  142.1212  153.1508 H   0  0  0  0  0  0  0  0  0  0  0  0
  145.7652  137.1773  152.7091 H   0  0  0  0  0  0  0  0  0  0  0  0
  145.9356  137.7128  155.0837 H   0  0  0  0  0  0  0  0  0  0  0  0
  150.8657  144.3369  157.3823 H   0  0  0  0  0  0  0  0  0  0  0  0
  149.5186  142.2695  159.1868 H   0  0  0  0  0  0  0  0  0  0  0  0
  148.7036  143.3000  158.0198 H   0  0  0  0  0  0  0  0  0  0  0  0
  149.4926  144.0143  159.4003 H   0  0  0  0  0  0  0  0  0  0  0  0
  1  2  1  0  0  0  0
  1 22  1  0  0  0  0
  1 23  1  0  0  0  0
  1 24  1  0  0  0  0
  2 19  1  0  0  0  0
  2  3  1  0  0  0  0
  2 25  1  0  0  0  0
  3  4  1  0  0  0  0
  3 26  1  0  0  0  0
  3 27  1  0  0  0  0
  4  5  1  0  0  0  0
  4 28  1  0  0  0  0
  4 29  1  0  0  0  0
  5  6  1  0  0  0  0
  5 30  1  0  0  0  0
  5 31  1  0  0  0  0
  6  7  1  0  0  0  0
  6 19  1  0  0  0  0
  6 32  1  0  0  0  0
  7  8  1  0  0  0  0
  7 33  1  0  0  0  0
  8  9  2  0  0  0  0
  8 10  1  0  0  0  0
 10 34  1  0  0  0  0
 10 35  1  0  0  0  0
 10 11  1  0  0  0  0
 11 12  1  0  0  0  0
 11 17  1  0  0  0  0
 12 13  2  0  0  0  0
 13 14  1  0  0  0  0
 13 15  1  0  0  0  0
 14 21  1  0  0  0  0
 15 36  1  0  0  0  0
 15 16  2  0  0  0  0
 16 37  1  0  0  0  0
 16 17  1  0  0  0  0
 17 18  2  0  0  0  0
 19 20  1  0  0  0  0
 19 38  1  0  0  0  0
 20 39  1  0  0  0  0
 20 40  1  0  0  0  0
 20 41  1  0  0  0  0
M  END
> <s_m_source_file>
AV-unprocessed.smi

> <i_m_source_file_index>
1464

> <i_lp_mmshare_version>
43012

> <i_f3d_flags>
0

> <s_epik_input>
W0NIM11bQ0BASF0xW0NIMl1bQ0gyXVtDSDJdW0NASF0oW0NASF0xW0NIM10pW05IXUMoPU8pW0NIMl1uMltuSF1jKD1PKVtjSF1bY0hdYzI9Tw==

> <s_epik_cmdline>
J2VwaWtfcHl0aG9uJywgJy1waCcsICc3LjAnLCAnLXRuJywgJzgnLCAnLW1hJywgJzIwMCcsICctbWV0YWxfYmluZGluZycsICctaW1hZScsICc8aW5maWxlLm1hZT4nLCAnLW9tYWUnLCAnPG91dGZpbGUubWFlPic=

> <r_lp_tautomer_probability>
0.9996

> <r_epik_Ionization_Penalty>
2.10335

> <r_epik_Ionization_Penalty_Charging>
3.98079e-08

> <r_epik_Ionization_Penalty_Neutral>
2.10335

> <r_epik_State_Penalty>
1.67957

> <r_epik_Charging_Adjusted_Penalty>
1.67957

> <i_epik_Tot_Q>
0

> <i_epik_Tot_abs_Q>
0

> <r_epik_Metal_State_Penalty>
1.67957

> <b_epik_Metal_Only>
0

> <s_lp_Force_Field>
OPLS_2005

> <r_lp_Energy>
25.7359

> <b_lp_Chiralities_Consistent>
1

> <s_lp_Variant>
AV-unprocessed.smi:1464-10

> <Gold.Version>
5.8.1

> <Gold.Id.Protein>
6NUR|6NUR_protein|mol2

> <Gold.PLP.Fitness>
48.5628

> <Gold.PLP.PLP>
-37.5182

> <Gold.PLP.part.hbond>
-4.1258

> <Gold.PLP.part.metal>
0.0000

> <Gold.PLP.part.buried>
-6.3051

> <Gold.PLP.part.nonpolar>
-30.7470

> <Gold.PLP.part.repulsive>
3.4248

> <Gold.PLP.ligand.clash>
0.0000

> <Gold.PLP.ligand.torsion>
0.4178

> <Gold.PLP.Chemscore.Hbond>
3.9520

> <Gold.PLP.Chemscore.CHOScore>
0.0000

> <Gold.PLP.Chemscore.Metal>
0.0000

> <Gold.Chemscore.Hbonds>
donor molecule, donor type, donor heavy atom, donor atom, acceptor molecule, acceptor atom, score
      L1  H     7    33       P1  8028  0.86
      L1  H    14    21       P1 10171  0.86
      P1  H  7954  7966       L1    14  0.83
      P1  H  7989  7998       L1     9  0.99

> <Gold.PLP.Chemscore.Internal.Correction>
0.0241

> <Gold.Rescore>
     Score         DG    S(hbond)    S(metal)    S(lipo)     H(rot)  DE(clash)    DE(int)     intcor
     18.48     -21.47       3.53        0.00      84.54       2.22       1.34       1.65       ----

> <Gold.Chemscore.Fitness>
18.4830

> <Gold.Chemscore.DG>
-21.4729

> <Gold.Chemscore.ZeroCoef>
-5.4800

> <Gold.Chemscore.Hbond>
3.5303

> <Gold.Chemscore.Metal>
0.0000

> <Gold.Chemscore.Lipo>
84.5386

> <Gold.Chemscore.Internal_Hbond>
0.0000

> <Gold.Chemscore.DEClash>
1.3406

> <Gold.Chemscore.DEInternal>
1.6493

> <Gold.Chemscore.Rot>
2.2224

> <Gold.Chemscore.Internal.Correction>
   9.000000E+99

> <Gold.Chemscore.Hbonds>
donor molecule, donor type, donor heavy atom, donor atom, acceptor molecule, acceptor atom, score
      L1  H     7    33       P1  8028  0.85
      L1  H    14    21       P1 10171  0.84
      P1  H  7954  7966       L1    14  0.81
      P1  H  7989  7998       L1     9  0.80

> <Gold.Chemscore.Hbond.Weighted>
-11.7912

> <Gold.Chemscore.Metal.Weighted>
-0.0000

> <Gold.Chemscore.Lipo.Weighted>
-9.8910

> <Gold.Chemscore.Internal_Hbond.Weighted>
0.0000

> <Gold.Chemscore.DEClash.Weighted>
1.3406

> <Gold.Chemscore.DEInternal.Weighted>
1.6493

> <Gold.Chemscore.Rot.Weighted>
5.6893

> <Gold.Chemscore.Internal.Correction.Weighted>
   9.000000E+99

> <Gold.Protein.RotatedTorsions>
[ 6907 6896 6895 6894 ] final   79.67 input  -60.11 | X-H torsion
[ 7974 7965 7964 7962 ] final -135.60 input  175.53 | X-H torsion
[ 8008 7997 7996 7995 ] final  -57.60 input   59.86 | X-H torsion
[ 10167 10162 10161 10158 ] final   74.40 input  -65.29 | X-H torsion
[ 10718 10713 10712 10709 ] final  -46.32 input   66.30 | X-H torsion
[ 10763 10752 10751 10750 ] final  -22.63 input  -60.55 | X-H torsion
[ 11005 11000 10999 10996 ] final -120.39 input  -57.11 | X-H torsion

> <Gold.Protein.ActiveResidues>
 VAL166  LYS551  ARG553  GLY616  TRP617  ASP618  TYR619  PRO620  LYS621  CYS622 
 ASP623  PHE694  ASN695  SER759  ASP760  ASP761  ALA762  ILE779  LEU786  VAL792 
 PHE793  MET794  SER795  GLU796  ALA797  LYS798  CYS799  TRP800  GLU811  SER814 

> <Gold.Protein.RotatedAtoms>
  152.5207  134.3475  159.9238 H   0  0  0  0  0  0  0  0  0  0  0  0  # atno 6907 bound_to 6896
  151.3425  133.3950  159.2680 H   0  0  0  0  0  0  0  0  0  0  0  0  # atno 6908 bound_to 6896
  150.9792  134.9168  159.7892 H   0  0  0  0  0  0  0  0  0  0  0  0  # atno 6909 bound_to 6896
  144.8999  140.6757  143.5091 H   0  0  0  0  0  0  0  0  0  0  0  0  # atno 7974 bound_to 7965
  154.4274  140.1103  156.5823 H   0  0  0  0  0  0  0  0  0  0  0  0  # atno 8008 bound_to 7997
  155.6099  140.3494  155.4600 H   0  0  0  0  0  0  0  0  0  0  0  0  # atno 8009 bound_to 7997
  156.0108  140.1218  157.0445 H   0  0  0  0  0  0  0  0  0  0  0  0  # atno 8010 bound_to 7997
  140.0141  144.5591  150.7634 H   0  0  0  0  0  0  0  0  0  0  0  0  # atno 10167 bound_to 10162
  156.2195  130.4165  149.9011 H   0  0  0  0  0  0  0  0  0  0  0  0  # atno 10718 bound_to 10713
  153.6549  135.6979  153.5196 H   0  0  0  0  0  0  0  0  0  0  0  0  # atno 10763 bound_to 10752
  153.2677  135.4224  155.0956 H   0  0  0  0  0  0  0  0  0  0  0  0  # atno 10764 bound_to 10752
  154.8467  135.3570  154.6094 H   0  0  0  0  0  0  0  0  0  0  0  0  # atno 10765 bound_to 10752
  141.0147  134.0213  157.3366 H   0  0  0  0  0  0  0  0  0  0  0  0  # atno 11005 bound_to 11000
  145.3634  139.1676  143.4371 LP  0  0  0  0  0  0  0  0  0  0  0  0  # atno 17320 bound_to 7965
  146.3102  140.3699  142.8673 LP  0  0  0  0  0  0  0  0  0  0  0  0  # atno 17321 bound_to 7965
  140.7369  143.2759  151.3743 LP  0  0  0  0  0  0  0  0  0  0  0  0  # atno 17342 bound_to 10162
  139.6185  144.0955  152.2368 LP  0  0  0  0  0  0  0  0  0  0  0  0  # atno 17343 bound_to 10162
  156.6662  130.8802  151.3555 LP  0  0  0  0  0  0  0  0  0  0  0  0  # atno 17370 bound_to 10713
  157.7080  130.9407  150.0995 LP  0  0  0  0  0  0  0  0  0  0  0  0  # atno 17371 bound_to 10713
  139.9110  135.0190  156.7691 LP  0  0  0  0  0  0  0  0  0  0  0  0  # atno 17394 bound_to 11000
  140.6674  133.9590  155.7838 LP  0  0  0  0  0  0  0  0  0  0  0  0  # atno 17395 bound_to 11000

$$$$
