AV-unprocessed.smi:2790|AV-procd|sdf|10768|dock5
  -GOLD-   2272015203D 1   1.00000     0.00000
 Structure written by MMmdl.
 45 46  0  0  0  0  0  0  0  0  1 V2000
  152.7218  142.3087  159.0577 C   0  0  0  0  0  0  0  0  0  0  0  0
  151.4839  143.0754  159.1942 N   0  0  0  0  0  0  0  0  0  0  0  0
  151.7696  144.3553  159.8328 C   0  0  0  0  0  0  0  0  0  0  0  0
  150.8059  143.3064  157.8975 C   0  0  0  0  0  0  0  0  0  0  0  0
  150.4666  142.0322  157.1152 C   0  0  0  0  0  0  0  0  0  0  0  0
  150.9358  140.9488  157.4626 O   0  0  0  0  0  0  0  0  0  0  0  0
  149.6558  142.1808  156.0588 N   0  0  0  0  0  0  0  0  0  0  0  0
  149.1883  141.0962  155.2022 C   0  0  0  0  0  0  0  0  0  0  0  0
  147.6901  141.2456  154.8341 C   0  0  0  0  0  0  0  0  0  0  0  0
  147.2485  139.9977  154.0321 C   0  0  0  0  0  0  0  0  0  0  0  0
  147.1548  138.7087  154.6145 C   0  0  0  0  0  0  0  0  0  0  0  0
  146.7174  137.6258  153.8267 C   0  0  0  0  0  0  0  0  0  0  0  0
  146.3630  137.7441  152.5315 N   0  0  0  0  0  0  0  0  0  0  0  0
  146.4287  138.9709  151.9770 C   0  0  0  0  0  0  0  0  0  0  0  0
  146.8535  140.1169  152.6775 C   0  0  0  0  0  0  0  0  0  0  0  0
  146.8780  141.3952  156.1534 C   0  0  0  0  0  0  0  0  0  0  0  0
  145.3877  141.6936  155.9114 C   0  0  0  0  0  0  0  0  0  0  0  0
  145.2157  142.9899  155.1078 C   0  0  0  0  0  0  0  0  0  0  0  0
  146.0131  142.9370  153.7978 C   0  0  0  0  0  0  0  0  0  0  0  0
  147.4928  142.5830  154.0543 C   0  0  0  0  0  0  0  0  0  0  0  0
  152.5358  141.3049  158.6752 H   0  0  0  0  0  0  0  0  0  0  0  0
  153.2084  142.1888  160.0263 H   0  0  0  0  0  0  0  0  0  0  0  0
  153.4242  142.8044  158.3859 H   0  0  0  0  0  0  0  0  0  0  0  0
  150.8516  144.9240  159.9860 H   0  0  0  0  0  0  0  0  0  0  0  0
  152.4494  144.9616  159.2318 H   0  0  0  0  0  0  0  0  0  0  0  0
  152.2241  144.2058  160.8129 H   0  0  0  0  0  0  0  0  0  0  0  0
  149.8710  143.8423  158.0684 H   0  0  0  0  0  0  0  0  0  0  0  0
  151.4235  143.9518  157.2698 H   0  0  0  0  0  0  0  0  0  0  0  0
  149.3222  143.1100  155.8451 H   0  0  0  0  0  0  0  0  0  0  0  0
  149.7995  141.0901  154.2984 H   0  0  0  0  0  0  0  0  0  0  0  0
  149.3613  140.1394  155.6983 H   0  0  0  0  0  0  0  0  0  0  0  0
  147.4039  138.5231  155.6470 H   0  0  0  0  0  0  0  0  0  0  0  0
  146.6449  136.6364  154.2533 H   0  0  0  0  0  0  0  0  0  0  0  0
  146.1255  139.0450  150.9431 H   0  0  0  0  0  0  0  0  0  0  0  0
  146.8572  141.0677  152.1680 H   0  0  0  0  0  0  0  0  0  0  0  0
  146.9803  140.5203  156.7936 H   0  0  0  0  0  0  0  0  0  0  0  0
  147.2946  142.2164  156.7389 H   0  0  0  0  0  0  0  0  0  0  0  0
  144.9176  140.8630  155.3836 H   0  0  0  0  0  0  0  0  0  0  0  0
  144.8693  141.7833  156.8665 H   0  0  0  0  0  0  0  0  0  0  0  0
  144.1602  143.1640  154.8968 H   0  0  0  0  0  0  0  0  0  0  0  0
  145.5554  143.8366  155.7058 H   0  0  0  0  0  0  0  0  0  0  0  0
  145.5547  142.2122  153.1258 H   0  0  0  0  0  0  0  0  0  0  0  0
  145.9485  143.9001  153.2909 H   0  0  0  0  0  0  0  0  0  0  0  0
  147.9297  143.3969  154.6350 H   0  0  0  0  0  0  0  0  0  0  0  0
  148.0477  142.5876  153.1164 H   0  0  0  0  0  0  0  0  0  0  0  0
  1  2  1  0  0  0  0
  1 21  1  0  0  0  0
  1 22  1  0  0  0  0
  1 23  1  0  0  0  0
  2  3  1  0  0  0  0
  2  4  1  0  0  0  0
  3 24  1  0  0  0  0
  3 25  1  0  0  0  0
  3 26  1  0  0  0  0
  4  5  1  0  0  0  0
  4 27  1  0  0  0  0
  4 28  1  0  0  0  0
  5  6  2  0  0  0  0
  5  7  1  0  0  0  0
  7  8  1  0  0  0  0
  7 29  1  0  0  0  0
  8  9  1  0  0  0  0
  8 30  1  0  0  0  0
  8 31  1  0  0  0  0
  9 20  1  0  0  0  0
  9 10  1  0  0  0  0
  9 16  1  0  0  0  0
 10 15  1  0  0  0  0
 10 11  2  0  0  0  0
 11 12  1  0  0  0  0
 11 32  1  0  0  0  0
 12 13  2  0  0  0  0
 12 33  1  0  0  0  0
 13 14  1  0  0  0  0
 14 15  2  0  0  0  0
 14 34  1  0  0  0  0
 15 35  1  0  0  0  0
 16 17  1  0  0  0  0
 16 36  1  0  0  0  0
 16 37  1  0  0  0  0
 17 18  1  0  0  0  0
 17 38  1  0  0  0  0
 17 39  1  0  0  0  0
 18 19  1  0  0  0  0
 18 40  1  0  0  0  0
 18 41  1  0  0  0  0
 19 20  1  0  0  0  0
 19 42  1  0  0  0  0
 19 43  1  0  0  0  0
 20 44  1  0  0  0  0
 20 45  1  0  0  0  0
M  END
> <s_m_source_file>
AV-unprocessed.smi

> <i_m_source_file_index>
2790

> <i_lp_mmshare_version>
43012

> <i_f3d_flags>
0

> <s_epik_input>
W0NIM11OKFtDSDNdKVtDSDJdQyg9TylbTkhdW0NIMl1DMShbQ0gyXVtDSDJdW0NIMl1bQ0gyXVtDSDJdMSljMltjSF1bY0hdbltjSF1bY0hdMg==

> <s_epik_cmdline>
J2VwaWtfcHl0aG9uJywgJy1waCcsICc3LjAnLCAnLXRuJywgJzgnLCAnLW1hJywgJzIwMCcsICctbWV0YWxfYmluZGluZycsICctaW1hZScsICc8aW5maWxlLm1hZT4nLCAnLW9tYWUnLCAnPG91dGZpbGUubWFlPic=

> <r_epik_Ionization_Penalty>
1.73486

> <r_epik_Ionization_Penalty_Charging>
0

> <r_epik_Ionization_Penalty_Neutral>
1.73486

> <r_epik_State_Penalty>
1.84779

> <r_epik_Charging_Adjusted_Penalty>
1.84779

> <i_epik_Tot_Q>
0

> <i_epik_Tot_abs_Q>
0

> <r_epik_Metal_State_Penalty>
1.83713

> <b_epik_Metal_Only>
0

> <s_lp_Force_Field>
OPLS_2005

> <r_lp_Energy>
21.958

> <b_lp_Chiralities_Consistent>
1

> <s_lp_Variant>
AV-unprocessed.smi:2790-3

> <Gold.Version>
5.8.1

> <Gold.Id.Protein>
6NUR|6NUR_protein|mol2

> <Gold.PLP.Fitness>
37.7122

> <Gold.PLP.PLP>
-32.6391

> <Gold.PLP.part.hbond>
-1.0000

> <Gold.PLP.part.metal>
0.0000

> <Gold.PLP.part.buried>
-0.8381

> <Gold.PLP.part.nonpolar>
-32.2716

> <Gold.PLP.part.repulsive>
1.2459

> <Gold.PLP.ligand.clash>
0.0000

> <Gold.PLP.ligand.torsion>
0.4271

> <Gold.PLP.Chemscore.Hbond>
1.0000

> <Gold.PLP.Chemscore.CHOScore>
0.9644

> <Gold.PLP.Chemscore.Metal>
0.0000

> <Gold.Chemscore.Hbonds>
donor molecule, donor type, donor heavy atom, donor atom, acceptor molecule, acceptor atom, score
      L1  H     7    29       P1  8028  1.00
      L1  C    14    34       P1 10171  0.98

> <Gold.PLP.Chemscore.Internal.Correction>
0.0341

> <Gold.Rescore>
     Score         DG    S(hbond)    S(metal)    S(lipo)     H(rot)  DE(clash)    DE(int)     intcor
     13.85     -16.55       0.99        0.00     100.19       1.55       0.86       1.84       ----

> <Gold.Chemscore.Fitness>
13.8548

> <Gold.Chemscore.DG>
-16.5515

> <Gold.Chemscore.ZeroCoef>
-5.4800

> <Gold.Chemscore.Hbond>
0.9937

> <Gold.Chemscore.Metal>
0.0000

> <Gold.Chemscore.Lipo>
100.1855

> <Gold.Chemscore.Internal_Hbond>
0.0000

> <Gold.Chemscore.DEClash>
0.8558

> <Gold.Chemscore.DEInternal>
1.8409

> <Gold.Chemscore.Rot>
1.5505

> <Gold.Chemscore.Internal.Correction>
   9.000000E+99

> <Gold.Chemscore.Hbonds>
donor molecule, donor type, donor heavy atom, donor atom, acceptor molecule, acceptor atom, score
      L1  H     7    29       P1  8028  1.00

> <Gold.Chemscore.Hbond.Weighted>
-3.3191

> <Gold.Chemscore.Metal.Weighted>
-0.0000

> <Gold.Chemscore.Lipo.Weighted>
-11.7217

> <Gold.Chemscore.Internal_Hbond.Weighted>
0.0000

> <Gold.Chemscore.DEClash.Weighted>
0.8558

> <Gold.Chemscore.DEInternal.Weighted>
1.8409

> <Gold.Chemscore.Rot.Weighted>
3.9693

> <Gold.Chemscore.Internal.Correction.Weighted>
   9.000000E+99

> <Gold.Protein.RotatedTorsions>
[ 6907 6896 6895 6894 ] final    7.33 input  -60.11 | X-H torsion
[ 7974 7965 7964 7962 ] final   82.90 input  175.53 | X-H torsion
[ 8008 7997 7996 7995 ] final   31.19 input   59.86 | X-H torsion
[ 10167 10162 10161 10158 ] final   54.34 input  -65.29 | X-H torsion
[ 10718 10713 10712 10709 ] final   52.54 input   66.30 | X-H torsion
[ 10763 10752 10751 10750 ] final -152.95 input  -60.55 | X-H torsion
[ 11005 11000 10999 10996 ] final   52.42 input  -57.11 | X-H torsion

> <Gold.Protein.ActiveResidues>
 VAL166  LYS551  ARG553  GLY616  TRP617  ASP618  TYR619  PRO620  LYS621  CYS622 
 ASP623  PHE694  ASN695  SER759  ASP760  ASP761  ALA762  ILE779  LEU786  VAL792 
 PHE793  MET794  SER795  GLU796  ALA797  LYS798  CYS799  TRP800  GLU811  SER814 

> <Gold.Protein.RotatedAtoms>
  151.6881  135.0951  160.0228 H   0  0  0  0  0  0  0  0  0  0  0  0  # atno 6907 bound_to 6896
  152.3795  133.6522  159.6158 H   0  0  0  0  0  0  0  0  0  0  0  0  # atno 6908 bound_to 6896
  150.7735  133.9054  159.3395 H   0  0  0  0  0  0  0  0  0  0  0  0  # atno 6909 bound_to 6896
  145.6190  139.2382  143.2149 H   0  0  0  0  0  0  0  0  0  0  0  0  # atno 7974 bound_to 7965
  155.1025  140.3231  155.4543 H   0  0  0  0  0  0  0  0  0  0  0  0  # atno 8008 bound_to 7997
  156.2713  140.2058  156.6098 H   0  0  0  0  0  0  0  0  0  0  0  0  # atno 8009 bound_to 7997
  154.6818  140.0525  157.0261 H   0  0  0  0  0  0  0  0  0  0  0  0  # atno 8010 bound_to 7997
  140.2311  144.3686  150.6414 H   0  0  0  0  0  0  0  0  0  0  0  0  # atno 10167 bound_to 10162
  157.5084  130.8484  149.8404 H   0  0  0  0  0  0  0  0  0  0  0  0  # atno 10718 bound_to 10713
  154.7960  135.3224  154.7664 H   0  0  0  0  0  0  0  0  0  0  0  0  # atno 10763 bound_to 10752
  153.8343  135.6876  153.4815 H   0  0  0  0  0  0  0  0  0  0  0  0  # atno 10764 bound_to 10752
  153.1652  135.4645  154.9770 H   0  0  0  0  0  0  0  0  0  0  0  0  # atno 10765 bound_to 10752
  140.0850  134.5286  155.8908 H   0  0  0  0  0  0  0  0  0  0  0  0  # atno 11005 bound_to 11000
  146.1445  140.7011  142.9351 LP  0  0  0  0  0  0  0  0  0  0  0  0  # atno 17320 bound_to 7965
  144.7238  140.4461  143.6988 LP  0  0  0  0  0  0  0  0  0  0  0  0  # atno 17321 bound_to 7965
  140.6184  143.2174  151.6744 LP  0  0  0  0  0  0  0  0  0  0  0  0  # atno 17342 bound_to 10162
  139.5110  144.3525  152.0639 LP  0  0  0  0  0  0  0  0  0  0  0  0  # atno 17343 bound_to 10162
  156.0273  130.3775  150.1787 LP  0  0  0  0  0  0  0  0  0  0  0  0  # atno 17370 bound_to 10713
  156.9976  130.9912  151.3399 LP  0  0  0  0  0  0  0  0  0  0  0  0  # atno 17371 bound_to 10713
  141.2059  133.6651  156.6212 LP  0  0  0  0  0  0  0  0  0  0  0  0  # atno 17394 bound_to 11000
  140.3433  134.7831  157.4413 LP  0  0  0  0  0  0  0  0  0  0  0  0  # atno 17395 bound_to 11000

$$$$
