AV-unprocessed.smi:2384|AV-procd|sdf|9462|dock5
  -GOLD-   2272013 93D 1   1.00000     0.00000
 Structure written by MMmdl.
 43 44  0  0  0  0  0  0  0  0  1 V2000
  144.0316  132.7307  149.9130 C   0  0  0  0  0  0  0  0  0  0  0  0
  145.1135  132.2384  150.8515 C   0  0  0  0  0  0  0  0  0  0  0  0
  145.2077  130.8758  151.1938 C   0  0  0  0  0  0  0  0  0  0  0  0
  146.2336  130.4812  152.0748 C   0  0  0  0  0  0  0  0  0  0  0  0
  146.3964  129.0324  152.4837 C   0  0  0  0  0  0  0  0  0  0  0  0
  147.1238  131.3472  152.6040 N   0  0  0  0  0  0  0  0  0  0  0  0
  147.0431  132.6618  152.2815 C   0  0  0  0  0  0  0  0  0  0  0  0
  147.9338  133.6494  152.7801 N   0  0  0  0  0  0  0  0  0  0  0  0
  148.7466  133.5703  153.8487 C   0  0  0  0  0  0  0  0  0  0  0  0
  148.8298  132.6076  154.6121 O   0  0  0  0  0  0  0  0  0  0  0  0
  149.4638  134.6933  153.9964 N   0  0  0  0  0  0  0  0  0  0  0  0
  150.4179  134.9432  155.0719 C   0  0  0  0  0  0  0  0  0  0  0  0
  150.3550  136.3921  155.5876 C   0  0  0  0  0  0  0  0  0  0  0  0
  151.1375  137.3895  154.7126 C   0  0  0  0  0  0  0  0  0  0  0  0
  150.7553  138.7705  154.9947 N   0  0  0  0  0  0  0  0  0  0  0  0
  149.4685  139.2884  154.5606 C   0  0  0  0  0  0  0  0  0  0  0  0
  149.5168  140.7938  154.8618 C   0  0  0  0  0  0  0  0  0  0  0  0
  150.7686  141.0139  155.7182 C   0  0  0  0  0  0  0  0  0  0  0  0
  151.4970  139.6840  155.6314 C   0  0  0  0  0  0  0  0  0  0  0  0
  152.6223  139.5084  156.0965 O   0  0  0  0  0  0  0  0  0  0  0  0
  146.0463  133.1408  151.4016 C   0  0  0  0  0  0  0  0  0  0  0  0
  143.4233  131.9055  149.5410 H   0  0  0  0  0  0  0  0  0  0  0  0
  144.4749  133.2397  149.0569 H   0  0  0  0  0  0  0  0  0  0  0  0
  143.3755  133.4319  150.4291 H   0  0  0  0  0  0  0  0  0  0  0  0
  144.5130  130.1526  150.7921 H   0  0  0  0  0  0  0  0  0  0  0  0
  145.6536  128.3979  151.9996 H   0  0  0  0  0  0  0  0  0  0  0  0
  146.2814  128.9284  153.5628 H   0  0  0  0  0  0  0  0  0  0  0  0
  147.3862  128.6691  152.2060 H   0  0  0  0  0  0  0  0  0  0  0  0
  147.9541  134.5162  152.2638 H   0  0  0  0  0  0  0  0  0  0  0  0
  149.3349  135.4336  153.3223 H   0  0  0  0  0  0  0  0  0  0  0  0
  150.2443  134.2450  155.8924 H   0  0  0  0  0  0  0  0  0  0  0  0
  151.4181  134.7283  154.6952 H   0  0  0  0  0  0  0  0  0  0  0  0
  149.3142  136.7100  155.6616 H   0  0  0  0  0  0  0  0  0  0  0  0
  150.7481  136.4129  156.6046 H   0  0  0  0  0  0  0  0  0  0  0  0
  152.2098  137.2717  154.8762 H   0  0  0  0  0  0  0  0  0  0  0  0
  150.9642  137.1819  153.6561 H   0  0  0  0  0  0  0  0  0  0  0  0
  149.3015  139.0977  153.4997 H   0  0  0  0  0  0  0  0  0  0  0  0
  148.6732  138.7995  155.1251 H   0  0  0  0  0  0  0  0  0  0  0  0
  149.5962  141.3616  153.9337 H   0  0  0  0  0  0  0  0  0  0  0  0
  148.6139  141.1284  155.3735 H   0  0  0  0  0  0  0  0  0  0  0  0
  151.3875  141.8284  155.3405 H   0  0  0  0  0  0  0  0  0  0  0  0
  150.5107  141.2214  156.7572 H   0  0  0  0  0  0  0  0  0  0  0  0
  145.9928  134.1908  151.1516 H   0  0  0  0  0  0  0  0  0  0  0  0
  1  2  1  0  0  0  0
  1 22  1  0  0  0  0
  1 23  1  0  0  0  0
  1 24  1  0  0  0  0
  2 21  1  0  0  0  0
  2  3  2  0  0  0  0
  3  4  1  0  0  0  0
  3 25  1  0  0  0  0
  4  5  1  0  0  0  0
  4  6  2  0  0  0  0
  5 26  1  0  0  0  0
  5 27  1  0  0  0  0
  5 28  1  0  0  0  0
  6  7  1  0  0  0  0
  7  8  1  0  0  0  0
  7 21  2  0  0  0  0
  8  9  1  0  0  0  0
  8 29  1  0  0  0  0
  9 10  2  0  0  0  0
  9 11  1  0  0  0  0
 11 12  1  0  0  0  0
 11 30  1  0  0  0  0
 12 13  1  0  0  0  0
 12 31  1  0  0  0  0
 12 32  1  0  0  0  0
 13 14  1  0  0  0  0
 13 33  1  0  0  0  0
 13 34  1  0  0  0  0
 14 15  1  0  0  0  0
 14 35  1  0  0  0  0
 14 36  1  0  0  0  0
 15 19  1  0  0  0  0
 15 16  1  0  0  0  0
 16 17  1  0  0  0  0
 16 37  1  0  0  0  0
 16 38  1  0  0  0  0
 17 18  1  0  0  0  0
 17 39  1  0  0  0  0
 17 40  1  0  0  0  0
 18 19  1  0  0  0  0
 18 41  1  0  0  0  0
 18 42  1  0  0  0  0
 19 20  2  0  0  0  0
 21 43  1  0  0  0  0
M  END
> <s_m_source_file>
AV-unprocessed.smi

> <i_m_source_file_index>
2384

> <i_lp_mmshare_version>
43012

> <i_f3d_flags>
0

> <s_epik_input>
W0NIM11jMVtjSF1jKFtDSDNdKW5jKFtjSF0xKVtOSF1DKD1PKVtOSF1bQ0gyXVtDSDJdW0NIMl1OMltDSDJdW0NIMl1bQ0gyXUMyPU8=

> <s_epik_cmdline>
J2VwaWtfcHl0aG9uJywgJy1waCcsICc3LjAnLCAnLXRuJywgJzgnLCAnLW1hJywgJzIwMCcsICctbWV0YWxfYmluZGluZycsICctaW1hZScsICc8aW5maWxlLm1hZT4nLCAnLW9tYWUnLCAnPG91dGZpbGUubWFlPic=

> <r_lp_tautomer_probability>
1

> <r_epik_Ionization_Penalty>
0.000241796

> <r_epik_Ionization_Penalty_Charging>
0

> <r_epik_Ionization_Penalty_Neutral>
0.000241796

> <r_epik_State_Penalty>
-0

> <r_epik_Charging_Adjusted_Penalty>
0

> <i_epik_Tot_Q>
0

> <i_epik_Tot_abs_Q>
0

> <r_epik_Metal_State_Penalty>
-0

> <b_epik_Metal_Only>
0

> <s_lp_Force_Field>
OPLS_2005

> <r_lp_Energy>
18.86

> <b_lp_Chiralities_Consistent>
1

> <s_lp_Variant>
AV-unprocessed.smi:2384-1

> <Gold.Version>
5.8.1

> <Gold.Id.Protein>
6NUR|6NUR_protein|mol2

> <Gold.PLP.Fitness>
52.1341

> <Gold.PLP.PLP>
-44.2684

> <Gold.PLP.part.hbond>
-3.0020

> <Gold.PLP.part.metal>
0.0000

> <Gold.PLP.part.buried>
-4.4841

> <Gold.PLP.part.nonpolar>
-36.0435

> <Gold.PLP.part.repulsive>
0.3418

> <Gold.PLP.ligand.clash>
0.0000

> <Gold.PLP.ligand.torsion>
0.5187

> <Gold.PLP.Chemscore.Hbond>
2.9600

> <Gold.PLP.Chemscore.CHOScore>
0.0000

> <Gold.PLP.Chemscore.Metal>
0.0000

> <Gold.Chemscore.Hbonds>
donor molecule, donor type, donor heavy atom, donor atom, acceptor molecule, acceptor atom, score
      L1  H     8    29       P1  7948  0.94
      L1  H    11    30       P1  7948  0.90
      P1  H  7997  8009       L1    20  1.00

> <Gold.PLP.Chemscore.Internal.Correction>
0.0230

> <Gold.Rescore>
     Score         DG    S(hbond)    S(metal)    S(lipo)     H(rot)  DE(clash)    DE(int)     intcor
     16.99     -18.64       2.37        0.00      82.93       1.75       0.01       1.64       ----

> <Gold.Chemscore.Fitness>
16.9927

> <Gold.Chemscore.DG>
-18.6410

> <Gold.Chemscore.ZeroCoef>
-5.4800

> <Gold.Chemscore.Hbond>
2.3730

> <Gold.Chemscore.Metal>
0.0000

> <Gold.Chemscore.Lipo>
82.9289

> <Gold.Chemscore.Internal_Hbond>
0.0000

> <Gold.Chemscore.DEClash>
0.0086

> <Gold.Chemscore.DEInternal>
1.6398

> <Gold.Chemscore.Rot>
1.7451

> <Gold.Chemscore.Internal.Correction>
   9.000000E+99

> <Gold.Chemscore.Hbonds>
donor molecule, donor type, donor heavy atom, donor atom, acceptor molecule, acceptor atom, score
      L1  H     8    29       P1  7948  0.31
      L1  H    11    30       P1  7948  0.18
      P1  H  7997  8009       L1    20  1.00

> <Gold.Chemscore.Hbond.Weighted>
-7.9258

> <Gold.Chemscore.Metal.Weighted>
-0.0000

> <Gold.Chemscore.Lipo.Weighted>
-9.7027

> <Gold.Chemscore.Internal_Hbond.Weighted>
0.0000

> <Gold.Chemscore.DEClash.Weighted>
0.0086

> <Gold.Chemscore.DEInternal.Weighted>
1.6398

> <Gold.Chemscore.Rot.Weighted>
4.4675

> <Gold.Chemscore.Internal.Correction.Weighted>
   9.000000E+99

> <Gold.Protein.RotatedTorsions>
[ 6907 6896 6895 6894 ] final -134.39 input  -60.11 | X-H torsion
[ 7974 7965 7964 7962 ] final  106.35 input  175.53 | X-H torsion
[ 8008 7997 7996 7995 ] final -153.68 input   59.86 | X-H torsion
[ 10167 10162 10161 10158 ] final -170.26 input  -65.29 | X-H torsion
[ 10718 10713 10712 10709 ] final   -0.10 input   66.30 | X-H torsion
[ 10763 10752 10751 10750 ] final  108.65 input  -60.55 | X-H torsion
[ 11005 11000 10999 10996 ] final  -94.12 input  -57.11 | X-H torsion

> <Gold.Protein.ActiveResidues>
 VAL166  LYS551  ARG553  GLY616  TRP617  ASP618  TYR619  PRO620  LYS621  CYS622 
 ASP623  PHE694  ASN695  SER759  ASP760  ASP761  ALA762  ILE779  LEU786  VAL792 
 PHE793  MET794  SER795  GLU796  ALA797  LYS798  CYS799  TRP800  GLU811  SER814 

> <Gold.Protein.RotatedAtoms>
  150.9853  133.6204  159.2716 H   0  0  0  0  0  0  0  0  0  0  0  0  # atno 6907 bound_to 6896
  151.3444  135.0869  159.9391 H   0  0  0  0  0  0  0  0  0  0  0  0  # atno 6908 bound_to 6896
  152.5229  133.9458  159.7703 H   0  0  0  0  0  0  0  0  0  0  0  0  # atno 6909 bound_to 6896
  145.3078  139.2549  143.3779 H   0  0  0  0  0  0  0  0  0  0  0  0  # atno 7974 bound_to 7965
  155.6745  140.0737  157.2507 H   0  0  0  0  0  0  0  0  0  0  0  0  # atno 8008 bound_to 7997
  154.4117  140.1693  156.1967 H   0  0  0  0  0  0  0  0  0  0  0  0  # atno 8009 bound_to 7997
  155.9588  140.3371  155.6475 H   0  0  0  0  0  0  0  0  0  0  0  0  # atno 8010 bound_to 7997
  139.5872  144.1292  152.1590 H   0  0  0  0  0  0  0  0  0  0  0  0  # atno 10167 bound_to 10162
  156.8255  130.5470  149.5692 H   0  0  0  0  0  0  0  0  0  0  0  0  # atno 10718 bound_to 10713
  153.4236  135.3805  155.2127 H   0  0  0  0  0  0  0  0  0  0  0  0  # atno 10763 bound_to 10752
  154.8746  135.3823  154.4353 H   0  0  0  0  0  0  0  0  0  0  0  0  # atno 10764 bound_to 10752
  153.4877  135.7088  153.5965 H   0  0  0  0  0  0  0  0  0  0  0  0  # atno 10765 bound_to 10752
  141.1479  133.7934  157.0254 H   0  0  0  0  0  0  0  0  0  0  0  0  # atno 11005 bound_to 11000
  146.3129  140.3607  142.8664 LP  0  0  0  0  0  0  0  0  0  0  0  0  # atno 17320 bound_to 7965
  144.9040  140.7678  143.5849 LP  0  0  0  0  0  0  0  0  0  0  0  0  # atno 17321 bound_to 7965
  140.0858  144.5662  150.7089 LP  0  0  0  0  0  0  0  0  0  0  0  0  # atno 17342 bound_to 10162
  140.7142  143.2530  151.4487 LP  0  0  0  0  0  0  0  0  0  0  0  0  # atno 17343 bound_to 10162
  156.0964  130.5936  150.9821 LP  0  0  0  0  0  0  0  0  0  0  0  0  # atno 17370 bound_to 10713
  157.6434  131.0907  150.8203 LP  0  0  0  0  0  0  0  0  0  0  0  0  # atno 17371 bound_to 10713
  140.0788  134.9660  157.1590 LP  0  0  0  0  0  0  0  0  0  0  0  0  # atno 17394 bound_to 11000
  140.3606  134.2499  155.7187 LP  0  0  0  0  0  0  0  0  0  0  0  0  # atno 17395 bound_to 11000

$$$$
