AV-unprocessed.smi:2562|AV-procd|sdf|10050|dock2
  -GOLD-   2272014 93D 1   1.00000     0.00000
 Structure written by MMmdl.
 31 32  0  0  0  0  0  0  0  0  2 V2000
  148.9598  141.0012  154.2630 C   0  0  0  0  0  0  0  0  0  0  0  0
  148.1871  139.6909  154.0783 C   0  0  0  0  0  0  0  0  0  0  0  0
  147.1577  139.7713  152.9421 C   0  0  0  0  0  0  0  0  0  0  0  0
  146.4027  138.4956  152.7594 C   0  0  0  0  0  0  0  0  0  0  0  0
  145.5386  137.9865  153.6425 N   0  0  0  0  0  0  0  0  0  0  0  0
  145.0913  136.8032  153.0803 N   0  0  0  0  0  0  0  0  0  0  0  0
  145.7312  136.6986  151.9107 C   0  0  0  0  0  0  0  0  0  0  0  0
  145.5618  135.5758  150.9365 C   0  0  2  0  0  0  0  0  0  0  0  0
  144.1101  135.4439  150.4368 C   0  0  0  0  0  0  0  0  0  0  0  0
  143.9836  134.2623  149.5613 N   0  3  0  0  0  0  0  0  0  0  0  0
  144.4596  133.0376  150.2345 C   0  0  0  0  0  0  0  0  0  0  0  0
  145.8959  133.2399  150.7486 C   0  0  0  0  0  0  0  0  0  0  0  0
  145.9443  134.3763  151.6051 O   0  0  0  0  0  0  0  0  0  0  0  0
  146.5553  137.7290  151.6701 N   0  0  0  0  0  0  0  0  0  0  0  0
  147.1482  137.8896  150.8687 H   0  0  0  0  0  0  0  0  0  0  0  0
  149.6802  140.9163  155.0768 H   0  0  0  0  0  0  0  0  0  0  0  0
  148.2857  141.8247  154.5000 H   0  0  0  0  0  0  0  0  0  0  0  0
  149.5088  141.2661  153.3589 H   0  0  0  0  0  0  0  0  0  0  0  0
  148.8916  138.8825  153.8788 H   0  0  0  0  0  0  0  0  0  0  0  0
  147.6826  139.4374  155.0117 H   0  0  0  0  0  0  0  0  0  0  0  0
  146.4424  140.5701  153.1426 H   0  0  0  0  0  0  0  0  0  0  0  0
  147.6537  140.0270  152.0047 H   0  0  0  0  0  0  0  0  0  0  0  0
  146.2338  135.7456  150.0930 H   0  0  0  0  0  0  0  0  0  0  0  0
  143.4239  135.3368  151.2783 H   0  0  0  0  0  0  0  0  0  0  0  0
  143.8088  136.3356  149.8866 H   0  0  0  0  0  0  0  0  0  0  0  0
  143.0169  134.1441  149.2930 H   0  0  0  0  0  0  0  0  0  0  0  0
  143.7921  132.8019  151.0645 H   0  0  0  0  0  0  0  0  0  0  0  0
  144.4152  132.2004  149.5378 H   0  0  0  0  0  0  0  0  0  0  0  0
  146.2230  132.3622  151.3062 H   0  0  0  0  0  0  0  0  0  0  0  0
  146.5923  133.3675  149.9182 H   0  0  0  0  0  0  0  0  0  0  0  0
  144.5401  134.4124  148.7318 H   0  0  0  0  0  0  0  0  0  0  0  0
  1  2  1  0  0  0  0
  1 16  1  0  0  0  0
  1 17  1  0  0  0  0
  1 18  1  0  0  0  0
  2  3  1  0  0  0  0
  2 19  1  0  0  0  0
  2 20  1  0  0  0  0
  3 21  1  0  0  0  0
  3 22  1  0  0  0  0
  3  4  1  0  0  0  0
  4  5  2  0  0  0  0
  4 14  1  0  0  0  0
  5  6  1  0  0  0  0
  6  7  2  0  0  0  0
  7 14  1  0  0  0  0
  7  8  1  0  0  0  0
  8 13  1  0  0  0  0
  8  9  1  0  0  0  0
  8 23  1  0  0  0  0
  9 10  1  0  0  0  0
  9 24  1  0  0  0  0
  9 25  1  0  0  0  0
 10 11  1  0  0  0  0
 10 26  1  0  0  0  0
 10 31  1  0  0  0  0
 11 12  1  0  0  0  0
 11 27  1  0  0  0  0
 11 28  1  0  0  0  0
 12 13  1  0  0  0  0
 12 29  1  0  0  0  0
 12 30  1  0  0  0  0
 14 15  1  0  0  0  0
M  CHG  1  10   1
M  END
> <s_m_source_file>
AV-unprocessed.smi

> <i_m_source_file_index>
2562

> <i_lp_mmshare_version>
43012

> <i_f3d_flags>
0

> <s_epik_input>
W0NIM11bQ0gyXVtDSDJdYzFuW25IXWMobjEpW0NAQEhdMltDSDJdW05IXVtDSDJdW0NIMl1PMg==

> <s_epik_cmdline>
J2VwaWtfcHl0aG9uJywgJy1waCcsICc3LjAnLCAnLXRuJywgJzgnLCAnLW1hJywgJzIwMCcsICctbWV0YWxfYmluZGluZycsICctaW1hZScsICc8aW5maWxlLm1hZT4nLCAnLW9tYWUnLCAnPG91dGZpbGUubWFlPic=

> <r_lp_tautomer_probability>
0.0517155

> <r_epik_Ionization_Penalty>
0.274244

> <r_epik_Ionization_Penalty_Charging>
0.125708

> <r_epik_Ionization_Penalty_Neutral>
0.148536

> <r_epik_State_Penalty>
1.9659

> <r_epik_Charging_Adjusted_Penalty>
2.09161

> <i_epik_Tot_Q>
1

> <i_epik_Tot_abs_Q>
1

> <r_epik_Metal_State_Penalty>
2.08836

> <b_epik_Metal_Only>
0

> <s_lp_Force_Field>
OPLS_2005

> <r_lp_Energy>
13.0069

> <b_lp_Chiralities_Consistent>
1

> <s_lp_Variant>
AV-unprocessed.smi:2562-9

> <Gold.Version>
5.8.1

> <Gold.Id.Protein>
6NUR|6NUR_protein|mol2

> <Gold.PLP.Fitness>
34.1494

> <Gold.PLP.PLP>
-25.2611

> <Gold.PLP.part.hbond>
-3.0000

> <Gold.PLP.part.metal>
0.0000

> <Gold.PLP.part.buried>
-3.5006

> <Gold.PLP.part.nonpolar>
-20.7139

> <Gold.PLP.part.repulsive>
0.6145

> <Gold.PLP.ligand.clash>
0.0000

> <Gold.PLP.ligand.torsion>
0.0571

> <Gold.PLP.Chemscore.Hbond>
3.0000

> <Gold.PLP.Chemscore.CHOScore>
0.0000

> <Gold.PLP.Chemscore.Metal>
0.0000

> <Gold.Chemscore.Hbonds>
donor molecule, donor type, donor heavy atom, donor atom, acceptor molecule, acceptor atom, score
      L1  H    10    26       P1 10186  1.95
      L1  H    10    31       P1  7921  1.00

> <Gold.PLP.Chemscore.Internal.Correction>
0.0025

> <Gold.Rescore>
     Score         DG    S(hbond)    S(metal)    S(lipo)     H(rot)  DE(clash)    DE(int)     intcor
     13.67     -13.80       1.92        0.00      49.46       1.51       0.06       0.08       ----

> <Gold.Chemscore.Fitness>
13.6711

> <Gold.Chemscore.DG>
-13.8046

> <Gold.Chemscore.ZeroCoef>
-5.4800

> <Gold.Chemscore.Hbond>
1.9183

> <Gold.Chemscore.Metal>
0.0000

> <Gold.Chemscore.Lipo>
49.4600

> <Gold.Chemscore.Internal_Hbond>
0.0000

> <Gold.Chemscore.DEClash>
0.0556

> <Gold.Chemscore.DEInternal>
0.0779

> <Gold.Chemscore.Rot>
1.5115

> <Gold.Chemscore.Internal.Correction>
   9.000000E+99

> <Gold.Chemscore.Hbonds>
donor molecule, donor type, donor heavy atom, donor atom, acceptor molecule, acceptor atom, score
      L1  H    10    26       P1 10186  0.90
      L1  H    10    31       P1  7921  0.98

> <Gold.Chemscore.Hbond.Weighted>
-6.4073

> <Gold.Chemscore.Metal.Weighted>
-0.0000

> <Gold.Chemscore.Lipo.Weighted>
-5.7868

> <Gold.Chemscore.Internal_Hbond.Weighted>
0.0000

> <Gold.Chemscore.DEClash.Weighted>
0.0556

> <Gold.Chemscore.DEInternal.Weighted>
0.0779

> <Gold.Chemscore.Rot.Weighted>
3.8695

> <Gold.Chemscore.Internal.Correction.Weighted>
   9.000000E+99

> <Gold.Protein.RotatedTorsions>
[ 6907 6896 6895 6894 ] final   71.77 input  -60.11 | X-H torsion
[ 7974 7965 7964 7962 ] final  138.61 input  175.53 | X-H torsion
[ 8008 7997 7996 7995 ] final   96.37 input   59.86 | X-H torsion
[ 10167 10162 10161 10158 ] final   26.03 input  -65.29 | X-H torsion
[ 10718 10713 10712 10709 ] final  -47.20 input   66.30 | X-H torsion
[ 10763 10752 10751 10750 ] final  107.43 input  -60.55 | X-H torsion
[ 11005 11000 10999 10996 ] final -105.05 input  -57.11 | X-H torsion

> <Gold.Protein.ActiveResidues>
 VAL166  LYS551  ARG553  GLY616  TRP617  ASP618  TYR619  PRO620  LYS621  CYS622 
 ASP623  PHE694  ASN695  SER759  ASP760  ASP761  ALA762  ILE779  LEU786  VAL792 
 PHE793  MET794  SER795  GLU796  ALA797  LYS798  CYS799  TRP800  GLU811  SER814 

> <Gold.Protein.RotatedAtoms>
  152.4829  134.4671  159.9623 H   0  0  0  0  0  0  0  0  0  0  0  0  # atno 6907 bound_to 6896
  151.4673  133.3572  159.2826 H   0  0  0  0  0  0  0  0  0  0  0  0  # atno 6908 bound_to 6896
  150.8916  134.8345  159.7358 H   0  0  0  0  0  0  0  0  0  0  0  0  # atno 6909 bound_to 6896
  144.9357  139.4993  143.5596 H   0  0  0  0  0  0  0  0  0  0  0  0  # atno 7974 bound_to 7965
  156.0789  140.3273  155.7669 H   0  0  0  0  0  0  0  0  0  0  0  0  # atno 8008 bound_to 7997
  155.5185  140.0583  157.2928 H   0  0  0  0  0  0  0  0  0  0  0  0  # atno 8009 bound_to 7997
  154.4571  140.1948  156.0366 H   0  0  0  0  0  0  0  0  0  0  0  0  # atno 8010 bound_to 7997
  140.5057  144.0243  150.6351 H   0  0  0  0  0  0  0  0  0  0  0  0  # atno 10167 bound_to 10162
  156.2107  130.4160  149.9118 H   0  0  0  0  0  0  0  0  0  0  0  0  # atno 10718 bound_to 10713
  153.4066  135.3844  155.2023 H   0  0  0  0  0  0  0  0  0  0  0  0  # atno 10763 bound_to 10752
  154.8734  135.3784  154.4552 H   0  0  0  0  0  0  0  0  0  0  0  0  # atno 10764 bound_to 10752
  153.5056  135.7088  153.5870 H   0  0  0  0  0  0  0  0  0  0  0  0  # atno 10765 bound_to 10752
  141.1072  133.8775  157.1687 H   0  0  0  0  0  0  0  0  0  0  0  0  # atno 11005 bound_to 11000
  146.3265  139.8339  142.8903 LP  0  0  0  0  0  0  0  0  0  0  0  0  # atno 17320 bound_to 7965
  145.3071  141.0210  143.3575 LP  0  0  0  0  0  0  0  0  0  0  0  0  # atno 17321 bound_to 7965
  140.3551  143.2940  152.0445 LP  0  0  0  0  0  0  0  0  0  0  0  0  # atno 17342 bound_to 10162
  139.4883  144.6345  151.7004 LP  0  0  0  0  0  0  0  0  0  0  0  0  # atno 17343 bound_to 10162
  156.6797  130.8853  151.3574 LP  0  0  0  0  0  0  0  0  0  0  0  0  # atno 17370 bound_to 10713
  157.7037  130.9361  150.0864 LP  0  0  0  0  0  0  0  0  0  0  0  0  # atno 17371 bound_to 10713
  139.9947  135.0051  157.0056 LP  0  0  0  0  0  0  0  0  0  0  0  0  # atno 17394 bound_to 11000
  140.4872  134.1230  155.7226 LP  0  0  0  0  0  0  0  0  0  0  0  0  # atno 17395 bound_to 11000

$$$$
