AV-unprocessed.smi:2799|AV-procd|sdf|10791|dock7
  -GOLD-   2272015223D 1   1.00000     0.00000
 Structure written by MMmdl.
 52 53  0  0  0  0  0  0  0  0  2 V2000
  144.5463  142.4078  156.3056 C   0  0  0  0  0  0  0  0  0  0  0  0
  143.8103  141.0598  156.2819 C   0  0  0  0  0  0  0  0  0  0  0  0
  142.9997  140.8695  157.5751 C   0  0  0  0  0  0  0  0  0  0  0  0
  144.8096  139.9046  156.0484 C   0  0  0  0  0  0  0  0  0  0  0  0
  145.6131  140.0277  154.7997 N   0  3  2  0  0  0  0  0  0  0  0  0
  145.9946  138.6969  154.2524 C   0  0  0  0  0  0  0  0  0  0  0  0
  146.6057  138.8198  152.8477 C   0  0  0  0  0  0  0  0  0  0  0  0
  147.7977  139.7818  152.8469 C   0  0  0  0  0  0  0  0  0  0  0  0
  147.3698  141.1350  153.4293 C   0  0  0  0  0  0  0  0  0  0  0  0
  146.7583  140.9933  154.8440 C   0  0  2  0  0  0  0  0  0  0  0  0
  147.7940  140.6638  155.9533 C   0  0  0  0  0  0  0  0  0  0  0  0
  148.5111  141.8500  156.4138 N   0  0  0  0  0  0  0  0  0  0  0  0
  149.2245  141.9400  157.5459 C   0  0  0  0  0  0  0  0  0  0  0  0
  149.3580  141.0066  158.3367 O   0  0  0  0  0  0  0  0  0  0  0  0
  149.7789  143.1599  157.6675 N   0  0  0  0  0  0  0  0  0  0  0  0
  150.5821  143.6715  158.7015 C   0  0  0  0  0  0  0  0  0  0  0  0
  150.4801  144.9270  159.2061 C   0  0  0  0  0  0  0  0  0  0  0  0
  151.3551  145.3750  160.2627 C   0  0  0  0  0  0  0  0  0  0  0  0
  152.2795  144.5237  160.7286 C   0  0  0  0  0  0  0  0  0  0  0  0
  152.4099  143.2227  160.2138 N   0  0  0  0  0  0  0  0  0  0  0  0
  153.4509  142.3670  160.7886 C   0  0  0  0  0  0  0  0  0  0  0  0
  151.6091  142.7443  159.2154 C   0  0  0  0  0  0  0  0  0  0  0  0
  151.7473  141.5984  158.7797 O   0  0  0  0  0  0  0  0  0  0  0  0
  145.2664  142.4539  157.1235 H   0  0  0  0  0  0  0  0  0  0  0  0
  143.8479  143.2357  156.4313 H   0  0  0  0  0  0  0  0  0  0  0  0
  145.0889  142.5765  155.3749 H   0  0  0  0  0  0  0  0  0  0  0  0
  143.1136  141.1091  155.4457 H   0  0  0  0  0  0  0  0  0  0  0  0
  143.6515  140.8143  158.4476 H   0  0  0  0  0  0  0  0  0  0  0  0
  142.4051  139.9563  157.5449 H   0  0  0  0  0  0  0  0  0  0  0  0
  142.3092  141.6991  157.7298 H   0  0  0  0  0  0  0  0  0  0  0  0
  145.4733  139.7932  156.9059 H   0  0  0  0  0  0  0  0  0  0  0  0
  144.2403  138.9751  155.9995 H   0  0  0  0  0  0  0  0  0  0  0  0
  146.6893  138.1967  154.9275 H   0  0  0  0  0  0  0  0  0  0  0  0
  145.1117  138.0594  154.1925 H   0  0  0  0  0  0  0  0  0  0  0  0
  146.9181  137.8384  152.4894 H   0  0  0  0  0  0  0  0  0  0  0  0
  145.8474  139.1767  152.1495 H   0  0  0  0  0  0  0  0  0  0  0  0
  148.6169  139.3605  153.4298 H   0  0  0  0  0  0  0  0  0  0  0  0
  148.1744  139.9120  151.8319 H   0  0  0  0  0  0  0  0  0  0  0  0
  148.2112  141.8277  153.4275 H   0  0  0  0  0  0  0  0  0  0  0  0
  146.6265  141.5811  152.7669 H   0  0  0  0  0  0  0  0  0  0  0  0
  146.3495  141.9760  155.0756 H   0  0  0  0  0  0  0  0  0  0  0  0
  147.2918  140.2586  156.8309 H   0  0  0  0  0  0  0  0  0  0  0  0
  148.4919  139.8929  155.6256 H   0  0  0  0  0  0  0  0  0  0  0  0
  148.4610  142.6676  155.8232 H   0  0  0  0  0  0  0  0  0  0  0  0
  149.6397  143.7955  156.8952 H   0  0  0  0  0  0  0  0  0  0  0  0
  149.7609  145.6355  158.8281 H   0  0  0  0  0  0  0  0  0  0  0  0
  151.2666  146.3721  160.6683 H   0  0  0  0  0  0  0  0  0  0  0  0
  152.9706  144.7836  161.5173 H   0  0  0  0  0  0  0  0  0  0  0  0
  153.0091  141.4746  161.2346 H   0  0  0  0  0  0  0  0  0  0  0  0
  154.0270  142.8682  161.5675 H   0  0  0  0  0  0  0  0  0  0  0  0
  154.1554  142.0496  160.0182 H   0  0  0  0  0  0  0  0  0  0  0  0
  144.9745  140.4127  154.1184 H   0  0  0  0  0  0  0  0  0  0  0  0
  1  2  1  0  0  0  0
  1 24  1  0  0  0  0
  1 25  1  0  0  0  0
  1 26  1  0  0  0  0
  2  3  1  0  0  0  0
  2  4  1  0  0  0  0
  2 27  1  0  0  0  0
  3 28  1  0  0  0  0
  3 29  1  0  0  0  0
  3 30  1  0  0  0  0
  4  5  1  0  0  0  0
  4 31  1  0  0  0  0
  4 32  1  0  0  0  0
  5 10  1  0  0  0  0
  5  6  1  0  0  0  0
  5 52  1  0  0  0  0
  6  7  1  0  0  0  0
  6 33  1  0  0  0  0
  6 34  1  0  0  0  0
  7  8  1  0  0  0  0
  7 35  1  0  0  0  0
  7 36  1  0  0  0  0
  8  9  1  0  0  0  0
  8 37  1  0  0  0  0
  8 38  1  0  0  0  0
  9 10  1  0  0  0  0
  9 39  1  0  0  0  0
  9 40  1  0  0  0  0
 10 11  1  0  0  0  0
 10 41  1  0  0  0  0
 11 12  1  0  0  0  0
 11 42  1  0  0  0  0
 11 43  1  0  0  0  0
 12 13  1  0  0  0  0
 12 44  1  0  0  0  0
 13 14  2  0  0  0  0
 13 15  1  0  0  0  0
 15 16  1  0  0  0  0
 15 45  1  0  0  0  0
 16 22  1  0  0  0  0
 16 17  2  0  0  0  0
 17 18  1  0  0  0  0
 17 46  1  0  0  0  0
 18 19  2  0  0  0  0
 18 47  1  0  0  0  0
 19 20  1  0  0  0  0
 19 48  1  0  0  0  0
 20 21  1  0  0  0  0
 20 22  1  0  0  0  0
 21 49  1  0  0  0  0
 21 50  1  0  0  0  0
 21 51  1  0  0  0  0
 22 23  2  0  0  0  0
M  CHG  1   5   1
M  END
> <s_m_source_file>
AV-unprocessed.smi

> <i_m_source_file_index>
2799

> <i_lp_mmshare_version>
43012

> <i_f3d_flags>
0

> <s_epik_input>
W0NIM11bQ0hdKFtDSDNdKVtDSDJdTjFbQ0gyXVtDSDJdW0NIMl1bQ0gyXVtDQEhdMVtDSDJdW05IXUMoPU8pW05IXWMyW2NIXVtjSF1bY0hdbihbQ0gzXSljMj1P

> <s_epik_cmdline>
J2VwaWtfcHl0aG9uJywgJy1waCcsICc3LjAnLCAnLXRuJywgJzgnLCAnLW1hJywgJzIwMCcsICctbWV0YWxfYmluZGluZycsICctaW1hZScsICc8aW5maWxlLm1hZT4nLCAnLW9tYWUnLCAnPG91dGZpbGUubWFlPic=

> <r_lp_tautomer_probability>
1

> <r_epik_Ionization_Penalty>
0.0010885

> <r_epik_Ionization_Penalty_Charging>
0.00106921

> <r_epik_Ionization_Penalty_Neutral>
1.92865e-05

> <r_epik_State_Penalty>
0.000697184

> <r_epik_Charging_Adjusted_Penalty>
0.0017664

> <i_epik_Tot_Q>
1

> <i_epik_Tot_abs_Q>
1

> <r_epik_Metal_State_Penalty>
-0

> <b_epik_Metal_Only>
0

> <s_lp_Force_Field>
OPLS_2005

> <r_lp_Energy>
36.9818

> <b_lp_Chiralities_Consistent>
1

> <s_lp_Variant>
AV-unprocessed.smi:2799-3

> <Gold.Version>
5.8.1

> <Gold.Id.Protein>
6NUR|6NUR_protein|mol2

> <Gold.PLP.Fitness>
45.3737

> <Gold.PLP.PLP>
-35.6135

> <Gold.PLP.part.hbond>
-3.0000

> <Gold.PLP.part.metal>
0.0000

> <Gold.PLP.part.buried>
-1.6377

> <Gold.PLP.part.nonpolar>
-31.1857

> <Gold.PLP.part.repulsive>
0.0610

> <Gold.PLP.ligand.clash>
0.0000

> <Gold.PLP.ligand.torsion>
0.9519

> <Gold.PLP.Chemscore.Hbond>
3.8640

> <Gold.PLP.Chemscore.CHOScore>
0.0000

> <Gold.PLP.Chemscore.Metal>
0.0000

> <Gold.Chemscore.Hbonds>
donor molecule, donor type, donor heavy atom, donor atom, acceptor molecule, acceptor atom, score
      L1  H     5    52       P1 10175  1.72
      L1  H    12    44       P1  8028  0.78
      L1  H    15    45       P1  8028  1.00

> <Gold.PLP.Chemscore.Internal.Correction>
0.0720

> <Gold.Rescore>
     Score         DG    S(hbond)    S(metal)    S(lipo)     H(rot)  DE(clash)    DE(int)     intcor
     15.07     -20.99       2.72        0.00      89.27       1.57       2.17       3.75       ----

> <Gold.Chemscore.Fitness>
15.0742

> <Gold.Chemscore.DG>
-20.9934

> <Gold.Chemscore.ZeroCoef>
-5.4800

> <Gold.Chemscore.Hbond>
2.7200

> <Gold.Chemscore.Metal>
0.0000

> <Gold.Chemscore.Lipo>
89.2720

> <Gold.Chemscore.Internal_Hbond>
0.0000

> <Gold.Chemscore.DEClash>
2.1695

> <Gold.Chemscore.DEInternal>
3.7497

> <Gold.Chemscore.Rot>
1.5688

> <Gold.Chemscore.Internal.Correction>
   9.000000E+99

> <Gold.Chemscore.Hbonds>
donor molecule, donor type, donor heavy atom, donor atom, acceptor molecule, acceptor atom, score
      L1  H     5    52       P1 10175  0.84
      L1  H    12    44       P1  8028  0.73
      L1  H    15    45       P1  8028  0.94

> <Gold.Chemscore.Hbond.Weighted>
-9.0846

> <Gold.Chemscore.Metal.Weighted>
-0.0000

> <Gold.Chemscore.Lipo.Weighted>
-10.4448

> <Gold.Chemscore.Internal_Hbond.Weighted>
0.0000

> <Gold.Chemscore.DEClash.Weighted>
2.1695

> <Gold.Chemscore.DEInternal.Weighted>
3.7497

> <Gold.Chemscore.Rot.Weighted>
4.0161

> <Gold.Chemscore.Internal.Correction.Weighted>
   9.000000E+99

> <Gold.Protein.RotatedTorsions>
[ 6907 6896 6895 6894 ] final  -13.83 input  -60.11 | X-H torsion
[ 7974 7965 7964 7962 ] final -103.91 input  175.53 | X-H torsion
[ 8008 7997 7996 7995 ] final -150.26 input   59.86 | X-H torsion
[ 10167 10162 10161 10158 ] final -116.61 input  -65.29 | X-H torsion
[ 10718 10713 10712 10709 ] final  -67.69 input   66.30 | X-H torsion
[ 10763 10752 10751 10750 ] final  134.38 input  -60.55 | X-H torsion
[ 11005 11000 10999 10996 ] final  165.77 input  -57.11 | X-H torsion

> <Gold.Protein.ActiveResidues>
 VAL166  LYS551  ARG553  GLY616  TRP617  ASP618  TYR619  PRO620  LYS621  CYS622 
 ASP623  PHE694  ASN695  SER759  ASP760  ASP761  ALA762  ILE779  LEU786  VAL792 
 PHE793  MET794  SER795  GLU796  ALA797  LYS798  CYS799  TRP800  GLU811  SER814 

> <Gold.Protein.RotatedAtoms>
  151.3489  135.0880  159.9395 H   0  0  0  0  0  0  0  0  0  0  0  0  # atno 6907 bound_to 6896
  152.5192  133.9372  159.7619 H   0  0  0  0  0  0  0  0  0  0  0  0  # atno 6908 bound_to 6896
  150.9744  133.6257  159.2762 H   0  0  0  0  0  0  0  0  0  0  0  0  # atno 6909 bound_to 6896
  145.2499  140.9234  143.3101 H   0  0  0  0  0  0  0  0  0  0  0  0  # atno 7974 bound_to 7965
  155.6207  140.0681  157.2679 H   0  0  0  0  0  0  0  0  0  0  0  0  # atno 8008 bound_to 7997
  154.4230  140.1785  156.1417 H   0  0  0  0  0  0  0  0  0  0  0  0  # atno 8009 bound_to 7997
  156.0012  140.3336  155.6850 H   0  0  0  0  0  0  0  0  0  0  0  0  # atno 8010 bound_to 7997
  140.0773  143.4821  152.1946 H   0  0  0  0  0  0  0  0  0  0  0  0  # atno 10167 bound_to 10162
  156.0544  130.4282  150.1891 H   0  0  0  0  0  0  0  0  0  0  0  0  # atno 10718 bound_to 10713
  153.8226  135.3114  155.3411 H   0  0  0  0  0  0  0  0  0  0  0  0  # atno 10763 bound_to 10752
  154.8006  135.4729  154.0270 H   0  0  0  0  0  0  0  0  0  0  0  0  # atno 10764 bound_to 10752
  153.1684  135.6873  153.8732 H   0  0  0  0  0  0  0  0  0  0  0  0  # atno 10765 bound_to 10752
  140.2596  134.7913  157.3577 H   0  0  0  0  0  0  0  0  0  0  0  0  # atno 11005 bound_to 11000
  144.9512  139.4081  143.6401 LP  0  0  0  0  0  0  0  0  0  0  0  0  # atno 17320 bound_to 7965
  146.3305  139.8520  142.8871 LP  0  0  0  0  0  0  0  0  0  0  0  0  # atno 17321 bound_to 7965
  139.5800  144.7506  151.3664 LP  0  0  0  0  0  0  0  0  0  0  0  0  # atno 17342 bound_to 10162
  140.7095  143.7426  150.7542 LP  0  0  0  0  0  0  0  0  0  0  0  0  # atno 17343 bound_to 10162
  156.9970  130.9910  151.3400 LP  0  0  0  0  0  0  0  0  0  0  0  0  # atno 17370 bound_to 10713
  157.5501  130.8176  149.8134 LP  0  0  0  0  0  0  0  0  0  0  0  0  # atno 17371 bound_to 10713
  140.1478  134.4889  155.7983 LP  0  0  0  0  0  0  0  0  0  0  0  0  # atno 17394 bound_to 11000
  141.2192  133.6850  156.7325 LP  0  0  0  0  0  0  0  0  0  0  0  0  # atno 17395 bound_to 11000

$$$$
