AV-unprocessed.smi:1756|AV-procd|sdf|7073|dock6
  -GOLD-   22720 8293D 1   1.00000     0.00000
 Structure written by MMmdl.
 37 38  0  0  0  0  0  0  0  0  2 V2000
  150.4848  136.7726  156.5855 O   0  0  0  0  0  0  0  0  0  0  0  0
  150.6308  136.5428  155.3854 C   0  0  0  0  0  0  0  0  0  0  0  0
  150.8177  137.5056  154.4713 N   0  0  0  0  0  0  0  0  0  0  0  0
  150.8609  138.9391  154.7438 C   0  0  0  0  0  0  0  0  0  0  0  0
  149.4684  139.5128  155.0626 C   0  0  2  0  0  0  0  0  0  0  0  0
  148.4845  139.4424  153.8747 C   0  0  0  0  0  0  0  0  0  0  0  0
  147.1581  140.1248  154.2277 C   0  0  0  0  0  0  0  0  0  0  0  0
  147.4250  141.5430  154.7413 C   0  0  0  0  0  0  0  0  0  0  0  0
  148.4516  141.5092  155.8836 C   0  0  0  0  0  0  0  0  0  0  0  0
  149.6481  140.8764  155.4402 O   0  0  0  0  0  0  0  0  0  0  0  0
  150.6444  135.3288  154.8053 N   0  0  0  0  0  0  0  0  0  0  0  0
  150.4700  134.0550  155.3746 C   0  0  0  0  0  0  0  0  0  0  0  0
  149.7115  133.0558  154.8433 C   0  0  0  0  0  0  0  0  0  0  0  0
  149.5815  131.7512  155.4802 C   0  0  0  0  0  0  0  0  0  0  0  0
  148.8117  130.5911  154.8740 C   0  0  0  0  0  0  0  0  0  0  0  0
  149.6135  129.5515  154.6414 F   0  0  0  0  0  0  0  0  0  0  0  0
  147.8525  130.1971  155.7101 F   0  0  0  0  0  0  0  0  0  0  0  0
  148.2398  130.9464  153.7233 F   0  0  0  0  0  0  0  0  0  0  0  0
  150.3270  131.6569  156.6391 C   0  0  0  0  0  0  0  0  0  0  0  0
  151.0918  132.5964  157.2372 N   0  5  0  0  0  0  0  0  0  0  0  0
  151.2001  133.8151  156.6370 C   0  0  0  0  0  0  0  0  0  0  0  0
  151.8891  134.7126  157.1240 O   0  0  0  0  0  0  0  0  0  0  0  0
  150.9365  137.2248  153.5089 H   0  0  0  0  0  0  0  0  0  0  0  0
  151.5153  139.0842  155.6038 H   0  0  0  0  0  0  0  0  0  0  0  0
  151.3208  139.4865  153.9193 H   0  0  0  0  0  0  0  0  0  0  0  0
  149.0534  138.9688  155.9131 H   0  0  0  0  0  0  0  0  0  0  0  0
  148.9253  139.9287  153.0035 H   0  0  0  0  0  0  0  0  0  0  0  0
  148.2949  138.4070  153.5918 H   0  0  0  0  0  0  0  0  0  0  0  0
  146.5003  140.1511  153.3586 H   0  0  0  0  0  0  0  0  0  0  0  0
  146.6420  139.5470  154.9954 H   0  0  0  0  0  0  0  0  0  0  0  0
  147.8050  142.1627  153.9280 H   0  0  0  0  0  0  0  0  0  0  0  0
  146.4966  142.0034  155.0798 H   0  0  0  0  0  0  0  0  0  0  0  0
  148.6881  142.5237  156.2047 H   0  0  0  0  0  0  0  0  0  0  0  0
  148.0507  140.9862  156.7533 H   0  0  0  0  0  0  0  0  0  0  0  0
  150.8250  135.3120  153.8122 H   0  0  0  0  0  0  0  0  0  0  0  0
  149.1823  133.1912  153.9151 H   0  0  0  0  0  0  0  0  0  0  0  0
  150.3107  130.6770  157.1622 H   0  0  0  0  0  0  0  0  0  0  0  0
  1  2  2  0  0  0  0
  2  3  1  0  0  0  0
  2 11  1  0  0  0  0
  3  4  1  0  0  0  0
  3 23  1  0  0  0  0
  4  5  1  0  0  0  0
  4 24  1  0  0  0  0
  4 25  1  0  0  0  0
  5 10  1  0  0  0  0
  5  6  1  0  0  0  0
  5 26  1  0  0  0  0
  6  7  1  0  0  0  0
  6 27  1  0  0  0  0
  6 28  1  0  0  0  0
  7  8  1  0  0  0  0
  7 29  1  0  0  0  0
  7 30  1  0  0  0  0
  8  9  1  0  0  0  0
  8 31  1  0  0  0  0
  8 32  1  0  0  0  0
  9 10  1  0  0  0  0
  9 33  1  0  0  0  0
  9 34  1  0  0  0  0
 11 12  1  0  0  0  0
 11 35  1  0  0  0  0
 12 21  1  0  0  0  0
 12 13  2  0  0  0  0
 13 14  1  0  0  0  0
 13 36  1  0  0  0  0
 14 15  1  0  0  0  0
 14 19  2  0  0  0  0
 15 16  1  0  0  0  0
 15 17  1  0  0  0  0
 15 18  1  0  0  0  0
 19 20  1  0  0  0  0
 19 37  1  0  0  0  0
 20 21  1  0  0  0  0
 21 22  2  0  0  0  0
M  CHG  1  20  -1
M  END
> <s_m_source_file>
AV-unprocessed.smi

> <i_m_source_file_index>
1756

> <i_lp_mmshare_version>
43012

> <i_f3d_flags>
0

> <s_epik_input>
Tz1jMVtuSF1bY0hdYyhDKEYpKEYpRilbY0hdYzFbTkhdQyg9TylbTkhdW0NIMl1bQ0BASF0yW0NIMl1bQ0gyXVtDSDJdW0NIMl1PMg==

> <s_epik_cmdline>
J2VwaWtfcHl0aG9uJywgJy1waCcsICc3LjAnLCAnLXRuJywgJzgnLCAnLW1hJywgJzIwMCcsICctbWV0YWxfYmluZGluZycsICctaW1hZScsICc8aW5maWxlLm1hZT4nLCAnLW9tYWUnLCAnPG91dGZpbGUubWFlPic=

> <r_lp_tautomer_probability>
1

> <r_epik_Ionization_Penalty>
3.16985

> <r_epik_Ionization_Penalty_Charging>
0.174782

> <r_epik_Ionization_Penalty_Neutral>
2.99507

> <r_epik_State_Penalty>
2.99125

> <r_epik_Charging_Adjusted_Penalty>
3.16603

> <i_epik_Tot_Q>
-1

> <i_epik_Tot_abs_Q>
1

> <r_epik_Metal_State_Penalty>
0.453096

> <b_epik_Metal_Only>
1

> <s_lp_Force_Field>
OPLS_2005

> <r_lp_Energy>
21.0117

> <b_lp_Chiralities_Consistent>
1

> <s_lp_Variant>
AV-unprocessed.smi:1756-3

> <Gold.Version>
5.8.1

> <Gold.Id.Protein>
6NUR|6NUR_protein|mol2

> <Gold.PLP.Fitness>
41.9483

> <Gold.PLP.PLP>
-31.6203

> <Gold.PLP.part.hbond>
-5.2530

> <Gold.PLP.part.metal>
0.0000

> <Gold.PLP.part.buried>
0.0467

> <Gold.PLP.part.nonpolar>
-27.4325

> <Gold.PLP.part.repulsive>
0.3425

> <Gold.PLP.ligand.clash>
0.0000

> <Gold.PLP.ligand.torsion>
0.4773

> <Gold.PLP.Chemscore.Hbond>
3.7439

> <Gold.PLP.Chemscore.CHOScore>
0.0000

> <Gold.PLP.Chemscore.Metal>
0.0000

> <Gold.Chemscore.Hbonds>
donor molecule, donor type, donor heavy atom, donor atom, acceptor molecule, acceptor atom, score
      L1  H     3    23       P1  7949  0.13
      L1  H    11    35       P1  7949  0.01
      P1  H  6896  6907       L1    20  1.07

> <Gold.PLP.Chemscore.Internal.Correction>
0.0510

> <Gold.Rescore>
     Score         DG    S(hbond)    S(metal)    S(lipo)     H(rot)  DE(clash)    DE(int)     intcor
      7.22     -13.13       1.33        0.00      56.49       1.32       0.20       5.71       ----

> <Gold.Chemscore.Fitness>
7.2239

> <Gold.Chemscore.DG>
-13.1305

> <Gold.Chemscore.ZeroCoef>
-5.4800

> <Gold.Chemscore.Hbond>
1.3270

> <Gold.Chemscore.Metal>
0.0000

> <Gold.Chemscore.Lipo>
56.4933

> <Gold.Chemscore.Internal_Hbond>
0.0000

> <Gold.Chemscore.DEClash>
0.1981

> <Gold.Chemscore.DEInternal>
5.7085

> <Gold.Chemscore.Rot>
1.3248

> <Gold.Chemscore.Internal.Correction>
   9.000000E+99

> <Gold.Chemscore.Hbonds>
donor molecule, donor type, donor heavy atom, donor atom, acceptor molecule, acceptor atom, score
      L1  H     3    23       P1  7949  0.04
      P1  H  6896  6907       L1    20  0.05
      P1  H 10752 10763       L1    22  0.01

> <Gold.Chemscore.Hbond.Weighted>
-4.4323

> <Gold.Chemscore.Metal.Weighted>
-0.0000

> <Gold.Chemscore.Lipo.Weighted>
-6.6097

> <Gold.Chemscore.Internal_Hbond.Weighted>
0.0000

> <Gold.Chemscore.DEClash.Weighted>
0.1981

> <Gold.Chemscore.DEInternal.Weighted>
5.7085

> <Gold.Chemscore.Rot.Weighted>
3.3915

> <Gold.Chemscore.Internal.Correction.Weighted>
   9.000000E+99

> <Gold.Protein.RotatedTorsions>
[ 6907 6896 6895 6894 ] final -158.46 input  -60.11 | X-H torsion
[ 7974 7965 7964 7962 ] final  119.31 input  175.53 | X-H torsion
[ 8008 7997 7996 7995 ] final  -11.39 input   59.86 | X-H torsion
[ 10167 10162 10161 10158 ] final  167.68 input  -65.29 | X-H torsion
[ 10718 10713 10712 10709 ] final  -37.79 input   66.30 | X-H torsion
[ 10763 10752 10751 10750 ] final  104.39 input  -60.55 | X-H torsion
[ 11005 11000 10999 10996 ] final  167.18 input  -57.11 | X-H torsion

> <Gold.Protein.ActiveResidues>
 VAL166  LYS551  ARG553  GLY616  TRP617  ASP618  TYR619  PRO620  LYS621  CYS622 
 ASP623  PHE694  ASN695  SER759  ASP760  ASP761  ALA762  ILE779  LEU786  VAL792 
 PHE793  MET794  SER795  GLU796  ALA797  LYS798  CYS799  TRP800  GLU811  SER814 

> <Gold.Protein.RotatedAtoms>
  151.3186  133.4050  159.2652 H   0  0  0  0  0  0  0  0  0  0  0  0  # atno 6907 bound_to 6896
  151.0054  134.9355  159.7987 H   0  0  0  0  0  0  0  0  0  0  0  0  # atno 6908 bound_to 6896
  152.5286  134.3151  159.9180 H   0  0  0  0  0  0  0  0  0  0  0  0  # atno 6909 bound_to 6896
  145.1447  139.3246  143.4598 H   0  0  0  0  0  0  0  0  0  0  0  0  # atno 7974 bound_to 7965
  154.5469  140.2304  155.8548 H   0  0  0  0  0  0  0  0  0  0  0  0  # atno 8008 bound_to 7997
  156.1911  140.3077  155.9295 H   0  0  0  0  0  0  0  0  0  0  0  0  # atno 8009 bound_to 7997
  155.3147  140.0437  157.3027 H   0  0  0  0  0  0  0  0  0  0  0  0  # atno 8010 bound_to 7997
  139.4950  144.3896  151.9532 H   0  0  0  0  0  0  0  0  0  0  0  0  # atno 10167 bound_to 10162
  156.3112  130.4253  149.8049 H   0  0  0  0  0  0  0  0  0  0  0  0  # atno 10718 bound_to 10713
  153.3653  135.3945  155.1749 H   0  0  0  0  0  0  0  0  0  0  0  0  # atno 10763 bound_to 10752
  154.8686  135.3689  154.5047 H   0  0  0  0  0  0  0  0  0  0  0  0  # atno 10764 bound_to 10752
  153.5510  135.7083  153.5652 H   0  0  0  0  0  0  0  0  0  0  0  0  # atno 10765 bound_to 10752
  140.2741  134.7803  157.3701 H   0  0  0  0  0  0  0  0  0  0  0  0  # atno 11005 bound_to 11000
  146.3501  140.1498  142.8592 LP  0  0  0  0  0  0  0  0  0  0  0  0  # atno 17320 bound_to 7965
  145.0495  140.9006  143.5004 LP  0  0  0  0  0  0  0  0  0  0  0  0  # atno 17321 bound_to 7965
  140.3333  144.3290  150.5982 LP  0  0  0  0  0  0  0  0  0  0  0  0  # atno 17342 bound_to 10162
  140.5627  143.2190  151.7738 LP  0  0  0  0  0  0  0  0  0  0  0  0  # atno 17343 bound_to 10162
  156.5391  130.8292  151.3263 LP  0  0  0  0  0  0  0  0  0  0  0  0  # atno 17370 bound_to 10713
  157.7391  130.9826  150.2294 LP  0  0  0  0  0  0  0  0  0  0  0  0  # atno 17371 bound_to 10713
  140.1345  134.5052  155.8079 LP  0  0  0  0  0  0  0  0  0  0  0  0  # atno 17394 bound_to 11000
  141.2173  133.6802  156.7099 LP  0  0  0  0  0  0  0  0  0  0  0  0  # atno 17395 bound_to 11000

$$$$
