AV-unprocessed.smi:2516|AV-procd|sdf|9899|dock5
  -GOLD-   2272013533D 1   1.00000     0.00000
 Structure written by MMmdl.
 47 48  0  0  0  0  0  0  0  0  1 V2000
  145.4755  128.8566  151.9672 C   0  0  0  0  0  0  0  0  0  0  0  0
  146.6252  129.7340  152.4756 C   0  0  0  0  0  0  0  0  0  0  0  0
  146.3667  131.1438  152.2403 N   0  0  0  0  0  0  0  0  0  0  0  0
  145.2759  131.4970  151.5190 N   0  0  0  0  0  0  0  0  0  0  0  0
  145.2913  132.8210  151.4714 C   0  0  0  0  0  0  0  0  0  0  0  0
  144.1543  133.5348  150.7941 C   0  0  0  0  0  0  0  0  0  0  0  0
  146.4428  133.3281  152.1445 C   0  0  0  0  0  0  0  0  0  0  0  0
  146.8336  134.6738  152.3589 N   0  0  0  0  0  0  0  0  0  0  0  0
  146.0661  135.6686  152.8297 C   0  0  0  0  0  0  0  0  0  0  0  0
  144.8845  135.5534  153.1531 O   0  0  0  0  0  0  0  0  0  0  0  0
  146.7445  136.8240  152.8835 N   0  0  0  0  0  0  0  0  0  0  0  0
  146.2006  138.1113  153.3158 C   0  0  1  0  0  0  0  0  0  0  0  0
  145.4875  137.9180  154.6673 C   0  0  0  0  0  0  0  0  0  0  0  0
  147.3263  139.1779  153.3622 C   0  0  0  0  0  0  0  0  0  0  0  0
  148.4565  138.8086  154.3451 C   0  0  0  0  0  0  0  0  0  0  0  0
  149.5130  139.9224  154.4285 C   0  0  0  0  0  0  0  0  0  0  0  0
  148.9017  141.1500  154.8042 O   0  0  0  0  0  0  0  0  0  0  0  0
  147.9428  141.5967  153.8537 C   0  0  0  0  0  0  0  0  0  0  0  0
  146.7976  140.5772  153.7453 C   0  0  0  0  0  0  0  0  0  0  0  0
  147.0972  132.2442  152.6544 C   0  0  0  0  0  0  0  0  0  0  0  0
  148.3394  132.1361  153.4790 C   0  0  0  0  0  0  0  0  0  0  0  0
  145.6838  127.8018  152.1468 H   0  0  0  0  0  0  0  0  0  0  0  0
  145.3227  128.9880  150.8957 H   0  0  0  0  0  0  0  0  0  0  0  0
  144.5404  129.1019  152.4715 H   0  0  0  0  0  0  0  0  0  0  0  0
  146.7744  129.5758  153.5446 H   0  0  0  0  0  0  0  0  0  0  0  0
  147.5594  129.4564  151.9872 H   0  0  0  0  0  0  0  0  0  0  0  0
  143.9363  134.4836  151.2837 H   0  0  0  0  0  0  0  0  0  0  0  0
  143.2399  132.9412  150.8177 H   0  0  0  0  0  0  0  0  0  0  0  0
  144.3872  133.7400  149.7495 H   0  0  0  0  0  0  0  0  0  0  0  0
  147.7484  134.9289  152.0179 H   0  0  0  0  0  0  0  0  0  0  0  0
  147.7112  136.8178  152.5933 H   0  0  0  0  0  0  0  0  0  0  0  0
  145.4593  138.4433  152.5863 H   0  0  0  0  0  0  0  0  0  0  0  0
  144.9559  138.8170  154.9768 H   0  0  0  0  0  0  0  0  0  0  0  0
  146.1943  137.6567  155.4557 H   0  0  0  0  0  0  0  0  0  0  0  0
  144.7461  137.1203  154.6098 H   0  0  0  0  0  0  0  0  0  0  0  0
  147.7630  139.2510  152.3646 H   0  0  0  0  0  0  0  0  0  0  0  0
  148.0405  138.6306  155.3376 H   0  0  0  0  0  0  0  0  0  0  0  0
  148.9474  137.8846  154.0415 H   0  0  0  0  0  0  0  0  0  0  0  0
  150.2686  139.6658  155.1714 H   0  0  0  0  0  0  0  0  0  0  0  0
  150.0320  140.0384  153.4758 H   0  0  0  0  0  0  0  0  0  0  0  0
  147.5542  142.5632  154.1750 H   0  0  0  0  0  0  0  0  0  0  0  0
  148.4189  141.7518  152.8843 H   0  0  0  0  0  0  0  0  0  0  0  0
  146.0750  140.9356  153.0118 H   0  0  0  0  0  0  0  0  0  0  0  0
  146.2706  140.5236  154.6989 H   0  0  0  0  0  0  0  0  0  0  0  0
  148.8353  133.1019  153.5745 H   0  0  0  0  0  0  0  0  0  0  0  0
  149.0481  131.4423  153.0266 H   0  0  0  0  0  0  0  0  0  0  0  0
  148.1067  131.7782  154.4819 H   0  0  0  0  0  0  0  0  0  0  0  0
  1  2  1  0  0  0  0
  1 22  1  0  0  0  0
  1 23  1  0  0  0  0
  1 24  1  0  0  0  0
  2  3  1  0  0  0  0
  2 25  1  0  0  0  0
  2 26  1  0  0  0  0
  3 20  1  0  0  0  0
  3  4  1  0  0  0  0
  4  5  2  0  0  0  0
  5  6  1  0  0  0  0
  5  7  1  0  0  0  0
  6 27  1  0  0  0  0
  6 28  1  0  0  0  0
  6 29  1  0  0  0  0
  7  8  1  0  0  0  0
  7 20  2  0  0  0  0
  8  9  1  0  0  0  0
  8 30  1  0  0  0  0
  9 10  2  0  0  0  0
  9 11  1  0  0  0  0
 11 12  1  0  0  0  0
 11 31  1  0  0  0  0
 12 13  1  0  0  0  0
 12 14  1  0  0  0  0
 12 32  1  0  0  0  0
 13 33  1  0  0  0  0
 13 34  1  0  0  0  0
 13 35  1  0  0  0  0
 14 19  1  0  0  0  0
 14 15  1  0  0  0  0
 14 36  1  0  0  0  0
 15 16  1  0  0  0  0
 15 37  1  0  0  0  0
 15 38  1  0  0  0  0
 16 17  1  0  0  0  0
 16 39  1  0  0  0  0
 16 40  1  0  0  0  0
 17 18  1  0  0  0  0
 18 19  1  0  0  0  0
 18 41  1  0  0  0  0
 18 42  1  0  0  0  0
 19 43  1  0  0  0  0
 19 44  1  0  0  0  0
 20 21  1  0  0  0  0
 21 45  1  0  0  0  0
 21 46  1  0  0  0  0
 21 47  1  0  0  0  0
M  END
> <s_m_source_file>
AV-unprocessed.smi

> <i_m_source_file_index>
2516

> <i_lp_mmshare_version>
43012

> <i_f3d_flags>
0

> <s_epik_input>
W0NIM11bQ0gyXW4xbmMoW0NIM10pYyhjMVtDSDNdKVtOSF1DKD1PKVtOSF1bQ0BIXShbQ0gzXSlbQ0hdMltDSDJdW0NIMl1PW0NIMl1bQ0gyXTI=

> <s_epik_cmdline>
J2VwaWtfcHl0aG9uJywgJy1waCcsICc3LjAnLCAnLXRuJywgJzgnLCAnLW1hJywgJzIwMCcsICctbWV0YWxfYmluZGluZycsICctaW1hZScsICc8aW5maWxlLm1hZT4nLCAnLW9tYWUnLCAnPG91dGZpbGUubWFlPic=

> <r_lp_tautomer_probability>
1

> <r_epik_Ionization_Penalty>
0.00383358

> <r_epik_Ionization_Penalty_Charging>
0

> <r_epik_Ionization_Penalty_Neutral>
0.00383358

> <r_epik_State_Penalty>
0.00270714

> <r_epik_Charging_Adjusted_Penalty>
0.00270714

> <i_epik_Tot_Q>
0

> <i_epik_Tot_abs_Q>
0

> <r_epik_Metal_State_Penalty>
-0

> <b_epik_Metal_Only>
0

> <s_lp_Force_Field>
OPLS_2005

> <r_lp_Energy>
15.2282

> <b_lp_Chiralities_Consistent>
1

> <s_lp_Variant>
AV-unprocessed.smi:2516-2

> <Gold.Version>
5.8.1

> <Gold.Id.Protein>
6NUR|6NUR_protein|mol2

> <Gold.PLP.Fitness>
39.9200

> <Gold.PLP.PLP>
-34.8193

> <Gold.PLP.part.hbond>
-1.9025

> <Gold.PLP.part.metal>
0.0000

> <Gold.PLP.part.buried>
-4.1074

> <Gold.PLP.part.nonpolar>
-29.0648

> <Gold.PLP.part.repulsive>
0.3733

> <Gold.PLP.ligand.clash>
0.0000

> <Gold.PLP.ligand.torsion>
0.5551

> <Gold.PLP.Chemscore.Hbond>
1.9600

> <Gold.PLP.Chemscore.CHOScore>
0.0000

> <Gold.PLP.Chemscore.Metal>
0.0000

> <Gold.Chemscore.Hbonds>
donor molecule, donor type, donor heavy atom, donor atom, acceptor molecule, acceptor atom, score
      L1  H     8    30       P1  7948  0.96
      L1  H    11    31       P1  7948  1.00

> <Gold.PLP.Chemscore.Internal.Correction>
0.3308

> <Gold.Rescore>
     Score         DG    S(hbond)    S(metal)    S(lipo)     H(rot)  DE(clash)    DE(int)     intcor
     16.18     -17.92       1.73        0.00      85.43       1.30       0.02       1.73       ----

> <Gold.Chemscore.Fitness>
16.1791

> <Gold.Chemscore.DG>
-17.9200

> <Gold.Chemscore.ZeroCoef>
-5.4800

> <Gold.Chemscore.Hbond>
1.7277

> <Gold.Chemscore.Metal>
0.0000

> <Gold.Chemscore.Lipo>
85.4259

> <Gold.Chemscore.Internal_Hbond>
0.0000

> <Gold.Chemscore.DEClash>
0.0156

> <Gold.Chemscore.DEInternal>
1.7253

> <Gold.Chemscore.Rot>
1.2990

> <Gold.Chemscore.Internal.Correction>
   9.000000E+99

> <Gold.Chemscore.Hbonds>
donor molecule, donor type, donor heavy atom, donor atom, acceptor molecule, acceptor atom, score
      L1  H     8    30       P1  7948  0.69
      L1  H    11    31       P1  7948  0.93

> <Gold.Chemscore.Hbond.Weighted>
-5.7705

> <Gold.Chemscore.Metal.Weighted>
-0.0000

> <Gold.Chemscore.Lipo.Weighted>
-9.9948

> <Gold.Chemscore.Internal_Hbond.Weighted>
0.0000

> <Gold.Chemscore.DEClash.Weighted>
0.0156

> <Gold.Chemscore.DEInternal.Weighted>
1.7253

> <Gold.Chemscore.Rot.Weighted>
3.3254

> <Gold.Chemscore.Internal.Correction.Weighted>
   9.000000E+99

> <Gold.Protein.RotatedTorsions>
[ 6907 6896 6895 6894 ] final   32.97 input  -60.11 | X-H torsion
[ 7974 7965 7964 7962 ] final  -18.36 input  175.53 | X-H torsion
[ 8008 7997 7996 7995 ] final   77.58 input   59.86 | X-H torsion
[ 10167 10162 10161 10158 ] final  104.98 input  -65.29 | X-H torsion
[ 10718 10713 10712 10709 ] final -104.34 input   66.30 | X-H torsion
[ 10763 10752 10751 10750 ] final  -78.76 input  -60.55 | X-H torsion
[ 11005 11000 10999 10996 ] final  120.79 input  -57.11 | X-H torsion

> <Gold.Protein.ActiveResidues>
 VAL166  LYS551  ARG553  GLY616  TRP617  ASP618  TYR619  PRO620  LYS621  CYS622 
 ASP623  PHE694  ASN695  SER759  ASP760  ASP761  ALA762  ILE779  LEU786  VAL792 
 PHE793  MET794  SER795  GLU796  ALA797  LYS798  CYS799  TRP800  GLU811  SER814 

> <Gold.Protein.RotatedAtoms>
  152.0820  134.9465  160.0573 H   0  0  0  0  0  0  0  0  0  0  0  0  # atno 6907 bound_to 6896
  152.0750  133.4120  159.4484 H   0  0  0  0  0  0  0  0  0  0  0  0  # atno 6908 bound_to 6896
  150.6836  134.2968  159.4733 H   0  0  0  0  0  0  0  0  0  0  0  0  # atno 6909 bound_to 6896
  146.1896  140.3910  142.8463 H   0  0  0  0  0  0  0  0  0  0  0  0  # atno 7974 bound_to 7965
  155.8436  140.3461  155.5648 H   0  0  0  0  0  0  0  0  0  0  0  0  # atno 8008 bound_to 7997
  155.8114  140.0899  157.1921 H   0  0  0  0  0  0  0  0  0  0  0  0  # atno 8009 bound_to 7997
  154.4005  140.1447  156.3378 H   0  0  0  0  0  0  0  0  0  0  0  0  # atno 8010 bound_to 7997
  139.7131  144.7073  151.0994 H   0  0  0  0  0  0  0  0  0  0  0  0  # atno 10167 bound_to 10162
  156.0300  130.5510  150.7382 H   0  0  0  0  0  0  0  0  0  0  0  0  # atno 10718 bound_to 10713
  154.5299  135.5719  153.6751 H   0  0  0  0  0  0  0  0  0  0  0  0  # atno 10763 bound_to 10752
  152.9937  135.6202  154.2642 H   0  0  0  0  0  0  0  0  0  0  0  0  # atno 10764 bound_to 10752
  154.2568  135.2857  155.2774 H   0  0  0  0  0  0  0  0  0  0  0  0  # atno 10765 bound_to 10752
  139.9199  134.9636  156.7860 H   0  0  0  0  0  0  0  0  0  0  0  0  # atno 11005 bound_to 11000
  144.8461  140.6932  143.6198 LP  0  0  0  0  0  0  0  0  0  0  0  0  # atno 17320 bound_to 7965
  145.3833  139.1632  143.4268 LP  0  0  0  0  0  0  0  0  0  0  0  0  # atno 17321 bound_to 7965
  140.7738  143.5266  150.9473 LP  0  0  0  0  0  0  0  0  0  0  0  0  # atno 17342 bound_to 10162
  139.8951  143.6905  152.3140 LP  0  0  0  0  0  0  0  0  0  0  0  0  # atno 17343 bound_to 10162
  157.4957  131.0914  151.0374 LP  0  0  0  0  0  0  0  0  0  0  0  0  # atno 17370 bound_to 10713
  157.0768  130.5887  149.5413 LP  0  0  0  0  0  0  0  0  0  0  0  0  # atno 17371 bound_to 10713
  140.6505  133.9735  155.7753 LP  0  0  0  0  0  0  0  0  0  0  0  0  # atno 17394 bound_to 11000
  141.0711  134.0204  157.3525 LP  0  0  0  0  0  0  0  0  0  0  0  0  # atno 17395 bound_to 11000

$$$$
