AV-unprocessed.smi:3232|AV-procd|sdf|12342|dock5
  -GOLD-   2272018203D 1   1.00000     0.00000
 Structure written by MMmdl.
 40 41  0  0  0  0  0  0  0  0  2 V2000
  146.2070  133.7832  150.8070 C   0  0  0  0  0  0  0  0  0  0  0  0
  145.8656  134.0744  152.2746 C   0  0  0  0  0  0  0  0  0  0  0  0
  146.2887  135.4338  152.6897 N   0  3  1  0  0  0  0  0  0  0  0  0
  145.6080  136.5384  151.9822 C   0  0  0  0  0  0  0  0  0  0  0  0
  145.7461  137.7412  152.9060 C   0  0  0  0  0  0  0  0  0  0  0  0
  145.6136  137.1228  154.2929 C   0  0  0  0  0  0  0  0  0  0  0  0
  146.1701  135.6916  154.1472 C   0  0  2  0  0  0  0  0  0  0  0  0
  147.5317  135.4814  154.8426 C   0  0  0  0  0  0  0  0  0  0  0  0
  148.5417  136.4203  154.3687 N   0  0  0  0  0  0  0  0  0  0  0  0
  149.1699  137.3275  155.1327 C   0  0  0  0  0  0  0  0  0  0  0  0
  148.9903  137.4205  156.3476 O   0  0  0  0  0  0  0  0  0  0  0  0
  150.1222  138.2835  154.3983 C   0  0  2  0  0  0  0  0  0  0  0  0
  151.5869  138.1422  154.8519 C   0  0  0  0  0  0  0  0  0  0  0  0
  149.6596  139.6567  154.5471 N   0  0  0  0  0  0  0  0  0  0  0  0
  148.4829  140.2210  154.2596 C   0  0  0  0  0  0  0  0  0  0  0  0
  148.4328  141.5198  154.5181 N   0  0  0  0  0  0  0  0  0  0  0  0
  149.6962  141.7042  155.0041 C   0  0  0  0  0  0  0  0  0  0  0  0
  150.4735  140.6217  155.0378 N   0  0  0  0  0  0  0  0  0  0  0  0
  145.9441  132.7577  150.5469 H   0  0  0  0  0  0  0  0  0  0  0  0
  147.2731  133.9092  150.6174 H   0  0  0  0  0  0  0  0  0  0  0  0
  145.6637  134.4410  150.1285 H   0  0  0  0  0  0  0  0  0  0  0  0
  144.7968  133.9445  152.4500 H   0  0  0  0  0  0  0  0  0  0  0  0
  146.3767  133.3428  152.9018 H   0  0  0  0  0  0  0  0  0  0  0  0
  146.0428  136.7191  150.9988 H   0  0  0  0  0  0  0  0  0  0  0  0
  144.5516  136.2995  151.8480 H   0  0  0  0  0  0  0  0  0  0  0  0
  146.7354  138.1862  152.7913 H   0  0  0  0  0  0  0  0  0  0  0  0
  145.0023  138.5147  152.7116 H   0  0  0  0  0  0  0  0  0  0  0  0
  146.1183  137.7173  155.0550 H   0  0  0  0  0  0  0  0  0  0  0  0
  144.5594  137.0750  154.5693 H   0  0  0  0  0  0  0  0  0  0  0  0
  145.4382  135.0031  154.5738 H   0  0  0  0  0  0  0  0  0  0  0  0
  147.4275  135.5766  155.9249 H   0  0  0  0  0  0  0  0  0  0  0  0
  147.8947  134.4702  154.6558 H   0  0  0  0  0  0  0  0  0  0  0  0
  148.7507  136.4086  153.3803 H   0  0  0  0  0  0  0  0  0  0  0  0
  150.0816  138.0252  153.3383 H   0  0  0  0  0  0  0  0  0  0  0  0
  151.9425  137.1186  154.7279 H   0  0  0  0  0  0  0  0  0  0  0  0
  151.7153  138.4154  155.9001 H   0  0  0  0  0  0  0  0  0  0  0  0
  152.2387  138.7871  154.2620 H   0  0  0  0  0  0  0  0  0  0  0  0
  147.6494  139.6712  153.8471 H   0  0  0  0  0  0  0  0  0  0  0  0
  150.0558  142.6663  155.3383 H   0  0  0  0  0  0  0  0  0  0  0  0
  147.2714  135.5230  152.4745 H   0  0  0  0  0  0  0  0  0  0  0  0
  1  2  1  0  0  0  0
  1 19  1  0  0  0  0
  1 20  1  0  0  0  0
  1 21  1  0  0  0  0
  2  3  1  0  0  0  0
  2 22  1  0  0  0  0
  2 23  1  0  0  0  0
  3  7  1  0  0  0  0
  3  4  1  0  0  0  0
  3 40  1  0  0  0  0
  4  5  1  0  0  0  0
  4 24  1  0  0  0  0
  4 25  1  0  0  0  0
  5  6  1  0  0  0  0
  5 26  1  0  0  0  0
  5 27  1  0  0  0  0
  6  7  1  0  0  0  0
  6 28  1  0  0  0  0
  6 29  1  0  0  0  0
  7  8  1  0  0  0  0
  7 30  1  0  0  0  0
  8  9  1  0  0  0  0
  8 31  1  0  0  0  0
  8 32  1  0  0  0  0
  9 10  1  0  0  0  0
  9 33  1  0  0  0  0
 10 11  2  0  0  0  0
 10 12  1  0  0  0  0
 12 13  1  0  0  0  0
 12 14  1  0  0  0  0
 12 34  1  0  0  0  0
 13 35  1  0  0  0  0
 13 36  1  0  0  0  0
 13 37  1  0  0  0  0
 14 18  1  0  0  0  0
 14 15  1  0  0  0  0
 15 16  2  0  0  0  0
 15 38  1  0  0  0  0
 16 17  1  0  0  0  0
 17 18  2  0  0  0  0
 17 39  1  0  0  0  0
M  CHG  1   3   1
M  END
> <s_m_source_file>
AV-unprocessed.smi

> <i_m_source_file_index>
3232

> <i_lp_mmshare_version>
43012

> <i_f3d_flags>
0

> <s_epik_input>
W0NIM11bQ0gyXU4xW0NIMl1bQ0gyXVtDSDJdW0NASF0xW0NIMl1bTkhdQyg9TylbQ0BIXShbQ0gzXSluMltjSF1uW2NIXW4y

> <s_epik_cmdline>
J2VwaWtfcHl0aG9uJywgJy1waCcsICc3LjAnLCAnLXRuJywgJzgnLCAnLW1hJywgJzIwMCcsICctbWV0YWxfYmluZGluZycsICctaW1hZScsICc8aW5maWxlLm1hZT4nLCAnLW9tYWUnLCAnPG91dGZpbGUubWFlPic=

> <r_lp_tautomer_probability>
1

> <r_epik_Ionization_Penalty>
0.00177695

> <r_epik_Ionization_Penalty_Charging>
0.00176881

> <r_epik_Ionization_Penalty_Neutral>
8.13528e-06

> <r_epik_State_Penalty>
0.00119827

> <r_epik_Charging_Adjusted_Penalty>
0.00296709

> <i_epik_Tot_Q>
1

> <i_epik_Tot_abs_Q>
1

> <r_epik_Metal_State_Penalty>
-0

> <b_epik_Metal_Only>
0

> <s_lp_Force_Field>
OPLS_2005

> <r_lp_Energy>
32.398

> <b_lp_Chiralities_Consistent>
1

> <s_lp_Variant>
AV-unprocessed.smi:3232-4

> <Gold.Version>
5.8.1

> <Gold.Id.Protein>
6NUR|6NUR_protein|mol2

> <Gold.PLP.Fitness>
39.8866

> <Gold.PLP.PLP>
-25.1165

> <Gold.PLP.part.hbond>
-3.0000

> <Gold.PLP.part.metal>
0.0000

> <Gold.PLP.part.buried>
-3.9485

> <Gold.PLP.part.nonpolar>
-19.2856

> <Gold.PLP.part.repulsive>
0.2402

> <Gold.PLP.ligand.clash>
0.0000

> <Gold.PLP.ligand.torsion>
0.0704

> <Gold.PLP.Chemscore.Hbond>
3.9440

> <Gold.PLP.Chemscore.CHOScore>
1.0000

> <Gold.PLP.Chemscore.Metal>
0.0000

> <Gold.Chemscore.Hbonds>
donor molecule, donor type, donor heavy atom, donor atom, acceptor molecule, acceptor atom, score
      L1  H     3    40       P1  7948  2.00
      L1  H     9    33       P1  7948  1.00
      P1  H  7989  7998       L1    18  0.93
      L1  C    17    39       P1  8028  1.00

> <Gold.PLP.Chemscore.Internal.Correction>
0.0788

> <Gold.Rescore>
     Score         DG    S(hbond)    S(metal)    S(lipo)     H(rot)  DE(clash)    DE(int)     intcor
     12.08     -12.52       2.59        0.00      40.61       2.49       0.00       0.43       ----

> <Gold.Chemscore.Fitness>
12.0838

> <Gold.Chemscore.DG>
-12.5167

> <Gold.Chemscore.ZeroCoef>
-5.4800

> <Gold.Chemscore.Hbond>
2.5914

> <Gold.Chemscore.Metal>
0.0000

> <Gold.Chemscore.Lipo>
40.6078

> <Gold.Chemscore.Internal_Hbond>
0.0000

> <Gold.Chemscore.DEClash>
0.0000

> <Gold.Chemscore.DEInternal>
0.4329

> <Gold.Chemscore.Rot>
2.4882

> <Gold.Chemscore.Internal.Correction>
   9.000000E+99

> <Gold.Chemscore.Hbonds>
donor molecule, donor type, donor heavy atom, donor atom, acceptor molecule, acceptor atom, score
      L1  H     3    40       P1  7948  1.00
      L1  H     9    33       P1  7948  0.93
      P1  H  7989  7998       L1    18  0.08

> <Gold.Chemscore.Hbond.Weighted>
-8.6553

> <Gold.Chemscore.Metal.Weighted>
-0.0000

> <Gold.Chemscore.Lipo.Weighted>
-4.7511

> <Gold.Chemscore.Internal_Hbond.Weighted>
0.0000

> <Gold.Chemscore.DEClash.Weighted>
0.0000

> <Gold.Chemscore.DEInternal.Weighted>
0.4329

> <Gold.Chemscore.Rot.Weighted>
6.3697

> <Gold.Chemscore.Internal.Correction.Weighted>
   9.000000E+99

> <Gold.Protein.RotatedTorsions>
[ 6907 6896 6895 6894 ] final  161.48 input  -60.11 | X-H torsion
[ 7974 7965 7964 7962 ] final   26.50 input  175.53 | X-H torsion
[ 8008 7997 7996 7995 ] final   73.17 input   59.86 | X-H torsion
[ 10167 10162 10161 10158 ] final   -6.34 input  -65.29 | X-H torsion
[ 10718 10713 10712 10709 ] final  115.46 input   66.30 | X-H torsion
[ 10763 10752 10751 10750 ] final  -52.99 input  -60.55 | X-H torsion
[ 11005 11000 10999 10996 ] final    6.39 input  -57.11 | X-H torsion

> <Gold.Protein.ActiveResidues>
 VAL166  LYS551  ARG553  GLY616  TRP617  ASP618  TYR619  PRO620  LYS621  CYS622 
 ASP623  PHE694  ASN695  SER759  ASP760  ASP761  ALA762  ILE779  LEU786  VAL792 
 PHE793  MET794  SER795  GLU796  ALA797  LYS798  CYS799  TRP800  GLU811  SER814 

> <Gold.Protein.RotatedAtoms>
  151.9549  133.3677  159.4013 H   0  0  0  0  0  0  0  0  0  0  0  0  # atno 6907 bound_to 6896
  150.6974  134.4302  159.5254 H   0  0  0  0  0  0  0  0  0  0  0  0  # atno 6908 bound_to 6896
  152.1981  134.8612  160.0561 H   0  0  0  0  0  0  0  0  0  0  0  0  # atno 6909 bound_to 6896
  146.1834  139.7320  142.8884 H   0  0  0  0  0  0  0  0  0  0  0  0  # atno 7974 bound_to 7965
  155.7797  140.3482  155.5291 H   0  0  0  0  0  0  0  0  0  0  0  0  # atno 8008 bound_to 7997
  155.8741  140.0991  157.1551 H   0  0  0  0  0  0  0  0  0  0  0  0  # atno 8009 bound_to 7997
  154.4019  140.1335  156.4102 H   0  0  0  0  0  0  0  0  0  0  0  0  # atno 8010 bound_to 7997
  140.6993  143.6205  150.8617 H   0  0  0  0  0  0  0  0  0  0  0  0  # atno 10167 bound_to 10162
  157.6221  131.1013  150.7333 H   0  0  0  0  0  0  0  0  0  0  0  0  # atno 10718 bound_to 10713
  154.1517  135.6489  153.4965 H   0  0  0  0  0  0  0  0  0  0  0  0  # atno 10763 bound_to 10752
  153.0136  135.5339  154.6802 H   0  0  0  0  0  0  0  0  0  0  0  0  # atno 10764 bound_to 10752
  154.6091  135.2952  155.0423 H   0  0  0  0  0  0  0  0  0  0  0  0  # atno 10765 bound_to 10752
  140.5600  134.0201  155.7968 H   0  0  0  0  0  0  0  0  0  0  0  0  # atno 11005 bound_to 11000
  145.4010  141.0385  143.3071 LP  0  0  0  0  0  0  0  0  0  0  0  0  # atno 17320 bound_to 7965
  144.8355  139.5558  143.6924 LP  0  0  0  0  0  0  0  0  0  0  0  0  # atno 17321 bound_to 7965
  139.9926  143.5830  152.2904 LP  0  0  0  0  0  0  0  0  0  0  0  0  # atno 17342 bound_to 10162
  139.6491  144.7660  151.2184 LP  0  0  0  0  0  0  0  0  0  0  0  0  # atno 17343 bound_to 10162
  156.7688  130.4822  149.5422 LP  0  0  0  0  0  0  0  0  0  0  0  0  # atno 17370 bound_to 10713
  156.1371  130.6219  151.0416 LP  0  0  0  0  0  0  0  0  0  0  0  0  # atno 17371 bound_to 10713
  141.1120  133.9601  157.2892 LP  0  0  0  0  0  0  0  0  0  0  0  0  # atno 17394 bound_to 11000
  139.9412  135.0190  156.8715 LP  0  0  0  0  0  0  0  0  0  0  0  0  # atno 17395 bound_to 11000

$$$$
