AV-unprocessed.smi:3215|AV-procd|sdf|12285|dock9
  -GOLD-   2272018123D 1   1.00000     0.00000
 Structure written by MMmdl.
 38 39  0  0  0  0  0  0  0  0  2 V2000
  147.3535  139.9834  154.0598 C   0  0  0  0  0  0  0  0  0  0  0  0
  148.7422  139.5330  154.4116 C   0  0  0  0  0  0  0  0  0  0  0  0
  149.8553  140.3381  154.7860 C   0  0  0  0  0  0  0  0  0  0  0  0
  150.9426  139.6268  155.0356 N   0  0  0  0  0  0  0  0  0  0  0  0
  150.5628  138.3469  154.8360 N   0  0  0  0  0  0  0  0  0  0  0  0
  151.5203  137.2698  155.0189 C   0  0  0  0  0  0  0  0  0  0  0  0
  152.2743  137.3677  156.3562 C   0  0  0  0  0  0  0  0  0  0  0  0
  152.6878  138.7562  156.6413 N   0  3  0  0  0  0  0  0  0  0  0  0
  152.0288  139.3586  157.8177 C   0  0  0  0  0  0  0  0  0  0  0  0
  151.9764  140.8908  157.7324 C   0  0  0  0  0  0  0  0  0  0  0  0
  151.4433  141.4290  156.7604 O   0  0  0  0  0  0  0  0  0  0  0  0
  152.5240  141.6055  158.7368 N   0  0  0  0  0  0  0  0  0  0  0  0
  152.5537  143.0667  158.7643 C   0  0  0  0  0  0  0  0  0  0  0  0
  153.4775  143.4396  159.9235 C   0  0  0  0  0  0  0  0  0  0  0  0
  153.3978  142.2428  160.8607 C   0  0  0  0  0  0  0  0  0  0  0  0
  153.1659  141.0525  159.9291 C   0  0  0  0  0  0  0  0  0  0  0  0
  149.2426  138.2624  154.4470 C   0  0  0  0  0  0  0  0  0  0  0  0
  147.2484  141.0664  154.1283 H   0  0  0  0  0  0  0  0  0  0  0  0
  146.6084  139.5461  154.7245 H   0  0  0  0  0  0  0  0  0  0  0  0
  147.0843  139.6985  153.0427 H   0  0  0  0  0  0  0  0  0  0  0  0
  149.9045  141.4126  154.8834 H   0  0  0  0  0  0  0  0  0  0  0  0
  150.9930  136.3171  154.9519 H   0  0  0  0  0  0  0  0  0  0  0  0
  152.2261  137.2958  154.1878 H   0  0  0  0  0  0  0  0  0  0  0  0
  151.6326  137.0140  157.1640 H   0  0  0  0  0  0  0  0  0  0  0  0
  153.1534  136.7216  156.3442 H   0  0  0  0  0  0  0  0  0  0  0  0
  153.6856  138.7650  156.8005 H   0  0  0  0  0  0  0  0  0  0  0  0
  151.0147  138.9648  157.8959 H   0  0  0  0  0  0  0  0  0  0  0  0
  152.5707  139.0672  158.7184 H   0  0  0  0  0  0  0  0  0  0  0  0
  152.9087  143.4895  157.8231 H   0  0  0  0  0  0  0  0  0  0  0  0
  151.5441  143.4389  158.9441 H   0  0  0  0  0  0  0  0  0  0  0  0
  154.4991  143.5472  159.5565 H   0  0  0  0  0  0  0  0  0  0  0  0
  153.1957  144.3762  160.4056 H   0  0  0  0  0  0  0  0  0  0  0  0
  154.2882  142.1296  161.4799 H   0  0  0  0  0  0  0  0  0  0  0  0
  152.5408  142.3592  161.5256 H   0  0  0  0  0  0  0  0  0  0  0  0
  152.5571  140.2900  160.4165 H   0  0  0  0  0  0  0  0  0  0  0  0
  154.1175  140.6009  159.6447 H   0  0  0  0  0  0  0  0  0  0  0  0
  148.7698  137.3146  154.2342 H   0  0  0  0  0  0  0  0  0  0  0  0
  152.4880  139.3299  155.8343 H   0  0  0  0  0  0  0  0  0  0  0  0
  1  2  1  0  0  0  0
  1 18  1  0  0  0  0
  1 19  1  0  0  0  0
  1 20  1  0  0  0  0
  2 17  2  0  0  0  0
  2  3  1  0  0  0  0
  3  4  2  0  0  0  0
  3 21  1  0  0  0  0
  4  5  1  0  0  0  0
  5  6  1  0  0  0  0
  5 17  1  0  0  0  0
  6  7  1  0  0  0  0
  6 22  1  0  0  0  0
  6 23  1  0  0  0  0
  7  8  1  0  0  0  0
  7 24  1  0  0  0  0
  7 25  1  0  0  0  0
  8  9  1  0  0  0  0
  8 26  1  0  0  0  0
  8 38  1  0  0  0  0
  9 10  1  0  0  0  0
  9 27  1  0  0  0  0
  9 28  1  0  0  0  0
 10 11  2  0  0  0  0
 10 12  1  0  0  0  0
 12 16  1  0  0  0  0
 12 13  1  0  0  0  0
 13 14  1  0  0  0  0
 13 29  1  0  0  0  0
 13 30  1  0  0  0  0
 14 15  1  0  0  0  0
 14 31  1  0  0  0  0
 14 32  1  0  0  0  0
 15 16  1  0  0  0  0
 15 33  1  0  0  0  0
 15 34  1  0  0  0  0
 16 35  1  0  0  0  0
 16 36  1  0  0  0  0
 17 37  1  0  0  0  0
M  CHG  1   8   1
M  END
> <s_m_source_file>
AV-unprocessed.smi

> <i_m_source_file_index>
3215

> <i_lp_mmshare_version>
43012

> <i_f3d_flags>
0

> <s_epik_input>
W0NIM11jMVtjSF1ubihbY0hdMSlbQ0gyXVtDSDJdW05IXVtDSDJdQyg9TylOMltDSDJdW0NIMl1bQ0gyXVtDSDJdMg==

> <s_epik_cmdline>
J2VwaWtfcHl0aG9uJywgJy1waCcsICc3LjAnLCAnLXRuJywgJzgnLCAnLW1hJywgJzIwMCcsICctbWV0YWxfYmluZGluZycsICctaW1hZScsICc8aW5maWxlLm1hZT4nLCAnLW9tYWUnLCAnPG91dGZpbGUubWFlPic=

> <r_lp_tautomer_probability>
1

> <r_epik_Ionization_Penalty>
0.203173

> <r_epik_Ionization_Penalty_Charging>
0.203168

> <r_epik_Ionization_Penalty_Neutral>
4.79177e-06

> <r_epik_State_Penalty>
0.193773

> <r_epik_Charging_Adjusted_Penalty>
0.396942

> <i_epik_Tot_Q>
1

> <i_epik_Tot_abs_Q>
1

> <r_epik_Metal_State_Penalty>
0.194058

> <b_epik_Metal_Only>
0

> <s_lp_Force_Field>
OPLS_2005

> <r_lp_Energy>
25.9096

> <b_lp_Chiralities_Consistent>
1

> <s_lp_Variant>
AV-unprocessed.smi:3215-1

> <Gold.Version>
5.8.1

> <Gold.Id.Protein>
6NUR|6NUR_protein|mol2

> <Gold.PLP.Fitness>
43.9700

> <Gold.PLP.PLP>
-38.7131

> <Gold.PLP.part.hbond>
-1.0000

> <Gold.PLP.part.metal>
0.0000

> <Gold.PLP.part.buried>
-4.0848

> <Gold.PLP.part.nonpolar>
-34.0743

> <Gold.PLP.part.repulsive>
1.1829

> <Gold.PLP.ligand.clash>
0.0000

> <Gold.PLP.ligand.torsion>
0.7015

> <Gold.PLP.Chemscore.Hbond>
0.9760

> <Gold.PLP.Chemscore.CHOScore>
1.2343

> <Gold.PLP.Chemscore.Metal>
0.0000

> <Gold.Chemscore.Hbonds>
donor molecule, donor type, donor heavy atom, donor atom, acceptor molecule, acceptor atom, score
      L1  C    17    37       P1  7948  0.66

> <Gold.PLP.Chemscore.Internal.Correction>
0.0290

> <Gold.Rescore>
     Score         DG    S(hbond)    S(metal)    S(lipo)     H(rot)  DE(clash)    DE(int)     intcor
     12.84     -13.42       0.77        0.00      85.60       1.81       0.15       0.43       ----

> <Gold.Chemscore.Fitness>
12.8404

> <Gold.Chemscore.DG>
-13.4227

> <Gold.Chemscore.ZeroCoef>
-5.4800

> <Gold.Chemscore.Hbond>
0.7696

> <Gold.Chemscore.Metal>
0.0000

> <Gold.Chemscore.Lipo>
85.6014

> <Gold.Chemscore.Internal_Hbond>
0.0000

> <Gold.Chemscore.DEClash>
0.1482

> <Gold.Chemscore.DEInternal>
0.4342

> <Gold.Chemscore.Rot>
1.8137

> <Gold.Chemscore.Internal.Correction>
   9.000000E+99

> <Gold.Chemscore.Hbond.Weighted>
-2.5705

> <Gold.Chemscore.Metal.Weighted>
-0.0000

> <Gold.Chemscore.Lipo.Weighted>
-10.0154

> <Gold.Chemscore.Internal_Hbond.Weighted>
0.0000

> <Gold.Chemscore.DEClash.Weighted>
0.1482

> <Gold.Chemscore.DEInternal.Weighted>
0.4342

> <Gold.Chemscore.Rot.Weighted>
4.6431

> <Gold.Chemscore.Internal.Correction.Weighted>
   9.000000E+99

> <Gold.Protein.RotatedTorsions>
[ 6907 6896 6895 6894 ] final  -99.22 input  -60.11 | X-H torsion
[ 7974 7965 7964 7962 ] final   -6.14 input  175.53 | X-H torsion
[ 8008 7997 7996 7995 ] final   14.72 input   59.86 | X-H torsion
[ 10167 10162 10161 10158 ] final -125.06 input  -65.29 | X-H torsion
[ 10718 10713 10712 10709 ] final   89.50 input   66.30 | X-H torsion
[ 10763 10752 10751 10750 ] final -179.23 input  -60.55 | X-H torsion
[ 11005 11000 10999 10996 ] final   20.55 input  -57.11 | X-H torsion

> <Gold.Protein.ActiveResidues>
 VAL166  LYS551  ARG553  GLY616  TRP617  ASP618  TYR619  PRO620  LYS621  CYS622 
 ASP623  PHE694  ASN695  SER759  ASP760  ASP761  ALA762  ILE779  LEU786  VAL792 
 PHE793  MET794  SER795  GLU796  ALA797  LYS798  CYS799  TRP800  GLU811  SER814 

> <Gold.Protein.RotatedAtoms>
  150.7072  134.1074  159.3987 H   0  0  0  0  0  0  0  0  0  0  0  0  # atno 6907 bound_to 6896
  151.9060  135.0356  160.0520 H   0  0  0  0  0  0  0  0  0  0  0  0  # atno 6908 bound_to 6896
  152.2375  133.5072  159.5287 H   0  0  0  0  0  0  0  0  0  0  0  0  # atno 6909 bound_to 6896
  146.2337  140.2126  142.8335 H   0  0  0  0  0  0  0  0  0  0  0  0  # atno 7974 bound_to 7965
  154.8525  140.2932  155.5589 H   0  0  0  0  0  0  0  0  0  0  0  0  # atno 8008 bound_to 7997
  156.3017  140.2493  156.3418 H   0  0  0  0  0  0  0  0  0  0  0  0  # atno 8009 bound_to 7997
  154.9006  140.0391  157.1880 H   0  0  0  0  0  0  0  0  0  0  0  0  # atno 8010 bound_to 7997
  139.9861  143.5690  152.2360 H   0  0  0  0  0  0  0  0  0  0  0  0  # atno 10167 bound_to 10162
  157.6955  131.0335  150.3435 H   0  0  0  0  0  0  0  0  0  0  0  0  # atno 10718 bound_to 10713
  154.5376  135.2804  155.1124 H   0  0  0  0  0  0  0  0  0  0  0  0  # atno 10763 bound_to 10752
  154.2619  135.6320  153.5281 H   0  0  0  0  0  0  0  0  0  0  0  0  # atno 10764 bound_to 10752
  152.9971  135.5607  154.5907 H   0  0  0  0  0  0  0  0  0  0  0  0  # atno 10765 bound_to 10752
  140.4014  134.1714  155.7664 H   0  0  0  0  0  0  0  0  0  0  0  0  # atno 11005 bound_to 11000
  144.9694  140.8354  143.5464 LP  0  0  0  0  0  0  0  0  0  0  0  0  # atno 17320 bound_to 7965
  145.2106  139.2206  143.5145 LP  0  0  0  0  0  0  0  0  0  0  0  0  # atno 17321 bound_to 7965
  139.6374  144.7651  151.2410 LP  0  0  0  0  0  0  0  0  0  0  0  0  # atno 17342 bound_to 10162
  140.7471  143.6375  150.8365 LP  0  0  0  0  0  0  0  0  0  0  0  0  # atno 17343 bound_to 10162
  156.3892  130.3895  149.7042 LP  0  0  0  0  0  0  0  0  0  0  0  0  # atno 17370 bound_to 10713
  156.4398  130.7855  151.2876 LP  0  0  0  0  0  0  0  0  0  0  0  0  # atno 17371 bound_to 10713
  141.1855  133.8322  157.1102 LP  0  0  0  0  0  0  0  0  0  0  0  0  # atno 17394 bound_to 11000
  140.0333  134.9890  157.0823 LP  0  0  0  0  0  0  0  0  0  0  0  0  # atno 17395 bound_to 11000

$$$$
