AV-unprocessed.smi:2393|AV-procd|sdf|9488|dock10
  -GOLD-   2272013113D 1   1.00000     0.00000
 Structure written by MMmdl.
 43 44  0  0  0  0  0  0  0  0  1 V2000
  152.2185  144.0253  162.1020 C   0  0  0  0  0  0  0  0  0  0  0  0
  153.0145  142.7528  161.9014 C   0  0  0  0  0  0  0  0  0  0  0  0
  153.8644  142.2642  162.9123 C   0  0  0  0  0  0  0  0  0  0  0  0
  154.5752  141.0734  162.6650 C   0  0  0  0  0  0  0  0  0  0  0  0
  155.5076  140.4916  163.7070 C   0  0  0  0  0  0  0  0  0  0  0  0
  154.4750  140.3824  161.5094 N   0  0  0  0  0  0  0  0  0  0  0  0
  153.6591  140.8432  160.5290 C   0  0  0  0  0  0  0  0  0  0  0  0
  153.4914  140.1965  159.2757 N   0  0  0  0  0  0  0  0  0  0  0  0
  152.3674  140.0791  158.5468 C   0  0  0  0  0  0  0  0  0  0  0  0
  151.2802  140.5842  158.8285 O   0  0  0  0  0  0  0  0  0  0  0  0
  152.5762  139.3405  157.4468 N   0  0  0  0  0  0  0  0  0  0  0  0
  151.5632  139.0272  156.4427 C   0  0  2  0  0  0  0  0  0  0  0  0
  152.2357  138.5550  155.1487 C   0  0  0  0  0  0  0  0  0  0  0  0
  151.1864  138.3259  154.0520 C   0  0  0  0  0  0  0  0  0  0  0  0
  150.4227  139.5113  153.8371 O   0  0  0  0  0  0  0  0  0  0  0  0
  149.7105  140.0216  154.9696 C   0  0  0  0  0  0  0  0  0  0  0  0
  149.1220  141.3625  154.5010 C   0  0  0  0  0  0  0  0  0  0  0  0
  148.5540  139.0768  155.3628 C   0  0  0  0  0  0  0  0  0  0  0  0
  150.6965  140.2623  156.1385 C   0  0  0  0  0  0  0  0  0  0  0  0
  152.9144  142.0326  160.6941 C   0  0  0  0  0  0  0  0  0  0  0  0
  152.4864  144.5176  163.0374 H   0  0  0  0  0  0  0  0  0  0  0  0
  151.1518  143.8013  162.1264 H   0  0  0  0  0  0  0  0  0  0  0  0
  152.4050  144.7226  161.2849 H   0  0  0  0  0  0  0  0  0  0  0  0
  153.9689  142.7877  163.8516 H   0  0  0  0  0  0  0  0  0  0  0  0
  155.6482  141.1807  164.5402 H   0  0  0  0  0  0  0  0  0  0  0  0
  156.4852  140.2829  163.2714 H   0  0  0  0  0  0  0  0  0  0  0  0
  155.1000  139.5596  164.0993 H   0  0  0  0  0  0  0  0  0  0  0  0
  154.3198  139.7617  158.8976 H   0  0  0  0  0  0  0  0  0  0  0  0
  153.5006  138.9655  157.2925 H   0  0  0  0  0  0  0  0  0  0  0  0
  150.9322  138.2189  156.8153 H   0  0  0  0  0  0  0  0  0  0  0  0
  152.9552  139.3010  154.8075 H   0  0  0  0  0  0  0  0  0  0  0  0
  152.7964  137.6365  155.3252 H   0  0  0  0  0  0  0  0  0  0  0  0
  151.6813  138.0628  153.1172 H   0  0  0  0  0  0  0  0  0  0  0  0
  150.5379  137.4862  154.3014 H   0  0  0  0  0  0  0  0  0  0  0  0
  148.5661  141.8533  155.3005 H   0  0  0  0  0  0  0  0  0  0  0  0
  148.4404  141.2226  153.6610 H   0  0  0  0  0  0  0  0  0  0  0  0
  149.9053  142.0472  154.1741 H   0  0  0  0  0  0  0  0  0  0  0  0
  147.9510  139.5112  156.1609 H   0  0  0  0  0  0  0  0  0  0  0  0
  148.9015  138.1086  155.7203 H   0  0  0  0  0  0  0  0  0  0  0  0
  147.8931  138.8930  154.5151 H   0  0  0  0  0  0  0  0  0  0  0  0
  150.1512  140.5721  157.0310 H   0  0  0  0  0  0  0  0  0  0  0  0
  151.3553  141.0941  155.8834 H   0  0  0  0  0  0  0  0  0  0  0  0
  152.2688  142.3898  159.9046 H   0  0  0  0  0  0  0  0  0  0  0  0
  1  2  1  0  0  0  0
  1 21  1  0  0  0  0
  1 22  1  0  0  0  0
  1 23  1  0  0  0  0
  2 20  1  0  0  0  0
  2  3  2  0  0  0  0
  3  4  1  0  0  0  0
  3 24  1  0  0  0  0
  4  5  1  0  0  0  0
  4  6  2  0  0  0  0
  5 25  1  0  0  0  0
  5 26  1  0  0  0  0
  5 27  1  0  0  0  0
  6  7  1  0  0  0  0
  7  8  1  0  0  0  0
  7 20  2  0  0  0  0
  8  9  1  0  0  0  0
  8 28  1  0  0  0  0
  9 10  2  0  0  0  0
  9 11  1  0  0  0  0
 11 12  1  0  0  0  0
 11 29  1  0  0  0  0
 12 19  1  0  0  0  0
 12 13  1  0  0  0  0
 12 30  1  0  0  0  0
 13 14  1  0  0  0  0
 13 31  1  0  0  0  0
 13 32  1  0  0  0  0
 14 15  1  0  0  0  0
 14 33  1  0  0  0  0
 14 34  1  0  0  0  0
 15 16  1  0  0  0  0
 16 17  1  0  0  0  0
 16 18  1  0  0  0  0
 16 19  1  0  0  0  0
 17 35  1  0  0  0  0
 17 36  1  0  0  0  0
 17 37  1  0  0  0  0
 18 38  1  0  0  0  0
 18 39  1  0  0  0  0
 18 40  1  0  0  0  0
 19 41  1  0  0  0  0
 19 42  1  0  0  0  0
 20 43  1  0  0  0  0
M  END
> <s_m_source_file>
AV-unprocessed.smi

> <i_m_source_file_index>
2393

> <i_lp_mmshare_version>
43012

> <i_f3d_flags>
0

> <s_epik_input>
W0NIM11jMVtjSF1jKFtDSDNdKW5jKFtjSF0xKVtOSF1DKD1PKVtOSF1bQ0BASF0oW0NIMl0yKVtDSDJdW0NIMl1PQzIoW0NIM10pW0NIM10=

> <s_epik_cmdline>
J2VwaWtfcHl0aG9uJywgJy1waCcsICc3LjAnLCAnLXRuJywgJzgnLCAnLW1hJywgJzIwMCcsICctbWV0YWxfYmluZGluZycsICctaW1hZScsICc8aW5maWxlLm1hZT4nLCAnLW9tYWUnLCAnPG91dGZpbGUubWFlPic=

> <r_lp_tautomer_probability>
1

> <r_epik_Ionization_Penalty>
0.000261351

> <r_epik_Ionization_Penalty_Charging>
0

> <r_epik_Ionization_Penalty_Neutral>
0.000261351

> <r_epik_State_Penalty>
-0

> <r_epik_Charging_Adjusted_Penalty>
0

> <i_epik_Tot_Q>
0

> <i_epik_Tot_abs_Q>
0

> <r_epik_Metal_State_Penalty>
-0

> <b_epik_Metal_Only>
0

> <s_lp_Force_Field>
OPLS_2005

> <r_lp_Energy>
12.7135

> <b_lp_Chiralities_Consistent>
1

> <s_lp_Variant>
AV-unprocessed.smi:2393-1

> <Gold.Version>
5.8.1

> <Gold.Id.Protein>
6NUR|6NUR_protein|mol2

> <Gold.PLP.Fitness>
38.5320

> <Gold.PLP.PLP>
-36.5680

> <Gold.PLP.part.hbond>
-1.0000

> <Gold.PLP.part.metal>
0.0000

> <Gold.PLP.part.buried>
0.6826

> <Gold.PLP.part.nonpolar>
-35.7948

> <Gold.PLP.part.repulsive>
2.2549

> <Gold.PLP.ligand.clash>
0.0000

> <Gold.PLP.ligand.torsion>
0.5182

> <Gold.PLP.Chemscore.Hbond>
1.0000

> <Gold.PLP.Chemscore.CHOScore>
0.0000

> <Gold.PLP.Chemscore.Metal>
0.0000

> <Gold.Chemscore.Hbonds>
donor molecule, donor type, donor heavy atom, donor atom, acceptor molecule, acceptor atom, score
      P1  H  7989  7998       L1    15  1.00

> <Gold.PLP.Chemscore.Internal.Correction>
0.0004

> <Gold.Rescore>
     Score         DG    S(hbond)    S(metal)    S(lipo)     H(rot)  DE(clash)    DE(int)     intcor
     13.57     -17.23       0.81        0.00      99.28       1.00       0.41       3.24       ----

> <Gold.Chemscore.Fitness>
13.5745

> <Gold.Chemscore.DG>
-17.2263

> <Gold.Chemscore.ZeroCoef>
-5.4800

> <Gold.Chemscore.Hbond>
0.8054

> <Gold.Chemscore.Metal>
0.0000

> <Gold.Chemscore.Lipo>
99.2845

> <Gold.Chemscore.Internal_Hbond>
0.0000

> <Gold.Chemscore.DEClash>
0.4147

> <Gold.Chemscore.DEInternal>
3.2370

> <Gold.Chemscore.Rot>
1.0000

> <Gold.Chemscore.Internal.Correction>
   9.000000E+99

> <Gold.Chemscore.Hbonds>
donor molecule, donor type, donor heavy atom, donor atom, acceptor molecule, acceptor atom, score
      P1  H  7989  7998       L1    15  0.23

> <Gold.Chemscore.Hbond.Weighted>
-2.6900

> <Gold.Chemscore.Metal.Weighted>
-0.0000

> <Gold.Chemscore.Lipo.Weighted>
-11.6163

> <Gold.Chemscore.Internal_Hbond.Weighted>
0.0000

> <Gold.Chemscore.DEClash.Weighted>
0.4147

> <Gold.Chemscore.DEInternal.Weighted>
3.2370

> <Gold.Chemscore.Rot.Weighted>
2.5600

> <Gold.Chemscore.Internal.Correction.Weighted>
   9.000000E+99

> <Gold.Protein.RotatedTorsions>
[ 6907 6896 6895 6894 ] final  -35.90 input  -60.11 | X-H torsion
[ 7974 7965 7964 7962 ] final -123.30 input  175.53 | X-H torsion
[ 8008 7997 7996 7995 ] final   32.28 input   59.86 | X-H torsion
[ 10167 10162 10161 10158 ] final  -13.22 input  -65.29 | X-H torsion
[ 10718 10713 10712 10709 ] final -171.89 input   66.30 | X-H torsion
[ 10763 10752 10751 10750 ] final   84.56 input  -60.55 | X-H torsion
[ 11005 11000 10999 10996 ] final  179.34 input  -57.11 | X-H torsion

> <Gold.Protein.ActiveResidues>
 VAL166  LYS551  ARG553  GLY616  TRP617  ASP618  TYR619  PRO620  LYS621  CYS622 
 ASP623  PHE694  ASN695  SER759  ASP760  ASP761  ALA762  ILE779  LEU786  VAL792 
 PHE793  MET794  SER795  GLU796  ALA797  LYS798  CYS799  TRP800  GLU811  SER814 

> <Gold.Protein.RotatedAtoms>
  151.0340  134.9559  159.8125 H   0  0  0  0  0  0  0  0  0  0  0  0  # atno 6907 bound_to 6896
  152.5351  134.2744  159.8993 H   0  0  0  0  0  0  0  0  0  0  0  0  # atno 6908 bound_to 6896
  151.2754  133.4192  159.2657 H   0  0  0  0  0  0  0  0  0  0  0  0  # atno 6909 bound_to 6896
  145.0201  140.7981  143.4386 H   0  0  0  0  0  0  0  0  0  0  0  0  # atno 7974 bound_to 7965
  155.1200  140.3247  155.4500 H   0  0  0  0  0  0  0  0  0  0  0  0  # atno 8008 bound_to 7997
  156.2665  140.2029  156.6271 H   0  0  0  0  0  0  0  0  0  0  0  0  # atno 8009 bound_to 7997
  154.6691  140.0538  157.0133 H   0  0  0  0  0  0  0  0  0  0  0  0  # atno 8010 bound_to 7997
  140.7177  143.5450  150.9366 H   0  0  0  0  0  0  0  0  0  0  0  0  # atno 10167 bound_to 10162
  156.7476  130.9366  151.3113 H   0  0  0  0  0  0  0  0  0  0  0  0  # atno 10718 bound_to 10713
  153.1393  135.4649  154.9471 H   0  0  0  0  0  0  0  0  0  0  0  0  # atno 10763 bound_to 10752
  154.7733  135.3165  154.8146 H   0  0  0  0  0  0  0  0  0  0  0  0  # atno 10764 bound_to 10752
  153.8672  135.6907  153.4831 H   0  0  0  0  0  0  0  0  0  0  0  0  # atno 10765 bound_to 10752
  140.4051  134.6742  157.4583 H   0  0  0  0  0  0  0  0  0  0  0  0  # atno 11005 bound_to 11000
  145.1906  139.2303  143.5244 LP  0  0  0  0  0  0  0  0  0  0  0  0  # atno 17320 bound_to 7965
  146.3484  140.1702  142.8589 LP  0  0  0  0  0  0  0  0  0  0  0  0  # atno 17321 bound_to 7965
  139.9173  143.6648  152.3104 LP  0  0  0  0  0  0  0  0  0  0  0  0  # atno 17342 bound_to 10162
  139.7052  144.7629  151.1204 LP  0  0  0  0  0  0  0  0  0  0  0  0  # atno 17343 bound_to 10162
  157.6791  130.9123  150.0223 LP  0  0  0  0  0  0  0  0  0  0  0  0  # atno 17370 bound_to 10713
  156.1423  130.3642  149.9564 LP  0  0  0  0  0  0  0  0  0  0  0  0  # atno 17371 bound_to 10713
  140.0308  134.6409  155.9109 LP  0  0  0  0  0  0  0  0  0  0  0  0  # atno 17394 bound_to 11000
  141.1842  133.6552  156.5148 LP  0  0  0  0  0  0  0  0  0  0  0  0  # atno 17395 bound_to 11000

$$$$
