AV-unprocessed.smi:1488|AV-procd|sdf|6024|dock7
  -GOLD-   22720 6123D 1   1.00000     0.00000
 Structure written by MMmdl.
 36 37  0  0  0  0  0  0  0  0  1 V2000
  151.7675  132.4046  156.8745 C   0  0  0  0  0  0  0  0  0  0  0  0
  150.6598  133.2909  156.4181 C   0  0  0  0  0  0  0  0  0  0  0  0
  150.1439  133.5743  155.1847 C   0  0  0  0  0  0  0  0  0  0  0  0
  149.1065  134.4990  155.4771 C   0  0  0  0  0  0  0  0  0  0  0  0
  148.3106  135.0505  154.4412 N   0  0  0  0  0  0  0  0  0  0  0  0
  146.9726  135.1707  154.4123 C   0  0  0  0  0  0  0  0  0  0  0  0
  146.2072  134.8057  155.3052 O   0  0  0  0  0  0  0  0  0  0  0  0
  146.5616  135.7419  153.2713 N   0  0  0  0  0  0  0  0  0  0  0  0
  145.1706  136.0107  152.9099 C   0  0  2  0  0  0  0  0  0  0  0  0
  144.2373  134.8730  153.3739 C   0  0  0  0  0  0  0  0  0  0  0  0
  144.4629  133.5747  152.5792 C   0  0  0  0  0  0  0  0  0  0  0  0
  144.3190  133.8007  151.0591 C   0  0  2  0  0  0  0  0  0  0  0  0
  144.5351  132.4998  150.2585 C   0  0  0  0  0  0  0  0  0  0  0  0
  143.9862  131.4597  150.8869 F   0  0  0  0  0  0  0  0  0  0  0  0
  143.9865  132.6110  149.0487 F   0  0  0  0  0  0  0  0  0  0  0  0
  145.8392  132.2704  150.1041 F   0  0  0  0  0  0  0  0  0  0  0  0
  145.2685  134.9264  150.5965 C   0  0  0  0  0  0  0  0  0  0  0  0
  145.0481  136.2269  151.3899 C   0  0  0  0  0  0  0  0  0  0  0  0
  148.9982  134.7564  156.7715 N   0  0  0  0  0  0  0  0  0  0  0  0
  149.9936  133.9838  157.3813 O   0  0  0  0  0  0  0  0  0  0  0  0
  152.0128  131.6648  156.1124 H   0  0  0  0  0  0  0  0  0  0  0  0
  151.4890  131.8720  157.7841 H   0  0  0  0  0  0  0  0  0  0  0  0
  152.6651  132.9863  157.0838 H   0  0  0  0  0  0  0  0  0  0  0  0
  150.4606  133.1820  154.2297 H   0  0  0  0  0  0  0  0  0  0  0  0
  148.8145  135.3903  153.6355 H   0  0  0  0  0  0  0  0  0  0  0  0
  147.2628  136.0083  152.5957 H   0  0  0  0  0  0  0  0  0  0  0  0
  144.8660  136.9353  153.4039 H   0  0  0  0  0  0  0  0  0  0  0  0
  144.3650  134.6841  154.4405 H   0  0  0  0  0  0  0  0  0  0  0  0
  143.2010  135.1892  153.2487 H   0  0  0  0  0  0  0  0  0  0  0  0
  145.4530  133.1763  152.8035 H   0  0  0  0  0  0  0  0  0  0  0  0
  143.7489  132.8217  152.9142 H   0  0  0  0  0  0  0  0  0  0  0  0
  143.2969  134.1328  150.8706 H   0  0  0  0  0  0  0  0  0  0  0  0
  146.3044  134.6035  150.7041 H   0  0  0  0  0  0  0  0  0  0  0  0
  145.1213  135.1257  149.5349 H   0  0  0  0  0  0  0  0  0  0  0  0
  144.0545  136.6164  151.1637 H   0  0  0  0  0  0  0  0  0  0  0  0
  145.7536  136.9903  151.0590 H   0  0  0  0  0  0  0  0  0  0  0  0
  1  2  1  0  0  0  0
  1 21  1  0  0  0  0
  1 22  1  0  0  0  0
  1 23  1  0  0  0  0
  2 20  1  0  0  0  0
  2  3  2  0  0  0  0
  3  4  1  0  0  0  0
  3 24  1  0  0  0  0
  4  5  1  0  0  0  0
  4 19  2  0  0  0  0
  5  6  1  0  0  0  0
  5 25  1  0  0  0  0
  6  7  2  0  0  0  0
  6  8  1  0  0  0  0
  8  9  1  0  0  0  0
  8 26  1  0  0  0  0
  9 18  1  0  0  0  0
  9 10  1  0  0  0  0
  9 27  1  0  0  0  0
 10 11  1  0  0  0  0
 10 28  1  0  0  0  0
 10 29  1  0  0  0  0
 11 12  1  0  0  0  0
 11 30  1  0  0  0  0
 11 31  1  0  0  0  0
 12 13  1  0  0  0  0
 12 17  1  0  0  0  0
 12 32  1  0  0  0  0
 13 14  1  0  0  0  0
 13 15  1  0  0  0  0
 13 16  1  0  0  0  0
 17 18  1  0  0  0  0
 17 33  1  0  0  0  0
 17 34  1  0  0  0  0
 18 35  1  0  0  0  0
 18 36  1  0  0  0  0
 19 20  1  0  0  0  0
M  END
> <s_m_source_file>
AV-unprocessed.smi

> <i_m_source_file_index>
1488

> <i_lp_mmshare_version>
43012

> <i_f3d_flags>
0

> <s_epik_input>
W0NIM11jMVtjSF1jKG5vMSlbTkhdQyg9TylbTkhdW0NAQEhdMltDSDJdW0NIMl1bQ0BASF0oQyhGKShGKUYpW0NIMl1bQ0gyXTI=

> <s_epik_cmdline>
J2VwaWtfcHl0aG9uJywgJy1waCcsICc3LjAnLCAnLXRuJywgJzgnLCAnLW1hJywgJzIwMCcsICctbWV0YWxfYmluZGluZycsICctaW1hZScsICc8aW5maWxlLm1hZT4nLCAnLW9tYWUnLCAnPG91dGZpbGUubWFlPic=

> <r_lp_tautomer_probability>
1

> <r_epik_Ionization_Penalty>
2.30349e-05

> <r_epik_Ionization_Penalty_Charging>
0

> <r_epik_Ionization_Penalty_Neutral>
2.30349e-05

> <r_epik_State_Penalty>
-0

> <r_epik_Charging_Adjusted_Penalty>
0

> <i_epik_Tot_Q>
0

> <i_epik_Tot_abs_Q>
0

> <r_epik_Metal_State_Penalty>
-0

> <b_epik_Metal_Only>
0

> <s_lp_Force_Field>
OPLS_2005

> <r_lp_Energy>
6.9589

> <b_lp_Chiralities_Consistent>
1

> <s_lp_Variant>
AV-unprocessed.smi:1488-2

> <Gold.Version>
5.8.1

> <Gold.Id.Protein>
6NUR|6NUR_protein|mol2

> <Gold.PLP.Fitness>
38.7518

> <Gold.PLP.PLP>
-32.4436

> <Gold.PLP.part.hbond>
-3.0000

> <Gold.PLP.part.metal>
0.0000

> <Gold.PLP.part.buried>
-2.7668

> <Gold.PLP.part.nonpolar>
-27.6134

> <Gold.PLP.part.repulsive>
0.0332

> <Gold.PLP.ligand.clash>
0.0000

> <Gold.PLP.ligand.torsion>
1.1860

> <Gold.PLP.Chemscore.Hbond>
2.8866

> <Gold.PLP.Chemscore.CHOScore>
0.0000

> <Gold.PLP.Chemscore.Metal>
0.0000

> <Gold.Chemscore.Hbonds>
donor molecule, donor type, donor heavy atom, donor atom, acceptor molecule, acceptor atom, score
      L1  H     5    25       P1  7948  1.00
      L1  H     8    26       P1  7948  1.00
      P1  H  6896  6909       L1    20  0.94

> <Gold.PLP.Chemscore.Internal.Correction>
0.0205

> <Gold.Rescore>
     Score         DG    S(hbond)    S(metal)    S(lipo)     H(rot)  DE(clash)    DE(int)     intcor
     15.50     -17.84       2.66        0.00      51.56       1.00       0.01       2.34       ----

> <Gold.Chemscore.Fitness>
15.4976

> <Gold.Chemscore.DG>
-17.8446

> <Gold.Chemscore.ZeroCoef>
-5.4800

> <Gold.Chemscore.Hbond>
2.6622

> <Gold.Chemscore.Metal>
0.0000

> <Gold.Chemscore.Lipo>
51.5615

> <Gold.Chemscore.Internal_Hbond>
0.0000

> <Gold.Chemscore.DEClash>
0.0111

> <Gold.Chemscore.DEInternal>
2.3360

> <Gold.Chemscore.Rot>
1.0000

> <Gold.Chemscore.Internal.Correction>
   9.000000E+99

> <Gold.Chemscore.Hbonds>
donor molecule, donor type, donor heavy atom, donor atom, acceptor molecule, acceptor atom, score
      L1  H     5    25       P1  7948  0.83
      L1  H     8    26       P1  7948  0.99
      P1  H  6896  6909       L1    20  0.76

> <Gold.Chemscore.Hbond.Weighted>
-8.8919

> <Gold.Chemscore.Metal.Weighted>
-0.0000

> <Gold.Chemscore.Lipo.Weighted>
-6.0327

> <Gold.Chemscore.Internal_Hbond.Weighted>
0.0000

> <Gold.Chemscore.DEClash.Weighted>
0.0111

> <Gold.Chemscore.DEInternal.Weighted>
2.3360

> <Gold.Chemscore.Rot.Weighted>
2.5600

> <Gold.Chemscore.Internal.Correction.Weighted>
   9.000000E+99

> <Gold.Protein.RotatedTorsions>
[ 6907 6896 6895 6894 ] final    2.28 input  -60.11 | X-H torsion
[ 7974 7965 7964 7962 ] final  -93.63 input  175.53 | X-H torsion
[ 8008 7997 7996 7995 ] final -148.71 input   59.86 | X-H torsion
[ 10167 10162 10161 10158 ] final  -43.40 input  -65.29 | X-H torsion
[ 10718 10713 10712 10709 ] final   -0.81 input   66.30 | X-H torsion
[ 10763 10752 10751 10750 ] final   99.09 input  -60.55 | X-H torsion
[ 11005 11000 10999 10996 ] final  -29.89 input  -57.11 | X-H torsion

> <Gold.Protein.ActiveResidues>
 VAL166  LYS551  ARG553  GLY616  TRP617  ASP618  TYR619  PRO620  LYS621  CYS622 
 ASP623  PHE694  ASN695  SER759  ASP760  ASP761  ALA762  ILE779  LEU786  VAL792 
 PHE793  MET794  SER795  GLU796  ALA797  LYS798  CYS799  TRP800  GLU811  SER814 

> <Gold.Protein.RotatedAtoms>
  151.6062  135.1043  160.0070 H   0  0  0  0  0  0  0  0  0  0  0  0  # atno 6907 bound_to 6896
  152.4232  133.7147  159.6509 H   0  0  0  0  0  0  0  0  0  0  0  0  # atno 6908 bound_to 6896
  150.8120  133.8332  159.3200 H   0  0  0  0  0  0  0  0  0  0  0  0  # atno 6909 bound_to 6896
  145.3840  140.9521  143.2378 H   0  0  0  0  0  0  0  0  0  0  0  0  # atno 7974 bound_to 7965
  155.5960  140.0657  157.2746 H   0  0  0  0  0  0  0  0  0  0  0  0  # atno 8008 bound_to 7997
  154.4292  140.1827  156.1171 H   0  0  0  0  0  0  0  0  0  0  0  0  # atno 8009 bound_to 7997
  156.0196  140.3318  155.7028 H   0  0  0  0  0  0  0  0  0  0  0  0  # atno 8010 bound_to 7997
  140.6935  143.2985  151.3347 H   0  0  0  0  0  0  0  0  0  0  0  0  # atno 10167 bound_to 10162
  156.8148  130.5437  149.5704 H   0  0  0  0  0  0  0  0  0  0  0  0  # atno 10718 bound_to 10713
  153.2971  135.4125  155.1219 H   0  0  0  0  0  0  0  0  0  0  0  0  # atno 10763 bound_to 10752
  154.8538  135.3532  154.5902 H   0  0  0  0  0  0  0  0  0  0  0  0  # atno 10764 bound_to 10752
  153.6326  135.7060  153.5328 H   0  0  0  0  0  0  0  0  0  0  0  0  # atno 10765 bound_to 10752
  140.9336  133.7323  156.0972 H   0  0  0  0  0  0  0  0  0  0  0  0  # atno 11005 bound_to 11000
  144.8487  139.5355  143.6866 LP  0  0  0  0  0  0  0  0  0  0  0  0  # atno 17320 bound_to 7965
  146.2829  139.6925  142.9216 LP  0  0  0  0  0  0  0  0  0  0  0  0  # atno 17321 bound_to 7965
  139.6363  144.0624  152.2518 LP  0  0  0  0  0  0  0  0  0  0  0  0  # atno 17342 bound_to 10162
  140.0115  144.6220  150.7643 LP  0  0  0  0  0  0  0  0  0  0  0  0  # atno 17343 bound_to 10162
  156.1023  130.5978  150.9914 LP  0  0  0  0  0  0  0  0  0  0  0  0  # atno 17370 bound_to 10713
  157.6487  131.0900  150.8098 LP  0  0  0  0  0  0  0  0  0  0  0  0  # atno 17371 bound_to 10713
  140.7830  134.3704  157.5483 LP  0  0  0  0  0  0  0  0  0  0  0  0  # atno 17394 bound_to 11000
  139.8802  134.9093  156.2988 LP  0  0  0  0  0  0  0  0  0  0  0  0  # atno 17395 bound_to 11000

$$$$
