AV-unprocessed.smi:900|AV-procd|sdf|4089|dock1
  -GOLD-   22720 1573D 1   1.00000     0.00000
 Structure written by MMmdl.
 33 34  0  0  0  0  0  0  0  0  1 V2000
  147.1227  138.7042  153.1492 C   0  0  0  0  0  0  0  0  0  0  0  0
  148.0236  139.8130  153.4227 N   0  0  0  0  0  0  0  0  0  0  0  0
  148.2279  140.3376  154.6402 C   0  0  0  0  0  0  0  0  0  0  0  0
  147.6805  139.9157  155.6588 O   0  0  0  0  0  0  0  0  0  0  0  0
  149.1976  141.5180  154.7247 C   0  0  0  0  0  0  0  0  0  0  0  0
  150.3360  141.1965  155.6391 C   0  0  0  0  0  0  0  0  0  0  0  0
  151.2653  140.3102  155.3001 N   0  0  0  0  0  0  0  0  0  0  0  0
  152.1134  140.2869  156.4164 O   0  0  0  0  0  0  0  0  0  0  0  0
  151.6007  141.1869  157.2891 C   0  0  0  0  0  0  0  0  0  0  0  0
  152.2531  141.3501  158.6219 C   0  0  0  0  0  0  0  0  0  0  0  0
  151.7358  142.5750  159.3967 C   0  0  0  0  0  0  0  0  0  0  0  0
  151.9359  143.9146  158.6806 C   0  0  0  0  0  0  0  0  0  0  0  0
  151.8359  144.9737  159.7837 C   0  0  0  0  0  0  0  0  0  0  0  0
  152.1574  144.2543  161.1030 C   0  0  0  0  0  0  0  0  0  0  0  0
  152.4347  142.7912  160.7405 C   0  0  0  0  0  0  0  0  0  0  0  0
  150.4887  141.7794  156.8609 N   0  0  0  0  0  0  0  0  0  0  0  0
  147.2094  138.4043  152.1048 H   0  0  0  0  0  0  0  0  0  0  0  0
  146.0882  138.9944  153.3363 H   0  0  0  0  0  0  0  0  0  0  0  0
  147.3611  137.8413  153.7726 H   0  0  0  0  0  0  0  0  0  0  0  0
  148.5109  140.2182  152.6361 H   0  0  0  0  0  0  0  0  0  0  0  0
  149.5776  141.7563  153.7300 H   0  0  0  0  0  0  0  0  0  0  0  0
  148.6750  142.4054  155.0847 H   0  0  0  0  0  0  0  0  0  0  0  0
  152.0771  140.4441  159.2028 H   0  0  0  0  0  0  0  0  0  0  0  0
  153.3318  141.4199  158.4768 H   0  0  0  0  0  0  0  0  0  0  0  0
  150.6691  142.4467  159.5894 H   0  0  0  0  0  0  0  0  0  0  0  0
  152.9300  143.9508  158.2325 H   0  0  0  0  0  0  0  0  0  0  0  0
  151.2096  144.0769  157.8833 H   0  0  0  0  0  0  0  0  0  0  0  0
  152.5137  145.8073  159.5970 H   0  0  0  0  0  0  0  0  0  0  0  0
  150.8241  145.3790  159.8234 H   0  0  0  0  0  0  0  0  0  0  0  0
  153.0082  144.7040  161.6161 H   0  0  0  0  0  0  0  0  0  0  0  0
  151.3009  144.3188  161.7754 H   0  0  0  0  0  0  0  0  0  0  0  0
  152.0867  142.0995  161.5082 H   0  0  0  0  0  0  0  0  0  0  0  0
  153.5099  142.6444  160.6276 H   0  0  0  0  0  0  0  0  0  0  0  0
  1  2  1  0  0  0  0
  1 17  1  0  0  0  0
  1 18  1  0  0  0  0
  1 19  1  0  0  0  0
  2  3  1  0  0  0  0
  2 20  1  0  0  0  0
  3  4  2  0  0  0  0
  3  5  1  0  0  0  0
  5  6  1  0  0  0  0
  5 21  1  0  0  0  0
  5 22  1  0  0  0  0
  6 16  1  0  0  0  0
  6  7  2  0  0  0  0
  7  8  1  0  0  0  0
  8  9  1  0  0  0  0
  9 10  1  0  0  0  0
  9 16  2  0  0  0  0
 10 11  1  0  0  0  0
 10 23  1  0  0  0  0
 10 24  1  0  0  0  0
 11 15  1  0  0  0  0
 11 12  1  0  0  0  0
 11 25  1  0  0  0  0
 12 13  1  0  0  0  0
 12 26  1  0  0  0  0
 12 27  1  0  0  0  0
 13 14  1  0  0  0  0
 13 28  1  0  0  0  0
 13 29  1  0  0  0  0
 14 15  1  0  0  0  0
 14 30  1  0  0  0  0
 14 31  1  0  0  0  0
 15 32  1  0  0  0  0
 15 33  1  0  0  0  0
M  END
> <s_m_source_file>
AV-unprocessed.smi

> <i_m_source_file_index>
900

> <i_lp_mmshare_version>
43012

> <i_f3d_flags>
0

> <s_epik_input>
W0NIM11bTkhdQyg9TylbQ0gyXWMxbm9jKG4xKVtDSDJdW0NIXTJbQ0gyXVtDSDJdW0NIMl1bQ0gyXTI=

> <s_epik_cmdline>
J2VwaWtfcHl0aG9uJywgJy1waCcsICc3LjAnLCAnLXRuJywgJzgnLCAnLW1hJywgJzIwMCcsICctbWV0YWxfYmluZGluZycsICctaW1hZScsICc8aW5maWxlLm1hZT4nLCAnLW9tYWUnLCAnPG91dGZpbGUubWFlPic=

> <r_lp_tautomer_probability>
1

> <r_epik_Ionization_Penalty>
1.02915e-07

> <r_epik_Ionization_Penalty_Charging>
0

> <r_epik_Ionization_Penalty_Neutral>
1.02915e-07

> <r_epik_State_Penalty>
-0

> <r_epik_Charging_Adjusted_Penalty>
0

> <i_epik_Tot_Q>
0

> <i_epik_Tot_abs_Q>
0

> <r_epik_Metal_State_Penalty>
-0

> <b_epik_Metal_Only>
0

> <s_lp_Force_Field>
OPLS_2005

> <r_lp_Energy>
19.3932

> <b_lp_Chiralities_Consistent>
1

> <s_lp_Variant>
AV-unprocessed.smi:900-1

> <Gold.Version>
5.8.1

> <Gold.Id.Protein>
6NUR|6NUR_protein|mol2

> <Gold.PLP.Fitness>
42.9545

> <Gold.PLP.PLP>
-35.7940

> <Gold.PLP.part.hbond>
-2.6129

> <Gold.PLP.part.metal>
0.0000

> <Gold.PLP.part.buried>
-4.4598

> <Gold.PLP.part.nonpolar>
-28.6623

> <Gold.PLP.part.repulsive>
0.1989

> <Gold.PLP.ligand.clash>
0.0000

> <Gold.PLP.ligand.torsion>
0.2546

> <Gold.PLP.Chemscore.Hbond>
2.5445

> <Gold.PLP.Chemscore.CHOScore>
0.0000

> <Gold.PLP.Chemscore.Metal>
0.0000

> <Gold.Chemscore.Hbonds>
donor molecule, donor type, donor heavy atom, donor atom, acceptor molecule, acceptor atom, score
      L1  H     2    20       P1  7957  1.00
      P1  H  7989  7998       L1     7  1.00
      P1  H  7997  8010       L1     8  0.52

> <Gold.PLP.Chemscore.Internal.Correction>
0.0363

> <Gold.Rescore>
     Score         DG    S(hbond)    S(metal)    S(lipo)     H(rot)  DE(clash)    DE(int)     intcor
     16.47     -16.74       1.94        0.00      81.71       1.87       0.03       0.24       ----

> <Gold.Chemscore.Fitness>
16.4679

> <Gold.Chemscore.DG>
-16.7357

> <Gold.Chemscore.ZeroCoef>
-5.4800

> <Gold.Chemscore.Hbond>
1.9428

> <Gold.Chemscore.Metal>
0.0000

> <Gold.Chemscore.Lipo>
81.7144

> <Gold.Chemscore.Internal_Hbond>
0.0000

> <Gold.Chemscore.DEClash>
0.0276

> <Gold.Chemscore.DEInternal>
0.2401

> <Gold.Chemscore.Rot>
1.8727

> <Gold.Chemscore.Internal.Correction>
   9.000000E+99

> <Gold.Chemscore.Hbonds>
donor molecule, donor type, donor heavy atom, donor atom, acceptor molecule, acceptor atom, score
      L1  H     2    20       P1  7957  0.95
      P1  H  7989  7998       L1     7  0.24
      P1  H  7997  8010       L1     8  0.47

> <Gold.Chemscore.Hbond.Weighted>
-6.4891

> <Gold.Chemscore.Metal.Weighted>
-0.0000

> <Gold.Chemscore.Lipo.Weighted>
-9.5606

> <Gold.Chemscore.Internal_Hbond.Weighted>
0.0000

> <Gold.Chemscore.DEClash.Weighted>
0.0276

> <Gold.Chemscore.DEInternal.Weighted>
0.2401

> <Gold.Chemscore.Rot.Weighted>
4.7940

> <Gold.Chemscore.Internal.Correction.Weighted>
   9.000000E+99

> <Gold.Protein.RotatedTorsions>
[ 6907 6896 6895 6894 ] final  -18.13 input  -60.11 | X-H torsion
[ 7974 7965 7964 7962 ] final  -47.00 input  175.53 | X-H torsion
[ 8008 7997 7996 7995 ] final   78.96 input   59.86 | X-H torsion
[ 10167 10162 10161 10158 ] final  -90.11 input  -65.29 | X-H torsion
[ 10718 10713 10712 10709 ] final   69.80 input   66.30 | X-H torsion
[ 10763 10752 10751 10750 ] final   65.21 input  -60.55 | X-H torsion
[ 11005 11000 10999 10996 ] final  -46.40 input  -57.11 | X-H torsion

> <Gold.Protein.ActiveResidues>
 VAL166  LYS551  ARG553  GLY616  TRP617  ASP618  TYR619  PRO620  LYS621  CYS622 
 ASP623  PHE694  ASN695  SER759  ASP760  ASP761  ALA762  ILE779  LEU786  VAL792 
 PHE793  MET794  SER795  GLU796  ALA797  LYS798  CYS799  TRP800  GLU811  SER814 

> <Gold.Protein.RotatedAtoms>
  151.2829  135.0719  159.9175 H   0  0  0  0  0  0  0  0  0  0  0  0  # atno 6907 bound_to 6896
  152.5331  134.0012  159.7906 H   0  0  0  0  0  0  0  0  0  0  0  0  # atno 6908 bound_to 6896
  151.0269  133.5775  159.2695 H   0  0  0  0  0  0  0  0  0  0  0  0  # atno 6909 bound_to 6896
  145.9661  140.7431  142.9433 H   0  0  0  0  0  0  0  0  0  0  0  0  # atno 7974 bound_to 7965
  155.8630  140.3453  155.5769 H   0  0  0  0  0  0  0  0  0  0  0  0  # atno 8008 bound_to 7997
  155.7912  140.0872  157.2027 H   0  0  0  0  0  0  0  0  0  0  0  0  # atno 8009 bound_to 7997
  154.4013  140.1483  156.3152 H   0  0  0  0  0  0  0  0  0  0  0  0  # atno 8010 bound_to 7997
  140.3582  143.2856  151.9646 H   0  0  0  0  0  0  0  0  0  0  0  0  # atno 10167 bound_to 10162
  157.6365  130.9444  150.0563 H   0  0  0  0  0  0  0  0  0  0  0  0  # atno 10718 bound_to 10713
  153.0087  135.5365  154.6632 H   0  0  0  0  0  0  0  0  0  0  0  0  # atno 10763 bound_to 10752
  154.5835  135.2852  155.0710 H   0  0  0  0  0  0  0  0  0  0  0  0  # atno 10764 bound_to 10752
  154.1830  135.6513  153.5092 H   0  0  0  0  0  0  0  0  0  0  0  0  # atno 10765 bound_to 10752
  141.0577  133.6720  156.3150 H   0  0  0  0  0  0  0  0  0  0  0  0  # atno 11005 bound_to 11000
  144.6826  140.2671  143.7311 LP  0  0  0  0  0  0  0  0  0  0  0  0  # atno 17320 bound_to 7965
  145.7972  139.1950  143.2069 LP  0  0  0  0  0  0  0  0  0  0  0  0  # atno 17321 bound_to 7965
  139.4817  144.6016  151.7595 LP  0  0  0  0  0  0  0  0  0  0  0  0  # atno 17342 bound_to 10162
  140.5153  144.0962  150.6006 LP  0  0  0  0  0  0  0  0  0  0  0  0  # atno 17343 bound_to 10162
  156.1609  130.3644  149.9300 LP  0  0  0  0  0  0  0  0  0  0  0  0  # atno 17370 bound_to 10713
  156.7298  130.9039  151.3625 LP  0  0  0  0  0  0  0  0  0  0  0  0  # atno 17371 bound_to 10713
  140.5932  134.5630  157.5503 LP  0  0  0  0  0  0  0  0  0  0  0  0  # atno 17394 bound_to 11000
  139.9404  134.7797  156.0693 LP  0  0  0  0  0  0  0  0  0  0  0  0  # atno 17395 bound_to 11000

$$$$
