AV-unprocessed.smi:1878|AV-procd|sdf|7627|dock2
  -GOLD-   22720 9353D 1   1.00000     0.00000
 Structure written by MMmdl.
 36 37  0  0  0  0  0  0  0  0  2 V2000
  150.4849  140.5051  156.6899 O   0  0  0  0  0  0  0  0  0  0  0  0
  150.0594  141.6055  156.3396 C   0  0  0  0  0  0  0  0  0  0  0  0
  150.5054  142.7651  156.8413 N   0  0  0  0  0  0  0  0  0  0  0  0
  151.5251  142.8943  157.8776 C   0  0  0  0  0  0  0  0  0  0  0  0
  151.8022  144.3654  158.2311 C   0  0  0  0  0  0  0  0  0  0  0  0
  152.1199  145.0298  157.1209 F   0  0  0  0  0  0  0  0  0  0  0  0
  150.7150  144.9224  158.7654 F   0  0  0  0  0  0  0  0  0  0  0  0
  152.8146  144.4668  159.0923 F   0  0  0  0  0  0  0  0  0  0  0  0
  149.0865  141.8092  155.4348 N   0  0  0  0  0  0  0  0  0  0  0  0
  148.3639  140.8450  154.6814 C   0  0  0  0  0  0  0  0  0  0  0  0
  148.7662  139.4945  154.5279 C   0  0  0  0  0  0  0  0  0  0  0  0
  147.9845  138.6224  153.7429 C   0  0  0  0  0  0  0  0  0  0  0  0
  146.8152  139.1099  153.1140 C   0  0  0  0  0  0  0  0  0  0  0  0
  145.9701  138.3229  152.3192 N   0  0  0  0  0  0  0  0  0  0  0  0
  145.2807  137.2642  153.0378 C   0  0  0  0  0  0  0  0  0  0  0  0
  144.7805  136.2937  151.9646 C   0  0  0  0  0  0  0  0  0  0  0  0
  145.6520  136.5796  150.7358 C   0  0  0  0  0  0  0  0  0  0  0  0
  146.6131  137.6839  151.1831 C   0  0  0  0  0  0  0  0  0  0  0  0
  146.4747  140.4070  153.2764 N   0  3  0  0  0  0  0  0  0  0  0  0
  147.1956  141.2754  154.0181 C   0  0  0  0  0  0  0  0  0  0  0  0
  150.0972  143.6228  156.4996 H   0  0  0  0  0  0  0  0  0  0  0  0
  151.2399  142.3348  158.7704 H   0  0  0  0  0  0  0  0  0  0  0  0
  152.4382  142.4291  157.5052 H   0  0  0  0  0  0  0  0  0  0  0  0
  148.7862  142.7658  155.3162 H   0  0  0  0  0  0  0  0  0  0  0  0
  149.6652  139.1114  154.9852 H   0  0  0  0  0  0  0  0  0  0  0  0
  148.2871  137.5919  153.6276 H   0  0  0  0  0  0  0  0  0  0  0  0
  145.9643  136.7527  153.7169 H   0  0  0  0  0  0  0  0  0  0  0  0
  144.4571  137.6650  153.6296 H   0  0  0  0  0  0  0  0  0  0  0  0
  144.8575  135.2577  152.2957 H   0  0  0  0  0  0  0  0  0  0  0  0
  143.7334  136.4908  151.7317 H   0  0  0  0  0  0  0  0  0  0  0  0
  146.1885  135.6951  150.3909 H   0  0  0  0  0  0  0  0  0  0  0  0
  145.0281  136.9311  149.9128 H   0  0  0  0  0  0  0  0  0  0  0  0
  146.7976  138.4014  150.3830 H   0  0  0  0  0  0  0  0  0  0  0  0
  147.5710  137.2510  151.4732 H   0  0  0  0  0  0  0  0  0  0  0  0
  146.8113  142.2844  154.0630 H   0  0  0  0  0  0  0  0  0  0  0  0
  145.6308  140.7475  152.8146 H   0  0  0  0  0  0  0  0  0  0  0  0
  1  2  2  0  0  0  0
  2  3  1  0  0  0  0
  2  9  1  0  0  0  0
  3  4  1  0  0  0  0
  3 21  1  0  0  0  0
  4  5  1  0  0  0  0
  4 22  1  0  0  0  0
  4 23  1  0  0  0  0
  5  6  1  0  0  0  0
  5  7  1  0  0  0  0
  5  8  1  0  0  0  0
  9 10  1  0  0  0  0
  9 24  1  0  0  0  0
 10 20  1  0  0  0  0
 10 11  2  0  0  0  0
 11 12  1  0  0  0  0
 11 25  1  0  0  0  0
 12 13  2  0  0  0  0
 12 26  1  0  0  0  0
 13 14  1  0  0  0  0
 13 19  1  0  0  0  0
 14 18  1  0  0  0  0
 14 15  1  0  0  0  0
 15 16  1  0  0  0  0
 15 27  1  0  0  0  0
 15 28  1  0  0  0  0
 16 17  1  0  0  0  0
 16 29  1  0  0  0  0
 16 30  1  0  0  0  0
 17 18  1  0  0  0  0
 17 31  1  0  0  0  0
 17 32  1  0  0  0  0
 18 33  1  0  0  0  0
 18 34  1  0  0  0  0
 19 20  2  0  0  0  0
 19 36  1  0  0  0  0
 20 35  1  0  0  0  0
M  CHG  1  19   1
M  END
> <s_m_source_file>
AV-unprocessed.smi

> <i_m_source_file_index>
1878

> <i_lp_mmshare_version>
43012

> <i_f3d_flags>
0

> <s_epik_input>
RkMoRikoRilbQ0gyXVtOSF1DKD1PKVtOSF1jMVtjSF1bY0hdYyhuW2NIXTEpTjJbQ0gyXVtDSDJdW0NIMl1bQ0gyXTI=

> <s_epik_cmdline>
J2VwaWtfcHl0aG9uJywgJy1waCcsICc3LjAnLCAnLXRuJywgJzgnLCAnLW1hJywgJzIwMCcsICctbWV0YWxfYmluZGluZycsICctaW1hZScsICc8aW5maWxlLm1hZT4nLCAnLW9tYWUnLCAnPG91dGZpbGUubWFlPic=

> <r_lp_tautomer_probability>
0.999994

> <r_epik_Ionization_Penalty>
1.23546

> <r_epik_Ionization_Penalty_Charging>
1.23541

> <r_epik_Ionization_Penalty_Neutral>
4.98032e-05

> <r_epik_State_Penalty>
1.30389

> <r_epik_Charging_Adjusted_Penalty>
2.5393

> <i_epik_Tot_Q>
1

> <i_epik_Tot_abs_Q>
1

> <r_epik_Metal_State_Penalty>
1.39467

> <b_epik_Metal_Only>
0

> <s_lp_Force_Field>
OPLS_2005

> <r_lp_Energy>
38.4411

> <b_lp_Chiralities_Consistent>
1

> <s_lp_Variant>
AV-unprocessed.smi:1878-2

> <Gold.Version>
5.8.1

> <Gold.Id.Protein>
6NUR|6NUR_protein|mol2

> <Gold.PLP.Fitness>
45.3182

> <Gold.PLP.PLP>
-34.0264

> <Gold.PLP.part.hbond>
-3.0000

> <Gold.PLP.part.metal>
0.0000

> <Gold.PLP.part.buried>
0.8465

> <Gold.PLP.part.nonpolar>
-33.8211

> <Gold.PLP.part.repulsive>
0.5481

> <Gold.PLP.ligand.clash>
0.0000

> <Gold.PLP.ligand.torsion>
0.1056

> <Gold.PLP.Chemscore.Hbond>
3.8240

> <Gold.PLP.Chemscore.CHOScore>
0.0000

> <Gold.PLP.Chemscore.Metal>
0.0000

> <Gold.Chemscore.Hbonds>
donor molecule, donor type, donor heavy atom, donor atom, acceptor molecule, acceptor atom, score
      L1  H     3    21       P1  8028  1.00
      L1  H     9    24       P1  8028  1.00
      L1  H    19    36       P1 10175  1.92

> <Gold.PLP.Chemscore.Internal.Correction>
0.0309

> <Gold.Rescore>
     Score         DG    S(hbond)    S(metal)    S(lipo)     H(rot)  DE(clash)    DE(int)     intcor
     15.20     -19.04       2.62        0.00      70.50       1.34       2.56       1.28       ----

> <Gold.Chemscore.Fitness>
15.1995

> <Gold.Chemscore.DG>
-19.0378

> <Gold.Chemscore.ZeroCoef>
-5.4800

> <Gold.Chemscore.Hbond>
2.6191

> <Gold.Chemscore.Metal>
0.0000

> <Gold.Chemscore.Lipo>
70.4966

> <Gold.Chemscore.Internal_Hbond>
0.0000

> <Gold.Chemscore.DEClash>
2.5598

> <Gold.Chemscore.DEInternal>
1.2785

> <Gold.Chemscore.Rot>
1.3430

> <Gold.Chemscore.Internal.Correction>
   9.000000E+99

> <Gold.Chemscore.Hbonds>
donor molecule, donor type, donor heavy atom, donor atom, acceptor molecule, acceptor atom, score
      L1  H     3    21       P1  8028  0.99
      L1  H     9    24       P1  8028  0.96
      L1  H    19    36       P1 10175  0.40

> <Gold.Chemscore.Hbond.Weighted>
-8.7478

> <Gold.Chemscore.Metal.Weighted>
-0.0000

> <Gold.Chemscore.Lipo.Weighted>
-8.2481

> <Gold.Chemscore.Internal_Hbond.Weighted>
0.0000

> <Gold.Chemscore.DEClash.Weighted>
2.5598

> <Gold.Chemscore.DEInternal.Weighted>
1.2785

> <Gold.Chemscore.Rot.Weighted>
3.4381

> <Gold.Chemscore.Internal.Correction.Weighted>
   9.000000E+99

> <Gold.Protein.RotatedTorsions>
[ 6907 6896 6895 6894 ] final  -18.83 input  -60.11 | X-H torsion
[ 7974 7965 7964 7962 ] final   70.21 input  175.53 | X-H torsion
[ 8008 7997 7996 7995 ] final  119.93 input   59.86 | X-H torsion
[ 10167 10162 10161 10158 ] final  -12.54 input  -65.29 | X-H torsion
[ 10718 10713 10712 10709 ] final  -25.81 input   66.30 | X-H torsion
[ 10763 10752 10751 10750 ] final  139.15 input  -60.55 | X-H torsion
[ 11005 11000 10999 10996 ] final   78.74 input  -57.11 | X-H torsion

> <Gold.Protein.ActiveResidues>
 VAL166  LYS551  ARG553  GLY616  TRP617  ASP618  TYR619  PRO620  LYS621  CYS622 
 ASP623  PHE694  ASN695  SER759  ASP760  ASP761  ALA762  ILE779  LEU786  VAL792 
 PHE793  MET794  SER795  GLU796  ALA797  LYS798  CYS799  TRP800  GLU811  SER814 

> <Gold.Protein.RotatedAtoms>
  151.2723  135.0688  159.9138 H   0  0  0  0  0  0  0  0  0  0  0  0  # atno 6907 bound_to 6896
  152.5348  134.0117  159.7952 H   0  0  0  0  0  0  0  0  0  0  0  0  # atno 6908 bound_to 6896
  151.0357  133.5700  159.2687 H   0  0  0  0  0  0  0  0  0  0  0  0  # atno 6909 bound_to 6896
  145.7809  139.2887  143.1266 H   0  0  0  0  0  0  0  0  0  0  0  0  # atno 7974 bound_to 7965
  156.2619  140.2842  156.1070 H   0  0  0  0  0  0  0  0  0  0  0  0  # atno 8008 bound_to 7997
  155.1298  140.0393  157.2789 H   0  0  0  0  0  0  0  0  0  0  0  0  # atno 8009 bound_to 7997
  154.6608  140.2566  155.7117 H   0  0  0  0  0  0  0  0  0  0  0  0  # atno 8010 bound_to 7997
  140.7163  143.5521  150.9289 H   0  0  0  0  0  0  0  0  0  0  0  0  # atno 10167 bound_to 10162
  156.4594  130.4500  149.6938 H   0  0  0  0  0  0  0  0  0  0  0  0  # atno 10718 bound_to 10713
  153.9013  135.3021  155.3448 H   0  0  0  0  0  0  0  0  0  0  0  0  # atno 10763 bound_to 10752
  154.7669  135.4906  153.9574 H   0  0  0  0  0  0  0  0  0  0  0  0  # atno 10764 bound_to 10752
  153.1243  135.6789  153.9383 H   0  0  0  0  0  0  0  0  0  0  0  0  # atno 10765 bound_to 10752
  139.9200  134.7788  156.1689 H   0  0  0  0  0  0  0  0  0  0  0  0  # atno 11005 bound_to 11000
  146.0075  140.8465  142.9987 LP  0  0  0  0  0  0  0  0  0  0  0  0  # atno 17320 bound_to 7965
  144.6796  140.2441  143.7340 LP  0  0  0  0  0  0  0  0  0  0  0  0  # atno 17321 bound_to 7965
  139.9246  143.6565  152.3089 LP  0  0  0  0  0  0  0  0  0  0  0  0  # atno 17342 bound_to 10162
  139.6994  144.7637  151.1299 LP  0  0  0  0  0  0  0  0  0  0  0  0  # atno 17343 bound_to 10162
  156.3732  130.7541  151.2527 LP  0  0  0  0  0  0  0  0  0  0  0  0  # atno 17370 bound_to 10713
  157.7498  131.0317  150.4193 LP  0  0  0  0  0  0  0  0  0  0  0  0  # atno 17371 bound_to 10713
  141.0713  133.6796  156.2145 LP  0  0  0  0  0  0  0  0  0  0  0  0  # atno 17394 bound_to 11000
  140.6503  134.5074  157.5577 LP  0  0  0  0  0  0  0  0  0  0  0  0  # atno 17395 bound_to 11000

$$$$
