AV-unprocessed.smi:3117|AV-procd|sdf|11883|dock10
  -GOLD-   2272017273D 1   1.00000     0.00000
 Structure written by MMmdl.
 36 36  0  0  0  0  0  0  0  0  1 V2000
  152.1719  139.8595  159.1057 C   0  0  0  0  0  0  0  0  0  0  0  0
  152.0973  140.3534  157.6427 C   0  0  1  0  0  0  0  0  0  0  0  0
  151.7246  139.2592  156.7375 N   0  0  0  0  0  0  0  0  0  0  0  0
  152.4465  139.2028  155.4643 C   0  0  0  0  0  0  0  0  0  0  0  0
  151.7185  138.3321  154.4166 C   0  0  0  0  0  0  0  0  0  0  0  0
  150.8836  137.1997  155.0456 C   0  0  0  0  0  0  0  0  0  0  0  0
  150.8256  139.2189  153.5329 C   0  0  0  0  0  0  0  0  0  0  0  0
  152.6897  137.7633  153.5596 O   0  0  0  0  0  0  0  0  0  0  0  0
  151.1036  141.5328  157.4548 C   0  0  2  0  0  0  0  0  0  0  0  0
  150.9706  141.9574  155.9789 C   0  0  0  0  0  0  0  0  0  0  0  0
  151.4423  142.6887  158.2771 N   0  0  0  0  0  0  0  0  0  0  0  0
  151.6476  143.9915  157.8718 C   0  0  0  0  0  0  0  0  0  0  0  0
  151.9379  144.7259  158.9856 C   0  0  0  0  0  0  0  0  0  0  0  0
  151.8853  143.7737  160.0412 C   0  0  0  0  0  0  0  0  0  0  0  0
  151.5877  142.5569  159.6157 N   0  0  0  0  0  0  0  0  0  0  0  0
  152.4748  140.6540  159.7872 H   0  0  0  0  0  0  0  0  0  0  0  0
  152.9044  139.0637  159.2337 H   0  0  0  0  0  0  0  0  0  0  0  0
  151.2065  139.4832  159.4451 H   0  0  0  0  0  0  0  0  0  0  0  0
  153.0904  140.7123  157.3688 H   0  0  0  0  0  0  0  0  0  0  0  0
  151.8192  138.3686  157.2155 H   0  0  0  0  0  0  0  0  0  0  0  0
  152.5609  140.2139  155.0719 H   0  0  0  0  0  0  0  0  0  0  0  0
  153.4534  138.8120  155.6084 H   0  0  0  0  0  0  0  0  0  0  0  0
  150.1402  137.5989  155.7365 H   0  0  0  0  0  0  0  0  0  0  0  0
  151.5036  136.4943  155.6000 H   0  0  0  0  0  0  0  0  0  0  0  0
  150.3515  136.6296  154.2831 H   0  0  0  0  0  0  0  0  0  0  0  0
  150.0409  139.6956  154.1213 H   0  0  0  0  0  0  0  0  0  0  0  0
  150.3398  138.6403  152.7464 H   0  0  0  0  0  0  0  0  0  0  0  0
  151.4015  140.0105  153.0514 H   0  0  0  0  0  0  0  0  0  0  0  0
  152.3192  137.6901  152.6934 H   0  0  0  0  0  0  0  0  0  0  0  0
  150.1197  141.1978  157.7881 H   0  0  0  0  0  0  0  0  0  0  0  0
  150.5840  141.1458  155.3623 H   0  0  0  0  0  0  0  0  0  0  0  0
  151.9316  142.2589  155.5609 H   0  0  0  0  0  0  0  0  0  0  0  0
  150.2840  142.7981  155.8740 H   0  0  0  0  0  0  0  0  0  0  0  0
  151.5703  144.2848  156.8353 H   0  0  0  0  0  0  0  0  0  0  0  0
  152.1545  145.7824  159.0385 H   0  0  0  0  0  0  0  0  0  0  0  0
  152.0531  143.9293  161.0965 H   0  0  0  0  0  0  0  0  0  0  0  0
  1  2  1  0  0  0  0
  1 16  1  0  0  0  0
  1 17  1  0  0  0  0
  1 18  1  0  0  0  0
  2  3  1  0  0  0  0
  2  9  1  0  0  0  0
  2 19  1  0  0  0  0
  3  4  1  0  0  0  0
  3 20  1  0  0  0  0
  4  5  1  0  0  0  0
  4 21  1  0  0  0  0
  4 22  1  0  0  0  0
  5  6  1  0  0  0  0
  5  7  1  0  0  0  0
  5  8  1  0  0  0  0
  6 23  1  0  0  0  0
  6 24  1  0  0  0  0
  6 25  1  0  0  0  0
  7 26  1  0  0  0  0
  7 27  1  0  0  0  0
  7 28  1  0  0  0  0
  8 29  1  0  0  0  0
  9 10  1  0  0  0  0
  9 11  1  0  0  0  0
  9 30  1  0  0  0  0
 10 31  1  0  0  0  0
 10 32  1  0  0  0  0
 10 33  1  0  0  0  0
 11 15  1  0  0  0  0
 11 12  1  0  0  0  0
 12 13  2  0  0  0  0
 12 34  1  0  0  0  0
 13 14  1  0  0  0  0
 13 35  1  0  0  0  0
 14 15  2  0  0  0  0
 14 36  1  0  0  0  0
M  END
> <s_m_source_file>
AV-unprocessed.smi

> <i_m_source_file_index>
3117

> <i_lp_mmshare_version>
43012

> <i_f3d_flags>
0

> <s_epik_input>
W0NIM11DKFtDSDNdKShbT0hdKVtDSDJdW05IXVtDQEBIXShbQ0gzXSlbQ0BIXShbQ0gzXSluMVtjSF1bY0hdW2NIXW4x

> <s_epik_cmdline>
J2VwaWtfcHl0aG9uJywgJy1waCcsICc3LjAnLCAnLXRuJywgJzgnLCAnLW1hJywgJzIwMCcsICctbWV0YWxfYmluZGluZycsICctaW1hZScsICc8aW5maWxlLm1hZT4nLCAnLW9tYWUnLCAnPG91dGZpbGUubWFlPic=

> <r_lp_tautomer_probability>
1

> <r_epik_Ionization_Penalty>
2.13419

> <r_epik_Ionization_Penalty_Charging>
0

> <r_epik_Ionization_Penalty_Neutral>
2.13419

> <r_epik_State_Penalty>
2.27148

> <r_epik_Charging_Adjusted_Penalty>
2.27148

> <i_epik_Tot_Q>
0

> <i_epik_Tot_abs_Q>
0

> <r_epik_Metal_State_Penalty>
2.27029

> <b_epik_Metal_Only>
0

> <s_lp_Force_Field>
OPLS_2005

> <r_lp_Energy>
18.8486

> <b_lp_Chiralities_Consistent>
1

> <s_lp_Variant>
AV-unprocessed.smi:3117-6

> <Gold.Version>
5.8.1

> <Gold.Id.Protein>
6NUR|6NUR_protein|mol2

> <Gold.PLP.Fitness>
42.5706

> <Gold.PLP.PLP>
-36.1463

> <Gold.PLP.part.hbond>
-2.0000

> <Gold.PLP.part.metal>
0.0000

> <Gold.PLP.part.buried>
-4.4714

> <Gold.PLP.part.nonpolar>
-30.4739

> <Gold.PLP.part.repulsive>
0.0000

> <Gold.PLP.ligand.clash>
0.0000

> <Gold.PLP.ligand.torsion>
1.2700

> <Gold.PLP.Chemscore.Hbond>
1.9520

> <Gold.PLP.Chemscore.CHOScore>
1.0000

> <Gold.PLP.Chemscore.Metal>
0.0000

> <Gold.Chemscore.Hbonds>
donor molecule, donor type, donor heavy atom, donor atom, acceptor molecule, acceptor atom, score
      L1  H     8    29       P1  7949  0.12
      P1  H 10752 10765       L1     8  0.58

> <Gold.PLP.Chemscore.Internal.Correction>
0.1082

> <Gold.Rescore>
     Score         DG    S(hbond)    S(metal)    S(lipo)     H(rot)  DE(clash)    DE(int)     intcor
     13.43     -16.08       1.64        0.00      91.69       2.19       0.03       2.62       ----

> <Gold.Chemscore.Fitness>
13.4349

> <Gold.Chemscore.DG>
-16.0792

> <Gold.Chemscore.ZeroCoef>
-5.4800

> <Gold.Chemscore.Hbond>
1.6388

> <Gold.Chemscore.Metal>
0.0000

> <Gold.Chemscore.Lipo>
91.6874

> <Gold.Chemscore.Internal_Hbond>
0.0000

> <Gold.Chemscore.DEClash>
0.0286

> <Gold.Chemscore.DEInternal>
2.6157

> <Gold.Chemscore.Rot>
2.1882

> <Gold.Chemscore.Internal.Correction>
   9.000000E+99

> <Gold.Chemscore.Hbonds>
donor molecule, donor type, donor heavy atom, donor atom, acceptor molecule, acceptor atom, score
      L1  H     8    29       P1  7949  0.13
      P1  H 10752 10765       L1     8  0.13

> <Gold.Chemscore.Hbond.Weighted>
-5.4736

> <Gold.Chemscore.Metal.Weighted>
-0.0000

> <Gold.Chemscore.Lipo.Weighted>
-10.7274

> <Gold.Chemscore.Internal_Hbond.Weighted>
0.0000

> <Gold.Chemscore.DEClash.Weighted>
0.0286

> <Gold.Chemscore.DEInternal.Weighted>
2.6157

> <Gold.Chemscore.Rot.Weighted>
5.6018

> <Gold.Chemscore.Internal.Correction.Weighted>
   9.000000E+99

> <Gold.Protein.RotatedTorsions>
[ 6907 6896 6895 6894 ] final   80.32 input  -60.11 | X-H torsion
[ 7974 7965 7964 7962 ] final -145.70 input  175.53 | X-H torsion
[ 8008 7997 7996 7995 ] final  178.64 input   59.86 | X-H torsion
[ 10167 10162 10161 10158 ] final  -18.44 input  -65.29 | X-H torsion
[ 10718 10713 10712 10709 ] final  -80.16 input   66.30 | X-H torsion
[ 10763 10752 10751 10750 ] final  140.89 input  -60.55 | X-H torsion
[ 11005 11000 10999 10996 ] final -134.59 input  -57.11 | X-H torsion

> <Gold.Protein.ActiveResidues>
 VAL166  LYS551  ARG553  GLY616  TRP617  ASP618  TYR619  PRO620  LYS621  CYS622 
 ASP623  PHE694  ASN695  SER759  ASP760  ASP761  ALA762  ILE779  LEU786  VAL792 
 PHE793  MET794  SER795  GLU796  ALA797  LYS798  CYS799  TRP800  GLU811  SER814 

> <Gold.Protein.RotatedAtoms>
  152.5231  134.3375  159.9204 H   0  0  0  0  0  0  0  0  0  0  0  0  # atno 6907 bound_to 6896
  151.3325  133.3988  159.2671 H   0  0  0  0  0  0  0  0  0  0  0  0  # atno 6908 bound_to 6896
  150.9869  134.9230  159.7935 H   0  0  0  0  0  0  0  0  0  0  0  0  # atno 6909 bound_to 6896
  144.8210  140.5551  143.5579 H   0  0  0  0  0  0  0  0  0  0  0  0  # atno 7974 bound_to 7965
  156.0524  140.1328  157.0035 H   0  0  0  0  0  0  0  0  0  0  0  0  # atno 8008 bound_to 7997
  154.4441  140.1008  156.6467 H   0  0  0  0  0  0  0  0  0  0  0  0  # atno 8009 bound_to 7997
  155.5503  140.3463  155.4469 H   0  0  0  0  0  0  0  0  0  0  0  0  # atno 8010 bound_to 7997
  140.7258  143.4916  150.9984 H   0  0  0  0  0  0  0  0  0  0  0  0  # atno 10167 bound_to 10162
  156.0076  130.4566  150.3757 H   0  0  0  0  0  0  0  0  0  0  0  0  # atno 10718 bound_to 10713
  153.9302  135.2991  155.3446 H   0  0  0  0  0  0  0  0  0  0  0  0  # atno 10763 bound_to 10752
  154.7530  135.4971  153.9327 H   0  0  0  0  0  0  0  0  0  0  0  0  # atno 10764 bound_to 10752
  153.1095  135.6755  153.9630 H   0  0  0  0  0  0  0  0  0  0  0  0  # atno 10765 bound_to 10752
  140.8976  134.1732  157.4484 H   0  0  0  0  0  0  0  0  0  0  0  0  # atno 11005 bound_to 11000
  145.5106  139.1479  143.3607 LP  0  0  0  0  0  0  0  0  0  0  0  0  # atno 17320 bound_to 7965
  146.2515  140.5246  142.8891 LP  0  0  0  0  0  0  0  0  0  0  0  0  # atno 17321 bound_to 7965
  139.8621  143.7302  152.3172 LP  0  0  0  0  0  0  0  0  0  0  0  0  # atno 17342 bound_to 10162
  139.7520  144.7531  151.0491 LP  0  0  0  0  0  0  0  0  0  0  0  0  # atno 17343 bound_to 10162
  157.1840  131.0399  151.2734 LP  0  0  0  0  0  0  0  0  0  0  0  0  # atno 17370 bound_to 10713
  157.4121  130.7391  149.6847 LP  0  0  0  0  0  0  0  0  0  0  0  0  # atno 17371 bound_to 10713
  139.8737  134.9884  156.5413 LP  0  0  0  0  0  0  0  0  0  0  0  0  # atno 17394 bound_to 11000
  140.8270  133.8309  155.8948 LP  0  0  0  0  0  0  0  0  0  0  0  0  # atno 17395 bound_to 11000

$$$$
