AV-unprocessed.smi:898|AV-procd|sdf|4083|dock7
  -GOLD-   22720 1573D 1   1.00000     0.00000
 Structure written by MMmdl.
 34 36  0  0  0  0  0  0  0  0  1 V2000
  150.7015  139.8974  158.5577 O   0  0  0  0  0  0  0  0  0  0  0  0
  151.1790  140.3961  157.5384 C   0  0  0  0  0  0  0  0  0  0  0  0
  151.4522  139.7319  156.4017 N   0  0  0  0  0  0  0  0  0  0  0  0
  151.2565  138.3542  156.1179 C   0  0  0  0  0  0  0  0  0  0  0  0
  152.2311  137.5328  155.7038 N   0  0  0  0  0  0  0  0  0  0  0  0
  151.7682  136.2398  155.5032 N   0  0  0  0  0  0  0  0  0  0  0  0
  150.4619  136.1204  155.7695 C   0  0  0  0  0  0  0  0  0  0  0  0
  149.7369  134.8229  155.6314 C   0  0  0  0  0  0  0  0  0  0  0  0
  150.4941  133.5157  155.5878 C   0  0  0  0  0  0  0  0  0  0  0  0
  149.7893  134.0154  154.3526 C   0  0  0  0  0  0  0  0  0  0  0  0
  149.6782  137.6071  156.2944 S   0  0  0  0  0  0  0  0  0  0  0  0
  151.4894  141.6961  157.4262 N   0  0  0  0  0  0  0  0  0  0  0  0
  151.3103  142.7010  158.4710 C   0  0  2  0  0  0  0  0  0  0  0  0
  151.3793  144.1188  157.8653 C   0  0  0  0  0  0  0  0  0  0  0  0
  151.1462  145.2214  158.9110 C   0  0  0  0  0  0  0  0  0  0  0  0
  152.1930  145.1964  160.0337 C   0  0  0  0  0  0  0  0  0  0  0  0
  152.1340  143.6339  160.9517 S   0  0  0  0  0  0  0  0  0  0  0  0
  152.3764  142.4946  159.5612 C   0  0  0  0  0  0  0  0  0  0  0  0
  151.8376  140.2784  155.6460 H   0  0  0  0  0  0  0  0  0  0  0  0
  148.7957  134.8494  156.1772 H   0  0  0  0  0  0  0  0  0  0  0  0
  151.5817  133.5601  155.5970 H   0  0  0  0  0  0  0  0  0  0  0  0
  150.0573  132.6655  156.1077 H   0  0  0  0  0  0  0  0  0  0  0  0
  148.8817  133.4976  154.0492 H   0  0  0  0  0  0  0  0  0  0  0  0
  150.4123  134.3784  153.5377 H   0  0  0  0  0  0  0  0  0  0  0  0
  151.8772  142.0175  156.5515 H   0  0  0  0  0  0  0  0  0  0  0  0
  150.3291  142.5584  158.9285 H   0  0  0  0  0  0  0  0  0  0  0  0
  152.3461  144.2709  157.3834 H   0  0  0  0  0  0  0  0  0  0  0  0
  150.6293  144.2196  157.0797 H   0  0  0  0  0  0  0  0  0  0  0  0
  151.1725  146.1938  158.4182 H   0  0  0  0  0  0  0  0  0  0  0  0
  150.1468  145.1219  159.3363 H   0  0  0  0  0  0  0  0  0  0  0  0
  153.1945  145.3311  159.6242 H   0  0  0  0  0  0  0  0  0  0  0  0
  152.0191  146.0171  160.7302 H   0  0  0  0  0  0  0  0  0  0  0  0
  152.3363  141.4747  159.9456 H   0  0  0  0  0  0  0  0  0  0  0  0
  153.3771  142.6440  159.1536 H   0  0  0  0  0  0  0  0  0  0  0  0
  1  2  2  0  0  0  0
  2  3  1  0  0  0  0
  2 12  1  0  0  0  0
  3  4  1  0  0  0  0
  3 19  1  0  0  0  0
  4 11  1  0  0  0  0
  4  5  2  0  0  0  0
  5  6  1  0  0  0  0
  6  7  2  0  0  0  0
  7  8  1  0  0  0  0
  7 11  1  0  0  0  0
  8 10  1  0  0  0  0
  8  9  1  0  0  0  0
  8 20  1  0  0  0  0
  9 10  1  0  0  0  0
  9 21  1  0  0  0  0
  9 22  1  0  0  0  0
 10 23  1  0  0  0  0
 10 24  1  0  0  0  0
 12 13  1  0  0  0  0
 12 25  1  0  0  0  0
 13 18  1  0  0  0  0
 13 14  1  0  0  0  0
 13 26  1  0  0  0  0
 14 15  1  0  0  0  0
 14 27  1  0  0  0  0
 14 28  1  0  0  0  0
 15 16  1  0  0  0  0
 15 29  1  0  0  0  0
 15 30  1  0  0  0  0
 16 17  1  0  0  0  0
 16 31  1  0  0  0  0
 16 32  1  0  0  0  0
 17 18  1  0  0  0  0
 18 33  1  0  0  0  0
 18 34  1  0  0  0  0
M  END
> <s_m_source_file>
AV-unprocessed.smi

> <i_m_source_file_index>
898

> <i_lp_mmshare_version>
43012

> <i_f3d_flags>
0

> <s_epik_input>
W0NIMl0xU1tDSDJdW0NIMl1bQ0gyXVtDQEhdMVtOSF1DKD1PKVtOSF1jMm5uYyhzMilbQ0hdM1tDSDJdW0NIMl0z

> <s_epik_cmdline>
J2VwaWtfcHl0aG9uJywgJy1waCcsICc3LjAnLCAnLXRuJywgJzgnLCAnLW1hJywgJzIwMCcsICctbWV0YWxfYmluZGluZycsICctaW1hZScsICc8aW5maWxlLm1hZT4nLCAnLW9tYWUnLCAnPG91dGZpbGUubWFlPic=

> <r_lp_tautomer_probability>
1

> <r_epik_Ionization_Penalty>
0.000291725

> <r_epik_Ionization_Penalty_Charging>
0

> <r_epik_Ionization_Penalty_Neutral>
0.000291725

> <r_epik_State_Penalty>
-0

> <r_epik_Charging_Adjusted_Penalty>
0

> <i_epik_Tot_Q>
0

> <i_epik_Tot_abs_Q>
0

> <r_epik_Metal_State_Penalty>
0.160962

> <b_epik_Metal_Only>
0

> <s_lp_Force_Field>
OPLS_2005

> <r_lp_Energy>
2.16534

> <b_lp_Chiralities_Consistent>
1

> <s_lp_Variant>
AV-unprocessed.smi:898-1

> <Gold.Version>
5.8.1

> <Gold.Id.Protein>
6NUR|6NUR_protein|mol2

> <Gold.PLP.Fitness>
33.6955

> <Gold.PLP.PLP>
-32.5628

> <Gold.PLP.part.hbond>
-1.6978

> <Gold.PLP.part.metal>
0.0000

> <Gold.PLP.part.buried>
-5.6500

> <Gold.PLP.part.nonpolar>
-25.8825

> <Gold.PLP.part.repulsive>
0.2604

> <Gold.PLP.ligand.clash>
0.0000

> <Gold.PLP.ligand.torsion>
1.0006

> <Gold.PLP.Chemscore.Hbond>
1.0000

> <Gold.PLP.Chemscore.CHOScore>
0.0000

> <Gold.PLP.Chemscore.Metal>
0.0000

> <Gold.Chemscore.Hbonds>
donor molecule, donor type, donor heavy atom, donor atom, acceptor molecule, acceptor atom, score
      P1  H 10752 10765       L1     6  1.00

> <Gold.PLP.Chemscore.Internal.Correction>
0.1339

> <Gold.Rescore>
     Score         DG    S(hbond)    S(metal)    S(lipo)     H(rot)  DE(clash)    DE(int)     intcor
     14.42     -15.50       0.98        0.00      84.12       1.20       0.01       1.06       ----

> <Gold.Chemscore.Fitness>
14.4247

> <Gold.Chemscore.DG>
-15.4952

> <Gold.Chemscore.ZeroCoef>
-5.4800

> <Gold.Chemscore.Hbond>
0.9753

> <Gold.Chemscore.Metal>
0.0000

> <Gold.Chemscore.Lipo>
84.1244

> <Gold.Chemscore.Internal_Hbond>
0.0000

> <Gold.Chemscore.DEClash>
0.0149

> <Gold.Chemscore.DEInternal>
1.0556

> <Gold.Chemscore.Rot>
1.2050

> <Gold.Chemscore.Internal.Correction>
   9.000000E+99

> <Gold.Chemscore.Hbonds>
donor molecule, donor type, donor heavy atom, donor atom, acceptor molecule, acceptor atom, score
      P1  H 10752 10765       L1     6  0.34

> <Gold.Chemscore.Hbond.Weighted>
-3.2574

> <Gold.Chemscore.Metal.Weighted>
-0.0000

> <Gold.Chemscore.Lipo.Weighted>
-9.8426

> <Gold.Chemscore.Internal_Hbond.Weighted>
0.0000

> <Gold.Chemscore.DEClash.Weighted>
0.0149

> <Gold.Chemscore.DEInternal.Weighted>
1.0556

> <Gold.Chemscore.Rot.Weighted>
3.0847

> <Gold.Chemscore.Internal.Correction.Weighted>
   9.000000E+99

> <Gold.Protein.RotatedTorsions>
[ 6907 6896 6895 6894 ] final   58.18 input  -60.11 | X-H torsion
[ 7974 7965 7964 7962 ] final  122.25 input  175.53 | X-H torsion
[ 8008 7997 7996 7995 ] final   91.57 input   59.86 | X-H torsion
[ 10167 10162 10161 10158 ] final  -99.44 input  -65.29 | X-H torsion
[ 10718 10713 10712 10709 ] final   80.00 input   66.30 | X-H torsion
[ 10763 10752 10751 10750 ] final -160.80 input  -60.55 | X-H torsion
[ 11005 11000 10999 10996 ] final -122.92 input  -57.11 | X-H torsion

> <Gold.Protein.ActiveResidues>
 VAL166  LYS551  ARG553  GLY616  TRP617  ASP618  TYR619  PRO620  LYS621  CYS622 
 ASP623  PHE694  ASN695  SER759  ASP760  ASP761  ALA762  ILE779  LEU786  VAL792 
 PHE793  MET794  SER795  GLU796  ALA797  LYS798  CYS799  TRP800  GLU811  SER814 

> <Gold.Protein.RotatedAtoms>
  152.3800  134.6605  160.0146 H   0  0  0  0  0  0  0  0  0  0  0  0  # atno 6907 bound_to 6896
  151.6871  133.3306  159.3242 H   0  0  0  0  0  0  0  0  0  0  0  0  # atno 6908 bound_to 6896
  150.7740  134.6666  159.6413 H   0  0  0  0  0  0  0  0  0  0  0  0  # atno 6909 bound_to 6896
  145.1098  139.3461  143.4769 H   0  0  0  0  0  0  0  0  0  0  0  0  # atno 7974 bound_to 7965
  156.0253  140.3336  155.7081 H   0  0  0  0  0  0  0  0  0  0  0  0  # atno 8008 bound_to 7997
  155.5964  140.0651  157.2762 H   0  0  0  0  0  0  0  0  0  0  0  0  # atno 8009 bound_to 7997
  154.4331  140.1818  156.1115 H   0  0  0  0  0  0  0  0  0  0  0  0  # atno 8010 bound_to 7997
  140.2624  143.3398  152.0613 H   0  0  0  0  0  0  0  0  0  0  0  0  # atno 10167 bound_to 10162
  157.6793  130.9940  150.2015 H   0  0  0  0  0  0  0  0  0  0  0  0  # atno 10718 bound_to 10713
  154.7359  135.3057  154.8813 H   0  0  0  0  0  0  0  0  0  0  0  0  # atno 10763 bound_to 10752
  153.9642  135.6749  153.4750 H   0  0  0  0  0  0  0  0  0  0  0  0  # atno 10764 bound_to 10752
  153.0961  135.4935  154.8705 H   0  0  0  0  0  0  0  0  0  0  0  0  # atno 10765 bound_to 10752
  140.9958  134.0473  157.3599 H   0  0  0  0  0  0  0  0  0  0  0  0  # atno 11005 bound_to 11000
  146.3527  140.1012  142.8608 LP  0  0  0  0  0  0  0  0  0  0  0  0  # atno 17320 bound_to 7965
  145.0860  140.9253  143.4797 LP  0  0  0  0  0  0  0  0  0  0  0  0  # atno 17321 bound_to 7965
  139.5013  144.6710  151.6243 LP  0  0  0  0  0  0  0  0  0  0  0  0  # atno 17342 bound_to 10162
  140.5955  143.9703  150.6352 LP  0  0  0  0  0  0  0  0  0  0  0  0  # atno 17343 bound_to 10162
  156.2705  130.3721  149.8036 LP  0  0  0  0  0  0  0  0  0  0  0  0  # atno 17370 bound_to 10713
  156.5755  130.8443  151.3368 LP  0  0  0  0  0  0  0  0  0  0  0  0  # atno 17371 bound_to 10713
  139.9014  135.0166  156.7286 LP  0  0  0  0  0  0  0  0  0  0  0  0  # atno 17394 bound_to 11000
  140.6968  133.9342  155.7999 LP  0  0  0  0  0  0  0  0  0  0  0  0  # atno 17395 bound_to 11000

$$$$
