AV-unprocessed.smi:2149|AV-procd|sdf|8752|dock3
  -GOLD-   2272011523D 1   1.00000     0.00000
 Structure written by MMmdl.
 42 43  0  0  0  0  0  0  0  0  1 V2000
  150.3347  138.7666  157.8195 C   0  0  0  0  0  0  0  0  0  0  0  0
  151.6850  138.1462  156.7355 S   0  0  0  0  0  0  0  0  0  0  0  0
  152.7286  139.1803  156.6650 O   0  0  0  0  0  0  0  0  0  0  0  0
  152.0344  136.7863  157.1738 O   0  0  0  0  0  0  0  0  0  0  0  0
  150.9472  138.0260  155.1638 N   0  0  0  0  0  0  0  0  0  0  0  0
  151.1422  139.1020  154.1704 C   0  0  0  0  0  0  0  0  0  0  0  0
  149.9112  140.0203  154.0773 C   0  0  0  0  0  0  0  0  0  0  0  0
  148.6341  139.2121  153.8217 C   0  0  0  0  0  0  0  0  0  0  0  0
  148.4598  138.1524  154.9243 C   0  0  1  0  0  0  0  0  0  0  0  0
  147.1903  137.3210  154.6954 C   0  0  0  0  0  0  0  0  0  0  0  0
  146.2486  137.3953  155.4853 O   0  0  0  0  0  0  0  0  0  0  0  0
  147.1788  136.5306  153.6108 N   0  0  0  0  0  0  0  0  0  0  0  0
  146.0754  135.6609  153.2208 C   0  0  0  0  0  0  0  0  0  0  0  0
  146.5280  134.1966  153.0985 C   0  0  0  0  0  0  0  0  0  0  0  0
  145.5638  133.3646  152.2744 C   0  0  0  0  0  0  0  0  0  0  0  0
  145.9289  132.0799  151.8186 C   0  0  0  0  0  0  0  0  0  0  0  0
  144.9999  131.3517  151.0504 C   0  0  0  0  0  0  0  0  0  0  0  0
  143.7488  131.9333  150.7684 C   0  0  0  0  0  0  0  0  0  0  0  0
  143.4811  133.2231  151.2689 C   0  0  0  0  0  0  0  0  0  0  0  0
  144.3655  133.9301  152.0052 N   0  0  0  0  0  0  0  0  0  0  0  0
  149.7068  137.2422  154.9895 C   0  0  0  0  0  0  0  0  0  0  0  0
  150.7229  138.8998  158.8289 H   0  0  0  0  0  0  0  0  0  0  0  0
  149.5212  138.0438  157.8481 H   0  0  0  0  0  0  0  0  0  0  0  0
  149.9728  139.7245  157.4511 H   0  0  0  0  0  0  0  0  0  0  0  0
  152.0326  139.6835  154.4074 H   0  0  0  0  0  0  0  0  0  0  0  0
  151.3259  138.6419  153.1989 H   0  0  0  0  0  0  0  0  0  0  0  0
  149.8027  140.5977  154.9944 H   0  0  0  0  0  0  0  0  0  0  0  0
  150.0547  140.7461  153.2765 H   0  0  0  0  0  0  0  0  0  0  0  0
  147.7731  139.8812  153.7946 H   0  0  0  0  0  0  0  0  0  0  0  0
  148.6946  138.7378  152.8406 H   0  0  0  0  0  0  0  0  0  0  0  0
  148.3540  138.6716  155.8765 H   0  0  0  0  0  0  0  0  0  0  0  0
  147.9930  136.5299  153.0134 H   0  0  0  0  0  0  0  0  0  0  0  0
  145.2549  135.7520  153.9350 H   0  0  0  0  0  0  0  0  0  0  0  0
  145.6914  136.0112  152.2624 H   0  0  0  0  0  0  0  0  0  0  0  0
  147.5194  134.1489  152.6461 H   0  0  0  0  0  0  0  0  0  0  0  0
  146.6219  133.7465  154.0880 H   0  0  0  0  0  0  0  0  0  0  0  0
  146.8974  131.6610  152.0497 H   0  0  0  0  0  0  0  0  0  0  0  0
  145.2428  130.3652  150.6840 H   0  0  0  0  0  0  0  0  0  0  0  0
  143.0116  131.4043  150.1828 H   0  0  0  0  0  0  0  0  0  0  0  0
  142.5322  133.6995  151.0722 H   0  0  0  0  0  0  0  0  0  0  0  0
  149.7988  136.6640  154.0688 H   0  0  0  0  0  0  0  0  0  0  0  0
  149.6076  136.5156  155.7961 H   0  0  0  0  0  0  0  0  0  0  0  0
  1  2  1  0  0  0  0
  1 22  1  0  0  0  0
  1 23  1  0  0  0  0
  1 24  1  0  0  0  0
  2  3  2  0  0  0  0
  2  4  2  0  0  0  0
  2  5  1  0  0  0  0
  5 21  1  0  0  0  0
  5  6  1  0  0  0  0
  6  7  1  0  0  0  0
  6 25  1  0  0  0  0
  6 26  1  0  0  0  0
  7  8  1  0  0  0  0
  7 27  1  0  0  0  0
  7 28  1  0  0  0  0
  8  9  1  0  0  0  0
  8 29  1  0  0  0  0
  8 30  1  0  0  0  0
  9 10  1  0  0  0  0
  9 21  1  0  0  0  0
  9 31  1  0  0  0  0
 10 11  2  0  0  0  0
 10 12  1  0  0  0  0
 12 13  1  0  0  0  0
 12 32  1  0  0  0  0
 13 14  1  0  0  0  0
 13 33  1  0  0  0  0
 13 34  1  0  0  0  0
 14 15  1  0  0  0  0
 14 35  1  0  0  0  0
 14 36  1  0  0  0  0
 15 20  1  0  0  0  0
 15 16  2  0  0  0  0
 16 17  1  0  0  0  0
 16 37  1  0  0  0  0
 17 18  2  0  0  0  0
 17 38  1  0  0  0  0
 18 19  1  0  0  0  0
 18 39  1  0  0  0  0
 19 20  2  0  0  0  0
 19 40  1  0  0  0  0
 21 41  1  0  0  0  0
 21 42  1  0  0  0  0
M  END
> <s_m_source_file>
AV-unprocessed.smi

> <i_m_source_file_index>
2149

> <i_lp_mmshare_version>
43012

> <i_f3d_flags>
0

> <s_epik_input>
W0NIM11TKD1PKSg9TylOMVtDSDJdW0NIMl1bQ0gyXVtDQEhdKFtDSDJdMSlDKD1PKVtOSF1bQ0gyXVtDSDJdYzJbY0hdW2NIXVtjSF1bY0hdbjI=

> <s_epik_cmdline>
J2VwaWtfcHl0aG9uJywgJy1waCcsICc3LjAnLCAnLXRuJywgJzgnLCAnLW1hJywgJzIwMCcsICctbWV0YWxfYmluZGluZycsICctaW1hZScsICc8aW5maWxlLm1hZT4nLCAnLW9tYWUnLCAnPG91dGZpbGUubWFlPic=

> <r_epik_Ionization_Penalty>
0.0273806

> <r_epik_Ionization_Penalty_Charging>
0

> <r_epik_Ionization_Penalty_Neutral>
0.0273806

> <r_epik_State_Penalty>
0.0224071

> <r_epik_Charging_Adjusted_Penalty>
0.0224071

> <i_epik_Tot_Q>
0

> <i_epik_Tot_abs_Q>
0

> <r_epik_Metal_State_Penalty>
0.0214134

> <b_epik_Metal_Only>
0

> <s_lp_Force_Field>
OPLS_2005

> <r_lp_Energy>
-0.402048

> <b_lp_Chiralities_Consistent>
1

> <s_lp_Variant>
AV-unprocessed.smi:2149-1

> <Gold.Version>
5.8.1

> <Gold.Id.Protein>
6NUR|6NUR_protein|mol2

> <Gold.PLP.Fitness>
42.8960

> <Gold.PLP.PLP>
-31.4759

> <Gold.PLP.part.hbond>
-2.9153

> <Gold.PLP.part.metal>
0.0000

> <Gold.PLP.part.buried>
-4.3130

> <Gold.PLP.part.nonpolar>
-24.1506

> <Gold.PLP.part.repulsive>
0.1128

> <Gold.PLP.ligand.clash>
0.0000

> <Gold.PLP.ligand.torsion>
1.3398

> <Gold.PLP.Chemscore.Hbond>
2.9920

> <Gold.PLP.Chemscore.CHOScore>
1.0000

> <Gold.PLP.Chemscore.Metal>
0.0000

> <Gold.Chemscore.Hbonds>
donor molecule, donor type, donor heavy atom, donor atom, acceptor molecule, acceptor atom, score
      L1  H    12    32       P1  7948  0.99
      P1  H  7997  8008       L1     3  1.00
      L1  C    19    40       P1 10186  1.00

> <Gold.PLP.Chemscore.Internal.Correction>
2.1237

> <Gold.Rescore>
     Score         DG    S(hbond)    S(metal)    S(lipo)     H(rot)  DE(clash)    DE(int)     intcor
     18.79     -20.21       2.95        0.00      75.93       1.56       0.02       1.40       ----

> <Gold.Chemscore.Fitness>
18.7916

> <Gold.Chemscore.DG>
-20.2060

> <Gold.Chemscore.ZeroCoef>
-5.4800

> <Gold.Chemscore.Hbond>
2.9480

> <Gold.Chemscore.Metal>
0.0000

> <Gold.Chemscore.Lipo>
75.9340

> <Gold.Chemscore.Internal_Hbond>
0.0000

> <Gold.Chemscore.DEClash>
0.0164

> <Gold.Chemscore.DEInternal>
1.3980

> <Gold.Chemscore.Rot>
1.5643

> <Gold.Chemscore.Internal.Correction>
   9.000000E+99

> <Gold.Chemscore.Hbonds>
donor molecule, donor type, donor heavy atom, donor atom, acceptor molecule, acceptor atom, score
      L1  H    12    32       P1  7948  0.92
      P1  H  7997  8008       L1     3  1.00

> <Gold.Chemscore.Hbond.Weighted>
-9.8464

> <Gold.Chemscore.Metal.Weighted>
-0.0000

> <Gold.Chemscore.Lipo.Weighted>
-8.8843

> <Gold.Chemscore.Internal_Hbond.Weighted>
0.0000

> <Gold.Chemscore.DEClash.Weighted>
0.0164

> <Gold.Chemscore.DEInternal.Weighted>
1.3980

> <Gold.Chemscore.Rot.Weighted>
4.0046

> <Gold.Chemscore.Internal.Correction.Weighted>
   9.000000E+99

> <Gold.Protein.RotatedTorsions>
[ 6907 6896 6895 6894 ] final  -85.87 input  -60.11 | X-H torsion
[ 7974 7965 7964 7962 ] final   80.19 input  175.53 | X-H torsion
[ 8008 7997 7996 7995 ] final  -55.89 input   59.86 | X-H torsion
[ 10167 10162 10161 10158 ] final   84.98 input  -65.29 | X-H torsion
[ 10718 10713 10712 10709 ] final   21.39 input   66.30 | X-H torsion
[ 10763 10752 10751 10750 ] final -127.26 input  -60.55 | X-H torsion
[ 11005 11000 10999 10996 ] final -159.98 input  -57.11 | X-H torsion

> <Gold.Protein.ActiveResidues>
 VAL166  LYS551  ARG553  GLY616  TRP617  ASP618  TYR619  PRO620  LYS621  CYS622 
 ASP623  PHE694  ASN695  SER759  ASP760  ASP761  ALA762  ILE779  LEU786  VAL792 
 PHE793  MET794  SER795  GLU796  ALA797  LYS798  CYS799  TRP800  GLU811  SER814 

> <Gold.Protein.RotatedAtoms>
  150.6868  134.3138  159.4757 H   0  0  0  0  0  0  0  0  0  0  0  0  # atno 6907 bound_to 6896
  152.1021  134.9332  160.0578 H   0  0  0  0  0  0  0  0  0  0  0  0  # atno 6908 bound_to 6896
  152.0607  133.4026  159.4453 H   0  0  0  0  0  0  0  0  0  0  0  0  # atno 6909 bound_to 6896
  145.6544  139.2455  143.1958 H   0  0  0  0  0  0  0  0  0  0  0  0  # atno 7974 bound_to 7965
  154.4210  140.1142  156.5549 H   0  0  0  0  0  0  0  0  0  0  0  0  # atno 8008 bound_to 7997
  155.6371  140.3496  155.4683 H   0  0  0  0  0  0  0  0  0  0  0  0  # atno 8009 bound_to 7997
  155.9901  140.1177  157.0636 H   0  0  0  0  0  0  0  0  0  0  0  0  # atno 8010 bound_to 7997
  139.9024  144.6321  150.8623 H   0  0  0  0  0  0  0  0  0  0  0  0  # atno 10167 bound_to 10162
  157.1378  130.6619  149.5971 H   0  0  0  0  0  0  0  0  0  0  0  0  # atno 10718 bound_to 10713
  154.8751  135.3968  154.3565 H   0  0  0  0  0  0  0  0  0  0  0  0  # atno 10763 bound_to 10752
  153.4343  135.7025  153.6215 H   0  0  0  0  0  0  0  0  0  0  0  0  # atno 10764 bound_to 10752
  153.4823  135.3766  155.2418 H   0  0  0  0  0  0  0  0  0  0  0  0  # atno 10765 bound_to 10752
  140.6366  134.4595  157.5232 H   0  0  0  0  0  0  0  0  0  0  0  0  # atno 11005 bound_to 11000
  146.1177  140.7349  142.9473 LP  0  0  0  0  0  0  0  0  0  0  0  0  # atno 17320 bound_to 7965
  144.7111  140.4041  143.7080 LP  0  0  0  0  0  0  0  0  0  0  0  0  # atno 17321 bound_to 7965
  140.7704  143.3427  151.2175 LP  0  0  0  0  0  0  0  0  0  0  0  0  # atno 17342 bound_to 10162
  139.7013  143.9527  152.2907 LP  0  0  0  0  0  0  0  0  0  0  0  0  # atno 17343 bound_to 10162
  155.9794  130.4788  150.6716 LP  0  0  0  0  0  0  0  0  0  0  0  0  # atno 17370 bound_to 10713
  157.4334  131.0852  151.1016 LP  0  0  0  0  0  0  0  0  0  0  0  0  # atno 17371 bound_to 10713
  139.9096  134.8374  156.1578 LP  0  0  0  0  0  0  0  0  0  0  0  0  # atno 17394 bound_to 11000
  141.0637  133.6829  156.2002 LP  0  0  0  0  0  0  0  0  0  0  0  0  # atno 17395 bound_to 11000

$$$$
