AV-unprocessed.smi:1915|AV-procd|sdf|7761|dock8
  -GOLD-   22720 9503D 1   1.00000     0.00000
 Structure written by MMmdl.
 44 45  0  0  0  0  0  0  0  0  1 V2000
  149.3237  133.6506  154.1435 C   0  0  0  0  0  0  0  0  0  0  0  0
  150.0954  133.9502  155.4402 C   0  0  0  0  0  0  0  0  0  0  0  0
  150.0555  132.7345  156.3781 C   0  0  0  0  0  0  0  0  0  0  0  0
  149.5947  135.2151  156.1733 C   0  0  0  0  0  0  0  0  0  0  0  0
  149.7811  136.4411  155.3969 N   0  0  0  0  0  0  0  0  0  0  0  0
  151.1141  136.8618  154.9952 C   0  0  0  0  0  0  0  0  0  0  0  0
  150.9518  138.2906  154.4328 C   0  0  2  0  0  0  0  0  0  0  0  0
  151.5903  139.3574  155.3354 C   0  0  0  0  0  0  0  0  0  0  0  0
  152.6603  139.8791  155.0202 O   0  0  0  0  0  0  0  0  0  0  0  0
  150.9311  139.6567  156.4645 N   0  0  0  0  0  0  0  0  0  0  0  0
  151.4053  140.5771  157.4935 C   0  0  0  0  0  0  0  0  0  0  0  0
  151.1831  142.0568  157.1189 C   0  0  0  0  0  0  0  0  0  0  0  0
  151.5032  143.0229  158.2473 C   0  0  0  0  0  0  0  0  0  0  0  0
  151.4032  144.4176  158.0528 C   0  0  0  0  0  0  0  0  0  0  0  0
  151.7304  145.2704  159.1241 C   0  0  0  0  0  0  0  0  0  0  0  0
  152.1414  144.6990  160.3436 C   0  0  0  0  0  0  0  0  0  0  0  0
  152.2059  143.2944  160.4377 C   0  0  0  0  0  0  0  0  0  0  0  0
  151.8961  142.4676  159.4156 N   0  0  0  0  0  0  0  0  0  0  0  0
  149.4305  138.5034  154.3087 C   0  0  0  0  0  0  0  0  0  0  0  0
  148.8322  137.3150  155.0412 C   0  0  0  0  0  0  0  0  0  0  0  0
  147.6276  137.2121  155.2681 O   0  0  0  0  0  0  0  0  0  0  0  0
  148.2555  133.5443  154.3348 H   0  0  0  0  0  0  0  0  0  0  0  0
  149.6727  132.7257  153.6839 H   0  0  0  0  0  0  0  0  0  0  0  0
  149.4550  134.4410  153.4051 H   0  0  0  0  0  0  0  0  0  0  0  0
  151.1395  134.1127  155.1698 H   0  0  0  0  0  0  0  0  0  0  0  0
  149.0356  132.5090  156.6910 H   0  0  0  0  0  0  0  0  0  0  0  0
  150.6484  132.9096  157.2766 H   0  0  0  0  0  0  0  0  0  0  0  0
  150.4578  131.8466  155.8896 H   0  0  0  0  0  0  0  0  0  0  0  0
  148.5419  135.1013  156.4382 H   0  0  0  0  0  0  0  0  0  0  0  0
  150.1263  135.3239  157.1194 H   0  0  0  0  0  0  0  0  0  0  0  0
  151.8057  136.8117  155.8381 H   0  0  0  0  0  0  0  0  0  0  0  0
  151.4871  136.1846  154.2258 H   0  0  0  0  0  0  0  0  0  0  0  0
  151.4101  138.3429  153.4436 H   0  0  0  0  0  0  0  0  0  0  0  0
  150.0582  139.1823  156.6452 H   0  0  0  0  0  0  0  0  0  0  0  0
  150.9329  140.3512  158.4506 H   0  0  0  0  0  0  0  0  0  0  0  0
  152.4719  140.3942  157.6259 H   0  0  0  0  0  0  0  0  0  0  0  0
  151.7947  142.3124  156.2527 H   0  0  0  0  0  0  0  0  0  0  0  0
  150.1488  142.2046  156.8062 H   0  0  0  0  0  0  0  0  0  0  0  0
  151.0905  144.8257  157.1029 H   0  0  0  0  0  0  0  0  0  0  0  0
  151.6695  146.3428  159.0116 H   0  0  0  0  0  0  0  0  0  0  0  0
  152.4006  145.3219  161.1868 H   0  0  0  0  0  0  0  0  0  0  0  0
  152.5168  142.8222  161.3577 H   0  0  0  0  0  0  0  0  0  0  0  0
  149.0794  139.4390  154.7474 H   0  0  0  0  0  0  0  0  0  0  0  0
  149.1148  138.4826  153.2654 H   0  0  0  0  0  0  0  0  0  0  0  0
  1  2  1  0  0  0  0
  1 22  1  0  0  0  0
  1 23  1  0  0  0  0
  1 24  1  0  0  0  0
  2  3  1  0  0  0  0
  2  4  1  0  0  0  0
  2 25  1  0  0  0  0
  3 26  1  0  0  0  0
  3 27  1  0  0  0  0
  3 28  1  0  0  0  0
  4  5  1  0  0  0  0
  4 29  1  0  0  0  0
  4 30  1  0  0  0  0
  5 20  1  0  0  0  0
  5  6  1  0  0  0  0
  6  7  1  0  0  0  0
  6 31  1  0  0  0  0
  6 32  1  0  0  0  0
  7  8  1  0  0  0  0
  7 19  1  0  0  0  0
  7 33  1  0  0  0  0
  8  9  2  0  0  0  0
  8 10  1  0  0  0  0
 10 11  1  0  0  0  0
 10 34  1  0  0  0  0
 11 12  1  0  0  0  0
 11 35  1  0  0  0  0
 11 36  1  0  0  0  0
 12 13  1  0  0  0  0
 12 37  1  0  0  0  0
 12 38  1  0  0  0  0
 13 18  1  0  0  0  0
 13 14  2  0  0  0  0
 14 15  1  0  0  0  0
 14 39  1  0  0  0  0
 15 16  2  0  0  0  0
 15 40  1  0  0  0  0
 16 17  1  0  0  0  0
 16 41  1  0  0  0  0
 17 18  2  0  0  0  0
 17 42  1  0  0  0  0
 19 20  1  0  0  0  0
 19 43  1  0  0  0  0
 19 44  1  0  0  0  0
 20 21  2  0  0  0  0
M  END
> <s_m_source_file>
AV-unprocessed.smi

> <i_m_source_file_index>
1915

> <i_lp_mmshare_version>
43012

> <i_f3d_flags>
0

> <s_epik_input>
W0NIM11bQ0hdKFtDSDNdKVtDSDJdTjFbQ0gyXVtDQEhdKFtDSDJdQzE9TylDKD1PKVtOSF1bQ0gyXVtDSDJdYzJbY0hdW2NIXVtjSF1bY0hdbjI=

> <s_epik_cmdline>
J2VwaWtfcHl0aG9uJywgJy1waCcsICc3LjAnLCAnLXRuJywgJzgnLCAnLW1hJywgJzIwMCcsICctbWV0YWxfYmluZGluZycsICctaW1hZScsICc8aW5maWxlLm1hZT4nLCAnLW9tYWUnLCAnPG91dGZpbGUubWFlPic=

> <r_epik_Ionization_Penalty>
0.0252359

> <r_epik_Ionization_Penalty_Charging>
0

> <r_epik_Ionization_Penalty_Neutral>
0.0252359

> <r_epik_State_Penalty>
0.020532

> <r_epik_Charging_Adjusted_Penalty>
0.020532

> <i_epik_Tot_Q>
0

> <i_epik_Tot_abs_Q>
0

> <r_epik_Metal_State_Penalty>
0.0196901

> <b_epik_Metal_Only>
0

> <s_lp_Force_Field>
OPLS_2005

> <r_lp_Energy>
14.5856

> <b_lp_Chiralities_Consistent>
1

> <s_lp_Variant>
AV-unprocessed.smi:1915-2

> <Gold.Version>
5.8.1

> <Gold.Id.Protein>
6NUR|6NUR_protein|mol2

> <Gold.PLP.Fitness>
46.4944

> <Gold.PLP.PLP>
-43.9628

> <Gold.PLP.part.hbond>
-2.0000

> <Gold.PLP.part.metal>
0.0000

> <Gold.PLP.part.buried>
-5.1357

> <Gold.PLP.part.nonpolar>
-37.3121

> <Gold.PLP.part.repulsive>
0.1645

> <Gold.PLP.ligand.clash>
0.0000

> <Gold.PLP.ligand.torsion>
0.5977

> <Gold.PLP.Chemscore.Hbond>
1.1967

> <Gold.PLP.Chemscore.CHOScore>
0.0000

> <Gold.PLP.Chemscore.Metal>
0.0000

> <Gold.Chemscore.Hbonds>
donor molecule, donor type, donor heavy atom, donor atom, acceptor molecule, acceptor atom, score
      P1  H  7989  7998       L1     9  0.22
      P1  H  7997  8009       L1     9  0.94

> <Gold.PLP.Chemscore.Internal.Correction>
0.1369

> <Gold.Rescore>
     Score         DG    S(hbond)    S(metal)    S(lipo)     H(rot)  DE(clash)    DE(int)     intcor
     17.16     -17.85       1.00        0.00     115.36       1.75       0.11       0.58       ----

> <Gold.Chemscore.Fitness>
17.1553

> <Gold.Chemscore.DG>
-17.8485

> <Gold.Chemscore.ZeroCoef>
-5.4800

> <Gold.Chemscore.Hbond>
1.0000

> <Gold.Chemscore.Metal>
0.0000

> <Gold.Chemscore.Lipo>
115.3612

> <Gold.Chemscore.Internal_Hbond>
0.0000

> <Gold.Chemscore.DEClash>
0.1128

> <Gold.Chemscore.DEInternal>
0.5804

> <Gold.Chemscore.Rot>
1.7456

> <Gold.Chemscore.Internal.Correction>
   9.000000E+99

> <Gold.Chemscore.Hbonds>
donor molecule, donor type, donor heavy atom, donor atom, acceptor molecule, acceptor atom, score
      P1  H  7989  7998       L1     9  0.01
      P1  H  7997  8009       L1     9  0.89

> <Gold.Chemscore.Hbond.Weighted>
-3.3400

> <Gold.Chemscore.Metal.Weighted>
-0.0000

> <Gold.Chemscore.Lipo.Weighted>
-13.4973

> <Gold.Chemscore.Internal_Hbond.Weighted>
0.0000

> <Gold.Chemscore.DEClash.Weighted>
0.1128

> <Gold.Chemscore.DEInternal.Weighted>
0.5804

> <Gold.Chemscore.Rot.Weighted>
4.4688

> <Gold.Chemscore.Internal.Correction.Weighted>
   9.000000E+99

> <Gold.Protein.RotatedTorsions>
[ 6907 6896 6895 6894 ] final   70.90 input  -60.11 | X-H torsion
[ 7974 7965 7964 7962 ] final   32.43 input  175.53 | X-H torsion
[ 8008 7997 7996 7995 ] final -123.48 input   59.86 | X-H torsion
[ 10167 10162 10161 10158 ] final  152.94 input  -65.29 | X-H torsion
[ 10718 10713 10712 10709 ] final   96.02 input   66.30 | X-H torsion
[ 10763 10752 10751 10750 ] final -151.63 input  -60.55 | X-H torsion
[ 11005 11000 10999 10996 ] final   46.85 input  -57.11 | X-H torsion

> <Gold.Protein.ActiveResidues>
 VAL166  LYS551  ARG553  GLY616  TRP617  ASP618  TYR619  PRO620  LYS621  CYS622 
 ASP623  PHE694  ASN695  SER759  ASP760  ASP761  ALA762  ILE779  LEU786  VAL792 
 PHE793  MET794  SER795  GLU796  ALA797  LYS798  CYS799  TRP800  GLU811  SER814 

> <Gold.Protein.RotatedAtoms>
  152.4777  134.4800  159.9662 H   0  0  0  0  0  0  0  0  0  0  0  0  # atno 6907 bound_to 6896
  151.4813  133.3540  159.2846 H   0  0  0  0  0  0  0  0  0  0  0  0  # atno 6908 bound_to 6896
  150.8828  134.8247  159.7298 H   0  0  0  0  0  0  0  0  0  0  0  0  # atno 6909 bound_to 6896
  146.1487  139.6527  142.9114 H   0  0  0  0  0  0  0  0  0  0  0  0  # atno 7974 bound_to 7965
  155.1813  140.0410  157.2882 H   0  0  0  0  0  0  0  0  0  0  0  0  # atno 8008 bound_to 7997
  154.6202  140.2498  155.7532 H   0  0  0  0  0  0  0  0  0  0  0  0  # atno 8009 bound_to 7997
  156.2429  140.2896  156.0506 H   0  0  0  0  0  0  0  0  0  0  0  0  # atno 8010 bound_to 7997
  139.4830  144.5315  151.7715 H   0  0  0  0  0  0  0  0  0  0  0  0  # atno 10167 bound_to 10162
  157.6932  131.0564  150.4427 H   0  0  0  0  0  0  0  0  0  0  0  0  # atno 10718 bound_to 10713
  154.8046  135.3255  154.7464 H   0  0  0  0  0  0  0  0  0  0  0  0  # atno 10763 bound_to 10752
  153.8126  135.6894  153.4843 H   0  0  0  0  0  0  0  0  0  0  0  0  # atno 10764 bound_to 10752
  153.1783  135.4596  154.9938 H   0  0  0  0  0  0  0  0  0  0  0  0  # atno 10765 bound_to 10752
  140.1331  134.4679  155.8506 H   0  0  0  0  0  0  0  0  0  0  0  0  # atno 11005 bound_to 11000
  145.4876  141.0438  143.2611 LP  0  0  0  0  0  0  0  0  0  0  0  0  # atno 17320 bound_to 7965
  144.7877  139.6393  143.7127 LP  0  0  0  0  0  0  0  0  0  0  0  0  # atno 17321 bound_to 7965
  140.4842  144.1406  150.5938 LP  0  0  0  0  0  0  0  0  0  0  0  0  # atno 17342 bound_to 10162
  140.4244  143.2597  151.9675 LP  0  0  0  0  0  0  0  0  0  0  0  0  # atno 17343 bound_to 10162
  156.4785  130.4068  149.6476 LP  0  0  0  0  0  0  0  0  0  0  0  0  # atno 17370 bound_to 10713
  156.3530  130.7442  151.2404 LP  0  0  0  0  0  0  0  0  0  0  0  0  # atno 17371 bound_to 10713
  141.2174  133.6804  156.7107 LP  0  0  0  0  0  0  0  0  0  0  0  0  # atno 17394 bound_to 11000
  140.2816  134.8312  157.3938 LP  0  0  0  0  0  0  0  0  0  0  0  0  # atno 17395 bound_to 11000

$$$$
