AV-unprocessed.smi:2613|AV-procd|sdf|10213|dock6
  -GOLD-   2272014223D 1   1.00000     0.00000
 Structure written by MMmdl.
 28 29  0  0  0  0  0  0  0  0  3 V2000
  146.8056  139.3391  152.1600 C   0  0  0  0  0  0  0  0  0  0  0  0
  147.9632  139.3687  153.1000 C   0  0  0  0  0  0  0  0  0  0  0  0
  148.8478  138.3550  153.3178 N   0  3  0  0  0  0  0  0  0  0  0  0
  149.7909  138.7479  154.2688 C   0  0  0  0  0  0  0  0  0  0  0  0
  150.8746  138.0662  154.8106 C   0  0  0  0  0  0  0  0  0  0  0  0
  151.6529  138.7490  155.7766 C   0  0  0  0  0  0  0  0  0  0  0  0
  152.8363  138.0622  156.4027 C   0  0  0  0  0  0  0  0  0  0  0  0
  153.6528  138.7439  157.0610 O   0  0  0  0  0  0  0  0  0  0  0  0
  152.9668  136.8277  156.2466 O   0  5  0  0  0  0  0  0  0  0  0  0
  151.3186  140.0724  156.1547 C   0  0  0  0  0  0  0  0  0  0  0  0
  150.2172  140.7544  155.5972 C   0  0  0  0  0  0  0  0  0  0  0  0
  149.4659  140.0642  154.6494 C   0  0  0  0  0  0  0  0  0  0  0  0
  148.3343  140.4072  153.9018 N   0  0  0  0  0  0  0  0  0  0  0  0
  147.7365  141.7373  154.0708 C   0  0  0  0  0  0  0  0  0  0  0  0
  146.6701  141.7489  155.1746 C   0  0  0  0  0  0  0  0  0  0  0  0
  147.0751  142.6134  156.2128 O   0  0  0  0  0  0  0  0  0  0  0  0
  146.7046  138.3526  151.7069 H   0  0  0  0  0  0  0  0  0  0  0  0
  146.9474  140.0731  151.3667 H   0  0  0  0  0  0  0  0  0  0  0  0
  145.8832  139.5737  152.6916 H   0  0  0  0  0  0  0  0  0  0  0  0
  151.1101  137.0564  154.5066 H   0  0  0  0  0  0  0  0  0  0  0  0
  151.9163  140.5884  156.8926 H   0  0  0  0  0  0  0  0  0  0  0  0
  149.9789  141.7627  155.9012 H   0  0  0  0  0  0  0  0  0  0  0  0
  148.5298  142.4568  154.2774 H   0  0  0  0  0  0  0  0  0  0  0  0
  147.2961  142.0275  153.1161 H   0  0  0  0  0  0  0  0  0  0  0  0
  145.7124  142.0908  154.7809 H   0  0  0  0  0  0  0  0  0  0  0  0
  146.5191  140.7493  155.5830 H   0  0  0  0  0  0  0  0  0  0  0  0
  147.7708  143.1668  155.8914 H   0  0  0  0  0  0  0  0  0  0  0  0
  148.8080  137.4584  152.8505 H   0  0  0  0  0  0  0  0  0  0  0  0
  1  2  1  0  0  0  0
  1 17  1  0  0  0  0
  1 18  1  0  0  0  0
  1 19  1  0  0  0  0
  2 13  1  0  0  0  0
  2  3  2  0  0  0  0
  3  4  1  0  0  0  0
  3 28  1  0  0  0  0
  4 12  2  0  0  0  0
  4  5  1  0  0  0  0
  5  6  2  0  0  0  0
  5 20  1  0  0  0  0
  6  7  1  0  0  0  0
  6 10  1  0  0  0  0
  7  8  2  0  0  0  0
  7  9  1  0  0  0  0
 10 11  2  0  0  0  0
 10 21  1  0  0  0  0
 11 12  1  0  0  0  0
 11 22  1  0  0  0  0
 12 13  1  0  0  0  0
 13 14  1  0  0  0  0
 14 15  1  0  0  0  0
 14 23  1  0  0  0  0
 14 24  1  0  0  0  0
 15 16  1  0  0  0  0
 15 25  1  0  0  0  0
 15 26  1  0  0  0  0
 16 27  1  0  0  0  0
M  CHG  1   3   1
M  CHG  1   9  -1
M  END
> <s_m_source_file>
AV-unprocessed.smi

> <i_m_source_file_index>
2613

> <i_lp_mmshare_version>
43012

> <i_f3d_flags>
0

> <s_epik_input>
W09IXVtDSDJdW0NIMl1uKGMobjEpW0NIM10pYyhjMTIpW2NIXVtjSF1jKFtjSF0yKUMoPU8pW09IXQ==

> <s_epik_cmdline>
J2VwaWtfcHl0aG9uJywgJy1waCcsICc3LjAnLCAnLXRuJywgJzgnLCAnLW1hJywgJzIwMCcsICctbWV0YWxfYmluZGluZycsICctaW1hZScsICc8aW5maWxlLm1hZT4nLCAnLW9tYWUnLCAnPG91dGZpbGUubWFlPic=

> <r_epik_Ionization_Penalty>
0.929425

> <r_epik_Ionization_Penalty_Charging>
0.929425

> <r_epik_Ionization_Penalty_Neutral>
5.76694e-08

> <r_epik_State_Penalty>
0.971794

> <r_epik_Charging_Adjusted_Penalty>
1.90122

> <i_epik_Tot_Q>
0

> <i_epik_Tot_abs_Q>
2

> <r_epik_Metal_State_Penalty>
4.93694

> <b_epik_Metal_Only>
0

> <s_lp_Force_Field>
OPLS_2005

> <r_lp_Energy>
5.88702

> <b_lp_Chiralities_Consistent>
1

> <s_lp_Variant>
AV-unprocessed.smi:2613-2

> <Gold.Version>
5.8.1

> <Gold.Id.Protein>
6NUR|6NUR_protein|mol2

> <Gold.PLP.Fitness>
48.0675

> <Gold.PLP.PLP>
-29.8685

> <Gold.PLP.part.hbond>
-4.7485

> <Gold.PLP.part.metal>
0.0000

> <Gold.PLP.part.buried>
2.7632

> <Gold.PLP.part.nonpolar>
-28.9729

> <Gold.PLP.part.repulsive>
0.0619

> <Gold.PLP.ligand.clash>
0.0000

> <Gold.PLP.ligand.torsion>
0.8252

> <Gold.PLP.Chemscore.Hbond>
6.6160

> <Gold.PLP.Chemscore.CHOScore>
0.0000

> <Gold.PLP.Chemscore.Metal>
0.0000

> <Gold.Chemscore.Hbonds>
donor molecule, donor type, donor heavy atom, donor atom, acceptor molecule, acceptor atom, score
      L1  H     3    28       P1  7948  2.00
      L1  H    16    27       P1  8028  1.00
      P1  H  7997  8008       L1     8  1.95
      P1  H 10752 10765       L1     9  1.63

> <Gold.PLP.Chemscore.Internal.Correction>
0.0014

> <Gold.Rescore>
     Score         DG    S(hbond)    S(metal)    S(lipo)     H(rot)  DE(clash)    DE(int)     intcor
     17.00     -18.66       3.41        0.00      55.87       1.86       0.89       0.77       ----

> <Gold.Chemscore.Fitness>
16.9974

> <Gold.Chemscore.DG>
-18.6585

> <Gold.Chemscore.ZeroCoef>
-5.4800

> <Gold.Chemscore.Hbond>
3.4126

> <Gold.Chemscore.Metal>
0.0000

> <Gold.Chemscore.Lipo>
55.8683

> <Gold.Chemscore.Internal_Hbond>
0.0000

> <Gold.Chemscore.DEClash>
0.8895

> <Gold.Chemscore.DEInternal>
0.7715

> <Gold.Chemscore.Rot>
1.8579

> <Gold.Chemscore.Internal.Correction>
   9.000000E+99

> <Gold.Chemscore.Hbonds>
donor molecule, donor type, donor heavy atom, donor atom, acceptor molecule, acceptor atom, score
      L1  H     3    28       P1  7948  0.96
      L1  H    16    27       P1  8028  0.25
      P1  H  7997  8008       L1     8  0.88
      P1  H 10752 10765       L1     9  0.81

> <Gold.Chemscore.Hbond.Weighted>
-11.3980

> <Gold.Chemscore.Metal.Weighted>
-0.0000

> <Gold.Chemscore.Lipo.Weighted>
-6.5366

> <Gold.Chemscore.Internal_Hbond.Weighted>
0.0000

> <Gold.Chemscore.DEClash.Weighted>
0.8895

> <Gold.Chemscore.DEInternal.Weighted>
0.7715

> <Gold.Chemscore.Rot.Weighted>
4.7561

> <Gold.Chemscore.Internal.Correction.Weighted>
   9.000000E+99

> <Gold.Protein.RotatedTorsions>
[ 6907 6896 6895 6894 ] final   96.95 input  -60.11 | X-H torsion
[ 7974 7965 7964 7962 ] final  107.46 input  175.53 | X-H torsion
[ 8008 7997 7996 7995 ] final  -74.96 input   59.86 | X-H torsion
[ 10167 10162 10161 10158 ] final -149.05 input  -65.29 | X-H torsion
[ 10718 10713 10712 10709 ] final  167.30 input   66.30 | X-H torsion
[ 10763 10752 10751 10750 ] final -129.82 input  -60.55 | X-H torsion
[ 11005 11000 10999 10996 ] final   59.41 input  -57.11 | X-H torsion

> <Gold.Protein.ActiveResidues>
 VAL166  LYS551  ARG553  GLY616  TRP617  ASP618  TYR619  PRO620  LYS621  CYS622 
 ASP623  PHE694  ASN695  SER759  ASP760  ASP761  ALA762  ILE779  LEU786  VAL792 
 PHE793  MET794  SER795  GLU796  ALA797  LYS798  CYS799  TRP800  GLU811  SER814 

> <Gold.Protein.RotatedAtoms>
  152.5429  134.0808  159.8234 H   0  0  0  0  0  0  0  0  0  0  0  0  # atno 6907 bound_to 6896
  151.0910  133.5309  159.2622 H   0  0  0  0  0  0  0  0  0  0  0  0  # atno 6908 bound_to 6896
  151.2100  135.0486  159.8961 H   0  0  0  0  0  0  0  0  0  0  0  0  # atno 6909 bound_to 6896
  145.2934  139.2593  143.3852 H   0  0  0  0  0  0  0  0  0  0  0  0  # atno 7974 bound_to 7965
  154.5375  140.0752  156.8453 H   0  0  0  0  0  0  0  0  0  0  0  0  # atno 8008 bound_to 7997
  155.3248  140.3398  155.4222 H   0  0  0  0  0  0  0  0  0  0  0  0  # atno 8009 bound_to 7997
  156.1843  140.1663  156.8202 H   0  0  0  0  0  0  0  0  0  0  0  0  # atno 8010 bound_to 7997
  139.7477  143.8566  152.2578 H   0  0  0  0  0  0  0  0  0  0  0  0  # atno 10167 bound_to 10162
  157.0535  131.0320  151.2672 H   0  0  0  0  0  0  0  0  0  0  0  0  # atno 10718 bound_to 10713
  154.8757  135.3883  154.3982 H   0  0  0  0  0  0  0  0  0  0  0  0  # atno 10763 bound_to 10752
  153.4710  135.7030  153.5999 H   0  0  0  0  0  0  0  0  0  0  0  0  # atno 10764 bound_to 10752
  153.4456  135.3846  155.2221 H   0  0  0  0  0  0  0  0  0  0  0  0  # atno 10765 bound_to 10752
  140.0306  134.6017  155.9512 H   0  0  0  0  0  0  0  0  0  0  0  0  # atno 11005 bound_to 11000
  146.3177  140.3431  142.8649 LP  0  0  0  0  0  0  0  0  0  0  0  0  # atno 17320 bound_to 7965
  144.9154  140.7806  143.5782 LP  0  0  0  0  0  0  0  0  0  0  0  0  # atno 17321 bound_to 7965
  139.8535  144.7153  150.9185 LP  0  0  0  0  0  0  0  0  0  0  0  0  # atno 17342 bound_to 10162
  140.7794  143.3879  151.1362 LP  0  0  0  0  0  0  0  0  0  0  0  0  # atno 17343 bound_to 10162
  157.5011  130.7880  149.7606 LP  0  0  0  0  0  0  0  0  0  0  0  0  # atno 17370 bound_to 10713
  156.0000  130.3885  150.2643 LP  0  0  0  0  0  0  0  0  0  0  0  0  # atno 17371 bound_to 10713
  141.1829  133.6550  156.5094 LP  0  0  0  0  0  0  0  0  0  0  0  0  # atno 17394 bound_to 11000
  140.4232  134.7169  157.4901 LP  0  0  0  0  0  0  0  0  0  0  0  0  # atno 17395 bound_to 11000

$$$$
