AV-unprocessed.smi:686|AV-procd|sdf|3340|dock2
  -GOLD-   22720 0313D 1   1.00000     0.00000
 Structure written by MMmdl.
 41 42  0  0  0  0  0  0  0  0  2 V2000
  147.1871  140.4304  153.1190 C   0  0  0  0  0  0  0  0  0  0  0  0
  146.5685  139.0461  153.3743 C   0  0  1  0  0  0  0  0  0  0  0  0
  146.1824  138.2605  152.1123 C   0  0  0  0  0  0  0  0  0  0  0  0
  146.4097  136.8220  152.4054 N   0  3  2  0  0  0  0  0  0  0  0  0
  145.3342  135.8988  151.9458 C   0  0  0  0  0  0  0  0  0  0  0  0
  145.2092  135.8858  150.4100 C   0  0  0  0  0  0  0  0  0  0  0  0
  143.9761  136.2800  152.5656 C   0  0  0  0  0  0  0  0  0  0  0  0
  146.7787  136.7184  153.8365 C   0  0  0  0  0  0  0  0  0  0  0  0
  147.4051  138.0658  154.2021 C   0  0  1  0  0  0  0  0  0  0  0  0
  148.8214  138.0988  153.8195 N   0  0  0  0  0  0  0  0  0  0  0  0
  150.0141  138.4762  155.0070 S   0  0  0  0  0  0  0  0  0  0  0  0
  150.5385  139.8106  154.6799 O   0  0  0  0  0  0  0  0  0  0  0  0
  149.4209  138.2224  156.3288 O   0  0  0  0  0  0  0  0  0  0  0  0
  151.3190  137.2187  154.6641 C   0  0  0  0  0  0  0  0  0  0  0  0
  150.8820  135.8766  155.1811 C   0  0  0  0  0  0  0  0  0  0  0  0
  149.7222  135.1299  154.8344 C   0  0  0  0  0  0  0  0  0  0  0  0
  149.8341  133.9981  155.5895 C   0  0  0  0  0  0  0  0  0  0  0  0
  150.9638  134.0375  156.3407 O   0  0  0  0  0  0  0  0  0  0  0  0
  151.6247  135.2422  156.0760 N   0  0  0  0  0  0  0  0  0  0  0  0
  148.0917  140.3660  152.5136 H   0  0  0  0  0  0  0  0  0  0  0  0
  147.4466  140.9204  154.0578 H   0  0  0  0  0  0  0  0  0  0  0  0
  146.4854  141.0766  152.5910 H   0  0  0  0  0  0  0  0  0  0  0  0
  145.6469  139.2087  153.9360 H   0  0  0  0  0  0  0  0  0  0  0  0
  145.1458  138.4726  151.8470 H   0  0  0  0  0  0  0  0  0  0  0  0
  146.8053  138.5401  151.2617 H   0  0  0  0  0  0  0  0  0  0  0  0
  145.5910  134.8896  152.2719 H   0  0  0  0  0  0  0  0  0  0  0  0
  144.3839  135.2482  150.0914 H   0  0  0  0  0  0  0  0  0  0  0  0
  146.1071  135.4985  149.9283 H   0  0  0  0  0  0  0  0  0  0  0  0
  145.0231  136.8864  150.0180 H   0  0  0  0  0  0  0  0  0  0  0  0
  143.1862  135.6167  152.2118 H   0  0  0  0  0  0  0  0  0  0  0  0
  143.6928  137.2992  152.3003 H   0  0  0  0  0  0  0  0  0  0  0  0
  143.9835  136.2097  153.6530 H   0  0  0  0  0  0  0  0  0  0  0  0
  145.8756  136.5740  154.4322 H   0  0  0  0  0  0  0  0  0  0  0  0
  147.4365  135.8697  154.0223 H   0  0  0  0  0  0  0  0  0  0  0  0
  147.3212  138.2767  155.2691 H   0  0  0  0  0  0  0  0  0  0  0  0
  149.0947  137.2971  153.2514 H   0  0  0  0  0  0  0  0  0  0  0  0
  151.5205  137.1994  153.5926 H   0  0  0  0  0  0  0  0  0  0  0  0
  152.2322  137.5399  155.1652 H   0  0  0  0  0  0  0  0  0  0  0  0
  148.9348  135.3825  154.1398 H   0  0  0  0  0  0  0  0  0  0  0  0
  149.2221  133.1148  155.6980 H   0  0  0  0  0  0  0  0  0  0  0  0
  147.2437  136.5695  151.8945 H   0  0  0  0  0  0  0  0  0  0  0  0
  1  2  1  0  0  0  0
  1 20  1  0  0  0  0
  1 21  1  0  0  0  0
  1 22  1  0  0  0  0
  2  9  1  0  0  0  0
  2  3  1  0  0  0  0
  2 23  1  0  0  0  0
  3  4  1  0  0  0  0
  3 24  1  0  0  0  0
  3 25  1  0  0  0  0
  4  5  1  0  0  0  0
  4  8  1  0  0  0  0
  4 41  1  0  0  0  0
  5  6  1  0  0  0  0
  5  7  1  0  0  0  0
  5 26  1  0  0  0  0
  6 27  1  0  0  0  0
  6 28  1  0  0  0  0
  6 29  1  0  0  0  0
  7 30  1  0  0  0  0
  7 31  1  0  0  0  0
  7 32  1  0  0  0  0
  8  9  1  0  0  0  0
  8 33  1  0  0  0  0
  8 34  1  0  0  0  0
  9 10  1  0  0  0  0
  9 35  1  0  0  0  0
 10 11  1  0  0  0  0
 10 36  1  0  0  0  0
 11 12  2  0  0  0  0
 11 13  2  0  0  0  0
 11 14  1  0  0  0  0
 14 15  1  0  0  0  0
 14 37  1  0  0  0  0
 14 38  1  0  0  0  0
 15 19  2  0  0  0  0
 15 16  1  0  0  0  0
 16 17  2  0  0  0  0
 16 39  1  0  0  0  0
 17 18  1  0  0  0  0
 17 40  1  0  0  0  0
 18 19  1  0  0  0  0
M  CHG  1   4   1
M  END
> <s_m_source_file>
AV-unprocessed.smi

> <i_m_source_file_index>
686

> <i_lp_mmshare_version>
43012

> <i_f3d_flags>
0

> <s_epik_input>
W0NIM11bQ0BASF0xW0NIMl1OKFtDSF0oW0NIM10pW0NIM10pW0NIMl1bQ0BIXTFbTkhdUyg9TykoPU8pW0NIMl1jMltjSF1bY0hdb24y

> <s_epik_cmdline>
J2VwaWtfcHl0aG9uJywgJy1waCcsICc3LjAnLCAnLXRuJywgJzgnLCAnLW1hJywgJzIwMCcsICctbWV0YWxfYmluZGluZycsICctaW1hZScsICc8aW5maWxlLm1hZT4nLCAnLW9tYWUnLCAnPG91dGZpbGUubWFlPic=

> <r_epik_Ionization_Penalty>
0.00200818

> <r_epik_Ionization_Penalty_Charging>
0.000701289

> <r_epik_Ionization_Penalty_Neutral>
0.00130689

> <r_epik_State_Penalty>
0.00131314

> <r_epik_Charging_Adjusted_Penalty>
0.00201443

> <i_epik_Tot_Q>
1

> <i_epik_Tot_abs_Q>
1

> <r_epik_Metal_State_Penalty>
0.310831

> <b_epik_Metal_Only>
0

> <s_lp_Force_Field>
OPLS_2005

> <r_lp_Energy>
21.9273

> <b_lp_Chiralities_Consistent>
1

> <s_lp_Variant>
AV-unprocessed.smi:686-4

> <Gold.Version>
5.8.1

> <Gold.Id.Protein>
6NUR|6NUR_protein|mol2

> <Gold.PLP.Fitness>
40.7816

> <Gold.PLP.PLP>
-28.3053

> <Gold.PLP.part.hbond>
-4.6374

> <Gold.PLP.part.metal>
0.0000

> <Gold.PLP.part.buried>
-2.7880

> <Gold.PLP.part.nonpolar>
-22.0287

> <Gold.PLP.part.repulsive>
0.1316

> <Gold.PLP.ligand.clash>
0.0000

> <Gold.PLP.ligand.torsion>
1.3836

> <Gold.PLP.Chemscore.Hbond>
4.9920

> <Gold.PLP.Chemscore.CHOScore>
0.0000

> <Gold.PLP.Chemscore.Metal>
0.0000

> <Gold.Chemscore.Hbonds>
donor molecule, donor type, donor heavy atom, donor atom, acceptor molecule, acceptor atom, score
      L1  H     4    41       P1  7948  2.00
      L1  H    10    36       P1  7948  1.00
      P1  H  7989  7998       L1    12  1.00
      P1  H 10752 10763       L1    19  0.77

> <Gold.PLP.Chemscore.Internal.Correction>
0.2676

> <Gold.Rescore>
     Score         DG    S(hbond)    S(metal)    S(lipo)     H(rot)  DE(clash)    DE(int)     intcor
     18.81     -20.35       3.76        0.00      61.74       1.91       0.29       1.26       ----

> <Gold.Chemscore.Fitness>
18.8083

> <Gold.Chemscore.DG>
-20.3530

> <Gold.Chemscore.ZeroCoef>
-5.4800

> <Gold.Chemscore.Hbond>
3.7555

> <Gold.Chemscore.Metal>
0.0000

> <Gold.Chemscore.Lipo>
61.7352

> <Gold.Chemscore.Internal_Hbond>
0.0000

> <Gold.Chemscore.DEClash>
0.2874

> <Gold.Chemscore.DEInternal>
1.2573

> <Gold.Chemscore.Rot>
1.9115

> <Gold.Chemscore.Internal.Correction>
   9.000000E+99

> <Gold.Chemscore.Hbonds>
donor molecule, donor type, donor heavy atom, donor atom, acceptor molecule, acceptor atom, score
      L1  H     4    41       P1  7948  0.96
      L1  H    10    36       P1  7948  0.97
      P1  H  7989  7998       L1    12  1.00
      P1  H 10752 10763       L1    19  0.22

> <Gold.Chemscore.Hbond.Weighted>
-12.5435

> <Gold.Chemscore.Metal.Weighted>
-0.0000

> <Gold.Chemscore.Lipo.Weighted>
-7.2230

> <Gold.Chemscore.Internal_Hbond.Weighted>
0.0000

> <Gold.Chemscore.DEClash.Weighted>
0.2874

> <Gold.Chemscore.DEInternal.Weighted>
1.2573

> <Gold.Chemscore.Rot.Weighted>
4.8935

> <Gold.Chemscore.Internal.Correction.Weighted>
   9.000000E+99

> <Gold.Protein.RotatedTorsions>
[ 6907 6896 6895 6894 ] final  -44.59 input  -60.11 | X-H torsion
[ 7974 7965 7964 7962 ] final -156.27 input  175.53 | X-H torsion
[ 8008 7997 7996 7995 ] final   77.36 input   59.86 | X-H torsion
[ 10167 10162 10161 10158 ] final  122.66 input  -65.29 | X-H torsion
[ 10718 10713 10712 10709 ] final   -0.88 input   66.30 | X-H torsion
[ 10763 10752 10751 10750 ] final  110.92 input  -60.55 | X-H torsion
[ 11005 11000 10999 10996 ] final   -5.86 input  -57.11 | X-H torsion

> <Gold.Protein.ActiveResidues>
 VAL166  LYS551  ARG553  GLY616  TRP617  ASP618  TYR619  PRO620  LYS621  CYS622 
 ASP623  PHE694  ASN695  SER759  ASP760  ASP761  ALA762  ILE779  LEU786  VAL792 
 PHE793  MET794  SER795  GLU796  ALA797  LYS798  CYS799  TRP800  GLU811  SER814 

> <Gold.Protein.RotatedAtoms>
  150.9312  134.8727  159.7552 H   0  0  0  0  0  0  0  0  0  0  0  0  # atno 6907 bound_to 6896
  152.5038  134.4076  159.9448 H   0  0  0  0  0  0  0  0  0  0  0  0  # atno 6908 bound_to 6896
  151.4103  133.3689  159.2778 H   0  0  0  0  0  0  0  0  0  0  0  0  # atno 6909 bound_to 6896
  144.7601  140.4132  143.5983 H   0  0  0  0  0  0  0  0  0  0  0  0  # atno 7974 bound_to 7965
  155.8405  140.3462  155.5629 H   0  0  0  0  0  0  0  0  0  0  0  0  # atno 8008 bound_to 7997
  155.8146  140.0904  157.1904 H   0  0  0  0  0  0  0  0  0  0  0  0  # atno 8009 bound_to 7997
  154.4005  140.1441  156.3414 H   0  0  0  0  0  0  0  0  0  0  0  0  # atno 8010 bound_to 7997
  139.5845  144.7001  151.3443 H   0  0  0  0  0  0  0  0  0  0  0  0  # atno 10167 bound_to 10162
  156.8139  130.5433  149.5705 H   0  0  0  0  0  0  0  0  0  0  0  0  # atno 10718 bound_to 10713
  153.4559  135.3733  155.2310 H   0  0  0  0  0  0  0  0  0  0  0  0  # atno 10763 bound_to 10752
  154.8757  135.3897  154.3983 H   0  0  0  0  0  0  0  0  0  0  0  0  # atno 10764 bound_to 10752
  153.4549  135.7086  153.6150 H   0  0  0  0  0  0  0  0  0  0  0  0  # atno 10765 bound_to 10752
  140.6957  133.9033  155.8648 H   0  0  0  0  0  0  0  0  0  0  0  0  # atno 11005 bound_to 11000
  145.6649  139.1588  143.2787 LP  0  0  0  0  0  0  0  0  0  0  0  0  # atno 17320 bound_to 7965
  146.1654  140.6726  142.9258 LP  0  0  0  0  0  0  0  0  0  0  0  0  # atno 17321 bound_to 7965
  140.7119  143.7368  150.7583 LP  0  0  0  0  0  0  0  0  0  0  0  0  # atno 17342 bound_to 10162
  140.0909  143.4879  152.2479 LP  0  0  0  0  0  0  0  0  0  0  0  0  # atno 17343 bound_to 10162
  156.1028  130.5982  150.9922 LP  0  0  0  0  0  0  0  0  0  0  0  0  # atno 17370 bound_to 10713
  157.6492  131.0899  150.8088 LP  0  0  0  0  0  0  0  0  0  0  0  0  # atno 17371 bound_to 10713
  141.0205  134.0896  157.4126 LP  0  0  0  0  0  0  0  0  0  0  0  0  # atno 17394 bound_to 11000
  139.8911  135.0116  156.6771 LP  0  0  0  0  0  0  0  0  0  0  0  0  # atno 17395 bound_to 11000

$$$$
