AV-unprocessed.smi:2087|AV-procd|sdf|8522|dock5
  -GOLD-   2272011233D 1   1.00000     0.00000
 Structure written by MMmdl.
 51 52  0  0  0  0  0  0  0  0  2 V2000
  146.0268  135.8878  150.5355 C   0  0  0  0  0  0  0  0  0  0  0  0
  145.8972  136.4859  151.9466 C   0  0  0  0  0  0  0  0  0  0  0  0
  144.4175  136.6111  152.3405 C   0  0  0  0  0  0  0  0  0  0  0  0
  146.6043  137.8540  152.0615 C   0  0  0  0  0  0  0  0  0  0  0  0
  146.0890  138.6900  153.1807 N   0  3  1  0  0  0  0  0  0  0  0  0
  146.0269  137.9702  154.4762 C   0  0  0  0  0  0  0  0  0  0  0  0
  147.4187  137.8738  155.1267 C   0  0  0  0  0  0  0  0  0  0  0  0
  147.9523  139.1818  155.2876 O   0  0  0  0  0  0  0  0  0  0  0  0
  148.1375  139.8510  154.0437 C   0  0  2  0  0  0  0  0  0  0  0  0
  148.7963  141.2145  154.3212 C   0  0  0  0  0  0  0  0  0  0  0  0
  150.0037  141.0707  155.1265 N   0  0  0  0  0  0  0  0  0  0  0  0
  150.0277  140.9827  156.4644 C   0  0  0  0  0  0  0  0  0  0  0  0
  149.0089  140.9535  157.1562 O   0  0  0  0  0  0  0  0  0  0  0  0
  151.4147  140.9145  157.1154 C   0  0  0  0  0  0  0  0  0  0  0  0
  151.5602  141.8579  158.2314 N   0  0  0  0  0  0  0  0  0  0  0  0
  151.0904  143.1523  158.1024 C   0  0  0  0  0  0  0  0  0  0  0  0
  151.1897  144.0810  159.0783 C   0  0  0  0  0  0  0  0  0  0  0  0
  151.8172  143.7627  160.3554 C   0  0  0  0  0  0  0  0  0  0  0  0
  151.9134  144.5755  161.2754 O   0  0  0  0  0  0  0  0  0  0  0  0
  152.3005  142.4357  160.4559 N   0  0  0  0  0  0  0  0  0  0  0  0
  152.9338  142.0130  161.6881 C   0  0  0  0  0  0  0  0  0  0  0  0
  152.1811  141.4650  159.4371 C   0  0  0  0  0  0  0  0  0  0  0  0
  152.5990  140.3131  159.5832 O   0  0  0  0  0  0  0  0  0  0  0  0
  146.7663  140.0020  153.3499 C   0  0  0  0  0  0  0  0  0  0  0  0
  145.5877  136.5450  149.7842 H   0  0  0  0  0  0  0  0  0  0  0  0
  145.5185  134.9252  150.4708 H   0  0  0  0  0  0  0  0  0  0  0  0
  147.0697  135.7213  150.2651 H   0  0  0  0  0  0  0  0  0  0  0  0
  146.3484  135.7865  152.6498 H   0  0  0  0  0  0  0  0  0  0  0  0
  143.8854  137.2930  151.6759 H   0  0  0  0  0  0  0  0  0  0  0  0
  144.3111  136.9879  153.3584 H   0  0  0  0  0  0  0  0  0  0  0  0
  143.9151  135.6443  152.2962 H   0  0  0  0  0  0  0  0  0  0  0  0
  147.6689  137.6700  152.2131 H   0  0  0  0  0  0  0  0  0  0  0  0
  146.5285  138.3995  151.1209 H   0  0  0  0  0  0  0  0  0  0  0  0
  145.3581  138.5187  155.1409 H   0  0  0  0  0  0  0  0  0  0  0  0
  145.5867  136.9806  154.3497 H   0  0  0  0  0  0  0  0  0  0  0  0
  147.3416  137.4035  156.1069 H   0  0  0  0  0  0  0  0  0  0  0  0
  148.0954  137.2579  154.5324 H   0  0  0  0  0  0  0  0  0  0  0  0
  148.8037  139.2603  153.4138 H   0  0  0  0  0  0  0  0  0  0  0  0
  149.0403  141.7176  153.3842 H   0  0  0  0  0  0  0  0  0  0  0  0
  148.1028  141.8672  154.8525 H   0  0  0  0  0  0  0  0  0  0  0  0
  150.8856  141.0783  154.6344 H   0  0  0  0  0  0  0  0  0  0  0  0
  151.5783  139.8929  157.4608 H   0  0  0  0  0  0  0  0  0  0  0  0
  152.1901  141.1035  156.3706 H   0  0  0  0  0  0  0  0  0  0  0  0
  150.6186  143.4402  157.1741 H   0  0  0  0  0  0  0  0  0  0  0  0
  150.7985  145.0741  158.9121 H   0  0  0  0  0  0  0  0  0  0  0  0
  153.8477  141.4741  161.4314 H   0  0  0  0  0  0  0  0  0  0  0  0
  152.2218  141.3687  162.2057 H   0  0  0  0  0  0  0  0  0  0  0  0
  153.2001  142.8714  162.3045 H   0  0  0  0  0  0  0  0  0  0  0  0
  146.8735  140.5159  152.3957 H   0  0  0  0  0  0  0  0  0  0  0  0
  146.1215  140.6348  153.9610 H   0  0  0  0  0  0  0  0  0  0  0  0
  145.1305  138.8908  152.9331 H   0  0  0  0  0  0  0  0  0  0  0  0
  1  2  1  0  0  0  0
  1 25  1  0  0  0  0
  1 26  1  0  0  0  0
  1 27  1  0  0  0  0
  2  3  1  0  0  0  0
  2  4  1  0  0  0  0
  2 28  1  0  0  0  0
  3 29  1  0  0  0  0
  3 30  1  0  0  0  0
  3 31  1  0  0  0  0
  4  5  1  0  0  0  0
  4 32  1  0  0  0  0
  4 33  1  0  0  0  0
  5 24  1  0  0  0  0
  5  6  1  0  0  0  0
  5 51  1  0  0  0  0
  6  7  1  0  0  0  0
  6 34  1  0  0  0  0
  6 35  1  0  0  0  0
  7  8  1  0  0  0  0
  7 36  1  0  0  0  0
  7 37  1  0  0  0  0
  8  9  1  0  0  0  0
  9 10  1  0  0  0  0
  9 24  1  0  0  0  0
  9 38  1  0  0  0  0
 10 11  1  0  0  0  0
 10 39  1  0  0  0  0
 10 40  1  0  0  0  0
 11 12  1  0  0  0  0
 11 41  1  0  0  0  0
 12 13  2  0  0  0  0
 12 14  1  0  0  0  0
 14 15  1  0  0  0  0
 14 42  1  0  0  0  0
 14 43  1  0  0  0  0
 15 22  1  0  0  0  0
 15 16  1  0  0  0  0
 16 17  2  0  0  0  0
 16 44  1  0  0  0  0
 17 18  1  0  0  0  0
 17 45  1  0  0  0  0
 18 19  2  0  0  0  0
 18 20  1  0  0  0  0
 20 21  1  0  0  0  0
 20 22  1  0  0  0  0
 21 46  1  0  0  0  0
 21 47  1  0  0  0  0
 21 48  1  0  0  0  0
 22 23  2  0  0  0  0
 24 49  1  0  0  0  0
 24 50  1  0  0  0  0
M  CHG  1   5   1
M  END
> <s_m_source_file>
AV-unprocessed.smi

> <i_m_source_file_index>
2087

> <i_lp_mmshare_version>
43012

> <i_f3d_flags>
0

> <s_epik_input>
W0NIM11bQ0hdKFtDSDNdKVtDSDJdTjFbQ0gyXVtDSDJdT1tDQEhdKFtDSDJdMSlbQ0gyXVtOSF1DKD1PKVtDSDJdbjJbY0hdW2NIXWMoPU8pbihbQ0gzXSljMj1P

> <s_epik_cmdline>
J2VwaWtfcHl0aG9uJywgJy1waCcsICc3LjAnLCAnLXRuJywgJzgnLCAnLW1hJywgJzIwMCcsICctbWV0YWxfYmluZGluZycsICctaW1hZScsICc8aW5maWxlLm1hZT4nLCAnLW9tYWUnLCAnPG91dGZpbGUubWFlPic=

> <r_lp_tautomer_probability>
1

> <r_epik_Ionization_Penalty>
0.097593

> <r_epik_Ionization_Penalty_Charging>
0.097593

> <r_epik_Ionization_Penalty_Neutral>
6.27044e-08

> <r_epik_State_Penalty>
0.0877056

> <r_epik_Charging_Adjusted_Penalty>
0.185299

> <i_epik_Tot_Q>
1

> <i_epik_Tot_abs_Q>
1

> <r_epik_Metal_State_Penalty>
0.0877109

> <b_epik_Metal_Only>
0

> <s_lp_Force_Field>
OPLS_2005

> <r_lp_Energy>
27.8921

> <b_lp_Chiralities_Consistent>
1

> <s_lp_Variant>
AV-unprocessed.smi:2087-3

> <Gold.Version>
5.8.1

> <Gold.Id.Protein>
6NUR|6NUR_protein|mol2

> <Gold.PLP.Fitness>
49.8384

> <Gold.PLP.PLP>
-42.3632

> <Gold.PLP.part.hbond>
-1.0000

> <Gold.PLP.part.metal>
0.0000

> <Gold.PLP.part.buried>
-2.0281

> <Gold.PLP.part.nonpolar>
-40.5212

> <Gold.PLP.part.repulsive>
1.1795

> <Gold.PLP.ligand.clash>
0.0070

> <Gold.PLP.ligand.torsion>
0.8080

> <Gold.PLP.Chemscore.Hbond>
2.0000

> <Gold.PLP.Chemscore.CHOScore>
1.0000

> <Gold.PLP.Chemscore.Metal>
0.0000

> <Gold.Chemscore.Hbonds>
donor molecule, donor type, donor heavy atom, donor atom, acceptor molecule, acceptor atom, score
      L1  H     5    51       P1 10175  1.10
      L1  C    16    44       P1  8028  0.78

> <Gold.PLP.Chemscore.Internal.Correction>
0.0981

> <Gold.Rescore>
     Score         DG    S(hbond)    S(metal)    S(lipo)     H(rot)  DE(clash)    DE(int)     intcor
      9.38     -12.25       0.94        0.00      79.80       2.22       0.68       2.19       ----

> <Gold.Chemscore.Fitness>
9.3810

> <Gold.Chemscore.DG>
-12.2491

> <Gold.Chemscore.ZeroCoef>
-5.4800

> <Gold.Chemscore.Hbond>
0.9365

> <Gold.Chemscore.Metal>
0.0000

> <Gold.Chemscore.Lipo>
79.8010

> <Gold.Chemscore.Internal_Hbond>
0.0000

> <Gold.Chemscore.DEClash>
0.6763

> <Gold.Chemscore.DEInternal>
2.1917

> <Gold.Chemscore.Rot>
2.2249

> <Gold.Chemscore.Internal.Correction>
   9.000000E+99

> <Gold.Chemscore.Hbonds>
donor molecule, donor type, donor heavy atom, donor atom, acceptor molecule, acceptor atom, score
      L1  H     5    51       P1 10175  0.54

> <Gold.Chemscore.Hbond.Weighted>
-3.1280

> <Gold.Chemscore.Metal.Weighted>
-0.0000

> <Gold.Chemscore.Lipo.Weighted>
-9.3367

> <Gold.Chemscore.Internal_Hbond.Weighted>
0.0000

> <Gold.Chemscore.DEClash.Weighted>
0.6763

> <Gold.Chemscore.DEInternal.Weighted>
2.1917

> <Gold.Chemscore.Rot.Weighted>
5.6957

> <Gold.Chemscore.Internal.Correction.Weighted>
   9.000000E+99

> <Gold.Protein.RotatedTorsions>
[ 6907 6896 6895 6894 ] final -140.28 input  -60.11 | X-H torsion
[ 7974 7965 7964 7962 ] final   39.66 input  175.53 | X-H torsion
[ 8008 7997 7996 7995 ] final  -75.97 input   59.86 | X-H torsion
[ 10167 10162 10161 10158 ] final -126.77 input  -65.29 | X-H torsion
[ 10718 10713 10712 10709 ] final   30.37 input   66.30 | X-H torsion
[ 10763 10752 10751 10750 ] final  -49.13 input  -60.55 | X-H torsion
[ 11005 11000 10999 10996 ] final -144.10 input  -57.11 | X-H torsion

> <Gold.Protein.ActiveResidues>
 VAL166  LYS551  ARG553  GLY616  TRP617  ASP618  TYR619  PRO620  LYS621  CYS622 
 ASP623  PHE694  ASN695  SER759  ASP760  ASP761  ALA762  ILE779  LEU786  VAL792 
 PHE793  MET794  SER795  GLU796  ALA797  LYS798  CYS799  TRP800  GLU811  SER814 

> <Gold.Protein.RotatedAtoms>
  151.0587  133.5562  159.2635 H   0  0  0  0  0  0  0  0  0  0  0  0  # atno 6907 bound_to 6896
  151.2546  135.0633  159.9085 H   0  0  0  0  0  0  0  0  0  0  0  0  # atno 6908 bound_to 6896
  152.5394  134.0342  159.8092 H   0  0  0  0  0  0  0  0  0  0  0  0  # atno 6909 bound_to 6896
  146.0966  139.5625  142.9441 H   0  0  0  0  0  0  0  0  0  0  0  0  # atno 7974 bound_to 7965
  154.5464  140.0735  156.8595 H   0  0  0  0  0  0  0  0  0  0  0  0  # atno 8008 bound_to 7997
  155.3080  140.3388  155.4227 H   0  0  0  0  0  0  0  0  0  0  0  0  # atno 8009 bound_to 7997
  156.1921  140.1690  156.8057 H   0  0  0  0  0  0  0  0  0  0  0  0  # atno 8010 bound_to 7997
  139.9679  143.5878  152.2423 H   0  0  0  0  0  0  0  0  0  0  0  0  # atno 10167 bound_to 10162
  157.2586  130.7150  149.6442 H   0  0  0  0  0  0  0  0  0  0  0  0  # atno 10718 bound_to 10713
  154.0891  135.6580  153.4849 H   0  0  0  0  0  0  0  0  0  0  0  0  # atno 10763 bound_to 10752
  153.0328  135.5198  154.7398 H   0  0  0  0  0  0  0  0  0  0  0  0  # atno 10764 bound_to 10752
  154.6517  135.3002  154.9947 H   0  0  0  0  0  0  0  0  0  0  0  0  # atno 10765 bound_to 10752
  140.8058  134.2803  157.4961 H   0  0  0  0  0  0  0  0  0  0  0  0  # atno 11005 bound_to 11000
  145.5935  141.0366  143.2057 LP  0  0  0  0  0  0  0  0  0  0  0  0  # atno 17320 bound_to 7965
  144.7400  139.7475  143.7314 LP  0  0  0  0  0  0  0  0  0  0  0  0  # atno 17321 bound_to 7965
  139.6504  144.7660  151.2160 LP  0  0  0  0  0  0  0  0  0  0  0  0  # atno 17342 bound_to 10162
  140.7532  143.6171  150.8549 LP  0  0  0  0  0  0  0  0  0  0  0  0  # atno 17343 bound_to 10162
  155.9664  130.4404  150.5300 LP  0  0  0  0  0  0  0  0  0  0  0  0  # atno 17370 bound_to 10713
  157.3200  131.0680  151.1939 LP  0  0  0  0  0  0  0  0  0  0  0  0  # atno 17371 bound_to 10713
  139.8718  134.9455  156.3912 LP  0  0  0  0  0  0  0  0  0  0  0  0  # atno 17394 bound_to 11000
  140.9248  133.7620  155.9951 LP  0  0  0  0  0  0  0  0  0  0  0  0  # atno 17395 bound_to 11000

$$$$
