AV-unprocessed.smi:3212|AV-procd|sdf|12281|dock1
  -GOLD-   2272018113D 1   1.00000     0.00000
 Structure written by MMmdl.
 39 39  0  0  0  0  0  0  0  0  1 V2000
  148.0128  141.5953  154.2196 C   0  0  0  0  0  0  0  0  0  0  0  0
  149.4566  141.3942  154.7051 C   0  0  1  0  0  0  0  0  0  0  0  0
  149.6733  142.1611  155.9485 N   0  0  0  0  0  0  0  0  0  0  0  0
  150.9886  142.0335  156.5784 C   0  0  0  0  0  0  0  0  0  0  0  0
  150.9343  142.0052  158.1199 C   0  0  0  0  0  0  0  0  0  0  0  0
  151.3629  143.2568  158.7174 N   0  0  0  0  0  0  0  0  0  0  0  0
  151.3309  144.5226  158.1715 C   0  0  0  0  0  0  0  0  0  0  0  0
  151.8382  145.3802  159.1049 C   0  0  0  0  0  0  0  0  0  0  0  0
  152.1581  144.5340  160.2030 C   0  0  0  0  0  0  0  0  0  0  0  0
  151.8760  143.2630  159.9668 N   0  0  0  0  0  0  0  0  0  0  0  0
  149.7760  139.8966  154.8426 C   0  0  0  0  0  0  0  0  0  0  0  0
  150.6017  139.3739  154.0941 O   0  0  0  0  0  0  0  0  0  0  0  0
  149.0846  139.2278  155.7827 N   0  0  0  0  0  0  0  0  0  0  0  0
  149.1315  137.7982  156.1084 C   0  0  0  0  0  0  0  0  0  0  0  0
  148.3216  137.6103  157.4032 C   0  0  0  0  0  0  0  0  0  0  0  0
  150.5836  137.3368  156.3539 C   0  0  0  0  0  0  0  0  0  0  0  0
  148.4788  136.9688  154.9829 C   0  0  0  0  0  0  0  0  0  0  0  0
  147.8264  141.0531  153.2918 H   0  0  0  0  0  0  0  0  0  0  0  0
  147.8105  142.6494  154.0256 H   0  0  0  0  0  0  0  0  0  0  0  0
  147.2873  141.2510  154.9578 H   0  0  0  0  0  0  0  0  0  0  0  0
  150.1072  141.8101  153.9348 H   0  0  0  0  0  0  0  0  0  0  0  0
  148.9641  141.9402  156.6331 H   0  0  0  0  0  0  0  0  0  0  0  0
  151.4291  141.1020  156.2215 H   0  0  0  0  0  0  0  0  0  0  0  0
  151.6607  142.8209  156.2369 H   0  0  0  0  0  0  0  0  0  0  0  0
  149.9119  141.8077  158.4446 H   0  0  0  0  0  0  0  0  0  0  0  0
  151.5384  141.1939  158.5257 H   0  0  0  0  0  0  0  0  0  0  0  0
  150.9512  144.7054  157.1770 H   0  0  0  0  0  0  0  0  0  0  0  0
  151.9608  146.4494  159.0175 H   0  0  0  0  0  0  0  0  0  0  0  0
  152.5854  144.8031  161.1576 H   0  0  0  0  0  0  0  0  0  0  0  0
  148.4326  139.7728  156.3278 H   0  0  0  0  0  0  0  0  0  0  0  0
  148.3045  136.5650  157.7138 H   0  0  0  0  0  0  0  0  0  0  0  0
  147.2866  137.9302  157.2752 H   0  0  0  0  0  0  0  0  0  0  0  0
  148.7453  138.1888  158.2252 H   0  0  0  0  0  0  0  0  0  0  0  0
  151.0700  137.9454  157.1170 H   0  0  0  0  0  0  0  0  0  0  0  0
  151.1919  137.3918  155.4511 H   0  0  0  0  0  0  0  0  0  0  0  0
  150.6130  136.3008  156.6933 H   0  0  0  0  0  0  0  0  0  0  0  0
  148.4269  135.9136  155.2528 H   0  0  0  0  0  0  0  0  0  0  0  0
  149.0384  137.0325  154.0498 H   0  0  0  0  0  0  0  0  0  0  0  0
  147.4615  137.3059  154.7803 H   0  0  0  0  0  0  0  0  0  0  0  0
  1  2  1  0  0  0  0
  1 18  1  0  0  0  0
  1 19  1  0  0  0  0
  1 20  1  0  0  0  0
  2  3  1  0  0  0  0
  2 11  1  0  0  0  0
  2 21  1  0  0  0  0
  3  4  1  0  0  0  0
  3 22  1  0  0  0  0
  4  5  1  0  0  0  0
  4 23  1  0  0  0  0
  4 24  1  0  0  0  0
  5  6  1  0  0  0  0
  5 25  1  0  0  0  0
  5 26  1  0  0  0  0
  6 10  1  0  0  0  0
  6  7  1  0  0  0  0
  7  8  2  0  0  0  0
  7 27  1  0  0  0  0
  8  9  1  0  0  0  0
  8 28  1  0  0  0  0
  9 10  2  0  0  0  0
  9 29  1  0  0  0  0
 11 12  2  0  0  0  0
 11 13  1  0  0  0  0
 13 14  1  0  0  0  0
 13 30  1  0  0  0  0
 14 15  1  0  0  0  0
 14 16  1  0  0  0  0
 14 17  1  0  0  0  0
 15 31  1  0  0  0  0
 15 32  1  0  0  0  0
 15 33  1  0  0  0  0
 16 34  1  0  0  0  0
 16 35  1  0  0  0  0
 16 36  1  0  0  0  0
 17 37  1  0  0  0  0
 17 38  1  0  0  0  0
 17 39  1  0  0  0  0
M  END
> <s_m_source_file>
AV-unprocessed.smi

> <i_m_source_file_index>
3212

> <i_lp_mmshare_version>
43012

> <i_f3d_flags>
0

> <s_epik_input>
W0NIM11DKFtDSDNdKShbQ0gzXSlbTkhdQyg9TylbQ0BIXShbQ0gzXSlbTkhdW0NIMl1bQ0gyXW4xW2NIXVtjSF1bY0hdbjE=

> <s_epik_cmdline>
J2VwaWtfcHl0aG9uJywgJy1waCcsICc3LjAnLCAnLXRuJywgJzgnLCAnLW1hJywgJzIwMCcsICctbWV0YWxfYmluZGluZycsICctaW1hZScsICc8aW5maWxlLm1hZT4nLCAnLW9tYWUnLCAnPG91dGZpbGUubWFlPic=

> <r_lp_tautomer_probability>
1

> <r_epik_Ionization_Penalty>
0.745735

> <r_epik_Ionization_Penalty_Charging>
0

> <r_epik_Ionization_Penalty_Neutral>
0.745735

> <r_epik_State_Penalty>
0.771152

> <r_epik_Charging_Adjusted_Penalty>
0.771152

> <i_epik_Tot_Q>
0

> <i_epik_Tot_abs_Q>
0

> <r_epik_Metal_State_Penalty>
0.770403

> <b_epik_Metal_Only>
0

> <s_lp_Force_Field>
OPLS_2005

> <r_lp_Energy>
7.05168

> <b_lp_Chiralities_Consistent>
1

> <s_lp_Variant>
AV-unprocessed.smi:3212-4

> <Gold.Version>
5.8.1

> <Gold.Id.Protein>
6NUR|6NUR_protein|mol2

> <Gold.PLP.Fitness>
36.3922

> <Gold.PLP.PLP>
-32.4936

> <Gold.PLP.part.hbond>
-2.0000

> <Gold.PLP.part.metal>
0.0000

> <Gold.PLP.part.buried>
-3.8118

> <Gold.PLP.part.nonpolar>
-25.9417

> <Gold.PLP.part.repulsive>
0.2130

> <Gold.PLP.ligand.clash>
0.0000

> <Gold.PLP.ligand.torsion>
1.1167

> <Gold.PLP.Chemscore.Hbond>
1.0000

> <Gold.PLP.Chemscore.CHOScore>
1.0000

> <Gold.PLP.Chemscore.Metal>
0.0000

> <Gold.Chemscore.Hbonds>
donor molecule, donor type, donor heavy atom, donor atom, acceptor molecule, acceptor atom, score
      P1  H  7989  7998       L1    12  1.00
      L1  C     7    27       P1  8028  1.00

> <Gold.PLP.Chemscore.Internal.Correction>
0.1320

> <Gold.Rescore>
     Score         DG    S(hbond)    S(metal)    S(lipo)     H(rot)  DE(clash)    DE(int)     intcor
     11.52     -12.58       0.95        0.00      77.05       1.99       0.07       1.00       ----

> <Gold.Chemscore.Fitness>
11.5216

> <Gold.Chemscore.DG>
-12.5844

> <Gold.Chemscore.ZeroCoef>
-5.4800

> <Gold.Chemscore.Hbond>
0.9516

> <Gold.Chemscore.Metal>
0.0000

> <Gold.Chemscore.Lipo>
77.0528

> <Gold.Chemscore.Internal_Hbond>
0.0000

> <Gold.Chemscore.DEClash>
0.0652

> <Gold.Chemscore.DEInternal>
0.9976

> <Gold.Chemscore.Rot>
1.9880

> <Gold.Chemscore.Internal.Correction>
   9.000000E+99

> <Gold.Chemscore.Hbonds>
donor molecule, donor type, donor heavy atom, donor atom, acceptor molecule, acceptor atom, score
      P1  H  7989  7998       L1    12  0.39

> <Gold.Chemscore.Hbond.Weighted>
-3.1785

> <Gold.Chemscore.Metal.Weighted>
-0.0000

> <Gold.Chemscore.Lipo.Weighted>
-9.0152

> <Gold.Chemscore.Internal_Hbond.Weighted>
0.0000

> <Gold.Chemscore.DEClash.Weighted>
0.0652

> <Gold.Chemscore.DEInternal.Weighted>
0.9976

> <Gold.Chemscore.Rot.Weighted>
5.0893

> <Gold.Chemscore.Internal.Correction.Weighted>
   9.000000E+99

> <Gold.Protein.RotatedTorsions>
[ 6907 6896 6895 6894 ] final  -50.81 input  -60.11 | X-H torsion
[ 7974 7965 7964 7962 ] final  -40.40 input  175.53 | X-H torsion
[ 8008 7997 7996 7995 ] final  -78.37 input   59.86 | X-H torsion
[ 10167 10162 10161 10158 ] final   -1.78 input  -65.29 | X-H torsion
[ 10718 10713 10712 10709 ] final   69.58 input   66.30 | X-H torsion
[ 10763 10752 10751 10750 ] final -132.75 input  -60.55 | X-H torsion
[ 11005 11000 10999 10996 ] final   77.77 input  -57.11 | X-H torsion

> <Gold.Protein.ActiveResidues>
 VAL166  LYS551  ARG553  GLY616  TRP617  ASP618  TYR619  PRO620  LYS621  CYS622 
 ASP623  PHE694  ASN695  SER759  ASP760  ASP761  ALA762  ILE779  LEU786  VAL792 
 PHE793  MET794  SER795  GLU796  ALA797  LYS798  CYS799  TRP800  GLU811  SER814 

> <Gold.Protein.RotatedAtoms>
  150.8671  134.8037  159.7126 H   0  0  0  0  0  0  0  0  0  0  0  0  # atno 6907 bound_to 6896
  152.4689  134.5005  159.9733 H   0  0  0  0  0  0  0  0  0  0  0  0  # atno 6908 bound_to 6896
  151.5100  133.3448  159.2919 H   0  0  0  0  0  0  0  0  0  0  0  0  # atno 6909 bound_to 6896
  146.0308  140.6734  142.9133 H   0  0  0  0  0  0  0  0  0  0  0  0  # atno 7974 bound_to 7965
  154.5683  140.0695  156.8925 H   0  0  0  0  0  0  0  0  0  0  0  0  # atno 8008 bound_to 7997
  155.2682  140.3363  155.4249 H   0  0  0  0  0  0  0  0  0  0  0  0  # atno 8009 bound_to 7997
  156.2098  140.1754  156.7705 H   0  0  0  0  0  0  0  0  0  0  0  0  # atno 8010 bound_to 7997
  140.6824  143.6735  150.8165 H   0  0  0  0  0  0  0  0  0  0  0  0  # atno 10167 bound_to 10162
  157.6354  130.9433  150.0533 H   0  0  0  0  0  0  0  0  0  0  0  0  # atno 10718 bound_to 10713
  154.8740  135.3788  154.4460 H   0  0  0  0  0  0  0  0  0  0  0  0  # atno 10763 bound_to 10752
  153.5140  135.7029  153.5771 H   0  0  0  0  0  0  0  0  0  0  0  0  # atno 10764 bound_to 10752
  153.4047  135.3939  155.1977 H   0  0  0  0  0  0  0  0  0  0  0  0  # atno 10765 bound_to 10752
  139.9240  134.7710  156.1564 H   0  0  0  0  0  0  0  0  0  0  0  0  # atno 11005 bound_to 11000
  144.7029  140.3732  143.7141 LP  0  0  0  0  0  0  0  0  0  0  0  0  # atno 17320 bound_to 7965
  145.7043  139.1669  143.2575 LP  0  0  0  0  0  0  0  0  0  0  0  0  # atno 17321 bound_to 7965
  140.0437  143.5319  152.2706 LP  0  0  0  0  0  0  0  0  0  0  0  0  # atno 17342 bound_to 10162
  139.6156  144.7618  151.2853 LP  0  0  0  0  0  0  0  0  0  0  0  0  # atno 17343 bound_to 10162
  156.1588  130.3643  149.9329 LP  0  0  0  0  0  0  0  0  0  0  0  0  # atno 17370 bound_to 10713
  156.7332  130.9051  151.3627 LP  0  0  0  0  0  0  0  0  0  0  0  0  # atno 17371 bound_to 10713
  141.0784  133.6765  156.2284 LP  0  0  0  0  0  0  0  0  0  0  0  0  # atno 17394 bound_to 11000
  140.6389  134.5186  157.5567 LP  0  0  0  0  0  0  0  0  0  0  0  0  # atno 17395 bound_to 11000

$$$$
