AV-unprocessed.smi:1354|AV-procd|sdf|5535|dock8
  -GOLD-   22720 5123D 1   1.00000     0.00000
 Structure written by MMmdl.
 40 42  0  0  0  0  0  0  0  0  2 V2000
  153.6632  138.4398  156.2766 O   0  0  0  0  0  0  0  0  0  0  0  0
  152.2669  138.3743  156.0851 C   0  0  0  0  0  0  0  0  0  0  0  0
  151.9400  138.5300  154.5936 C   0  0  0  0  0  0  0  0  0  0  0  0
  150.5717  139.0945  154.3874 C   0  0  0  0  0  0  0  0  0  0  0  0
  149.5532  138.4912  153.7117 N   0  3  0  0  0  0  0  0  0  0  0  0
  148.4223  139.3084  153.7328 C   0  0  0  0  0  0  0  0  0  0  0  0
  147.1578  139.1278  153.1807 C   0  0  0  0  0  0  0  0  0  0  0  0
  146.2245  140.1655  153.3835 C   0  0  0  0  0  0  0  0  0  0  0  0
  146.5619  141.3237  154.1130 C   0  0  0  0  0  0  0  0  0  0  0  0
  147.8460  141.4937  154.6707 C   0  0  0  0  0  0  0  0  0  0  0  0
  148.7645  140.4646  154.4633 C   0  0  0  0  0  0  0  0  0  0  0  0
  150.0992  140.2887  154.8484 N   0  0  0  0  0  0  0  0  0  0  0  0
  150.7732  141.3368  155.6301 C   0  0  0  0  0  0  0  0  0  0  0  0
  151.0143  140.9137  157.0866 C   0  0  0  0  0  0  0  0  0  0  0  0
  151.3570  142.0541  157.8628 O   0  0  0  0  0  0  0  0  0  0  0  0
  152.1394  141.8778  158.9846 C   0  0  0  0  0  0  0  0  0  0  0  0
  152.7480  140.6463  159.3379 C   0  0  0  0  0  0  0  0  0  0  0  0
  153.5331  140.5454  160.5026 C   0  0  0  0  0  0  0  0  0  0  0  0
  153.7205  141.6688  161.3281 C   0  0  0  0  0  0  0  0  0  0  0  0
  153.1218  142.8949  160.9868 C   0  0  0  0  0  0  0  0  0  0  0  0
  152.3366  142.9991  159.8219 C   0  0  0  0  0  0  0  0  0  0  0  0
  151.6173  144.5186  159.4245 Cl  0  0  0  0  0  0  0  0  0  0  0  0
  154.0573  137.6727  155.8894 H   0  0  0  0  0  0  0  0  0  0  0  0
  151.9005  137.4193  156.4632 H   0  0  0  0  0  0  0  0  0  0  0  0
  151.7921  139.1617  156.6711 H   0  0  0  0  0  0  0  0  0  0  0  0
  152.6704  139.1798  154.1105 H   0  0  0  0  0  0  0  0  0  0  0  0
  152.0030  137.5634  154.0921 H   0  0  0  0  0  0  0  0  0  0  0  0
  146.8973  138.2416  152.6207 H   0  0  0  0  0  0  0  0  0  0  0  0
  145.2306  140.0718  152.9707 H   0  0  0  0  0  0  0  0  0  0  0  0
  145.8224  142.1004  154.2443 H   0  0  0  0  0  0  0  0  0  0  0  0
  148.0952  142.3897  155.2195 H   0  0  0  0  0  0  0  0  0  0  0  0
  151.7087  141.6056  155.1394 H   0  0  0  0  0  0  0  0  0  0  0  0
  150.1470  142.2287  155.6017 H   0  0  0  0  0  0  0  0  0  0  0  0
  150.1114  140.4466  157.4816 H   0  0  0  0  0  0  0  0  0  0  0  0
  151.8195  140.1781  157.1234 H   0  0  0  0  0  0  0  0  0  0  0  0
  152.6271  139.7612  158.7322 H   0  0  0  0  0  0  0  0  0  0  0  0
  153.9925  139.6033  160.7634 H   0  0  0  0  0  0  0  0  0  0  0  0
  154.3221  141.5902  162.2216 H   0  0  0  0  0  0  0  0  0  0  0  0
  153.2665  143.7574  161.6210 H   0  0  0  0  0  0  0  0  0  0  0  0
  149.6304  137.5864  153.2650 H   0  0  0  0  0  0  0  0  0  0  0  0
  1  2  1  0  0  0  0
  1 23  1  0  0  0  0
  2  3  1  0  0  0  0
  2 24  1  0  0  0  0
  2 25  1  0  0  0  0
  3  4  1  0  0  0  0
  3 26  1  0  0  0  0
  3 27  1  0  0  0  0
  4 12  1  0  0  0  0
  4  5  2  0  0  0  0
  5  6  1  0  0  0  0
  5 40  1  0  0  0  0
  6 11  2  0  0  0  0
  6  7  1  0  0  0  0
  7  8  2  0  0  0  0
  7 28  1  0  0  0  0
  8  9  1  0  0  0  0
  8 29  1  0  0  0  0
  9 10  2  0  0  0  0
  9 30  1  0  0  0  0
 10 11  1  0  0  0  0
 10 31  1  0  0  0  0
 11 12  1  0  0  0  0
 12 13  1  0  0  0  0
 13 14  1  0  0  0  0
 13 32  1  0  0  0  0
 13 33  1  0  0  0  0
 14 15  1  0  0  0  0
 14 34  1  0  0  0  0
 14 35  1  0  0  0  0
 15 16  1  0  0  0  0
 16 21  1  0  0  0  0
 16 17  2  0  0  0  0
 17 18  1  0  0  0  0
 17 36  1  0  0  0  0
 18 19  2  0  0  0  0
 18 37  1  0  0  0  0
 19 20  1  0  0  0  0
 19 38  1  0  0  0  0
 20 21  2  0  0  0  0
 20 39  1  0  0  0  0
 21 22  1  0  0  0  0
M  CHG  1   5   1
M  END
> <s_m_source_file>
AV-unprocessed.smi

> <i_m_source_file_index>
1354

> <i_lp_mmshare_version>
43012

> <i_f3d_flags>
0

> <s_epik_input>
W2NIXTFbY0hdW2NIXVtjSF1jKGMxMiluKGMobjIpW0NIMl1bQ0gyXVtPSF0pW0NIMl1bQ0gyXU9jM1tjSF1bY0hdW2NIXVtjSF1jM0Ns

> <s_epik_cmdline>
J2VwaWtfcHl0aG9uJywgJy1waCcsICc3LjAnLCAnLXRuJywgJzgnLCAnLW1hJywgJzIwMCcsICctbWV0YWxfYmluZGluZycsICctaW1hZScsICc8aW5maWxlLm1hZT4nLCAnLW9tYWUnLCAnPG91dGZpbGUubWFlPic=

> <r_lp_tautomer_probability>
1

> <r_epik_Ionization_Penalty>
0.752951

> <r_epik_Ionization_Penalty_Charging>
0.752951

> <r_epik_Ionization_Penalty_Neutral>
5.89567e-08

> <r_epik_State_Penalty>
0.780107

> <r_epik_Charging_Adjusted_Penalty>
1.53306

> <i_epik_Tot_Q>
1

> <i_epik_Tot_abs_Q>
1

> <r_epik_Metal_State_Penalty>
4.68821

> <b_epik_Metal_Only>
0

> <s_lp_Force_Field>
OPLS_2005

> <r_lp_Energy>
19.8379

> <b_lp_Chiralities_Consistent>
1

> <s_lp_Variant>
AV-unprocessed.smi:1354-2

> <Gold.Version>
5.8.1

> <Gold.Id.Protein>
6NUR|6NUR_protein|mol2

> <Gold.PLP.Fitness>
54.1976

> <Gold.PLP.PLP>
-47.0376

> <Gold.PLP.part.hbond>
-3.0000

> <Gold.PLP.part.metal>
0.0000

> <Gold.PLP.part.buried>
1.1621

> <Gold.PLP.part.nonpolar>
-45.7172

> <Gold.PLP.part.repulsive>
0.1025

> <Gold.PLP.ligand.clash>
0.0000

> <Gold.PLP.ligand.torsion>
0.5378

> <Gold.PLP.Chemscore.Hbond>
2.7200

> <Gold.PLP.Chemscore.CHOScore>
0.0000

> <Gold.PLP.Chemscore.Metal>
0.0000

> <Gold.Chemscore.Hbonds>
donor molecule, donor type, donor heavy atom, donor atom, acceptor molecule, acceptor atom, score
      L1  H     5    40       P1  7948  2.00
      P1  H  7997  8009       L1     1  0.72

> <Gold.PLP.Chemscore.Internal.Correction>
0.0756

> <Gold.Rescore>
     Score         DG    S(hbond)    S(metal)    S(lipo)     H(rot)  DE(clash)    DE(int)     intcor
     17.28     -20.97       1.76        0.00     134.69       2.39       2.02       1.67       ----

> <Gold.Chemscore.Fitness>
17.2789

> <Gold.Chemscore.DG>
-20.9721

> <Gold.Chemscore.ZeroCoef>
-5.4800

> <Gold.Chemscore.Hbond>
1.7558

> <Gold.Chemscore.Metal>
0.0000

> <Gold.Chemscore.Lipo>
134.6874

> <Gold.Chemscore.Internal_Hbond>
0.0000

> <Gold.Chemscore.DEClash>
2.0229

> <Gold.Chemscore.DEInternal>
1.6703

> <Gold.Chemscore.Rot>
2.3948

> <Gold.Chemscore.Internal.Correction>
   9.000000E+99

> <Gold.Chemscore.Hbonds>
donor molecule, donor type, donor heavy atom, donor atom, acceptor molecule, acceptor atom, score
      L1  H     5    40       P1  7948  0.69
      P1  H  7997  8009       L1     1  0.67

> <Gold.Chemscore.Hbond.Weighted>
-5.8644

> <Gold.Chemscore.Metal.Weighted>
-0.0000

> <Gold.Chemscore.Lipo.Weighted>
-15.7584

> <Gold.Chemscore.Internal_Hbond.Weighted>
0.0000

> <Gold.Chemscore.DEClash.Weighted>
2.0229

> <Gold.Chemscore.DEInternal.Weighted>
1.6703

> <Gold.Chemscore.Rot.Weighted>
6.1308

> <Gold.Chemscore.Internal.Correction.Weighted>
   9.000000E+99

> <Gold.Protein.RotatedTorsions>
[ 6907 6896 6895 6894 ] final  -26.39 input  -60.11 | X-H torsion
[ 7974 7965 7964 7962 ] final -116.17 input  175.53 | X-H torsion
[ 8008 7997 7996 7995 ] final -163.64 input   59.86 | X-H torsion
[ 10167 10162 10161 10158 ] final -159.27 input  -65.29 | X-H torsion
[ 10718 10713 10712 10709 ] final -144.85 input   66.30 | X-H torsion
[ 10763 10752 10751 10750 ] final  -77.99 input  -60.55 | X-H torsion
[ 11005 11000 10999 10996 ] final  118.88 input  -57.11 | X-H torsion

> <Gold.Protein.ActiveResidues>
 VAL166  LYS551  ARG553  GLY616  TRP617  ASP618  TYR619  PRO620  LYS621  CYS622 
 ASP623  PHE694  ASN695  SER759  ASP760  ASP761  ALA762  ILE779  LEU786  VAL792 
 PHE793  MET794  SER795  GLU796  ALA797  LYS798  CYS799  TRP800  GLU811  SER814 

> <Gold.Protein.RotatedAtoms>
  151.1616  135.0276  159.8712 H   0  0  0  0  0  0  0  0  0  0  0  0  # atno 6907 bound_to 6896
  152.5451  134.1273  159.8434 H   0  0  0  0  0  0  0  0  0  0  0  0  # atno 6908 bound_to 6896
  151.1368  133.4952  159.2630 H   0  0  0  0  0  0  0  0  0  0  0  0  # atno 6909 bound_to 6896
  145.0999  140.8545  143.3932 H   0  0  0  0  0  0  0  0  0  0  0  0  # atno 7974 bound_to 7965
  155.8242  140.0924  157.1831 H   0  0  0  0  0  0  0  0  0  0  0  0  # atno 8008 bound_to 7997
  154.3979  140.1431  156.3597 H   0  0  0  0  0  0  0  0  0  0  0  0  # atno 8009 bound_to 7997
  155.8234  140.3445  155.5530 H   0  0  0  0  0  0  0  0  0  0  0  0  # atno 8010 bound_to 7997
  139.6628  143.9882  152.2236 H   0  0  0  0  0  0  0  0  0  0  0  0  # atno 10167 bound_to 10162
  156.3752  130.7809  151.1994 H   0  0  0  0  0  0  0  0  0  0  0  0  # atno 10718 bound_to 10713
  154.5201  135.5745  153.6674 H   0  0  0  0  0  0  0  0  0  0  0  0  # atno 10763 bound_to 10752
  152.9915  135.6180  154.2765 H   0  0  0  0  0  0  0  0  0  0  0  0  # atno 10764 bound_to 10752
  154.2685  135.2854  155.2728 H   0  0  0  0  0  0  0  0  0  0  0  0  # atno 10765 bound_to 10752
  139.9126  134.9624  156.7571 H   0  0  0  0  0  0  0  0  0  0  0  0  # atno 11005 bound_to 11000
  145.0968  139.2851  143.5707 LP  0  0  0  0  0  0  0  0  0  0  0  0  # atno 17320 bound_to 7965
  146.3530  140.0522  142.8635 LP  0  0  0  0  0  0  0  0  0  0  0  0  # atno 17321 bound_to 7965
  139.9626  144.6548  150.8065 LP  0  0  0  0  0  0  0  0  0  0  0  0  # atno 17342 bound_to 10162
  140.7587  143.3113  151.2838 LP  0  0  0  0  0  0  0  0  0  0  0  0  # atno 17343 bound_to 10162
  157.7487  131.0360  150.4390 LP  0  0  0  0  0  0  0  0  0  0  0  0  # atno 17370 bound_to 10713
  156.4624  130.4035  149.6568 LP  0  0  0  0  0  0  0  0  0  0  0  0  # atno 17371 bound_to 10713
  140.6727  133.9545  155.7866 LP  0  0  0  0  0  0  0  0  0  0  0  0  # atno 17394 bound_to 11000
  141.0566  134.0408  157.3714 LP  0  0  0  0  0  0  0  0  0  0  0  0  # atno 17395 bound_to 11000

$$$$
