AV-unprocessed.smi:148|AV-procd|sdf|1207|dock2
  -GOLD-   2262018373D 1   1.00000     0.00000
 Structure written by MMmdl.
 63 67  0  0  0  0  0  0  0  0  1 V2000
  146.3285  133.8828  155.4451 O   0  0  0  0  0  0  0  0  0  0  0  0
  146.9390  134.5685  154.3710 C   0  0  0  0  0  0  0  0  0  0  0  0
  148.1990  133.8302  153.8489 C   0  0  1  0  0  0  0  0  0  0  0  0
  149.2684  133.6383  154.9588 C   0  0  0  0  0  0  0  0  0  0  0  0
  149.8296  134.8839  155.4486 N   0  0  0  0  0  0  0  0  0  0  0  0
  150.6712  135.7379  154.7716 C   0  0  0  0  0  0  0  0  0  0  0  0
  151.0572  136.7872  155.4452 N   0  0  0  0  0  0  0  0  0  0  0  0
  150.4264  136.6481  156.6759 C   0  0  0  0  0  0  0  0  0  0  0  0
  150.4227  137.4007  157.8841 C   0  0  0  0  0  0  0  0  0  0  0  0
  151.1314  138.5317  158.0871 N   0  0  0  0  0  0  0  0  0  0  0  0
  152.0736  138.3176  159.1872 C   0  0  0  0  0  0  0  0  0  0  0  0
  153.1027  139.4488  159.2711 C   0  0  0  0  0  0  0  0  0  0  0  0
  152.3859  140.7938  159.3944 C   0  0  0  0  0  0  0  0  0  0  0  0
  151.4063  140.9729  158.2277 C   0  0  0  0  0  0  0  0  0  0  0  0
  150.3843  139.8080  158.1125 C   0  0  1  0  0  0  0  0  0  0  0  0
  149.4506  140.0277  156.8699 C   0  0  1  0  0  0  0  0  0  0  0  0
  148.9482  141.4655  156.6093 C   0  0  0  0  0  0  0  0  0  0  0  0
  148.6084  141.5649  155.1155 C   0  0  0  0  0  0  0  0  0  0  0  0
  149.0904  140.2576  154.4819 C   0  0  0  0  0  0  0  0  0  0  0  0
  150.0548  139.6488  155.5007 C   0  0  1  0  0  0  0  0  0  0  0  0
  151.3306  140.2372  155.3187 O   0  0  0  0  0  0  0  0  0  0  0  0
  149.6521  136.9604  158.9092 N   0  0  0  0  0  0  0  0  0  0  0  0
  148.9458  135.8337  158.7748 C   0  0  0  0  0  0  0  0  0  0  0  0
  148.8716  135.0140  157.7236 N   0  0  0  0  0  0  0  0  0  0  0  0
  149.6356  135.4659  156.6877 C   0  0  0  0  0  0  0  0  0  0  0  0
  147.8342  132.4617  153.2151 C   0  0  2  0  0  0  0  0  0  0  0  0
  146.6168  132.4952  152.2909 C   0  0  0  0  0  0  0  0  0  0  0  0
  145.9216  131.1463  152.4995 C   0  0  0  0  0  0  0  0  0  0  0  0
  146.7533  130.4244  153.3943 O   0  0  0  0  0  0  0  0  0  0  0  0
  147.4284  131.3677  154.2068 C   0  0  0  0  0  0  0  0  0  0  0  0
  145.8208  134.5018  155.9474 H   0  0  0  0  0  0  0  0  0  0  0  0
  146.2141  134.7133  153.5694 H   0  0  0  0  0  0  0  0  0  0  0  0
  147.1853  135.5580  154.7514 H   0  0  0  0  0  0  0  0  0  0  0  0
  148.6352  134.4389  153.0551 H   0  0  0  0  0  0  0  0  0  0  0  0
  148.8396  133.0963  155.8027 H   0  0  0  0  0  0  0  0  0  0  0  0
  150.1005  133.0336  154.5986 H   0  0  0  0  0  0  0  0  0  0  0  0
  151.0051  135.5484  153.7619 H   0  0  0  0  0  0  0  0  0  0  0  0
  151.5262  138.2532  160.1286 H   0  0  0  0  0  0  0  0  0  0  0  0
  152.5937  137.3669  159.0574 H   0  0  0  0  0  0  0  0  0  0  0  0
  153.7630  139.2941  160.1247 H   0  0  0  0  0  0  0  0  0  0  0  0
  153.7325  139.4426  158.3807 H   0  0  0  0  0  0  0  0  0  0  0  0
  151.8466  140.8421  160.3411 H   0  0  0  0  0  0  0  0  0  0  0  0
  153.1118  141.6076  159.4045 H   0  0  0  0  0  0  0  0  0  0  0  0
  150.9000  141.9271  158.3658 H   0  0  0  0  0  0  0  0  0  0  0  0
  151.9692  141.0563  157.2970 H   0  0  0  0  0  0  0  0  0  0  0  0
  149.7696  139.8174  159.0134 H   0  0  0  0  0  0  0  0  0  0  0  0
  148.5706  139.3960  157.0049 H   0  0  0  0  0  0  0  0  0  0  0  0
  148.0761  141.7205  157.2096 H   0  0  0  0  0  0  0  0  0  0  0  0
  149.7328  142.1854  156.8450 H   0  0  0  0  0  0  0  0  0  0  0  0
  147.5385  141.7023  154.9554 H   0  0  0  0  0  0  0  0  0  0  0  0
  149.1174  142.4219  154.6729 H   0  0  0  0  0  0  0  0  0  0  0  0
  148.2380  139.5888  154.3532 H   0  0  0  0  0  0  0  0  0  0  0  0
  149.5380  140.4033  153.4978 H   0  0  0  0  0  0  0  0  0  0  0  0
  150.1353  138.5696  155.3660 H   0  0  0  0  0  0  0  0  0  0  0  0
  151.4724  140.8627  156.0126 H   0  0  0  0  0  0  0  0  0  0  0  0
  148.3621  135.5434  159.6359 H   0  0  0  0  0  0  0  0  0  0  0  0
  148.6864  132.0923  152.6423 H   0  0  0  0  0  0  0  0  0  0  0  0
  145.9323  133.3014  152.5590 H   0  0  0  0  0  0  0  0  0  0  0  0
  146.9126  132.6428  151.2518 H   0  0  0  0  0  0  0  0  0  0  0  0
  144.9394  131.2873  152.9529 H   0  0  0  0  0  0  0  0  0  0  0  0
  145.7900  130.5960  151.5679 H   0  0  0  0  0  0  0  0  0  0  0  0
  148.2799  130.9022  154.7032 H   0  0  0  0  0  0  0  0  0  0  0  0
  146.7480  131.7516  154.9691 H   0  0  0  0  0  0  0  0  0  0  0  0
  1  2  1  0  0  0  0
  1 31  1  0  0  0  0
  2  3  1  0  0  0  0
  2 32  1  0  0  0  0
  2 33  1  0  0  0  0
  3  4  1  0  0  0  0
  3 26  1  0  0  0  0
  3 34  1  0  0  0  0
  4  5  1  0  0  0  0
  4 35  1  0  0  0  0
  4 36  1  0  0  0  0
  5 25  1  0  0  0  0
  5  6  1  0  0  0  0
  6  7  2  0  0  0  0
  6 37  1  0  0  0  0
  7  8  1  0  0  0  0
  8 25  2  0  0  0  0
  8  9  1  0  0  0  0
  9 10  1  0  0  0  0
  9 22  2  0  0  0  0
 10 15  1  0  0  0  0
 10 11  1  0  0  0  0
 11 12  1  0  0  0  0
 11 38  1  0  0  0  0
 11 39  1  0  0  0  0
 12 13  1  0  0  0  0
 12 40  1  0  0  0  0
 12 41  1  0  0  0  0
 13 14  1  0  0  0  0
 13 42  1  0  0  0  0
 13 43  1  0  0  0  0
 14 15  1  0  0  0  0
 14 44  1  0  0  0  0
 14 45  1  0  0  0  0
 15 16  1  0  0  0  0
 15 46  1  0  0  0  0
 16 20  1  0  0  0  0
 16 17  1  0  0  0  0
 16 47  1  0  0  0  0
 17 18  1  0  0  0  0
 17 48  1  0  0  0  0
 17 49  1  0  0  0  0
 18 19  1  0  0  0  0
 18 50  1  0  0  0  0
 18 51  1  0  0  0  0
 19 20  1  0  0  0  0
 19 52  1  0  0  0  0
 19 53  1  0  0  0  0
 20 21  1  0  0  0  0
 20 54  1  0  0  0  0
 21 55  1  0  0  0  0
 22 23  1  0  0  0  0
 23 24  2  0  0  0  0
 23 56  1  0  0  0  0
 24 25  1  0  0  0  0
 26 30  1  0  0  0  0
 26 27  1  0  0  0  0
 26 57  1  0  0  0  0
 27 28  1  0  0  0  0
 27 58  1  0  0  0  0
 27 59  1  0  0  0  0
 28 29  1  0  0  0  0
 28 60  1  0  0  0  0
 28 61  1  0  0  0  0
 29 30  1  0  0  0  0
 30 62  1  0  0  0  0
 30 63  1  0  0  0  0
M  END
> <s_m_source_file>
AV-unprocessed.smi

> <i_m_source_file_index>
148

> <i_lp_mmshare_version>
43012

> <i_f3d_flags>
0

> <s_epik_input>
W0NIMl0xT1tDSDJdW0NIMl1bQ0BIXTFbQ0BIXShbQ0gyXVtPSF0pW0NIMl1uKFtjSF1uMiljKGMyMyluW2NIXW5jM040W0NIMl1bQ0gyXVtDSDJdW0NIMl1bQ0BIXTRbQ0BASF01W0NIMl1bQ0gyXVtDSDJdW0NASF01W09IXQ==

> <s_epik_cmdline>
J2VwaWtfcHl0aG9uJywgJy1waCcsICc3LjAnLCAnLXRuJywgJzgnLCAnLW1hJywgJzIwMCcsICctbWV0YWxfYmluZGluZycsICctaW1hZScsICc8aW5maWxlLm1hZT4nLCAnLW9tYWUnLCAnPG91dGZpbGUubWFlPic=

> <r_lp_tautomer_probability>
1

> <r_epik_Ionization_Penalty>
0.00556303

> <r_epik_Ionization_Penalty_Charging>
0

> <r_epik_Ionization_Penalty_Neutral>
0.00556303

> <r_epik_State_Penalty>
0.00401767

> <r_epik_Charging_Adjusted_Penalty>
0.00401767

> <i_epik_Tot_Q>
0

> <i_epik_Tot_abs_Q>
0

> <r_epik_Metal_State_Penalty>
-0

> <b_epik_Metal_Only>
0

> <s_lp_Force_Field>
OPLS_2005

> <r_lp_Energy>
70.4735

> <b_lp_Chiralities_Consistent>
1

> <s_lp_Variant>
AV-unprocessed.smi:148-6

> <Gold.Version>
5.8.1

> <Gold.Id.Protein>
6NUR|6NUR_protein|mol2

> <Gold.PLP.Fitness>
42.7279

> <Gold.PLP.PLP>
-37.4034

> <Gold.PLP.part.hbond>
-1.1914

> <Gold.PLP.part.metal>
0.0000

> <Gold.PLP.part.buried>
-4.3152

> <Gold.PLP.part.nonpolar>
-32.7400

> <Gold.PLP.part.repulsive>
0.2329

> <Gold.PLP.ligand.clash>
0.0000

> <Gold.PLP.ligand.torsion>
0.7380

> <Gold.PLP.Chemscore.Hbond>
1.0000

> <Gold.PLP.Chemscore.CHOScore>
0.9986

> <Gold.PLP.Chemscore.Metal>
0.0000

> <Gold.Chemscore.Hbonds>
donor molecule, donor type, donor heavy atom, donor atom, acceptor molecule, acceptor atom, score
      P1  H  7989  7998       L1    21  1.00
      L1  C     6    37       P1  7949  0.84

> <Gold.PLP.Chemscore.Internal.Correction>
0.8047

> <Gold.Rescore>
     Score         DG    S(hbond)    S(metal)    S(lipo)     H(rot)  DE(clash)    DE(int)     intcor
      8.77     -10.49       0.90        0.00      89.73       3.32       0.03       1.69       ----

> <Gold.Chemscore.Fitness>
8.7674

> <Gold.Chemscore.DG>
-10.4877

> <Gold.Chemscore.ZeroCoef>
-5.4800

> <Gold.Chemscore.Hbond>
0.9010

> <Gold.Chemscore.Metal>
0.0000

> <Gold.Chemscore.Lipo>
89.7304

> <Gold.Chemscore.Internal_Hbond>
0.0000

> <Gold.Chemscore.DEClash>
0.0270

> <Gold.Chemscore.DEInternal>
1.6933

> <Gold.Chemscore.Rot>
3.3203

> <Gold.Chemscore.Internal.Correction>
   9.000000E+99

> <Gold.Chemscore.Hbonds>
donor molecule, donor type, donor heavy atom, donor atom, acceptor molecule, acceptor atom, score
      P1  H  7989  7998       L1    21  0.77

> <Gold.Chemscore.Hbond.Weighted>
-3.0092

> <Gold.Chemscore.Metal.Weighted>
-0.0000

> <Gold.Chemscore.Lipo.Weighted>
-10.4985

> <Gold.Chemscore.Internal_Hbond.Weighted>
0.0000

> <Gold.Chemscore.DEClash.Weighted>
0.0270

> <Gold.Chemscore.DEInternal.Weighted>
1.6933

> <Gold.Chemscore.Rot.Weighted>
8.5000

> <Gold.Chemscore.Internal.Correction.Weighted>
   9.000000E+99

> <Gold.Protein.RotatedTorsions>
[ 6907 6896 6895 6894 ] final   15.58 input  -60.11 | X-H torsion
[ 7974 7965 7964 7962 ] final  124.88 input  175.53 | X-H torsion
[ 8008 7997 7996 7995 ] final  156.37 input   59.86 | X-H torsion
[ 10167 10162 10161 10158 ] final   30.70 input  -65.29 | X-H torsion
[ 10718 10713 10712 10709 ] final  -67.49 input   66.30 | X-H torsion
[ 10763 10752 10751 10750 ] final  155.28 input  -60.55 | X-H torsion
[ 11005 11000 10999 10996 ] final  123.83 input  -57.11 | X-H torsion

> <Gold.Protein.ActiveResidues>
 VAL166  LYS551  ARG553  GLY616  TRP617  ASP618  TYR619  PRO620  LYS621  CYS622 
 ASP623  PHE694  ASN695  SER759  ASP760  ASP761  ALA762  ILE779  LEU786  VAL792 
 PHE793  MET794  SER795  GLU796  ALA797  LYS798  CYS799  TRP800  GLU811  SER814 

> <Gold.Protein.RotatedAtoms>
  151.8203  135.0653  160.0423 H   0  0  0  0  0  0  0  0  0  0  0  0  # atno 6907 bound_to 6896
  152.2956  133.5599  159.5593 H   0  0  0  0  0  0  0  0  0  0  0  0  # atno 6908 bound_to 6896
  150.7249  134.0282  159.3766 H   0  0  0  0  0  0  0  0  0  0  0  0  # atno 6909 bound_to 6896
  145.0793  139.3669  143.4917 H   0  0  0  0  0  0  0  0  0  0  0  0  # atno 7974 bound_to 7965
  156.2426  140.1914  156.6945 H   0  0  0  0  0  0  0  0  0  0  0  0  # atno 8008 bound_to 7997
  154.6227  140.0606  156.9661 H   0  0  0  0  0  0  0  0  0  0  0  0  # atno 8009 bound_to 7997
  155.1836  140.3278  155.4373 H   0  0  0  0  0  0  0  0  0  0  0  0  # atno 8010 bound_to 7997
  140.4654  144.0843  150.6223 H   0  0  0  0  0  0  0  0  0  0  0  0  # atno 10167 bound_to 10162
  156.0555  130.4279  150.1862 H   0  0  0  0  0  0  0  0  0  0  0  0  # atno 10718 bound_to 10713
  154.1658  135.2807  155.3095 H   0  0  0  0  0  0  0  0  0  0  0  0  # atno 10763 bound_to 10752
  154.6112  135.5498  153.7479 H   0  0  0  0  0  0  0  0  0  0  0  0  # atno 10764 bound_to 10752
  153.0179  135.6416  154.1799 H   0  0  0  0  0  0  0  0  0  0  0  0  # atno 10765 bound_to 10752
  139.9331  134.9641  156.8319 H   0  0  0  0  0  0  0  0  0  0  0  0  # atno 11005 bound_to 11000
  146.3530  140.0576  142.8631 LP  0  0  0  0  0  0  0  0  0  0  0  0  # atno 17320 bound_to 7965
  145.1197  140.9455  143.4607 LP  0  0  0  0  0  0  0  0  0  0  0  0  # atno 17321 bound_to 7965
  140.4042  143.2688  151.9911 LP  0  0  0  0  0  0  0  0  0  0  0  0  # atno 17342 bound_to 10162
  139.4811  144.5971  151.7670 LP  0  0  0  0  0  0  0  0  0  0  0  0  # atno 17343 bound_to 10162
  156.9938  130.9901  151.3408 LP  0  0  0  0  0  0  0  0  0  0  0  0  # atno 17370 bound_to 10713
  157.5521  130.8189  149.8158 LP  0  0  0  0  0  0  0  0  0  0  0  0  # atno 17371 bound_to 10713
  140.6149  134.0048  155.7593 LP  0  0  0  0  0  0  0  0  0  0  0  0  # atno 17394 bound_to 11000
  141.0930  133.9887  157.3206 LP  0  0  0  0  0  0  0  0  0  0  0  0  # atno 17395 bound_to 11000

$$$$
