AV-unprocessed.smi:20|AV-procd|sdf|113|dock10
  -GOLD-   2262015283D 1   1.00000     0.00000
 Structure written by MMmdl.
 57 61  0  0  0  0  0  0  0  0  1 V2000
  142.6566  135.2312  153.5331 O   0  0  0  0  0  0  0  0  0  0  0  0
  143.5497  135.3305  154.3709 C   0  0  0  0  0  0  0  0  0  0  0  0
  144.3781  136.5872  154.5765 C   0  0  0  0  0  0  0  0  0  0  0  0
  145.0686  136.3436  155.9404 C   0  0  2  0  0  0  0  0  0  0  0  0
  144.2651  136.9733  157.1099 C   0  0  0  0  0  0  0  0  0  0  0  0
  144.3822  138.5073  157.1355 C   0  0  0  0  0  0  0  0  0  0  0  0
  145.8522  138.9487  157.1232 C   0  0  0  0  0  0  0  0  0  0  0  0
  146.5655  138.3351  156.0051 N   0  0  0  0  0  0  0  0  0  0  0  0
  147.7338  138.9414  155.6729 C   0  0  0  0  0  0  0  0  0  0  0  0
  148.3391  138.6482  154.4904 N   0  0  0  0  0  0  0  0  0  0  0  0
  149.4927  139.2348  154.1581 C   0  0  0  0  0  0  0  0  0  0  0  0
  150.2030  140.1290  154.8476 N   0  0  0  0  0  0  0  0  0  0  0  0
  149.6002  140.4314  156.0328 C   0  0  0  0  0  0  0  0  0  0  0  0
  148.3758  139.8907  156.5178 C   0  0  0  0  0  0  0  0  0  0  0  0
  148.0697  140.4494  157.7531 N   0  0  0  0  0  0  0  0  0  0  0  0
  149.0617  141.2634  157.9900 C   0  0  0  0  0  0  0  0  0  0  0  0
  150.0368  141.2999  157.0188 N   0  0  0  0  0  0  0  0  0  0  0  0
  151.2349  142.1238  157.0210 C   0  0  0  0  0  0  0  0  0  0  0  0
  152.1481  141.9165  158.2603 C   0  0  2  0  0  0  0  0  0  0  0  0
  152.1406  140.4234  158.6654 C   0  0  0  0  0  0  0  0  0  0  0  0
  153.1403  139.7021  157.9744 O   0  0  0  0  0  0  0  0  0  0  0  0
  151.7512  142.8145  159.4676 C   0  0  2  0  0  0  0  0  0  0  0  0
  151.9485  144.3112  159.2884 C   0  0  0  0  0  0  0  0  0  0  0  0
  151.9519  144.8169  160.7245 C   0  0  0  0  0  0  0  0  0  0  0  0
  152.5825  143.7920  161.4782 O   0  0  0  0  0  0  0  0  0  0  0  0
  152.5898  142.5787  160.7329 C   0  0  0  0  0  0  0  0  0  0  0  0
  146.5212  136.8717  155.9733 C   0  0  0  0  0  0  0  0  0  0  0  0
  145.0387  134.8012  156.0614 C   0  0  0  0  0  0  0  0  0  0  0  0
  143.9363  134.3807  155.2188 N   0  0  0  0  0  0  0  0  0  0  0  0
  145.1022  136.6593  153.7642 H   0  0  0  0  0  0  0  0  0  0  0  0
  143.7543  137.4800  154.5527 H   0  0  0  0  0  0  0  0  0  0  0  0
  143.2151  136.6816  157.0609 H   0  0  0  0  0  0  0  0  0  0  0  0
  144.6426  136.5871  158.0577 H   0  0  0  0  0  0  0  0  0  0  0  0
  143.8650  138.9414  156.2799 H   0  0  0  0  0  0  0  0  0  0  0  0
  143.8850  138.9026  158.0216 H   0  0  0  0  0  0  0  0  0  0  0  0
  145.9019  140.0364  157.0865 H   0  0  0  0  0  0  0  0  0  0  0  0
  146.3366  138.6468  158.0529 H   0  0  0  0  0  0  0  0  0  0  0  0
  149.9078  138.9437  153.2045 H   0  0  0  0  0  0  0  0  0  0  0  0
  149.1108  141.8622  158.8880 H   0  0  0  0  0  0  0  0  0  0  0  0
  151.7991  141.9422  156.1057 H   0  0  0  0  0  0  0  0  0  0  0  0
  150.8943  143.1577  156.9626 H   0  0  0  0  0  0  0  0  0  0  0  0
  153.1737  142.1659  157.9851 H   0  0  0  0  0  0  0  0  0  0  0  0
  152.3427  140.2966  159.7281 H   0  0  0  0  0  0  0  0  0  0  0  0
  151.1669  139.9731  158.4701 H   0  0  0  0  0  0  0  0  0  0  0  0
  152.8553  138.8054  157.8822 H   0  0  0  0  0  0  0  0  0  0  0  0
  150.7025  142.6393  159.7139 H   0  0  0  0  0  0  0  0  0  0  0  0
  152.9073  144.5207  158.8123 H   0  0  0  0  0  0  0  0  0  0  0  0
  151.1601  144.7848  158.7059 H   0  0  0  0  0  0  0  0  0  0  0  0
  152.4680  145.7710  160.8327 H   0  0  0  0  0  0  0  0  0  0  0  0
  150.9302  144.9389  161.0866 H   0  0  0  0  0  0  0  0  0  0  0  0
  152.2035  141.7575  161.3368 H   0  0  0  0  0  0  0  0  0  0  0  0
  153.6249  142.3490  160.4763 H   0  0  0  0  0  0  0  0  0  0  0  0
  147.0340  136.4878  156.8566 H   0  0  0  0  0  0  0  0  0  0  0  0
  147.0656  136.4982  155.1045 H   0  0  0  0  0  0  0  0  0  0  0  0
  145.9541  134.3516  155.6736 H   0  0  0  0  0  0  0  0  0  0  0  0
  144.9075  134.4537  157.0867 H   0  0  0  0  0  0  0  0  0  0  0  0
  143.5291  133.4579  155.2669 H   0  0  0  0  0  0  0  0  0  0  0  0
  1  2  2  0  0  0  0
  2 29  1  0  0  0  0
  2  3  1  0  0  0  0
  3  4  1  0  0  0  0
  3 30  1  0  0  0  0
  3 31  1  0  0  0  0
  4 27  1  0  0  0  0
  4  5  1  0  0  0  0
  4 28  1  0  0  0  0
  5  6  1  0  0  0  0
  5 32  1  0  0  0  0
  5 33  1  0  0  0  0
  6  7  1  0  0  0  0
  6 34  1  0  0  0  0
  6 35  1  0  0  0  0
  7  8  1  0  0  0  0
  7 36  1  0  0  0  0
  7 37  1  0  0  0  0
  8  9  1  0  0  0  0
  8 27  1  0  0  0  0
  9 14  1  0  0  0  0
  9 10  2  0  0  0  0
 10 11  1  0  0  0  0
 11 12  2  0  0  0  0
 11 38  1  0  0  0  0
 12 13  1  0  0  0  0
 13 17  1  0  0  0  0
 13 14  2  0  0  0  0
 14 15  1  0  0  0  0
 15 16  2  0  0  0  0
 16 17  1  0  0  0  0
 16 39  1  0  0  0  0
 17 18  1  0  0  0  0
 18 19  1  0  0  0  0
 18 40  1  0  0  0  0
 18 41  1  0  0  0  0
 19 20  1  0  0  0  0
 19 22  1  0  0  0  0
 19 42  1  0  0  0  0
 20 21  1  0  0  0  0
 20 43  1  0  0  0  0
 20 44  1  0  0  0  0
 21 45  1  0  0  0  0
 22 26  1  0  0  0  0
 22 23  1  0  0  0  0
 22 46  1  0  0  0  0
 23 24  1  0  0  0  0
 23 47  1  0  0  0  0
 23 48  1  0  0  0  0
 24 25  1  0  0  0  0
 24 49  1  0  0  0  0
 24 50  1  0  0  0  0
 25 26  1  0  0  0  0
 26 51  1  0  0  0  0
 26 52  1  0  0  0  0
 27 53  1  0  0  0  0
 27 54  1  0  0  0  0
 28 29  1  0  0  0  0
 28 55  1  0  0  0  0
 28 56  1  0  0  0  0
 29 57  1  0  0  0  0
M  END
> <s_m_source_file>
AV-unprocessed.smi

> <i_m_source_file_index>
20

> <i_lp_mmshare_version>
43012

> <i_f3d_flags>
0

> <s_epik_input>
W0NIMl0xW05IXUMoPU8pW0NIMl1bQ0BAXTEyW0NIMl1bQ0gyXVtDSDJdTihbQ0gyXTIpYyhuW2NIXW4zKWMoYzM0KW5bY0hdbjRbQ0gyXVtDQEhdKFtDSDJdW09IXSlbQ0BASF01W0NIMl1bQ0gyXU9bQ0gyXTU=

> <s_epik_cmdline>
J2VwaWtfcHl0aG9uJywgJy1waCcsICc3LjAnLCAnLXRuJywgJzgnLCAnLW1hJywgJzIwMCcsICctbWV0YWxfYmluZGluZycsICctaW1hZScsICc8aW5maWxlLm1hZT4nLCAnLW9tYWUnLCAnPG91dGZpbGUubWFlPic=

> <r_lp_tautomer_probability>
1

> <r_epik_Ionization_Penalty>
0.0019697

> <r_epik_Ionization_Penalty_Charging>
0

> <r_epik_Ionization_Penalty_Neutral>
0.0019697

> <r_epik_State_Penalty>
0.00113613

> <r_epik_Charging_Adjusted_Penalty>
0.00113613

> <i_epik_Tot_Q>
0

> <i_epik_Tot_abs_Q>
0

> <r_epik_Metal_State_Penalty>
-0

> <b_epik_Metal_Only>
0

> <s_lp_Force_Field>
OPLS_2005

> <r_lp_Energy>
60.2496

> <b_lp_Chiralities_Consistent>
1

> <s_lp_Variant>
AV-unprocessed.smi:20-1

> <Gold.Version>
5.8.1

> <Gold.Id.Protein>
6NUR|6NUR_protein|mol2

> <Gold.PLP.Fitness>
42.7309

> <Gold.PLP.PLP>
-32.4648

> <Gold.PLP.part.hbond>
-3.0000

> <Gold.PLP.part.metal>
0.0000

> <Gold.PLP.part.buried>
-5.4978

> <Gold.PLP.part.nonpolar>
-23.7980

> <Gold.PLP.part.repulsive>
0.5097

> <Gold.PLP.ligand.clash>
0.0000

> <Gold.PLP.ligand.torsion>
0.9519

> <Gold.PLP.Chemscore.Hbond>
3.0000

> <Gold.PLP.Chemscore.CHOScore>
0.9118

> <Gold.PLP.Chemscore.Metal>
0.0000

> <Gold.Chemscore.Hbonds>
donor molecule, donor type, donor heavy atom, donor atom, acceptor molecule, acceptor atom, score
      L1  H    29    57       P1 10957  1.00
      P1  H  7989  7998       L1    12  0.83
      P1  H  7997  8008       L1    21  1.00
      L1  C    11    38       P1  7957  0.95

> <Gold.PLP.Chemscore.Internal.Correction>
0.4346

> <Gold.Rescore>
     Score         DG    S(hbond)    S(metal)    S(lipo)     H(rot)  DE(clash)    DE(int)     intcor
     13.58     -16.43       2.82        0.00      72.91       2.74       0.56       2.29       ----

> <Gold.Chemscore.Fitness>
13.5827

> <Gold.Chemscore.DG>
-16.4264

> <Gold.Chemscore.ZeroCoef>
-5.4800

> <Gold.Chemscore.Hbond>
2.8248

> <Gold.Chemscore.Metal>
0.0000

> <Gold.Chemscore.Lipo>
72.9054

> <Gold.Chemscore.Internal_Hbond>
0.0000

> <Gold.Chemscore.DEClash>
0.5554

> <Gold.Chemscore.DEInternal>
2.2884

> <Gold.Chemscore.Rot>
2.7415

> <Gold.Chemscore.Internal.Correction>
   9.000000E+99

> <Gold.Chemscore.Hbonds>
donor molecule, donor type, donor heavy atom, donor atom, acceptor molecule, acceptor atom, score
      L1  H    29    57       P1 10957  0.99
      P1  H  7989  7998       L1    12  0.41
      P1  H  7997  8008       L1    21  0.82

> <Gold.Chemscore.Hbond.Weighted>
-9.4347

> <Gold.Chemscore.Metal.Weighted>
-0.0000

> <Gold.Chemscore.Lipo.Weighted>
-8.5299

> <Gold.Chemscore.Internal_Hbond.Weighted>
0.0000

> <Gold.Chemscore.DEClash.Weighted>
0.5554

> <Gold.Chemscore.DEInternal.Weighted>
2.2884

> <Gold.Chemscore.Rot.Weighted>
7.0182

> <Gold.Chemscore.Internal.Correction.Weighted>
   9.000000E+99

> <Gold.Protein.RotatedTorsions>
[ 6907 6896 6895 6894 ] final -163.94 input  -60.11 | X-H torsion
[ 7974 7965 7964 7962 ] final -130.81 input  175.53 | X-H torsion
[ 8008 7997 7996 7995 ] final  -81.23 input   59.86 | X-H torsion
[ 10167 10162 10161 10158 ] final   24.99 input  -65.29 | X-H torsion
[ 10718 10713 10712 10709 ] final -162.75 input   66.30 | X-H torsion
[ 10763 10752 10751 10750 ] final  117.64 input  -60.55 | X-H torsion
[ 11005 11000 10999 10996 ] final -128.70 input  -57.11 | X-H torsion

> <Gold.Protein.ActiveResidues>
 VAL166  LYS551  ARG553  GLY616  TRP617  ASP618  TYR619  PRO620  LYS621  CYS622 
 ASP623  PHE694  ASN695  SER759  ASP760  ASP761  ALA762  ILE779  LEU786  VAL792 
 PHE793  MET794  SER795  GLU796  ALA797  LYS798  CYS799  TRP800  GLU811  SER814 

> <Gold.Protein.RotatedAtoms>
  151.4040  133.3748  159.2735 H   0  0  0  0  0  0  0  0  0  0  0  0  # atno 6907 bound_to 6896
  150.9412  134.8823  159.7624 H   0  0  0  0  0  0  0  0  0  0  0  0  # atno 6908 bound_to 6896
  152.5072  134.3990  159.9462 H   0  0  0  0  0  0  0  0  0  0  0  0  # atno 6909 bound_to 6896
  144.9439  140.7270  143.4829 H   0  0  0  0  0  0  0  0  0  0  0  0  # atno 7974 bound_to 7965
  154.5963  140.0651  156.9308 H   0  0  0  0  0  0  0  0  0  0  0  0  # atno 8008 bound_to 7997
  155.2209  140.3330  155.4297 H   0  0  0  0  0  0  0  0  0  0  0  0  # atno 8009 bound_to 7997
  156.2289  140.1832  156.7277 H   0  0  0  0  0  0  0  0  0  0  0  0  # atno 8010 bound_to 7997
  140.5142  144.0109  150.6386 H   0  0  0  0  0  0  0  0  0  0  0  0  # atno 10167 bound_to 10162
  156.6148  130.8866  151.2944 H   0  0  0  0  0  0  0  0  0  0  0  0  # atno 10718 bound_to 10713
  153.5555  135.3531  155.2777 H   0  0  0  0  0  0  0  0  0  0  0  0  # atno 10763 bound_to 10752
  154.8701  135.4124  154.2889 H   0  0  0  0  0  0  0  0  0  0  0  0  # atno 10764 bound_to 10752
  153.3624  135.7060  153.6770 H   0  0  0  0  0  0  0  0  0  0  0  0  # atno 10765 bound_to 10752
  140.9494  134.1086  157.4077 H   0  0  0  0  0  0  0  0  0  0  0  0  # atno 11005 bound_to 11000
  145.2948  139.1871  143.4721 LP  0  0  0  0  0  0  0  0  0  0  0  0  # atno 17320 bound_to 7965
  146.3296  140.2930  142.8616 LP  0  0  0  0  0  0  0  0  0  0  0  0  # atno 17321 bound_to 7965
  140.3440  143.3002  152.0558 LP  0  0  0  0  0  0  0  0  0  0  0  0  # atno 17342 bound_to 10162
  139.4904  144.6422  151.6854 LP  0  0  0  0  0  0  0  0  0  0  0  0  # atno 17343 bound_to 10162
  157.7244  130.9602  150.1572 LP  0  0  0  0  0  0  0  0  0  0  0  0  # atno 17370 bound_to 10713
  156.2360  130.3686  149.8391 LP  0  0  0  0  0  0  0  0  0  0  0  0  # atno 17371 bound_to 10713
  139.8843  135.0061  156.6358 LP  0  0  0  0  0  0  0  0  0  0  0  0  # atno 17394 bound_to 11000
  140.7624  133.8806  155.8428 LP  0  0  0  0  0  0  0  0  0  0  0  0  # atno 17395 bound_to 11000

$$$$
