AV-unprocessed.smi:2458|AV-procd|sdf|9709|dock6
  -GOLD-   2272013353D 1   1.00000     0.00000
 Structure written by MMmdl.
 47 48  0  0  0  0  0  0  0  0  1 V2000
  152.5885  143.1760  161.2287 C   0  0  0  0  0  0  0  0  0  0  0  0
  152.3740  143.7013  159.7960 C   0  0  0  0  0  0  0  0  0  0  0  0
  151.6694  145.0698  159.8713 C   0  0  0  0  0  0  0  0  0  0  0  0
  151.6192  142.6857  158.8883 C   0  0  1  0  0  0  0  0  0  0  0  0
  151.3834  143.2353  157.4595 C   0  0  0  0  0  0  0  0  0  0  0  0
  150.6540  142.2298  156.5541 C   0  0  0  0  0  0  0  0  0  0  0  0
  151.4176  140.8961  156.4681 C   0  0  2  0  0  0  0  0  0  0  0  0
  150.6860  139.8866  155.5742 C   0  0  0  0  0  0  0  0  0  0  0  0
  151.1959  139.5008  154.5218 O   0  0  0  0  0  0  0  0  0  0  0  0
  149.4784  139.4825  155.9960 N   0  0  0  0  0  0  0  0  0  0  0  0
  148.5864  138.5927  155.2588 C   0  0  0  0  0  0  0  0  0  0  0  0
  147.9310  139.2746  154.0361 C   0  0  1  0  0  0  0  0  0  0  0  0
  147.3005  138.2804  153.2554 O   0  0  0  0  0  0  0  0  0  0  0  0
  146.9728  140.3940  154.4212 C   0  0  0  0  0  0  0  0  0  0  0  0
  147.1874  141.7132  153.9688 C   0  0  0  0  0  0  0  0  0  0  0  0
  146.2929  142.7243  154.3683 C   0  0  0  0  0  0  0  0  0  0  0  0
  145.2158  142.3736  155.2058 C   0  0  0  0  0  0  0  0  0  0  0  0
  144.9988  141.1158  155.6463 N   0  0  0  0  0  0  0  0  0  0  0  0
  145.8621  140.1522  155.2592 C   0  0  0  0  0  0  0  0  0  0  0  0
  151.6186  140.3244  157.8828 C   0  0  0  0  0  0  0  0  0  0  0  0
  152.3497  141.3232  158.7933 C   0  0  0  0  0  0  0  0  0  0  0  0
  150.6408  142.5035  159.3362 H   0  0  0  0  0  0  0  0  0  0  0  0
  152.3999  141.0925  156.0340 H   0  0  0  0  0  0  0  0  0  0  0  0
  151.6443  142.8858  161.6905 H   0  0  0  0  0  0  0  0  0  0  0  0
  153.0452  143.9368  161.8623 H   0  0  0  0  0  0  0  0  0  0  0  0
  153.2566  142.3160  161.2536 H   0  0  0  0  0  0  0  0  0  0  0  0
  153.3618  143.8707  159.3652 H   0  0  0  0  0  0  0  0  0  0  0  0
  150.6346  144.9659  160.1988 H   0  0  0  0  0  0  0  0  0  0  0  0
  151.6707  145.5846  158.9112 H   0  0  0  0  0  0  0  0  0  0  0  0
  152.1724  145.7334  160.5752 H   0  0  0  0  0  0  0  0  0  0  0  0
  150.7864  144.1458  157.4901 H   0  0  0  0  0  0  0  0  0  0  0  0
  152.3384  143.5060  157.0068 H   0  0  0  0  0  0  0  0  0  0  0  0
  149.6471  142.0659  156.9415 H   0  0  0  0  0  0  0  0  0  0  0  0
  150.5348  142.6582  155.5579 H   0  0  0  0  0  0  0  0  0  0  0  0
  149.1343  139.8489  156.8717 H   0  0  0  0  0  0  0  0  0  0  0  0
  149.1154  137.6862  154.9598 H   0  0  0  0  0  0  0  0  0  0  0  0
  147.8127  138.2790  155.9607 H   0  0  0  0  0  0  0  0  0  0  0  0
  148.7185  139.7036  153.4151 H   0  0  0  0  0  0  0  0  0  0  0  0
  147.9547  137.8638  152.7155 H   0  0  0  0  0  0  0  0  0  0  0  0
  148.0286  141.9514  153.3343 H   0  0  0  0  0  0  0  0  0  0  0  0
  146.4306  143.7448  154.0428 H   0  0  0  0  0  0  0  0  0  0  0  0
  144.5109  143.1239  155.5321 H   0  0  0  0  0  0  0  0  0  0  0  0
  145.6639  139.1596  155.6364 H   0  0  0  0  0  0  0  0  0  0  0  0
  150.6550  140.0705  158.3280 H   0  0  0  0  0  0  0  0  0  0  0  0
  152.1888  139.3957  157.8339 H   0  0  0  0  0  0  0  0  0  0  0  0
  153.3654  141.4748  158.4253 H   0  0  0  0  0  0  0  0  0  0  0  0
  152.4423  140.8650  159.7771 H   0  0  0  0  0  0  0  0  0  0  0  0
  1  2  1  0  0  0  0
  1 24  1  0  0  0  0
  1 25  1  0  0  0  0
  1 26  1  0  0  0  0
  2  3  1  0  0  0  0
  2  4  1  0  0  0  0
  2 27  1  0  0  0  0
  3 28  1  0  0  0  0
  3 29  1  0  0  0  0
  3 30  1  0  0  0  0
  4 22  1  0  0  0  0
  4 21  1  0  0  0  0
  4  5  1  0  0  0  0
  5  6  1  0  0  0  0
  5 31  1  0  0  0  0
  5 32  1  0  0  0  0
  6  7  1  0  0  0  0
  6 33  1  0  0  0  0
  6 34  1  0  0  0  0
  7 23  1  0  0  0  0
  7  8  1  0  0  0  0
  7 20  1  0  0  0  0
  8  9  2  0  0  0  0
  8 10  1  0  0  0  0
 10 11  1  0  0  0  0
 10 35  1  0  0  0  0
 11 12  1  0  0  0  0
 11 36  1  0  0  0  0
 11 37  1  0  0  0  0
 12 13  1  0  0  0  0
 12 14  1  0  0  0  0
 12 38  1  0  0  0  0
 13 39  1  0  0  0  0
 14 19  1  0  0  0  0
 14 15  2  0  0  0  0
 15 16  1  0  0  0  0
 15 40  1  0  0  0  0
 16 17  2  0  0  0  0
 16 41  1  0  0  0  0
 17 18  1  0  0  0  0
 17 42  1  0  0  0  0
 18 19  2  0  0  0  0
 19 43  1  0  0  0  0
 20 21  1  0  0  0  0
 20 44  1  0  0  0  0
 20 45  1  0  0  0  0
 21 46  1  0  0  0  0
 21 47  1  0  0  0  0
M  END
> <s_m_source_file>
AV-unprocessed.smi

> <i_m_source_file_index>
2458

> <i_lp_mmshare_version>
43012

> <i_f3d_flags>
0

> <s_epik_input>
W0NIM11bQ0hdKFtDSDNdKVtDQEhdMVtDSDJdW0NIMl1bQ0BASF0oW0NIMl1bQ0gyXTEpQyg9TylbTkhdW0NIMl1bQ0BIXShbT0hdKWMyW2NIXVtjSF1bY0hdbltjSF0y

> <s_epik_cmdline>
J2VwaWtfcHl0aG9uJywgJy1waCcsICc3LjAnLCAnLXRuJywgJzgnLCAnLW1hJywgJzIwMCcsICctbWV0YWxfYmluZGluZycsICctaW1hZScsICc8aW5maWxlLm1hZT4nLCAnLW9tYWUnLCAnPG91dGZpbGUubWFlPic=

> <r_epik_Ionization_Penalty>
0.00169206

> <r_epik_Ionization_Penalty_Charging>
0

> <r_epik_Ionization_Penalty_Neutral>
0.00169206

> <r_epik_State_Penalty>
0.0011427

> <r_epik_Charging_Adjusted_Penalty>
0.0011427

> <i_epik_Tot_Q>
0

> <i_epik_Tot_abs_Q>
0

> <r_epik_Metal_State_Penalty>
-0

> <b_epik_Metal_Only>
0

> <s_lp_Force_Field>
OPLS_2005

> <r_lp_Energy>
14.1606

> <b_lp_Chiralities_Consistent>
1

> <s_lp_Variant>
AV-unprocessed.smi:2458-2

> <Gold.Version>
5.8.1

> <Gold.Id.Protein>
6NUR|6NUR_protein|mol2

> <Gold.PLP.Fitness>
48.9341

> <Gold.PLP.PLP>
-43.2006

> <Gold.PLP.part.hbond>
-2.0000

> <Gold.PLP.part.metal>
0.0000

> <Gold.PLP.part.buried>
-6.0571

> <Gold.PLP.part.nonpolar>
-35.6940

> <Gold.PLP.part.repulsive>
0.2636

> <Gold.PLP.ligand.clash>
0.0000

> <Gold.PLP.ligand.torsion>
0.1635

> <Gold.PLP.Chemscore.Hbond>
2.0000

> <Gold.PLP.Chemscore.CHOScore>
0.0000

> <Gold.PLP.Chemscore.Metal>
0.0000

> <Gold.Chemscore.Hbonds>
donor molecule, donor type, donor heavy atom, donor atom, acceptor molecule, acceptor atom, score
      L1  H    13    39       P1  7948  0.88
      P1  H  7989  7998       L1     9  1.00

> <Gold.PLP.Chemscore.Internal.Correction>
0.0605

> <Gold.Rescore>
     Score         DG    S(hbond)    S(metal)    S(lipo)     H(rot)  DE(clash)    DE(int)     intcor
     20.04     -20.30       1.87        0.00     118.27       2.06       0.05       0.22       ----

> <Gold.Chemscore.Fitness>
20.0416

> <Gold.Chemscore.DG>
-20.3035

> <Gold.Chemscore.ZeroCoef>
-5.4800

> <Gold.Chemscore.Hbond>
1.8733

> <Gold.Chemscore.Metal>
0.0000

> <Gold.Chemscore.Lipo>
118.2671

> <Gold.Chemscore.Internal_Hbond>
0.0000

> <Gold.Chemscore.DEClash>
0.0465

> <Gold.Chemscore.DEInternal>
0.2154

> <Gold.Chemscore.Rot>
2.0588

> <Gold.Chemscore.Internal.Correction>
   9.000000E+99

> <Gold.Chemscore.Hbonds>
donor molecule, donor type, donor heavy atom, donor atom, acceptor molecule, acceptor atom, score
      L1  H    13    39       P1  7948  0.84
      P1  H  7989  7998       L1     9  0.82

> <Gold.Chemscore.Hbond.Weighted>
-6.2567

> <Gold.Chemscore.Metal.Weighted>
-0.0000

> <Gold.Chemscore.Lipo.Weighted>
-13.8372

> <Gold.Chemscore.Internal_Hbond.Weighted>
0.0000

> <Gold.Chemscore.DEClash.Weighted>
0.0465

> <Gold.Chemscore.DEInternal.Weighted>
0.2154

> <Gold.Chemscore.Rot.Weighted>
5.2705

> <Gold.Chemscore.Internal.Correction.Weighted>
   9.000000E+99

> <Gold.Protein.RotatedTorsions>
[ 6907 6896 6895 6894 ] final   32.74 input  -60.11 | X-H torsion
[ 7974 7965 7964 7962 ] final   25.33 input  175.53 | X-H torsion
[ 8008 7997 7996 7995 ] final   53.69 input   59.86 | X-H torsion
[ 10167 10162 10161 10158 ] final  -62.22 input  -65.29 | X-H torsion
[ 10718 10713 10712 10709 ] final  -74.39 input   66.30 | X-H torsion
[ 10763 10752 10751 10750 ] final   13.91 input  -60.55 | X-H torsion
[ 11005 11000 10999 10996 ] final  127.96 input  -57.11 | X-H torsion

> <Gold.Protein.ActiveResidues>
 VAL166  LYS551  ARG553  GLY616  TRP617  ASP618  TYR619  PRO620  LYS621  CYS622 
 ASP623  PHE694  ASN695  SER759  ASP760  ASP761  ALA762  ILE779  LEU786  VAL792 
 PHE793  MET794  SER795  GLU796  ALA797  LYS798  CYS799  TRP800  GLU811  SER814 

> <Gold.Protein.RotatedAtoms>
  152.0787  134.9485  160.0573 H   0  0  0  0  0  0  0  0  0  0  0  0  # atno 6907 bound_to 6896
  152.0782  133.4135  159.4498 H   0  0  0  0  0  0  0  0  0  0  0  0  # atno 6908 bound_to 6896
  150.6836  134.2932  159.4719 H   0  0  0  0  0  0  0  0  0  0  0  0  # atno 6909 bound_to 6896
  146.1894  139.7481  142.8843 H   0  0  0  0  0  0  0  0  0  0  0  0  # atno 7974 bound_to 7965
  155.4725  140.3465  155.4328 H   0  0  0  0  0  0  0  0  0  0  0  0  # atno 8008 bound_to 7997
  156.1091  140.1456  156.9391 H   0  0  0  0  0  0  0  0  0  0  0  0  # atno 8009 bound_to 7997
  154.4744  140.0890  156.7205 H   0  0  0  0  0  0  0  0  0  0  0  0  # atno 8010 bound_to 7997
  140.5953  143.2349  151.6048 H   0  0  0  0  0  0  0  0  0  0  0  0  # atno 10167 bound_to 10162
  156.0244  130.4416  150.2886 H   0  0  0  0  0  0  0  0  0  0  0  0  # atno 10718 bound_to 10713
  153.1674  135.6806  153.8656 H   0  0  0  0  0  0  0  0  0  0  0  0  # atno 10763 bound_to 10752
  153.8032  135.3153  155.3393 H   0  0  0  0  0  0  0  0  0  0  0  0  # atno 10764 bound_to 10752
  154.7974  135.4798  154.0285 H   0  0  0  0  0  0  0  0  0  0  0  0  # atno 10765 bound_to 10752
  139.9535  134.9617  156.8931 H   0  0  0  0  0  0  0  0  0  0  0  0  # atno 11005 bound_to 11000
  145.3840  141.0362  143.3161 LP  0  0  0  0  0  0  0  0  0  0  0  0  # atno 17320 bound_to 7965
  144.8457  139.5400  143.6879 LP  0  0  0  0  0  0  0  0  0  0  0  0  # atno 17321 bound_to 7965
  139.5254  144.3074  152.1022 LP  0  0  0  0  0  0  0  0  0  0  0  0  # atno 17342 bound_to 10162
  140.2246  144.4431  150.6327 LP  0  0  0  0  0  0  0  0  0  0  0  0  # atno 17343 bound_to 10162
  157.0989  131.0190  151.3093 LP  0  0  0  0  0  0  0  0  0  0  0  0  # atno 17370 bound_to 10713
  157.4795  130.7756  149.7400 LP  0  0  0  0  0  0  0  0  0  0  0  0  # atno 17371 bound_to 10713
  140.5663  134.0486  155.7415 LP  0  0  0  0  0  0  0  0  0  0  0  0  # atno 17394 bound_to 11000
  141.1202  133.9473  157.2744 LP  0  0  0  0  0  0  0  0  0  0  0  0  # atno 17395 bound_to 11000

$$$$
