AV-unprocessed.smi:1772|AV-procd|sdf|7162|dock3
  -GOLD-   22720 8403D 1   1.00000     0.00000
 Structure written by MMmdl.
 34 35  0  0  0  0  0  0  0  0  2 V2000
  145.2826  138.2860  153.2869 O   0  0  0  0  0  0  0  0  0  0  0  0
  146.3216  137.7224  152.9440 C   0  0  0  0  0  0  0  0  0  0  0  0
  146.3597  136.4664  152.4768 N   0  0  0  0  0  0  0  0  0  0  0  0
  145.1988  135.5956  152.3206 C   0  0  0  0  0  0  0  0  0  0  0  0
  145.3328  134.6581  151.1045 C   0  0  1  0  0  0  0  0  0  0  0  0
  146.3835  133.5531  151.3272 C   0  0  0  0  0  0  0  0  0  0  0  0
  146.2583  132.5248  150.1985 C   0  0  0  0  0  0  0  0  0  0  0  0
  144.4762  132.4650  149.7801 S   0  0  0  0  0  0  0  0  0  0  0  0
  144.3142  132.7041  148.3382 O   0  0  0  0  0  0  0  0  0  0  0  0
  143.8579  131.2990  150.4289 O   0  0  0  0  0  0  0  0  0  0  0  0
  144.0121  133.9763  150.7079 C   0  0  0  0  0  0  0  0  0  0  0  0
  147.5490  138.2706  152.9695 N   0  0  0  0  0  0  0  0  0  0  0  0
  147.9316  139.5718  153.3965 C   0  0  0  0  0  0  0  0  0  0  0  0
  147.0689  140.6434  153.0752 C   0  0  0  0  0  0  0  0  0  0  0  0
  147.4115  141.9543  153.4649 C   0  0  0  0  0  0  0  0  0  0  0  0
  148.5637  142.1777  154.1322 N   0  3  0  0  0  0  0  0  0  0  0  0
  149.4272  141.1889  154.4488 C   0  0  0  0  0  0  0  0  0  0  0  0
  149.1381  139.8577  154.0854 C   0  0  0  0  0  0  0  0  0  0  0  0
  147.2545  136.0807  152.2120 H   0  0  0  0  0  0  0  0  0  0  0  0
  145.0462  135.0146  153.2318 H   0  0  0  0  0  0  0  0  0  0  0  0
  144.3173  136.2276  152.2093 H   0  0  0  0  0  0  0  0  0  0  0  0
  145.6679  135.2438  150.2471 H   0  0  0  0  0  0  0  0  0  0  0  0
  147.3932  133.9607  151.3832 H   0  0  0  0  0  0  0  0  0  0  0  0
  146.1874  133.0569  152.2788 H   0  0  0  0  0  0  0  0  0  0  0  0
  146.8017  132.8548  149.3128 H   0  0  0  0  0  0  0  0  0  0  0  0
  146.6150  131.5336  150.4793 H   0  0  0  0  0  0  0  0  0  0  0  0
  143.4504  133.6647  151.5890 H   0  0  0  0  0  0  0  0  0  0  0  0
  143.3724  134.6106  150.0938 H   0  0  0  0  0  0  0  0  0  0  0  0
  148.2916  137.7069  152.5825 H   0  0  0  0  0  0  0  0  0  0  0  0
  146.1472  140.4661  152.5398 H   0  0  0  0  0  0  0  0  0  0  0  0
  146.8033  142.8241  153.2628 H   0  0  0  0  0  0  0  0  0  0  0  0
  150.3210  141.4908  154.9750 H   0  0  0  0  0  0  0  0  0  0  0  0
  149.8525  139.0874  154.3322 H   0  0  0  0  0  0  0  0  0  0  0  0
  148.7938  143.1340  154.4046 H   0  0  0  0  0  0  0  0  0  0  0  0
  1  2  2  0  0  0  0
  2  3  1  0  0  0  0
  2 12  1  0  0  0  0
  3  4  1  0  0  0  0
  3 19  1  0  0  0  0
  4  5  1  0  0  0  0
  4 20  1  0  0  0  0
  4 21  1  0  0  0  0
  5 11  1  0  0  0  0
  5  6  1  0  0  0  0
  5 22  1  0  0  0  0
  6  7  1  0  0  0  0
  6 23  1  0  0  0  0
  6 24  1  0  0  0  0
  7  8  1  0  0  0  0
  7 25  1  0  0  0  0
  7 26  1  0  0  0  0
  8  9  2  0  0  0  0
  8 10  2  0  0  0  0
  8 11  1  0  0  0  0
 11 27  1  0  0  0  0
 11 28  1  0  0  0  0
 12 13  1  0  0  0  0
 12 29  1  0  0  0  0
 13 18  1  0  0  0  0
 13 14  2  0  0  0  0
 14 15  1  0  0  0  0
 14 30  1  0  0  0  0
 15 16  2  0  0  0  0
 15 31  1  0  0  0  0
 16 17  1  0  0  0  0
 16 34  1  0  0  0  0
 17 18  2  0  0  0  0
 17 32  1  0  0  0  0
 18 33  1  0  0  0  0
M  CHG  1  16   1
M  END
> <s_m_source_file>
AV-unprocessed.smi

> <i_m_source_file_index>
1772

> <i_lp_mmshare_version>
43012

> <i_f3d_flags>
0

> <s_epik_input>
W2NIXTFbY0hdbltjSF1bY0hdYzFbTkhdQyg9TylbTkhdW0NIMl1bQ0BASF0oW0NIMl0yKVtDSDJdW0NIMl1TMig9Tyk9Tw==

> <s_epik_cmdline>
J2VwaWtfcHl0aG9uJywgJy1waCcsICc3LjAnLCAnLXRuJywgJzgnLCAnLW1hJywgJzIwMCcsICctbWV0YWxfYmluZGluZycsICctaW1hZScsICc8aW5maWxlLm1hZT4nLCAnLW9tYWUnLCAnPG91dGZpbGUubWFlPic=

> <r_epik_Ionization_Penalty>
1.04917

> <r_epik_Ionization_Penalty_Charging>
1.04915

> <r_epik_Ionization_Penalty_Neutral>
1.90771e-05

> <r_epik_State_Penalty>
1.10185

> <r_epik_Charging_Adjusted_Penalty>
2.151

> <i_epik_Tot_Q>
1

> <i_epik_Tot_abs_Q>
1

> <r_epik_Metal_State_Penalty>
1.19638

> <b_epik_Metal_Only>
0

> <s_lp_Force_Field>
OPLS_2005

> <r_lp_Energy>
14.8117

> <b_lp_Chiralities_Consistent>
1

> <s_lp_Variant>
AV-unprocessed.smi:1772-4

> <Gold.Version>
5.8.1

> <Gold.Id.Protein>
6NUR|6NUR_protein|mol2

> <Gold.PLP.Fitness>
44.0970

> <Gold.PLP.PLP>
-30.6262

> <Gold.PLP.part.hbond>
-5.0000

> <Gold.PLP.part.metal>
0.0000

> <Gold.PLP.part.buried>
-3.3342

> <Gold.PLP.part.nonpolar>
-25.6014

> <Gold.PLP.part.repulsive>
4.4942

> <Gold.PLP.ligand.clash>
0.0000

> <Gold.PLP.ligand.torsion>
0.5407

> <Gold.PLP.Chemscore.Hbond>
4.8491

> <Gold.PLP.Chemscore.CHOScore>
0.0000

> <Gold.PLP.Chemscore.Metal>
0.0000

> <Gold.Chemscore.Hbonds>
donor molecule, donor type, donor heavy atom, donor atom, acceptor molecule, acceptor atom, score
      L1  H     3    19       P1  7948  1.00
      L1  H    12    29       P1  7948  1.00
      L1  H    16    34       P1  8028  2.00
      P1  H 10785 10796       L1    10  0.50

> <Gold.PLP.Chemscore.Internal.Correction>
0.0049

> <Gold.Rescore>
     Score         DG    S(hbond)    S(metal)    S(lipo)     H(rot)  DE(clash)    DE(int)     intcor
     19.69     -23.13       4.05        0.00      63.93       1.32       1.74       1.70       ----

> <Gold.Chemscore.Fitness>
19.6885

> <Gold.Chemscore.DG>
-23.1343

> <Gold.Chemscore.ZeroCoef>
-5.4800

> <Gold.Chemscore.Hbond>
4.0546

> <Gold.Chemscore.Metal>
0.0000

> <Gold.Chemscore.Lipo>
63.9252

> <Gold.Chemscore.Internal_Hbond>
0.0000

> <Gold.Chemscore.DEClash>
1.7421

> <Gold.Chemscore.DEInternal>
1.7037

> <Gold.Chemscore.Rot>
1.3153

> <Gold.Chemscore.Internal.Correction>
   9.000000E+99

> <Gold.Chemscore.Hbonds>
donor molecule, donor type, donor heavy atom, donor atom, acceptor molecule, acceptor atom, score
      L1  H     3    19       P1  7948  0.97
      L1  H    12    29       P1  7948  0.98
      L1  H    16    34       P1  8028  0.95
      P1  H  7918  7932       L1     9  0.01
      P1  H 10785 10796       L1    10  0.20

> <Gold.Chemscore.Hbond.Weighted>
-13.5423

> <Gold.Chemscore.Metal.Weighted>
-0.0000

> <Gold.Chemscore.Lipo.Weighted>
-7.4792

> <Gold.Chemscore.Internal_Hbond.Weighted>
0.0000

> <Gold.Chemscore.DEClash.Weighted>
1.7421

> <Gold.Chemscore.DEInternal.Weighted>
1.7037

> <Gold.Chemscore.Rot.Weighted>
3.3673

> <Gold.Chemscore.Internal.Correction.Weighted>
   9.000000E+99

> <Gold.Protein.RotatedTorsions>
[ 6907 6896 6895 6894 ] final   38.60 input  -60.11 | X-H torsion
[ 7974 7965 7964 7962 ] final   -0.23 input  175.53 | X-H torsion
[ 8008 7997 7996 7995 ] final -150.77 input   59.86 | X-H torsion
[ 10167 10162 10161 10158 ] final -123.31 input  -65.29 | X-H torsion
[ 10718 10713 10712 10709 ] final   10.15 input   66.30 | X-H torsion
[ 10763 10752 10751 10750 ] final   -1.75 input  -60.55 | X-H torsion
[ 11005 11000 10999 10996 ] final   40.13 input  -57.11 | X-H torsion

> <Gold.Protein.ActiveResidues>
 VAL166  LYS551  ARG553  GLY616  TRP617  ASP618  TYR619  PRO620  LYS621  CYS622 
 ASP623  PHE694  ASN695  SER759  ASP760  ASP761  ALA762  ILE779  LEU786  VAL792 
 PHE793  MET794  SER795  GLU796  ALA797  LYS798  CYS799  TRP800  GLU811  SER814 

> <Gold.Protein.RotatedAtoms>
  152.1585  134.8931  160.0543 H   0  0  0  0  0  0  0  0  0  0  0  0  # atno 6907 bound_to 6896
  151.9936  133.3795  159.4162 H   0  0  0  0  0  0  0  0  0  0  0  0  # atno 6908 bound_to 6896
  150.6884  134.3833  159.5087 H   0  0  0  0  0  0  0  0  0  0  0  0  # atno 6909 bound_to 6896
  146.2429  140.1238  142.8340 H   0  0  0  0  0  0  0  0  0  0  0  0  # atno 7974 bound_to 7965
  155.6289  140.0689  157.2655 H   0  0  0  0  0  0  0  0  0  0  0  0  # atno 8008 bound_to 7997
  154.4211  140.1771  156.1499 H   0  0  0  0  0  0  0  0  0  0  0  0  # atno 8009 bound_to 7997
  155.9949  140.3341  155.6792 H   0  0  0  0  0  0  0  0  0  0  0  0  # atno 8010 bound_to 7997
  140.0049  143.5502  152.2288 H   0  0  0  0  0  0  0  0  0  0  0  0  # atno 10167 bound_to 10162
  156.9768  130.5990  149.5673 H   0  0  0  0  0  0  0  0  0  0  0  0  # atno 10718 bound_to 10713
  153.3490  135.6984  153.6804 H   0  0  0  0  0  0  0  0  0  0  0  0  # atno 10763 bound_to 10752
  153.5538  135.3548  155.2771 H   0  0  0  0  0  0  0  0  0  0  0  0  # atno 10764 bound_to 10752
  154.8650  135.4233  154.2721 H   0  0  0  0  0  0  0  0  0  0  0  0  # atno 10765 bound_to 10752
  140.1961  134.3928  155.8121 H   0  0  0  0  0  0  0  0  0  0  0  0  # atno 11005 bound_to 11000
  145.0384  140.8926  143.5067 LP  0  0  0  0  0  0  0  0  0  0  0  0  # atno 17320 bound_to 7965
  145.1314  139.2629  143.5537 LP  0  0  0  0  0  0  0  0  0  0  0  0  # atno 17321 bound_to 7965
  139.6246  144.7635  151.2667 LP  0  0  0  0  0  0  0  0  0  0  0  0  # atno 17342 bound_to 10162
  140.7404  143.6587  150.8183 LP  0  0  0  0  0  0  0  0  0  0  0  0  # atno 17343 bound_to 10162
  156.0260  130.5354  150.8408 LP  0  0  0  0  0  0  0  0  0  0  0  0  # atno 17370 bound_to 10713
  157.5554  131.0945  150.9636 LP  0  0  0  0  0  0  0  0  0  0  0  0  # atno 17371 bound_to 10713
  141.2227  133.7070  156.8177 LP  0  0  0  0  0  0  0  0  0  0  0  0  # atno 17394 bound_to 11000
  140.2106  134.8830  157.3270 LP  0  0  0  0  0  0  0  0  0  0  0  0  # atno 17395 bound_to 11000

$$$$
