AV-unprocessed.smi:1963|AV-procd|sdf|7927|dock1
  -GOLD-   2272010 93D 1   1.00000     0.00000
 Structure written by MMmdl.
 47 48  0  0  0  0  0  0  0  0  1 V2000
  146.8277  136.3875  154.4981 C   0  0  0  0  0  0  0  0  0  0  0  0
  148.0962  135.9109  155.1965 C   0  0  0  0  0  0  0  0  0  0  0  0
  148.1080  135.7502  156.4166 O   0  0  0  0  0  0  0  0  0  0  0  0
  149.1595  135.6894  154.4080 N   0  0  0  0  0  0  0  0  0  0  0  0
  150.4710  135.2196  154.8609 C   0  0  1  0  0  0  0  0  0  0  0  0
  151.1149  136.3109  155.7390 C   0  0  0  0  0  0  0  0  0  0  0  0
  152.0752  136.0337  156.4589 O   0  0  0  0  0  0  0  0  0  0  0  0
  150.5833  137.5415  155.6181 N   0  0  0  0  0  0  0  0  0  0  0  0
  150.9715  138.7412  156.2723 C   0  0  0  0  0  0  0  0  0  0  0  0
  150.3848  139.9481  155.8458 C   0  0  0  0  0  0  0  0  0  0  0  0
  150.7416  141.1508  156.4842 C   0  0  0  0  0  0  0  0  0  0  0  0
  151.6760  141.1178  157.5459 C   0  0  0  0  0  0  0  0  0  0  0  0
  152.0545  142.3124  158.1967 N   0  0  0  0  0  0  0  0  0  0  0  0
  152.1993  142.2252  159.6479 C   0  0  0  0  0  0  0  0  0  0  0  0
  152.9029  143.4799  160.1934 C   0  0  0  0  0  0  0  0  0  0  0  0
  152.2022  144.6472  159.7765 O   0  0  0  0  0  0  0  0  0  0  0  0
  152.1729  144.7682  158.3584 C   0  0  0  0  0  0  0  0  0  0  0  0
  151.4387  143.5612  157.7508 C   0  0  0  0  0  0  0  0  0  0  0  0
  152.2213  139.9519  157.9721 N   0  0  0  0  0  0  0  0  0  0  0  0
  151.8786  138.8007  157.3561 C   0  0  0  0  0  0  0  0  0  0  0  0
  150.2793  133.9130  155.6874 C   0  0  0  0  0  0  0  0  0  0  0  0
  151.6057  133.3331  156.2219 C   0  0  0  0  0  0  0  0  0  0  0  0
  149.5461  132.8251  154.8779 C   0  0  0  0  0  0  0  0  0  0  0  0
  146.4967  135.6502  153.7663 H   0  0  0  0  0  0  0  0  0  0  0  0
  147.0087  137.3309  153.9822 H   0  0  0  0  0  0  0  0  0  0  0  0
  146.0222  136.5406  155.2173 H   0  0  0  0  0  0  0  0  0  0  0  0
  149.0521  135.8419  153.4157 H   0  0  0  0  0  0  0  0  0  0  0  0
  151.1055  135.0120  153.9964 H   0  0  0  0  0  0  0  0  0  0  0  0
  149.8551  137.6409  154.9258 H   0  0  0  0  0  0  0  0  0  0  0  0
  149.6705  139.9570  155.0355 H   0  0  0  0  0  0  0  0  0  0  0  0
  150.2860  142.0756  156.1634 H   0  0  0  0  0  0  0  0  0  0  0  0
  151.2085  142.1304  160.0945 H   0  0  0  0  0  0  0  0  0  0  0  0
  152.7662  141.3445  159.9463 H   0  0  0  0  0  0  0  0  0  0  0  0
  152.9275  143.4518  161.2828 H   0  0  0  0  0  0  0  0  0  0  0  0
  153.9388  143.5231  159.8528 H   0  0  0  0  0  0  0  0  0  0  0  0
  151.6602  145.6922  158.0913 H   0  0  0  0  0  0  0  0  0  0  0  0
  153.1889  144.8430  157.9674 H   0  0  0  0  0  0  0  0  0  0  0  0
  151.4694  143.6309  156.6626 H   0  0  0  0  0  0  0  0  0  0  0  0
  150.3898  143.5733  158.0499 H   0  0  0  0  0  0  0  0  0  0  0  0
  152.3370  137.9151  157.7675 H   0  0  0  0  0  0  0  0  0  0  0  0
  149.6550  134.1401  156.5536 H   0  0  0  0  0  0  0  0  0  0  0  0
  152.3062  133.1363  155.4097 H   0  0  0  0  0  0  0  0  0  0  0  0
  151.4385  132.3929  156.7484 H   0  0  0  0  0  0  0  0  0  0  0  0
  152.0936  134.0041  156.9289 H   0  0  0  0  0  0  0  0  0  0  0  0
  150.0973  132.5684  153.9726 H   0  0  0  0  0  0  0  0  0  0  0  0
  148.5456  133.1401  154.5805 H   0  0  0  0  0  0  0  0  0  0  0  0
  149.4286  131.9128  155.4635 H   0  0  0  0  0  0  0  0  0  0  0  0
  1  2  1  0  0  0  0
  1 24  1  0  0  0  0
  1 25  1  0  0  0  0
  1 26  1  0  0  0  0
  2  3  2  0  0  0  0
  2  4  1  0  0  0  0
  4  5  1  0  0  0  0
  4 27  1  0  0  0  0
  5  6  1  0  0  0  0
  5 21  1  0  0  0  0
  5 28  1  0  0  0  0
  6  7  2  0  0  0  0
  6  8  1  0  0  0  0
  8  9  1  0  0  0  0
  8 29  1  0  0  0  0
  9 20  1  0  0  0  0
  9 10  2  0  0  0  0
 10 11  1  0  0  0  0
 10 30  1  0  0  0  0
 11 12  2  0  0  0  0
 11 31  1  0  0  0  0
 12 13  1  0  0  0  0
 12 19  1  0  0  0  0
 13 18  1  0  0  0  0
 13 14  1  0  0  0  0
 14 15  1  0  0  0  0
 14 32  1  0  0  0  0
 14 33  1  0  0  0  0
 15 16  1  0  0  0  0
 15 34  1  0  0  0  0
 15 35  1  0  0  0  0
 16 17  1  0  0  0  0
 17 18  1  0  0  0  0
 17 36  1  0  0  0  0
 17 37  1  0  0  0  0
 18 38  1  0  0  0  0
 18 39  1  0  0  0  0
 19 20  2  0  0  0  0
 20 40  1  0  0  0  0
 21 22  1  0  0  0  0
 21 23  1  0  0  0  0
 21 41  1  0  0  0  0
 22 42  1  0  0  0  0
 22 43  1  0  0  0  0
 22 44  1  0  0  0  0
 23 45  1  0  0  0  0
 23 46  1  0  0  0  0
 23 47  1  0  0  0  0
M  END
> <s_m_source_file>
AV-unprocessed.smi

> <i_m_source_file_index>
1963

> <i_lp_mmshare_version>
43012

> <i_f3d_flags>
0

> <s_epik_input>
W0NIM11DKD1PKVtOSF1bQ0BASF0oW0NIXShbQ0gzXSlbQ0gzXSlDKD1PKVtOSF1jMVtjSF1bY0hdYyhuW2NIXTEpTjJbQ0gyXVtDSDJdT1tDSDJdW0NIMl0y

> <s_epik_cmdline>
J2VwaWtfcHl0aG9uJywgJy1waCcsICc3LjAnLCAnLXRuJywgJzgnLCAnLW1hJywgJzIwMCcsICctbWV0YWxfYmluZGluZycsICctaW1hZScsICc8aW5maWxlLm1hZT4nLCAnLW9tYWUnLCAnPG91dGZpbGUubWFlPic=

> <r_lp_tautomer_probability>
1

> <r_epik_Ionization_Penalty>
0.00051446

> <r_epik_Ionization_Penalty_Charging>
0

> <r_epik_Ionization_Penalty_Neutral>
0.00051446

> <r_epik_State_Penalty>
0.00031949

> <r_epik_Charging_Adjusted_Penalty>
0.00031949

> <i_epik_Tot_Q>
0

> <i_epik_Tot_abs_Q>
0

> <r_epik_Metal_State_Penalty>
-0

> <b_epik_Metal_Only>
0

> <s_lp_Force_Field>
OPLS_2005

> <r_lp_Energy>
25.5716

> <b_lp_Chiralities_Consistent>
1

> <s_lp_Variant>
AV-unprocessed.smi:1963-2

> <Gold.Version>
5.8.1

> <Gold.Id.Protein>
6NUR|6NUR_protein|mol2

> <Gold.PLP.Fitness>
39.7871

> <Gold.PLP.PLP>
-34.7961

> <Gold.PLP.part.hbond>
-2.0000

> <Gold.PLP.part.metal>
0.0000

> <Gold.PLP.part.buried>
-5.3169

> <Gold.PLP.part.nonpolar>
-28.6233

> <Gold.PLP.part.repulsive>
0.1205

> <Gold.PLP.ligand.clash>
0.0000

> <Gold.PLP.ligand.torsion>
0.7722

> <Gold.PLP.Chemscore.Hbond>
2.0000

> <Gold.PLP.Chemscore.CHOScore>
0.0000

> <Gold.PLP.Chemscore.Metal>
0.0000

> <Gold.Chemscore.Hbonds>
donor molecule, donor type, donor heavy atom, donor atom, acceptor molecule, acceptor atom, score
      L1  H     4    27       P1  7948  1.00
      P1  H 10752 10763       L1     7  1.00

> <Gold.PLP.Chemscore.Internal.Correction>
0.5355

> <Gold.Rescore>
     Score         DG    S(hbond)    S(metal)    S(lipo)     H(rot)  DE(clash)    DE(int)     intcor
     12.17     -18.03       1.90        0.00      90.91       1.74       0.20       5.66       ----

> <Gold.Chemscore.Fitness>
12.1704

> <Gold.Chemscore.DG>
-18.0260

> <Gold.Chemscore.ZeroCoef>
-5.4800

> <Gold.Chemscore.Hbond>
1.9047

> <Gold.Chemscore.Metal>
0.0000

> <Gold.Chemscore.Lipo>
90.9148

> <Gold.Chemscore.Internal_Hbond>
0.0000

> <Gold.Chemscore.DEClash>
0.1995

> <Gold.Chemscore.DEInternal>
5.6561

> <Gold.Chemscore.Rot>
1.7394

> <Gold.Chemscore.Internal.Correction>
   9.000000E+99

> <Gold.Chemscore.Hbonds>
donor molecule, donor type, donor heavy atom, donor atom, acceptor molecule, acceptor atom, score
      L1  H     4    27       P1  7948  0.84
      P1  H 10752 10763       L1     7  0.35

> <Gold.Chemscore.Hbond.Weighted>
-6.3618

> <Gold.Chemscore.Metal.Weighted>
-0.0000

> <Gold.Chemscore.Lipo.Weighted>
-10.6370

> <Gold.Chemscore.Internal_Hbond.Weighted>
0.0000

> <Gold.Chemscore.DEClash.Weighted>
0.1995

> <Gold.Chemscore.DEInternal.Weighted>
5.6561

> <Gold.Chemscore.Rot.Weighted>
4.4528

> <Gold.Chemscore.Internal.Correction.Weighted>
   9.000000E+99

> <Gold.Protein.RotatedTorsions>
[ 6907 6896 6895 6894 ] final   -1.53 input  -60.11 | X-H torsion
[ 7974 7965 7964 7962 ] final  161.65 input  175.53 | X-H torsion
[ 8008 7997 7996 7995 ] final   63.98 input   59.86 | X-H torsion
[ 10167 10162 10161 10158 ] final   39.06 input  -65.29 | X-H torsion
[ 10718 10713 10712 10709 ] final -109.93 input   66.30 | X-H torsion
[ 10763 10752 10751 10750 ] final  104.60 input  -60.55 | X-H torsion
[ 11005 11000 10999 10996 ] final -126.40 input  -57.11 | X-H torsion

> <Gold.Protein.ActiveResidues>
 VAL166  LYS551  ARG553  GLY616  TRP617  ASP618  TYR619  PRO620  LYS621  CYS622 
 ASP623  PHE694  ASN695  SER759  ASP760  ASP761  ALA762  ILE779  LEU786  VAL792 
 PHE793  MET794  SER795  GLU796  ALA797  LYS798  CYS799  TRP800  GLU811  SER814 

> <Gold.Protein.RotatedAtoms>
  151.5445  135.1068  159.9934 H   0  0  0  0  0  0  0  0  0  0  0  0  # atno 6907 bound_to 6896
  152.4520  133.7643  159.6775 H   0  0  0  0  0  0  0  0  0  0  0  0  # atno 6908 bound_to 6896
  150.8451  133.7807  159.3070 H   0  0  0  0  0  0  0  0  0  0  0  0  # atno 6909 bound_to 6896
  144.7675  139.7928  143.6309 H   0  0  0  0  0  0  0  0  0  0  0  0  # atno 7974 bound_to 7965
  155.6388  140.3496  155.4708 H   0  0  0  0  0  0  0  0  0  0  0  0  # atno 8008 bound_to 7997
  155.9943  140.1200  157.0632 H   0  0  0  0  0  0  0  0  0  0  0  0  # atno 8009 bound_to 7997
  154.4228  140.1113  156.5594 H   0  0  0  0  0  0  0  0  0  0  0  0  # atno 8010 bound_to 7997
  140.3876  144.1896  150.6130 H   0  0  0  0  0  0  0  0  0  0  0  0  # atno 10167 bound_to 10162
  156.0563  130.5789  150.8168 H   0  0  0  0  0  0  0  0  0  0  0  0  # atno 10718 bound_to 10713
  153.3682  135.3937  155.1769 H   0  0  0  0  0  0  0  0  0  0  0  0  # atno 10763 bound_to 10752
  154.8690  135.3696  154.5012 H   0  0  0  0  0  0  0  0  0  0  0  0  # atno 10764 bound_to 10752
  153.5477  135.7083  153.5666 H   0  0  0  0  0  0  0  0  0  0  0  0  # atno 10765 bound_to 10752
  140.9684  134.0839  157.3895 H   0  0  0  0  0  0  0  0  0  0  0  0  # atno 11005 bound_to 11000
  146.1795  139.4981  142.9876 LP  0  0  0  0  0  0  0  0  0  0  0  0  # atno 17320 bound_to 7965
  145.6425  141.0281  143.1804 LP  0  0  0  0  0  0  0  0  0  0  0  0  # atno 17321 bound_to 7965
  140.4873  143.2359  151.8869 LP  0  0  0  0  0  0  0  0  0  0  0  0  # atno 17342 bound_to 10162
  139.4791  144.5204  151.8809 LP  0  0  0  0  0  0  0  0  0  0  0  0  # atno 17343 bound_to 10162
  157.5536  131.0944  150.9660 LP  0  0  0  0  0  0  0  0  0  0  0  0  # atno 17370 bound_to 10713
  156.9914  130.5565  149.5303 LP  0  0  0  0  0  0  0  0  0  0  0  0  # atno 17371 bound_to 10713
  139.8903  135.0111  156.6728 LP  0  0  0  0  0  0  0  0  0  0  0  0  # atno 17394 bound_to 11000
  140.7365  133.9014  155.8247 LP  0  0  0  0  0  0  0  0  0  0  0  0  # atno 17395 bound_to 11000

$$$$
