AV-unprocessed.smi:1895|AV-procd|sdf|7681|dock5
  -GOLD-   22720 9423D 1   1.00000     0.00000
 Structure written by MMmdl.
 36 37  0  0  0  0  0  0  0  0  1 V2000
  153.9862  141.1888  161.2361 C   0  0  0  0  0  0  0  0  0  0  0  0
  153.1690  142.2625  160.5804 C   0  0  0  0  0  0  0  0  0  0  0  0
  152.7045  143.4839  161.1436 C   0  0  0  0  0  0  0  0  0  0  0  0
  152.0143  144.0829  160.1277 C   0  0  0  0  0  0  0  0  0  0  0  0
  151.2870  145.3867  160.0938 C   0  0  0  0  0  0  0  0  0  0  0  0
  152.0886  143.2343  159.0368 N   0  0  0  0  0  0  0  0  0  0  0  0
  151.5247  143.3987  157.7038 C   0  0  0  0  0  0  0  0  0  0  0  0
  150.6168  142.2345  157.2861 C   0  0  0  0  0  0  0  0  0  0  0  0
  149.6867  141.8594  158.0017 O   0  0  0  0  0  0  0  0  0  0  0  0
  150.9032  141.6718  156.1024 N   0  0  0  0  0  0  0  0  0  0  0  0
  150.1827  140.5533  155.5052 C   0  0  0  0  0  0  0  0  0  0  0  0
  149.2471  141.0186  154.3775 C   0  0  1  0  0  0  0  0  0  0  0  0
  148.3446  139.9152  153.8336 C   0  0  0  0  0  0  0  0  0  0  0  0
  147.2419  140.7209  153.1839 C   0  0  0  0  0  0  0  0  0  0  0  0
  147.1094  141.9211  154.1217 C   0  0  0  0  0  0  0  0  0  0  0  0
  148.3317  141.9995  154.8526 O   0  0  0  0  0  0  0  0  0  0  0  0
  152.7981  142.1196  159.3186 N   0  0  0  0  0  0  0  0  0  0  0  0
  154.2069  141.4401  162.2735 H   0  0  0  0  0  0  0  0  0  0  0  0
  154.9360  141.0474  160.7199 H   0  0  0  0  0  0  0  0  0  0  0  0
  153.4574  140.2353  161.2312 H   0  0  0  0  0  0  0  0  0  0  0  0
  152.8542  143.8620  162.1439 H   0  0  0  0  0  0  0  0  0  0  0  0
  151.3308  145.8819  161.0638 H   0  0  0  0  0  0  0  0  0  0  0  0
  150.2369  145.2397  159.8404 H   0  0  0  0  0  0  0  0  0  0  0  0
  151.7248  146.0577  159.3547 H   0  0  0  0  0  0  0  0  0  0  0  0
  150.9558  144.3283  157.6736 H   0  0  0  0  0  0  0  0  0  0  0  0
  152.3387  143.5023  156.9843 H   0  0  0  0  0  0  0  0  0  0  0  0
  151.6862  142.0375  155.5804 H   0  0  0  0  0  0  0  0  0  0  0  0
  150.8922  139.8148  155.1278 H   0  0  0  0  0  0  0  0  0  0  0  0
  149.6081  140.0575  156.2880 H   0  0  0  0  0  0  0  0  0  0  0  0
  149.8189  141.4506  153.5542 H   0  0  0  0  0  0  0  0  0  0  0  0
  148.8565  139.2505  153.1371 H   0  0  0  0  0  0  0  0  0  0  0  0
  147.9379  139.3135  154.6478 H   0  0  0  0  0  0  0  0  0  0  0  0
  147.5606  141.0539  152.1953 H   0  0  0  0  0  0  0  0  0  0  0  0
  146.3120  140.1627  153.0714 H   0  0  0  0  0  0  0  0  0  0  0  0
  146.9227  142.8437  153.5713 H   0  0  0  0  0  0  0  0  0  0  0  0
  146.2907  141.7766  154.8274 H   0  0  0  0  0  0  0  0  0  0  0  0
  1  2  1  0  0  0  0
  1 18  1  0  0  0  0
  1 19  1  0  0  0  0
  1 20  1  0  0  0  0
  2 17  2  0  0  0  0
  2  3  1  0  0  0  0
  3  4  2  0  0  0  0
  3 21  1  0  0  0  0
  4  5  1  0  0  0  0
  4  6  1  0  0  0  0
  5 22  1  0  0  0  0
  5 23  1  0  0  0  0
  5 24  1  0  0  0  0
  6  7  1  0  0  0  0
  6 17  1  0  0  0  0
  7  8  1  0  0  0  0
  7 25  1  0  0  0  0
  7 26  1  0  0  0  0
  8  9  2  0  0  0  0
  8 10  1  0  0  0  0
 10 11  1  0  0  0  0
 10 27  1  0  0  0  0
 11 12  1  0  0  0  0
 11 28  1  0  0  0  0
 11 29  1  0  0  0  0
 12 16  1  0  0  0  0
 12 13  1  0  0  0  0
 12 30  1  0  0  0  0
 13 14  1  0  0  0  0
 13 31  1  0  0  0  0
 13 32  1  0  0  0  0
 14 15  1  0  0  0  0
 14 33  1  0  0  0  0
 14 34  1  0  0  0  0
 15 16  1  0  0  0  0
 15 35  1  0  0  0  0
 15 36  1  0  0  0  0
M  END
> <s_m_source_file>
AV-unprocessed.smi

> <i_m_source_file_index>
1895

> <i_lp_mmshare_version>
43012

> <i_f3d_flags>
0

> <s_epik_input>
W0NIM11jMVtjSF1jKFtDSDNdKW4objEpW0NIMl1DKD1PKVtOSF1bQ0gyXVtDQEBIXTJbQ0gyXVtDSDJdW0NIMl1PMg==

> <s_epik_cmdline>
J2VwaWtfcHl0aG9uJywgJy1waCcsICc3LjAnLCAnLXRuJywgJzgnLCAnLW1hJywgJzIwMCcsICctbWV0YWxfYmluZGluZycsICctaW1hZScsICc8aW5maWxlLm1hZT4nLCAnLW9tYWUnLCAnPG91dGZpbGUubWFlPic=

> <r_lp_tautomer_probability>
1

> <r_epik_Ionization_Penalty>
0.000408438

> <r_epik_Ionization_Penalty_Charging>
0

> <r_epik_Ionization_Penalty_Neutral>
0.000408438

> <r_epik_State_Penalty>
-0

> <r_epik_Charging_Adjusted_Penalty>
0

> <i_epik_Tot_Q>
0

> <i_epik_Tot_abs_Q>
0

> <r_epik_Metal_State_Penalty>
-0

> <b_epik_Metal_Only>
0

> <s_lp_Force_Field>
OPLS_2005

> <r_lp_Energy>
16.1731

> <b_lp_Chiralities_Consistent>
1

> <s_lp_Variant>
AV-unprocessed.smi:1895-2

> <Gold.Version>
5.8.1

> <Gold.Id.Protein>
6NUR|6NUR_protein|mol2

> <Gold.PLP.Fitness>
40.8191

> <Gold.PLP.PLP>
-41.1952

> <Gold.PLP.part.hbond>
0.0000

> <Gold.PLP.part.metal>
0.0000

> <Gold.PLP.part.buried>
-5.0693

> <Gold.PLP.part.nonpolar>
-37.5167

> <Gold.PLP.part.repulsive>
2.1693

> <Gold.PLP.ligand.clash>
0.0000

> <Gold.PLP.ligand.torsion>
0.1954

> <Gold.PLP.Chemscore.Hbond>
0.0000

> <Gold.PLP.Chemscore.CHOScore>
0.0000

> <Gold.PLP.Chemscore.Metal>
0.0000

> <Gold.PLP.Chemscore.Internal.Correction>
0.0146

> <Gold.Rescore>
     Score         DG    S(hbond)    S(metal)    S(lipo)     H(rot)  DE(clash)    DE(int)     intcor
     13.21     -13.44       0.00        0.00     101.67       1.54       0.06       0.17       ----

> <Gold.Chemscore.Fitness>
13.2100

> <Gold.Chemscore.DG>
-13.4364

> <Gold.Chemscore.ZeroCoef>
-5.4800

> <Gold.Chemscore.Hbond>
0.0000

> <Gold.Chemscore.Metal>
0.0000

> <Gold.Chemscore.Lipo>
101.6718

> <Gold.Chemscore.Internal_Hbond>
0.0000

> <Gold.Chemscore.DEClash>
0.0564

> <Gold.Chemscore.DEInternal>
0.1700

> <Gold.Chemscore.Rot>
1.5387

> <Gold.Chemscore.Internal.Correction>
   9.000000E+99

> <Gold.Chemscore.Hbond.Weighted>
-0.0000

> <Gold.Chemscore.Metal.Weighted>
-0.0000

> <Gold.Chemscore.Lipo.Weighted>
-11.8956

> <Gold.Chemscore.Internal_Hbond.Weighted>
0.0000

> <Gold.Chemscore.DEClash.Weighted>
0.0564

> <Gold.Chemscore.DEInternal.Weighted>
0.1700

> <Gold.Chemscore.Rot.Weighted>
3.9392

> <Gold.Chemscore.Internal.Correction.Weighted>
   9.000000E+99

> <Gold.Protein.RotatedTorsions>
[ 6907 6896 6895 6894 ] final  -88.45 input  -60.11 | X-H torsion
[ 7974 7965 7964 7962 ] final -121.51 input  175.53 | X-H torsion
[ 8008 7997 7996 7995 ] final   19.67 input   59.86 | X-H torsion
[ 10167 10162 10161 10158 ] final -135.78 input  -65.29 | X-H torsion
[ 10718 10713 10712 10709 ] final   35.27 input   66.30 | X-H torsion
[ 10763 10752 10751 10750 ] final  -86.56 input  -60.55 | X-H torsion
[ 11005 11000 10999 10996 ] final  -25.39 input  -57.11 | X-H torsion

> <Gold.Protein.ActiveResidues>
 VAL166  LYS551  ARG553  GLY616  TRP617  ASP618  TYR619  PRO620  LYS621  CYS622 
 ASP623  PHE694  ASN695  SER759  ASP760  ASP761  ALA762  ILE779  LEU786  VAL792 
 PHE793  MET794  SER795  GLU796  ALA797  LYS798  CYS799  TRP800  GLU811  SER814 

> <Gold.Protein.RotatedAtoms>
  150.6869  134.2740  159.4599 H   0  0  0  0  0  0  0  0  0  0  0  0  # atno 6907 bound_to 6896
  152.0660  134.9561  160.0584 H   0  0  0  0  0  0  0  0  0  0  0  0  # atno 6908 bound_to 6896
  152.0970  133.4195  159.4606 H   0  0  0  0  0  0  0  0  0  0  0  0  # atno 6909 bound_to 6896
  145.0395  140.8133  143.4275 H   0  0  0  0  0  0  0  0  0  0  0  0  # atno 7974 bound_to 7965
  154.9242  140.3031  155.5200 H   0  0  0  0  0  0  0  0  0  0  0  0  # atno 8008 bound_to 7997
  156.3008  140.2366  156.4231 H   0  0  0  0  0  0  0  0  0  0  0  0  # atno 8009 bound_to 7997
  154.8301  140.0419  157.1459 H   0  0  0  0  0  0  0  0  0  0  0  0  # atno 8010 bound_to 7997
  139.8745  143.6916  152.2635 H   0  0  0  0  0  0  0  0  0  0  0  0  # atno 10167 bound_to 10162
  157.3206  130.7446  149.6782 H   0  0  0  0  0  0  0  0  0  0  0  0  # atno 10718 bound_to 10713
  154.6238  135.5445  153.7605 H   0  0  0  0  0  0  0  0  0  0  0  0  # atno 10763 bound_to 10752
  153.0251  135.6419  154.1401 H   0  0  0  0  0  0  0  0  0  0  0  0  # atno 10764 bound_to 10752
  154.1334  135.2913  155.3159 H   0  0  0  0  0  0  0  0  0  0  0  0  # atno 10765 bound_to 10752
  140.8934  133.7573  156.0450 H   0  0  0  0  0  0  0  0  0  0  0  0  # atno 11005 bound_to 11000
  145.1666  139.2428  143.5364 LP  0  0  0  0  0  0  0  0  0  0  0  0  # atno 17320 bound_to 7965
  146.3508  140.1406  142.8594 LP  0  0  0  0  0  0  0  0  0  0  0  0  # atno 17321 bound_to 7965
  139.7253  144.7594  151.0888 LP  0  0  0  0  0  0  0  0  0  0  0  0  # atno 17342 bound_to 10162
  140.7755  143.5156  150.9599 LP  0  0  0  0  0  0  0  0  0  0  0  0  # atno 17343 bound_to 10162
  155.9685  130.4224  150.4516 LP  0  0  0  0  0  0  0  0  0  0  0  0  # atno 17370 bound_to 10713
  157.2530  131.0550  151.2367 LP  0  0  0  0  0  0  0  0  0  0  0  0  # atno 17371 bound_to 10713
  140.8319  134.3168  157.5345 LP  0  0  0  0  0  0  0  0  0  0  0  0  # atno 17394 bound_to 11000
  139.8732  134.9368  156.3670 LP  0  0  0  0  0  0  0  0  0  0  0  0  # atno 17395 bound_to 11000

$$$$
