AV-unprocessed.smi:137|AV-procd|sdf|1176|dock2
  -GOLD-   2262018323D 1   1.00000     0.00000
 Structure written by MMmdl.
 51 54  0  0  0  0  0  0  0  0  1 V2000
  151.0832  145.0938  159.1266 C   0  0  0  0  0  0  0  0  0  0  0  0
  151.5759  143.7588  159.7059 C   0  0  1  0  0  0  0  0  0  0  0  0
  152.4911  143.0523  158.6798 C   0  0  0  0  0  0  0  0  0  0  0  0
  152.5995  141.6136  158.9209 N   0  0  0  0  0  0  0  0  0  0  0  0
  151.9478  140.7619  158.0762 C   0  0  0  0  0  0  0  0  0  0  0  0
  152.2263  139.4315  158.1486 N   0  0  0  0  0  0  0  0  0  0  0  0
  151.6239  138.5582  157.3381 C   0  0  0  0  0  0  0  0  0  0  0  0
  150.7129  138.7906  156.3942 N   0  0  0  0  0  0  0  0  0  0  0  0
  150.4123  140.1176  156.3160 C   0  0  0  0  0  0  0  0  0  0  0  0
  150.9795  141.1624  157.1040 C   0  0  0  0  0  0  0  0  0  0  0  0
  150.4230  142.3789  156.7217 N   0  0  0  0  0  0  0  0  0  0  0  0
  149.5940  142.0747  155.7620 C   0  0  0  0  0  0  0  0  0  0  0  0
  149.5021  140.7331  155.4743 N   0  0  0  0  0  0  0  0  0  0  0  0
  148.7025  140.1267  154.4502 C   0  0  0  0  0  0  0  0  0  0  0  0
  147.1965  139.9225  154.6325 C   0  0  0  0  0  0  0  0  0  0  0  0
  147.2758  138.6387  153.7746 C   0  0  0  0  0  0  0  0  0  0  0  0
  146.4439  137.4491  154.2814 C   0  0  0  0  0  0  0  0  0  0  0  0
  146.8888  136.2335  153.7142 O   0  0  0  0  0  0  0  0  0  0  0  0
  147.0124  138.8350  152.2679 C   0  0  0  0  0  0  0  0  0  0  0  0
  145.6405  138.6914  151.9611 O   0  0  0  0  0  0  0  0  0  0  0  0
  148.7651  138.6208  154.1836 C   0  0  0  0  0  0  0  0  0  0  0  0
  153.7088  141.0842  159.7217 C   0  0  0  0  0  0  0  0  0  0  0  0
  154.1296  141.9639  160.9101 C   0  0  0  0  0  0  0  0  0  0  0  0
  152.6367  142.4019  161.9220 S   0  0  1  0  0  0  0  0  0  0  0  0
  153.1347  142.7457  163.3269 O   0  0  0  0  0  0  0  0  0  0  0  0
  152.2419  144.0081  161.0752 C   0  0  0  0  0  0  0  0  0  0  0  0
  151.9145  145.7728  158.9342 H   0  0  0  0  0  0  0  0  0  0  0  0
  150.3967  145.5923  159.8115 H   0  0  0  0  0  0  0  0  0  0  0  0
  150.5514  144.9435  158.1866 H   0  0  0  0  0  0  0  0  0  0  0  0
  150.6924  143.1415  159.8713 H   0  0  0  0  0  0  0  0  0  0  0  0
  152.1270  143.2243  157.6667 H   0  0  0  0  0  0  0  0  0  0  0  0
  153.4836  143.5030  158.6933 H   0  0  0  0  0  0  0  0  0  0  0  0
  151.9126  137.5253  157.4651 H   0  0  0  0  0  0  0  0  0  0  0  0
  149.0184  142.8264  155.2416 H   0  0  0  0  0  0  0  0  0  0  0  0
  148.9075  140.6893  153.5378 H   0  0  0  0  0  0  0  0  0  0  0  0
  146.9255  139.7235  155.6713 H   0  0  0  0  0  0  0  0  0  0  0  0
  146.5811  140.7210  154.2172 H   0  0  0  0  0  0  0  0  0  0  0  0
  146.5213  137.3570  155.3651 H   0  0  0  0  0  0  0  0  0  0  0  0
  145.3838  137.5769  154.0617 H   0  0  0  0  0  0  0  0  0  0  0  0
  147.5499  136.4279  153.0674 H   0  0  0  0  0  0  0  0  0  0  0  0
  147.3248  139.8257  151.9377 H   0  0  0  0  0  0  0  0  0  0  0  0
  147.5816  138.1253  151.6670 H   0  0  0  0  0  0  0  0  0  0  0  0
  145.1536  139.3294  152.4601 H   0  0  0  0  0  0  0  0  0  0  0  0
  149.4545  138.3299  153.3907 H   0  0  0  0  0  0  0  0  0  0  0  0
  148.9506  138.0443  155.0920 H   0  0  0  0  0  0  0  0  0  0  0  0
  153.4188  140.1103  160.1190 H   0  0  0  0  0  0  0  0  0  0  0  0
  154.5688  140.9151  159.0728 H   0  0  0  0  0  0  0  0  0  0  0  0
  154.8215  141.4027  161.5381 H   0  0  0  0  0  0  0  0  0  0  0  0
  154.6561  142.8638  160.5931 H   0  0  0  0  0  0  0  0  0  0  0  0
  153.1392  144.6210  160.9868 H   0  0  0  0  0  0  0  0  0  0  0  0
  151.5511  144.5510  161.7208 H   0  0  0  0  0  0  0  0  0  0  0  0
  1  2  1  0  0  0  0
  1 27  1  0  0  0  0
  1 28  1  0  0  0  0
  1 29  1  0  0  0  0
  2 26  1  0  0  0  0
  2  3  1  0  0  0  0
  2 30  1  0  0  0  0
  3  4  1  0  0  0  0
  3 31  1  0  0  0  0
  3 32  1  0  0  0  0
  4  5  1  0  0  0  0
  4 22  1  0  0  0  0
  5 10  1  0  0  0  0
  5  6  2  0  0  0  0
  6  7  1  0  0  0  0
  7  8  2  0  0  0  0
  7 33  1  0  0  0  0
  8  9  1  0  0  0  0
  9 13  1  0  0  0  0
  9 10  2  0  0  0  0
 10 11  1  0  0  0  0
 11 12  2  0  0  0  0
 12 13  1  0  0  0  0
 12 34  1  0  0  0  0
 13 14  1  0  0  0  0
 14 21  1  0  0  0  0
 14 15  1  0  0  0  0
 14 35  1  0  0  0  0
 15 16  1  0  0  0  0
 15 36  1  0  0  0  0
 15 37  1  0  0  0  0
 16 17  1  0  0  0  0
 16 19  1  0  0  0  0
 16 21  1  0  0  0  0
 17 18  1  0  0  0  0
 17 38  1  0  0  0  0
 17 39  1  0  0  0  0
 18 40  1  0  0  0  0
 19 20  1  0  0  0  0
 19 41  1  0  0  0  0
 19 42  1  0  0  0  0
 20 43  1  0  0  0  0
 21 44  1  0  0  0  0
 21 45  1  0  0  0  0
 22 23  1  0  0  0  0
 22 46  1  0  0  0  0
 22 47  1  0  0  0  0
 23 24  1  0  0  0  0
 23 48  1  0  0  0  0
 23 49  1  0  0  0  0
 24 25  2  0  0  0  0
 24 26  1  0  0  0  0
 26 50  1  0  0  0  0
 26 51  1  0  0  0  0
M  END
> <s_m_source_file>
AV-unprocessed.smi

> <i_m_source_file_index>
137

> <i_lp_mmshare_version>
43012

> <i_f3d_flags>
0

> <s_epik_input>
Tz1bU0BAXShbQ0gyXTEpW0NIMl1bQ0gyXU4oW0NIMl1bQ0BIXTFbQ0gzXSljKG5bY0hdbjIpYyhjMjMpbltjSF1uM1tDSF0oW0NIMl00KVtDSDJdQzQoW0NIMl1bT0hdKVtDSDJdW09IXQ==

> <s_epik_cmdline>
J2VwaWtfcHl0aG9uJywgJy1waCcsICc3LjAnLCAnLXRuJywgJzgnLCAnLW1hJywgJzIwMCcsICctbWV0YWxfYmluZGluZycsICctaW1hZScsICc8aW5maWxlLm1hZT4nLCAnLW9tYWUnLCAnPG91dGZpbGUubWFlPic=

> <r_lp_tautomer_probability>
1

> <r_epik_Ionization_Penalty>
0.000811024

> <r_epik_Ionization_Penalty_Charging>
0

> <r_epik_Ionization_Penalty_Neutral>
0.000811024

> <r_epik_State_Penalty>
0.000429598

> <r_epik_Charging_Adjusted_Penalty>
0.000429598

> <i_epik_Tot_Q>
0

> <i_epik_Tot_abs_Q>
0

> <r_epik_Metal_State_Penalty>
-0

> <b_epik_Metal_Only>
0

> <s_lp_Force_Field>
OPLS_2005

> <r_lp_Energy>
40.014

> <b_lp_Chiralities_Consistent>
1

> <s_lp_Variant>
AV-unprocessed.smi:137-2

> <Gold.Version>
5.8.1

> <Gold.Id.Protein>
6NUR|6NUR_protein|mol2

> <Gold.PLP.Fitness>
53.3292

> <Gold.PLP.PLP>
-45.8892

> <Gold.PLP.part.hbond>
-3.0000

> <Gold.PLP.part.metal>
0.0000

> <Gold.PLP.part.buried>
-1.2923

> <Gold.PLP.part.nonpolar>
-43.4424

> <Gold.PLP.part.repulsive>
1.4888

> <Gold.PLP.ligand.clash>
0.0000

> <Gold.PLP.ligand.torsion>
0.6280

> <Gold.PLP.Chemscore.Hbond>
1.9600

> <Gold.PLP.Chemscore.CHOScore>
0.7413

> <Gold.PLP.Chemscore.Metal>
0.0000

> <Gold.Chemscore.Hbonds>
donor molecule, donor type, donor heavy atom, donor atom, acceptor molecule, acceptor atom, score
      L1  H    18    40       P1  7948  1.00
      L1  H    20    43       P1 10175  0.90
      L1  C    12    34       P1  8028  0.74

> <Gold.PLP.Chemscore.Internal.Correction>
0.5923

> <Gold.Rescore>
     Score         DG    S(hbond)    S(metal)    S(lipo)     H(rot)  DE(clash)    DE(int)     intcor
     11.70     -16.85       1.91        0.00     105.49       2.87       2.15       3.00       ----

> <Gold.Chemscore.Fitness>
11.6951

> <Gold.Chemscore.DG>
-16.8478

> <Gold.Chemscore.ZeroCoef>
-5.4800

> <Gold.Chemscore.Hbond>
1.9100

> <Gold.Chemscore.Metal>
0.0000

> <Gold.Chemscore.Lipo>
105.4860

> <Gold.Chemscore.Internal_Hbond>
0.0000

> <Gold.Chemscore.DEClash>
2.1531

> <Gold.Chemscore.DEInternal>
2.9996

> <Gold.Chemscore.Rot>
2.8725

> <Gold.Chemscore.Internal.Correction>
   9.000000E+99

> <Gold.Chemscore.Hbonds>
donor molecule, donor type, donor heavy atom, donor atom, acceptor molecule, acceptor atom, score
      L1  H    18    40       P1  7948  1.00
      L1  H    20    43       P1 10175  0.88

> <Gold.Chemscore.Hbond.Weighted>
-6.3795

> <Gold.Chemscore.Metal.Weighted>
-0.0000

> <Gold.Chemscore.Lipo.Weighted>
-12.3419

> <Gold.Chemscore.Internal_Hbond.Weighted>
0.0000

> <Gold.Chemscore.DEClash.Weighted>
2.1531

> <Gold.Chemscore.DEInternal.Weighted>
2.9996

> <Gold.Chemscore.Rot.Weighted>
7.3535

> <Gold.Chemscore.Internal.Correction.Weighted>
   9.000000E+99

> <Gold.Protein.RotatedTorsions>
[ 6907 6896 6895 6894 ] final  -36.14 input  -60.11 | X-H torsion
[ 7974 7965 7964 7962 ] final   40.69 input  175.53 | X-H torsion
[ 8008 7997 7996 7995 ] final   84.90 input   59.86 | X-H torsion
[ 10167 10162 10161 10158 ] final -143.00 input  -65.29 | X-H torsion
[ 10718 10713 10712 10709 ] final   44.43 input   66.30 | X-H torsion
[ 10763 10752 10751 10750 ] final  -77.63 input  -60.55 | X-H torsion
[ 11005 11000 10999 10996 ] final -150.57 input  -57.11 | X-H torsion

> <Gold.Protein.ActiveResidues>
 VAL166  LYS551  ARG553  GLY616  TRP617  ASP618  TYR619  PRO620  LYS621  CYS622 
 ASP623  PHE694  ASN695  SER759  ASP760  ASP761  ALA762  ILE779  LEU786  VAL792 
 PHE793  MET794  SER795  GLU796  ALA797  LYS798  CYS799  TRP800  GLU811  SER814 

> <Gold.Protein.RotatedAtoms>
  151.0309  134.9538  159.8110 H   0  0  0  0  0  0  0  0  0  0  0  0  # atno 6907 bound_to 6896
  152.5345  134.2781  159.9007 H   0  0  0  0  0  0  0  0  0  0  0  0  # atno 6908 bound_to 6896
  151.2791  133.4176  159.2660 H   0  0  0  0  0  0  0  0  0  0  0  0  # atno 6909 bound_to 6896
  146.0884  139.5503  142.9491 H   0  0  0  0  0  0  0  0  0  0  0  0  # atno 7974 bound_to 7965
  155.9431  140.3406  155.6344 H   0  0  0  0  0  0  0  0  0  0  0  0  # atno 8008 bound_to 7997
  155.7014  140.0761  157.2427 H   0  0  0  0  0  0  0  0  0  0  0  0  # atno 8009 bound_to 7997
  154.4106  140.1639  156.2183 H   0  0  0  0  0  0  0  0  0  0  0  0  # atno 8010 bound_to 7997
  139.8035  143.7801  152.2659 H   0  0  0  0  0  0  0  0  0  0  0  0  # atno 10167 bound_to 10162
  157.4268  130.8001  149.7565 H   0  0  0  0  0  0  0  0  0  0  0  0  # atno 10718 bound_to 10713
  154.5154  135.5757  153.6638 H   0  0  0  0  0  0  0  0  0  0  0  0  # atno 10763 bound_to 10752
  152.9906  135.6169  154.2824 H   0  0  0  0  0  0  0  0  0  0  0  0  # atno 10764 bound_to 10752
  154.2741  135.2852  155.2705 H   0  0  0  0  0  0  0  0  0  0  0  0  # atno 10765 bound_to 10752
  140.7388  134.3537  157.5152 H   0  0  0  0  0  0  0  0  0  0  0  0  # atno 11005 bound_to 11000
  145.6085  141.0343  143.1979 LP  0  0  0  0  0  0  0  0  0  0  0  0  # atno 17320 bound_to 7965
  144.7342  139.7634  143.7335 LP  0  0  0  0  0  0  0  0  0  0  0  0  # atno 17321 bound_to 7965
  139.7928  144.7404  150.9931 LP  0  0  0  0  0  0  0  0  0  0  0  0  # atno 17342 bound_to 10162
  140.7820  143.4424  151.0531 LP  0  0  0  0  0  0  0  0  0  0  0  0  # atno 17343 bound_to 10162
  155.9899  130.3948  150.3052 LP  0  0  0  0  0  0  0  0  0  0  0  0  # atno 17370 bound_to 10713
  157.1205  131.0245  151.3011 LP  0  0  0  0  0  0  0  0  0  0  0  0  # atno 17371 bound_to 10713
  139.8810  134.9067  156.2928 LP  0  0  0  0  0  0  0  0  0  0  0  0  # atno 17394 bound_to 11000
  140.9855  133.7241  156.0735 LP  0  0  0  0  0  0  0  0  0  0  0  0  # atno 17395 bound_to 11000

$$$$
