AV-unprocessed.smi:767|AV-procd|sdf|3657|dock4
  -GOLD-   22720 1 63D 1   1.00000     0.00000
 Structure written by MMmdl.
 47 49  0  0  0  0  0  0  0  0  1 V2000
  151.0838  141.3432  155.9769 C   0  0  0  0  0  0  0  0  0  0  0  0
  151.0266  139.8358  155.8406 C   0  0  0  0  0  0  0  0  0  0  0  0
  150.9732  139.0088  156.9825 C   0  0  0  0  0  0  0  0  0  0  0  0
  150.9196  137.6137  156.7980 C   0  0  0  0  0  0  0  0  0  0  0  0
  150.9186  137.1010  155.4846 C   0  0  0  0  0  0  0  0  0  0  0  0
  150.8555  135.6079  155.2317 C   0  0  0  0  0  0  0  0  0  0  0  0
  149.4598  135.0321  155.5194 C   0  0  0  0  0  0  0  0  0  0  0  0
  148.6398  134.9879  154.3150 N   0  0  0  0  0  0  0  0  0  0  0  0
  147.4038  134.4749  154.2457 C   0  0  0  0  0  0  0  0  0  0  0  0
  146.8097  133.9716  155.1995 O   0  0  0  0  0  0  0  0  0  0  0  0
  146.8896  134.5829  153.0141 N   0  0  0  0  0  0  0  0  0  0  0  0
  145.5535  134.1363  152.6393 C   0  0  2  0  0  0  0  0  0  0  0  0
  145.5593  133.2611  151.3857 C   0  0  1  0  0  0  0  0  0  0  0  0
  145.2502  131.8335  151.1063 C   0  0  0  0  0  0  0  0  0  0  0  0
  144.3654  132.0509  149.8493 C   0  0  0  0  0  0  0  0  0  0  0  0
  144.1042  133.4748  149.7884 O   0  0  0  0  0  0  0  0  0  0  0  0
  144.2039  133.8925  151.1344 C   0  0  2  0  0  0  0  0  0  0  0  0
  144.7598  135.1829  151.7695 C   0  0  0  0  0  0  0  0  0  0  0  0
  143.7387  136.0261  152.5336 C   0  0  0  0  0  0  0  0  0  0  0  0
  145.5295  136.1587  150.8562 C   0  0  0  0  0  0  0  0  0  0  0  0
  150.9708  138.0147  154.4107 C   0  0  0  0  0  0  0  0  0  0  0  0
  151.0238  139.3537  154.5782 N   0  0  0  0  0  0  0  0  0  0  0  0
  151.3897  141.6351  156.9819 H   0  0  0  0  0  0  0  0  0  0  0  0
  150.1035  141.7765  155.7777 H   0  0  0  0  0  0  0  0  0  0  0  0
  151.7979  141.7676  155.2702 H   0  0  0  0  0  0  0  0  0  0  0  0
  150.9733  139.4305  157.9769 H   0  0  0  0  0  0  0  0  0  0  0  0
  150.8779  136.9518  157.6508 H   0  0  0  0  0  0  0  0  0  0  0  0
  151.1386  135.4159  154.1960 H   0  0  0  0  0  0  0  0  0  0  0  0
  151.6017  135.1093  155.8519 H   0  0  0  0  0  0  0  0  0  0  0  0
  149.5496  134.0150  155.9023 H   0  0  0  0  0  0  0  0  0  0  0  0
  148.9562  135.6133  156.2940 H   0  0  0  0  0  0  0  0  0  0  0  0
  149.0411  135.3804  153.4759 H   0  0  0  0  0  0  0  0  0  0  0  0
  147.4511  135.0120  152.2931 H   0  0  0  0  0  0  0  0  0  0  0  0
  144.9761  133.7038  153.4618 H   0  0  0  0  0  0  0  0  0  0  0  0
  146.3269  133.6035  150.6874 H   0  0  0  0  0  0  0  0  0  0  0  0
  146.1396  131.2393  150.8950 H   0  0  0  0  0  0  0  0  0  0  0  0
  144.6956  131.3688  151.9228 H   0  0  0  0  0  0  0  0  0  0  0  0
  144.8706  131.7342  148.9365 H   0  0  0  0  0  0  0  0  0  0  0  0
  143.4309  131.4945  149.9307 H   0  0  0  0  0  0  0  0  0  0  0  0
  143.3952  133.4581  151.7337 H   0  0  0  0  0  0  0  0  0  0  0  0
  143.0325  136.5095  151.8578 H   0  0  0  0  0  0  0  0  0  0  0  0
  144.2228  136.8071  153.1209 H   0  0  0  0  0  0  0  0  0  0  0  0
  143.1568  135.4188  153.2275 H   0  0  0  0  0  0  0  0  0  0  0  0
  144.8596  136.6344  150.1395 H   0  0  0  0  0  0  0  0  0  0  0  0
  146.3199  135.6863  150.2758 H   0  0  0  0  0  0  0  0  0  0  0  0
  146.0005  136.9543  151.4343 H   0  0  0  0  0  0  0  0  0  0  0  0
  150.9670  137.6629  153.3895 H   0  0  0  0  0  0  0  0  0  0  0  0
  1  2  1  0  0  0  0
  1 23  1  0  0  0  0
  1 24  1  0  0  0  0
  1 25  1  0  0  0  0
  2 22  1  0  0  0  0
  2  3  2  0  0  0  0
  3  4  1  0  0  0  0
  3 26  1  0  0  0  0
  4  5  2  0  0  0  0
  4 27  1  0  0  0  0
  5  6  1  0  0  0  0
  5 21  1  0  0  0  0
  6  7  1  0  0  0  0
  6 28  1  0  0  0  0
  6 29  1  0  0  0  0
  7  8  1  0  0  0  0
  7 30  1  0  0  0  0
  7 31  1  0  0  0  0
  8  9  1  0  0  0  0
  8 32  1  0  0  0  0
  9 10  2  0  0  0  0
  9 11  1  0  0  0  0
 11 12  1  0  0  0  0
 11 33  1  0  0  0  0
 12 18  1  0  0  0  0
 12 13  1  0  0  0  0
 12 34  1  0  0  0  0
 13 17  1  0  0  0  0
 13 14  1  0  0  0  0
 13 35  1  0  0  0  0
 14 15  1  0  0  0  0
 14 36  1  0  0  0  0
 14 37  1  0  0  0  0
 15 16  1  0  0  0  0
 15 38  1  0  0  0  0
 15 39  1  0  0  0  0
 16 17  1  0  0  0  0
 17 18  1  0  0  0  0
 17 40  1  0  0  0  0
 18 19  1  0  0  0  0
 18 20  1  0  0  0  0
 19 41  1  0  0  0  0
 19 42  1  0  0  0  0
 19 43  1  0  0  0  0
 20 44  1  0  0  0  0
 20 45  1  0  0  0  0
 20 46  1  0  0  0  0
 21 22  2  0  0  0  0
 21 47  1  0  0  0  0
M  END
> <s_m_source_file>
AV-unprocessed.smi

> <i_m_source_file_index>
767

> <i_lp_mmshare_version>
43012

> <i_f3d_flags>
0

> <s_epik_input>
W0NIM11jMVtjSF1bY0hdYyhbY0hdbjEpW0NIMl1bQ0gyXVtOSF1DKD1PKVtOSF1bQ0BIXTJDKFtDSDNdKShbQ0gzXSlbQ0BIXShbQ0BASF0yMylPW0NIMl1bQ0gyXTM=

> <s_epik_cmdline>
J2VwaWtfcHl0aG9uJywgJy1waCcsICc3LjAnLCAnLXRuJywgJzgnLCAnLW1hJywgJzIwMCcsICctbWV0YWxfYmluZGluZycsICctaW1hZScsICc8aW5maWxlLm1hZT4nLCAnLW9tYWUnLCAnPG91dGZpbGUubWFlPic=

> <r_epik_Ionization_Penalty>
0.0567523

> <r_epik_Ionization_Penalty_Charging>
0

> <r_epik_Ionization_Penalty_Neutral>
0.0567523

> <r_epik_State_Penalty>
0.0489186

> <r_epik_Charging_Adjusted_Penalty>
0.0489186

> <i_epik_Tot_Q>
0

> <i_epik_Tot_abs_Q>
0

> <r_epik_Metal_State_Penalty>
0.044622

> <b_epik_Metal_Only>
0

> <s_lp_Force_Field>
OPLS_2005

> <r_lp_Energy>
54.5337

> <b_lp_Chiralities_Consistent>
1

> <s_lp_Variant>
AV-unprocessed.smi:767-1

> <Gold.Version>
5.8.1

> <Gold.Id.Protein>
6NUR|6NUR_protein|mol2

> <Gold.PLP.Fitness>
46.4604

> <Gold.PLP.PLP>
-35.0997

> <Gold.PLP.part.hbond>
-3.0000

> <Gold.PLP.part.metal>
0.0000

> <Gold.PLP.part.buried>
-4.6759

> <Gold.PLP.part.nonpolar>
-27.7010

> <Gold.PLP.part.repulsive>
0.3582

> <Gold.PLP.ligand.clash>
0.0000

> <Gold.PLP.ligand.torsion>
0.5192

> <Gold.PLP.Chemscore.Hbond>
2.9600

> <Gold.PLP.Chemscore.CHOScore>
1.0818

> <Gold.PLP.Chemscore.Metal>
0.0000

> <Gold.Chemscore.Hbonds>
donor molecule, donor type, donor heavy atom, donor atom, acceptor molecule, acceptor atom, score
      L1  H     8    32       P1  7948  1.00
      L1  H    11    33       P1  7948  0.96
      P1  H  7989  7998       L1    22  1.00
      L1  C    21    47       P1  7948  0.07
      L1  C    21    47       P1  7949  0.98

> <Gold.PLP.Chemscore.Internal.Correction>
0.2737

> <Gold.Rescore>
     Score         DG    S(hbond)    S(metal)    S(lipo)     H(rot)  DE(clash)    DE(int)     intcor
     21.23     -21.70       2.69        0.00      93.49       1.45       0.07       0.40       ----

> <Gold.Chemscore.Fitness>
21.2257

> <Gold.Chemscore.DG>
-21.7000

> <Gold.Chemscore.ZeroCoef>
-5.4800

> <Gold.Chemscore.Hbond>
2.6923

> <Gold.Chemscore.Metal>
0.0000

> <Gold.Chemscore.Lipo>
93.4949

> <Gold.Chemscore.Internal_Hbond>
0.0000

> <Gold.Chemscore.DEClash>
0.0724

> <Gold.Chemscore.DEInternal>
0.4019

> <Gold.Chemscore.Rot>
1.4497

> <Gold.Chemscore.Internal.Correction>
   9.000000E+99

> <Gold.Chemscore.Hbonds>
donor molecule, donor type, donor heavy atom, donor atom, acceptor molecule, acceptor atom, score
      L1  H     8    32       P1  7948  0.54
      L1  H    11    33       P1  7948  0.89
      P1  H  7989  7998       L1    22  0.44

> <Gold.Chemscore.Hbond.Weighted>
-8.9923

> <Gold.Chemscore.Metal.Weighted>
-0.0000

> <Gold.Chemscore.Lipo.Weighted>
-10.9389

> <Gold.Chemscore.Internal_Hbond.Weighted>
0.0000

> <Gold.Chemscore.DEClash.Weighted>
0.0724

> <Gold.Chemscore.DEInternal.Weighted>
0.4019

> <Gold.Chemscore.Rot.Weighted>
3.7112

> <Gold.Chemscore.Internal.Correction.Weighted>
   9.000000E+99

> <Gold.Protein.RotatedTorsions>
[ 6907 6896 6895 6894 ] final  166.46 input  -60.11 | X-H torsion
[ 7974 7965 7964 7962 ] final  135.81 input  175.53 | X-H torsion
[ 8008 7997 7996 7995 ] final  -54.37 input   59.86 | X-H torsion
[ 10167 10162 10161 10158 ] final  -36.28 input  -65.29 | X-H torsion
[ 10718 10713 10712 10709 ] final   44.52 input   66.30 | X-H torsion
[ 10763 10752 10751 10750 ] final  -86.95 input  -60.55 | X-H torsion
[ 11005 11000 10999 10996 ] final   31.69 input  -57.11 | X-H torsion

> <Gold.Protein.ActiveResidues>
 VAL166  LYS551  ARG553  GLY616  TRP617  ASP618  TYR619  PRO620  LYS621  CYS622 
 ASP623  PHE694  ASN695  SER759  ASP760  ASP761  ALA762  ILE779  LEU786  VAL792 
 PHE793  MET794  SER795  GLU796  ALA797  LYS798  CYS799  TRP800  GLU811  SER814 

> <Gold.Protein.RotatedAtoms>
  151.8786  133.3490  159.3758 H   0  0  0  0  0  0  0  0  0  0  0  0  # atno 6907 bound_to 6896
  150.7133  134.5041  159.5585 H   0  0  0  0  0  0  0  0  0  0  0  0  # atno 6908 bound_to 6896
  152.2588  134.8056  160.0485 H   0  0  0  0  0  0  0  0  0  0  0  0  # atno 6909 bound_to 6896
  144.9627  139.4693  143.5472 H   0  0  0  0  0  0  0  0  0  0  0  0  # atno 7974 bound_to 7965
  154.4161  140.1178  156.5304 H   0  0  0  0  0  0  0  0  0  0  0  0  # atno 8008 bound_to 7997
  155.6611  140.3496  155.4764 H   0  0  0  0  0  0  0  0  0  0  0  0  # atno 8009 bound_to 7997
  155.9712  140.1142  157.0800 H   0  0  0  0  0  0  0  0  0  0  0  0  # atno 8010 bound_to 7997
  140.7146  143.3419  151.2339 H   0  0  0  0  0  0  0  0  0  0  0  0  # atno 10167 bound_to 10162
  157.4277  130.8006  149.7574 H   0  0  0  0  0  0  0  0  0  0  0  0  # atno 10718 bound_to 10713
  154.6282  135.5431  153.7650 H   0  0  0  0  0  0  0  0  0  0  0  0  # atno 10763 bound_to 10752
  153.0271  135.6429  154.1340 H   0  0  0  0  0  0  0  0  0  0  0  0  # atno 10764 bound_to 10752
  154.1272  135.2916  155.3174 H   0  0  0  0  0  0  0  0  0  0  0  0  # atno 10765 bound_to 10752
  140.2812  134.2970  155.7800 H   0  0  0  0  0  0  0  0  0  0  0  0  # atno 11005 bound_to 11000
  146.3358  139.8787  142.8828 LP  0  0  0  0  0  0  0  0  0  0  0  0  # atno 17320 bound_to 7965
  145.2676  141.0098  143.3790 LP  0  0  0  0  0  0  0  0  0  0  0  0  # atno 17321 bound_to 7965
  139.6929  143.9662  152.2868 LP  0  0  0  0  0  0  0  0  0  0  0  0  # atno 17342 bound_to 10162
  139.9329  144.6730  150.8344 LP  0  0  0  0  0  0  0  0  0  0  0  0  # atno 17343 bound_to 10162
  155.9902  130.3946  150.3038 LP  0  0  0  0  0  0  0  0  0  0  0  0  # atno 17370 bound_to 10713
  157.1192  131.0242  151.3016 LP  0  0  0  0  0  0  0  0  0  0  0  0  # atno 17371 bound_to 10713
  141.2162  133.7526  156.9483 LP  0  0  0  0  0  0  0  0  0  0  0  0  # atno 17394 bound_to 11000
  140.1281  134.9373  157.2299 LP  0  0  0  0  0  0  0  0  0  0  0  0  # atno 17395 bound_to 11000

$$$$
