AV-unprocessed.smi:2214|AV-procd|sdf|8959|dock3
  -GOLD-   2272012173D 1   1.00000     0.00000
 Structure written by MMmdl.
 41 42  0  0  0  0  0  0  0  0  1 V2000
  151.8391  145.5608  160.0438 C   0  0  0  0  0  0  0  0  0  0  0  0
  152.1780  144.0871  159.9519 C   0  0  0  0  0  0  0  0  0  0  0  0
  152.8888  143.4539  160.9906 C   0  0  0  0  0  0  0  0  0  0  0  0
  153.1967  142.0845  160.8974 C   0  0  0  0  0  0  0  0  0  0  0  0
  152.7962  141.3441  159.7684 C   0  0  0  0  0  0  0  0  0  0  0  0
  153.1896  139.6642  159.6751 Cl  0  0  0  0  0  0  0  0  0  0  0  0
  152.0844  141.9650  158.7185 C   0  0  0  0  0  0  0  0  0  0  0  0
  151.7257  141.1761  157.6467 O   0  0  0  0  0  0  0  0  0  0  0  0
  151.1482  141.7974  156.5068 C   0  0  0  0  0  0  0  0  0  0  0  0
  150.6994  140.6925  155.5391 C   0  0  1  0  0  0  0  0  0  0  0  0
  151.6229  139.6293  155.6557 O   0  0  0  0  0  0  0  0  0  0  0  0
  149.2805  140.1691  155.8653 C   0  0  0  0  0  0  0  0  0  0  0  0
  148.2397  141.1302  155.4677 N   0  0  0  0  0  0  0  0  0  0  0  0
  148.1552  141.4254  154.0962 C   0  0  0  0  0  0  0  0  0  0  0  0
  147.2708  142.2460  153.6318 N   0  0  0  0  0  0  0  0  0  0  0  0
  146.3653  142.8601  154.5021 C   0  0  0  0  0  0  0  0  0  0  0  0
  145.3694  143.8042  153.8522 C   0  0  0  0  0  0  0  0  0  0  0  0
  146.3901  142.6107  155.8402 C   0  0  0  0  0  0  0  0  0  0  0  0
  145.4285  143.2489  156.8350 C   0  0  0  0  0  0  0  0  0  0  0  0
  147.3887  141.6754  156.3831 C   0  0  0  0  0  0  0  0  0  0  0  0
  147.4605  141.3961  157.5814 O   0  0  0  0  0  0  0  0  0  0  0  0
  151.7776  143.3457  158.8214 C   0  0  0  0  0  0  0  0  0  0  0  0
  152.2852  146.0178  160.9275 H   0  0  0  0  0  0  0  0  0  0  0  0
  150.7587  145.6966  160.0977 H   0  0  0  0  0  0  0  0  0  0  0  0
  152.2086  146.0899  159.1650 H   0  0  0  0  0  0  0  0  0  0  0  0
  153.1998  144.0132  161.8610 H   0  0  0  0  0  0  0  0  0  0  0  0
  153.7423  141.6016  161.6947 H   0  0  0  0  0  0  0  0  0  0  0  0
  150.2875  142.3936  156.8149 H   0  0  0  0  0  0  0  0  0  0  0  0
  151.8654  142.4590  156.0177 H   0  0  0  0  0  0  0  0  0  0  0  0
  150.7506  141.0798  154.5204 H   0  0  0  0  0  0  0  0  0  0  0  0
  151.8387  139.3208  154.7890 H   0  0  0  0  0  0  0  0  0  0  0  0
  149.1151  139.1849  155.4223 H   0  0  0  0  0  0  0  0  0  0  0  0
  149.1913  139.9836  156.9377 H   0  0  0  0  0  0  0  0  0  0  0  0
  148.8786  140.9121  153.4597 H   0  0  0  0  0  0  0  0  0  0  0  0
  145.4771  144.8116  154.2554 H   0  0  0  0  0  0  0  0  0  0  0  0
  144.3492  143.4635  154.0303 H   0  0  0  0  0  0  0  0  0  0  0  0
  145.5194  143.8586  152.7733 H   0  0  0  0  0  0  0  0  0  0  0  0
  144.8457  142.4784  157.3408 H   0  0  0  0  0  0  0  0  0  0  0  0
  144.7270  143.9405  156.3714 H   0  0  0  0  0  0  0  0  0  0  0  0
  145.9843  143.8041  157.5916 H   0  0  0  0  0  0  0  0  0  0  0  0
  151.2310  143.8578  158.0441 H   0  0  0  0  0  0  0  0  0  0  0  0
  1  2  1  0  0  0  0
  1 23  1  0  0  0  0
  1 24  1  0  0  0  0
  1 25  1  0  0  0  0
  2 22  1  0  0  0  0
  2  3  2  0  0  0  0
  3  4  1  0  0  0  0
  3 26  1  0  0  0  0
  4  5  2  0  0  0  0
  4 27  1  0  0  0  0
  5  6  1  0  0  0  0
  5  7  1  0  0  0  0
  7  8  1  0  0  0  0
  7 22  2  0  0  0  0
  8  9  1  0  0  0  0
  9 10  1  0  0  0  0
  9 28  1  0  0  0  0
  9 29  1  0  0  0  0
 10 11  1  0  0  0  0
 10 12  1  0  0  0  0
 10 30  1  0  0  0  0
 11 31  1  0  0  0  0
 12 13  1  0  0  0  0
 12 32  1  0  0  0  0
 12 33  1  0  0  0  0
 13 20  1  0  0  0  0
 13 14  1  0  0  0  0
 14 15  2  0  0  0  0
 14 34  1  0  0  0  0
 15 16  1  0  0  0  0
 16 17  1  0  0  0  0
 16 18  2  0  0  0  0
 17 35  1  0  0  0  0
 17 36  1  0  0  0  0
 17 37  1  0  0  0  0
 18 19  1  0  0  0  0
 18 20  1  0  0  0  0
 19 38  1  0  0  0  0
 19 39  1  0  0  0  0
 19 40  1  0  0  0  0
 20 21  2  0  0  0  0
 22 41  1  0  0  0  0
M  END
> <s_m_source_file>
AV-unprocessed.smi

> <i_m_source_file_index>
2214

> <i_lp_mmshare_version>
43012

> <i_f3d_flags>
0

> <s_epik_input>
W0NIM11jMVtjSF1bY0hdYyhDbCljKFtjSF0xKU9bQ0gyXVtDQEhdKFtPSF0pW0NIMl1uMltjSF1uYyhbQ0gzXSljKFtDSDNdKWMyPU8=

> <s_epik_cmdline>
J2VwaWtfcHl0aG9uJywgJy1waCcsICc3LjAnLCAnLXRuJywgJzgnLCAnLW1hJywgJzIwMCcsICctbWV0YWxfYmluZGluZycsICctaW1hZScsICc8aW5maWxlLm1hZT4nLCAnLW9tYWUnLCAnPG91dGZpbGUubWFlPic=

> <r_lp_tautomer_probability>
1

> <r_epik_Ionization_Penalty>
3.50205e-05

> <r_epik_Ionization_Penalty_Charging>
7.87908e-08

> <r_epik_Ionization_Penalty_Neutral>
3.49418e-05

> <r_epik_State_Penalty>
-0

> <r_epik_Charging_Adjusted_Penalty>
7.87908e-08

> <i_epik_Tot_Q>
0

> <i_epik_Tot_abs_Q>
0

> <r_epik_Metal_State_Penalty>
-0

> <b_epik_Metal_Only>
0

> <s_lp_Force_Field>
OPLS_2005

> <r_lp_Energy>
22.3765

> <b_lp_Chiralities_Consistent>
1

> <s_lp_Variant>
AV-unprocessed.smi:2214-2

> <Gold.Version>
5.8.1

> <Gold.Id.Protein>
6NUR|6NUR_protein|mol2

> <Gold.PLP.Fitness>
47.1911

> <Gold.PLP.PLP>
-45.0263

> <Gold.PLP.part.hbond>
-0.1309

> <Gold.PLP.part.metal>
0.0000

> <Gold.PLP.part.buried>
-4.2397

> <Gold.PLP.part.nonpolar>
-39.9287

> <Gold.PLP.part.repulsive>
0.2451

> <Gold.PLP.ligand.clash>
0.0000

> <Gold.PLP.ligand.torsion>
0.4577

> <Gold.PLP.Chemscore.Hbond>
0.0000

> <Gold.PLP.Chemscore.CHOScore>
0.9977

> <Gold.PLP.Chemscore.Metal>
0.0000

> <Gold.Chemscore.Hbonds>
donor molecule, donor type, donor heavy atom, donor atom, acceptor molecule, acceptor atom, score
      L1  C    14    34       P1  7957  0.92

> <Gold.PLP.Chemscore.Internal.Correction>
0.0872

> <Gold.Rescore>
     Score         DG    S(hbond)    S(metal)    S(lipo)     H(rot)  DE(clash)    DE(int)     intcor
     13.04     -13.62       0.00        0.00     120.96       2.35       0.18       0.40       ----

> <Gold.Chemscore.Fitness>
13.0363

> <Gold.Chemscore.DG>
-13.6188

> <Gold.Chemscore.ZeroCoef>
-5.4800

> <Gold.Chemscore.Hbond>
0.0000

> <Gold.Chemscore.Metal>
0.0000

> <Gold.Chemscore.Lipo>
120.9604

> <Gold.Chemscore.Internal_Hbond>
0.0000

> <Gold.Chemscore.DEClash>
0.1780

> <Gold.Chemscore.DEInternal>
0.4045

> <Gold.Chemscore.Rot>
2.3490

> <Gold.Chemscore.Internal.Correction>
   9.000000E+99

> <Gold.Chemscore.Hbond.Weighted>
-0.0000

> <Gold.Chemscore.Metal.Weighted>
-0.0000

> <Gold.Chemscore.Lipo.Weighted>
-14.1524

> <Gold.Chemscore.Internal_Hbond.Weighted>
0.0000

> <Gold.Chemscore.DEClash.Weighted>
0.1780

> <Gold.Chemscore.DEInternal.Weighted>
0.4045

> <Gold.Chemscore.Rot.Weighted>
6.0136

> <Gold.Chemscore.Internal.Correction.Weighted>
   9.000000E+99

> <Gold.Protein.RotatedTorsions>
[ 6907 6896 6895 6894 ] final   88.85 input  -60.11 | X-H torsion
[ 7974 7965 7964 7962 ] final  147.87 input  175.53 | X-H torsion
[ 8008 7997 7996 7995 ] final  154.81 input   59.86 | X-H torsion
[ 10167 10162 10161 10158 ] final  -83.17 input  -65.29 | X-H torsion
[ 10718 10713 10712 10709 ] final  151.57 input   66.30 | X-H torsion
[ 10763 10752 10751 10750 ] final  -71.73 input  -60.55 | X-H torsion
[ 11005 11000 10999 10996 ] final   82.14 input  -57.11 | X-H torsion

> <Gold.Protein.ActiveResidues>
 VAL166  LYS551  ARG553  GLY616  TRP617  ASP618  TYR619  PRO620  LYS621  CYS622 
 ASP623  PHE694  ASN695  SER759  ASP760  ASP761  ALA762  ILE779  LEU786  VAL792 
 PHE793  MET794  SER795  GLU796  ALA797  LYS798  CYS799  TRP800  GLU811  SER814 

> <Gold.Protein.RotatedAtoms>
  152.5430  134.2057  159.8729 H   0  0  0  0  0  0  0  0  0  0  0  0  # atno 6907 bound_to 6896
  151.2043  133.4586  159.2604 H   0  0  0  0  0  0  0  0  0  0  0  0  # atno 6908 bound_to 6896
  151.0959  134.9956  159.8481 H   0  0  0  0  0  0  0  0  0  0  0  0  # atno 6909 bound_to 6896
  144.8558  139.6083  143.5953 H   0  0  0  0  0  0  0  0  0  0  0  0  # atno 7974 bound_to 7965
  156.2511  140.1956  156.6704 H   0  0  0  0  0  0  0  0  0  0  0  0  # atno 8008 bound_to 7997
  154.6397  140.0585  156.9856 H   0  0  0  0  0  0  0  0  0  0  0  0  # atno 8009 bound_to 7997
  155.1582  140.3257  155.4419 H   0  0  0  0  0  0  0  0  0  0  0  0  # atno 8010 bound_to 7997
  140.4251  143.2569  151.8836 H   0  0  0  0  0  0  0  0  0  0  0  0  # atno 10167 bound_to 10162
  157.2690  131.0813  151.1613 H   0  0  0  0  0  0  0  0  0  0  0  0  # atno 10718 bound_to 10713
  154.4359  135.5952  153.6098 H   0  0  0  0  0  0  0  0  0  0  0  0  # atno 10763 bound_to 10752
  152.9802  135.5986  154.3782 H   0  0  0  0  0  0  0  0  0  0  0  0  # atno 10764 bound_to 10752
  154.3626  135.2841  155.2290 H   0  0  0  0  0  0  0  0  0  0  0  0  # atno 10765 bound_to 10752
  139.9074  134.8049  156.2134 H   0  0  0  0  0  0  0  0  0  0  0  0  # atno 11005 bound_to 11000
  146.2821  139.6906  142.9221 LP  0  0  0  0  0  0  0  0  0  0  0  0  # atno 17320 bound_to 7965
  145.4410  141.0422  143.2857 LP  0  0  0  0  0  0  0  0  0  0  0  0  # atno 17321 bound_to 7965
  139.4783  144.5395  151.8549 LP  0  0  0  0  0  0  0  0  0  0  0  0  # atno 17342 bound_to 10162
  140.4490  144.1881  150.5896 LP  0  0  0  0  0  0  0  0  0  0  0  0  # atno 17343 bound_to 10162
  157.3092  130.6881  149.6206 LP  0  0  0  0  0  0  0  0  0  0  0  0  # atno 17370 bound_to 10713
  155.9663  130.4368  150.5151 LP  0  0  0  0  0  0  0  0  0  0  0  0  # atno 17371 bound_to 10713
  141.0451  133.6917  156.1668 LP  0  0  0  0  0  0  0  0  0  0  0  0  # atno 17394 bound_to 11000
  140.6897  134.4679  157.5589 LP  0  0  0  0  0  0  0  0  0  0  0  0  # atno 17395 bound_to 11000

$$$$
