AV-unprocessed.smi:3328|AV-procd|sdf|12792|dock8
  -GOLD-   2272019143D 1   1.00000     0.00000
 Structure written by MMmdl.
 41 42  0  0  0  0  0  0  0  0  2 V2000
  151.9281  145.5298  160.0139 C   0  0  0  0  0  0  0  0  0  0  0  0
  151.6052  144.1912  159.4149 C   0  0  0  0  0  0  0  0  0  0  0  0
  152.2522  142.9460  159.6560 C   0  0  0  0  0  0  0  0  0  0  0  0
  151.7199  141.9487  158.9684 N   0  0  0  0  0  0  0  0  0  0  0  0
  150.7217  142.5208  158.2621 N   0  0  0  0  0  0  0  0  0  0  0  0
  149.9003  141.7074  157.3827 C   0  0  0  0  0  0  0  0  0  0  0  0
  150.4539  141.6567  155.9450 C   0  0  1  0  0  0  0  0  0  0  0  0
  150.8661  140.2236  155.5700 C   0  0  0  0  0  0  0  0  0  0  0  0
  149.4519  142.1878  154.9922 N   0  3  0  0  0  0  0  0  0  0  0  0
  148.2029  141.4074  154.8835 C   0  0  0  0  0  0  0  0  0  0  0  0
  147.2336  142.0676  153.8915 C   0  0  0  0  0  0  0  0  0  0  0  0
  146.1895  142.8190  154.5820 N   0  0  0  0  0  0  0  0  0  0  0  0
  145.8452  142.5208  155.9620 C   0  0  0  0  0  0  0  0  0  0  0  0
  144.8826  143.6413  156.3808 C   0  0  0  0  0  0  0  0  0  0  0  0
  144.4357  144.3128  155.0776 C   0  0  0  0  0  0  0  0  0  0  0  0
  145.4293  143.7862  154.0558 C   0  0  0  0  0  0  0  0  0  0  0  0
  145.4982  144.2159  152.9052 O   0  0  0  0  0  0  0  0  0  0  0  0
  150.6293  143.8734  158.5131 C   0  0  0  0  0  0  0  0  0  0  0  0
  152.7968  145.4811  160.6710 H   0  0  0  0  0  0  0  0  0  0  0  0
  151.0988  145.9157  160.6069 H   0  0  0  0  0  0  0  0  0  0  0  0
  152.1484  146.2717  159.2463 H   0  0  0  0  0  0  0  0  0  0  0  0
  153.0872  142.7384  160.3090 H   0  0  0  0  0  0  0  0  0  0  0  0
  149.8567  140.7018  157.8036 H   0  0  0  0  0  0  0  0  0  0  0  0
  148.8788  142.0912  157.3920 H   0  0  0  0  0  0  0  0  0  0  0  0
  151.3396  142.2930  155.9062 H   0  0  0  0  0  0  0  0  0  0  0  0
  151.5848  139.8246  156.2866 H   0  0  0  0  0  0  0  0  0  0  0  0
  151.3372  140.1810  154.5882 H   0  0  0  0  0  0  0  0  0  0  0  0
  150.0058  139.5538  155.5577 H   0  0  0  0  0  0  0  0  0  0  0  0
  149.2314  143.1415  155.2418 H   0  0  0  0  0  0  0  0  0  0  0  0
  148.4356  140.3955  154.5486 H   0  0  0  0  0  0  0  0  0  0  0  0
  147.7388  141.3256  155.8664 H   0  0  0  0  0  0  0  0  0  0  0  0
  147.7757  142.7370  153.2212 H   0  0  0  0  0  0  0  0  0  0  0  0
  146.7719  141.3072  153.2597 H   0  0  0  0  0  0  0  0  0  0  0  0
  145.3556  141.5471  156.0086 H   0  0  0  0  0  0  0  0  0  0  0  0
  146.7316  142.4902  156.5967 H   0  0  0  0  0  0  0  0  0  0  0  0
  144.0390  143.2566  156.9544 H   0  0  0  0  0  0  0  0  0  0  0  0
  145.4023  144.3660  157.0094 H   0  0  0  0  0  0  0  0  0  0  0  0
  143.4285  144.0037  154.7962 H   0  0  0  0  0  0  0  0  0  0  0  0
  144.4644  145.4010  155.1417 H   0  0  0  0  0  0  0  0  0  0  0  0
  149.8836  144.4924  158.0357 H   0  0  0  0  0  0  0  0  0  0  0  0
  149.8833  142.1914  154.0784 H   0  0  0  0  0  0  0  0  0  0  0  0
  1  2  1  0  0  0  0
  1 19  1  0  0  0  0
  1 20  1  0  0  0  0
  1 21  1  0  0  0  0
  2 18  2  0  0  0  0
  2  3  1  0  0  0  0
  3  4  2  0  0  0  0
  3 22  1  0  0  0  0
  4  5  1  0  0  0  0
  5  6  1  0  0  0  0
  5 18  1  0  0  0  0
  6  7  1  0  0  0  0
  6 23  1  0  0  0  0
  6 24  1  0  0  0  0
  7  8  1  0  0  0  0
  7  9  1  0  0  0  0
  7 25  1  0  0  0  0
  8 26  1  0  0  0  0
  8 27  1  0  0  0  0
  8 28  1  0  0  0  0
  9 10  1  0  0  0  0
  9 29  1  0  0  0  0
  9 41  1  0  0  0  0
 10 11  1  0  0  0  0
 10 30  1  0  0  0  0
 10 31  1  0  0  0  0
 11 12  1  0  0  0  0
 11 32  1  0  0  0  0
 11 33  1  0  0  0  0
 12 16  1  0  0  0  0
 12 13  1  0  0  0  0
 13 14  1  0  0  0  0
 13 34  1  0  0  0  0
 13 35  1  0  0  0  0
 14 15  1  0  0  0  0
 14 36  1  0  0  0  0
 14 37  1  0  0  0  0
 15 16  1  0  0  0  0
 15 38  1  0  0  0  0
 15 39  1  0  0  0  0
 16 17  2  0  0  0  0
 18 40  1  0  0  0  0
M  CHG  1   9   1
M  END
> <s_m_source_file>
AV-unprocessed.smi

> <i_m_source_file_index>
3328

> <i_lp_mmshare_version>
43012

> <i_f3d_flags>
0

> <s_epik_input>
W0NIM11jMVtjSF1ubihbY0hdMSlbQ0gyXVtDQEhdKFtDSDNdKVtOSF1bQ0gyXVtDSDJdTjJbQ0gyXVtDSDJdW0NIMl1DMj1P

> <s_epik_cmdline>
J2VwaWtfcHl0aG9uJywgJy1waCcsICc3LjAnLCAnLXRuJywgJzgnLCAnLW1hJywgJzIwMCcsICctbWV0YWxfYmluZGluZycsICctaW1hZScsICc8aW5maWxlLm1hZT4nLCAnLW9tYWUnLCAnPG91dGZpbGUubWFlPic=

> <r_lp_tautomer_probability>
1

> <r_epik_Ionization_Penalty>
0.00826719

> <r_epik_Ionization_Penalty_Charging>
0.00825899

> <r_epik_Ionization_Penalty_Neutral>
8.19932e-06

> <r_epik_State_Penalty>
0.00621436

> <r_epik_Charging_Adjusted_Penalty>
0.0144734

> <i_epik_Tot_Q>
1

> <i_epik_Tot_abs_Q>
1

> <r_epik_Metal_State_Penalty>
0.00621509

> <b_epik_Metal_Only>
0

> <s_lp_Force_Field>
OPLS_2005

> <r_lp_Energy>
19.1629

> <b_lp_Chiralities_Consistent>
1

> <s_lp_Variant>
AV-unprocessed.smi:3328-2

> <Gold.Version>
5.8.1

> <Gold.Id.Protein>
6NUR|6NUR_protein|mol2

> <Gold.PLP.Fitness>
48.7199

> <Gold.PLP.PLP>
-42.4882

> <Gold.PLP.part.hbond>
-1.5120

> <Gold.PLP.part.metal>
0.0000

> <Gold.PLP.part.buried>
-6.7287

> <Gold.PLP.part.nonpolar>
-34.7889

> <Gold.PLP.part.repulsive>
0.4450

> <Gold.PLP.ligand.clash>
0.0000

> <Gold.PLP.ligand.torsion>
1.7123

> <Gold.PLP.Chemscore.Hbond>
2.0000

> <Gold.PLP.Chemscore.CHOScore>
1.1888

> <Gold.PLP.Chemscore.Metal>
0.0000

> <Gold.Chemscore.Hbonds>
donor molecule, donor type, donor heavy atom, donor atom, acceptor molecule, acceptor atom, score
      L1  H     9    29       P1  8028  2.00
      L1  C    18    40       P1  8028  0.60
      L1  C    18    40       P1  8029  0.55

> <Gold.PLP.Chemscore.Internal.Correction>
0.0897

> <Gold.Rescore>
     Score         DG    S(hbond)    S(metal)    S(lipo)     H(rot)  DE(clash)    DE(int)     intcor
     12.91     -14.33       1.00        0.00      90.29       1.97       0.07       1.35       ----

> <Gold.Chemscore.Fitness>
12.9060

> <Gold.Chemscore.DG>
-14.3316

> <Gold.Chemscore.ZeroCoef>
-5.4800

> <Gold.Chemscore.Hbond>
0.9983

> <Gold.Chemscore.Metal>
0.0000

> <Gold.Chemscore.Lipo>
90.2919

> <Gold.Chemscore.Internal_Hbond>
0.0000

> <Gold.Chemscore.DEClash>
0.0749

> <Gold.Chemscore.DEInternal>
1.3507

> <Gold.Chemscore.Rot>
1.9714

> <Gold.Chemscore.Internal.Correction>
   9.000000E+99

> <Gold.Chemscore.Hbonds>
donor molecule, donor type, donor heavy atom, donor atom, acceptor molecule, acceptor atom, score
      L1  H     9    29       P1  8028  1.00

> <Gold.Chemscore.Hbond.Weighted>
-3.3342

> <Gold.Chemscore.Metal.Weighted>
-0.0000

> <Gold.Chemscore.Lipo.Weighted>
-10.5642

> <Gold.Chemscore.Internal_Hbond.Weighted>
0.0000

> <Gold.Chemscore.DEClash.Weighted>
0.0749

> <Gold.Chemscore.DEInternal.Weighted>
1.3507

> <Gold.Chemscore.Rot.Weighted>
5.0468

> <Gold.Chemscore.Internal.Correction.Weighted>
   9.000000E+99

> <Gold.Protein.RotatedTorsions>
[ 6907 6896 6895 6894 ] final  -24.20 input  -60.11 | X-H torsion
[ 7974 7965 7964 7962 ] final -165.64 input  175.53 | X-H torsion
[ 8008 7997 7996 7995 ] final -113.04 input   59.86 | X-H torsion
[ 10167 10162 10161 10158 ] final   99.82 input  -65.29 | X-H torsion
[ 10718 10713 10712 10709 ] final   74.30 input   66.30 | X-H torsion
[ 10763 10752 10751 10750 ] final   68.35 input  -60.55 | X-H torsion
[ 11005 11000 10999 10996 ] final   64.83 input  -57.11 | X-H torsion

> <Gold.Protein.ActiveResidues>
 VAL166  LYS551  ARG553  GLY616  TRP617  ASP618  TYR619  PRO620  LYS621  CYS622 
 ASP623  PHE694  ASN695  SER759  ASP760  ASP761  ALA762  ILE779  LEU786  VAL792 
 PHE793  MET794  SER795  GLU796  ALA797  LYS798  CYS799  TRP800  GLU811  SER814 

> <Gold.Protein.RotatedAtoms>
  151.1930  135.0410  159.8840 H   0  0  0  0  0  0  0  0  0  0  0  0  # atno 6907 bound_to 6896
  152.5438  134.0934  159.8297 H   0  0  0  0  0  0  0  0  0  0  0  0  # atno 6908 bound_to 6896
  151.1065  133.5157  159.2639 H   0  0  0  0  0  0  0  0  0  0  0  0  # atno 6909 bound_to 6896
  144.7265  140.2783  143.6240 H   0  0  0  0  0  0  0  0  0  0  0  0  # atno 7974 bound_to 7965
  155.0146  140.0393  157.2413 H   0  0  0  0  0  0  0  0  0  0  0  0  # atno 8008 bound_to 7997
  154.7430  140.2752  155.6333 H   0  0  0  0  0  0  0  0  0  0  0  0  # atno 8009 bound_to 7997
  156.2868  140.2661  156.2163 H   0  0  0  0  0  0  0  0  0  0  0  0  # atno 8010 bound_to 7997
  139.7583  144.6962  151.0330 H   0  0  0  0  0  0  0  0  0  0  0  0  # atno 10167 bound_to 10162
  157.6586  130.9671  150.1192 H   0  0  0  0  0  0  0  0  0  0  0  0  # atno 10718 bound_to 10713
  153.0231  135.5250  154.7121 H   0  0  0  0  0  0  0  0  0  0  0  0  # atno 10763 bound_to 10752
  154.6200  135.2888  155.0338 H   0  0  0  0  0  0  0  0  0  0  0  0  # atno 10764 bound_to 10752
  154.1328  135.6590  153.4978 H   0  0  0  0  0  0  0  0  0  0  0  0  # atno 10765 bound_to 10752
  139.9933  134.6557  156.0053 H   0  0  0  0  0  0  0  0  0  0  0  0  # atno 11005 bound_to 11000
  145.7974  139.1951  143.2067 LP  0  0  0  0  0  0  0  0  0  0  0  0  # atno 17320 bound_to 7965
  146.0705  140.7874  142.9690 LP  0  0  0  0  0  0  0  0  0  0  0  0  # atno 17321 bound_to 7965
  140.7805  143.4727  151.0124 LP  0  0  0  0  0  0  0  0  0  0  0  0  # atno 17342 bound_to 10162
  139.8414  143.7559  152.3180 LP  0  0  0  0  0  0  0  0  0  0  0  0  # atno 17343 bound_to 10162
  156.2068  130.3664  149.8720 LP  0  0  0  0  0  0  0  0  0  0  0  0  # atno 17370 bound_to 10713
  156.6609  130.8781  151.3547 LP  0  0  0  0  0  0  0  0  0  0  0  0  # atno 17371 bound_to 10713
  141.1584  133.6541  156.4236 LP  0  0  0  0  0  0  0  0  0  0  0  0  # atno 17394 bound_to 11000
  140.4866  134.6614  157.5193 LP  0  0  0  0  0  0  0  0  0  0  0  0  # atno 17395 bound_to 11000

$$$$
