AV-unprocessed.smi:1598|AV-procd|sdf|6421|dock6
  -GOLD-   22720 7 63D 1   1.00000     0.00000
 Structure written by MMmdl.
 39 39  0  0  0  0  0  0  0  0  1 V2000
  143.7303  132.6264  148.3217 C   0  0  0  0  0  0  0  0  0  0  0  0
  143.9224  133.5874  149.3441 O   0  0  0  0  0  0  0  0  0  0  0  0
  144.5841  133.0502  150.4793 C   0  0  0  0  0  0  0  0  0  0  0  0
  144.0015  133.6650  151.7645 C   0  0  2  0  0  0  0  0  0  0  0  0
  144.0827  135.1977  151.7670 C   0  0  0  0  0  0  0  0  0  0  0  0
  144.6885  133.1368  152.9376 N   0  0  0  0  0  0  0  0  0  0  0  0
  146.0045  133.2329  153.1924 C   0  0  0  0  0  0  0  0  0  0  0  0
  146.7966  133.7693  152.4188 O   0  0  0  0  0  0  0  0  0  0  0  0
  146.5286  132.6587  154.5227 C   0  0  0  0  0  0  0  0  0  0  0  0
  147.9879  132.8283  154.7528 N   0  0  0  0  0  0  0  0  0  0  0  0
  148.8166  131.6818  154.9667 C   0  0  0  0  0  0  0  0  0  0  0  0
  148.1915  130.2794  154.9292 C   0  0  0  0  0  0  0  0  0  0  0  0
  149.1162  129.3350  155.1086 F   0  0  0  0  0  0  0  0  0  0  0  0
  147.2960  130.1335  155.9063 F   0  0  0  0  0  0  0  0  0  0  0  0
  147.6099  130.0214  153.7582 F   0  0  0  0  0  0  0  0  0  0  0  0
  150.1375  131.8398  155.1705 C   0  0  0  0  0  0  0  0  0  0  0  0
  150.7156  133.1552  155.1814 C   0  0  0  0  0  0  0  0  0  0  0  0
  149.9469  134.2495  154.9800 C   0  0  0  0  0  0  0  0  0  0  0  0
  150.4975  135.6243  154.9790 C   0  0  0  0  0  0  0  0  0  0  0  0
  149.7864  136.5014  154.2594 N   0  0  0  0  0  0  0  0  0  0  0  0
  151.5091  136.0182  155.5593 O   0  0  0  0  0  0  0  0  0  0  0  0
  148.4862  134.1128  154.7461 C   0  0  0  0  0  0  0  0  0  0  0  0
  147.7305  135.0678  154.5427 O   0  0  0  0  0  0  0  0  0  0  0  0
  143.2296  133.0910  147.4724 H   0  0  0  0  0  0  0  0  0  0  0  0
  143.1087  131.8004  148.6695 H   0  0  0  0  0  0  0  0  0  0  0  0
  144.6830  132.2257  147.9729 H   0  0  0  0  0  0  0  0  0  0  0  0
  144.4695  131.9653  150.4993 H   0  0  0  0  0  0  0  0  0  0  0  0
  145.6536  133.2581  150.4176 H   0  0  0  0  0  0  0  0  0  0  0  0
  142.9457  133.3958  151.8243 H   0  0  0  0  0  0  0  0  0  0  0  0
  143.5604  135.6189  150.9078 H   0  0  0  0  0  0  0  0  0  0  0  0
  145.1162  135.5436  151.7305 H   0  0  0  0  0  0  0  0  0  0  0  0
  143.6257  135.6123  152.6662 H   0  0  0  0  0  0  0  0  0  0  0  0
  144.1088  132.6850  153.6298 H   0  0  0  0  0  0  0  0  0  0  0  0
  145.9578  133.1206  155.3303 H   0  0  0  0  0  0  0  0  0  0  0  0
  146.2162  131.6207  154.5842 H   0  0  0  0  0  0  0  0  0  0  0  0
  150.7832  130.9886  155.3264 H   0  0  0  0  0  0  0  0  0  0  0  0
  151.7791  133.2241  155.3554 H   0  0  0  0  0  0  0  0  0  0  0  0
  150.0840  137.4640  154.1955 H   0  0  0  0  0  0  0  0  0  0  0  0
  148.9533  136.1932  153.7793 H   0  0  0  0  0  0  0  0  0  0  0  0
  1  2  1  0  0  0  0
  1 24  1  0  0  0  0
  1 25  1  0  0  0  0
  1 26  1  0  0  0  0
  2  3  1  0  0  0  0
  3  4  1  0  0  0  0
  3 27  1  0  0  0  0
  3 28  1  0  0  0  0
  4  5  1  0  0  0  0
  4  6  1  0  0  0  0
  4 29  1  0  0  0  0
  5 30  1  0  0  0  0
  5 31  1  0  0  0  0
  5 32  1  0  0  0  0
  6  7  1  0  0  0  0
  6 33  1  0  0  0  0
  7  8  2  0  0  0  0
  7  9  1  0  0  0  0
  9 10  1  0  0  0  0
  9 34  1  0  0  0  0
  9 35  1  0  0  0  0
 10 22  1  0  0  0  0
 10 11  1  0  0  0  0
 11 12  1  0  0  0  0
 11 16  2  0  0  0  0
 12 13  1  0  0  0  0
 12 14  1  0  0  0  0
 12 15  1  0  0  0  0
 16 17  1  0  0  0  0
 16 36  1  0  0  0  0
 17 18  2  0  0  0  0
 17 37  1  0  0  0  0
 18 19  1  0  0  0  0
 18 22  1  0  0  0  0
 19 20  1  0  0  0  0
 19 21  2  0  0  0  0
 20 38  1  0  0  0  0
 20 39  1  0  0  0  0
 22 23  2  0  0  0  0
M  END
> <s_m_source_file>
AV-unprocessed.smi

> <i_m_source_file_index>
1598

> <i_lp_mmshare_version>
43012

> <i_f3d_flags>
0

> <s_epik_input>
W0NIM11PW0NIMl1bQ0BIXShbQ0gzXSlbTkhdQyg9TylbQ0gyXW4xYyhDKEYpKEYpRilbY0hdW2NIXWMoYzE9TylDKD1PKVtOSDJd

> <s_epik_cmdline>
J2VwaWtfcHl0aG9uJywgJy1waCcsICc3LjAnLCAnLXRuJywgJzgnLCAnLW1hJywgJzIwMCcsICctbWV0YWxfYmluZGluZycsICctaW1hZScsICc8aW5maWxlLm1hZT4nLCAnLW9tYWUnLCAnPG91dGZpbGUubWFlPic=

> <r_lp_tautomer_probability>
1

> <r_epik_Ionization_Penalty>
2.07884e-06

> <r_epik_Ionization_Penalty_Charging>
8.00383e-10

> <r_epik_Ionization_Penalty_Neutral>
2.07804e-06

> <r_epik_State_Penalty>
-0

> <r_epik_Charging_Adjusted_Penalty>
8.00383e-10

> <i_epik_Tot_Q>
0

> <i_epik_Tot_abs_Q>
0

> <r_epik_Metal_State_Penalty>
-0

> <b_epik_Metal_Only>
0

> <s_lp_Force_Field>
OPLS_2005

> <r_lp_Energy>
25.9184

> <b_lp_Chiralities_Consistent>
1

> <s_lp_Variant>
AV-unprocessed.smi:1598-1

> <Gold.Version>
5.8.1

> <Gold.Id.Protein>
6NUR|6NUR_protein|mol2

> <Gold.PLP.Fitness>
34.5917

> <Gold.PLP.PLP>
-28.5636

> <Gold.PLP.part.hbond>
-3.1450

> <Gold.PLP.part.metal>
0.0000

> <Gold.PLP.part.buried>
-5.3339

> <Gold.PLP.part.nonpolar>
-21.3138

> <Gold.PLP.part.repulsive>
1.8001

> <Gold.PLP.ligand.clash>
3.8795

> <Gold.PLP.ligand.torsion>
0.5764

> <Gold.PLP.Chemscore.Hbond>
2.3402

> <Gold.PLP.Chemscore.CHOScore>
0.0000

> <Gold.PLP.Chemscore.Metal>
0.0000

> <Gold.Chemscore.Hbonds>
donor molecule, donor type, donor heavy atom, donor atom, acceptor molecule, acceptor atom, score
      L1  H     6    33       P1 10957  0.94
      L1  H    20    39       P1  7948  0.34
      P1  H 10752 10765       L1    21  1.00

> <Gold.PLP.Chemscore.Internal.Correction>
4.0399

> <Gold.Rescore>
     Score         DG    S(hbond)    S(metal)    S(lipo)     H(rot)  DE(clash)    DE(int)     intcor
      3.31     -12.26       1.95        0.00      55.42       2.43       0.29       8.66       ----

> <Gold.Chemscore.Fitness>
3.3091

> <Gold.Chemscore.DG>
-12.2631

> <Gold.Chemscore.ZeroCoef>
-5.4800

> <Gold.Chemscore.Hbond>
1.9512

> <Gold.Chemscore.Metal>
0.0000

> <Gold.Chemscore.Lipo>
55.4200

> <Gold.Chemscore.Internal_Hbond>
0.0000

> <Gold.Chemscore.DEClash>
0.2915

> <Gold.Chemscore.DEInternal>
8.6625

> <Gold.Chemscore.Rot>
2.4289

> <Gold.Chemscore.Internal.Correction>
   9.000000E+99

> <Gold.Chemscore.Hbonds>
donor molecule, donor type, donor heavy atom, donor atom, acceptor molecule, acceptor atom, score
      L1  H     6    33       P1 10957  0.54
      L1  H    20    39       P1  7948  0.34
      P1  H 10752 10765       L1    21  0.88

> <Gold.Chemscore.Hbond.Weighted>
-6.5169

> <Gold.Chemscore.Metal.Weighted>
-0.0000

> <Gold.Chemscore.Lipo.Weighted>
-6.4841

> <Gold.Chemscore.Internal_Hbond.Weighted>
0.0000

> <Gold.Chemscore.DEClash.Weighted>
0.2915

> <Gold.Chemscore.DEInternal.Weighted>
8.6625

> <Gold.Chemscore.Rot.Weighted>
6.2180

> <Gold.Chemscore.Internal.Correction.Weighted>
   9.000000E+99

> <Gold.Protein.RotatedTorsions>
[ 6907 6896 6895 6894 ] final  104.76 input  -60.11 | X-H torsion
[ 7974 7965 7964 7962 ] final  168.60 input  175.53 | X-H torsion
[ 8008 7997 7996 7995 ] final   74.49 input   59.86 | X-H torsion
[ 10167 10162 10161 10158 ] final  118.68 input  -65.29 | X-H torsion
[ 10718 10713 10712 10709 ] final  -48.88 input   66.30 | X-H torsion
[ 10763 10752 10751 10750 ] final -167.34 input  -60.55 | X-H torsion
[ 11005 11000 10999 10996 ] final  101.90 input  -57.11 | X-H torsion

> <Gold.Protein.ActiveResidues>
 VAL166  LYS551  ARG553  GLY616  TRP617  ASP618  TYR619  PRO620  LYS621  CYS622 
 ASP623  PHE694  ASN695  SER759  ASP760  ASP761  ALA762  ILE779  LEU786  VAL792 
 PHE793  MET794  SER795  GLU796  ALA797  LYS798  CYS799  TRP800  GLU811  SER814 

> <Gold.Protein.RotatedAtoms>
  152.5253  133.9629  159.7725 H   0  0  0  0  0  0  0  0  0  0  0  0  # atno 6907 bound_to 6896
  150.9916  133.6136  159.2714 H   0  0  0  0  0  0  0  0  0  0  0  0  # atno 6908 bound_to 6896
  151.3277  135.0840  159.9381 H   0  0  0  0  0  0  0  0  0  0  0  0  # atno 6909 bound_to 6896
  144.7383  139.8931  143.6404 H   0  0  0  0  0  0  0  0  0  0  0  0  # atno 7974 bound_to 7965
  155.7991  140.3477  155.5392 H   0  0  0  0  0  0  0  0  0  0  0  0  # atno 8008 bound_to 7997
  155.8556  140.0963  157.1667 H   0  0  0  0  0  0  0  0  0  0  0  0  # atno 8009 bound_to 7997
  154.4009  140.1368  156.3885 H   0  0  0  0  0  0  0  0  0  0  0  0  # atno 8010 bound_to 7997
  139.6096  144.7078  151.2875 H   0  0  0  0  0  0  0  0  0  0  0  0  # atno 10167 bound_to 10162
  156.1945  130.4154  149.9325 H   0  0  0  0  0  0  0  0  0  0  0  0  # atno 10718 bound_to 10713
  154.6741  135.2944  154.9702 H   0  0  0  0  0  0  0  0  0  0  0  0  # atno 10763 bound_to 10752
  154.0719  135.6617  153.4829 H   0  0  0  0  0  0  0  0  0  0  0  0  # atno 10764 bound_to 10752
  153.0505  135.5177  154.7752 H   0  0  0  0  0  0  0  0  0  0  0  0  # atno 10765 bound_to 10752
  139.8775  134.9202  156.4976 H   0  0  0  0  0  0  0  0  0  0  0  0  # atno 11005 bound_to 11000
  146.1127  139.4134  143.0278 LP  0  0  0  0  0  0  0  0  0  0  0  0  # atno 17320 bound_to 7965
  145.7420  141.0004  143.1296 LP  0  0  0  0  0  0  0  0  0  0  0  0  # atno 17321 bound_to 7965
  140.7309  143.6866  150.7957 LP  0  0  0  0  0  0  0  0  0  0  0  0  # atno 17342 bound_to 10162
  140.0458  143.5300  152.2697 LP  0  0  0  0  0  0  0  0  0  0  0  0  # atno 17343 bound_to 10162
  156.7054  130.8949  151.3604 LP  0  0  0  0  0  0  0  0  0  0  0  0  # atno 17370 bound_to 10713
  157.6949  130.9272  150.0617 LP  0  0  0  0  0  0  0  0  0  0  0  0  # atno 17371 bound_to 10713
  140.8613  133.8058  155.9268 LP  0  0  0  0  0  0  0  0  0  0  0  0  # atno 17394 bound_to 11000
  140.9046  134.2335  157.5021 LP  0  0  0  0  0  0  0  0  0  0  0  0  # atno 17395 bound_to 11000

$$$$
