AV-unprocessed.smi:1231|AV-procd|sdf|5166|dock4
  -GOLD-   22720 4243D 1   1.00000     0.00000
 Structure written by MMmdl.
 43 44  0  0  0  0  0  0  0  0  2 V2000
  148.6716  133.1762  153.1782 C   0  0  0  0  0  0  0  0  0  0  0  0
  148.8425  133.4324  154.6862 C   0  0  1  0  0  0  0  0  0  0  0  0
  149.9366  134.4673  155.0154 C   0  0  0  0  0  0  0  0  0  0  0  0
  149.4894  135.8434  154.6938 N   0  3  2  0  0  0  0  0  0  0  0  0
  150.5454  136.8545  154.9470 C   0  0  0  0  0  0  0  0  0  0  0  0
  150.0215  138.2965  154.8042 C   0  0  0  0  0  0  0  0  0  0  0  0
  150.1605  139.0429  156.0493 N   0  0  0  0  0  0  0  0  0  0  0  0
  150.8167  140.2058  156.1735 C   0  0  0  0  0  0  0  0  0  0  0  0
  151.3712  140.7713  155.2302 O   0  0  0  0  0  0  0  0  0  0  0  0
  150.7832  140.6533  157.4409 N   0  0  0  0  0  0  0  0  0  0  0  0
  151.3451  141.8483  157.9644 C   0  0  0  0  0  0  0  0  0  0  0  0
  151.3225  142.9552  157.0858 C   0  0  0  0  0  0  0  0  0  0  0  0
  151.8554  144.1877  157.5106 C   0  0  0  0  0  0  0  0  0  0  0  0
  152.3996  144.2810  158.8039 C   0  0  0  0  0  0  0  0  0  0  0  0
  152.3845  143.1308  159.6145 C   0  0  0  0  0  0  0  0  0  0  0  0
  151.8734  141.9488  159.2097 N   0  0  0  0  0  0  0  0  0  0  0  0
  148.2098  136.1409  155.3812 C   0  0  0  0  0  0  0  0  0  0  0  0
  147.1406  135.1017  154.9992 C   0  0  2  0  0  0  0  0  0  0  0  0
  145.8271  135.3235  155.7571 C   0  0  0  0  0  0  0  0  0  0  0  0
  147.6142  133.7954  155.3163 O   0  0  0  0  0  0  0  0  0  0  0  0
  149.5901  132.7755  152.7484 H   0  0  0  0  0  0  0  0  0  0  0  0
  148.4269  134.0841  152.6277 H   0  0  0  0  0  0  0  0  0  0  0  0
  147.8799  132.4494  152.9949 H   0  0  0  0  0  0  0  0  0  0  0  0
  149.1406  132.4836  155.1331 H   0  0  0  0  0  0  0  0  0  0  0  0
  150.1831  134.4143  156.0772 H   0  0  0  0  0  0  0  0  0  0  0  0
  150.8494  134.2290  154.4677 H   0  0  0  0  0  0  0  0  0  0  0  0
  150.9820  136.6866  155.9328 H   0  0  0  0  0  0  0  0  0  0  0  0
  151.3533  136.7171  154.2263 H   0  0  0  0  0  0  0  0  0  0  0  0
  150.5832  138.8205  154.0305 H   0  0  0  0  0  0  0  0  0  0  0  0
  148.9763  138.3146  154.4942 H   0  0  0  0  0  0  0  0  0  0  0  0
  149.7346  138.6437  156.8733 H   0  0  0  0  0  0  0  0  0  0  0  0
  150.2993  140.0733  158.1102 H   0  0  0  0  0  0  0  0  0  0  0  0
  150.9001  142.8664  156.0953 H   0  0  0  0  0  0  0  0  0  0  0  0
  151.8458  145.0459  156.8550 H   0  0  0  0  0  0  0  0  0  0  0  0
  152.8172  145.2089  159.1655 H   0  0  0  0  0  0  0  0  0  0  0  0
  152.7936  143.1599  160.6135 H   0  0  0  0  0  0  0  0  0  0  0  0
  148.3677  136.1414  156.4612 H   0  0  0  0  0  0  0  0  0  0  0  0
  147.8551  137.1354  155.1122 H   0  0  0  0  0  0  0  0  0  0  0  0
  146.9295  135.1688  153.9317 H   0  0  0  0  0  0  0  0  0  0  0  0
  145.4072  136.3053  155.5371 H   0  0  0  0  0  0  0  0  0  0  0  0
  145.9767  135.2577  156.8353 H   0  0  0  0  0  0  0  0  0  0  0  0
  145.0851  134.5748  155.4777 H   0  0  0  0  0  0  0  0  0  0  0  0
  149.3061  135.8585  153.7007 H   0  0  0  0  0  0  0  0  0  0  0  0
  1  2  1  0  0  0  0
  1 21  1  0  0  0  0
  1 22  1  0  0  0  0
  1 23  1  0  0  0  0
  2 20  1  0  0  0  0
  2  3  1  0  0  0  0
  2 24  1  0  0  0  0
  3  4  1  0  0  0  0
  3 25  1  0  0  0  0
  3 26  1  0  0  0  0
  4  5  1  0  0  0  0
  4 17  1  0  0  0  0
  4 43  1  0  0  0  0
  5  6  1  0  0  0  0
  5 27  1  0  0  0  0
  5 28  1  0  0  0  0
  6  7  1  0  0  0  0
  6 29  1  0  0  0  0
  6 30  1  0  0  0  0
  7  8  1  0  0  0  0
  7 31  1  0  0  0  0
  8  9  2  0  0  0  0
  8 10  1  0  0  0  0
 10 11  1  0  0  0  0
 10 32  1  0  0  0  0
 11 16  1  0  0  0  0
 11 12  2  0  0  0  0
 12 13  1  0  0  0  0
 12 33  1  0  0  0  0
 13 14  2  0  0  0  0
 13 34  1  0  0  0  0
 14 15  1  0  0  0  0
 14 35  1  0  0  0  0
 15 16  2  0  0  0  0
 15 36  1  0  0  0  0
 17 18  1  0  0  0  0
 17 37  1  0  0  0  0
 17 38  1  0  0  0  0
 18 19  1  0  0  0  0
 18 20  1  0  0  0  0
 18 39  1  0  0  0  0
 19 40  1  0  0  0  0
 19 41  1  0  0  0  0
 19 42  1  0  0  0  0
M  CHG  1   4   1
M  END
> <s_m_source_file>
AV-unprocessed.smi

> <i_m_source_file_index>
1231

> <i_lp_mmshare_version>
43012

> <i_f3d_flags>
0

> <s_epik_input>
W0NIM11bQ0BASF0xW0NIMl1OKFtDSDJdW0NASF0oTzEpW0NIM10pW0NIMl1bQ0gyXVtOSF1DKD1PKVtOSF1jMltjSF1bY0hdW2NIXVtjSF1uMg==

> <s_epik_cmdline>
J2VwaWtfcHl0aG9uJywgJy1waCcsICc3LjAnLCAnLXRuJywgJzgnLCAnLW1hJywgJzIwMCcsICctbWV0YWxfYmluZGluZycsICctaW1hZScsICc8aW5maWxlLm1hZT4nLCAnLW9tYWUnLCAnPG91dGZpbGUubWFlPic=

> <r_epik_Ionization_Penalty>
0.602565

> <r_epik_Ionization_Penalty_Charging>
0.602531

> <r_epik_Ionization_Penalty_Neutral>
3.43186e-05

> <r_epik_State_Penalty>
0.617039

> <r_epik_Charging_Adjusted_Penalty>
1.21957

> <i_epik_Tot_Q>
1

> <i_epik_Tot_abs_Q>
1

> <r_epik_Metal_State_Penalty>
0.617041

> <b_epik_Metal_Only>
0

> <s_lp_Force_Field>
OPLS_2005

> <r_lp_Energy>
18.3102

> <b_lp_Chiralities_Consistent>
1

> <s_lp_Variant>
AV-unprocessed.smi:1231-7

> <Gold.Version>
5.8.1

> <Gold.Id.Protein>
6NUR|6NUR_protein|mol2

> <Gold.PLP.Fitness>
40.9231

> <Gold.PLP.PLP>
-33.9253

> <Gold.PLP.part.hbond>
-2.0000

> <Gold.PLP.part.metal>
0.0000

> <Gold.PLP.part.buried>
-4.2211

> <Gold.PLP.part.nonpolar>
-28.3295

> <Gold.PLP.part.repulsive>
0.1698

> <Gold.PLP.ligand.clash>
0.0000

> <Gold.PLP.ligand.torsion>
0.6898

> <Gold.PLP.Chemscore.Hbond>
2.7840

> <Gold.PLP.Chemscore.CHOScore>
0.0000

> <Gold.PLP.Chemscore.Metal>
0.0000

> <Gold.Chemscore.Hbonds>
donor molecule, donor type, donor heavy atom, donor atom, acceptor molecule, acceptor atom, score
      L1  H     4    43       P1  7948  2.00
      P1  H  7989  7998       L1     9  0.75

> <Gold.PLP.Chemscore.Internal.Correction>
0.0254

> <Gold.Rescore>
     Score         DG    S(hbond)    S(metal)    S(lipo)     H(rot)  DE(clash)    DE(int)     intcor
     14.43     -16.85       1.67        0.00      83.47       1.55       0.49       1.94       ----

> <Gold.Chemscore.Fitness>
14.4281

> <Gold.Chemscore.DG>
-16.8548

> <Gold.Chemscore.ZeroCoef>
-5.4800

> <Gold.Chemscore.Hbond>
1.6733

> <Gold.Chemscore.Metal>
0.0000

> <Gold.Chemscore.Lipo>
83.4675

> <Gold.Chemscore.Internal_Hbond>
0.0000

> <Gold.Chemscore.DEClash>
0.4898

> <Gold.Chemscore.DEInternal>
1.9370

> <Gold.Chemscore.Rot>
1.5546

> <Gold.Chemscore.Internal.Correction>
   9.000000E+99

> <Gold.Chemscore.Hbonds>
donor molecule, donor type, donor heavy atom, donor atom, acceptor molecule, acceptor atom, score
      L1  H     4    43       P1  7948  0.65
      P1  H  7989  7998       L1     9  0.74

> <Gold.Chemscore.Hbond.Weighted>
-5.5888

> <Gold.Chemscore.Metal.Weighted>
-0.0000

> <Gold.Chemscore.Lipo.Weighted>
-9.7657

> <Gold.Chemscore.Internal_Hbond.Weighted>
0.0000

> <Gold.Chemscore.DEClash.Weighted>
0.4898

> <Gold.Chemscore.DEInternal.Weighted>
1.9370

> <Gold.Chemscore.Rot.Weighted>
3.9797

> <Gold.Chemscore.Internal.Correction.Weighted>
   9.000000E+99

> <Gold.Protein.RotatedTorsions>
[ 6907 6896 6895 6894 ] final  142.50 input  -60.11 | X-H torsion
[ 7974 7965 7964 7962 ] final   49.21 input  175.53 | X-H torsion
[ 8008 7997 7996 7995 ] final   55.20 input   59.86 | X-H torsion
[ 10167 10162 10161 10158 ] final -132.63 input  -65.29 | X-H torsion
[ 10718 10713 10712 10709 ] final  101.74 input   66.30 | X-H torsion
[ 10763 10752 10751 10750 ] final -133.17 input  -60.55 | X-H torsion
[ 11005 11000 10999 10996 ] final  113.24 input  -57.11 | X-H torsion

> <Gold.Protein.ActiveResidues>
 VAL166  LYS551  ARG553  GLY616  TRP617  ASP618  TYR619  PRO620  LYS621  CYS622 
 ASP623  PHE694  ASN695  SER759  ASP760  ASP761  ALA762  ILE779  LEU786  VAL792 
 PHE793  MET794  SER795  GLU796  ALA797  LYS798  CYS799  TRP800  GLU811  SER814 

> <Gold.Protein.RotatedAtoms>
  152.2179  133.4961  159.5145 H   0  0  0  0  0  0  0  0  0  0  0  0  # atno 6907 bound_to 6896
  150.7005  134.1381  159.4103 H   0  0  0  0  0  0  0  0  0  0  0  0  # atno 6908 bound_to 6896
  151.9301  135.0260  160.0579 H   0  0  0  0  0  0  0  0  0  0  0  0  # atno 6909 bound_to 6896
  146.0130  139.4565  142.9944 H   0  0  0  0  0  0  0  0  0  0  0  0  # atno 7974 bound_to 7965
  155.4972  140.3473  155.4365 H   0  0  0  0  0  0  0  0  0  0  0  0  # atno 8008 bound_to 7997
  156.0937  140.1417  156.9586 H   0  0  0  0  0  0  0  0  0  0  0  0  # atno 8009 bound_to 7997
  154.4651  140.0921  156.6975 H   0  0  0  0  0  0  0  0  0  0  0  0  # atno 8010 bound_to 7997
  139.9066  143.6544  152.2584 H   0  0  0  0  0  0  0  0  0  0  0  0  # atno 10167 bound_to 10162
  157.6821  131.0734  150.5298 H   0  0  0  0  0  0  0  0  0  0  0  0  # atno 10718 bound_to 10713
  154.8735  135.3774  154.4529 H   0  0  0  0  0  0  0  0  0  0  0  0  # atno 10763 bound_to 10752
  153.5203  135.7029  153.5740 H   0  0  0  0  0  0  0  0  0  0  0  0  # atno 10764 bound_to 10752
  153.3989  135.3953  155.1940 H   0  0  0  0  0  0  0  0  0  0  0  0  # atno 10765 bound_to 10752
  139.8948  134.9546  156.6708 H   0  0  0  0  0  0  0  0  0  0  0  0  # atno 11005 bound_to 11000
  145.7312  141.0041  143.1351 LP  0  0  0  0  0  0  0  0  0  0  0  0  # atno 17320 bound_to 7965
  144.6960  139.8986  143.7457 LP  0  0  0  0  0  0  0  0  0  0  0  0  # atno 17321 bound_to 7965
  139.6979  144.7639  151.1325 LP  0  0  0  0  0  0  0  0  0  0  0  0  # atno 17342 bound_to 10162
  140.7695  143.5499  150.9217 LP  0  0  0  0  0  0  0  0  0  0  0  0  # atno 17343 bound_to 10162
  156.5609  130.4255  149.6063 LP  0  0  0  0  0  0  0  0  0  0  0  0  # atno 17370 bound_to 10713
  156.2822  130.7077  151.1904 LP  0  0  0  0  0  0  0  0  0  0  0  0  # atno 17371 bound_to 10713
  140.7374  133.9006  155.8254 LP  0  0  0  0  0  0  0  0  0  0  0  0  # atno 17394 bound_to 11000
  141.0105  134.1027  157.4227 LP  0  0  0  0  0  0  0  0  0  0  0  0  # atno 17395 bound_to 11000

$$$$
