AV-unprocessed.smi:1709|AV-procd|sdf|6893|dock2
  -GOLD-   22720 8 93D 1   1.00000     0.00000
 Structure written by MMmdl.
 43 45  0  0  0  0  0  0  0  0  2 V2000
  149.7706  138.6910  154.1450 C   0  0  0  0  0  0  0  0  0  0  0  0
  150.7623  138.0303  155.0900 C   0  0  0  0  0  0  0  0  0  0  0  0
  151.6582  138.8399  155.8201 C   0  0  0  0  0  0  0  0  0  0  0  0
  152.5763  138.2325  156.6931 C   0  0  0  0  0  0  0  0  0  0  0  0
  152.5592  136.8319  156.7993 C   0  0  0  0  0  0  0  0  0  0  0  0
  151.7071  136.0510  156.1042 N   0  0  0  0  0  0  0  0  0  0  0  0
  150.8110  136.6195  155.2563 C   0  0  0  0  0  0  0  0  0  0  0  0
  149.8762  135.8700  154.4760 N   0  0  0  0  0  0  0  0  0  0  0  0
  149.2349  134.7052  154.7110 C   0  0  0  0  0  0  0  0  0  0  0  0
  149.4071  134.0874  155.7604 O   0  0  0  0  0  0  0  0  0  0  0  0
  148.4075  134.2742  153.7452 N   0  0  0  0  0  0  0  0  0  0  0  0
  147.5852  133.0707  153.8039 C   0  0  2  0  0  0  0  0  0  0  0  0
  148.4114  131.7907  154.0205 C   0  0  0  0  0  0  0  0  0  0  0  0
  147.7314  130.7132  153.1527 C   0  0  0  0  0  0  0  0  0  0  0  0
  146.5397  131.3674  152.5791 N   0  3  2  0  0  0  0  0  0  0  0  0
  146.0064  130.8103  151.3169 C   0  0  0  0  0  0  0  0  0  0  0  0
  144.7231  131.5715  150.9276 C   0  0  0  0  0  0  0  0  0  0  0  0
  144.9534  133.0961  150.8808 C   0  0  0  0  0  0  0  0  0  0  0  0
  145.5962  133.6023  152.1867 C   0  0  0  0  0  0  0  0  0  0  0  0
  146.8730  132.7960  152.4778 C   0  0  1  0  0  0  0  0  0  0  0  0
  149.8964  139.7740  154.1302 H   0  0  0  0  0  0  0  0  0  0  0  0
  148.7474  138.4769  154.4549 H   0  0  0  0  0  0  0  0  0  0  0  0
  149.9092  138.3250  153.1271 H   0  0  0  0  0  0  0  0  0  0  0  0
  151.6446  139.9149  155.7140 H   0  0  0  0  0  0  0  0  0  0  0  0
  153.2749  138.8247  157.2654 H   0  0  0  0  0  0  0  0  0  0  0  0
  153.2477  136.3236  157.4583 H   0  0  0  0  0  0  0  0  0  0  0  0
  149.6965  136.2625  153.5633 H   0  0  0  0  0  0  0  0  0  0  0  0
  148.3281  134.8429  152.9134 H   0  0  0  0  0  0  0  0  0  0  0  0
  146.8482  133.1439  154.6066 H   0  0  0  0  0  0  0  0  0  0  0  0
  149.4451  131.9241  153.6976 H   0  0  0  0  0  0  0  0  0  0  0  0
  148.4320  131.5101  155.0741 H   0  0  0  0  0  0  0  0  0  0  0  0
  148.4059  130.3949  152.3562 H   0  0  0  0  0  0  0  0  0  0  0  0
  147.4484  129.8321  153.7294 H   0  0  0  0  0  0  0  0  0  0  0  0
  146.7547  130.8942  150.5274 H   0  0  0  0  0  0  0  0  0  0  0  0
  145.7903  129.7494  151.4469 H   0  0  0  0  0  0  0  0  0  0  0  0
  144.3576  131.2189  149.9625 H   0  0  0  0  0  0  0  0  0  0  0  0
  143.9389  131.3497  151.6526 H   0  0  0  0  0  0  0  0  0  0  0  0
  145.6042  133.3384  150.0396 H   0  0  0  0  0  0  0  0  0  0  0  0
  144.0106  133.6135  150.7008 H   0  0  0  0  0  0  0  0  0  0  0  0
  145.8283  134.6639  152.0991 H   0  0  0  0  0  0  0  0  0  0  0  0
  144.8906  133.5024  153.0127 H   0  0  0  0  0  0  0  0  0  0  0  0
  147.5818  132.9300  151.6568 H   0  0  0  0  0  0  0  0  0  0  0  0
  145.8098  131.2948  153.2734 H   0  0  0  0  0  0  0  0  0  0  0  0
  1  2  1  0  0  0  0
  1 21  1  0  0  0  0
  1 22  1  0  0  0  0
  1 23  1  0  0  0  0
  2  7  1  0  0  0  0
  2  3  2  0  0  0  0
  3  4  1  0  0  0  0
  3 24  1  0  0  0  0
  4  5  2  0  0  0  0
  4 25  1  0  0  0  0
  5  6  1  0  0  0  0
  5 26  1  0  0  0  0
  6  7  2  0  0  0  0
  7  8  1  0  0  0  0
  8  9  1  0  0  0  0
  8 27  1  0  0  0  0
  9 10  2  0  0  0  0
  9 11  1  0  0  0  0
 11 12  1  0  0  0  0
 11 28  1  0  0  0  0
 12 20  1  0  0  0  0
 12 13  1  0  0  0  0
 12 29  1  0  0  0  0
 13 14  1  0  0  0  0
 13 30  1  0  0  0  0
 13 31  1  0  0  0  0
 14 15  1  0  0  0  0
 14 32  1  0  0  0  0
 14 33  1  0  0  0  0
 15 20  1  0  0  0  0
 15 16  1  0  0  0  0
 15 43  1  0  0  0  0
 16 17  1  0  0  0  0
 16 34  1  0  0  0  0
 16 35  1  0  0  0  0
 17 18  1  0  0  0  0
 17 36  1  0  0  0  0
 17 37  1  0  0  0  0
 18 19  1  0  0  0  0
 18 38  1  0  0  0  0
 18 39  1  0  0  0  0
 19 20  1  0  0  0  0
 19 40  1  0  0  0  0
 19 41  1  0  0  0  0
 20 42  1  0  0  0  0
M  CHG  1  15   1
M  END
> <s_m_source_file>
AV-unprocessed.smi

> <i_m_source_file_index>
1709

> <i_lp_mmshare_version>
43012

> <i_f3d_flags>
0

> <s_epik_input>
W0NIM11jMVtjSF1bY0hdW2NIXW5jMVtOSF1DKD1PKVtOSF1bQ0BIXShbQ0gyXVtDSDJdMilbQ0BASF0oTjIzKVtDSDJdW0NIMl1bQ0gyXVtDSDJdMw==

> <s_epik_cmdline>
J2VwaWtfcHl0aG9uJywgJy1waCcsICc3LjAnLCAnLXRuJywgJzgnLCAnLW1hJywgJzIwMCcsICctbWV0YWxfYmluZGluZycsICctaW1hZScsICc8aW5maWxlLm1hZT4nLCAnLW9tYWUnLCAnPG91dGZpbGUubWFlPic=

> <r_epik_Ionization_Penalty>
0.00101524

> <r_epik_Ionization_Penalty_Charging>
0.000974069

> <r_epik_Ionization_Penalty_Neutral>
4.11757e-05

> <r_epik_State_Penalty>
0.000633842

> <r_epik_Charging_Adjusted_Penalty>
0.00160791

> <i_epik_Tot_Q>
1

> <i_epik_Tot_abs_Q>
1

> <r_epik_Metal_State_Penalty>
-0

> <b_epik_Metal_Only>
0

> <s_lp_Force_Field>
OPLS_2005

> <r_lp_Energy>
38.5282

> <b_lp_Chiralities_Consistent>
1

> <s_lp_Variant>
AV-unprocessed.smi:1709-3

> <Gold.Version>
5.8.1

> <Gold.Id.Protein>
6NUR|6NUR_protein|mol2

> <Gold.PLP.Fitness>
38.1473

> <Gold.PLP.PLP>
-30.6261

> <Gold.PLP.part.hbond>
-3.3564

> <Gold.PLP.part.metal>
0.0000

> <Gold.PLP.part.buried>
-1.3853

> <Gold.PLP.part.nonpolar>
-25.2191

> <Gold.PLP.part.repulsive>
0.0958

> <Gold.PLP.ligand.clash>
0.0000

> <Gold.PLP.ligand.torsion>
0.2301

> <Gold.PLP.Chemscore.Hbond>
2.6570

> <Gold.PLP.Chemscore.CHOScore>
0.0000

> <Gold.PLP.Chemscore.Metal>
0.0000

> <Gold.Chemscore.Hbonds>
donor molecule, donor type, donor heavy atom, donor atom, acceptor molecule, acceptor atom, score
      L1  H     8    27       P1  7948  1.00
      L1  H    11    28       P1  7948  0.99
      P1  H 10752 10765       L1     6  0.67

> <Gold.PLP.Chemscore.Internal.Correction>
0.0103

> <Gold.Rescore>
     Score         DG    S(hbond)    S(metal)    S(lipo)     H(rot)  DE(clash)    DE(int)     intcor
     16.31     -17.51       1.72        0.00      75.54       1.00       0.00       1.19       ----

> <Gold.Chemscore.Fitness>
16.3110

> <Gold.Chemscore.DG>
-17.5070

> <Gold.Chemscore.ZeroCoef>
-5.4800

> <Gold.Chemscore.Hbond>
1.7211

> <Gold.Chemscore.Metal>
0.0000

> <Gold.Chemscore.Lipo>
75.5430

> <Gold.Chemscore.Internal_Hbond>
0.0000

> <Gold.Chemscore.DEClash>
0.0015

> <Gold.Chemscore.DEInternal>
1.1946

> <Gold.Chemscore.Rot>
1.0000

> <Gold.Chemscore.Internal.Correction>
   9.000000E+99

> <Gold.Chemscore.Hbonds>
donor molecule, donor type, donor heavy atom, donor atom, acceptor molecule, acceptor atom, score
      L1  H     8    27       P1  7948  0.34
      L1  H    11    28       P1  7948  0.62
      P1  H 10752 10765       L1     6  0.02

> <Gold.Chemscore.Hbond.Weighted>
-5.7485

> <Gold.Chemscore.Metal.Weighted>
-0.0000

> <Gold.Chemscore.Lipo.Weighted>
-8.8385

> <Gold.Chemscore.Internal_Hbond.Weighted>
0.0000

> <Gold.Chemscore.DEClash.Weighted>
0.0015

> <Gold.Chemscore.DEInternal.Weighted>
1.1946

> <Gold.Chemscore.Rot.Weighted>
2.5600

> <Gold.Chemscore.Internal.Correction.Weighted>
   9.000000E+99

> <Gold.Protein.RotatedTorsions>
[ 6907 6896 6895 6894 ] final   55.62 input  -60.11 | X-H torsion
[ 7974 7965 7964 7962 ] final  160.38 input  175.53 | X-H torsion
[ 8008 7997 7996 7995 ] final   77.64 input   59.86 | X-H torsion
[ 10167 10162 10161 10158 ] final   84.30 input  -65.29 | X-H torsion
[ 10718 10713 10712 10709 ] final    0.03 input   66.30 | X-H torsion
[ 10763 10752 10751 10750 ] final -165.34 input  -60.55 | X-H torsion
[ 11005 11000 10999 10996 ] final -177.50 input  -57.11 | X-H torsion

> <Gold.Protein.ActiveResidues>
 VAL166  LYS551  ARG553  GLY616  TRP617  ASP618  TYR619  PRO620  LYS621  CYS622 
 ASP623  PHE694  ASN695  SER759  ASP760  ASP761  ALA762  ILE779  LEU786  VAL792 
 PHE793  MET794  SER795  GLU796  ALA797  LYS798  CYS799  TRP800  GLU811  SER814 

> <Gold.Protein.RotatedAtoms>
  152.3556  134.6944  160.0222 H   0  0  0  0  0  0  0  0  0  0  0  0  # atno 6907 bound_to 6896
  151.7284  133.3311  159.3342 H   0  0  0  0  0  0  0  0  0  0  0  0  # atno 6908 bound_to 6896
  150.7569  134.6319  159.6235 H   0  0  0  0  0  0  0  0  0  0  0  0  # atno 6909 bound_to 6896
  144.7740  139.7749  143.6286 H   0  0  0  0  0  0  0  0  0  0  0  0  # atno 7974 bound_to 7965
  155.8445  140.3461  155.5653 H   0  0  0  0  0  0  0  0  0  0  0  0  # atno 8008 bound_to 7997
  155.8105  140.0898  157.1926 H   0  0  0  0  0  0  0  0  0  0  0  0  # atno 8009 bound_to 7997
  154.4006  140.1449  156.3368 H   0  0  0  0  0  0  0  0  0  0  0  0  # atno 8010 bound_to 7997
  139.9095  144.6281  150.8552 H   0  0  0  0  0  0  0  0  0  0  0  0  # atno 10167 bound_to 10162
  156.8274  130.5477  149.5690 H   0  0  0  0  0  0  0  0  0  0  0  0  # atno 10718 bound_to 10713
  154.6941  135.2976  154.9437 H   0  0  0  0  0  0  0  0  0  0  0  0  # atno 10763 bound_to 10752
  154.0390  135.6660  153.4792 H   0  0  0  0  0  0  0  0  0  0  0  0  # atno 10764 bound_to 10752
  153.0633  135.5103  154.8049 H   0  0  0  0  0  0  0  0  0  0  0  0  # atno 10765 bound_to 10752
  140.4403  134.6438  157.4754 H   0  0  0  0  0  0  0  0  0  0  0  0  # atno 11005 bound_to 11000
  146.1907  139.5145  142.9807 LP  0  0  0  0  0  0  0  0  0  0  0  0  # atno 17320 bound_to 7965
  145.6240  141.0317  143.1899 LP  0  0  0  0  0  0  0  0  0  0  0  0  # atno 17321 bound_to 7965
  140.7689  143.3376  151.2275 LP  0  0  0  0  0  0  0  0  0  0  0  0  # atno 17342 bound_to 10162
  139.6955  143.9620  152.2880 LP  0  0  0  0  0  0  0  0  0  0  0  0  # atno 17343 bound_to 10162
  156.0954  130.5928  150.9804 LP  0  0  0  0  0  0  0  0  0  0  0  0  # atno 17370 bound_to 10713
  157.6425  131.0908  150.8222 LP  0  0  0  0  0  0  0  0  0  0  0  0  # atno 17371 bound_to 10713
  140.0074  134.6742  155.9433 LP  0  0  0  0  0  0  0  0  0  0  0  0  # atno 17394 bound_to 11000
  141.1708  133.6537  156.4646 LP  0  0  0  0  0  0  0  0  0  0  0  0  # atno 17395 bound_to 11000

$$$$
