AV-unprocessed.smi:481|AV-procd|sdf|2682|dock8
  -GOLD-   2262023103D 1   1.00000     0.00000
 Structure written by MMmdl.
 42 44  0  0  0  0  0  0  0  0  2 V2000
  153.3518  136.6573  165.6924 C   0  0  0  0  0  0  0  0  0  0  0  0
  153.6916  137.6101  164.7004 O   0  0  0  0  0  0  0  0  0  0  0  0
  154.9366  138.2381  164.9559 C   0  0  0  0  0  0  0  0  0  0  0  0
  155.5729  138.6437  163.6208 C   0  0  0  0  0  0  0  0  0  0  0  0
  155.8785  140.0706  163.5820 N   0  0  0  0  0  0  0  0  0  0  0  0
  155.4228  140.9876  162.6911 C   0  0  0  0  0  0  0  0  0  0  0  0
  154.5684  140.5918  161.6623 N   0  0  0  0  0  0  0  0  0  0  0  0
  154.1138  141.4692  160.7849 N   0  0  0  0  0  0  0  0  0  0  0  0
  153.4561  142.4614  161.2675 C   0  0  0  0  0  0  0  0  0  0  0  0
  152.8875  143.5171  160.4161 C   0  0  0  0  0  0  0  0  0  0  0  0
  152.2660  143.2268  159.1782 C   0  0  0  0  0  0  0  0  0  0  0  0
  151.7331  144.2641  158.3880 C   0  0  0  0  0  0  0  0  0  0  0  0
  151.8161  145.5990  158.8268 C   0  0  0  0  0  0  0  0  0  0  0  0
  152.4323  145.8959  160.0570 C   0  0  0  0  0  0  0  0  0  0  0  0
  152.9652  144.8593  160.8478 C   0  0  0  0  0  0  0  0  0  0  0  0
  155.8648  142.2328  162.8954 N   0  0  0  0  0  0  0  0  0  0  0  0
  156.6800  142.0882  164.0087 C   0  0  0  0  0  0  0  0  0  0  0  0
  156.7119  140.7978  164.4353 C   0  0  0  0  0  0  0  0  0  0  0  0
  157.5106  140.3309  165.5876 C   0  0  0  0  0  0  0  0  0  0  0  0
  157.5219  139.1451  165.9123 O   0  0  0  0  0  0  0  0  0  0  0  0
  158.1933  141.3561  166.1896 N   0  5  0  0  0  0  0  0  0  0  0  0
  158.1850  142.6784  165.7972 C   0  0  0  0  0  0  0  0  0  0  0  0
  158.8321  143.5332  166.4024 O   0  0  0  0  0  0  0  0  0  0  0  0
  157.4423  143.0608  164.7084 N   0  0  0  0  0  0  0  0  0  0  0  0
  157.3915  144.4421  164.2194 C   0  0  0  0  0  0  0  0  0  0  0  0
  152.3884  136.2072  165.4536 H   0  0  0  0  0  0  0  0  0  0  0  0
  153.2714  137.1219  166.6760 H   0  0  0  0  0  0  0  0  0  0  0  0
  154.0933  135.8588  165.7411 H   0  0  0  0  0  0  0  0  0  0  0  0
  154.7915  139.1156  165.5879 H   0  0  0  0  0  0  0  0  0  0  0  0
  155.5952  137.5518  165.4906 H   0  0  0  0  0  0  0  0  0  0  0  0
  156.4865  138.0730  163.4538 H   0  0  0  0  0  0  0  0  0  0  0  0
  154.9182  138.3918  162.7875 H   0  0  0  0  0  0  0  0  0  0  0  0
  154.3158  139.6164  161.5966 H   0  0  0  0  0  0  0  0  0  0  0  0
  153.3016  142.5436  162.3456 H   0  0  0  0  0  0  0  0  0  0  0  0
  152.1911  142.2097  158.8211 H   0  0  0  0  0  0  0  0  0  0  0  0
  151.2608  144.0339  157.4442 H   0  0  0  0  0  0  0  0  0  0  0  0
  151.4078  146.3940  158.2205 H   0  0  0  0  0  0  0  0  0  0  0  0
  152.4974  146.9197  160.3952 H   0  0  0  0  0  0  0  0  0  0  0  0
  153.4354  145.1045  161.7893 H   0  0  0  0  0  0  0  0  0  0  0  0
  157.9845  145.1485  164.8009 H   0  0  0  0  0  0  0  0  0  0  0  0
  156.3617  144.8002  164.2268 H   0  0  0  0  0  0  0  0  0  0  0  0
  157.7529  144.4839  163.1914 H   0  0  0  0  0  0  0  0  0  0  0  0
  1  2  1  0  0  0  0
  1 26  1  0  0  0  0
  1 27  1  0  0  0  0
  1 28  1  0  0  0  0
  2  3  1  0  0  0  0
  3  4  1  0  0  0  0
  3 29  1  0  0  0  0
  3 30  1  0  0  0  0
  4  5  1  0  0  0  0
  4 31  1  0  0  0  0
  4 32  1  0  0  0  0
  5 18  1  0  0  0  0
  5  6  1  0  0  0  0
  6  7  1  0  0  0  0
  6 16  2  0  0  0  0
  7  8  1  0  0  0  0
  7 33  1  0  0  0  0
  8  9  2  0  0  0  0
  9 10  1  0  0  0  0
  9 34  1  0  0  0  0
 10 15  1  0  0  0  0
 10 11  2  0  0  0  0
 11 12  1  0  0  0  0
 11 35  1  0  0  0  0
 12 13  2  0  0  0  0
 12 36  1  0  0  0  0
 13 14  1  0  0  0  0
 13 37  1  0  0  0  0
 14 15  2  0  0  0  0
 14 38  1  0  0  0  0
 15 39  1  0  0  0  0
 16 17  1  0  0  0  0
 17 24  1  0  0  0  0
 17 18  2  0  0  0  0
 18 19  1  0  0  0  0
 19 20  2  0  0  0  0
 19 21  1  0  0  0  0
 21 22  1  0  0  0  0
 22 23  2  0  0  0  0
 22 24  1  0  0  0  0
 24 25  1  0  0  0  0
 25 40  1  0  0  0  0
 25 41  1  0  0  0  0
 25 42  1  0  0  0  0
M  CHG  1  21  -1
M  END
> <s_m_source_file>
AV-unprocessed.smi

> <i_m_source_file_index>
481

> <i_lp_mmshare_version>
43012

> <i_f3d_flags>
0

> <s_epik_input>
W0NIM11uMWMoPU8pW25IXWMoPU8pYyhjMTIpbihbQ0gyXVtDSDJdT1tDSDNdKWMobjIpW05IXS9OPVtDSF0vYzNbY0hdW2NIXVtjSF1bY0hdW2NIXTM=

> <s_epik_cmdline>
J2VwaWtfcHl0aG9uJywgJy1waCcsICc3LjAnLCAnLXRuJywgJzgnLCAnLW1hJywgJzIwMCcsICctbWV0YWxfYmluZGluZycsICctaW1hZScsICc8aW5maWxlLm1hZT4nLCAnLW9tYWUnLCAnPG91dGZpbGUubWFlPic=

> <r_epik_Ionization_Penalty>
4.48471

> <r_epik_Ionization_Penalty_Charging>
4.58449e-09

> <r_epik_Ionization_Penalty_Neutral>
4.48471

> <r_epik_State_Penalty>
4.48428

> <r_epik_Charging_Adjusted_Penalty>
4.48428

> <i_epik_Tot_Q>
-1

> <i_epik_Tot_abs_Q>
1

> <r_epik_Metal_State_Penalty>
0.811551

> <b_epik_Metal_Only>
1

> <s_epik_Chemistry_Notes>
This compound has an imine and may undergo hydrolysis.

> <s_lp_Force_Field>
OPLS_2005

> <r_lp_Energy>
36.4971

> <b_lp_Chiralities_Consistent>
1

> <s_lp_Variant>
AV-unprocessed.smi:481-3

> <Gold.Version>
5.8.1

> <Gold.Id.Protein>
6NUR|6NUR_protein|mol2

> <Gold.PLP.Fitness>
56.4742

> <Gold.PLP.PLP>
-58.7239

> <Gold.PLP.part.hbond>
-3.6790

> <Gold.PLP.part.metal>
0.0000

> <Gold.PLP.part.buried>
-5.8170

> <Gold.PLP.part.nonpolar>
-49.0095

> <Gold.PLP.part.repulsive>
0.2487

> <Gold.PLP.ligand.clash>
0.0000

> <Gold.PLP.ligand.torsion>
1.1381

> <Gold.PLP.Chemscore.Hbond>
0.0000

> <Gold.PLP.Chemscore.CHOScore>
0.0000

> <Gold.PLP.Chemscore.Metal>
0.0000

> <Gold.PLP.Chemscore.Internal.Correction>
0.0265

> <Gold.Rescore>
     Score         DG    S(hbond)    S(metal)    S(lipo)     H(rot)  DE(clash)    DE(int)     intcor
      9.12     -14.71       0.00        0.00     112.19       1.52       3.08       2.50       ----

> <Gold.Chemscore.Fitness>
9.1236

> <Gold.Chemscore.DG>
-14.7068

> <Gold.Chemscore.ZeroCoef>
-5.4800

> <Gold.Chemscore.Hbond>
0.0000

> <Gold.Chemscore.Metal>
0.0000

> <Gold.Chemscore.Lipo>
112.1854

> <Gold.Chemscore.Internal_Hbond>
0.0000

> <Gold.Chemscore.DEClash>
3.0819

> <Gold.Chemscore.DEInternal>
2.5014

> <Gold.Chemscore.Rot>
1.5230

> <Gold.Chemscore.Internal.Correction>
   9.000000E+99

> <Gold.Chemscore.Hbond.Weighted>
-0.0000

> <Gold.Chemscore.Metal.Weighted>
-0.0000

> <Gold.Chemscore.Lipo.Weighted>
-13.1257

> <Gold.Chemscore.Internal_Hbond.Weighted>
0.0000

> <Gold.Chemscore.DEClash.Weighted>
3.0819

> <Gold.Chemscore.DEInternal.Weighted>
2.5014

> <Gold.Chemscore.Rot.Weighted>
3.8989

> <Gold.Chemscore.Internal.Correction.Weighted>
   9.000000E+99

> <Gold.Protein.RotatedTorsions>
[ 6907 6896 6895 6894 ] final    6.72 input  -60.11 | X-H torsion
[ 7974 7965 7964 7962 ] final  151.91 input  175.53 | X-H torsion
[ 8008 7997 7996 7995 ] final -111.32 input   59.86 | X-H torsion
[ 10167 10162 10161 10158 ] final  110.72 input  -65.29 | X-H torsion
[ 10718 10713 10712 10709 ] final   81.94 input   66.30 | X-H torsion
[ 10763 10752 10751 10750 ] final   -1.81 input  -60.55 | X-H torsion
[ 11005 11000 10999 10996 ] final   26.55 input  -57.11 | X-H torsion

> <Gold.Protein.ActiveResidues>
 VAL166  LYS551  ARG553  GLY616  TRP617  ASP618  TYR619  PRO620  LYS621  CYS622 
 ASP623  PHE694  ASN695  SER759  ASP760  ASP761  ALA762  ILE779  LEU786  VAL792 
 PHE793  MET794  SER795  GLU796  ALA797  LYS798  CYS799  TRP800  GLU811  SER814 

> <Gold.Protein.RotatedAtoms>
  151.6782  135.0966  160.0210 H   0  0  0  0  0  0  0  0  0  0  0  0  # atno 6907 bound_to 6896
  152.3851  133.6596  159.6201 H   0  0  0  0  0  0  0  0  0  0  0  0  # atno 6908 bound_to 6896
  150.7779  133.8965  159.3370 H   0  0  0  0  0  0  0  0  0  0  0  0  # atno 6909 bound_to 6896
  144.8259  139.6599  143.6080 H   0  0  0  0  0  0  0  0  0  0  0  0  # atno 7974 bound_to 7965
  154.9880  140.0395  157.2307 H   0  0  0  0  0  0  0  0  0  0  0  0  # atno 8008 bound_to 7997
  154.7654  140.2792  155.6158 H   0  0  0  0  0  0  0  0  0  0  0  0  # atno 8009 bound_to 7997
  156.2911  140.2620  156.2443 H   0  0  0  0  0  0  0  0  0  0  0  0  # atno 8010 bound_to 7997
  139.6667  144.7127  151.1764 H   0  0  0  0  0  0  0  0  0  0  0  0  # atno 10167 bound_to 10162
  157.6845  131.0026  150.2301 H   0  0  0  0  0  0  0  0  0  0  0  0  # atno 10718 bound_to 10713
  153.3497  135.6985  153.6798 H   0  0  0  0  0  0  0  0  0  0  0  0  # atno 10763 bound_to 10752
  153.5530  135.3550  155.2768 H   0  0  0  0  0  0  0  0  0  0  0  0  # atno 10764 bound_to 10752
  154.8651  135.4231  154.2730 H   0  0  0  0  0  0  0  0  0  0  0  0  # atno 10765 bound_to 10752
  140.3358  134.2387  155.7696 H   0  0  0  0  0  0  0  0  0  0  0  0  # atno 11005 bound_to 11000
  146.2564  139.6313  142.9392 LP  0  0  0  0  0  0  0  0  0  0  0  0  # atno 17320 bound_to 7965
  145.5001  141.0437  143.2545 LP  0  0  0  0  0  0  0  0  0  0  0  0  # atno 17321 bound_to 7965
  140.7602  143.5909  150.8797 LP  0  0  0  0  0  0  0  0  0  0  0  0  # atno 17342 bound_to 10162
  139.9571  143.6206  152.3013 LP  0  0  0  0  0  0  0  0  0  0  0  0  # atno 17343 bound_to 10162
  156.2936  130.3749  149.7818 LP  0  0  0  0  0  0  0  0  0  0  0  0  # atno 17370 bound_to 10713
  156.5470  130.8325  151.3287 LP  0  0  0  0  0  0  0  0  0  0  0  0  # atno 17371 bound_to 10713
  141.2051  133.7867  157.0248 LP  0  0  0  0  0  0  0  0  0  0  0  0  # atno 17394 bound_to 11000
  140.0822  134.9641  157.1643 LP  0  0  0  0  0  0  0  0  0  0  0  0  # atno 17395 bound_to 11000

$$$$
