AV-unprocessed.smi:2059|AV-procd|sdf|8348|dock1
  -GOLD-   2272011 13D 1   1.00000     0.00000
 Structure written by MMmdl.
 30 31  0  0  0  0  0  0  0  0  1 V2000
  145.7549  130.2381  152.3349 C   0  0  0  0  0  0  0  0  0  0  0  0
  146.7288  131.1780  152.9589 C   0  0  0  0  0  0  0  0  0  0  0  0
  147.0752  132.4722  152.6905 C   0  0  0  0  0  0  0  0  0  0  0  0
  148.0653  132.7530  153.6696 C   0  0  0  0  0  0  0  0  0  0  0  0
  148.6869  134.0334  153.7160 N   0  0  0  0  0  0  0  0  0  0  0  0
  149.4612  134.6079  154.6604 C   0  0  0  0  0  0  0  0  0  0  0  0
  149.7427  134.0126  155.6992 O   0  0  0  0  0  0  0  0  0  0  0  0
  149.8980  135.8502  154.3953 N   0  0  0  0  0  0  0  0  0  0  0  0
  150.7440  136.6523  155.2720 C   0  0  2  0  0  0  0  0  0  0  0  0
  149.9440  137.2924  156.4249 C   0  0  0  0  0  0  0  0  0  0  0  0
  150.7951  138.3980  157.0619 C   0  0  0  0  0  0  0  0  0  0  0  0
  151.8645  139.0546  155.7255 S   0  0  0  0  0  0  0  0  0  0  0  0
  151.3546  140.3603  155.2802 O   0  0  0  0  0  0  0  0  0  0  0  0
  153.2721  138.8853  156.1173 O   0  0  0  0  0  0  0  0  0  0  0  0
  151.4208  137.7821  154.4846 C   0  0  0  0  0  0  0  0  0  0  0  0
  148.3023  131.7174  154.4623 N   0  0  0  0  0  0  0  0  0  0  0  0
  147.4482  130.7043  154.0117 O   0  0  0  0  0  0  0  0  0  0  0  0
  145.0162  130.7794  151.7438 H   0  0  0  0  0  0  0  0  0  0  0  0
  145.2235  129.6670  153.0963 H   0  0  0  0  0  0  0  0  0  0  0  0
  146.2652  129.5342  151.6776 H   0  0  0  0  0  0  0  0  0  0  0  0
  146.6800  133.1135  151.9163 H   0  0  0  0  0  0  0  0  0  0  0  0
  148.5277  134.6051  152.8990 H   0  0  0  0  0  0  0  0  0  0  0  0
  149.6214  136.2686  153.5182 H   0  0  0  0  0  0  0  0  0  0  0  0
  151.5277  136.0240  155.6997 H   0  0  0  0  0  0  0  0  0  0  0  0
  149.0347  137.7416  156.0231 H   0  0  0  0  0  0  0  0  0  0  0  0
  149.6329  136.5544  157.1647 H   0  0  0  0  0  0  0  0  0  0  0  0
  150.1958  139.1994  157.4941 H   0  0  0  0  0  0  0  0  0  0  0  0
  151.4415  137.9884  157.8383 H   0  0  0  0  0  0  0  0  0  0  0  0
  152.3100  137.4558  153.9447 H   0  0  0  0  0  0  0  0  0  0  0  0
  150.7298  138.2391  153.7749 H   0  0  0  0  0  0  0  0  0  0  0  0
  1  2  1  0  0  0  0
  1 18  1  0  0  0  0
  1 19  1  0  0  0  0
  1 20  1  0  0  0  0
  2 17  1  0  0  0  0
  2  3  2  0  0  0  0
  3  4  1  0  0  0  0
  3 21  1  0  0  0  0
  4  5  1  0  0  0  0
  4 16  2  0  0  0  0
  5  6  1  0  0  0  0
  5 22  1  0  0  0  0
  6  7  2  0  0  0  0
  6  8  1  0  0  0  0
  8  9  1  0  0  0  0
  8 23  1  0  0  0  0
  9 15  1  0  0  0  0
  9 10  1  0  0  0  0
  9 24  1  0  0  0  0
 10 11  1  0  0  0  0
 10 25  1  0  0  0  0
 10 26  1  0  0  0  0
 11 12  1  0  0  0  0
 11 27  1  0  0  0  0
 11 28  1  0  0  0  0
 12 13  2  0  0  0  0
 12 14  2  0  0  0  0
 12 15  1  0  0  0  0
 15 29  1  0  0  0  0
 15 30  1  0  0  0  0
 16 17  1  0  0  0  0
M  END
> <s_m_source_file>
AV-unprocessed.smi

> <i_m_source_file_index>
2059

> <i_lp_mmshare_version>
43012

> <i_f3d_flags>
0

> <s_epik_input>
W0NIM11jMVtjSF1jKG5vMSlbTkhdQyg9TylbTkhdW0NAQEhdKFtDSDJdMilbQ0gyXVtDSDJdUzIoPU8pPU8=

> <s_epik_cmdline>
J2VwaWtfcHl0aG9uJywgJy1waCcsICc3LjAnLCAnLXRuJywgJzgnLCAnLW1hJywgJzIwMCcsICctbWV0YWxfYmluZGluZycsICctaW1hZScsICc8aW5maWxlLm1hZT4nLCAnLW9tYWUnLCAnPG91dGZpbGUubWFlPic=

> <r_lp_tautomer_probability>
1

> <r_epik_Ionization_Penalty>
3.88767e-05

> <r_epik_Ionization_Penalty_Charging>
0

> <r_epik_Ionization_Penalty_Neutral>
3.88767e-05

> <r_epik_State_Penalty>
-0

> <r_epik_Charging_Adjusted_Penalty>
0

> <i_epik_Tot_Q>
0

> <i_epik_Tot_abs_Q>
0

> <r_epik_Metal_State_Penalty>
0.0251347

> <b_epik_Metal_Only>
0

> <s_lp_Force_Field>
OPLS_2005

> <r_lp_Energy>
4.38419

> <b_lp_Chiralities_Consistent>
1

> <s_lp_Variant>
AV-unprocessed.smi:2059-1

> <Gold.Version>
5.8.1

> <Gold.Id.Protein>
6NUR|6NUR_protein|mol2

> <Gold.PLP.Fitness>
35.8114

> <Gold.PLP.PLP>
-24.7992

> <Gold.PLP.part.hbond>
-4.7646

> <Gold.PLP.part.metal>
0.0000

> <Gold.PLP.part.buried>
-3.3989

> <Gold.PLP.part.nonpolar>
-17.5962

> <Gold.PLP.part.repulsive>
0.2416

> <Gold.PLP.ligand.clash>
0.0000

> <Gold.PLP.ligand.torsion>
0.2972

> <Gold.PLP.Chemscore.Hbond>
3.8688

> <Gold.PLP.Chemscore.CHOScore>
0.0000

> <Gold.PLP.Chemscore.Metal>
0.0000

> <Gold.Chemscore.Hbonds>
donor molecule, donor type, donor heavy atom, donor atom, acceptor molecule, acceptor atom, score
      L1  H     5    22       P1  7948  0.99
      L1  H     8    23       P1  7948  1.00
      P1  H  7989  7998       L1    13  0.96
      P1  H  7997  8010       L1    14  1.00

> <Gold.PLP.Chemscore.Internal.Correction>
0.0002

> <Gold.Rescore>
     Score         DG    S(hbond)    S(metal)    S(lipo)     H(rot)  DE(clash)    DE(int)     intcor
     16.53     -18.07       3.30        0.00      35.13       1.00       0.09       1.45       ----

> <Gold.Chemscore.Fitness>
16.5253

> <Gold.Chemscore.DG>
-18.0652

> <Gold.Chemscore.ZeroCoef>
-5.4800

> <Gold.Chemscore.Hbond>
3.3038

> <Gold.Chemscore.Metal>
0.0000

> <Gold.Chemscore.Lipo>
35.1321

> <Gold.Chemscore.Internal_Hbond>
0.0000

> <Gold.Chemscore.DEClash>
0.0910

> <Gold.Chemscore.DEInternal>
1.4490

> <Gold.Chemscore.Rot>
1.0000

> <Gold.Chemscore.Internal.Correction>
   9.000000E+99

> <Gold.Chemscore.Hbonds>
donor molecule, donor type, donor heavy atom, donor atom, acceptor molecule, acceptor atom, score
      L1  H     5    22       P1  7948  0.24
      L1  H     8    23       P1  7948  0.39
      P1  H  7989  7998       L1    13  0.89
      P1  H  7997  8010       L1    14  0.95

> <Gold.Chemscore.Hbond.Weighted>
-11.0347

> <Gold.Chemscore.Metal.Weighted>
-0.0000

> <Gold.Chemscore.Lipo.Weighted>
-4.1105

> <Gold.Chemscore.Internal_Hbond.Weighted>
0.0000

> <Gold.Chemscore.DEClash.Weighted>
0.0910

> <Gold.Chemscore.DEInternal.Weighted>
1.4490

> <Gold.Chemscore.Rot.Weighted>
2.5600

> <Gold.Chemscore.Internal.Correction.Weighted>
   9.000000E+99

> <Gold.Protein.RotatedTorsions>
[ 6907 6896 6895 6894 ] final  130.46 input  -60.11 | X-H torsion
[ 7974 7965 7964 7962 ] final   -3.76 input  175.53 | X-H torsion
[ 8008 7997 7996 7995 ] final   68.18 input   59.86 | X-H torsion
[ 10167 10162 10161 10158 ] final  -27.89 input  -65.29 | X-H torsion
[ 10718 10713 10712 10709 ] final  176.60 input   66.30 | X-H torsion
[ 10763 10752 10751 10750 ] final  -91.96 input  -60.55 | X-H torsion
[ 11005 11000 10999 10996 ] final  107.97 input  -57.11 | X-H torsion

> <Gold.Protein.ActiveResidues>
 VAL166  LYS551  ARG553  GLY616  TRP617  ASP618  TYR619  PRO620  LYS621  CYS622 
 ASP623  PHE694  ASN695  SER759  ASP760  ASP761  ALA762  ILE779  LEU786  VAL792 
 PHE793  MET794  SER795  GLU796  ALA797  LYS798  CYS799  TRP800  GLU811  SER814 

> <Gold.Protein.RotatedAtoms>
  152.3524  133.6196  159.5954 H   0  0  0  0  0  0  0  0  0  0  0  0  # atno 6907 bound_to 6896
  150.7546  133.9553  159.3507 H   0  0  0  0  0  0  0  0  0  0  0  0  # atno 6908 bound_to 6896
  151.7403  135.0856  160.0365 H   0  0  0  0  0  0  0  0  0  0  0  0  # atno 6909 bound_to 6896
  146.2384  140.1769  142.8332 H   0  0  0  0  0  0  0  0  0  0  0  0  # atno 7974 bound_to 7965
  155.7043  140.3495  155.4946 H   0  0  0  0  0  0  0  0  0  0  0  0  # atno 8008 bound_to 7997
  155.9413  140.1102  157.1075 H   0  0  0  0  0  0  0  0  0  0  0  0  # atno 8009 bound_to 7997
  154.4103  140.1212  156.4917 H   0  0  0  0  0  0  0  0  0  0  0  0  # atno 8010 bound_to 7997
  140.7274  143.4056  151.1192 H   0  0  0  0  0  0  0  0  0  0  0  0  # atno 10167 bound_to 10162
  156.9177  130.9930  151.3010 H   0  0  0  0  0  0  0  0  0  0  0  0  # atno 10718 bound_to 10713
  154.6813  135.5249  153.8267 H   0  0  0  0  0  0  0  0  0  0  0  0  # atno 10763 bound_to 10752
  153.0567  135.6553  154.0571 H   0  0  0  0  0  0  0  0  0  0  0  0  # atno 10764 bound_to 10752
  154.0458  135.2973  155.3328 H   0  0  0  0  0  0  0  0  0  0  0  0  # atno 10765 bound_to 10752
  139.8836  134.9417  156.5901 H   0  0  0  0  0  0  0  0  0  0  0  0  # atno 11005 bound_to 11000
  144.9966  140.8594  143.5307 LP  0  0  0  0  0  0  0  0  0  0  0  0  # atno 17320 bound_to 7965
  145.1782  139.2366  143.5306 LP  0  0  0  0  0  0  0  0  0  0  0  0  # atno 17321 bound_to 7965
  139.7682  143.8534  152.3115 LP  0  0  0  0  0  0  0  0  0  0  0  0  # atno 17342 bound_to 10162
  139.8443  144.7195  150.9292 LP  0  0  0  0  0  0  0  0  0  0  0  0  # atno 17343 bound_to 10162
  157.5928  130.8456  149.8684 LP  0  0  0  0  0  0  0  0  0  0  0  0  # atno 17370 bound_to 10713
  156.0506  130.3718  150.1211 LP  0  0  0  0  0  0  0  0  0  0  0  0  # atno 17371 bound_to 10713
  140.7962  133.8542  155.8687 LP  0  0  0  0  0  0  0  0  0  0  0  0  # atno 17394 bound_to 11000
  140.9633  134.1627  157.4636 LP  0  0  0  0  0  0  0  0  0  0  0  0  # atno 17395 bound_to 11000

$$$$
