AV-unprocessed.smi:1593|AV-procd|sdf|6411|dock1
  -GOLD-   22720 7 43D 1   1.00000     0.00000
 Structure written by MMmdl.
 35 36  0  0  0  0  0  0  0  0  2 V2000
  145.9060  134.4593  162.4022 C   0  0  0  0  0  0  0  0  0  0  0  0
  146.8849  135.2689  161.6225 C   0  0  0  0  0  0  0  0  0  0  0  0
  147.8498  134.9355  160.7148 C   0  0  0  0  0  0  0  0  0  0  0  0
  148.4193  136.1917  160.3697 C   0  0  0  0  0  0  0  0  0  0  0  0
  149.4113  136.3956  159.4893 N   0  5  0  0  0  0  0  0  0  0  0  0
  149.5110  137.5759  158.8348 C   0  0  0  0  0  0  0  0  0  0  0  0
  148.5839  138.2141  158.3307 O   0  0  0  0  0  0  0  0  0  0  0  0
  150.7626  138.0466  158.7578 N   0  0  0  0  0  0  0  0  0  0  0  0
  151.1584  139.2813  158.0916 C   0  0  0  0  0  0  0  0  0  0  0  0
  152.1975  140.0503  158.9269 C   0  0  0  0  0  0  0  0  0  0  0  0
  152.3305  141.4735  158.6114 N   0  0  0  0  0  0  0  0  0  0  0  0
  151.0468  142.1127  158.3312 C   0  0  0  0  0  0  0  0  0  0  0  0
  151.2084  143.6117  158.0232 C   0  0  0  0  0  0  0  0  0  0  0  0
  151.8754  144.2554  159.1044 O   0  0  0  0  0  0  0  0  0  0  0  0
  153.1535  143.6887  159.3741 C   0  0  0  0  0  0  0  0  0  0  0  0
  152.9948  142.1922  159.6927 C   0  0  0  0  0  0  0  0  0  0  0  0
  147.8388  137.1998  160.9991 N   0  0  0  0  0  0  0  0  0  0  0  0
  146.8580  136.6159  161.8096 O   0  0  0  0  0  0  0  0  0  0  0  0
  145.3091  133.8330  161.7392 H   0  0  0  0  0  0  0  0  0  0  0  0
  145.2258  135.0990  162.9650 H   0  0  0  0  0  0  0  0  0  0  0  0
  146.4215  133.8095  163.1093 H   0  0  0  0  0  0  0  0  0  0  0  0
  148.1111  133.9508  160.3575 H   0  0  0  0  0  0  0  0  0  0  0  0
  151.4979  137.4944  159.1746 H   0  0  0  0  0  0  0  0  0  0  0  0
  151.5437  139.0635  157.0949 H   0  0  0  0  0  0  0  0  0  0  0  0
  150.2734  139.9032  157.9517 H   0  0  0  0  0  0  0  0  0  0  0  0
  151.9643  139.9310  159.9858 H   0  0  0  0  0  0  0  0  0  0  0  0
  153.1632  139.5651  158.7793 H   0  0  0  0  0  0  0  0  0  0  0  0
  150.5636  141.6345  157.4795 H   0  0  0  0  0  0  0  0  0  0  0  0
  150.3771  141.9883  159.1835 H   0  0  0  0  0  0  0  0  0  0  0  0
  151.7726  143.7567  157.1007 H   0  0  0  0  0  0  0  0  0  0  0  0
  150.2330  144.0762  157.8782 H   0  0  0  0  0  0  0  0  0  0  0  0
  153.8125  143.8333  158.5164 H   0  0  0  0  0  0  0  0  0  0  0  0
  153.6049  144.2111  160.2175 H   0  0  0  0  0  0  0  0  0  0  0  0
  152.4252  142.0789  160.6164 H   0  0  0  0  0  0  0  0  0  0  0  0
  153.9781  141.7576  159.8766 H   0  0  0  0  0  0  0  0  0  0  0  0
  1  2  1  0  0  0  0
  1 19  1  0  0  0  0
  1 20  1  0  0  0  0
  1 21  1  0  0  0  0
  2 18  1  0  0  0  0
  2  3  2  0  0  0  0
  3  4  1  0  0  0  0
  3 22  1  0  0  0  0
  4  5  1  0  0  0  0
  4 17  2  0  0  0  0
  5  6  1  0  0  0  0
  6  7  2  0  0  0  0
  6  8  1  0  0  0  0
  8  9  1  0  0  0  0
  8 23  1  0  0  0  0
  9 10  1  0  0  0  0
  9 24  1  0  0  0  0
  9 25  1  0  0  0  0
 10 11  1  0  0  0  0
 10 26  1  0  0  0  0
 10 27  1  0  0  0  0
 11 16  1  0  0  0  0
 11 12  1  0  0  0  0
 12 13  1  0  0  0  0
 12 28  1  0  0  0  0
 12 29  1  0  0  0  0
 13 14  1  0  0  0  0
 13 30  1  0  0  0  0
 13 31  1  0  0  0  0
 14 15  1  0  0  0  0
 15 16  1  0  0  0  0
 15 32  1  0  0  0  0
 15 33  1  0  0  0  0
 16 34  1  0  0  0  0
 16 35  1  0  0  0  0
 17 18  1  0  0  0  0
M  CHG  1   5  -1
M  END
> <s_m_source_file>
AV-unprocessed.smi

> <i_m_source_file_index>
1593

> <i_lp_mmshare_version>
43012

> <i_f3d_flags>
0

> <s_epik_input>
W0NIM11jMVtjSF1jKG5vMSlbTkhdQyg9TylbTkhdW0NIMl1bQ0gyXU4yW0NIMl1bQ0gyXU9bQ0gyXVtDSDJdMg==

> <s_epik_cmdline>
J2VwaWtfcHl0aG9uJywgJy1waCcsICc3LjAnLCAnLXRuJywgJzgnLCAnLW1hJywgJzIwMCcsICctbWV0YWxfYmluZGluZycsICctaW1hZScsICc8aW5maWxlLm1hZT4nLCAnLW9tYWUnLCAnPG91dGZpbGUubWFlPic=

> <r_epik_Ionization_Penalty>
6.88366

> <r_epik_Ionization_Penalty_Charging>
6.57198

> <r_epik_Ionization_Penalty_Neutral>
0.311678

> <r_epik_State_Penalty>
6.77619

> <r_epik_Charging_Adjusted_Penalty>
13.3482

> <i_epik_Tot_Q>
-1

> <i_epik_Tot_abs_Q>
1

> <r_epik_Metal_State_Penalty>
2.70533

> <b_epik_Metal_Only>
1

> <s_lp_Force_Field>
OPLS_2005

> <r_lp_Energy>
18.6523

> <b_lp_Chiralities_Consistent>
1

> <s_lp_Variant>
AV-unprocessed.smi:1593-3

> <Gold.Version>
5.8.1

> <Gold.Id.Protein>
6NUR|6NUR_protein|mol2

> <Gold.PLP.Fitness>
41.8907

> <Gold.PLP.PLP>
-32.1668

> <Gold.PLP.part.hbond>
-3.0000

> <Gold.PLP.part.metal>
0.0000

> <Gold.PLP.part.buried>
-5.9203

> <Gold.PLP.part.nonpolar>
-22.9648

> <Gold.PLP.part.repulsive>
0.1960

> <Gold.PLP.ligand.clash>
0.0000

> <Gold.PLP.ligand.torsion>
0.8919

> <Gold.PLP.Chemscore.Hbond>
3.7600

> <Gold.PLP.Chemscore.CHOScore>
0.0000

> <Gold.PLP.Chemscore.Metal>
0.0000

> <Gold.Chemscore.Hbonds>
donor molecule, donor type, donor heavy atom, donor atom, acceptor molecule, acceptor atom, score
      P1  H  6896  6907       L1     5  1.62
      P1  H  6931  6943       L1    17  0.91
      P1  H  6934  6947       L1    17  0.82

> <Gold.PLP.Chemscore.Internal.Correction>
0.2277

> <Gold.Rescore>
     Score         DG    S(hbond)    S(metal)    S(lipo)     H(rot)  DE(clash)    DE(int)     intcor
     15.93     -16.84       1.99        0.00      74.62       1.57       0.00       0.90       ----

> <Gold.Chemscore.Fitness>
15.9344

> <Gold.Chemscore.DG>
-16.8357

> <Gold.Chemscore.ZeroCoef>
-5.4800

> <Gold.Chemscore.Hbond>
1.9919

> <Gold.Chemscore.Metal>
0.0000

> <Gold.Chemscore.Lipo>
74.6154

> <Gold.Chemscore.Internal_Hbond>
0.0000

> <Gold.Chemscore.DEClash>
0.0048

> <Gold.Chemscore.DEInternal>
0.8965

> <Gold.Chemscore.Rot>
1.5731

> <Gold.Chemscore.Internal.Correction>
   9.000000E+99

> <Gold.Chemscore.Hbonds>
donor molecule, donor type, donor heavy atom, donor atom, acceptor molecule, acceptor atom, score
      P1  H  6896  6907       L1     5  0.53
      P1  H  6931  6943       L1    17  0.69
      P1  H  6934  6947       L1    17  0.24

> <Gold.Chemscore.Hbond.Weighted>
-6.6528

> <Gold.Chemscore.Metal.Weighted>
-0.0000

> <Gold.Chemscore.Lipo.Weighted>
-8.7300

> <Gold.Chemscore.Internal_Hbond.Weighted>
0.0000

> <Gold.Chemscore.DEClash.Weighted>
0.0048

> <Gold.Chemscore.DEInternal.Weighted>
0.8965

> <Gold.Chemscore.Rot.Weighted>
4.0271

> <Gold.Chemscore.Internal.Correction.Weighted>
   9.000000E+99

> <Gold.Protein.RotatedTorsions>
[ 6907 6896 6895 6894 ] final  -52.55 input  -60.11 | X-H torsion
[ 7974 7965 7964 7962 ] final -117.31 input  175.53 | X-H torsion
[ 8008 7997 7996 7995 ] final  -13.90 input   59.86 | X-H torsion
[ 10167 10162 10161 10158 ] final  147.68 input  -65.29 | X-H torsion
[ 10718 10713 10712 10709 ] final  106.58 input   66.30 | X-H torsion
[ 10763 10752 10751 10750 ] final  172.81 input  -60.55 | X-H torsion
[ 11005 11000 10999 10996 ] final    8.30 input  -57.11 | X-H torsion

> <Gold.Protein.ActiveResidues>
 VAL166  LYS551  ARG553  GLY616  TRP617  ASP618  TYR619  PRO620  LYS621  CYS622 
 ASP623  PHE694  ASN695  SER759  ASP760  ASP761  ALA762  ILE779  LEU786  VAL792 
 PHE793  MET794  SER795  GLU796  ALA797  LYS798  CYS799  TRP800  GLU811  SER814 

> <Gold.Protein.RotatedAtoms>
  150.8507  134.7831  159.7006 H   0  0  0  0  0  0  0  0  0  0  0  0  # atno 6907 bound_to 6896
  152.4573  134.5261  159.9807 H   0  0  0  0  0  0  0  0  0  0  0  0  # atno 6908 bound_to 6896
  151.5382  133.3399  159.2966 H   0  0  0  0  0  0  0  0  0  0  0  0  # atno 6909 bound_to 6896
  145.0867  140.8463  143.4006 H   0  0  0  0  0  0  0  0  0  0  0  0  # atno 7974 bound_to 7965
  154.5254  140.2237  155.8899 H   0  0  0  0  0  0  0  0  0  0  0  0  # atno 8008 bound_to 7997
  156.1708  140.3122  155.8934 H   0  0  0  0  0  0  0  0  0  0  0  0  # atno 8009 bound_to 7997
  155.3562  140.0458  157.3037 H   0  0  0  0  0  0  0  0  0  0  0  0  # atno 8010 bound_to 7997
  139.4886  144.5737  151.7006 H   0  0  0  0  0  0  0  0  0  0  0  0  # atno 10167 bound_to 10162
  157.6662  131.0854  150.6028 H   0  0  0  0  0  0  0  0  0  0  0  0  # atno 10718 bound_to 10713
  154.4312  135.2760  155.1911 H   0  0  0  0  0  0  0  0  0  0  0  0  # atno 10763 bound_to 10752
  154.3816  135.6086  153.5797 H   0  0  0  0  0  0  0  0  0  0  0  0  # atno 10764 bound_to 10752
  152.9836  135.5881  154.4624 H   0  0  0  0  0  0  0  0  0  0  0  0  # atno 10765 bound_to 10752
  140.5385  134.0397  155.7896 H   0  0  0  0  0  0  0  0  0  0  0  0  # atno 11005 bound_to 11000
  145.1113  139.2755  143.5636 LP  0  0  0  0  0  0  0  0  0  0  0  0  # atno 17320 bound_to 7965
  146.3531  140.0710  142.8623 LP  0  0  0  0  0  0  0  0  0  0  0  0  # atno 17321 bound_to 7965
  140.5329  144.0702  150.6060 LP  0  0  0  0  0  0  0  0  0  0  0  0  # atno 17342 bound_to 10162
  140.3698  143.2861  152.0291 LP  0  0  0  0  0  0  0  0  0  0  0  0  # atno 17343 bound_to 10162
  156.6329  130.4437  149.5780 LP  0  0  0  0  0  0  0  0  0  0  0  0  # atno 17370 bound_to 10713
  156.2268  130.6770  151.1424 LP  0  0  0  0  0  0  0  0  0  0  0  0  # atno 17371 bound_to 10713
  141.1241  133.9413  157.2671 LP  0  0  0  0  0  0  0  0  0  0  0  0  # atno 17394 bound_to 11000
  139.9516  135.0174  156.9011 LP  0  0  0  0  0  0  0  0  0  0  0  0  # atno 17395 bound_to 11000

$$$$
