AV-unprocessed.smi:776|AV-procd|sdf|3699|dock7
  -GOLD-   22720 1123D 1   1.00000     0.00000
 Structure written by MMmdl.
 44 45  0  0  0  0  0  0  0  0  1 V2000
  153.7481  132.0666  157.9412 C   0  0  0  0  0  0  0  0  0  0  0  0
  152.5811  131.2603  157.3514 C   0  0  0  0  0  0  0  0  0  0  0  0
  153.0406  130.1466  156.3982 C   0  0  0  0  0  0  0  0  0  0  0  0
  151.5505  132.1461  156.7203 C   0  0  0  0  0  0  0  0  0  0  0  0
  150.9391  133.1044  157.4091 N   0  0  0  0  0  0  0  0  0  0  0  0
  150.0722  133.6790  156.4687 O   0  0  0  0  0  0  0  0  0  0  0  0
  150.2840  133.0060  155.3124 C   0  0  0  0  0  0  0  0  0  0  0  0
  149.4679  133.3578  154.1143 C   0  0  0  0  0  0  0  0  0  0  0  0
  148.7997  132.1280  153.4788 C   0  0  0  0  0  0  0  0  0  0  0  0
  147.9757  132.4947  152.3327 N   0  0  0  0  0  0  0  0  0  0  0  0
  146.9677  133.3833  152.3535 C   0  0  0  0  0  0  0  0  0  0  0  0
  146.6773  134.0214  153.3654 O   0  0  0  0  0  0  0  0  0  0  0  0
  146.3981  133.5856  151.1380 N   0  0  0  0  0  0  0  0  0  0  0  0
  146.2934  132.4890  150.1573 C   0  0  0  0  0  0  0  0  0  0  0  0
  144.9307  131.7892  150.3287 C   0  0  0  0  0  0  0  0  0  0  0  0
  143.7697  132.7918  150.1910 C   0  0  0  0  0  0  0  0  0  0  0  0
  143.9832  134.0412  151.0667 C   0  0  0  0  0  0  0  0  0  0  0  0
  145.3918  134.6304  150.8441 C   0  0  1  0  0  0  0  0  0  0  0  0
  145.5941  135.9715  151.5808 C   0  0  0  0  0  0  0  0  0  0  0  0
  151.1817  132.0295  155.4145 N   0  0  0  0  0  0  0  0  0  0  0  0
  153.3920  132.7993  158.6663 H   0  0  0  0  0  0  0  0  0  0  0  0
  154.2935  132.6039  157.1649 H   0  0  0  0  0  0  0  0  0  0  0  0
  154.4566  131.4140  158.4519 H   0  0  0  0  0  0  0  0  0  0  0  0
  152.0983  130.7624  158.1937 H   0  0  0  0  0  0  0  0  0  0  0  0
  152.1957  129.5435  156.0644 H   0  0  0  0  0  0  0  0  0  0  0  0
  153.7492  129.4786  156.8885 H   0  0  0  0  0  0  0  0  0  0  0  0
  153.5285  130.5560  155.5131 H   0  0  0  0  0  0  0  0  0  0  0  0
  148.7115  134.0854  154.4105 H   0  0  0  0  0  0  0  0  0  0  0  0
  150.1147  133.8566  153.3914 H   0  0  0  0  0  0  0  0  0  0  0  0
  149.5511  131.3949  153.1807 H   0  0  0  0  0  0  0  0  0  0  0  0
  148.1581  131.6358  154.2103 H   0  0  0  0  0  0  0  0  0  0  0  0
  148.1892  132.0449  151.4545 H   0  0  0  0  0  0  0  0  0  0  0  0
  146.3845  132.8903  149.1470 H   0  0  0  0  0  0  0  0  0  0  0  0
  147.0920  131.7519  150.2459 H   0  0  0  0  0  0  0  0  0  0  0  0
  144.8229  130.9914  149.5934 H   0  0  0  0  0  0  0  0  0  0  0  0
  144.8866  131.3128  151.3092 H   0  0  0  0  0  0  0  0  0  0  0  0
  143.6902  133.1000  149.1478 H   0  0  0  0  0  0  0  0  0  0  0  0
  142.8236  132.3116  150.4421 H   0  0  0  0  0  0  0  0  0  0  0  0
  143.2201  134.7847  150.8346 H   0  0  0  0  0  0  0  0  0  0  0  0
  143.8527  133.7812  152.1178 H   0  0  0  0  0  0  0  0  0  0  0  0
  145.4872  134.8719  149.7841 H   0  0  0  0  0  0  0  0  0  0  0  0
  144.9533  136.7415  151.1506 H   0  0  0  0  0  0  0  0  0  0  0  0
  146.6237  136.3204  151.4941 H   0  0  0  0  0  0  0  0  0  0  0  0
  145.3412  135.9109  152.6390 H   0  0  0  0  0  0  0  0  0  0  0  0
  1  2  1  0  0  0  0
  1 21  1  0  0  0  0
  1 22  1  0  0  0  0
  1 23  1  0  0  0  0
  2  3  1  0  0  0  0
  2  4  1  0  0  0  0
  2 24  1  0  0  0  0
  3 25  1  0  0  0  0
  3 26  1  0  0  0  0
  3 27  1  0  0  0  0
  4 20  1  0  0  0  0
  4  5  2  0  0  0  0
  5  6  1  0  0  0  0
  6  7  1  0  0  0  0
  7  8  1  0  0  0  0
  7 20  2  0  0  0  0
  8  9  1  0  0  0  0
  8 28  1  0  0  0  0
  8 29  1  0  0  0  0
  9 10  1  0  0  0  0
  9 30  1  0  0  0  0
  9 31  1  0  0  0  0
 10 11  1  0  0  0  0
 10 32  1  0  0  0  0
 11 12  2  0  0  0  0
 11 13  1  0  0  0  0
 13 18  1  0  0  0  0
 13 14  1  0  0  0  0
 14 15  1  0  0  0  0
 14 33  1  0  0  0  0
 14 34  1  0  0  0  0
 15 16  1  0  0  0  0
 15 35  1  0  0  0  0
 15 36  1  0  0  0  0
 16 17  1  0  0  0  0
 16 37  1  0  0  0  0
 16 38  1  0  0  0  0
 17 18  1  0  0  0  0
 17 39  1  0  0  0  0
 17 40  1  0  0  0  0
 18 19  1  0  0  0  0
 18 41  1  0  0  0  0
 19 42  1  0  0  0  0
 19 43  1  0  0  0  0
 19 44  1  0  0  0  0
M  END
> <s_m_source_file>
AV-unprocessed.smi

> <i_m_source_file_index>
776

> <i_lp_mmshare_version>
43012

> <i_f3d_flags>
0

> <s_epik_input>
W0NIM11bQ0hdKFtDSDNdKWMxbm9jKG4xKVtDSDJdW0NIMl1bTkhdQyg9TylOMltDSDJdW0NIMl1bQ0gyXVtDSDJdW0NASF0yW0NIM10=

> <s_epik_cmdline>
J2VwaWtfcHl0aG9uJywgJy1waCcsICc3LjAnLCAnLXRuJywgJzgnLCAnLW1hJywgJzIwMCcsICctbWV0YWxfYmluZGluZycsICctaW1hZScsICc8aW5maWxlLm1hZT4nLCAnLW9tYWUnLCAnPG91dGZpbGUubWFlPic=

> <r_lp_tautomer_probability>
1

> <r_epik_Ionization_Penalty>
6.23032e-05

> <r_epik_Ionization_Penalty_Charging>
0

> <r_epik_Ionization_Penalty_Neutral>
6.23032e-05

> <r_epik_State_Penalty>
-0

> <r_epik_Charging_Adjusted_Penalty>
0

> <i_epik_Tot_Q>
0

> <i_epik_Tot_abs_Q>
0

> <r_epik_Metal_State_Penalty>
-0

> <b_epik_Metal_Only>
0

> <s_lp_Force_Field>
OPLS_2005

> <r_lp_Energy>
26.0958

> <b_lp_Chiralities_Consistent>
1

> <s_lp_Variant>
AV-unprocessed.smi:776-1

> <Gold.Version>
5.8.1

> <Gold.Id.Protein>
6NUR|6NUR_protein|mol2

> <Gold.PLP.Fitness>
41.9179

> <Gold.PLP.PLP>
-36.1817

> <Gold.PLP.part.hbond>
-2.0000

> <Gold.PLP.part.metal>
0.0000

> <Gold.PLP.part.buried>
-3.7844

> <Gold.PLP.part.nonpolar>
-30.8578

> <Gold.PLP.part.repulsive>
0.0909

> <Gold.PLP.ligand.clash>
0.0000

> <Gold.PLP.ligand.torsion>
0.3462

> <Gold.PLP.Chemscore.Hbond>
1.9760

> <Gold.PLP.Chemscore.CHOScore>
0.0000

> <Gold.PLP.Chemscore.Metal>
0.0000

> <Gold.Chemscore.Hbonds>
donor molecule, donor type, donor heavy atom, donor atom, acceptor molecule, acceptor atom, score
      L1  H    10    32       P1 10747  1.00
      P1  H  6896  6909       L1     5  0.94

> <Gold.PLP.Chemscore.Internal.Correction>
0.5006

> <Gold.Rescore>
     Score         DG    S(hbond)    S(metal)    S(lipo)     H(rot)  DE(clash)    DE(int)     intcor
     14.45     -16.11       1.97        0.00      70.57       1.65       0.02       1.64       ----

> <Gold.Chemscore.Fitness>
14.4543

> <Gold.Chemscore.DG>
-16.1142

> <Gold.Chemscore.ZeroCoef>
-5.4800

> <Gold.Chemscore.Hbond>
1.9741

> <Gold.Chemscore.Metal>
0.0000

> <Gold.Chemscore.Lipo>
70.5742

> <Gold.Chemscore.Internal_Hbond>
0.0000

> <Gold.Chemscore.DEClash>
0.0234

> <Gold.Chemscore.DEInternal>
1.6365

> <Gold.Chemscore.Rot>
1.6470

> <Gold.Chemscore.Internal.Correction>
   9.000000E+99

> <Gold.Chemscore.Hbonds>
donor molecule, donor type, donor heavy atom, donor atom, acceptor molecule, acceptor atom, score
      L1  H    10    32       P1 10747  0.99
      P1  H  6896  6909       L1     5  0.91

> <Gold.Chemscore.Hbond.Weighted>
-6.5935

> <Gold.Chemscore.Metal.Weighted>
-0.0000

> <Gold.Chemscore.Lipo.Weighted>
-8.2572

> <Gold.Chemscore.Internal_Hbond.Weighted>
0.0000

> <Gold.Chemscore.DEClash.Weighted>
0.0234

> <Gold.Chemscore.DEInternal.Weighted>
1.6365

> <Gold.Chemscore.Rot.Weighted>
4.2164

> <Gold.Chemscore.Internal.Correction.Weighted>
   9.000000E+99

> <Gold.Protein.RotatedTorsions>
[ 6907 6896 6895 6894 ] final  -28.55 input  -60.11 | X-H torsion
[ 7974 7965 7964 7962 ] final  102.57 input  175.53 | X-H torsion
[ 8008 7997 7996 7995 ] final  -77.35 input   59.86 | X-H torsion
[ 10167 10162 10161 10158 ] final  -26.76 input  -65.29 | X-H torsion
[ 10718 10713 10712 10709 ] final   94.85 input   66.30 | X-H torsion
[ 10763 10752 10751 10750 ] final  -80.26 input  -60.55 | X-H torsion
[ 11005 11000 10999 10996 ] final -129.97 input  -57.11 | X-H torsion

> <Gold.Protein.ActiveResidues>
 VAL166  LYS551  ARG553  GLY616  TRP617  ASP618  TYR619  PRO620  LYS621  CYS622 
 ASP623  PHE694  ASN695  SER759  ASP760  ASP761  ALA762  ILE779  LEU786  VAL792 
 PHE793  MET794  SER795  GLU796  ALA797  LYS798  CYS799  TRP800  GLU811  SER814 

> <Gold.Protein.RotatedAtoms>
  151.1314  135.0132  159.8583 H   0  0  0  0  0  0  0  0  0  0  0  0  # atno 6907 bound_to 6896
  152.5451  134.1606  159.8566 H   0  0  0  0  0  0  0  0  0  0  0  0  # atno 6908 bound_to 6896
  151.1673  133.4761  159.2627 H   0  0  0  0  0  0  0  0  0  0  0  0  # atno 6909 bound_to 6896
  145.3574  139.2425  143.3525 H   0  0  0  0  0  0  0  0  0  0  0  0  # atno 7974 bound_to 7965
  154.5588  140.0712  156.8786 H   0  0  0  0  0  0  0  0  0  0  0  0  # atno 8008 bound_to 7997
  155.2850  140.3374  155.4237 H   0  0  0  0  0  0  0  0  0  0  0  0  # atno 8009 bound_to 7997
  156.2025  140.1727  156.7855 H   0  0  0  0  0  0  0  0  0  0  0  0  # atno 8010 bound_to 7997
  140.7281  143.4151  151.1042 H   0  0  0  0  0  0  0  0  0  0  0  0  # atno 10167 bound_to 10162
  157.6944  131.0526  150.4250 H   0  0  0  0  0  0  0  0  0  0  0  0  # atno 10718 bound_to 10713
  154.5489  135.5667  153.6905 H   0  0  0  0  0  0  0  0  0  0  0  0  # atno 10763 bound_to 10752
  152.9984  135.6246  154.2401 H   0  0  0  0  0  0  0  0  0  0  0  0  # atno 10764 bound_to 10752
  154.2335  135.2865  155.2861 H   0  0  0  0  0  0  0  0  0  0  0  0  # atno 10765 bound_to 10752
  140.9386  134.1223  157.4171 H   0  0  0  0  0  0  0  0  0  0  0  0  # atno 11005 bound_to 11000
  146.2942  140.4201  142.8728 LP  0  0  0  0  0  0  0  0  0  0  0  0  # atno 17320 bound_to 7965
  144.8672  140.7222  143.6070 LP  0  0  0  0  0  0  0  0  0  0  0  0  # atno 17321 bound_to 7965
  139.7789  143.8384  152.3134 LP  0  0  0  0  0  0  0  0  0  0  0  0  # atno 17342 bound_to 10162
  139.8328  144.7246  150.9429 LP  0  0  0  0  0  0  0  0  0  0  0  0  # atno 17343 bound_to 10162
  156.4621  130.4034  149.6569 LP  0  0  0  0  0  0  0  0  0  0  0  0  # atno 17370 bound_to 10713
  156.3681  130.7516  151.2496 LP  0  0  0  0  0  0  0  0  0  0  0  0  # atno 17371 bound_to 10713
  139.8814  135.0029  156.6155 LP  0  0  0  0  0  0  0  0  0  0  0  0  # atno 17394 bound_to 11000
  140.7765  133.8695  155.8533 LP  0  0  0  0  0  0  0  0  0  0  0  0  # atno 17395 bound_to 11000

$$$$
