AV-unprocessed.smi:1575|AV-procd|sdf|6340|dock1
  -GOLD-   22720 6553D 1   1.00000     0.00000
 Structure written by MMmdl.
 41 41  0  0  0  0  0  0  0  0  1 V2000
  154.8055  138.9511  160.2475 C   0  0  0  0  0  0  0  0  0  0  0  0
  153.8626  139.8997  159.6760 N   0  0  0  0  0  0  0  0  0  0  0  0
  153.2662  140.8808  160.3680 C   0  0  0  0  0  0  0  0  0  0  0  0
  153.4575  141.0666  161.5712 O   0  0  0  0  0  0  0  0  0  0  0  0
  152.2902  141.7718  159.5802 C   0  0  1  0  0  0  0  0  0  0  0  0
  152.7041  143.2453  159.8080 C   0  0  0  0  0  0  0  0  0  0  0  0
  151.7686  144.2971  159.1688 C   0  0  0  0  0  0  0  0  0  0  0  0
  152.1344  144.5190  157.6936 C   0  0  0  0  0  0  0  0  0  0  0  0
  151.7812  145.6337  159.9293 C   0  0  0  0  0  0  0  0  0  0  0  0
  152.3826  141.4732  158.1509 N   0  0  0  0  0  0  0  0  0  0  0  0
  151.3422  141.2216  157.3417 C   0  0  0  0  0  0  0  0  0  0  0  0
  150.1704  141.2561  157.7201 O   0  0  0  0  0  0  0  0  0  0  0  0
  151.6849  140.9022  155.8801 C   0  0  0  0  0  0  0  0  0  0  0  0
  150.4985  140.8636  155.0132 N   0  0  0  0  0  0  0  0  0  0  0  0
  149.6560  141.9629  154.9270 C   0  0  0  0  0  0  0  0  0  0  0  0
  148.5398  141.9886  154.1609 C   0  0  0  0  0  0  0  0  0  0  0  0
  148.1614  140.8241  153.3676 C   0  0  0  0  0  0  0  0  0  0  0  0
  147.1711  140.7505  152.6436 O   0  0  0  0  0  0  0  0  0  0  0  0
  149.0332  139.7382  153.4818 N   0  0  0  0  0  0  0  0  0  0  0  0
  150.1846  139.7048  154.2698 C   0  0  0  0  0  0  0  0  0  0  0  0
  150.8833  138.6923  154.3013 O   0  0  0  0  0  0  0  0  0  0  0  0
  148.8110  138.9080  152.9520 H   0  0  0  0  0  0  0  0  0  0  0  0
  155.1066  138.2255  159.4919 H   0  0  0  0  0  0  0  0  0  0  0  0
  154.3562  138.4088  161.0803 H   0  0  0  0  0  0  0  0  0  0  0  0
  155.6997  139.4625  160.6060 H   0  0  0  0  0  0  0  0  0  0  0  0
  153.6527  139.8082  158.6925 H   0  0  0  0  0  0  0  0  0  0  0  0
  151.2742  141.6003  159.9394 H   0  0  0  0  0  0  0  0  0  0  0  0
  152.7682  143.4449  160.8791 H   0  0  0  0  0  0  0  0  0  0  0  0
  153.7138  143.3939  159.4204 H   0  0  0  0  0  0  0  0  0  0  0  0
  150.7477  143.9141  159.1861 H   0  0  0  0  0  0  0  0  0  0  0  0
  153.1452  144.9154  157.5907 H   0  0  0  0  0  0  0  0  0  0  0  0
  151.4504  145.2242  157.2202 H   0  0  0  0  0  0  0  0  0  0  0  0
  152.0832  143.5870  157.1300 H   0  0  0  0  0  0  0  0  0  0  0  0
  152.7887  146.0468  159.9885 H   0  0  0  0  0  0  0  0  0  0  0  0
  151.4039  145.5231  160.9456 H   0  0  0  0  0  0  0  0  0  0  0  0
  151.1496  146.3717  159.4339 H   0  0  0  0  0  0  0  0  0  0  0  0
  153.3113  141.4218  157.7583 H   0  0  0  0  0  0  0  0  0  0  0  0
  152.3915  141.6545  155.5268 H   0  0  0  0  0  0  0  0  0  0  0  0
  152.2212  139.9525  155.8207 H   0  0  0  0  0  0  0  0  0  0  0  0
  149.8944  142.8469  155.5011 H   0  0  0  0  0  0  0  0  0  0  0  0
  147.9228  142.8751  154.1359 H   0  0  0  0  0  0  0  0  0  0  0  0
  1  2  1  0  0  0  0
  1 23  1  0  0  0  0
  1 24  1  0  0  0  0
  1 25  1  0  0  0  0
  2  3  1  0  0  0  0
  2 26  1  0  0  0  0
  3  4  2  0  0  0  0
  3  5  1  0  0  0  0
  5  6  1  0  0  0  0
  5 10  1  0  0  0  0
  5 27  1  0  0  0  0
  6  7  1  0  0  0  0
  6 28  1  0  0  0  0
  6 29  1  0  0  0  0
  7  8  1  0  0  0  0
  7  9  1  0  0  0  0
  7 30  1  0  0  0  0
  8 31  1  0  0  0  0
  8 32  1  0  0  0  0
  8 33  1  0  0  0  0
  9 34  1  0  0  0  0
  9 35  1  0  0  0  0
  9 36  1  0  0  0  0
 10 11  1  0  0  0  0
 10 37  1  0  0  0  0
 11 12  2  0  0  0  0
 11 13  1  0  0  0  0
 13 14  1  0  0  0  0
 13 38  1  0  0  0  0
 13 39  1  0  0  0  0
 14 20  1  0  0  0  0
 14 15  1  0  0  0  0
 15 16  2  0  0  0  0
 15 40  1  0  0  0  0
 16 17  1  0  0  0  0
 16 41  1  0  0  0  0
 17 18  2  0  0  0  0
 17 19  1  0  0  0  0
 19 22  1  0  0  0  0
 19 20  1  0  0  0  0
 20 21  2  0  0  0  0
M  END
> <s_m_source_file>
AV-unprocessed.smi

> <i_m_source_file_index>
1575

> <i_lp_mmshare_version>
43012

> <i_f3d_flags>
0

> <s_epik_input>
W0NIM11bTkhdQyg9TylbQ0BIXShbQ0gyXVtDSF0oW0NIM10pW0NIM10pW05IXUMoPU8pW0NIMl1uMVtjSF1bY0hdYyg9TylbbkhdYzE9Tw==

> <s_epik_cmdline>
J2VwaWtfcHl0aG9uJywgJy1waCcsICc3LjAnLCAnLXRuJywgJzgnLCAnLW1hJywgJzIwMCcsICctbWV0YWxfYmluZGluZycsICctaW1hZScsICc8aW5maWxlLm1hZT4nLCAnLW9tYWUnLCAnPG91dGZpbGUubWFlPic=

> <r_lp_tautomer_probability>
0.999537

> <r_epik_Ionization_Penalty>
0.00357166

> <r_epik_Ionization_Penalty_Charging>
0.00357161

> <r_epik_Ionization_Penalty_Neutral>
5.44484e-08

> <r_epik_State_Penalty>
0.00253761

> <r_epik_Charging_Adjusted_Penalty>
0.00610921

> <i_epik_Tot_Q>
0

> <i_epik_Tot_abs_Q>
0

> <r_epik_Metal_State_Penalty>
0.368734

> <b_epik_Metal_Only>
0

> <s_lp_Force_Field>
OPLS_2005

> <r_lp_Energy>
5.11716

> <b_lp_Chiralities_Consistent>
1

> <s_lp_Variant>
AV-unprocessed.smi:1575-2

> <Gold.Version>
5.8.1

> <Gold.Id.Protein>
6NUR|6NUR_protein|mol2

> <Gold.PLP.Fitness>
46.2293

> <Gold.PLP.PLP>
-44.2223

> <Gold.PLP.part.hbond>
-1.0000

> <Gold.PLP.part.metal>
0.0000

> <Gold.PLP.part.buried>
-4.2389

> <Gold.PLP.part.nonpolar>
-39.3393

> <Gold.PLP.part.repulsive>
0.6159

> <Gold.PLP.ligand.clash>
0.0000

> <Gold.PLP.ligand.torsion>
0.5877

> <Gold.PLP.Chemscore.Hbond>
0.0000

> <Gold.PLP.Chemscore.CHOScore>
1.0000

> <Gold.PLP.Chemscore.Metal>
0.0000

> <Gold.Chemscore.Hbonds>
donor molecule, donor type, donor heavy atom, donor atom, acceptor molecule, acceptor atom, score
      L1  C    15    40       P1  8028  1.00

> <Gold.PLP.Chemscore.Internal.Correction>
0.1823

> <Gold.Rescore>
     Score         DG    S(hbond)    S(metal)    S(lipo)     H(rot)  DE(clash)    DE(int)     intcor
      7.87     -10.52       0.95        0.00      77.24       2.81       0.06       2.59       ----

> <Gold.Chemscore.Fitness>
7.8729

> <Gold.Chemscore.DG>
-10.5174

> <Gold.Chemscore.ZeroCoef>
-5.4800

> <Gold.Chemscore.Hbond>
0.9540

> <Gold.Chemscore.Metal>
0.0000

> <Gold.Chemscore.Lipo>
77.2444

> <Gold.Chemscore.Internal_Hbond>
0.0000

> <Gold.Chemscore.DEClash>
0.0592

> <Gold.Chemscore.DEInternal>
2.5853

> <Gold.Chemscore.Rot>
2.8072

> <Gold.Chemscore.Internal.Correction>
   9.000000E+99

> <Gold.Chemscore.Hbond.Weighted>
-3.1862

> <Gold.Chemscore.Metal.Weighted>
-0.0000

> <Gold.Chemscore.Lipo.Weighted>
-9.0376

> <Gold.Chemscore.Internal_Hbond.Weighted>
0.0000

> <Gold.Chemscore.DEClash.Weighted>
0.0592

> <Gold.Chemscore.DEInternal.Weighted>
2.5853

> <Gold.Chemscore.Rot.Weighted>
7.1864

> <Gold.Chemscore.Internal.Correction.Weighted>
   9.000000E+99

> <Gold.Protein.RotatedTorsions>
[ 6907 6896 6895 6894 ] final -116.97 input  -60.11 | X-H torsion
[ 7974 7965 7964 7962 ] final   64.07 input  175.53 | X-H torsion
[ 8008 7997 7996 7995 ] final  -94.64 input   59.86 | X-H torsion
[ 10167 10162 10161 10158 ] final  156.43 input  -65.29 | X-H torsion
[ 10718 10713 10712 10709 ] final   83.00 input   66.30 | X-H torsion
[ 10763 10752 10751 10750 ] final -176.30 input  -60.55 | X-H torsion
[ 11005 11000 10999 10996 ] final  -81.26 input  -57.11 | X-H torsion

> <Gold.Protein.ActiveResidues>
 VAL166  LYS551  ARG553  GLY616  TRP617  ASP618  TYR619  PRO620  LYS621  CYS622 
 ASP623  PHE694  ASN695  SER759  ASP760  ASP761  ALA762  ILE779  LEU786  VAL792 
 PHE793  MET794  SER795  GLU796  ALA797  LYS798  CYS799  TRP800  GLU811  SER814 

> <Gold.Protein.RotatedAtoms>
  150.8099  133.8442  159.3187 H   0  0  0  0  0  0  0  0  0  0  0  0  # atno 6907 bound_to 6896
  151.6230  135.1028  160.0115 H   0  0  0  0  0  0  0  0  0  0  0  0  # atno 6908 bound_to 6896
  152.4190  133.7045  159.6500 H   0  0  0  0  0  0  0  0  0  0  0  0  # atno 6909 bound_to 6896
  145.8545  139.3275  143.0855 H   0  0  0  0  0  0  0  0  0  0  0  0  # atno 7974 bound_to 7965
  154.7510  140.0487  157.0893 H   0  0  0  0  0  0  0  0  0  0  0  0  # atno 8008 bound_to 7997
  155.0058  140.3130  155.4830 H   0  0  0  0  0  0  0  0  0  0  0  0  # atno 8009 bound_to 7997
  156.2885  140.2193  156.5170 H   0  0  0  0  0  0  0  0  0  0  0  0  # atno 8010 bound_to 7997
  139.4821  144.5010  151.8169 H   0  0  0  0  0  0  0  0  0  0  0  0  # atno 10167 bound_to 10162
  157.6869  131.0072  150.2458 H   0  0  0  0  0  0  0  0  0  0  0  0  # atno 10718 bound_to 10713
  154.5740  135.2830  155.0799 H   0  0  0  0  0  0  0  0  0  0  0  0  # atno 10763 bound_to 10752
  154.2161  135.6399  153.5134 H   0  0  0  0  0  0  0  0  0  0  0  0  # atno 10764 bound_to 10752
  153.0066  135.5503  154.6372 H   0  0  0  0  0  0  0  0  0  0  0  0  # atno 10765 bound_to 10752
  141.1667  133.7188  156.8396 H   0  0  0  0  0  0  0  0  0  0  0  0  # atno 11005 bound_to 11000
  145.9319  140.9042  143.0352 LP  0  0  0  0  0  0  0  0  0  0  0  0  # atno 17320 bound_to 7965
  144.6728  140.1430  143.7435 LP  0  0  0  0  0  0  0  0  0  0  0  0  # atno 17321 bound_to 7965
  140.4503  144.1865  150.5897 LP  0  0  0  0  0  0  0  0  0  0  0  0  # atno 17342 bound_to 10162
  140.4592  143.2455  151.9243 LP  0  0  0  0  0  0  0  0  0  0  0  0  # atno 17343 bound_to 10162
  156.3064  130.3765  149.7702 LP  0  0  0  0  0  0  0  0  0  0  0  0  # atno 17370 bound_to 10713
  156.5316  130.8260  151.3239 LP  0  0  0  0  0  0  0  0  0  0  0  0  # atno 17371 bound_to 10713
  140.1993  134.8909  157.3150 LP  0  0  0  0  0  0  0  0  0  0  0  0  # atno 17394 bound_to 11000
  140.2205  134.4029  155.7568 LP  0  0  0  0  0  0  0  0  0  0  0  0  # atno 17395 bound_to 11000

$$$$
