AV-unprocessed.smi:280|AV-procd|sdf|2098|dock6
  -GOLD-   2262021383D 1   1.00000     0.00000
 Structure written by MMmdl.
 59 62  0  0  0  0  0  0  0  0  2 V2000
  146.7724  134.2445  153.6310 C   0  0  0  0  0  0  0  0  0  0  0  0
  145.4200  134.0617  152.9071 C   0  0  1  0  0  0  0  0  0  0  0  0
  144.3192  134.9593  153.5125 C   0  0  0  0  0  0  0  0  0  0  0  0
  144.5110  136.3587  153.1299 N   0  0  0  0  0  0  0  0  0  0  0  0
  145.0953  137.2034  154.0242 C   0  0  0  0  0  0  0  0  0  0  0  0
  144.8020  137.0165  155.3378 N   0  0  0  0  0  0  0  0  0  0  0  0
  145.3345  137.8022  156.2764 C   0  0  0  0  0  0  0  0  0  0  0  0
  146.1764  138.8236  156.1257 N   0  0  0  0  0  0  0  0  0  0  0  0
  146.4801  139.0260  154.8131 C   0  0  0  0  0  0  0  0  0  0  0  0
  145.9925  138.2701  153.7061 C   0  0  0  0  0  0  0  0  0  0  0  0
  146.5499  138.7660  152.5317 N   0  0  0  0  0  0  0  0  0  0  0  0
  147.3079  139.7542  152.9185 C   0  0  0  0  0  0  0  0  0  0  0  0
  147.3170  139.9878  154.2739 N   0  0  0  0  0  0  0  0  0  0  0  0
  148.0730  141.0185  154.9708 C   0  0  0  0  0  0  0  0  0  0  0  0
  149.4733  140.5731  155.4372 C   0  0  0  0  0  0  0  0  0  0  0  0
  150.3016  141.8229  155.8004 C   0  0  0  0  0  0  0  0  0  0  0  0
  149.7182  142.5767  156.8445 O   0  0  0  0  0  0  0  0  0  0  0  0
  149.5207  139.4225  156.4533 C   0  0  0  0  0  0  0  0  0  0  0  0
  150.4486  138.6717  155.6399 O   0  0  0  0  0  0  0  0  0  0  0  0
  150.1598  139.5448  154.5258 C   0  0  0  0  0  0  0  0  0  0  0  0
  144.6053  136.5874  151.6920 C   0  0  0  0  0  0  0  0  0  0  0  0
  145.7002  135.7057  151.0624 C   0  0  0  0  0  0  0  0  0  0  0  0
  145.5052  134.2770  151.4319 N   0  3  1  0  0  0  0  0  0  0  0  0
  146.4163  133.3350  150.7252 C   0  0  0  0  0  0  0  0  0  0  0  0
  145.7411  131.9906  150.3595 C   0  0  0  0  0  0  0  0  0  0  0  0
  145.5868  131.1208  151.6189 C   0  0  0  0  0  0  0  0  0  0  0  0
  144.3736  132.1897  149.6800 C   0  0  0  0  0  0  0  0  0  0  0  0
  146.5739  131.2652  149.4781 O   0  0  0  0  0  0  0  0  0  0  0  0
  146.6609  134.0652  154.7005 H   0  0  0  0  0  0  0  0  0  0  0  0
  147.1716  135.2515  153.5142 H   0  0  0  0  0  0  0  0  0  0  0  0
  147.5284  133.5484  153.2688 H   0  0  0  0  0  0  0  0  0  0  0  0
  145.1073  133.0283  153.0632 H   0  0  0  0  0  0  0  0  0  0  0  0
  143.3464  134.6443  153.1331 H   0  0  0  0  0  0  0  0  0  0  0  0
  144.2752  134.8173  154.5923 H   0  0  0  0  0  0  0  0  0  0  0  0
  145.0449  137.5805  157.2931 H   0  0  0  0  0  0  0  0  0  0  0  0
  147.8812  140.3470  152.2205 H   0  0  0  0  0  0  0  0  0  0  0  0
  148.1455  141.8830  154.3095 H   0  0  0  0  0  0  0  0  0  0  0  0
  147.4815  141.3520  155.8243 H   0  0  0  0  0  0  0  0  0  0  0  0
  151.3103  141.5454  156.1084 H   0  0  0  0  0  0  0  0  0  0  0  0
  150.4030  142.4888  154.9434 H   0  0  0  0  0  0  0  0  0  0  0  0
  149.3836  143.3832  156.4828 H   0  0  0  0  0  0  0  0  0  0  0  0
  149.9350  139.6982  157.4236 H   0  0  0  0  0  0  0  0  0  0  0  0
  148.5776  138.8886  156.5709 H   0  0  0  0  0  0  0  0  0  0  0  0
  149.4878  139.0713  153.8081 H   0  0  0  0  0  0  0  0  0  0  0  0
  151.0593  139.9085  154.0280 H   0  0  0  0  0  0  0  0  0  0  0  0
  143.6414  136.3257  151.2542 H   0  0  0  0  0  0  0  0  0  0  0  0
  144.7532  137.6404  151.4562 H   0  0  0  0  0  0  0  0  0  0  0  0
  145.6719  135.8273  149.9809 H   0  0  0  0  0  0  0  0  0  0  0  0
  146.6897  136.0334  151.3798 H   0  0  0  0  0  0  0  0  0  0  0  0
  146.8410  133.8162  149.8426 H   0  0  0  0  0  0  0  0  0  0  0  0
  147.2645  133.1008  151.3700 H   0  0  0  0  0  0  0  0  0  0  0  0
  144.9399  131.6013  152.3539 H   0  0  0  0  0  0  0  0  0  0  0  0
  146.5493  130.9393  152.0988 H   0  0  0  0  0  0  0  0  0  0  0  0
  145.1491  130.1495  151.3839 H   0  0  0  0  0  0  0  0  0  0  0  0
  143.6940  132.7522  150.3214 H   0  0  0  0  0  0  0  0  0  0  0  0
  143.8983  131.2332  149.4590 H   0  0  0  0  0  0  0  0  0  0  0  0
  144.4615  132.7315  148.7379 H   0  0  0  0  0  0  0  0  0  0  0  0
  147.3794  131.0558  149.9271 H   0  0  0  0  0  0  0  0  0  0  0  0
  144.5839  134.0421  151.0911 H   0  0  0  0  0  0  0  0  0  0  0  0
  1  2  1  0  0  0  0
  1 29  1  0  0  0  0
  1 30  1  0  0  0  0
  1 31  1  0  0  0  0
  2 23  1  0  0  0  0
  2  3  1  0  0  0  0
  2 32  1  0  0  0  0
  3  4  1  0  0  0  0
  3 33  1  0  0  0  0
  3 34  1  0  0  0  0
  4  5  1  0  0  0  0
  4 21  1  0  0  0  0
  5 10  1  0  0  0  0
  5  6  2  0  0  0  0
  6  7  1  0  0  0  0
  7  8  2  0  0  0  0
  7 35  1  0  0  0  0
  8  9  1  0  0  0  0
  9 13  1  0  0  0  0
  9 10  2  0  0  0  0
 10 11  1  0  0  0  0
 11 12  2  0  0  0  0
 12 13  1  0  0  0  0
 12 36  1  0  0  0  0
 13 14  1  0  0  0  0
 14 15  1  0  0  0  0
 14 37  1  0  0  0  0
 14 38  1  0  0  0  0
 15 20  1  0  0  0  0
 15 16  1  0  0  0  0
 15 18  1  0  0  0  0
 16 17  1  0  0  0  0
 16 39  1  0  0  0  0
 16 40  1  0  0  0  0
 17 41  1  0  0  0  0
 18 19  1  0  0  0  0
 18 42  1  0  0  0  0
 18 43  1  0  0  0  0
 19 20  1  0  0  0  0
 20 44  1  0  0  0  0
 20 45  1  0  0  0  0
 21 22  1  0  0  0  0
 21 46  1  0  0  0  0
 21 47  1  0  0  0  0
 22 23  1  0  0  0  0
 22 48  1  0  0  0  0
 22 49  1  0  0  0  0
 23 24  1  0  0  0  0
 23 59  1  0  0  0  0
 24 25  1  0  0  0  0
 24 50  1  0  0  0  0
 24 51  1  0  0  0  0
 25 26  1  0  0  0  0
 25 27  1  0  0  0  0
 25 28  1  0  0  0  0
 26 52  1  0  0  0  0
 26 53  1  0  0  0  0
 26 54  1  0  0  0  0
 27 55  1  0  0  0  0
 27 56  1  0  0  0  0
 27 57  1  0  0  0  0
 28 58  1  0  0  0  0
M  CHG  1  23   1
M  END
> <s_m_source_file>
AV-unprocessed.smi

> <i_m_source_file_index>
280

> <i_lp_mmshare_version>
43012

> <i_f3d_flags>
0

> <s_epik_input>
W0NIM11DKFtDSDNdKShbT0hdKVtDSDJdTjFbQ0gyXVtDSDJdTihbQ0gyXVtDQEhdMVtDSDNdKWMobltjSF1uMiljKGMyMyluW2NIXW4zW0NIMl1DNChbQ0gyXVtPSF0pW0NIMl1PW0NIMl00

> <s_epik_cmdline>
J2VwaWtfcHl0aG9uJywgJy1waCcsICc3LjAnLCAnLXRuJywgJzgnLCAnLW1hJywgJzIwMCcsICctbWV0YWxfYmluZGluZycsICctaW1hZScsICc8aW5maWxlLm1hZT4nLCAnLW9tYWUnLCAnPG91dGZpbGUubWFlPic=

> <r_lp_tautomer_probability>
1

> <r_epik_Ionization_Penalty>
0.00179402

> <r_epik_Ionization_Penalty_Charging>
0.00173996

> <r_epik_Ionization_Penalty_Neutral>
5.40607e-05

> <r_epik_State_Penalty>
-0

> <r_epik_Charging_Adjusted_Penalty>
0.00173996

> <i_epik_Tot_Q>
1

> <i_epik_Tot_abs_Q>
1

> <r_epik_Metal_State_Penalty>
-0

> <b_epik_Metal_Only>
0

> <s_lp_Force_Field>
OPLS_2005

> <r_lp_Energy>
54.8934

> <b_lp_Chiralities_Consistent>
1

> <s_lp_Variant>
AV-unprocessed.smi:280-2

> <Gold.Version>
5.8.1

> <Gold.Id.Protein>
6NUR|6NUR_protein|mol2

> <Gold.PLP.Fitness>
41.5220

> <Gold.PLP.PLP>
-34.5271

> <Gold.PLP.part.hbond>
-2.0000

> <Gold.PLP.part.metal>
0.0000

> <Gold.PLP.part.buried>
-2.7419

> <Gold.PLP.part.nonpolar>
-29.7281

> <Gold.PLP.part.repulsive>
0.3757

> <Gold.PLP.ligand.clash>
0.0000

> <Gold.PLP.ligand.torsion>
1.4620

> <Gold.PLP.Chemscore.Hbond>
2.0000

> <Gold.PLP.Chemscore.CHOScore>
1.0000

> <Gold.PLP.Chemscore.Metal>
0.0000

> <Gold.Chemscore.Hbonds>
donor molecule, donor type, donor heavy atom, donor atom, acceptor molecule, acceptor atom, score
      L1  H    17    41       P1  8028  1.00
      L1  H    28    58       P1 10747  1.00
      L1  C    12    36       P1  7957  0.99

> <Gold.PLP.Chemscore.Internal.Correction>
0.9188

> <Gold.Rescore>
     Score         DG    S(hbond)    S(metal)    S(lipo)     H(rot)  DE(clash)    DE(int)     intcor
     11.23     -13.54       2.00        0.00      84.10       3.30       0.02       2.29       ----

> <Gold.Chemscore.Fitness>
11.2318

> <Gold.Chemscore.DG>
-13.5408

> <Gold.Chemscore.ZeroCoef>
-5.4800

> <Gold.Chemscore.Hbond>
1.9962

> <Gold.Chemscore.Metal>
0.0000

> <Gold.Chemscore.Lipo>
84.0957

> <Gold.Chemscore.Internal_Hbond>
0.0000

> <Gold.Chemscore.DEClash>
0.0224

> <Gold.Chemscore.DEInternal>
2.2865

> <Gold.Chemscore.Rot>
3.2991

> <Gold.Chemscore.Internal.Correction>
   9.000000E+99

> <Gold.Chemscore.Hbonds>
donor molecule, donor type, donor heavy atom, donor atom, acceptor molecule, acceptor atom, score
      L1  H    17    41       P1  8028  1.00
      L1  H    28    58       P1 10747  0.99

> <Gold.Chemscore.Hbond.Weighted>
-6.6672

> <Gold.Chemscore.Metal.Weighted>
-0.0000

> <Gold.Chemscore.Lipo.Weighted>
-9.8392

> <Gold.Chemscore.Internal_Hbond.Weighted>
0.0000

> <Gold.Chemscore.DEClash.Weighted>
0.0224

> <Gold.Chemscore.DEInternal.Weighted>
2.2865

> <Gold.Chemscore.Rot.Weighted>
8.4456

> <Gold.Chemscore.Internal.Correction.Weighted>
   9.000000E+99

> <Gold.Protein.RotatedTorsions>
[ 6907 6896 6895 6894 ] final   82.78 input  -60.11 | X-H torsion
[ 7974 7965 7964 7962 ] final   74.24 input  175.53 | X-H torsion
[ 8008 7997 7996 7995 ] final  152.22 input   59.86 | X-H torsion
[ 10167 10162 10161 10158 ] final   59.47 input  -65.29 | X-H torsion
[ 10718 10713 10712 10709 ] final  -94.45 input   66.30 | X-H torsion
[ 10763 10752 10751 10750 ] final -120.18 input  -60.55 | X-H torsion
[ 11005 11000 10999 10996 ] final  177.67 input  -57.11 | X-H torsion

> <Gold.Protein.ActiveResidues>
 VAL166  LYS551  ARG553  GLY616  TRP617  ASP618  TYR619  PRO620  LYS621  CYS622 
 ASP623  PHE694  ASN695  SER759  ASP760  ASP761  ALA762  ILE779  LEU786  VAL792 
 PHE793  MET794  SER795  GLU796  ALA797  LYS798  CYS799  TRP800  GLU811  SER814 

> <Gold.Protein.RotatedAtoms>
  152.5309  134.2997  159.9073 H   0  0  0  0  0  0  0  0  0  0  0  0  # atno 6907 bound_to 6896
  151.2948  133.4142  159.2643 H   0  0  0  0  0  0  0  0  0  0  0  0  # atno 6908 bound_to 6896
  151.0170  134.9456  159.8095 H   0  0  0  0  0  0  0  0  0  0  0  0  # atno 6909 bound_to 6896
  145.7308  139.2683  143.1542 H   0  0  0  0  0  0  0  0  0  0  0  0  # atno 7974 bound_to 7965
  156.2639  140.2026  156.6299 H   0  0  0  0  0  0  0  0  0  0  0  0  # atno 8008 bound_to 7997
  154.6691  140.0552  157.0170 H   0  0  0  0  0  0  0  0  0  0  0  0  # atno 8009 bound_to 7997
  155.1164  140.3220  155.4511 H   0  0  0  0  0  0  0  0  0  0  0  0  # atno 8010 bound_to 7997
  140.1760  144.4229  150.6638 H   0  0  0  0  0  0  0  0  0  0  0  0  # atno 10167 bound_to 10162
  156.0027  130.5068  150.5929 H   0  0  0  0  0  0  0  0  0  0  0  0  # atno 10718 bound_to 10713
  154.8637  135.4212  154.2417 H   0  0  0  0  0  0  0  0  0  0  0  0  # atno 10763 bound_to 10752
  153.3381  135.6992  153.6896 H   0  0  0  0  0  0  0  0  0  0  0  0  # atno 10764 bound_to 10752
  153.5885  135.3559  155.2875 H   0  0  0  0  0  0  0  0  0  0  0  0  # atno 10765 bound_to 10752
  140.3867  134.6898  157.4483 H   0  0  0  0  0  0  0  0  0  0  0  0  # atno 11005 bound_to 11000
  146.0540  140.8040  142.9768 LP  0  0  0  0  0  0  0  0  0  0  0  0  # atno 17320 bound_to 7965
  144.6893  140.3095  143.7250 LP  0  0  0  0  0  0  0  0  0  0  0  0  # atno 17321 bound_to 7965
  140.6551  143.2235  151.5988 LP  0  0  0  0  0  0  0  0  0  0  0  0  # atno 17342 bound_to 10162
  139.5317  144.2898  152.1162 LP  0  0  0  0  0  0  0  0  0  0  0  0  # atno 17343 bound_to 10162
  157.3791  131.0778  151.1493 LP  0  0  0  0  0  0  0  0  0  0  0  0  # atno 17370 bound_to 10713
  157.2221  130.6486  149.5815 LP  0  0  0  0  0  0  0  0  0  0  0  0  # atno 17371 bound_to 10713
  140.0437  134.6230  155.8948 LP  0  0  0  0  0  0  0  0  0  0  0  0  # atno 17394 bound_to 11000
  141.1905  133.6568  156.5414 LP  0  0  0  0  0  0  0  0  0  0  0  0  # atno 17395 bound_to 11000

$$$$
