AV-unprocessed.smi:690|AV-procd|sdf|3363|dock1
  -GOLD-   22720 0343D 1   1.00000     0.00000
 Structure written by MMmdl.
 46 48  0  0  0  0  0  0  0  0  1 V2000
  145.4805  137.8272  153.0592 C   0  0  0  0  0  0  0  0  0  0  0  0
  146.4637  138.9024  152.5924 C   0  0  0  0  0  0  0  0  0  0  0  0
  146.2736  140.0690  153.3747 O   0  0  0  0  0  0  0  0  0  0  0  0
  147.2669  140.2274  154.3755 C   0  0  1  0  0  0  0  0  0  0  0  0
  148.7078  140.2206  153.8548 C   0  0  0  0  0  0  0  0  0  0  0  0
  148.9945  141.3595  154.8401 C   0  0  2  0  0  0  0  0  0  0  0  0
  149.4465  140.8342  156.1274 N   0  0  0  0  0  0  0  0  0  0  0  0
  150.6793  140.3699  156.3875 C   0  0  0  0  0  0  0  0  0  0  0  0
  151.5633  140.3146  155.5338 O   0  0  0  0  0  0  0  0  0  0  0  0
  150.9942  139.9120  157.8221 C   0  0  0  0  0  0  0  0  0  0  0  0
  151.8755  140.8193  158.5795 N   0  0  0  0  0  0  0  0  0  0  0  0
  151.3737  142.1063  158.8580 C   0  0  0  0  0  0  0  0  0  0  0  0
  152.0815  143.0096  159.5540 C   0  0  0  0  0  0  0  0  0  0  0  0
  153.3950  142.6340  160.0208 C   0  0  0  0  0  0  0  0  0  0  0  0
  153.8831  141.4041  159.7638 C   0  0  0  0  0  0  0  0  0  0  0  0
  153.1094  140.4109  159.0097 C   0  0  0  0  0  0  0  0  0  0  0  0
  153.5402  139.2796  158.7864 O   0  0  0  0  0  0  0  0  0  0  0  0
  147.4801  141.6959  154.8177 C   0  0  0  0  0  0  0  0  0  0  0  0
  146.7807  142.1469  156.0985 C   0  0  0  0  0  0  0  0  0  0  0  0
  145.4338  142.7406  155.6818 C   0  0  0  0  0  0  0  0  0  0  0  0
  145.6188  143.2060  154.2341 C   0  0  0  0  0  0  0  0  0  0  0  0
  147.0389  142.7874  153.8392 C   0  0  0  0  0  0  0  0  0  0  0  0
  145.6026  136.9104  152.4822 H   0  0  0  0  0  0  0  0  0  0  0  0
  144.4497  138.1625  152.9412 H   0  0  0  0  0  0  0  0  0  0  0  0
  145.6364  137.5847  154.1106 H   0  0  0  0  0  0  0  0  0  0  0  0
  147.4881  138.5422  152.6996 H   0  0  0  0  0  0  0  0  0  0  0  0
  146.2990  139.1218  151.5365 H   0  0  0  0  0  0  0  0  0  0  0  0
  147.1249  139.5581  155.2273 H   0  0  0  0  0  0  0  0  0  0  0  0
  149.2549  139.2947  154.0357 H   0  0  0  0  0  0  0  0  0  0  0  0
  148.7852  140.5350  152.8127 H   0  0  0  0  0  0  0  0  0  0  0  0
  149.6333  142.1377  154.4191 H   0  0  0  0  0  0  0  0  0  0  0  0
  148.7771  140.8461  156.8830 H   0  0  0  0  0  0  0  0  0  0  0  0
  150.0518  139.7579  158.3504 H   0  0  0  0  0  0  0  0  0  0  0  0
  151.4479  138.9213  157.7672 H   0  0  0  0  0  0  0  0  0  0  0  0
  150.3812  142.3039  158.4790 H   0  0  0  0  0  0  0  0  0  0  0  0
  151.6781  143.9898  159.7621 H   0  0  0  0  0  0  0  0  0  0  0  0
  153.9891  143.3426  160.5788 H   0  0  0  0  0  0  0  0  0  0  0  0
  154.8678  141.1410  160.1218 H   0  0  0  0  0  0  0  0  0  0  0  0
  146.6516  141.3354  156.8155 H   0  0  0  0  0  0  0  0  0  0  0  0
  147.3739  142.9162  156.5948 H   0  0  0  0  0  0  0  0  0  0  0  0
  144.6601  141.9732  155.7242 H   0  0  0  0  0  0  0  0  0  0  0  0
  145.1293  143.5528  156.3423 H   0  0  0  0  0  0  0  0  0  0  0  0
  144.8847  142.7202  153.5903 H   0  0  0  0  0  0  0  0  0  0  0  0
  145.4824  144.2832  154.1321 H   0  0  0  0  0  0  0  0  0  0  0  0
  147.7016  143.6494  153.9261 H   0  0  0  0  0  0  0  0  0  0  0  0
  147.0837  142.4682  152.7974 H   0  0  0  0  0  0  0  0  0  0  0  0
  1  2  1  0  0  0  0
  1 23  1  0  0  0  0
  1 24  1  0  0  0  0
  1 25  1  0  0  0  0
  2  3  1  0  0  0  0
  2 26  1  0  0  0  0
  2 27  1  0  0  0  0
  3  4  1  0  0  0  0
  4 18  1  0  0  0  0
  4  5  1  0  0  0  0
  4 28  1  0  0  0  0
  5  6  1  0  0  0  0
  5 29  1  0  0  0  0
  5 30  1  0  0  0  0
  6  7  1  0  0  0  0
  6 18  1  0  0  0  0
  6 31  1  0  0  0  0
  7  8  1  0  0  0  0
  7 32  1  0  0  0  0
  8  9  2  0  0  0  0
  8 10  1  0  0  0  0
 10 11  1  0  0  0  0
 10 33  1  0  0  0  0
 10 34  1  0  0  0  0
 11 16  1  0  0  0  0
 11 12  1  0  0  0  0
 12 13  2  0  0  0  0
 12 35  1  0  0  0  0
 13 14  1  0  0  0  0
 13 36  1  0  0  0  0
 14 15  2  0  0  0  0
 14 37  1  0  0  0  0
 15 16  1  0  0  0  0
 15 38  1  0  0  0  0
 16 17  2  0  0  0  0
 18 22  1  0  0  0  0
 18 19  1  0  0  0  0
 19 20  1  0  0  0  0
 19 39  1  0  0  0  0
 19 40  1  0  0  0  0
 20 21  1  0  0  0  0
 20 41  1  0  0  0  0
 20 42  1  0  0  0  0
 21 22  1  0  0  0  0
 21 43  1  0  0  0  0
 21 44  1  0  0  0  0
 22 45  1  0  0  0  0
 22 46  1  0  0  0  0
M  END
> <s_m_source_file>
AV-unprocessed.smi

> <i_m_source_file_index>
690

> <i_lp_mmshare_version>
43012

> <i_f3d_flags>
0

> <s_epik_input>
W0NIMl0xW0NIMl1bQ0gyXVtDSDJdQzEyW0NASF0oT1tDSDJdW0NIM10pW0NIMl1bQ0BIXTJbTkhdQyg9TylbQ0gyXW4zW2NIXVtjSF1bY0hdW2NIXWMzPU8=

> <s_epik_cmdline>
J2VwaWtfcHl0aG9uJywgJy1waCcsICc3LjAnLCAnLXRuJywgJzgnLCAnLW1hJywgJzIwMCcsICctbWV0YWxfYmluZGluZycsICctaW1hZScsICc8aW5maWxlLm1hZT4nLCAnLW9tYWUnLCAnPG91dGZpbGUubWFlPic=

> <r_lp_tautomer_probability>
1

> <r_epik_Ionization_Penalty>
4.11691e-07

> <r_epik_Ionization_Penalty_Charging>
3.92797e-07

> <r_epik_Ionization_Penalty_Neutral>
1.88943e-08

> <r_epik_State_Penalty>
-0

> <r_epik_Charging_Adjusted_Penalty>
3.92797e-07

> <i_epik_Tot_Q>
0

> <i_epik_Tot_abs_Q>
0

> <r_epik_Metal_State_Penalty>
-0

> <b_epik_Metal_Only>
0

> <s_lp_Force_Field>
OPLS_2005

> <r_lp_Energy>
47.2811

> <b_lp_Chiralities_Consistent>
1

> <s_lp_Variant>
AV-unprocessed.smi:690-4

> <Gold.Version>
5.8.1

> <Gold.Id.Protein>
6NUR|6NUR_protein|mol2

> <Gold.PLP.Fitness>
44.3140

> <Gold.PLP.PLP>
-40.1915

> <Gold.PLP.part.hbond>
-2.0000

> <Gold.PLP.part.metal>
0.0000

> <Gold.PLP.part.buried>
0.6417

> <Gold.PLP.part.nonpolar>
-39.8922

> <Gold.PLP.part.repulsive>
1.7462

> <Gold.PLP.ligand.clash>
0.0000

> <Gold.PLP.ligand.torsion>
0.7259

> <Gold.PLP.Chemscore.Hbond>
1.7200

> <Gold.PLP.Chemscore.CHOScore>
0.0000

> <Gold.PLP.Chemscore.Metal>
0.0000

> <Gold.Chemscore.Hbonds>
donor molecule, donor type, donor heavy atom, donor atom, acceptor molecule, acceptor atom, score
      P1  H  7989  7998       L1     9  0.73
      P1  H  7997  8008       L1    17  0.31

> <Gold.PLP.Chemscore.Internal.Correction>
0.4142

> <Gold.Rescore>
     Score         DG    S(hbond)    S(metal)    S(lipo)     H(rot)  DE(clash)    DE(int)     intcor
     13.31     -15.82       0.87        0.00     100.62       1.69       2.00       0.51       ----

> <Gold.Chemscore.Fitness>
13.3061

> <Gold.Chemscore.DG>
-15.8162

> <Gold.Chemscore.ZeroCoef>
-5.4800

> <Gold.Chemscore.Hbond>
0.8655

> <Gold.Chemscore.Metal>
0.0000

> <Gold.Chemscore.Lipo>
100.6151

> <Gold.Chemscore.Internal_Hbond>
0.0000

> <Gold.Chemscore.DEClash>
2.0044

> <Gold.Chemscore.DEInternal>
0.5056

> <Gold.Chemscore.Rot>
1.6900

> <Gold.Chemscore.Internal.Correction>
   9.000000E+99

> <Gold.Chemscore.Hbonds>
donor molecule, donor type, donor heavy atom, donor atom, acceptor molecule, acceptor atom, score
      P1  H  7989  7998       L1     9  0.70
      P1  H  7997  8008       L1    17  0.01

> <Gold.Chemscore.Hbond.Weighted>
-2.8907

> <Gold.Chemscore.Metal.Weighted>
-0.0000

> <Gold.Chemscore.Lipo.Weighted>
-11.7720

> <Gold.Chemscore.Internal_Hbond.Weighted>
0.0000

> <Gold.Chemscore.DEClash.Weighted>
2.0044

> <Gold.Chemscore.DEInternal.Weighted>
0.5056

> <Gold.Chemscore.Rot.Weighted>
4.3265

> <Gold.Chemscore.Internal.Correction.Weighted>
   9.000000E+99

> <Gold.Protein.RotatedTorsions>
[ 6907 6896 6895 6894 ] final  141.93 input  -60.11 | X-H torsion
[ 7974 7965 7964 7962 ] final  -50.16 input  175.53 | X-H torsion
[ 8008 7997 7996 7995 ] final  -85.37 input   59.86 | X-H torsion
[ 10167 10162 10161 10158 ] final -145.39 input  -65.29 | X-H torsion
[ 10718 10713 10712 10709 ] final  -57.90 input   66.30 | X-H torsion
[ 10763 10752 10751 10750 ] final  111.98 input  -60.55 | X-H torsion
[ 11005 11000 10999 10996 ] final  -12.64 input  -57.11 | X-H torsion

> <Gold.Protein.ActiveResidues>
 VAL166  LYS551  ARG553  GLY616  TRP617  ASP618  TYR619  PRO620  LYS621  CYS622 
 ASP623  PHE694  ASN695  SER759  ASP760  ASP761  ALA762  ILE779  LEU786  VAL792 
 PHE793  MET794  SER795  GLU796  ALA797  LYS798  CYS799  TRP800  GLU811  SER814 

> <Gold.Protein.RotatedAtoms>
  152.2250  133.5013  159.5183 H   0  0  0  0  0  0  0  0  0  0  0  0  # atno 6907 bound_to 6896
  150.7022  134.1293  159.4072 H   0  0  0  0  0  0  0  0  0  0  0  0  # atno 6908 bound_to 6896
  151.9213  135.0296  160.0573 H   0  0  0  0  0  0  0  0  0  0  0  0  # atno 6909 bound_to 6896
  145.9328  140.7734  142.9591 H   0  0  0  0  0  0  0  0  0  0  0  0  # atno 7974 bound_to 7965
  154.6400  140.0592  156.9834 H   0  0  0  0  0  0  0  0  0  0  0  0  # atno 8008 bound_to 7997
  155.1531  140.3276  155.4408 H   0  0  0  0  0  0  0  0  0  0  0  0  # atno 8009 bound_to 7997
  156.2526  140.1944  156.6642 H   0  0  0  0  0  0  0  0  0  0  0  0  # atno 8010 bound_to 7997
  139.7810  143.8100  152.2638 H   0  0  0  0  0  0  0  0  0  0  0  0  # atno 10167 bound_to 10162
  156.1176  130.4169  150.0503 H   0  0  0  0  0  0  0  0  0  0  0  0  # atno 10718 bound_to 10713
  153.4712  135.3700  155.2392 H   0  0  0  0  0  0  0  0  0  0  0  0  # atno 10763 bound_to 10752
  154.8757  135.3932  154.3810 H   0  0  0  0  0  0  0  0  0  0  0  0  # atno 10764 bound_to 10752
  153.4398  135.7084  153.6241 H   0  0  0  0  0  0  0  0  0  0  0  0  # atno 10765 bound_to 10752
  140.7678  133.8463  155.9180 H   0  0  0  0  0  0  0  0  0  0  0  0  # atno 11005 bound_to 11000
  144.6767  140.2154  143.7372 LP  0  0  0  0  0  0  0  0  0  0  0  0  # atno 17320 bound_to 7965
  145.8404  139.2127  143.1831 LP  0  0  0  0  0  0  0  0  0  0  0  0  # atno 17321 bound_to 7965
  139.8163  144.7314  150.9630 LP  0  0  0  0  0  0  0  0  0  0  0  0  # atno 17342 bound_to 10162
  140.7818  143.4202  151.0854 LP  0  0  0  0  0  0  0  0  0  0  0  0  # atno 17343 bound_to 10162
  156.8450  130.9439  151.3629 LP  0  0  0  0  0  0  0  0  0  0  0  0  # atno 17370 bound_to 10713
  157.6359  130.8766  149.9358 LP  0  0  0  0  0  0  0  0  0  0  0  0  # atno 17371 bound_to 10713
  140.9603  134.1665  157.4659 LP  0  0  0  0  0  0  0  0  0  0  0  0  # atno 17394 bound_to 11000
  139.8760  134.9942  156.5682 LP  0  0  0  0  0  0  0  0  0  0  0  0  # atno 17395 bound_to 11000

$$$$
