AV-unprocessed.smi:1118|AV-procd|sdf|4814|dock10
  -GOLD-   22720 3363D 1   1.00000     0.00000
 Structure written by MMmdl.
 45 46  0  0  0  0  0  0  0  0  2 V2000
  144.9626  132.5472  149.7249 C   0  0  0  0  0  0  0  0  0  0  0  0
  145.0202  133.1014  151.0277 O   0  0  0  0  0  0  0  0  0  0  0  0
  145.9099  134.2025  151.1119 C   0  0  0  0  0  0  0  0  0  0  0  0
  145.9176  134.7250  152.5567 C   0  0  0  0  0  0  0  0  0  0  0  0
  146.4421  136.1108  152.6562 N   0  3  2  0  0  0  0  0  0  0  0  0
  146.3393  136.6530  154.0347 C   0  0  0  0  0  0  0  0  0  0  0  0
  147.0214  138.0266  154.1432 C   0  0  0  0  0  0  0  0  0  0  0  0
  146.4321  139.0316  153.1382 C   0  0  1  0  0  0  0  0  0  0  0  0
  147.1316  140.4023  153.2525 C   0  0  0  0  0  0  0  0  0  0  0  0
  148.5350  140.2653  153.6271 N   0  0  0  0  0  0  0  0  0  0  0  0
  149.0470  140.5154  154.8423 C   0  0  0  0  0  0  0  0  0  0  0  0
  148.3894  140.9631  155.7816 O   0  0  0  0  0  0  0  0  0  0  0  0
  150.5222  140.1686  155.0383 C   0  0  0  0  0  0  0  0  0  0  0  0
  150.9932  140.6601  156.3207 N   0  0  0  0  0  0  0  0  0  0  0  0
  150.9506  141.9486  156.8115 C   0  0  0  0  0  0  0  0  0  0  0  0
  151.4902  141.9238  158.0655 C   0  0  0  0  0  0  0  0  0  0  0  0
  151.8385  140.5575  158.2571 C   0  0  0  0  0  0  0  0  0  0  0  0
  151.5380  139.8029  157.2126 N   0  0  0  0  0  0  0  0  0  0  0  0
  146.5096  138.4241  151.7223 C   0  0  0  0  0  0  0  0  0  0  0  0
  145.8426  137.0402  151.6630 C   0  0  0  0  0  0  0  0  0  0  0  0
  144.2691  131.7062  149.7147 H   0  0  0  0  0  0  0  0  0  0  0  0
  145.9402  132.1809  149.4085 H   0  0  0  0  0  0  0  0  0  0  0  0
  144.6116  133.2815  148.9987 H   0  0  0  0  0  0  0  0  0  0  0  0
  146.9089  133.9176  150.7815 H   0  0  0  0  0  0  0  0  0  0  0  0
  145.5682  134.9951  150.4444 H   0  0  0  0  0  0  0  0  0  0  0  0
  144.9147  134.6817  152.9838 H   0  0  0  0  0  0  0  0  0  0  0  0
  146.5336  134.0514  153.1543 H   0  0  0  0  0  0  0  0  0  0  0  0
  145.2891  136.7282  154.3216 H   0  0  0  0  0  0  0  0  0  0  0  0
  146.8120  135.9658  154.7374 H   0  0  0  0  0  0  0  0  0  0  0  0
  146.9122  138.4076  155.1594 H   0  0  0  0  0  0  0  0  0  0  0  0
  148.0929  137.9149  153.9697 H   0  0  0  0  0  0  0  0  0  0  0  0
  145.3789  139.1737  153.3862 H   0  0  0  0  0  0  0  0  0  0  0  0
  147.0992  140.9123  152.2893 H   0  0  0  0  0  0  0  0  0  0  0  0
  146.5971  141.0463  153.9530 H   0  0  0  0  0  0  0  0  0  0  0  0
  149.1585  139.8974  152.9227 H   0  0  0  0  0  0  0  0  0  0  0  0
  150.6729  139.0891  154.9827 H   0  0  0  0  0  0  0  0  0  0  0  0
  151.1201  140.6195  154.2450 H   0  0  0  0  0  0  0  0  0  0  0  0
  150.5416  142.7651  156.2343 H   0  0  0  0  0  0  0  0  0  0  0  0
  151.6166  142.7551  158.7432 H   0  0  0  0  0  0  0  0  0  0  0  0
  152.2962  140.0944  159.1188 H   0  0  0  0  0  0  0  0  0  0  0  0
  146.0216  139.0775  150.9986 H   0  0  0  0  0  0  0  0  0  0  0  0
  147.5520  138.3427  151.4107 H   0  0  0  0  0  0  0  0  0  0  0  0
  145.9513  136.6424  150.6548 H   0  0  0  0  0  0  0  0  0  0  0  0
  144.7718  137.1342  151.8505 H   0  0  0  0  0  0  0  0  0  0  0  0
  147.4298  136.0540  152.4508 H   0  0  0  0  0  0  0  0  0  0  0  0
  1  2  1  0  0  0  0
  1 21  1  0  0  0  0
  1 22  1  0  0  0  0
  1 23  1  0  0  0  0
  2  3  1  0  0  0  0
  3  4  1  0  0  0  0
  3 24  1  0  0  0  0
  3 25  1  0  0  0  0
  4  5  1  0  0  0  0
  4 26  1  0  0  0  0
  4 27  1  0  0  0  0
  5 20  1  0  0  0  0
  5  6  1  0  0  0  0
  5 45  1  0  0  0  0
  6  7  1  0  0  0  0
  6 28  1  0  0  0  0
  6 29  1  0  0  0  0
  7  8  1  0  0  0  0
  7 30  1  0  0  0  0
  7 31  1  0  0  0  0
  8  9  1  0  0  0  0
  8 19  1  0  0  0  0
  8 32  1  0  0  0  0
  9 10  1  0  0  0  0
  9 33  1  0  0  0  0
  9 34  1  0  0  0  0
 10 11  1  0  0  0  0
 10 35  1  0  0  0  0
 11 12  2  0  0  0  0
 11 13  1  0  0  0  0
 13 14  1  0  0  0  0
 13 36  1  0  0  0  0
 13 37  1  0  0  0  0
 14 18  1  0  0  0  0
 14 15  1  0  0  0  0
 15 16  2  0  0  0  0
 15 38  1  0  0  0  0
 16 17  1  0  0  0  0
 16 39  1  0  0  0  0
 17 18  2  0  0  0  0
 17 40  1  0  0  0  0
 19 20  1  0  0  0  0
 19 41  1  0  0  0  0
 19 42  1  0  0  0  0
 20 43  1  0  0  0  0
 20 44  1  0  0  0  0
M  CHG  1   5   1
M  END
> <s_m_source_file>
AV-unprocessed.smi

> <i_m_source_file_index>
1118

> <i_lp_mmshare_version>
43012

> <i_f3d_flags>
0

> <s_epik_input>
W0NIM11PW0NIMl1bQ0gyXU4xW0NIMl1bQ0gyXVtDSF0oW0NIMl1bQ0gyXTEpW0NIMl1bTkhdQyg9TylbQ0gyXW4yW2NIXVtjSF1bY0hdbjI=

> <s_epik_cmdline>
J2VwaWtfcHl0aG9uJywgJy1waCcsICc3LjAnLCAnLXRuJywgJzgnLCAnLW1hJywgJzIwMCcsICctbWV0YWxfYmluZGluZycsICctaW1hZScsICc8aW5maWxlLm1hZT4nLCAnLW9tYWUnLCAnPG91dGZpbGUubWFlPic=

> <r_lp_tautomer_probability>
1

> <r_epik_Ionization_Penalty>
0.00991549

> <r_epik_Ionization_Penalty_Charging>
0.00990284

> <r_epik_Ionization_Penalty_Neutral>
1.26554e-05

> <r_epik_State_Penalty>
0.00754525

> <r_epik_Charging_Adjusted_Penalty>
0.0174481

> <i_epik_Tot_Q>
1

> <i_epik_Tot_abs_Q>
1

> <r_epik_Metal_State_Penalty>
0.00754527

> <b_epik_Metal_Only>
0

> <s_lp_Force_Field>
OPLS_2005

> <r_lp_Energy>
19.0863

> <b_lp_Chiralities_Consistent>
1

> <s_lp_Variant>
AV-unprocessed.smi:1118-1

> <Gold.Version>
5.8.1

> <Gold.Id.Protein>
6NUR|6NUR_protein|mol2

> <Gold.PLP.Fitness>
43.7812

> <Gold.PLP.PLP>
-33.2233

> <Gold.PLP.part.hbond>
-2.0000

> <Gold.PLP.part.metal>
0.0000

> <Gold.PLP.part.buried>
0.1569

> <Gold.PLP.part.nonpolar>
-31.8485

> <Gold.PLP.part.repulsive>
0.3402

> <Gold.PLP.ligand.clash>
0.0000

> <Gold.PLP.ligand.torsion>
0.6728

> <Gold.PLP.Chemscore.Hbond>
2.9280

> <Gold.PLP.Chemscore.CHOScore>
1.0000

> <Gold.PLP.Chemscore.Metal>
0.0000

> <Gold.Chemscore.Hbonds>
donor molecule, donor type, donor heavy atom, donor atom, acceptor molecule, acceptor atom, score
      L1  H     5    45       P1  7948  2.00
      L1  H    10    35       P1  7957  0.86
      L1  C    15    38       P1  8028  0.77

> <Gold.PLP.Chemscore.Internal.Correction>
0.1196

> <Gold.Rescore>
     Score         DG    S(hbond)    S(metal)    S(lipo)     H(rot)  DE(clash)    DE(int)     intcor
     13.24     -15.51       1.88        0.00      80.63       2.22       0.36       1.91       ----

> <Gold.Chemscore.Fitness>
13.2432

> <Gold.Chemscore.DG>
-15.5109

> <Gold.Chemscore.ZeroCoef>
-5.4800

> <Gold.Chemscore.Hbond>
1.8778

> <Gold.Chemscore.Metal>
0.0000

> <Gold.Chemscore.Lipo>
80.6283

> <Gold.Chemscore.Internal_Hbond>
0.0000

> <Gold.Chemscore.DEClash>
0.3606

> <Gold.Chemscore.DEInternal>
1.9071

> <Gold.Chemscore.Rot>
2.2166

> <Gold.Chemscore.Internal.Correction>
   9.000000E+99

> <Gold.Chemscore.Hbonds>
donor molecule, donor type, donor heavy atom, donor atom, acceptor molecule, acceptor atom, score
      L1  H     5    45       P1  7948  0.99
      L1  H    10    35       P1  7957  0.85

> <Gold.Chemscore.Hbond.Weighted>
-6.2719

> <Gold.Chemscore.Metal.Weighted>
-0.0000

> <Gold.Chemscore.Lipo.Weighted>
-9.4335

> <Gold.Chemscore.Internal_Hbond.Weighted>
0.0000

> <Gold.Chemscore.DEClash.Weighted>
0.3606

> <Gold.Chemscore.DEInternal.Weighted>
1.9071

> <Gold.Chemscore.Rot.Weighted>
5.6745

> <Gold.Chemscore.Internal.Correction.Weighted>
   9.000000E+99

> <Gold.Protein.RotatedTorsions>
[ 6907 6896 6895 6894 ] final  -50.70 input  -60.11 | X-H torsion
[ 7974 7965 7964 7962 ] final  -36.30 input  175.53 | X-H torsion
[ 8008 7997 7996 7995 ] final   54.73 input   59.86 | X-H torsion
[ 10167 10162 10161 10158 ] final -126.09 input  -65.29 | X-H torsion
[ 10718 10713 10712 10709 ] final  155.00 input   66.30 | X-H torsion
[ 10763 10752 10751 10750 ] final -136.98 input  -60.55 | X-H torsion
[ 11005 11000 10999 10996 ] final   35.08 input  -57.11 | X-H torsion

> <Gold.Protein.ActiveResidues>
 VAL166  LYS551  ARG553  GLY616  TRP617  ASP618  TYR619  PRO620  LYS621  CYS622 
 ASP623  PHE694  ASN695  SER759  ASP760  ASP761  ALA762  ILE779  LEU786  VAL792 
 PHE793  MET794  SER795  GLU796  ALA797  LYS798  CYS799  TRP800  GLU811  SER814 

> <Gold.Protein.RotatedAtoms>
  150.8682  134.8050  159.7134 H   0  0  0  0  0  0  0  0  0  0  0  0  # atno 6907 bound_to 6896
  152.4696  134.4989  159.9728 H   0  0  0  0  0  0  0  0  0  0  0  0  # atno 6908 bound_to 6896
  151.5082  133.3452  159.2916 H   0  0  0  0  0  0  0  0  0  0  0  0  # atno 6909 bound_to 6896
  146.0674  140.6261  142.8969 H   0  0  0  0  0  0  0  0  0  0  0  0  # atno 7974 bound_to 7965
  155.4895  140.3471  155.4352 H   0  0  0  0  0  0  0  0  0  0  0  0  # atno 8008 bound_to 7997
  156.0986  140.1429  156.9526 H   0  0  0  0  0  0  0  0  0  0  0  0  # atno 8009 bound_to 7997
  154.4679  140.0911  156.7046 H   0  0  0  0  0  0  0  0  0  0  0  0  # atno 8010 bound_to 7997
  139.9752  143.5802  152.2398 H   0  0  0  0  0  0  0  0  0  0  0  0  # atno 10167 bound_to 10162
  157.2241  131.0725  151.1894 H   0  0  0  0  0  0  0  0  0  0  0  0  # atno 10718 bound_to 10713
  154.8672  135.3656  154.5148 H   0  0  0  0  0  0  0  0  0  0  0  0  # atno 10763 bound_to 10752
  153.5781  135.7019  153.5480 H   0  0  0  0  0  0  0  0  0  0  0  0  # atno 10764 bound_to 10752
  153.3481  135.4079  155.1587 H   0  0  0  0  0  0  0  0  0  0  0  0  # atno 10765 bound_to 10752
  140.2463  134.3355  155.7906 H   0  0  0  0  0  0  0  0  0  0  0  0  # atno 11005 bound_to 11000
  144.7210  140.4374  143.7008 LP  0  0  0  0  0  0  0  0  0  0  0  0  # atno 17320 bound_to 7965
  145.6453  139.1556  143.2892 LP  0  0  0  0  0  0  0  0  0  0  0  0  # atno 17321 bound_to 7965
  139.6451  144.7657  151.2260 LP  0  0  0  0  0  0  0  0  0  0  0  0  # atno 17342 bound_to 10162
  140.7508  143.6252  150.8475 LP  0  0  0  0  0  0  0  0  0  0  0  0  # atno 17343 bound_to 10162
  157.3545  130.7099  149.6462 LP  0  0  0  0  0  0  0  0  0  0  0  0  # atno 17370 bound_to 10713
  155.9680  130.4243  150.4601 LP  0  0  0  0  0  0  0  0  0  0  0  0  # atno 17371 bound_to 10713
  141.2206  133.7328  156.8966 LP  0  0  0  0  0  0  0  0  0  0  0  0  # atno 17394 bound_to 11000
  140.1602  134.9170  157.2705 LP  0  0  0  0  0  0  0  0  0  0  0  0  # atno 17395 bound_to 11000

$$$$
