AV-unprocessed.smi:2032|AV-procd|sdf|8251|dock5
  -GOLD-   2272010523D 1   1.00000     0.00000
 Structure written by MMmdl.
 42 43  0  0  0  0  0  0  0  0  3 V2000
  144.9447  135.7871  154.8101 C   0  0  0  0  0  0  0  0  0  0  0  0
  146.0802  136.5517  154.1205 C   0  0  2  0  0  0  0  0  0  0  0  0
  147.3624  136.5691  154.9695 C   0  0  0  0  0  0  0  0  0  0  0  0
  148.4261  137.3722  154.3111 N   0  3  2  0  0  0  0  0  0  0  0  0
  149.7382  137.2747  155.0287 C   0  0  2  0  0  0  0  0  0  0  0  0
  150.3732  135.8635  154.9829 C   0  0  0  0  0  0  0  0  0  0  0  0
  149.5701  137.7384  156.4992 C   0  0  0  0  0  0  0  0  0  0  0  0
  149.2919  136.6357  157.4139 N   0  0  0  0  0  0  0  0  0  0  0  0
  149.1566  136.7413  158.7433 C   0  0  0  0  0  0  0  0  0  0  0  0
  149.2475  137.8463  159.2837 O   0  0  0  0  0  0  0  0  0  0  0  0
  148.9322  135.5607  159.3620 N   0  5  0  0  0  0  0  0  0  0  0  0
  148.2699  135.5297  160.5297 C   0  0  0  0  0  0  0  0  0  0  0  0
  148.2121  136.5745  161.3634 N   0  0  0  0  0  0  0  0  0  0  0  0
  147.4654  136.3245  162.5162 C   0  0  0  0  0  0  0  0  0  0  0  0
  146.9348  135.0624  162.5571 C   0  0  0  0  0  0  0  0  0  0  0  0
  147.3599  134.1448  161.1404 S   0  0  0  0  0  0  0  0  0  0  0  0
  147.9193  138.7492  154.0608 C   0  0  0  0  0  0  0  0  0  0  0  0
  146.5941  138.7333  153.2715 C   0  0  1  0  0  0  0  0  0  0  0  0
  146.7708  138.3885  151.7817 C   0  0  0  0  0  0  0  0  0  0  0  0
  145.6393  137.8884  153.9097 O   0  0  0  0  0  0  0  0  0  0  0  0
  145.2255  134.7500  154.9955 H   0  0  0  0  0  0  0  0  0  0  0  0
  144.0464  135.7820  154.1921 H   0  0  0  0  0  0  0  0  0  0  0  0
  144.6874  136.2405  155.7679 H   0  0  0  0  0  0  0  0  0  0  0  0
  146.2789  136.0691  153.1634 H   0  0  0  0  0  0  0  0  0  0  0  0
  147.1529  136.9865  155.9559 H   0  0  0  0  0  0  0  0  0  0  0  0
  147.6906  135.5435  155.1298 H   0  0  0  0  0  0  0  0  0  0  0  0
  150.4365  137.9438  154.5232 H   0  0  0  0  0  0  0  0  0  0  0  0
  151.3148  135.8289  155.5308 H   0  0  0  0  0  0  0  0  0  0  0  0
  150.6144  135.5565  153.9652 H   0  0  0  0  0  0  0  0  0  0  0  0
  149.7141  135.1138  155.4218 H   0  0  0  0  0  0  0  0  0  0  0  0
  150.4475  138.2707  156.8649 H   0  0  0  0  0  0  0  0  0  0  0  0
  148.7423  138.4446  156.5685 H   0  0  0  0  0  0  0  0  0  0  0  0
  149.2049  135.7139  157.0110 H   0  0  0  0  0  0  0  0  0  0  0  0
  147.3629  137.1044  163.2559 H   0  0  0  0  0  0  0  0  0  0  0  0
  146.3229  134.6190  163.3279 H   0  0  0  0  0  0  0  0  0  0  0  0
  147.7725  139.2527  155.0177 H   0  0  0  0  0  0  0  0  0  0  0  0
  148.6382  139.3390  153.4927 H   0  0  0  0  0  0  0  0  0  0  0  0
  146.1753  139.7393  153.3109 H   0  0  0  0  0  0  0  0  0  0  0  0
  147.3900  139.1349  151.2835 H   0  0  0  0  0  0  0  0  0  0  0  0
  145.8078  138.3671  151.2709 H   0  0  0  0  0  0  0  0  0  0  0  0
  147.2502  137.4212  151.6338 H   0  0  0  0  0  0  0  0  0  0  0  0
  148.5796  136.9669  153.3989 H   0  0  0  0  0  0  0  0  0  0  0  0
  1  2  1  0  0  0  0
  1 21  1  0  0  0  0
  1 22  1  0  0  0  0
  1 23  1  0  0  0  0
  2 20  1  0  0  0  0
  2  3  1  0  0  0  0
  2 24  1  0  0  0  0
  3  4  1  0  0  0  0
  3 25  1  0  0  0  0
  3 26  1  0  0  0  0
  4  5  1  0  0  0  0
  4 17  1  0  0  0  0
  4 42  1  0  0  0  0
  5  6  1  0  0  0  0
  5  7  1  0  0  0  0
  5 27  1  0  0  0  0
  6 28  1  0  0  0  0
  6 29  1  0  0  0  0
  6 30  1  0  0  0  0
  7  8  1  0  0  0  0
  7 31  1  0  0  0  0
  7 32  1  0  0  0  0
  8  9  1  0  0  0  0
  8 33  1  0  0  0  0
  9 10  2  0  0  0  0
  9 11  1  0  0  0  0
 11 12  1  0  0  0  0
 12 16  1  0  0  0  0
 12 13  2  0  0  0  0
 13 14  1  0  0  0  0
 14 15  2  0  0  0  0
 14 34  1  0  0  0  0
 15 16  1  0  0  0  0
 15 35  1  0  0  0  0
 17 18  1  0  0  0  0
 17 36  1  0  0  0  0
 17 37  1  0  0  0  0
 18 19  1  0  0  0  0
 18 20  1  0  0  0  0
 18 38  1  0  0  0  0
 19 39  1  0  0  0  0
 19 40  1  0  0  0  0
 19 41  1  0  0  0  0
M  CHG  1   4   1
M  CHG  1  11  -1
M  END
> <s_m_source_file>
AV-unprocessed.smi

> <i_m_source_file_index>
2032

> <i_lp_mmshare_version>
43012

> <i_f3d_flags>
0

> <s_epik_input>
W0NIM11bQ0BASF0xW0NIMl1OKFtDSDJdW0NASF0oTzEpW0NIM10pW0NASF0oW0NIM10pW0NIMl1bTkhdQyg9TylbTkhdYzJuW2NIXVtjSF1zMg==

> <s_epik_cmdline>
J2VwaWtfcHl0aG9uJywgJy1waCcsICc3LjAnLCAnLXRuJywgJzgnLCAnLW1hJywgJzIwMCcsICctbWV0YWxfYmluZGluZycsICctaW1hZScsICc8aW5maWxlLm1hZT4nLCAnLW9tYWUnLCAnPG91dGZpbGUubWFlPic=

> <r_lp_tautomer_probability>
0.999

> <r_epik_Ionization_Penalty>
6.71699

> <r_epik_Ionization_Penalty_Charging>
5.88592

> <r_epik_Ionization_Penalty_Neutral>
0.831074

> <r_epik_State_Penalty>
6.08365

> <r_epik_Charging_Adjusted_Penalty>
11.9696

> <i_epik_Tot_Q>
0

> <i_epik_Tot_abs_Q>
2

> <r_epik_Metal_State_Penalty>
2.0947

> <b_epik_Metal_Only>
1

> <s_lp_Force_Field>
OPLS_2005

> <r_lp_Energy>
13.7972

> <b_lp_Chiralities_Consistent>
1

> <s_lp_Variant>
AV-unprocessed.smi:2032-21

> <Gold.Version>
5.8.1

> <Gold.Id.Protein>
6NUR|6NUR_protein|mol2

> <Gold.PLP.Fitness>
42.3783

> <Gold.PLP.PLP>
-28.7879

> <Gold.PLP.part.hbond>
-4.5573

> <Gold.PLP.part.metal>
0.0000

> <Gold.PLP.part.buried>
-3.1911

> <Gold.PLP.part.nonpolar>
-22.0315

> <Gold.PLP.part.repulsive>
0.1786

> <Gold.PLP.ligand.clash>
0.0000

> <Gold.PLP.ligand.torsion>
0.7397

> <Gold.PLP.Chemscore.Hbond>
5.0000

> <Gold.PLP.Chemscore.CHOScore>
0.0000

> <Gold.PLP.Chemscore.Metal>
0.0000

> <Gold.Chemscore.Hbonds>
donor molecule, donor type, donor heavy atom, donor atom, acceptor molecule, acceptor atom, score
      L1  H     4    42       P1  7948  2.00
      P1  H  6896  6908       L1    11  2.00
      P1  H  6931  6943       L1    13  0.95

> <Gold.PLP.Chemscore.Internal.Correction>
0.0698

> <Gold.Rescore>
     Score         DG    S(hbond)    S(metal)    S(lipo)     H(rot)  DE(clash)    DE(int)     intcor
     13.96     -16.44       2.40        0.00      59.55       1.58       0.11       2.36       ----

> <Gold.Chemscore.Fitness>
13.9648

> <Gold.Chemscore.DG>
-16.4369

> <Gold.Chemscore.ZeroCoef>
-5.4800

> <Gold.Chemscore.Hbond>
2.4049

> <Gold.Chemscore.Metal>
0.0000

> <Gold.Chemscore.Lipo>
59.5464

> <Gold.Chemscore.Internal_Hbond>
0.0000

> <Gold.Chemscore.DEClash>
0.1116

> <Gold.Chemscore.DEInternal>
2.3605

> <Gold.Chemscore.Rot>
1.5791

> <Gold.Chemscore.Internal.Correction>
   9.000000E+99

> <Gold.Chemscore.Hbonds>
donor molecule, donor type, donor heavy atom, donor atom, acceptor molecule, acceptor atom, score
      L1  H     4    42       P1  7948  1.00
      P1  H  6896  6908       L1    11  0.49
      P1  H  6931  6943       L1    13  0.21

> <Gold.Chemscore.Hbond.Weighted>
-8.0324

> <Gold.Chemscore.Metal.Weighted>
-0.0000

> <Gold.Chemscore.Lipo.Weighted>
-6.9669

> <Gold.Chemscore.Internal_Hbond.Weighted>
0.0000

> <Gold.Chemscore.DEClash.Weighted>
0.1116

> <Gold.Chemscore.DEInternal.Weighted>
2.3605

> <Gold.Chemscore.Rot.Weighted>
4.0425

> <Gold.Chemscore.Internal.Correction.Weighted>
   9.000000E+99

> <Gold.Protein.RotatedTorsions>
[ 6907 6896 6895 6894 ] final  166.14 input  -60.11 | X-H torsion
[ 7974 7965 7964 7962 ] final   -8.35 input  175.53 | X-H torsion
[ 8008 7997 7996 7995 ] final   90.71 input   59.86 | X-H torsion
[ 10167 10162 10161 10158 ] final -138.97 input  -65.29 | X-H torsion
[ 10718 10713 10712 10709 ] final  -64.43 input   66.30 | X-H torsion
[ 10763 10752 10751 10750 ] final  113.79 input  -60.55 | X-H torsion
[ 11005 11000 10999 10996 ] final  106.19 input  -57.11 | X-H torsion

> <Gold.Protein.ActiveResidues>
 VAL166  LYS551  ARG553  GLY616  TRP617  ASP618  TYR619  PRO620  LYS621  CYS622 
 ASP623  PHE694  ASN695  SER759  ASP760  ASP761  ALA762  ILE779  LEU786  VAL792 
 PHE793  MET794  SER795  GLU796  ALA797  LYS798  CYS799  TRP800  GLU811  SER814 

> <Gold.Protein.RotatedAtoms>
  151.8836  133.3500  159.3774 H   0  0  0  0  0  0  0  0  0  0  0  0  # atno 6907 bound_to 6896
  150.7121  134.4994  159.5563 H   0  0  0  0  0  0  0  0  0  0  0  0  # atno 6908 bound_to 6896
  152.2551  134.8093  160.0491 H   0  0  0  0  0  0  0  0  0  0  0  0  # atno 6909 bound_to 6896
  146.2282  140.2456  142.8345 H   0  0  0  0  0  0  0  0  0  0  0  0  # atno 7974 bound_to 7965
  156.0152  140.3346  155.6981 H   0  0  0  0  0  0  0  0  0  0  0  0  # atno 8008 bound_to 7997
  155.6101  140.0664  157.2726 H   0  0  0  0  0  0  0  0  0  0  0  0  # atno 8009 bound_to 7997
  154.4295  140.1795  156.1251 H   0  0  0  0  0  0  0  0  0  0  0  0  # atno 8010 bound_to 7997
  139.8426  143.7302  152.2662 H   0  0  0  0  0  0  0  0  0  0  0  0  # atno 10167 bound_to 10162
  156.0730  130.4233  150.1419 H   0  0  0  0  0  0  0  0  0  0  0  0  # atno 10718 bound_to 10713
  153.4976  135.3645  155.2524 H   0  0  0  0  0  0  0  0  0  0  0  0  # atno 10763 bound_to 10752
  154.8749  135.3992  154.3515 H   0  0  0  0  0  0  0  0  0  0  0  0  # atno 10764 bound_to 10752
  153.4146  135.7078  153.6402 H   0  0  0  0  0  0  0  0  0  0  0  0  # atno 10765 bound_to 10752
  139.8811  134.9361  156.5629 H   0  0  0  0  0  0  0  0  0  0  0  0  # atno 11005 bound_to 11000
  144.9451  140.8120  143.5606 LP  0  0  0  0  0  0  0  0  0  0  0  0  # atno 17320 bound_to 7965
  145.2411  139.2072  143.4992 LP  0  0  0  0  0  0  0  0  0  0  0  0  # atno 17321 bound_to 7965
  139.7544  144.7525  151.0458 LP  0  0  0  0  0  0  0  0  0  0  0  0  # atno 17342 bound_to 10162
  140.7796  143.4822  151.0002 LP  0  0  0  0  0  0  0  0  0  0  0  0  # atno 17343 bound_to 10162
  156.9466  130.9761  151.3506 LP  0  0  0  0  0  0  0  0  0  0  0  0  # atno 17370 bound_to 10713
  157.5810  130.8377  149.8523 LP  0  0  0  0  0  0  0  0  0  0  0  0  # atno 17371 bound_to 10713
  140.8156  133.8395  155.8849 LP  0  0  0  0  0  0  0  0  0  0  0  0  # atno 17394 bound_to 11000
  140.9466  134.1832  157.4759 LP  0  0  0  0  0  0  0  0  0  0  0  0  # atno 17395 bound_to 11000

$$$$
