AV-unprocessed.smi:1464|AV-procd|sdf|5948|dock3
  -GOLD-   22720 6 33D 1   1.00000     0.00000
 Structure written by MMmdl.
 41 42  0  0  0  0  0  0  0  0  1 V2000
  151.8884  145.0796  160.3371 C   0  0  0  0  0  0  0  0  0  0  0  0
  152.4622  143.7572  159.7944 C   0  0  1  0  0  0  0  0  0  0  0  0
  152.5118  142.7144  160.9287 C   0  0  0  0  0  0  0  0  0  0  0  0
  153.1079  141.3844  160.4558 C   0  0  0  0  0  0  0  0  0  0  0  0
  152.3119  140.8279  159.2721 C   0  0  0  0  0  0  0  0  0  0  0  0
  152.2496  141.8383  158.1100 C   0  0  1  0  0  0  0  0  0  0  0  0
  151.4372  141.2771  157.0317 N   0  0  0  0  0  0  0  0  0  0  0  0
  151.7563  140.2049  156.2909 C   0  0  0  0  0  0  0  0  0  0  0  0
  152.8021  139.5701  156.4358 O   0  0  0  0  0  0  0  0  0  0  0  0
  150.7368  139.8095  155.2127 C   0  0  0  0  0  0  0  0  0  0  0  0
  150.3253  138.3998  155.2828 N   0  0  0  0  0  0  0  0  0  0  0  0
  149.0507  138.2062  155.7937 N   0  0  0  0  0  0  0  0  0  0  0  0
  148.5721  137.0126  155.8971 C   0  0  0  0  0  0  0  0  0  0  0  0
  147.3053  136.8668  156.4069 O   0  0  0  0  0  0  0  0  0  0  0  0
  149.3433  135.8587  155.4898 C   0  0  0  0  0  0  0  0  0  0  0  0
  150.5860  136.0569  154.9981 C   0  0  0  0  0  0  0  0  0  0  0  0
  151.1605  137.3973  154.8691 C   0  0  0  0  0  0  0  0  0  0  0  0
  152.2911  137.6069  154.4295 O   0  0  0  0  0  0  0  0  0  0  0  0
  151.6822  143.2111  158.5642 C   0  0  2  0  0  0  0  0  0  0  0  0
  151.6709  144.2196  157.3940 C   0  0  0  0  0  0  0  0  0  0  0  0
  147.1949  137.5835  157.0126 H   0  0  0  0  0  0  0  0  0  0  0  0
  150.8307  144.9819  160.5833 H   0  0  0  0  0  0  0  0  0  0  0  0
  151.9946  145.8940  159.6213 H   0  0  0  0  0  0  0  0  0  0  0  0
  152.4106  145.3899  161.2426 H   0  0  0  0  0  0  0  0  0  0  0  0
  153.4897  143.9512  159.4825 H   0  0  0  0  0  0  0  0  0  0  0  0
  153.1032  143.0961  161.7617 H   0  0  0  0  0  0  0  0  0  0  0  0
  151.5068  142.5446  161.3180 H   0  0  0  0  0  0  0  0  0  0  0  0
  154.1503  141.5267  160.1671 H   0  0  0  0  0  0  0  0  0  0  0  0
  153.1076  140.6645  161.2748 H   0  0  0  0  0  0  0  0  0  0  0  0
  152.7671  139.8951  158.9364 H   0  0  0  0  0  0  0  0  0  0  0  0
  151.3022  140.5774  159.6007 H   0  0  0  0  0  0  0  0  0  0  0  0
  153.2647  142.0036  157.7430 H   0  0  0  0  0  0  0  0  0  0  0  0
  150.5604  141.7395  156.8391 H   0  0  0  0  0  0  0  0  0  0  0  0
  149.8592  140.4548  155.2867 H   0  0  0  0  0  0  0  0  0  0  0  0
  151.1776  140.0264  154.2380 H   0  0  0  0  0  0  0  0  0  0  0  0
  148.9268  134.8664  155.5811 H   0  0  0  0  0  0  0  0  0  0  0  0
  151.1732  135.2044  154.6902 H   0  0  0  0  0  0  0  0  0  0  0  0
  150.6466  143.0562  158.8719 H   0  0  0  0  0  0  0  0  0  0  0  0
  152.6843  144.4600  157.0712 H   0  0  0  0  0  0  0  0  0  0  0  0
  151.1761  145.1511  157.6658 H   0  0  0  0  0  0  0  0  0  0  0  0
  151.1333  143.8332  156.5284 H   0  0  0  0  0  0  0  0  0  0  0  0
  1  2  1  0  0  0  0
  1 22  1  0  0  0  0
  1 23  1  0  0  0  0
  1 24  1  0  0  0  0
  2 19  1  0  0  0  0
  2  3  1  0  0  0  0
  2 25  1  0  0  0  0
  3  4  1  0  0  0  0
  3 26  1  0  0  0  0
  3 27  1  0  0  0  0
  4  5  1  0  0  0  0
  4 28  1  0  0  0  0
  4 29  1  0  0  0  0
  5  6  1  0  0  0  0
  5 30  1  0  0  0  0
  5 31  1  0  0  0  0
  6  7  1  0  0  0  0
  6 19  1  0  0  0  0
  6 32  1  0  0  0  0
  7  8  1  0  0  0  0
  7 33  1  0  0  0  0
  8  9  2  0  0  0  0
  8 10  1  0  0  0  0
 10 34  1  0  0  0  0
 10 35  1  0  0  0  0
 10 11  1  0  0  0  0
 11 12  1  0  0  0  0
 11 17  1  0  0  0  0
 12 13  2  0  0  0  0
 13 14  1  0  0  0  0
 13 15  1  0  0  0  0
 14 21  1  0  0  0  0
 15 36  1  0  0  0  0
 15 16  2  0  0  0  0
 16 37  1  0  0  0  0
 16 17  1  0  0  0  0
 17 18  2  0  0  0  0
 19 20  1  0  0  0  0
 19 38  1  0  0  0  0
 20 39  1  0  0  0  0
 20 40  1  0  0  0  0
 20 41  1  0  0  0  0
M  END
> <s_m_source_file>
AV-unprocessed.smi

> <i_m_source_file_index>
1464

> <i_lp_mmshare_version>
43012

> <i_f3d_flags>
0

> <s_epik_input>
W0NIM11bQ0BASF0xW0NIMl1bQ0gyXVtDSDJdW0NASF0oW0NASF0xW0NIM10pW05IXUMoPU8pW0NIMl1uMltuSF1jKD1PKVtjSF1bY0hdYzI9Tw==

> <s_epik_cmdline>
J2VwaWtfcHl0aG9uJywgJy1waCcsICc3LjAnLCAnLXRuJywgJzgnLCAnLW1hJywgJzIwMCcsICctbWV0YWxfYmluZGluZycsICctaW1hZScsICc8aW5maWxlLm1hZT4nLCAnLW9tYWUnLCAnPG91dGZpbGUubWFlPic=

> <r_lp_tautomer_probability>
0.9996

> <r_epik_Ionization_Penalty>
2.10335

> <r_epik_Ionization_Penalty_Charging>
3.98079e-08

> <r_epik_Ionization_Penalty_Neutral>
2.10335

> <r_epik_State_Penalty>
1.67957

> <r_epik_Charging_Adjusted_Penalty>
1.67957

> <i_epik_Tot_Q>
0

> <i_epik_Tot_abs_Q>
0

> <r_epik_Metal_State_Penalty>
1.67957

> <b_epik_Metal_Only>
0

> <s_lp_Force_Field>
OPLS_2005

> <r_lp_Energy>
24.139

> <b_lp_Chiralities_Consistent>
1

> <s_lp_Variant>
AV-unprocessed.smi:1464-14

> <Gold.Version>
5.8.1

> <Gold.Id.Protein>
6NUR|6NUR_protein|mol2

> <Gold.PLP.Fitness>
43.8713

> <Gold.PLP.PLP>
-39.3045

> <Gold.PLP.part.hbond>
-2.0000

> <Gold.PLP.part.metal>
0.0000

> <Gold.PLP.part.buried>
-5.2611

> <Gold.PLP.part.nonpolar>
-32.8703

> <Gold.PLP.part.repulsive>
0.2357

> <Gold.PLP.ligand.clash>
0.0000

> <Gold.PLP.ligand.torsion>
0.2908

> <Gold.PLP.Chemscore.Hbond>
1.7137

> <Gold.PLP.Chemscore.CHOScore>
0.0000

> <Gold.PLP.Chemscore.Metal>
0.0000

> <Gold.Chemscore.Hbonds>
donor molecule, donor type, donor heavy atom, donor atom, acceptor molecule, acceptor atom, score
      P1  H  7997  8009       L1     9  1.00
      P1  H 10752 10764       L1    18  0.67

> <Gold.PLP.Chemscore.Internal.Correction>
0.0073

> <Gold.Rescore>
     Score         DG    S(hbond)    S(metal)    S(lipo)     H(rot)  DE(clash)    DE(int)     intcor
     16.16     -17.71       1.89        0.00      99.14       2.22       0.01       1.55       ----

> <Gold.Chemscore.Fitness>
16.1568

> <Gold.Chemscore.DG>
-17.7145

> <Gold.Chemscore.ZeroCoef>
-5.4800

> <Gold.Chemscore.Hbond>
1.8935

> <Gold.Chemscore.Metal>
0.0000

> <Gold.Chemscore.Lipo>
99.1423

> <Gold.Chemscore.Internal_Hbond>
0.0000

> <Gold.Chemscore.DEClash>
0.0060

> <Gold.Chemscore.DEInternal>
1.5518

> <Gold.Chemscore.Rot>
2.2224

> <Gold.Chemscore.Internal.Correction>
   9.000000E+99

> <Gold.Chemscore.Hbonds>
donor molecule, donor type, donor heavy atom, donor atom, acceptor molecule, acceptor atom, score
      P1  H  7997  8009       L1     9  0.99
      P1  H 10752 10764       L1    18  0.17

> <Gold.Chemscore.Hbond.Weighted>
-6.3242

> <Gold.Chemscore.Metal.Weighted>
-0.0000

> <Gold.Chemscore.Lipo.Weighted>
-11.5997

> <Gold.Chemscore.Internal_Hbond.Weighted>
0.0000

> <Gold.Chemscore.DEClash.Weighted>
0.0060

> <Gold.Chemscore.DEInternal.Weighted>
1.5518

> <Gold.Chemscore.Rot.Weighted>
5.6893

> <Gold.Chemscore.Internal.Correction.Weighted>
   9.000000E+99

> <Gold.Protein.RotatedTorsions>
[ 6907 6896 6895 6894 ] final -161.40 input  -60.11 | X-H torsion
[ 7974 7965 7964 7962 ] final  162.55 input  175.53 | X-H torsion
[ 8008 7997 7996 7995 ] final -154.76 input   59.86 | X-H torsion
[ 10167 10162 10161 10158 ] final  -77.64 input  -65.29 | X-H torsion
[ 10718 10713 10712 10709 ] final    1.13 input   66.30 | X-H torsion
[ 10763 10752 10751 10750 ] final  -79.98 input  -60.55 | X-H torsion
[ 11005 11000 10999 10996 ] final   50.24 input  -57.11 | X-H torsion

> <Gold.Protein.ActiveResidues>
 VAL166  LYS551  ARG553  GLY616  TRP617  ASP618  TYR619  PRO620  LYS621  CYS622 
 ASP623  PHE694  ASN695  SER759  ASP760  ASP761  ALA762  ILE779  LEU786  VAL792 
 PHE793  MET794  SER795  GLU796  ALA797  LYS798  CYS799  TRP800  GLU811  SER814 

> <Gold.Protein.RotatedAtoms>
  151.3641  133.3879  159.2692 H   0  0  0  0  0  0  0  0  0  0  0  0  # atno 6907 bound_to 6896
  150.9702  134.9077  159.7794 H   0  0  0  0  0  0  0  0  0  0  0  0  # atno 6908 bound_to 6896
  152.5182  134.3603  159.9334 H   0  0  0  0  0  0  0  0  0  0  0  0  # atno 6909 bound_to 6896
  144.7631  139.8056  143.6325 H   0  0  0  0  0  0  0  0  0  0  0  0  # atno 7974 bound_to 7965
  155.6914  140.0756  157.2446 H   0  0  0  0  0  0  0  0  0  0  0  0  # atno 8008 bound_to 7997
  154.4088  140.1664  156.2143 H   0  0  0  0  0  0  0  0  0  0  0  0  # atno 8009 bound_to 7997
  155.9448  140.3382  155.6361 H   0  0  0  0  0  0  0  0  0  0  0  0  # atno 8010 bound_to 7997
  140.4752  143.2416  151.8143 H   0  0  0  0  0  0  0  0  0  0  0  0  # atno 10167 bound_to 10162
  156.8436  130.5529  149.5675 H   0  0  0  0  0  0  0  0  0  0  0  0  # atno 10718 bound_to 10713
  154.5455  135.5677  153.6876 H   0  0  0  0  0  0  0  0  0  0  0  0  # atno 10763 bound_to 10752
  152.9975  135.6238  154.2445 H   0  0  0  0  0  0  0  0  0  0  0  0  # atno 10764 bound_to 10752
  154.2377  135.2863  155.2845 H   0  0  0  0  0  0  0  0  0  0  0  0  # atno 10765 bound_to 10752
  140.1034  134.5050  155.8742 H   0  0  0  0  0  0  0  0  0  0  0  0  # atno 11005 bound_to 11000
  146.1714  139.4866  142.9925 LP  0  0  0  0  0  0  0  0  0  0  0  0  # atno 17320 bound_to 7965
  145.6555  141.0253  143.1737 LP  0  0  0  0  0  0  0  0  0  0  0  0  # atno 17321 bound_to 7965
  139.4824  144.4842  151.9268 LP  0  0  0  0  0  0  0  0  0  0  0  0  # atno 17342 bound_to 10162
  140.3927  144.2595  150.5898 LP  0  0  0  0  0  0  0  0  0  0  0  0  # atno 17343 bound_to 10162
  156.0867  130.5863  150.9660 LP  0  0  0  0  0  0  0  0  0  0  0  0  # atno 17370 bound_to 10713
  157.6342  131.0918  150.8382 LP  0  0  0  0  0  0  0  0  0  0  0  0  # atno 17371 bound_to 10713
  141.2112  133.6703  156.6563 LP  0  0  0  0  0  0  0  0  0  0  0  0  # atno 17394 bound_to 11000
  140.3188  134.8025  157.4236 LP  0  0  0  0  0  0  0  0  0  0  0  0  # atno 17395 bound_to 11000

$$$$
