AV-unprocessed.smi:2865|AV-procd|sdf|11017|dock3
  -GOLD-   2272015483D 1   1.00000     0.00000
 Structure written by MMmdl.
 38 41  0  0  0  0  0  0  0  0  1 V2000
  149.2716  135.4610  156.2253 O   0  0  0  0  0  0  0  0  0  0  0  0
  149.1694  135.6972  155.0239 C   0  0  0  0  0  0  0  0  0  0  0  0
  149.5247  136.8554  154.4350 N   0  0  0  0  0  0  0  0  0  0  0  0
  150.0042  138.0496  155.0364 C   0  0  0  0  0  0  0  0  0  0  0  0
  150.1475  139.2028  154.2365 C   0  0  0  0  0  0  0  0  0  0  0  0
  150.5762  140.3783  154.7440 N   0  0  0  0  0  0  0  0  0  0  0  0
  150.8661  140.4019  156.0477 C   0  0  0  0  0  0  0  0  0  0  0  0
  151.2997  141.7176  156.6159 C   0  0  0  0  0  0  0  0  0  0  0  0
  151.7275  141.8326  158.0649 C   0  0  0  0  0  0  0  0  0  0  0  0
  150.4343  142.4549  157.6173 C   0  0  0  0  0  0  0  0  0  0  0  0
  150.7506  139.3857  156.9069 N   0  0  0  0  0  0  0  0  0  0  0  0
  150.3231  138.2055  156.4081 C   0  0  0  0  0  0  0  0  0  0  0  0
  148.6983  134.7701  154.1717 N   0  0  0  0  0  0  0  0  0  0  0  0
  148.2300  133.4170  154.4817 C   0  0  2  0  0  0  0  0  0  0  0  0
  148.7831  132.3831  153.4965 C   0  0  0  0  0  0  0  0  0  0  0  0
  147.4995  131.7627  152.9286 C   0  0  2  0  0  0  0  0  0  0  0  0
  146.7726  132.7209  151.9747 C   0  0  0  0  0  0  0  0  0  0  0  0
  146.1797  133.7393  152.9470 C   0  0  0  0  0  0  0  0  0  0  0  0
  146.7089  133.2273  154.2970 C   0  0  1  0  0  0  0  0  0  0  0  0
  146.6549  131.8303  154.0648 O   0  0  0  0  0  0  0  0  0  0  0  0
  149.4589  136.8758  153.4278 H   0  0  0  0  0  0  0  0  0  0  0  0
  149.9141  139.1853  153.1819 H   0  0  0  0  0  0  0  0  0  0  0  0
  151.8378  142.3092  155.8778 H   0  0  0  0  0  0  0  0  0  0  0  0
  151.6648  140.9411  158.6857 H   0  0  0  0  0  0  0  0  0  0  0  0
  152.5559  142.5008  158.2913 H   0  0  0  0  0  0  0  0  0  0  0  0
  150.3977  143.5397  157.5438 H   0  0  0  0  0  0  0  0  0  0  0  0
  149.5109  141.9779  157.9406 H   0  0  0  0  0  0  0  0  0  0  0  0
  150.2226  137.4086  157.1278 H   0  0  0  0  0  0  0  0  0  0  0  0
  148.6665  135.0310  153.1968 H   0  0  0  0  0  0  0  0  0  0  0  0
  148.5257  133.1331  155.4935 H   0  0  0  0  0  0  0  0  0  0  0  0
  149.4117  132.8110  152.7141 H   0  0  0  0  0  0  0  0  0  0  0  0
  149.3711  131.6330  154.0265 H   0  0  0  0  0  0  0  0  0  0  0  0
  147.6350  130.7578  152.5281 H   0  0  0  0  0  0  0  0  0  0  0  0
  147.4483  133.1730  151.2479 H   0  0  0  0  0  0  0  0  0  0  0  0
  145.9802  132.2047  151.4317 H   0  0  0  0  0  0  0  0  0  0  0  0
  146.4734  134.7653  152.7249 H   0  0  0  0  0  0  0  0  0  0  0  0
  145.0903  133.6921  152.9239 H   0  0  0  0  0  0  0  0  0  0  0  0
  146.1172  133.5555  155.1519 H   0  0  0  0  0  0  0  0  0  0  0  0
  1  2  2  0  0  0  0
  2  3  1  0  0  0  0
  2 13  1  0  0  0  0
  3  4  1  0  0  0  0
  3 21  1  0  0  0  0
  4 12  1  0  0  0  0
  4  5  2  0  0  0  0
  5  6  1  0  0  0  0
  5 22  1  0  0  0  0
  6  7  2  0  0  0  0
  7  8  1  0  0  0  0
  7 11  1  0  0  0  0
  8 10  1  0  0  0  0
  8  9  1  0  0  0  0
  8 23  1  0  0  0  0
  9 10  1  0  0  0  0
  9 24  1  0  0  0  0
  9 25  1  0  0  0  0
 10 26  1  0  0  0  0
 10 27  1  0  0  0  0
 11 12  2  0  0  0  0
 12 28  1  0  0  0  0
 13 14  1  0  0  0  0
 13 29  1  0  0  0  0
 14 19  1  0  0  0  0
 14 15  1  0  0  0  0
 14 30  1  0  0  0  0
 15 16  1  0  0  0  0
 15 31  1  0  0  0  0
 15 32  1  0  0  0  0
 16 20  1  0  0  0  0
 16 17  1  0  0  0  0
 16 33  1  0  0  0  0
 17 18  1  0  0  0  0
 17 34  1  0  0  0  0
 17 35  1  0  0  0  0
 18 19  1  0  0  0  0
 18 36  1  0  0  0  0
 18 37  1  0  0  0  0
 19 20  1  0  0  0  0
 19 38  1  0  0  0  0
M  END
> <s_m_source_file>
AV-unprocessed.smi

> <i_m_source_file_index>
2865

> <i_lp_mmshare_version>
43012

> <i_f3d_flags>
0

> <s_epik_input>
W0NIMl0xW0NIMl1bQ0BIXShPMilbQ0BASF0oW0NIMl1bQ0BASF0xMilbTkhdQyg9TylbTkhdYzNbY0hdbmMobltjSF0zKVtDSF00W0NIMl1bQ0gyXTQ=

> <s_epik_cmdline>
J2VwaWtfcHl0aG9uJywgJy1waCcsICc3LjAnLCAnLXRuJywgJzgnLCAnLW1hJywgJzIwMCcsICctbWV0YWxfYmluZGluZycsICctaW1hZScsICc8aW5maWxlLm1hZT4nLCAnLW9tYWUnLCAnPG91dGZpbGUubWFlPic=

> <r_lp_tautomer_probability>
1

> <r_epik_Ionization_Penalty>
2.43104e-05

> <r_epik_Ionization_Penalty_Charging>
0

> <r_epik_Ionization_Penalty_Neutral>
2.43104e-05

> <r_epik_State_Penalty>
-0

> <r_epik_Charging_Adjusted_Penalty>
0

> <i_epik_Tot_Q>
0

> <i_epik_Tot_abs_Q>
0

> <r_epik_Metal_State_Penalty>
-0

> <b_epik_Metal_Only>
0

> <s_lp_Force_Field>
OPLS_2005

> <r_lp_Energy>
44.6282

> <b_lp_Chiralities_Consistent>
1

> <s_lp_Variant>
AV-unprocessed.smi:2865-3

> <Gold.Version>
5.8.1

> <Gold.Id.Protein>
6NUR|6NUR_protein|mol2

> <Gold.PLP.Fitness>
38.9064

> <Gold.PLP.PLP>
-27.1811

> <Gold.PLP.part.hbond>
-3.0000

> <Gold.PLP.part.metal>
0.0000

> <Gold.PLP.part.buried>
-2.6145

> <Gold.PLP.part.nonpolar>
-21.2910

> <Gold.PLP.part.repulsive>
0.2455

> <Gold.PLP.ligand.clash>
0.0000

> <Gold.PLP.ligand.torsion>
0.2072

> <Gold.PLP.Chemscore.Hbond>
3.0000

> <Gold.PLP.Chemscore.CHOScore>
1.0000

> <Gold.PLP.Chemscore.Metal>
0.0000

> <Gold.Chemscore.Hbonds>
donor molecule, donor type, donor heavy atom, donor atom, acceptor molecule, acceptor atom, score
      L1  H     3    21       P1  7948  1.00
      L1  H    13    29       P1  7948  1.00
      P1  H  7989  7998       L1     6  1.00
      L1  C     5    22       P1  7957  1.00

> <Gold.PLP.Chemscore.Internal.Correction>
0.1397

> <Gold.Rescore>
     Score         DG    S(hbond)    S(metal)    S(lipo)     H(rot)  DE(clash)    DE(int)     intcor
     16.32     -17.70       2.37        0.00      62.94       1.20       0.09       1.29       ----

> <Gold.Chemscore.Fitness>
16.3247

> <Gold.Chemscore.DG>
-17.6988

> <Gold.Chemscore.ZeroCoef>
-5.4800

> <Gold.Chemscore.Hbond>
2.3742

> <Gold.Chemscore.Metal>
0.0000

> <Gold.Chemscore.Lipo>
62.9415

> <Gold.Chemscore.Internal_Hbond>
0.0000

> <Gold.Chemscore.DEClash>
0.0853

> <Gold.Chemscore.DEInternal>
1.2888

> <Gold.Chemscore.Rot>
1.2012

> <Gold.Chemscore.Internal.Correction>
   9.000000E+99

> <Gold.Chemscore.Hbonds>
donor molecule, donor type, donor heavy atom, donor atom, acceptor molecule, acceptor atom, score
      L1  H     3    21       P1  7948  0.86
      L1  H    13    29       P1  7948  0.58
      P1  H  7989  7998       L1     6  0.25

> <Gold.Chemscore.Hbond.Weighted>
-7.9298

> <Gold.Chemscore.Metal.Weighted>
-0.0000

> <Gold.Chemscore.Lipo.Weighted>
-7.3642

> <Gold.Chemscore.Internal_Hbond.Weighted>
0.0000

> <Gold.Chemscore.DEClash.Weighted>
0.0853

> <Gold.Chemscore.DEInternal.Weighted>
1.2888

> <Gold.Chemscore.Rot.Weighted>
3.0752

> <Gold.Chemscore.Internal.Correction.Weighted>
   9.000000E+99

> <Gold.Protein.RotatedTorsions>
[ 6907 6896 6895 6894 ] final -124.12 input  -60.11 | X-H torsion
[ 7974 7965 7964 7962 ] final -147.36 input  175.53 | X-H torsion
[ 8008 7997 7996 7995 ] final  144.00 input   59.86 | X-H torsion
[ 10167 10162 10161 10158 ] final  104.85 input  -65.29 | X-H torsion
[ 10718 10713 10712 10709 ] final   -5.17 input   66.30 | X-H torsion
[ 10763 10752 10751 10750 ] final -133.09 input  -60.55 | X-H torsion
[ 11005 11000 10999 10996 ] final   96.59 input  -57.11 | X-H torsion

> <Gold.Protein.ActiveResidues>
 VAL166  LYS551  ARG553  GLY616  TRP617  ASP618  TYR619  PRO620  LYS621  CYS622 
 ASP623  PHE694  ASN695  SER759  ASP760  ASP761  ALA762  ILE779  LEU786  VAL792 
 PHE793  MET794  SER795  GLU796  ALA797  LYS798  CYS799  TRP800  GLU811  SER814 

> <Gold.Protein.RotatedAtoms>
  150.8737  133.7469  159.2953 H   0  0  0  0  0  0  0  0  0  0  0  0  # atno 6907 bound_to 6896
  151.5073  135.1062  159.9854 H   0  0  0  0  0  0  0  0  0  0  0  0  # atno 6908 bound_to 6896
  152.4713  133.7991  159.6998 H   0  0  0  0  0  0  0  0  0  0  0  0  # atno 6909 bound_to 6896
  144.8099  140.5337  143.5650 H   0  0  0  0  0  0  0  0  0  0  0  0  # atno 7974 bound_to 7965
  156.2918  140.2247  156.4981 H   0  0  0  0  0  0  0  0  0  0  0  0  # atno 8008 bound_to 7997
  154.7713  140.0466  157.1075 H   0  0  0  0  0  0  0  0  0  0  0  0  # atno 8009 bound_to 7997
  154.9871  140.3085  155.4925 H   0  0  0  0  0  0  0  0  0  0  0  0  # atno 8010 bound_to 7997
  139.7142  144.7071  151.0977 H   0  0  0  0  0  0  0  0  0  0  0  0  # atno 10167 bound_to 10162
  156.7505  130.5238  149.5805 H   0  0  0  0  0  0  0  0  0  0  0  0  # atno 10718 bound_to 10713
  154.8736  135.3777  154.4515 H   0  0  0  0  0  0  0  0  0  0  0  0  # atno 10763 bound_to 10752
  153.5191  135.7029  153.5746 H   0  0  0  0  0  0  0  0  0  0  0  0  # atno 10764 bound_to 10752
  153.4001  135.3950  155.1947 H   0  0  0  0  0  0  0  0  0  0  0  0  # atno 10765 bound_to 10752
  139.8780  134.8958  156.4182 H   0  0  0  0  0  0  0  0  0  0  0  0  # atno 11005 bound_to 11000
  145.5350  139.1475  143.3479 LP  0  0  0  0  0  0  0  0  0  0  0  0  # atno 17320 bound_to 7965
  146.2396  140.5490  142.8940 LP  0  0  0  0  0  0  0  0  0  0  0  0  # atno 17321 bound_to 7965
  140.7740  143.5251  150.9489 LP  0  0  0  0  0  0  0  0  0  0  0  0  # atno 17342 bound_to 10162
  139.8937  143.6921  152.3141 LP  0  0  0  0  0  0  0  0  0  0  0  0  # atno 17343 bound_to 10162
  156.1405  130.6241  151.0460 LP  0  0  0  0  0  0  0  0  0  0  0  0  # atno 17370 bound_to 10713
  157.6779  131.0845  150.7446 LP  0  0  0  0  0  0  0  0  0  0  0  0  # atno 17371 bound_to 10713
  140.9153  133.7683  155.9840 LP  0  0  0  0  0  0  0  0  0  0  0  0  # atno 17394 bound_to 11000
  140.8501  134.2964  157.5279 LP  0  0  0  0  0  0  0  0  0  0  0  0  # atno 17395 bound_to 11000

$$$$
