AV-unprocessed.smi:1207|AV-procd|sdf|5049|dock10
  -GOLD-   22720 4 73D 1   1.00000     0.00000
 Structure written by MMmdl.
 51 53  0  0  0  0  0  0  0  0  1 V2000
  153.0957  142.8874  161.4926 C   0  0  0  0  0  0  0  0  0  0  0  0
  152.4592  142.4822  160.1747 C   0  0  0  0  0  0  0  0  0  0  0  0
  152.9736  141.3659  159.4777 C   0  0  0  0  0  0  0  0  0  0  0  0
  152.4105  140.9566  158.2490 C   0  0  0  0  0  0  0  0  0  0  0  0
  152.7517  139.9106  157.4086 N   0  0  0  0  0  0  0  0  0  0  0  0
  151.8611  140.0514  156.4312 C   0  0  0  0  0  0  0  0  0  0  0  0
  150.9815  141.0655  156.5389 N   0  0  0  0  0  0  0  0  0  0  0  0
  149.9277  141.4087  155.6002 C   0  0  0  0  0  0  0  0  0  0  0  0
  149.8296  140.4102  154.4313 C   0  0  2  0  0  0  0  0  0  0  0  0
  149.4375  141.0999  153.2605 O   0  0  0  0  0  0  0  0  0  0  0  0
  148.7902  139.3061  154.7159 C   0  0  0  0  0  0  0  0  0  0  0  0
  149.1467  138.3583  155.7749 N   0  0  0  0  0  0  0  0  0  0  0  0
  148.5751  137.0464  155.4826 C   0  0  0  0  0  0  0  0  0  0  0  0
  148.7367  138.8206  157.1047 C   0  0  0  0  0  0  0  0  0  0  0  0
  148.9027  137.7656  158.1692 C   0  0  0  0  0  0  0  0  0  0  0  0
  147.8860  137.0829  158.8959 C   0  0  0  0  0  0  0  0  0  0  0  0
  146.3966  137.2348  158.7821 C   0  0  0  0  0  0  0  0  0  0  0  0
  148.3920  136.2200  159.7615 N   0  0  0  0  0  0  0  0  0  0  0  0
  149.7808  136.3127  159.6278 O   0  0  0  0  0  0  0  0  0  0  0  0
  150.0592  137.2401  158.6765 C   0  0  0  0  0  0  0  0  0  0  0  0
  151.4996  137.4903  158.3814 C   0  0  0  0  0  0  0  0  0  0  0  0
  151.3079  141.6990  157.7335 C   0  0  0  0  0  0  0  0  0  0  0  0
  150.7881  142.8121  158.4175 C   0  0  0  0  0  0  0  0  0  0  0  0
  151.3641  143.2091  159.6425 C   0  0  0  0  0  0  0  0  0  0  0  0
  150.7974  144.4148  160.3707 C   0  0  0  0  0  0  0  0  0  0  0  0
  153.9040  142.2101  161.7696 H   0  0  0  0  0  0  0  0  0  0  0  0
  152.3577  142.8720  162.2948 H   0  0  0  0  0  0  0  0  0  0  0  0
  153.5108  143.8931  161.4223 H   0  0  0  0  0  0  0  0  0  0  0  0
  153.8086  140.8129  159.8819 H   0  0  0  0  0  0  0  0  0  0  0  0
  151.8466  139.3789  155.5860 H   0  0  0  0  0  0  0  0  0  0  0  0
  148.9844  141.4383  156.1469 H   0  0  0  0  0  0  0  0  0  0  0  0
  150.1033  142.4197  155.2298 H   0  0  0  0  0  0  0  0  0  0  0  0
  150.8180  139.9856  154.2636 H   0  0  0  0  0  0  0  0  0  0  0  0
  149.2905  140.4638  152.5770 H   0  0  0  0  0  0  0  0  0  0  0  0
  147.8313  139.7664  154.9587 H   0  0  0  0  0  0  0  0  0  0  0  0
  148.6263  138.7616  153.7845 H   0  0  0  0  0  0  0  0  0  0  0  0
  148.8854  136.3046  156.2185 H   0  0  0  0  0  0  0  0  0  0  0  0
  148.9062  136.6882  154.5074 H   0  0  0  0  0  0  0  0  0  0  0  0
  147.4850  137.0845  155.4769 H   0  0  0  0  0  0  0  0  0  0  0  0
  149.3232  139.6893  157.3957 H   0  0  0  0  0  0  0  0  0  0  0  0
  147.7059  139.1746  157.0630 H   0  0  0  0  0  0  0  0  0  0  0  0
  146.0751  138.2056  159.1591 H   0  0  0  0  0  0  0  0  0  0  0  0
  145.8668  136.4670  159.3466 H   0  0  0  0  0  0  0  0  0  0  0  0
  146.0764  137.1595  157.7430 H   0  0  0  0  0  0  0  0  0  0  0  0
  151.6983  138.5596  158.3062 H   0  0  0  0  0  0  0  0  0  0  0  0
  151.7832  137.0283  157.4355 H   0  0  0  0  0  0  0  0  0  0  0  0
  152.1395  137.0819  159.1639 H   0  0  0  0  0  0  0  0  0  0  0  0
  149.9553  143.3578  157.9988 H   0  0  0  0  0  0  0  0  0  0  0  0
  149.9801  144.8697  159.8104 H   0  0  0  0  0  0  0  0  0  0  0  0
  151.5675  145.1731  160.5123 H   0  0  0  0  0  0  0  0  0  0  0  0
  150.4125  144.1238  161.3483 H   0  0  0  0  0  0  0  0  0  0  0  0
  1  2  1  0  0  0  0
  1 26  1  0  0  0  0
  1 27  1  0  0  0  0
  1 28  1  0  0  0  0
  2 24  1  0  0  0  0
  2  3  2  0  0  0  0
  3  4  1  0  0  0  0
  3 29  1  0  0  0  0
  4 22  2  0  0  0  0
  4  5  1  0  0  0  0
  5  6  2  0  0  0  0
  6  7  1  0  0  0  0
  6 30  1  0  0  0  0
  7  8  1  0  0  0  0
  7 22  1  0  0  0  0
  8  9  1  0  0  0  0
  8 31  1  0  0  0  0
  8 32  1  0  0  0  0
  9 10  1  0  0  0  0
  9 11  1  0  0  0  0
  9 33  1  0  0  0  0
 10 34  1  0  0  0  0
 11 12  1  0  0  0  0
 11 35  1  0  0  0  0
 11 36  1  0  0  0  0
 12 13  1  0  0  0  0
 12 14  1  0  0  0  0
 13 37  1  0  0  0  0
 13 38  1  0  0  0  0
 13 39  1  0  0  0  0
 14 15  1  0  0  0  0
 14 40  1  0  0  0  0
 14 41  1  0  0  0  0
 15 20  2  0  0  0  0
 15 16  1  0  0  0  0
 16 17  1  0  0  0  0
 16 18  2  0  0  0  0
 17 42  1  0  0  0  0
 17 43  1  0  0  0  0
 17 44  1  0  0  0  0
 18 19  1  0  0  0  0
 19 20  1  0  0  0  0
 20 21  1  0  0  0  0
 21 45  1  0  0  0  0
 21 46  1  0  0  0  0
 21 47  1  0  0  0  0
 22 23  1  0  0  0  0
 23 24  2  0  0  0  0
 23 48  1  0  0  0  0
 24 25  1  0  0  0  0
 25 49  1  0  0  0  0
 25 50  1  0  0  0  0
 25 51  1  0  0  0  0
M  END
> <s_m_source_file>
AV-unprocessed.smi

> <i_m_source_file_index>
1207

> <i_lp_mmshare_version>
43012

> <i_f3d_flags>
0

> <s_epik_input>
W0NIM11jKFtjSF0xKWMoW0NIM10pW2NIXWMoYzEyKW4oW2NIXW4yKVtDSDJdW0NASF0oW09IXSlbQ0gyXU4oW0NIM10pW0NIMl1jM2MoW0NIM10pbm9jM1tDSDNd

> <s_epik_cmdline>
J2VwaWtfcHl0aG9uJywgJy1waCcsICc3LjAnLCAnLXRuJywgJzgnLCAnLW1hJywgJzIwMCcsICctbWV0YWxfYmluZGluZycsICctaW1hZScsICc8aW5maWxlLm1hZT4nLCAnLW9tYWUnLCAnPG91dGZpbGUubWFlPic=

> <r_epik_Ionization_Penalty>
0.374039

> <r_epik_Ionization_Penalty_Charging>
0

> <r_epik_Ionization_Penalty_Neutral>
0.374039

> <r_epik_State_Penalty>
0.350767

> <r_epik_Charging_Adjusted_Penalty>
0.350767

> <i_epik_Tot_Q>
0

> <i_epik_Tot_abs_Q>
0

> <r_epik_Metal_State_Penalty>
0.343187

> <b_epik_Metal_Only>
0

> <s_lp_Force_Field>
OPLS_2005

> <r_lp_Energy>
17.2157

> <b_lp_Chiralities_Consistent>
1

> <s_lp_Variant>
AV-unprocessed.smi:1207-1

> <Gold.Version>
5.8.1

> <Gold.Id.Protein>
6NUR|6NUR_protein|mol2

> <Gold.PLP.Fitness>
51.9977

> <Gold.PLP.PLP>
-42.2439

> <Gold.PLP.part.hbond>
-4.4089

> <Gold.PLP.part.metal>
0.0000

> <Gold.PLP.part.buried>
-5.1812

> <Gold.PLP.part.nonpolar>
-32.7570

> <Gold.PLP.part.repulsive>
0.0244

> <Gold.PLP.ligand.clash>
0.0000

> <Gold.PLP.ligand.torsion>
0.9965

> <Gold.PLP.Chemscore.Hbond>
3.8723

> <Gold.PLP.Chemscore.CHOScore>
0.0000

> <Gold.PLP.Chemscore.Metal>
0.0000

> <Gold.Chemscore.Hbonds>
donor molecule, donor type, donor heavy atom, donor atom, acceptor molecule, acceptor atom, score
      L1  H    10    34       P1  7957  0.86
      P1  H  6896  6908       L1    19  1.00
      P1  H  7997  8010       L1     5  1.00
      P1  H  8011  8017       L1    10  0.95

> <Gold.PLP.Chemscore.Internal.Correction>
0.1300

> <Gold.Rescore>
     Score         DG    S(hbond)    S(metal)    S(lipo)     H(rot)  DE(clash)    DE(int)     intcor
     20.97     -22.08       3.08        0.00     106.08       2.38       0.10       1.02       ----

> <Gold.Chemscore.Fitness>
20.9691

> <Gold.Chemscore.DG>
-22.0823

> <Gold.Chemscore.ZeroCoef>
-5.4800

> <Gold.Chemscore.Hbond>
3.0756

> <Gold.Chemscore.Metal>
0.0000

> <Gold.Chemscore.Lipo>
106.0812

> <Gold.Chemscore.Internal_Hbond>
0.0000

> <Gold.Chemscore.DEClash>
0.0965

> <Gold.Chemscore.DEInternal>
1.0167

> <Gold.Chemscore.Rot>
2.3756

> <Gold.Chemscore.Internal.Correction>
   9.000000E+99

> <Gold.Chemscore.Hbonds>
donor molecule, donor type, donor heavy atom, donor atom, acceptor molecule, acceptor atom, score
      L1  H    10    34       P1  7957  0.81
      P1  H  6896  6908       L1    19  0.94
      P1  H  7997  8010       L1     5  0.66
      P1  H  8011  8017       L1    10  0.21

> <Gold.Chemscore.Hbond.Weighted>
-10.2723

> <Gold.Chemscore.Metal.Weighted>
-0.0000

> <Gold.Chemscore.Lipo.Weighted>
-12.4115

> <Gold.Chemscore.Internal_Hbond.Weighted>
0.0000

> <Gold.Chemscore.DEClash.Weighted>
0.0965

> <Gold.Chemscore.DEInternal.Weighted>
1.0167

> <Gold.Chemscore.Rot.Weighted>
6.0816

> <Gold.Chemscore.Internal.Correction.Weighted>
   9.000000E+99

> <Gold.Protein.RotatedTorsions>
[ 6907 6896 6895 6894 ] final -164.04 input  -60.11 | X-H torsion
[ 7974 7965 7964 7962 ] final   -1.13 input  175.53 | X-H torsion
[ 8008 7997 7996 7995 ] final   43.72 input   59.86 | X-H torsion
[ 10167 10162 10161 10158 ] final  144.71 input  -65.29 | X-H torsion
[ 10718 10713 10712 10709 ] final   15.90 input   66.30 | X-H torsion
[ 10763 10752 10751 10750 ] final  145.98 input  -60.55 | X-H torsion
[ 11005 11000 10999 10996 ] final   27.24 input  -57.11 | X-H torsion

> <Gold.Protein.ActiveResidues>
 VAL166  LYS551  ARG553  GLY616  TRP617  ASP618  TYR619  PRO620  LYS621  CYS622 
 ASP623  PHE694  ASN695  SER759  ASP760  ASP761  ALA762  ILE779  LEU786  VAL792 
 PHE793  MET794  SER795  GLU796  ALA797  LYS798  CYS799  TRP800  GLU811  SER814 

> <Gold.Protein.RotatedAtoms>
  151.4056  133.3743  159.2737 H   0  0  0  0  0  0  0  0  0  0  0  0  # atno 6907 bound_to 6896
  150.9401  134.8812  159.7617 H   0  0  0  0  0  0  0  0  0  0  0  0  # atno 6908 bound_to 6896
  152.5067  134.4006  159.9467 H   0  0  0  0  0  0  0  0  0  0  0  0  # atno 6909 bound_to 6896
  146.2420  140.1373  142.8336 H   0  0  0  0  0  0  0  0  0  0  0  0  # atno 7974 bound_to 7965
  155.3074  140.3389  155.4245 H   0  0  0  0  0  0  0  0  0  0  0  0  # atno 8008 bound_to 7997
  156.1972  140.1719  156.8012 H   0  0  0  0  0  0  0  0  0  0  0  0  # atno 8009 bound_to 7997
  154.5513  140.0705  156.8656 H   0  0  0  0  0  0  0  0  0  0  0  0  # atno 8010 bound_to 7997
  139.4941  144.5953  151.6596 H   0  0  0  0  0  0  0  0  0  0  0  0  # atno 10167 bound_to 10162
  157.0601  130.6305  149.5784 H   0  0  0  0  0  0  0  0  0  0  0  0  # atno 10718 bound_to 10713
  154.0143  135.2911  155.3388 H   0  0  0  0  0  0  0  0  0  0  0  0  # atno 10763 bound_to 10752
  154.7085  135.5159  153.8633 H   0  0  0  0  0  0  0  0  0  0  0  0  # atno 10764 bound_to 10752
  153.0709  135.6647  154.0371 H   0  0  0  0  0  0  0  0  0  0  0  0  # atno 10765 bound_to 10752
  140.3284  134.2465  155.7706 H   0  0  0  0  0  0  0  0  0  0  0  0  # atno 11005 bound_to 11000
  145.0276  140.8844  143.5129 LP  0  0  0  0  0  0  0  0  0  0  0  0  # atno 17320 bound_to 7965
  145.1432  139.2559  143.5479 LP  0  0  0  0  0  0  0  0  0  0  0  0  # atno 17321 bound_to 7965
  140.5589  144.0301  150.6160 LP  0  0  0  0  0  0  0  0  0  0  0  0  # atno 17342 bound_to 10162
  140.3380  143.3037  152.0618 LP  0  0  0  0  0  0  0  0  0  0  0  0  # atno 17343 bound_to 10162
  155.9981  130.5054  150.7558 LP  0  0  0  0  0  0  0  0  0  0  0  0  # atno 17370 bound_to 10713
  157.4961  131.0915  151.0370 LP  0  0  0  0  0  0  0  0  0  0  0  0  # atno 17371 bound_to 10713
  141.2069  133.7819  157.0147 LP  0  0  0  0  0  0  0  0  0  0  0  0  # atno 17394 bound_to 11000
  140.0882  134.9608  157.1733 LP  0  0  0  0  0  0  0  0  0  0  0  0  # atno 17395 bound_to 11000

$$$$
