AV-unprocessed.smi:1623|AV-procd|sdf|6501|dock10
  -GOLD-   22720 7163D 1   1.00000     0.00000
 Structure written by MMmdl.
 42 43  0  0  0  0  0  0  0  0  1 V2000
  146.6505  137.1111  163.0464 C   0  0  0  0  0  0  0  0  0  0  0  0
  147.2068  136.2738  161.9266 C   0  0  0  0  0  0  0  0  0  0  0  0
  148.0225  136.8612  161.1140 N   0  0  0  0  0  0  0  0  0  0  0  0
  148.5875  136.1866  160.0491 N   0  0  0  0  0  0  0  0  0  0  0  0
  149.4863  137.0085  159.2307 C   0  0  0  0  0  0  0  0  0  0  0  0
  148.7503  138.1988  158.5767 C   0  0  2  0  0  0  0  0  0  0  0  0
  147.6161  137.7595  157.8576 O   0  0  0  0  0  0  0  0  0  0  0  0
  149.6432  138.9829  157.6018 C   0  0  0  0  0  0  0  0  0  0  0  0
  150.3537  139.9903  158.3097 O   0  0  0  0  0  0  0  0  0  0  0  0
  149.6916  141.2456  158.3589 C   0  0  0  0  0  0  0  0  0  0  0  0
  150.5679  142.3638  158.9054 C   0  0  0  0  0  0  0  0  0  0  0  0
  150.1352  143.7021  158.7856 C   0  0  0  0  0  0  0  0  0  0  0  0
  150.9256  144.7545  159.2855 C   0  0  0  0  0  0  0  0  0  0  0  0
  152.1571  144.4753  159.9064 C   0  0  0  0  0  0  0  0  0  0  0  0
  152.5981  143.1438  160.0244 C   0  0  0  0  0  0  0  0  0  0  0  0
  151.8108  142.0868  159.5249 C   0  0  0  0  0  0  0  0  0  0  0  0
  152.3930  140.4667  159.6853 Cl  0  0  0  0  0  0  0  0  0  0  0  0
  148.3477  134.8804  159.7414 C   0  0  0  0  0  0  0  0  0  0  0  0
  148.8636  134.3202  158.7732 O   0  0  0  0  0  0  0  0  0  0  0  0
  147.4265  134.2195  160.6688 C   0  0  0  0  0  0  0  0  0  0  0  0
  147.1487  132.8485  160.3857 C   0  0  0  0  0  0  0  0  0  0  0  0
  146.9423  131.7306  160.1669 N   0  0  0  0  0  0  0  0  0  0  0  0
  146.8742  134.8670  161.7250 C   0  0  0  0  0  0  0  0  0  0  0  0
  145.9120  134.2237  162.7144 C   0  0  0  0  0  0  0  0  0  0  0  0
  145.5632  137.0422  163.0806 H   0  0  0  0  0  0  0  0  0  0  0  0
  146.9071  138.1655  162.9317 H   0  0  0  0  0  0  0  0  0  0  0  0
  147.0419  136.7778  164.0077 H   0  0  0  0  0  0  0  0  0  0  0  0
  150.2701  137.3941  159.8859 H   0  0  0  0  0  0  0  0  0  0  0  0
  150.0180  136.4161  158.4837 H   0  0  0  0  0  0  0  0  0  0  0  0
  148.4029  138.8912  159.3447 H   0  0  0  0  0  0  0  0  0  0  0  0
  147.0646  137.2641  158.4440 H   0  0  0  0  0  0  0  0  0  0  0  0
  150.3323  138.3207  157.0752 H   0  0  0  0  0  0  0  0  0  0  0  0
  149.0050  139.4436  156.8468 H   0  0  0  0  0  0  0  0  0  0  0  0
  149.3970  141.5122  157.3437 H   0  0  0  0  0  0  0  0  0  0  0  0
  148.7671  141.1579  158.9318 H   0  0  0  0  0  0  0  0  0  0  0  0
  149.1908  143.9274  158.3123 H   0  0  0  0  0  0  0  0  0  0  0  0
  150.5868  145.7759  159.1924 H   0  0  0  0  0  0  0  0  0  0  0  0
  152.7644  145.2818  160.2903 H   0  0  0  0  0  0  0  0  0  0  0  0
  153.5451  142.9333  160.4994 H   0  0  0  0  0  0  0  0  0  0  0  0
  145.8580  133.1425  162.5905 H   0  0  0  0  0  0  0  0  0  0  0  0
  144.9071  134.6246  162.5798 H   0  0  0  0  0  0  0  0  0  0  0  0
  146.2243  134.4136  163.7417 H   0  0  0  0  0  0  0  0  0  0  0  0
  1  2  1  0  0  0  0
  1 25  1  0  0  0  0
  1 26  1  0  0  0  0
  1 27  1  0  0  0  0
  2 23  1  0  0  0  0
  2  3  2  0  0  0  0
  3  4  1  0  0  0  0
  4  5  1  0  0  0  0
  4 18  1  0  0  0  0
  5  6  1  0  0  0  0
  5 28  1  0  0  0  0
  5 29  1  0  0  0  0
  6  7  1  0  0  0  0
  6  8  1  0  0  0  0
  6 30  1  0  0  0  0
  7 31  1  0  0  0  0
  8  9  1  0  0  0  0
  8 32  1  0  0  0  0
  8 33  1  0  0  0  0
  9 10  1  0  0  0  0
 10 11  1  0  0  0  0
 10 34  1  0  0  0  0
 10 35  1  0  0  0  0
 11 16  1  0  0  0  0
 11 12  2  0  0  0  0
 12 13  1  0  0  0  0
 12 36  1  0  0  0  0
 13 14  2  0  0  0  0
 13 37  1  0  0  0  0
 14 15  1  0  0  0  0
 14 38  1  0  0  0  0
 15 16  2  0  0  0  0
 15 39  1  0  0  0  0
 16 17  1  0  0  0  0
 18 19  2  0  0  0  0
 18 20  1  0  0  0  0
 20 21  1  0  0  0  0
 20 23  2  0  0  0  0
 21 22  3  0  0  0  0
 23 24  1  0  0  0  0
 24 40  1  0  0  0  0
 24 41  1  0  0  0  0
 24 42  1  0  0  0  0
M  END
> <s_m_source_file>
AV-unprocessed.smi

> <i_m_source_file_index>
1623

> <i_lp_mmshare_version>
43012

> <i_f3d_flags>
0

> <s_epik_input>
TiNDYyhjMVtDSDNdKWMoPU8pbihuYzFbQ0gzXSlbQ0gyXVtDQEhdKFtPSF0pW0NIMl1PW0NIMl1jMltjSF1bY0hdW2NIXVtjSF1jMkNs

> <s_epik_cmdline>
J2VwaWtfcHl0aG9uJywgJy1waCcsICc3LjAnLCAnLXRuJywgJzgnLCAnLW1hJywgJzIwMCcsICctbWV0YWxfYmluZGluZycsICctaW1hZScsICc8aW5maWxlLm1hZT4nLCAnLW9tYWUnLCAnPG91dGZpbGUubWFlPic=

> <r_lp_tautomer_probability>
1

> <r_epik_Ionization_Penalty>
6.50533e-08

> <r_epik_Ionization_Penalty_Charging>
2.19172e-10

> <r_epik_Ionization_Penalty_Neutral>
6.48342e-08

> <r_epik_State_Penalty>
-0

> <r_epik_Charging_Adjusted_Penalty>
2.19172e-10

> <i_epik_Tot_Q>
0

> <i_epik_Tot_abs_Q>
0

> <r_epik_Metal_State_Penalty>
-0

> <b_epik_Metal_Only>
0

> <s_lp_Force_Field>
OPLS_2005

> <r_lp_Energy>
31.4415

> <b_lp_Chiralities_Consistent>
1

> <s_lp_Variant>
AV-unprocessed.smi:1623-1

> <Gold.Version>
5.8.1

> <Gold.Id.Protein>
6NUR|6NUR_protein|mol2

> <Gold.PLP.Fitness>
50.2272

> <Gold.PLP.PLP>
-44.3992

> <Gold.PLP.part.hbond>
-3.0000

> <Gold.PLP.part.metal>
0.0000

> <Gold.PLP.part.buried>
-3.2687

> <Gold.PLP.part.nonpolar>
-37.9900

> <Gold.PLP.part.repulsive>
0.0000

> <Gold.PLP.ligand.clash>
0.0000

> <Gold.PLP.ligand.torsion>
0.7319

> <Gold.PLP.Chemscore.Hbond>
2.4113

> <Gold.PLP.Chemscore.CHOScore>
0.0000

> <Gold.PLP.Chemscore.Metal>
0.0000

> <Gold.Chemscore.Hbonds>
donor molecule, donor type, donor heavy atom, donor atom, acceptor molecule, acceptor atom, score
      P1  H  6896  6909       L1    19  0.95
      P1  H  6931  6943       L1     3  1.00
      P1  H  6934  6947       L1     3  0.21

> <Gold.PLP.Chemscore.Internal.Correction>
0.0579

> <Gold.Rescore>
     Score         DG    S(hbond)    S(metal)    S(lipo)     H(rot)  DE(clash)    DE(int)     intcor
     13.29     -15.87       0.95        0.00     116.04       2.48       0.18       2.41       ----

> <Gold.Chemscore.Fitness>
13.2896

> <Gold.Chemscore.DG>
-15.8733

> <Gold.Chemscore.ZeroCoef>
-5.4800

> <Gold.Chemscore.Hbond>
0.9460

> <Gold.Chemscore.Metal>
0.0000

> <Gold.Chemscore.Lipo>
116.0378

> <Gold.Chemscore.Internal_Hbond>
0.0000

> <Gold.Chemscore.DEClash>
0.1787

> <Gold.Chemscore.DEInternal>
2.4050

> <Gold.Chemscore.Rot>
2.4777

> <Gold.Chemscore.Internal.Correction>
   9.000000E+99

> <Gold.Chemscore.Hbonds>
donor molecule, donor type, donor heavy atom, donor atom, acceptor molecule, acceptor atom, score
      P1  H  6896  6909       L1    19  0.22
      P1  H  6931  6943       L1     3  0.82
      P1  H  6934  6947       L1     3  0.09

> <Gold.Chemscore.Hbond.Weighted>
-3.1597

> <Gold.Chemscore.Metal.Weighted>
-0.0000

> <Gold.Chemscore.Lipo.Weighted>
-13.5764

> <Gold.Chemscore.Internal_Hbond.Weighted>
0.0000

> <Gold.Chemscore.DEClash.Weighted>
0.1787

> <Gold.Chemscore.DEInternal.Weighted>
2.4050

> <Gold.Chemscore.Rot.Weighted>
6.3428

> <Gold.Chemscore.Internal.Correction.Weighted>
   9.000000E+99

> <Gold.Protein.RotatedTorsions>
[ 6907 6896 6895 6894 ] final   26.31 input  -60.11 | X-H torsion
[ 7974 7965 7964 7962 ] final  -47.87 input  175.53 | X-H torsion
[ 8008 7997 7996 7995 ] final -116.88 input   59.86 | X-H torsion
[ 10167 10162 10161 10158 ] final  -54.23 input  -65.29 | X-H torsion
[ 10718 10713 10712 10709 ] final -142.21 input   66.30 | X-H torsion
[ 10763 10752 10751 10750 ] final   52.77 input  -60.55 | X-H torsion
[ 11005 11000 10999 10996 ] final  -53.54 input  -57.11 | X-H torsion

> <Gold.Protein.ActiveResidues>
 VAL166  LYS551  ARG553  GLY616  TRP617  ASP618  TYR619  PRO620  LYS621  CYS622 
 ASP623  PHE694  ASN695  SER759  ASP760  ASP761  ALA762  ILE779  LEU786  VAL792 
 PHE793  MET794  SER795  GLU796  ALA797  LYS798  CYS799  TRP800  GLU811  SER814 

> <Gold.Protein.RotatedAtoms>
  151.9855  135.0006  160.0559 H   0  0  0  0  0  0  0  0  0  0  0  0  # atno 6907 bound_to 6896
  152.1657  133.4605  159.4891 H   0  0  0  0  0  0  0  0  0  0  0  0  # atno 6908 bound_to 6896
  150.6894  134.1934  159.4337 H   0  0  0  0  0  0  0  0  0  0  0  0  # atno 6909 bound_to 6896
  145.9571  140.7515  142.9475 H   0  0  0  0  0  0  0  0  0  0  0  0  # atno 7974 bound_to 7965
  155.0749  140.0394  157.2620 H   0  0  0  0  0  0  0  0  0  0  0  0  # atno 8008 bound_to 7997
  154.6953  140.2662  155.6748 H   0  0  0  0  0  0  0  0  0  0  0  0  # atno 8009 bound_to 7997
  156.2742  140.2751  156.1545 H   0  0  0  0  0  0  0  0  0  0  0  0  # atno 8010 bound_to 7997
  140.6442  143.2525  151.4906 H   0  0  0  0  0  0  0  0  0  0  0  0  # atno 10167 bound_to 10162
  156.3432  130.7648  151.1788 H   0  0  0  0  0  0  0  0  0  0  0  0  # atno 10718 bound_to 10713
  152.9791  135.5801  154.4633 H   0  0  0  0  0  0  0  0  0  0  0  0  # atno 10763 bound_to 10752
  154.4206  135.2771  155.1980 H   0  0  0  0  0  0  0  0  0  0  0  0  # atno 10764 bound_to 10752
  154.3730  135.6163  153.5804 H   0  0  0  0  0  0  0  0  0  0  0  0  # atno 10765 bound_to 10752
  141.0981  133.6621  156.4187 H   0  0  0  0  0  0  0  0  0  0  0  0  # atno 11005 bound_to 11000
  144.6807  140.2530  143.7329 LP  0  0  0  0  0  0  0  0  0  0  0  0  # atno 17320 bound_to 7965
  145.8091  139.1995  143.2003 LP  0  0  0  0  0  0  0  0  0  0  0  0  # atno 17321 bound_to 7965
  139.5652  144.2060  152.1753 LP  0  0  0  0  0  0  0  0  0  0  0  0  # atno 17342 bound_to 10162
  140.1340  144.5262  150.6785 LP  0  0  0  0  0  0  0  0  0  0  0  0  # atno 17343 bound_to 10162
  157.7450  131.0449  150.4814 LP  0  0  0  0  0  0  0  0  0  0  0  0  # atno 17370 bound_to 10713
  156.4998  130.4114  149.6360 LP  0  0  0  0  0  0  0  0  0  0  0  0  # atno 17371 bound_to 10713
  140.5090  134.6413  157.5277 LP  0  0  0  0  0  0  0  0  0  0  0  0  # atno 17394 bound_to 11000
  139.9823  134.7117  155.9836 LP  0  0  0  0  0  0  0  0  0  0  0  0  # atno 17395 bound_to 11000

$$$$
