AV-unprocessed.smi:781|AV-procd|sdf|3710|dock4
  -GOLD-   22720 1133D 1   1.00000     0.00000
 Structure written by MMmdl.
 38 40  0  0  0  0  0  0  0  0  1 V2000
  146.9839  129.7627  152.6822 C   0  0  0  0  0  0  0  0  0  0  0  0
  147.7902  130.9127  153.1807 C   0  0  0  0  0  0  0  0  0  0  0  0
  147.6735  132.2659  153.0298 C   0  0  0  0  0  0  0  0  0  0  0  0
  148.7780  132.7669  153.7691 C   0  0  0  0  0  0  0  0  0  0  0  0
  149.0174  134.1616  153.8648 N   0  0  0  0  0  0  0  0  0  0  0  0
  149.5504  134.8316  154.9008 C   0  0  0  0  0  0  0  0  0  0  0  0
  149.9274  134.3227  155.9567 O   0  0  0  0  0  0  0  0  0  0  0  0
  149.6168  136.1467  154.6473 N   0  0  0  0  0  0  0  0  0  0  0  0
  150.1552  137.1587  155.5578 C   0  0  1  0  0  0  0  0  0  0  0  0
  151.6970  137.1813  155.4769 C   0  0  2  0  0  0  0  0  0  0  0  0
  152.2538  137.9474  156.6906 C   0  0  0  0  0  0  0  0  0  0  0  0
  151.8795  139.4060  156.3649 C   0  0  0  0  0  0  0  0  0  0  0  0
  151.1601  139.2813  155.0068 C   0  0  1  0  0  0  0  0  0  0  0  0
  151.9579  138.1658  154.3435 C   0  0  0  0  0  0  0  0  0  0  0  0
  149.7701  138.6314  155.2188 C   0  0  1  0  0  0  0  0  0  0  0  0
  148.8133  138.8298  154.0207 C   0  0  0  0  0  0  0  0  0  0  0  0
  148.7156  140.1988  153.6881 O   0  0  0  0  0  0  0  0  0  0  0  0
  149.5032  131.8065  154.3214 N   0  0  0  0  0  0  0  0  0  0  0  0
  148.8740  130.6132  153.9470 O   0  0  0  0  0  0  0  0  0  0  0  0
  146.1862  130.1034  152.0219 H   0  0  0  0  0  0  0  0  0  0  0  0
  146.5283  129.2217  153.5117 H   0  0  0  0  0  0  0  0  0  0  0  0
  147.6086  129.0644  152.1251 H   0  0  0  0  0  0  0  0  0  0  0  0
  146.9180  132.8068  152.4795 H   0  0  0  0  0  0  0  0  0  0  0  0
  148.7515  134.7080  153.0590 H   0  0  0  0  0  0  0  0  0  0  0  0
  149.2812  136.4763  153.7542 H   0  0  0  0  0  0  0  0  0  0  0  0
  149.8493  136.9125  156.5765 H   0  0  0  0  0  0  0  0  0  0  0  0
  152.1504  136.1977  155.3468 H   0  0  0  0  0  0  0  0  0  0  0  0
  151.8250  137.6061  157.6336 H   0  0  0  0  0  0  0  0  0  0  0  0
  153.3369  137.8359  156.7568 H   0  0  0  0  0  0  0  0  0  0  0  0
  151.2471  139.8557  157.1311 H   0  0  0  0  0  0  0  0  0  0  0  0
  152.7770  140.0190  156.2731 H   0  0  0  0  0  0  0  0  0  0  0  0
  151.1361  140.2186  154.4503 H   0  0  0  0  0  0  0  0  0  0  0  0
  153.0145  138.4071  154.2150 H   0  0  0  0  0  0  0  0  0  0  0  0
  151.5484  137.8450  153.3848 H   0  0  0  0  0  0  0  0  0  0  0  0
  149.2894  139.0772  156.0913 H   0  0  0  0  0  0  0  0  0  0  0  0
  149.1454  138.2729  153.1443 H   0  0  0  0  0  0  0  0  0  0  0  0
  147.8113  138.4803  154.2694 H   0  0  0  0  0  0  0  0  0  0  0  0
  149.1337  140.3358  152.8516 H   0  0  0  0  0  0  0  0  0  0  0  0
  1  2  1  0  0  0  0
  1 20  1  0  0  0  0
  1 21  1  0  0  0  0
  1 22  1  0  0  0  0
  2 19  1  0  0  0  0
  2  3  2  0  0  0  0
  3  4  1  0  0  0  0
  3 23  1  0  0  0  0
  4  5  1  0  0  0  0
  4 18  2  0  0  0  0
  5  6  1  0  0  0  0
  5 24  1  0  0  0  0
  6  7  2  0  0  0  0
  6  8  1  0  0  0  0
  8  9  1  0  0  0  0
  8 25  1  0  0  0  0
  9 15  1  0  0  0  0
  9 10  1  0  0  0  0
  9 26  1  0  0  0  0
 10 14  1  0  0  0  0
 10 11  1  0  0  0  0
 10 27  1  0  0  0  0
 11 12  1  0  0  0  0
 11 28  1  0  0  0  0
 11 29  1  0  0  0  0
 12 13  1  0  0  0  0
 12 30  1  0  0  0  0
 12 31  1  0  0  0  0
 13 14  1  0  0  0  0
 13 15  1  0  0  0  0
 13 32  1  0  0  0  0
 14 33  1  0  0  0  0
 14 34  1  0  0  0  0
 15 16  1  0  0  0  0
 15 35  1  0  0  0  0
 16 17  1  0  0  0  0
 16 36  1  0  0  0  0
 16 37  1  0  0  0  0
 17 38  1  0  0  0  0
 18 19  1  0  0  0  0
M  END
> <s_m_source_file>
AV-unprocessed.smi

> <i_m_source_file_index>
781

> <i_lp_mmshare_version>
43012

> <i_f3d_flags>
0

> <s_epik_input>
W0NIM11jMVtjSF1jKG5vMSlbTkhdQyg9TylbTkhdW0NASF0oW0NAQEhdMjMpW0NASF0oW0NIMl1bT0hdKVtDQEBIXShbQ0gyXTMpW0NIMl1bQ0gyXTI=

> <s_epik_cmdline>
J2VwaWtfcHl0aG9uJywgJy1waCcsICc3LjAnLCAnLXRuJywgJzgnLCAnLW1hJywgJzIwMCcsICctbWV0YWxfYmluZGluZycsICctaW1hZScsICc8aW5maWxlLm1hZT4nLCAnLW9tYWUnLCAnPG91dGZpbGUubWFlPic=

> <r_lp_tautomer_probability>
1

> <r_epik_Ionization_Penalty>
2.32222e-05

> <r_epik_Ionization_Penalty_Charging>
0

> <r_epik_Ionization_Penalty_Neutral>
2.32222e-05

> <r_epik_State_Penalty>
-0

> <r_epik_Charging_Adjusted_Penalty>
0

> <i_epik_Tot_Q>
0

> <i_epik_Tot_abs_Q>
0

> <r_epik_Metal_State_Penalty>
-0

> <b_epik_Metal_Only>
0

> <s_lp_Force_Field>
OPLS_2005

> <r_lp_Energy>
48.1353

> <b_lp_Chiralities_Consistent>
1

> <s_lp_Variant>
AV-unprocessed.smi:781-4

> <Gold.Version>
5.8.1

> <Gold.Id.Protein>
6NUR|6NUR_protein|mol2

> <Gold.PLP.Fitness>
37.0581

> <Gold.PLP.PLP>
-29.1145

> <Gold.PLP.part.hbond>
-3.0000

> <Gold.PLP.part.metal>
0.0000

> <Gold.PLP.part.buried>
-3.1577

> <Gold.PLP.part.nonpolar>
-23.0578

> <Gold.PLP.part.repulsive>
0.1656

> <Gold.PLP.ligand.clash>
0.0000

> <Gold.PLP.ligand.torsion>
0.5020

> <Gold.PLP.Chemscore.Hbond>
2.9760

> <Gold.PLP.Chemscore.CHOScore>
0.0000

> <Gold.PLP.Chemscore.Metal>
0.0000

> <Gold.Chemscore.Hbonds>
donor molecule, donor type, donor heavy atom, donor atom, acceptor molecule, acceptor atom, score
      L1  H     5    24       P1  7948  0.90
      L1  H     8    25       P1  7948  1.00
      L1  H    17    38       P1  7957  1.00

> <Gold.PLP.Chemscore.Internal.Correction>
0.0197

> <Gold.Rescore>
     Score         DG    S(hbond)    S(metal)    S(lipo)     H(rot)  DE(clash)    DE(int)     intcor
     15.67     -16.41       2.46        0.00      63.84       1.86       0.04       0.69       ----

> <Gold.Chemscore.Fitness>
15.6702

> <Gold.Chemscore.DG>
-16.4073

> <Gold.Chemscore.ZeroCoef>
-5.4800

> <Gold.Chemscore.Hbond>
2.4598

> <Gold.Chemscore.Metal>
0.0000

> <Gold.Chemscore.Lipo>
63.8436

> <Gold.Chemscore.Internal_Hbond>
0.0000

> <Gold.Chemscore.DEClash>
0.0449

> <Gold.Chemscore.DEInternal>
0.6922

> <Gold.Chemscore.Rot>
1.8587

> <Gold.Chemscore.Internal.Correction>
   9.000000E+99

> <Gold.Chemscore.Hbonds>
donor molecule, donor type, donor heavy atom, donor atom, acceptor molecule, acceptor atom, score
      L1  H     5    24       P1  7948  0.17
      L1  H     8    25       P1  7948  0.88
      L1  H    17    38       P1  7957  0.99

> <Gold.Chemscore.Hbond.Weighted>
-8.2159

> <Gold.Chemscore.Metal.Weighted>
-0.0000

> <Gold.Chemscore.Lipo.Weighted>
-7.4697

> <Gold.Chemscore.Internal_Hbond.Weighted>
0.0000

> <Gold.Chemscore.DEClash.Weighted>
0.0449

> <Gold.Chemscore.DEInternal.Weighted>
0.6922

> <Gold.Chemscore.Rot.Weighted>
4.7583

> <Gold.Chemscore.Internal.Correction.Weighted>
   9.000000E+99

> <Gold.Protein.RotatedTorsions>
[ 6907 6896 6895 6894 ] final  127.77 input  -60.11 | X-H torsion
[ 7974 7965 7964 7962 ] final -116.47 input  175.53 | X-H torsion
[ 8008 7997 7996 7995 ] final  154.53 input   59.86 | X-H torsion
[ 10167 10162 10161 10158 ] final -152.24 input  -65.29 | X-H torsion
[ 10718 10713 10712 10709 ] final   43.93 input   66.30 | X-H torsion
[ 10763 10752 10751 10750 ] final   26.11 input  -60.55 | X-H torsion
[ 11005 11000 10999 10996 ] final  -79.12 input  -57.11 | X-H torsion

> <Gold.Protein.ActiveResidues>
 VAL166  LYS551  ARG553  GLY616  TRP617  ASP618  TYR619  PRO620  LYS621  CYS622 
 ASP623  PHE694  ASN695  SER759  ASP760  ASP761  ALA762  ILE779  LEU786  VAL792 
 PHE793  MET794  SER795  GLU796  ALA797  LYS798  CYS799  TRP800  GLU811  SER814 

> <Gold.Protein.RotatedAtoms>
  152.3782  133.6510  159.6139 H   0  0  0  0  0  0  0  0  0  0  0  0  # atno 6907 bound_to 6896
  150.7720  133.9158  159.3392 H   0  0  0  0  0  0  0  0  0  0  0  0  # atno 6908 bound_to 6896
  151.6969  135.0938  160.0295 H   0  0  0  0  0  0  0  0  0  0  0  0  # atno 6909 bound_to 6896
  145.0964  140.8523  143.3952 H   0  0  0  0  0  0  0  0  0  0  0  0  # atno 7974 bound_to 7965
  156.2526  140.1964  156.6660 H   0  0  0  0  0  0  0  0  0  0  0  0  # atno 8008 bound_to 7997
  154.6428  140.0581  156.9891 H   0  0  0  0  0  0  0  0  0  0  0  0  # atno 8009 bound_to 7997
  155.1536  140.3253  155.4428 H   0  0  0  0  0  0  0  0  0  0  0  0  # atno 8010 bound_to 7997
  139.7198  143.8975  152.2499 H   0  0  0  0  0  0  0  0  0  0  0  0  # atno 10167 bound_to 10162
  157.4213  130.7971  149.7518 H   0  0  0  0  0  0  0  0  0  0  0  0  # atno 10718 bound_to 10713
  153.0645  135.6567  154.0387 H   0  0  0  0  0  0  0  0  0  0  0  0  # atno 10763 bound_to 10752
  154.0047  135.2934  155.3400 H   0  0  0  0  0  0  0  0  0  0  0  0  # atno 10764 bound_to 10752
  154.6997  135.5249  153.8577 H   0  0  0  0  0  0  0  0  0  0  0  0  # atno 10765 bound_to 10752
  141.1666  133.7092  156.8075 H   0  0  0  0  0  0  0  0  0  0  0  0  # atno 11005 bound_to 11000
  145.1006  139.2825  143.5688 LP  0  0  0  0  0  0  0  0  0  0  0  0  # atno 17320 bound_to 7965
  146.3530  140.0572  142.8632 LP  0  0  0  0  0  0  0  0  0  0  0  0  # atno 17321 bound_to 7965
  139.8868  144.6988  150.8815 LP  0  0  0  0  0  0  0  0  0  0  0  0  # atno 17342 bound_to 10162
  140.7751  143.3618  151.1814 LP  0  0  0  0  0  0  0  0  0  0  0  0  # atno 17343 bound_to 10162
  155.9881  130.3961  150.3132 LP  0  0  0  0  0  0  0  0  0  0  0  0  # atno 17370 bound_to 10713
  157.1280  131.0264  151.2981 LP  0  0  0  0  0  0  0  0  0  0  0  0  # atno 17371 bound_to 10713
  140.2212  134.8756  157.3379 LP  0  0  0  0  0  0  0  0  0  0  0  0  # atno 17394 bound_to 11000
  140.1986  134.4283  155.7675 LP  0  0  0  0  0  0  0  0  0  0  0  0  # atno 17395 bound_to 11000

$$$$
