AV-unprocessed.smi:1723|AV-procd|sdf|6945|dock5
  -GOLD-   22720 8153D 1   1.00000     0.00000
 Structure written by MMmdl.
 38 38  0  0  0  0  0  0  0  0  1 V2000
  150.0200  132.4695  155.1964 C   0  0  0  0  0  0  0  0  0  0  0  0
  149.7116  133.8895  154.7093 C   0  0  0  0  0  0  0  0  0  0  0  0
  150.4947  134.9604  155.4815 C   0  0  0  0  0  0  0  0  0  0  0  0
  150.1521  136.3838  155.0278 C   0  0  0  0  0  0  0  0  0  0  0  0
  150.9916  137.2947  155.7278 O   0  0  0  0  0  0  0  0  0  0  0  0
  150.5029  138.6300  155.8223 C   0  0  2  0  0  0  0  0  0  0  0  0
  150.2031  139.1151  154.3959 C   0  0  0  0  0  0  0  0  0  0  0  0
  151.5414  139.5291  156.5131 C   0  0  0  0  0  0  0  0  0  0  0  0
  152.7101  139.5059  156.1287 O   0  0  0  0  0  0  0  0  0  0  0  0
  151.0736  140.2689  157.5383 N   0  0  0  0  0  0  0  0  0  0  0  0
  151.7484  141.1775  158.3717 C   0  0  0  0  0  0  0  0  0  0  0  0
  151.2846  142.4044  158.7275 C   0  0  0  0  0  0  0  0  0  0  0  0
  152.0343  143.2891  159.6036 C   0  0  0  0  0  0  0  0  0  0  0  0
  151.5456  144.6933  159.9242 C   0  0  0  0  0  0  0  0  0  0  0  0
  152.2134  145.6102  159.2226 F   0  0  0  0  0  0  0  0  0  0  0  0
  150.2469  144.8218  159.6514 F   0  0  0  0  0  0  0  0  0  0  0  0
  151.7251  144.9501  161.2192 F   0  0  0  0  0  0  0  0  0  0  0  0
  153.2209  142.8330  160.0447 C   0  0  0  0  0  0  0  0  0  0  0  0
  153.6944  141.5644  159.7036 N   0  0  0  0  0  0  0  0  0  0  0  0
  153.0403  140.7016  158.8940 C   0  0  0  0  0  0  0  0  0  0  0  0
  153.5277  139.6012  158.6367 O   0  0  0  0  0  0  0  0  0  0  0  0
  154.5853  141.2880  160.0906 H   0  0  0  0  0  0  0  0  0  0  0  0
  149.4531  131.7320  154.6278 H   0  0  0  0  0  0  0  0  0  0  0  0
  149.7603  132.3493  156.2485 H   0  0  0  0  0  0  0  0  0  0  0  0
  151.0786  132.2348  155.0830 H   0  0  0  0  0  0  0  0  0  0  0  0
  149.9428  133.9636  153.6460 H   0  0  0  0  0  0  0  0  0  0  0  0
  148.6416  134.0768  154.8070 H   0  0  0  0  0  0  0  0  0  0  0  0
  150.2880  134.8646  156.5481 H   0  0  0  0  0  0  0  0  0  0  0  0
  151.5647  134.7901  155.3572 H   0  0  0  0  0  0  0  0  0  0  0  0
  150.3113  136.4831  153.9531 H   0  0  0  0  0  0  0  0  0  0  0  0
  149.0992  136.5876  155.2257 H   0  0  0  0  0  0  0  0  0  0  0  0
  149.5690  138.6350  156.3879 H   0  0  0  0  0  0  0  0  0  0  0  0
  149.8442  140.1450  154.3938 H   0  0  0  0  0  0  0  0  0  0  0  0
  149.4326  138.4982  153.9331 H   0  0  0  0  0  0  0  0  0  0  0  0
  151.0881  139.0665  153.7600 H   0  0  0  0  0  0  0  0  0  0  0  0
  150.1003  140.1335  157.7721 H   0  0  0  0  0  0  0  0  0  0  0  0
  150.3274  142.7604  158.3846 H   0  0  0  0  0  0  0  0  0  0  0  0
  153.8921  143.3959  160.6765 H   0  0  0  0  0  0  0  0  0  0  0  0
  1  2  1  0  0  0  0
  1 23  1  0  0  0  0
  1 24  1  0  0  0  0
  1 25  1  0  0  0  0
  2  3  1  0  0  0  0
  2 26  1  0  0  0  0
  2 27  1  0  0  0  0
  3  4  1  0  0  0  0
  3 28  1  0  0  0  0
  3 29  1  0  0  0  0
  4  5  1  0  0  0  0
  4 30  1  0  0  0  0
  4 31  1  0  0  0  0
  5  6  1  0  0  0  0
  6  7  1  0  0  0  0
  6  8  1  0  0  0  0
  6 32  1  0  0  0  0
  7 33  1  0  0  0  0
  7 34  1  0  0  0  0
  7 35  1  0  0  0  0
  8  9  2  0  0  0  0
  8 10  1  0  0  0  0
 10 11  1  0  0  0  0
 10 36  1  0  0  0  0
 11 20  1  0  0  0  0
 11 12  2  0  0  0  0
 12 13  1  0  0  0  0
 12 37  1  0  0  0  0
 13 14  1  0  0  0  0
 13 18  2  0  0  0  0
 14 15  1  0  0  0  0
 14 16  1  0  0  0  0
 14 17  1  0  0  0  0
 18 19  1  0  0  0  0
 18 38  1  0  0  0  0
 19 22  1  0  0  0  0
 19 20  1  0  0  0  0
 20 21  2  0  0  0  0
M  END
> <s_m_source_file>
AV-unprocessed.smi

> <i_m_source_file_index>
1723

> <i_lp_mmshare_version>
43012

> <i_f3d_flags>
0

> <s_epik_input>
W0NIM11bQ0gyXVtDSDJdW0NIMl1PW0NASF0oW0NIM10pQyg9TylbTkhdYzFbY0hdYyhDKEYpKEYpRilbY0hdW25IXWMxPU8=

> <s_epik_cmdline>
J2VwaWtfcHl0aG9uJywgJy1waCcsICc3LjAnLCAnLXRuJywgJzgnLCAnLW1hJywgJzIwMCcsICctbWV0YWxfYmluZGluZycsICctaW1hZScsICc8aW5maWxlLm1hZT4nLCAnLW9tYWUnLCAnPG91dGZpbGUubWFlPic=

> <r_lp_tautomer_probability>
0.999

> <r_epik_Ionization_Penalty>
0.00763408

> <r_epik_Ionization_Penalty_Charging>
0.00763398

> <r_epik_Ionization_Penalty_Neutral>
9.29819e-08

> <r_epik_State_Penalty>
0.00571302

> <r_epik_Charging_Adjusted_Penalty>
0.013347

> <i_epik_Tot_Q>
0

> <i_epik_Tot_abs_Q>
0

> <r_epik_Metal_State_Penalty>
0.392814

> <b_epik_Metal_Only>
0

> <s_lp_Force_Field>
OPLS_2005

> <r_lp_Energy>
19.1413

> <b_lp_Chiralities_Consistent>
1

> <s_lp_Variant>
AV-unprocessed.smi:1723-1

> <Gold.Version>
5.8.1

> <Gold.Id.Protein>
6NUR|6NUR_protein|mol2

> <Gold.PLP.Fitness>
41.8351

> <Gold.PLP.PLP>
-41.1898

> <Gold.PLP.part.hbond>
-2.0000

> <Gold.PLP.part.metal>
0.0000

> <Gold.PLP.part.buried>
-3.8894

> <Gold.PLP.part.nonpolar>
-35.1640

> <Gold.PLP.part.repulsive>
0.1701

> <Gold.PLP.ligand.clash>
0.0000

> <Gold.PLP.ligand.torsion>
1.2991

> <Gold.PLP.Chemscore.Hbond>
1.0000

> <Gold.PLP.Chemscore.CHOScore>
0.0000

> <Gold.PLP.Chemscore.Metal>
0.0000

> <Gold.Chemscore.Hbonds>
donor molecule, donor type, donor heavy atom, donor atom, acceptor molecule, acceptor atom, score
      P1  H  7997  8010       L1     9  1.00

> <Gold.PLP.Chemscore.Internal.Correction>
0.2436

> <Gold.Rescore>
     Score         DG    S(hbond)    S(metal)    S(lipo)     H(rot)  DE(clash)    DE(int)     intcor
     11.61     -13.44       1.00        0.00      83.19       1.99       0.62       1.22       ----

> <Gold.Chemscore.Fitness>
11.6098

> <Gold.Chemscore.DG>
-13.4447

> <Gold.Chemscore.ZeroCoef>
-5.4800

> <Gold.Chemscore.Hbond>
0.9994

> <Gold.Chemscore.Metal>
0.0000

> <Gold.Chemscore.Lipo>
83.1870

> <Gold.Chemscore.Internal_Hbond>
0.0000

> <Gold.Chemscore.DEClash>
0.6155

> <Gold.Chemscore.DEInternal>
1.2194

> <Gold.Chemscore.Rot>
1.9946

> <Gold.Chemscore.Internal.Correction>
   9.000000E+99

> <Gold.Chemscore.Hbonds>
donor molecule, donor type, donor heavy atom, donor atom, acceptor molecule, acceptor atom, score
      P1  H  7997  8010       L1     9  0.99

> <Gold.Chemscore.Hbond.Weighted>
-3.3381

> <Gold.Chemscore.Metal.Weighted>
-0.0000

> <Gold.Chemscore.Lipo.Weighted>
-9.7329

> <Gold.Chemscore.Internal_Hbond.Weighted>
0.0000

> <Gold.Chemscore.DEClash.Weighted>
0.6155

> <Gold.Chemscore.DEInternal.Weighted>
1.2194

> <Gold.Chemscore.Rot.Weighted>
5.1062

> <Gold.Chemscore.Internal.Correction.Weighted>
   9.000000E+99

> <Gold.Protein.RotatedTorsions>
[ 6907 6896 6895 6894 ] final  -45.29 input  -60.11 | X-H torsion
[ 7974 7965 7964 7962 ] final  -62.93 input  175.53 | X-H torsion
[ 8008 7997 7996 7995 ] final   63.79 input   59.86 | X-H torsion
[ 10167 10162 10161 10158 ] final  150.05 input  -65.29 | X-H torsion
[ 10718 10713 10712 10709 ] final  131.08 input   66.30 | X-H torsion
[ 10763 10752 10751 10750 ] final -161.40 input  -60.55 | X-H torsion
[ 11005 11000 10999 10996 ] final   15.92 input  -57.11 | X-H torsion

> <Gold.Protein.ActiveResidues>
 VAL166  LYS551  ARG553  GLY616  TRP617  ASP618  TYR619  PRO620  LYS621  CYS622 
 ASP623  PHE694  ASN695  SER759  ASP760  ASP761  ALA762  ILE779  LEU786  VAL792 
 PHE793  MET794  SER795  GLU796  ALA797  LYS798  CYS799  TRP800  GLU811  SER814 

> <Gold.Protein.RotatedAtoms>
  150.9235  134.8652  159.7504 H   0  0  0  0  0  0  0  0  0  0  0  0  # atno 6907 bound_to 6896
  152.5004  134.4183  159.9482 H   0  0  0  0  0  0  0  0  0  0  0  0  # atno 6908 bound_to 6896
  151.4215  133.3657  159.2792 H   0  0  0  0  0  0  0  0  0  0  0  0  # atno 6909 bound_to 6896
  145.7853  140.8740  143.0309 H   0  0  0  0  0  0  0  0  0  0  0  0  # atno 7974 bound_to 7965
  155.6358  140.3496  155.4698 H   0  0  0  0  0  0  0  0  0  0  0  0  # atno 8008 bound_to 7997
  155.9966  140.1204  157.0611 H   0  0  0  0  0  0  0  0  0  0  0  0  # atno 8009 bound_to 7997
  154.4235  140.1109  156.5625 H   0  0  0  0  0  0  0  0  0  0  0  0  # atno 8010 bound_to 7997
  139.4854  144.5553  151.7328 H   0  0  0  0  0  0  0  0  0  0  0  0  # atno 10167 bound_to 10162
  157.5002  131.1094  150.9438 H   0  0  0  0  0  0  0  0  0  0  0  0  # atno 10718 bound_to 10713
  154.7306  135.3045  154.8897 H   0  0  0  0  0  0  0  0  0  0  0  0  # atno 10763 bound_to 10752
  153.9741  135.6738  153.4752 H   0  0  0  0  0  0  0  0  0  0  0  0  # atno 10764 bound_to 10752
  153.0915  135.4957  154.8620 H   0  0  0  0  0  0  0  0  0  0  0  0  # atno 10765 bound_to 10752
  140.4529  134.1206  155.7705 H   0  0  0  0  0  0  0  0  0  0  0  0  # atno 11005 bound_to 11000
  144.6790  140.0046  143.7484 LP  0  0  0  0  0  0  0  0  0  0  0  0  # atno 17320 bound_to 7965
  146.0033  139.3109  143.0914 LP  0  0  0  0  0  0  0  0  0  0  0  0  # atno 17321 bound_to 7965
  140.5114  144.1020  150.5996 LP  0  0  0  0  0  0  0  0  0  0  0  0  # atno 17342 bound_to 10162
  140.3946  143.2734  152.0019 LP  0  0  0  0  0  0  0  0  0  0  0  0  # atno 17343 bound_to 10162
  157.0111  130.5637  149.5321 LP  0  0  0  0  0  0  0  0  0  0  0  0  # atno 17370 bound_to 10713
  156.0224  130.5319  150.8314 LP  0  0  0  0  0  0  0  0  0  0  0  0  # atno 17371 bound_to 10713
  141.1656  133.8709  157.1724 LP  0  0  0  0  0  0  0  0  0  0  0  0  # atno 17394 bound_to 11000
  139.9995  135.0033  157.0158 LP  0  0  0  0  0  0  0  0  0  0  0  0  # atno 17395 bound_to 11000

$$$$
