AV-unprocessed.smi:2144|AV-procd|sdf|8733|dock9
  -GOLD-   2272011503D 1   1.00000     0.00000
 Structure written by MMmdl.
 41 43  0  0  0  0  0  0  0  0  2 V2000
  152.2981  137.3721  153.3973 O   0  0  0  0  0  0  0  0  0  0  0  0
  151.9547  138.0566  154.5843 C   0  0  0  0  0  0  0  0  0  0  0  0
  150.7136  138.8814  154.4515 C   0  0  0  0  0  0  0  0  0  0  0  0
  149.6314  138.5931  153.6725 N   0  3  0  0  0  0  0  0  0  0  0  0
  148.6714  139.5970  153.8030 C   0  0  0  0  0  0  0  0  0  0  0  0
  147.4189  139.7432  153.2152 C   0  0  0  0  0  0  0  0  0  0  0  0
  146.6876  140.8978  153.5639 C   0  0  0  0  0  0  0  0  0  0  0  0
  147.2060  141.8517  154.4638 C   0  0  0  0  0  0  0  0  0  0  0  0
  148.4768  141.6914  155.0548 C   0  0  0  0  0  0  0  0  0  0  0  0
  149.1927  140.5470  154.7048 C   0  0  0  0  0  0  0  0  0  0  0  0
  150.4506  140.0631  155.0810 N   0  0  0  0  0  0  0  0  0  0  0  0
  151.2626  140.8407  156.0307 C   0  0  0  0  0  0  0  0  0  0  0  0
  150.5367  141.1115  157.3641 C   0  0  1  0  0  0  0  0  0  0  0  0
  150.6719  139.9766  158.1966 O   0  0  0  0  0  0  0  0  0  0  0  0
  151.1178  142.3314  158.0966 C   0  0  0  0  0  0  0  0  0  0  0  0
  152.3548  141.9604  158.6906 O   0  0  0  0  0  0  0  0  0  0  0  0
  152.5883  142.3204  160.0010 C   0  0  0  0  0  0  0  0  0  0  0  0
  152.0257  143.4633  160.6248 C   0  0  0  0  0  0  0  0  0  0  0  0
  152.3171  143.7575  161.9713 C   0  0  0  0  0  0  0  0  0  0  0  0
  153.1705  142.9175  162.7101 C   0  0  0  0  0  0  0  0  0  0  0  0
  153.7334  141.7817  162.0999 C   0  0  0  0  0  0  0  0  0  0  0  0
  153.4428  141.4862  160.7538 C   0  0  0  0  0  0  0  0  0  0  0  0
  153.9906  140.3889  160.1790 F   0  0  0  0  0  0  0  0  0  0  0  0
  151.5028  137.1589  152.9327 H   0  0  0  0  0  0  0  0  0  0  0  0
  151.8194  137.3266  155.3826 H   0  0  0  0  0  0  0  0  0  0  0  0
  152.7829  138.7044  154.8728 H   0  0  0  0  0  0  0  0  0  0  0  0
  147.0201  139.0140  152.5252 H   0  0  0  0  0  0  0  0  0  0  0  0
  145.7097  141.0552  153.1320 H   0  0  0  0  0  0  0  0  0  0  0  0
  146.6167  142.7242  154.7064 H   0  0  0  0  0  0  0  0  0  0  0  0
  148.8649  142.4270  155.7439 H   0  0  0  0  0  0  0  0  0  0  0  0
  152.1873  140.2899  156.2076 H   0  0  0  0  0  0  0  0  0  0  0  0
  151.5522  141.7750  155.5478 H   0  0  0  0  0  0  0  0  0  0  0  0
  149.4767  141.2777  157.1684 H   0  0  0  0  0  0  0  0  0  0  0  0
  149.8108  139.6288  158.3712 H   0  0  0  0  0  0  0  0  0  0  0  0
  151.2321  143.1757  157.4143 H   0  0  0  0  0  0  0  0  0  0  0  0
  150.4337  142.6341  158.8913 H   0  0  0  0  0  0  0  0  0  0  0  0
  151.3666  144.1316  160.0922 H   0  0  0  0  0  0  0  0  0  0  0  0
  151.8842  144.6300  162.4381 H   0  0  0  0  0  0  0  0  0  0  0  0
  153.3933  143.1440  163.7424 H   0  0  0  0  0  0  0  0  0  0  0  0
  154.3897  141.1357  162.6640 H   0  0  0  0  0  0  0  0  0  0  0  0
  149.5622  137.7650  153.0949 H   0  0  0  0  0  0  0  0  0  0  0  0
  1  2  1  0  0  0  0
  1 24  1  0  0  0  0
  2  3  1  0  0  0  0
  2 25  1  0  0  0  0
  2 26  1  0  0  0  0
  3 11  1  0  0  0  0
  3  4  2  0  0  0  0
  4  5  1  0  0  0  0
  4 41  1  0  0  0  0
  5 10  2  0  0  0  0
  5  6  1  0  0  0  0
  6  7  2  0  0  0  0
  6 27  1  0  0  0  0
  7  8  1  0  0  0  0
  7 28  1  0  0  0  0
  8  9  2  0  0  0  0
  8 29  1  0  0  0  0
  9 10  1  0  0  0  0
  9 30  1  0  0  0  0
 10 11  1  0  0  0  0
 11 12  1  0  0  0  0
 12 13  1  0  0  0  0
 12 31  1  0  0  0  0
 12 32  1  0  0  0  0
 13 14  1  0  0  0  0
 13 15  1  0  0  0  0
 13 33  1  0  0  0  0
 14 34  1  0  0  0  0
 15 16  1  0  0  0  0
 15 35  1  0  0  0  0
 15 36  1  0  0  0  0
 16 17  1  0  0  0  0
 17 22  1  0  0  0  0
 17 18  2  0  0  0  0
 18 19  1  0  0  0  0
 18 37  1  0  0  0  0
 19 20  2  0  0  0  0
 19 38  1  0  0  0  0
 20 21  1  0  0  0  0
 20 39  1  0  0  0  0
 21 22  2  0  0  0  0
 21 40  1  0  0  0  0
 22 23  1  0  0  0  0
M  CHG  1   4   1
M  END
> <s_m_source_file>
AV-unprocessed.smi

> <i_m_source_file_index>
2144

> <i_lp_mmshare_version>
43012

> <i_f3d_flags>
0

> <s_epik_input>
W2NIXTFbY0hdW2NIXVtjSF1jKGMxMiluKGMobjIpW0NIMl1bT0hdKVtDSDJdW0NASF0oW09IXSlbQ0gyXU9jM1tjSF1bY0hdW2NIXVtjSF1jM0Y=

> <s_epik_cmdline>
J2VwaWtfcHl0aG9uJywgJy1waCcsICc3LjAnLCAnLXRuJywgJzgnLCAnLW1hJywgJzIwMCcsICctbWV0YWxfYmluZGluZycsICctaW1hZScsICc8aW5maWxlLm1hZT4nLCAnLW9tYWUnLCAnPG91dGZpbGUubWFlPic=

> <r_lp_tautomer_probability>
1

> <r_epik_Ionization_Penalty>
1.44003

> <r_epik_Ionization_Penalty_Charging>
1.43917

> <r_epik_Ionization_Penalty_Neutral>
0.000858184

> <r_epik_State_Penalty>
1.52442

> <r_epik_Charging_Adjusted_Penalty>
2.96359

> <i_epik_Tot_Q>
1

> <i_epik_Tot_abs_Q>
1

> <r_epik_Metal_State_Penalty>
5.57019

> <b_epik_Metal_Only>
0

> <s_lp_Force_Field>
OPLS_2005

> <r_lp_Energy>
20.1924

> <b_lp_Chiralities_Consistent>
1

> <s_lp_Variant>
AV-unprocessed.smi:2144-4

> <Gold.Version>
5.8.1

> <Gold.Id.Protein>
6NUR|6NUR_protein|mol2

> <Gold.PLP.Fitness>
65.3805

> <Gold.PLP.PLP>
-57.4917

> <Gold.PLP.part.hbond>
-4.0000

> <Gold.PLP.part.metal>
0.0000

> <Gold.PLP.part.buried>
1.0588

> <Gold.PLP.part.nonpolar>
-54.0898

> <Gold.PLP.part.repulsive>
0.0701

> <Gold.PLP.ligand.clash>
0.0000

> <Gold.PLP.ligand.torsion>
1.4296

> <Gold.PLP.Chemscore.Hbond>
3.5680

> <Gold.PLP.Chemscore.CHOScore>
0.0000

> <Gold.PLP.Chemscore.Metal>
0.0000

> <Gold.Chemscore.Hbonds>
donor molecule, donor type, donor heavy atom, donor atom, acceptor molecule, acceptor atom, score
      L1  H     1    24       P1  7949  0.62
      L1  H     4    41       P1  7948  2.00
      P1  H 10752 10765       L1     1  0.99

> <Gold.PLP.Chemscore.Internal.Correction>
0.0441

> <Gold.Rescore>
     Score         DG    S(hbond)    S(metal)    S(lipo)     H(rot)  DE(clash)    DE(int)     intcor
     18.32     -19.94       2.23        0.00     132.53       3.31       0.31       1.31       ----

> <Gold.Chemscore.Fitness>
18.3157

> <Gold.Chemscore.DG>
-19.9433

> <Gold.Chemscore.ZeroCoef>
-5.4800

> <Gold.Chemscore.Hbond>
2.2275

> <Gold.Chemscore.Metal>
0.0000

> <Gold.Chemscore.Lipo>
132.5281

> <Gold.Chemscore.Internal_Hbond>
0.0000

> <Gold.Chemscore.DEClash>
0.3148

> <Gold.Chemscore.DEInternal>
1.3128

> <Gold.Chemscore.Rot>
3.3134

> <Gold.Chemscore.Internal.Correction>
   9.000000E+99

> <Gold.Chemscore.Hbonds>
donor molecule, donor type, donor heavy atom, donor atom, acceptor molecule, acceptor atom, score
      L1  H     1    24       P1  7949  0.56
      L1  H     4    41       P1  7948  0.78
      P1  H 10752 10765       L1     1  0.50

> <Gold.Chemscore.Hbond.Weighted>
-7.4399

> <Gold.Chemscore.Metal.Weighted>
-0.0000

> <Gold.Chemscore.Lipo.Weighted>
-15.5058

> <Gold.Chemscore.Internal_Hbond.Weighted>
0.0000

> <Gold.Chemscore.DEClash.Weighted>
0.3148

> <Gold.Chemscore.DEInternal.Weighted>
1.3128

> <Gold.Chemscore.Rot.Weighted>
8.4823

> <Gold.Chemscore.Internal.Correction.Weighted>
   9.000000E+99

> <Gold.Protein.RotatedTorsions>
[ 6907 6896 6895 6894 ] final -151.41 input  -60.11 | X-H torsion
[ 7974 7965 7964 7962 ] final -153.02 input  175.53 | X-H torsion
[ 8008 7997 7996 7995 ] final  155.14 input   59.86 | X-H torsion
[ 10167 10162 10161 10158 ] final  110.39 input  -65.29 | X-H torsion
[ 10718 10713 10712 10709 ] final  -23.10 input   66.30 | X-H torsion
[ 10763 10752 10751 10750 ] final  124.56 input  -60.55 | X-H torsion
[ 11005 11000 10999 10996 ] final   94.08 input  -57.11 | X-H torsion

> <Gold.Protein.ActiveResidues>
 VAL166  LYS551  ARG553  GLY616  TRP617  ASP618  TYR619  PRO620  LYS621  CYS622 
 ASP623  PHE694  ASN695  SER759  ASP760  ASP761  ALA762  ILE779  LEU786  VAL792 
 PHE793  MET794  SER795  GLU796  ALA797  LYS798  CYS799  TRP800  GLU811  SER814 

> <Gold.Protein.RotatedAtoms>
  151.2126  133.4547  159.2598 H   0  0  0  0  0  0  0  0  0  0  0  0  # atno 6907 bound_to 6896
  151.0961  134.9945  159.8436 H   0  0  0  0  0  0  0  0  0  0  0  0  # atno 6908 bound_to 6896
  152.5439  134.2056  159.8782 H   0  0  0  0  0  0  0  0  0  0  0  0  # atno 6909 bound_to 6896
  144.7763  140.4583  143.5871 H   0  0  0  0  0  0  0  0  0  0  0  0  # atno 7974 bound_to 7965
  156.2494  140.1947  156.6755 H   0  0  0  0  0  0  0  0  0  0  0  0  # atno 8008 bound_to 7997
  154.6361  140.0589  156.9816 H   0  0  0  0  0  0  0  0  0  0  0  0  # atno 8009 bound_to 7997
  155.1635  140.3262  155.4409 H   0  0  0  0  0  0  0  0  0  0  0  0  # atno 8010 bound_to 7997
  139.6692  144.7126  151.1720 H   0  0  0  0  0  0  0  0  0  0  0  0  # atno 10167 bound_to 10162
  156.4956  130.4576  149.6730 H   0  0  0  0  0  0  0  0  0  0  0  0  # atno 10718 bound_to 10713
  153.6633  135.3343  155.3133 H   0  0  0  0  0  0  0  0  0  0  0  0  # atno 10763 bound_to 10752
  154.8509  135.4369  154.1782 H   0  0  0  0  0  0  0  0  0  0  0  0  # atno 10764 bound_to 10752
  153.2754  135.7004  153.7514 H   0  0  0  0  0  0  0  0  0  0  0  0  # atno 10765 bound_to 10752
  139.8802  134.8825  156.3811 H   0  0  0  0  0  0  0  0  0  0  0  0  # atno 11005 bound_to 11000
  145.6177  139.1520  143.3040 LP  0  0  0  0  0  0  0  0  0  0  0  0  # atno 17320 bound_to 7965
  146.1944  140.6289  142.9131 LP  0  0  0  0  0  0  0  0  0  0  0  0  # atno 17321 bound_to 7965
  140.7611  143.5871  150.8834 LP  0  0  0  0  0  0  0  0  0  0  0  0  # atno 17342 bound_to 10162
  139.9535  143.6245  152.3022 LP  0  0  0  0  0  0  0  0  0  0  0  0  # atno 17343 bound_to 10162
  156.3383  130.7368  151.2309 LP  0  0  0  0  0  0  0  0  0  0  0  0  # atno 17370 bound_to 10713
  157.7469  131.0411  150.4628 LP  0  0  0  0  0  0  0  0  0  0  0  0  # atno 17371 bound_to 10713
  140.9398  133.7522  156.0131 LP  0  0  0  0  0  0  0  0  0  0  0  0  # atno 17394 bound_to 11000
  140.8233  134.3264  157.5374 LP  0  0  0  0  0  0  0  0  0  0  0  0  # atno 17395 bound_to 11000

$$$$
