AV-unprocessed.smi:2336|AV-procd|sdf|9327|dock3
  -GOLD-   2272012543D 1   1.00000     0.00000
 Structure written by MMmdl.
 50 51  0  0  0  0  0  0  0  0  2 V2000
  150.0361  136.5214  154.7878 C   0  0  0  0  0  0  0  0  0  0  0  0
  150.0253  137.9338  154.1759 C   0  0  0  0  0  0  0  0  0  0  0  0
  151.4366  138.5482  154.1797 C   0  0  0  0  0  0  0  0  0  0  0  0
  148.9311  138.8810  154.7813 C   0  0  2  0  0  0  0  0  0  0  0  0
  147.4729  138.4552  154.4138 C   0  0  0  0  0  0  0  0  0  0  0  0
  147.4130  137.2970  153.5304 N   0  0  0  0  0  0  0  0  0  0  0  0
  146.3564  136.4788  153.4166 C   0  0  0  0  0  0  0  0  0  0  0  0
  145.3144  136.6315  154.0546 O   0  0  0  0  0  0  0  0  0  0  0  0
  146.6050  135.4851  152.5466 N   0  0  0  0  0  0  0  0  0  0  0  0
  145.7751  134.3936  152.1687 C   0  0  0  0  0  0  0  0  0  0  0  0
  144.3781  134.4857  151.9539 C   0  0  0  0  0  0  0  0  0  0  0  0
  143.6762  133.3248  151.5716 C   0  0  0  0  0  0  0  0  0  0  0  0
  144.2654  132.1243  151.3891 N   0  0  0  0  0  0  0  0  0  0  0  0
  145.5987  132.0429  151.5814 C   0  0  0  0  0  0  0  0  0  0  0  0
  146.3934  133.1413  151.9661 C   0  0  0  0  0  0  0  0  0  0  0  0
  147.7291  132.9910  152.1386 F   0  0  0  0  0  0  0  0  0  0  0  0
  149.2356  140.2850  154.4112 N   0  0  0  0  0  0  0  0  0  0  0  0
  148.1005  141.1908  154.1789 C   0  0  0  0  0  0  0  0  0  0  0  0
  147.3379  141.5013  155.4846 C   0  0  0  0  0  0  0  0  0  0  0  0
  148.2406  142.1631  156.4525 N   0  3  0  0  0  0  0  0  0  0  0  0
  147.5559  142.5434  157.7063 C   0  0  0  0  0  0  0  0  0  0  0  0
  149.4462  141.3364  156.6863 C   0  0  0  0  0  0  0  0  0  0  0  0
  150.1349  140.9846  155.3477 C   0  0  0  0  0  0  0  0  0  0  0  0
  150.3786  136.5276  155.8225 H   0  0  0  0  0  0  0  0  0  0  0  0
  150.7038  135.8630  154.2313 H   0  0  0  0  0  0  0  0  0  0  0  0
  149.0423  136.0738  154.7638 H   0  0  0  0  0  0  0  0  0  0  0  0
  149.8186  137.7781  153.1207 H   0  0  0  0  0  0  0  0  0  0  0  0
  151.8741  138.5829  155.1758 H   0  0  0  0  0  0  0  0  0  0  0  0
  151.4287  139.5620  153.7786 H   0  0  0  0  0  0  0  0  0  0  0  0
  152.1132  137.9596  153.5595 H   0  0  0  0  0  0  0  0  0  0  0  0
  149.0000  138.8189  155.8657 H   0  0  0  0  0  0  0  0  0  0  0  0
  146.8914  138.1854  155.2943 H   0  0  0  0  0  0  0  0  0  0  0  0
  146.9325  139.2783  153.9464 H   0  0  0  0  0  0  0  0  0  0  0  0
  148.2339  137.1021  152.9753 H   0  0  0  0  0  0  0  0  0  0  0  0
  147.5328  135.4699  152.1488 H   0  0  0  0  0  0  0  0  0  0  0  0
  143.8341  135.4106  152.0611 H   0  0  0  0  0  0  0  0  0  0  0  0
  142.6105  133.3646  151.4010 H   0  0  0  0  0  0  0  0  0  0  0  0
  146.0470  131.0733  151.4225 H   0  0  0  0  0  0  0  0  0  0  0  0
  148.4829  142.1223  153.7588 H   0  0  0  0  0  0  0  0  0  0  0  0
  147.4318  140.7992  153.4136 H   0  0  0  0  0  0  0  0  0  0  0  0
  146.4995  142.1633  155.2662 H   0  0  0  0  0  0  0  0  0  0  0  0
  146.9190  140.5967  155.9273 H   0  0  0  0  0  0  0  0  0  0  0  0
  147.1865  141.6627  158.2335 H   0  0  0  0  0  0  0  0  0  0  0  0
  146.7091  143.1984  157.4985 H   0  0  0  0  0  0  0  0  0  0  0  0
  148.2368  143.0787  158.3687 H   0  0  0  0  0  0  0  0  0  0  0  0
  150.1428  141.8962  157.3112 H   0  0  0  0  0  0  0  0  0  0  0  0
  149.1843  140.4395  157.2482 H   0  0  0  0  0  0  0  0  0  0  0  0
  151.0413  140.4195  155.5505 H   0  0  0  0  0  0  0  0  0  0  0  0
  150.4754  141.9048  154.8707 H   0  0  0  0  0  0  0  0  0  0  0  0
  148.5546  143.0185  156.0167 H   0  0  0  0  0  0  0  0  0  0  0  0
  1  2  1  0  0  0  0
  1 24  1  0  0  0  0
  1 25  1  0  0  0  0
  1 26  1  0  0  0  0
  2  3  1  0  0  0  0
  2  4  1  0  0  0  0
  2 27  1  0  0  0  0
  3 28  1  0  0  0  0
  3 29  1  0  0  0  0
  3 30  1  0  0  0  0
  4  5  1  0  0  0  0
  4 17  1  0  0  0  0
  4 31  1  0  0  0  0
  5  6  1  0  0  0  0
  5 32  1  0  0  0  0
  5 33  1  0  0  0  0
  6  7  1  0  0  0  0
  6 34  1  0  0  0  0
  7  8  2  0  0  0  0
  7  9  1  0  0  0  0
  9 10  1  0  0  0  0
  9 35  1  0  0  0  0
 10 15  1  0  0  0  0
 10 11  2  0  0  0  0
 11 12  1  0  0  0  0
 11 36  1  0  0  0  0
 12 13  2  0  0  0  0
 12 37  1  0  0  0  0
 13 14  1  0  0  0  0
 14 15  2  0  0  0  0
 14 38  1  0  0  0  0
 15 16  1  0  0  0  0
 17 23  1  0  0  0  0
 17 18  1  0  0  0  0
 18 19  1  0  0  0  0
 18 39  1  0  0  0  0
 18 40  1  0  0  0  0
 19 20  1  0  0  0  0
 19 41  1  0  0  0  0
 19 42  1  0  0  0  0
 20 21  1  0  0  0  0
 20 22  1  0  0  0  0
 20 50  1  0  0  0  0
 21 43  1  0  0  0  0
 21 44  1  0  0  0  0
 21 45  1  0  0  0  0
 22 23  1  0  0  0  0
 22 46  1  0  0  0  0
 22 47  1  0  0  0  0
 23 48  1  0  0  0  0
 23 49  1  0  0  0  0
M  CHG  1  20   1
M  END
> <s_m_source_file>
AV-unprocessed.smi

> <i_m_source_file_index>
2336

> <i_lp_mmshare_version>
43012

> <i_f3d_flags>
0

> <s_epik_input>
W0NIMl0xW0NIMl1OKFtDSDNdKVtDSDJdW0NIMl1OMVtDQEhdKFtDSF0oW0NIM10pW0NIM10pW0NIMl1bTkhdQyg9TylbTkhdYzJbY0hdW2NIXW5bY0hdYzJG

> <s_epik_cmdline>
J2VwaWtfcHl0aG9uJywgJy1waCcsICc3LjAnLCAnLXRuJywgJzgnLCAnLW1hJywgJzIwMCcsICctbWV0YWxfYmluZGluZycsICctaW1hZScsICc8aW5maWxlLm1hZT4nLCAnLW9tYWUnLCAnPG91dGZpbGUubWFlPic=

> <r_epik_Ionization_Penalty>
0.0313013

> <r_epik_Ionization_Penalty_Charging>
0.0272987

> <r_epik_Ionization_Penalty_Neutral>
0.00400259

> <r_epik_State_Penalty>
0.0776825

> <r_epik_Charging_Adjusted_Penalty>
0.104981

> <i_epik_Tot_Q>
1

> <i_epik_Tot_abs_Q>
1

> <r_epik_Metal_State_Penalty>
0.0776139

> <b_epik_Metal_Only>
0

> <s_lp_Force_Field>
OPLS_2005

> <r_lp_Energy>
31.6665

> <b_lp_Chiralities_Consistent>
1

> <s_lp_Variant>
AV-unprocessed.smi:2336-1

> <Gold.Version>
5.8.1

> <Gold.Id.Protein>
6NUR|6NUR_protein|mol2

> <Gold.PLP.Fitness>
42.6881

> <Gold.PLP.PLP>
-32.3745

> <Gold.PLP.part.hbond>
-3.0000

> <Gold.PLP.part.metal>
0.0000

> <Gold.PLP.part.buried>
-3.8481

> <Gold.PLP.part.nonpolar>
-26.7817

> <Gold.PLP.part.repulsive>
0.3816

> <Gold.PLP.ligand.clash>
0.0278

> <Gold.PLP.ligand.torsion>
2.3954

> <Gold.PLP.Chemscore.Hbond>
3.9920

> <Gold.PLP.Chemscore.CHOScore>
1.0000

> <Gold.PLP.Chemscore.Metal>
0.0000

> <Gold.Chemscore.Hbonds>
donor molecule, donor type, donor heavy atom, donor atom, acceptor molecule, acceptor atom, score
      L1  H     6    34       P1  7948  1.00
      L1  H     9    35       P1  7948  1.00
      L1  H    20    50       P1  8028  2.00
      L1  C    12    37       P1 10186  0.69

> <Gold.PLP.Chemscore.Internal.Correction>
0.1562

> <Gold.Rescore>
     Score         DG    S(hbond)    S(metal)    S(lipo)     H(rot)  DE(clash)    DE(int)     intcor
     16.21     -19.57       2.86        0.00      75.36       1.67       0.06       3.30       ----

> <Gold.Chemscore.Fitness>
16.2082

> <Gold.Chemscore.DG>
-19.5711

> <Gold.Chemscore.ZeroCoef>
-5.4800

> <Gold.Chemscore.Hbond>
2.8619

> <Gold.Chemscore.Metal>
0.0000

> <Gold.Chemscore.Lipo>
75.3627

> <Gold.Chemscore.Internal_Hbond>
0.0000

> <Gold.Chemscore.DEClash>
0.0645

> <Gold.Chemscore.DEInternal>
3.2984

> <Gold.Chemscore.Rot>
1.6739

> <Gold.Chemscore.Internal.Correction>
   9.000000E+99

> <Gold.Chemscore.Hbonds>
donor molecule, donor type, donor heavy atom, donor atom, acceptor molecule, acceptor atom, score
      L1  H     6    34       P1  7948  0.92
      L1  H     9    35       P1  7948  0.94
      L1  H    20    50       P1  8028  0.98

> <Gold.Chemscore.Hbond.Weighted>
-9.5588

> <Gold.Chemscore.Metal.Weighted>
-0.0000

> <Gold.Chemscore.Lipo.Weighted>
-8.8174

> <Gold.Chemscore.Internal_Hbond.Weighted>
0.0000

> <Gold.Chemscore.DEClash.Weighted>
0.0645

> <Gold.Chemscore.DEInternal.Weighted>
3.2984

> <Gold.Chemscore.Rot.Weighted>
4.2851

> <Gold.Chemscore.Internal.Correction.Weighted>
   9.000000E+99

> <Gold.Protein.RotatedTorsions>
[ 6907 6896 6895 6894 ] final -169.03 input  -60.11 | X-H torsion
[ 7974 7965 7964 7962 ] final  166.63 input  175.53 | X-H torsion
[ 8008 7997 7996 7995 ] final  -90.12 input   59.86 | X-H torsion
[ 10167 10162 10161 10158 ] final  171.52 input  -65.29 | X-H torsion
[ 10718 10713 10712 10709 ] final   79.07 input   66.30 | X-H torsion
[ 10763 10752 10751 10750 ] final  127.92 input  -60.55 | X-H torsion
[ 11005 11000 10999 10996 ] final  135.62 input  -57.11 | X-H torsion

> <Gold.Protein.ActiveResidues>
 VAL166  LYS551  ARG553  GLY616  TRP617  ASP618  TYR619  PRO620  LYS621  CYS622 
 ASP623  PHE694  ASN695  SER759  ASP760  ASP761  ALA762  ILE779  LEU786  VAL792 
 PHE793  MET794  SER795  GLU796  ALA797  LYS798  CYS799  TRP800  GLU811  SER814 

> <Gold.Protein.RotatedAtoms>
  151.4850  133.3537  159.2844 H   0  0  0  0  0  0  0  0  0  0  0  0  # atno 6907 bound_to 6896
  150.8872  134.8273  159.7278 H   0  0  0  0  0  0  0  0  0  0  0  0  # atno 6908 bound_to 6896
  152.4800  134.4755  159.9701 H   0  0  0  0  0  0  0  0  0  0  0  0  # atno 6909 bound_to 6896
  144.7455  139.8643  143.6383 H   0  0  0  0  0  0  0  0  0  0  0  0  # atno 7974 bound_to 7965
  154.6947  140.0534  157.0399 H   0  0  0  0  0  0  0  0  0  0  0  0  # atno 8008 bound_to 7997
  155.0767  140.3205  155.4595 H   0  0  0  0  0  0  0  0  0  0  0  0  # atno 8009 bound_to 7997
  156.2740  140.2072  156.5895 H   0  0  0  0  0  0  0  0  0  0  0  0  # atno 8010 bound_to 7997
  139.5049  144.3476  151.9955 H   0  0  0  0  0  0  0  0  0  0  0  0  # atno 10167 bound_to 10162
  157.6765  130.9897  150.1879 H   0  0  0  0  0  0  0  0  0  0  0  0  # atno 10718 bound_to 10713
  153.7172  135.3259  155.3259 H   0  0  0  0  0  0  0  0  0  0  0  0  # atno 10763 bound_to 10752
  154.8367  135.4491  154.1254 H   0  0  0  0  0  0  0  0  0  0  0  0  # atno 10764 bound_to 10752
  153.2365  135.6966  153.7911 H   0  0  0  0  0  0  0  0  0  0  0  0  # atno 10765 bound_to 10752
  139.9992  134.9485  157.0033 H   0  0  0  0  0  0  0  0  0  0  0  0  # atno 11005 bound_to 11000
  146.1326  139.4364  143.0159 LP  0  0  0  0  0  0  0  0  0  0  0  0  # atno 17320 bound_to 7965
  145.7140  141.0097  143.1438 LP  0  0  0  0  0  0  0  0  0  0  0  0  # atno 17321 bound_to 7965
  140.2913  144.3750  150.6088 LP  0  0  0  0  0  0  0  0  0  0  0  0  # atno 17342 bound_to 10162
  140.5944  143.2167  151.7192 LP  0  0  0  0  0  0  0  0  0  0  0  0  # atno 17343 bound_to 10162
  156.2597  130.3709  149.8144 LP  0  0  0  0  0  0  0  0  0  0  0  0  # atno 17370 bound_to 10713
  156.5893  130.8499  151.3404 LP  0  0  0  0  0  0  0  0  0  0  0  0  # atno 17371 bound_to 10713
  140.4760  134.1337  155.7210 LP  0  0  0  0  0  0  0  0  0  0  0  0  # atno 17394 bound_to 11000
  141.1628  133.8760  157.1799 LP  0  0  0  0  0  0  0  0  0  0  0  0  # atno 17395 bound_to 11000

$$$$
