AV-unprocessed.smi:3102|AV-procd|sdf|11813|dock3
  -GOLD-   2272017183D 1   1.00000     0.00000
 Structure written by MMmdl.
 31 32  0  0  0  0  0  0  0  0  1 V2000
  153.2016  143.5425  162.9229 C   0  0  0  0  0  0  0  0  0  0  0  0
  153.4225  142.5359  161.9412 O   0  0  0  0  0  0  0  0  0  0  0  0
  152.7010  142.5974  160.7668 C   0  0  0  0  0  0  0  0  0  0  0  0
  152.8180  141.5387  159.8465 C   0  0  0  0  0  0  0  0  0  0  0  0
  152.0817  141.5961  158.6487 C   0  0  0  0  0  0  0  0  0  0  0  0
  151.2452  142.7103  158.4017 C   0  0  0  0  0  0  0  0  0  0  0  0
  150.4780  142.8394  157.2316 N   0  0  0  0  0  0  0  0  0  0  0  0
  149.9941  141.6736  156.5028 C   0  0  1  0  0  0  0  0  0  0  0  0
  149.1925  142.0194  155.2627 C   0  0  0  0  0  0  0  0  0  0  0  0
  149.2786  140.7192  154.4693 C   0  0  0  0  0  0  0  0  0  0  0  0
  150.5383  140.1422  154.8041 O   0  0  0  0  0  0  0  0  0  0  0  0
  151.1259  140.8497  155.8925 C   0  0  0  0  0  0  0  0  0  0  0  0
  151.2017  143.7258  159.3887 C   0  0  0  0  0  0  0  0  0  0  0  0
  150.3395  144.9641  159.2146 C   0  0  0  0  0  0  0  0  0  0  0  0
  151.9074  143.6721  160.5399 N   0  0  0  0  0  0  0  0  0  0  0  0
  153.8403  143.3518  163.7852 H   0  0  0  0  0  0  0  0  0  0  0  0
  152.1676  143.5401  163.2708 H   0  0  0  0  0  0  0  0  0  0  0  0
  153.4489  144.5341  162.5410 H   0  0  0  0  0  0  0  0  0  0  0  0
  153.4613  140.6967  160.0552 H   0  0  0  0  0  0  0  0  0  0  0  0
  152.1733  140.7859  157.9416 H   0  0  0  0  0  0  0  0  0  0  0  0
  150.0293  143.7253  157.0469 H   0  0  0  0  0  0  0  0  0  0  0  0
  149.4112  141.0273  157.1601 H   0  0  0  0  0  0  0  0  0  0  0  0
  148.1661  142.3185  155.4750 H   0  0  0  0  0  0  0  0  0  0  0  0
  149.6748  142.8254  154.7069 H   0  0  0  0  0  0  0  0  0  0  0  0
  148.4899  140.0322  154.7779 H   0  0  0  0  0  0  0  0  0  0  0  0
  149.1863  140.8808  153.3951 H   0  0  0  0  0  0  0  0  0  0  0  0
  151.9074  141.4977  155.4918 H   0  0  0  0  0  0  0  0  0  0  0  0
  151.5851  140.1706  156.6114 H   0  0  0  0  0  0  0  0  0  0  0  0
  149.2901  144.6853  159.1149 H   0  0  0  0  0  0  0  0  0  0  0  0
  150.6380  145.5116  158.3201 H   0  0  0  0  0  0  0  0  0  0  0  0
  150.4295  145.6389  160.0667 H   0  0  0  0  0  0  0  0  0  0  0  0
  1  2  1  0  0  0  0
  1 16  1  0  0  0  0
  1 17  1  0  0  0  0
  1 18  1  0  0  0  0
  2  3  1  0  0  0  0
  3 15  1  0  0  0  0
  3  4  2  0  0  0  0
  4  5  1  0  0  0  0
  4 19  1  0  0  0  0
  5  6  2  0  0  0  0
  5 20  1  0  0  0  0
  6  7  1  0  0  0  0
  6 13  1  0  0  0  0
  7  8  1  0  0  0  0
  7 21  1  0  0  0  0
  8 12  1  0  0  0  0
  8  9  1  0  0  0  0
  8 22  1  0  0  0  0
  9 10  1  0  0  0  0
  9 23  1  0  0  0  0
  9 24  1  0  0  0  0
 10 11  1  0  0  0  0
 10 25  1  0  0  0  0
 10 26  1  0  0  0  0
 11 12  1  0  0  0  0
 12 27  1  0  0  0  0
 12 28  1  0  0  0  0
 13 14  1  0  0  0  0
 13 15  2  0  0  0  0
 14 29  1  0  0  0  0
 14 30  1  0  0  0  0
 14 31  1  0  0  0  0
M  END
> <s_m_source_file>
AV-unprocessed.smi

> <i_m_source_file_index>
3102

> <i_lp_mmshare_version>
43012

> <i_f3d_flags>
0

> <s_epik_input>
W0NIM11PYzFbY0hdW2NIXWMoYyhuMSlbQ0gzXSlbTkhdW0NAQEhdMltDSDJdW0NIMl1PW0NIMl0y

> <s_epik_cmdline>
J2VwaWtfcHl0aG9uJywgJy1waCcsICc3LjAnLCAnLXRuJywgJzgnLCAnLW1hJywgJzIwMCcsICctbWV0YWxfYmluZGluZycsICctaW1hZScsICc8aW5maWxlLm1hZT4nLCAnLW9tYWUnLCAnPG91dGZpbGUubWFlPic=

> <r_lp_tautomer_probability>
1

> <r_epik_Ionization_Penalty>
0.00117248

> <r_epik_Ionization_Penalty_Charging>
0

> <r_epik_Ionization_Penalty_Neutral>
0.00117248

> <r_epik_State_Penalty>
0.000742146

> <r_epik_Charging_Adjusted_Penalty>
0.000742146

> <i_epik_Tot_Q>
0

> <i_epik_Tot_abs_Q>
0

> <r_epik_Metal_State_Penalty>
-0

> <b_epik_Metal_Only>
0

> <s_lp_Force_Field>
OPLS_2005

> <r_lp_Energy>
20.62

> <b_lp_Chiralities_Consistent>
1

> <s_lp_Variant>
AV-unprocessed.smi:3102-2

> <Gold.Version>
5.8.1

> <Gold.Id.Protein>
6NUR|6NUR_protein|mol2

> <Gold.PLP.Fitness>
36.5610

> <Gold.PLP.PLP>
-31.7018

> <Gold.PLP.part.hbond>
-2.0000

> <Gold.PLP.part.metal>
0.0000

> <Gold.PLP.part.buried>
-0.8998

> <Gold.PLP.part.nonpolar>
-28.0881

> <Gold.PLP.part.repulsive>
0.2089

> <Gold.PLP.ligand.clash>
0.0000

> <Gold.PLP.ligand.torsion>
0.2220

> <Gold.PLP.Chemscore.Hbond>
1.7605

> <Gold.PLP.Chemscore.CHOScore>
0.0000

> <Gold.PLP.Chemscore.Metal>
0.0000

> <Gold.Chemscore.Hbonds>
donor molecule, donor type, donor heavy atom, donor atom, acceptor molecule, acceptor atom, score
      L1  H     7    21       P1  8028  0.86
      P1  H  7989  7998       L1    11  0.80

> <Gold.PLP.Chemscore.Internal.Correction>
0.0217

> <Gold.Rescore>
     Score         DG    S(hbond)    S(metal)    S(lipo)     H(rot)  DE(clash)    DE(int)     intcor
     14.56     -15.22       0.92        0.00      82.83       1.18       0.30       0.37       ----

> <Gold.Chemscore.Fitness>
14.5560

> <Gold.Chemscore.DG>
-15.2189

> <Gold.Chemscore.ZeroCoef>
-5.4800

> <Gold.Chemscore.Hbond>
0.9224

> <Gold.Chemscore.Metal>
0.0000

> <Gold.Chemscore.Lipo>
82.8273

> <Gold.Chemscore.Internal_Hbond>
0.0000

> <Gold.Chemscore.DEClash>
0.2960

> <Gold.Chemscore.DEInternal>
0.3668

> <Gold.Chemscore.Rot>
1.1847

> <Gold.Chemscore.Internal.Correction>
   9.000000E+99

> <Gold.Chemscore.Hbonds>
donor molecule, donor type, donor heavy atom, donor atom, acceptor molecule, acceptor atom, score
      L1  H     7    21       P1  8028  0.77
      P1  H  7989  7998       L1    11  0.04

> <Gold.Chemscore.Hbond.Weighted>
-3.0809

> <Gold.Chemscore.Metal.Weighted>
-0.0000

> <Gold.Chemscore.Lipo.Weighted>
-9.6908

> <Gold.Chemscore.Internal_Hbond.Weighted>
0.0000

> <Gold.Chemscore.DEClash.Weighted>
0.2960

> <Gold.Chemscore.DEInternal.Weighted>
0.3668

> <Gold.Chemscore.Rot.Weighted>
3.0328

> <Gold.Chemscore.Internal.Correction.Weighted>
   9.000000E+99

> <Gold.Protein.RotatedTorsions>
[ 6907 6896 6895 6894 ] final  141.05 input  -60.11 | X-H torsion
[ 7974 7965 7964 7962 ] final -155.25 input  175.53 | X-H torsion
[ 8008 7997 7996 7995 ] final  -23.45 input   59.86 | X-H torsion
[ 10167 10162 10161 10158 ] final  157.14 input  -65.29 | X-H torsion
[ 10718 10713 10712 10709 ] final   34.47 input   66.30 | X-H torsion
[ 10763 10752 10751 10750 ] final  -43.75 input  -60.55 | X-H torsion
[ 11005 11000 10999 10996 ] final  115.57 input  -57.11 | X-H torsion

> <Gold.Protein.ActiveResidues>
 VAL166  LYS551  ARG553  GLY616  TRP617  ASP618  TYR619  PRO620  LYS621  CYS622 
 ASP623  PHE694  ASN695  SER759  ASP760  ASP761  ALA762  ILE779  LEU786  VAL792 
 PHE793  MET794  SER795  GLU796  ALA797  LYS798  CYS799  TRP800  GLU811  SER814 

> <Gold.Protein.RotatedAtoms>
  152.2356  133.5094  159.5240 H   0  0  0  0  0  0  0  0  0  0  0  0  # atno 6907 bound_to 6896
  150.7050  134.1157  159.4025 H   0  0  0  0  0  0  0  0  0  0  0  0  # atno 6908 bound_to 6896
  151.9078  135.0351  160.0562 H   0  0  0  0  0  0  0  0  0  0  0  0  # atno 6909 bound_to 6896
  144.7649  140.4275  143.5949 H   0  0  0  0  0  0  0  0  0  0  0  0  # atno 7974 bound_to 7965
  154.4584  140.1980  156.0313 H   0  0  0  0  0  0  0  0  0  0  0  0  # atno 8008 bound_to 7997
  156.0792  140.3274  155.7644 H   0  0  0  0  0  0  0  0  0  0  0  0  # atno 8009 bound_to 7997
  155.5138  140.0564  157.2909 H   0  0  0  0  0  0  0  0  0  0  0  0  # atno 8010 bound_to 7997
  139.4822  144.4944  151.8261 H   0  0  0  0  0  0  0  0  0  0  0  0  # atno 10167 bound_to 10162
  157.3107  130.7397  149.6723 H   0  0  0  0  0  0  0  0  0  0  0  0  # atno 10718 bound_to 10713
  154.0007  135.6694  153.4759 H   0  0  0  0  0  0  0  0  0  0  0  0  # atno 10763 bound_to 10752
  153.0664  135.4999  154.8205 H   0  0  0  0  0  0  0  0  0  0  0  0  # atno 10764 bound_to 10752
  154.7054  135.3087  154.9241 H   0  0  0  0  0  0  0  0  0  0  0  0  # atno 10765 bound_to 10752
  139.9014  134.9586  156.7066 H   0  0  0  0  0  0  0  0  0  0  0  0  # atno 11005 bound_to 11000
  145.6501  139.1563  143.2867 LP  0  0  0  0  0  0  0  0  0  0  0  0  # atno 17320 bound_to 7965
  146.1747  140.6591  142.9217 LP  0  0  0  0  0  0  0  0  0  0  0  0  # atno 17321 bound_to 7965
  140.4431  144.1958  150.5892 LP  0  0  0  0  0  0  0  0  0  0  0  0  # atno 17342 bound_to 10162
  140.4662  143.2430  151.9152 LP  0  0  0  0  0  0  0  0  0  0  0  0  # atno 17343 bound_to 10162
  155.9677  130.4252  150.4644 LP  0  0  0  0  0  0  0  0  0  0  0  0  # atno 17370 bound_to 10713
  157.2642  131.0573  151.2301 LP  0  0  0  0  0  0  0  0  0  0  0  0  # atno 17371 bound_to 10713
  140.7108  133.9224  155.8083 LP  0  0  0  0  0  0  0  0  0  0  0  0  # atno 17394 bound_to 11000
  141.0301  134.0768  157.4023 LP  0  0  0  0  0  0  0  0  0  0  0  0  # atno 17395 bound_to 11000

$$$$
