AV-unprocessed.smi:212|AV-procd|sdf|1628|dock2
  -GOLD-   2262019573D 1   1.00000     0.00000
 Structure written by MMmdl.
 65 68  0  0  0  0  0  0  0  0  2 V2000
  148.1342  126.6704  151.7843 C   0  0  0  0  0  0  0  0  0  0  0  0
  147.9913  128.1879  152.0101 C   0  0  1  0  0  0  0  0  0  0  0  0
  146.6757  128.7718  151.4505 C   0  0  0  0  0  0  0  0  0  0  0  0
  146.6243  130.2467  151.6359 N   0  3  1  0  0  0  0  0  0  0  0  0
  145.4072  130.8709  151.0517 C   0  0  0  0  0  0  0  0  0  0  0  0
  145.7371  132.0126  150.0612 C   0  0  0  0  0  0  0  0  0  0  0  0
  144.4485  132.5216  149.3938 C   0  0  0  0  0  0  0  0  0  0  0  0
  146.4808  133.1782  150.7393 C   0  0  0  0  0  0  0  0  0  0  0  0
  146.5535  131.5071  149.0235 O   0  0  0  0  0  0  0  0  0  0  0  0
  146.8685  130.6500  153.0452 C   0  0  0  0  0  0  0  0  0  0  0  0
  148.1911  130.0615  153.5720 C   0  0  0  0  0  0  0  0  0  0  0  0
  148.2228  128.6128  153.3968 N   0  0  0  0  0  0  0  0  0  0  0  0
  147.6663  127.9444  154.4396 C   0  0  0  0  0  0  0  0  0  0  0  0
  146.8261  126.8981  154.2255 N   0  0  0  0  0  0  0  0  0  0  0  0
  146.2671  126.2608  155.2589 C   0  0  0  0  0  0  0  0  0  0  0  0
  146.4043  126.5064  156.5633 N   0  0  0  0  0  0  0  0  0  0  0  0
  147.2397  127.5615  156.7825 C   0  0  0  0  0  0  0  0  0  0  0  0
  147.9008  128.3328  155.7865 C   0  0  0  0  0  0  0  0  0  0  0  0
  148.6603  129.3310  156.3834 N   0  0  0  0  0  0  0  0  0  0  0  0
  148.4621  129.1585  157.6620 C   0  0  0  0  0  0  0  0  0  0  0  0
  147.6371  128.1057  157.9911 N   0  0  0  0  0  0  0  0  0  0  0  0
  147.2467  127.6879  159.3251 C   0  0  0  0  0  0  0  0  0  0  0  0
  146.3846  128.7172  160.1054 C   0  0  2  0  0  0  0  0  0  0  0  0
  145.0089  128.8331  159.4131 C   0  0  0  0  0  0  0  0  0  0  0  0
  144.3162  127.6017  159.4303 O   0  0  0  0  0  0  0  0  0  0  0  0
  147.0150  130.1252  160.3371 C   0  0  1  0  0  0  0  0  0  0  0  0
  146.2268  131.1240  161.1655 C   0  0  0  0  0  0  0  0  0  0  0  0
  147.2818  132.1944  161.4212 C   0  0  0  0  0  0  0  0  0  0  0  0
  148.5168  131.4935  161.5395 O   0  0  0  0  0  0  0  0  0  0  0  0
  148.3952  130.1792  160.9995 C   0  0  0  0  0  0  0  0  0  0  0  0
  148.1203  126.4386  150.7190 H   0  0  0  0  0  0  0  0  0  0  0  0
  147.3285  126.1000  152.2452 H   0  0  0  0  0  0  0  0  0  0  0  0
  149.0786  126.3016  152.1859 H   0  0  0  0  0  0  0  0  0  0  0  0
  148.8012  128.6446  151.4393 H   0  0  0  0  0  0  0  0  0  0  0  0
  146.5975  128.5345  150.3896 H   0  0  0  0  0  0  0  0  0  0  0  0
  145.8115  128.3143  151.9321 H   0  0  0  0  0  0  0  0  0  0  0  0
  144.7874  130.1112  150.5715 H   0  0  0  0  0  0  0  0  0  0  0  0
  144.7880  131.2834  151.8502 H   0  0  0  0  0  0  0  0  0  0  0  0
  143.7609  132.9382  150.1308 H   0  0  0  0  0  0  0  0  0  0  0  0
  143.9244  131.7189  148.8731 H   0  0  0  0  0  0  0  0  0  0  0  0
  144.6585  133.3044  148.6637 H   0  0  0  0  0  0  0  0  0  0  0  0
  145.8934  133.5957  151.5578 H   0  0  0  0  0  0  0  0  0  0  0  0
  146.6793  133.9860  150.0338 H   0  0  0  0  0  0  0  0  0  0  0  0
  147.4413  132.8645  151.1492 H   0  0  0  0  0  0  0  0  0  0  0  0
  147.3225  131.1132  149.4083 H   0  0  0  0  0  0  0  0  0  0  0  0
  146.9058  131.7379  153.1140 H   0  0  0  0  0  0  0  0  0  0  0  0
  146.0347  130.3190  153.6665 H   0  0  0  0  0  0  0  0  0  0  0  0
  149.0319  130.4923  153.0272 H   0  0  0  0  0  0  0  0  0  0  0  0
  148.3329  130.3362  154.6182 H   0  0  0  0  0  0  0  0  0  0  0  0
  145.6178  125.4361  155.0046 H   0  0  0  0  0  0  0  0  0  0  0  0
  148.9244  129.7933  158.4042 H   0  0  0  0  0  0  0  0  0  0  0  0
  146.7337  126.7285  159.2571 H   0  0  0  0  0  0  0  0  0  0  0  0
  148.1669  127.4903  159.8766 H   0  0  0  0  0  0  0  0  0  0  0  0
  146.1968  128.2887  161.0909 H   0  0  0  0  0  0  0  0  0  0  0  0
  144.3971  129.6012  159.8876 H   0  0  0  0  0  0  0  0  0  0  0  0
  145.1287  129.1225  158.3687 H   0  0  0  0  0  0  0  0  0  0  0  0
  144.8954  126.9259  159.1124 H   0  0  0  0  0  0  0  0  0  0  0  0
  147.1216  130.6017  159.3615 H   0  0  0  0  0  0  0  0  0  0  0  0
  145.3499  131.5117  160.6463 H   0  0  0  0  0  0  0  0  0  0  0  0
  145.9007  130.7141  162.1169 H   0  0  0  0  0  0  0  0  0  0  0  0
  147.3467  132.8741  160.5705 H   0  0  0  0  0  0  0  0  0  0  0  0
  147.0708  132.7862  162.3121 H   0  0  0  0  0  0  0  0  0  0  0  0
  148.4835  129.4774  161.8266 H   0  0  0  0  0  0  0  0  0  0  0  0
  149.1988  129.9674  160.2939 H   0  0  0  0  0  0  0  0  0  0  0  0
  147.4013  130.6210  151.1105 H   0  0  0  0  0  0  0  0  0  0  0  0
  1  2  1  0  0  0  0
  1 31  1  0  0  0  0
  1 32  1  0  0  0  0
  1 33  1  0  0  0  0
  2 12  1  0  0  0  0
  2  3  1  0  0  0  0
  2 34  1  0  0  0  0
  3  4  1  0  0  0  0
  3 35  1  0  0  0  0
  3 36  1  0  0  0  0
  4  5  1  0  0  0  0
  4 10  1  0  0  0  0
  4 65  1  0  0  0  0
  5  6  1  0  0  0  0
  5 37  1  0  0  0  0
  5 38  1  0  0  0  0
  6  7  1  0  0  0  0
  6  8  1  0  0  0  0
  6  9  1  0  0  0  0
  7 39  1  0  0  0  0
  7 40  1  0  0  0  0
  7 41  1  0  0  0  0
  8 42  1  0  0  0  0
  8 43  1  0  0  0  0
  8 44  1  0  0  0  0
  9 45  1  0  0  0  0
 10 11  1  0  0  0  0
 10 46  1  0  0  0  0
 10 47  1  0  0  0  0
 11 12  1  0  0  0  0
 11 48  1  0  0  0  0
 11 49  1  0  0  0  0
 12 13  1  0  0  0  0
 13 18  1  0  0  0  0
 13 14  2  0  0  0  0
 14 15  1  0  0  0  0
 15 16  2  0  0  0  0
 15 50  1  0  0  0  0
 16 17  1  0  0  0  0
 17 21  1  0  0  0  0
 17 18  2  0  0  0  0
 18 19  1  0  0  0  0
 19 20  2  0  0  0  0
 20 21  1  0  0  0  0
 20 51  1  0  0  0  0
 21 22  1  0  0  0  0
 22 23  1  0  0  0  0
 22 52  1  0  0  0  0
 22 53  1  0  0  0  0
 23 24  1  0  0  0  0
 23 26  1  0  0  0  0
 23 54  1  0  0  0  0
 24 25  1  0  0  0  0
 24 55  1  0  0  0  0
 24 56  1  0  0  0  0
 25 57  1  0  0  0  0
 26 30  1  0  0  0  0
 26 27  1  0  0  0  0
 26 58  1  0  0  0  0
 27 28  1  0  0  0  0
 27 59  1  0  0  0  0
 27 60  1  0  0  0  0
 28 29  1  0  0  0  0
 28 61  1  0  0  0  0
 28 62  1  0  0  0  0
 29 30  1  0  0  0  0
 30 63  1  0  0  0  0
 30 64  1  0  0  0  0
M  CHG  1   4   1
M  END
> <s_m_source_file>
AV-unprocessed.smi

> <i_m_source_file_index>
212

> <i_lp_mmshare_version>
43012

> <i_f3d_flags>
0

> <s_epik_input>
W0NIM11bQ0BASF0xW0NIMl1OKFtDSDJdQyhbQ0gzXSkoW0NIM10pW09IXSlbQ0gyXVtDSDJdTjFjKG5bY0hdbjIpYyhjMjMpbltjSF1uM1tDSDJdW0NASF0oW0NIMl1bT0hdKVtDQEBIXTRbQ0gyXVtDSDJdT1tDSDJdNA==

> <s_epik_cmdline>
J2VwaWtfcHl0aG9uJywgJy1waCcsICc3LjAnLCAnLXRuJywgJzgnLCAnLW1hJywgJzIwMCcsICctbWV0YWxfYmluZGluZycsICctaW1hZScsICc8aW5maWxlLm1hZT4nLCAnLW9tYWUnLCAnPG91dGZpbGUubWFlPic=

> <r_lp_tautomer_probability>
1

> <r_epik_Ionization_Penalty>
0.00182193

> <r_epik_Ionization_Penalty_Charging>
0.00173996

> <r_epik_Ionization_Penalty_Neutral>
8.19718e-05

> <r_epik_State_Penalty>
-0

> <r_epik_Charging_Adjusted_Penalty>
0.00173996

> <i_epik_Tot_Q>
1

> <i_epik_Tot_abs_Q>
1

> <r_epik_Metal_State_Penalty>
-0

> <b_epik_Metal_Only>
0

> <s_lp_Force_Field>
OPLS_2005

> <r_lp_Energy>
60.5032

> <b_lp_Chiralities_Consistent>
1

> <s_lp_Variant>
AV-unprocessed.smi:212-12

> <Gold.Version>
5.8.1

> <Gold.Id.Protein>
6NUR|6NUR_protein|mol2

> <Gold.PLP.Fitness>
42.4890

> <Gold.PLP.PLP>
-37.1897

> <Gold.PLP.part.hbond>
-3.1431

> <Gold.PLP.part.metal>
0.0000

> <Gold.PLP.part.buried>
-6.8784

> <Gold.PLP.part.nonpolar>
-27.6956

> <Gold.PLP.part.repulsive>
0.1638

> <Gold.PLP.ligand.clash>
0.0000

> <Gold.PLP.ligand.torsion>
1.0293

> <Gold.PLP.Chemscore.Hbond>
2.0000

> <Gold.PLP.Chemscore.CHOScore>
0.0000

> <Gold.PLP.Chemscore.Metal>
0.0000

> <Gold.Chemscore.Hbonds>
donor molecule, donor type, donor heavy atom, donor atom, acceptor molecule, acceptor atom, score
      L1  H     4    65       P1 10747  1.00
      L1  H     9    45       P1 10747  1.00

> <Gold.PLP.Chemscore.Internal.Correction>
1.3579

> <Gold.Rescore>
     Score         DG    S(hbond)    S(metal)    S(lipo)     H(rot)  DE(clash)    DE(int)     intcor
     10.45     -14.27       2.00        0.00      98.69       3.68       0.47       3.35       ----

> <Gold.Chemscore.Fitness>
10.4508

> <Gold.Chemscore.DG>
-14.2745

> <Gold.Chemscore.ZeroCoef>
-5.4800

> <Gold.Chemscore.Hbond>
1.9976

> <Gold.Chemscore.Metal>
0.0000

> <Gold.Chemscore.Lipo>
98.6870

> <Gold.Chemscore.Internal_Hbond>
0.0000

> <Gold.Chemscore.DEClash>
0.4708

> <Gold.Chemscore.DEInternal>
3.3529

> <Gold.Chemscore.Rot>
3.6812

> <Gold.Chemscore.Internal.Correction>
   9.000000E+99

> <Gold.Chemscore.Hbonds>
donor molecule, donor type, donor heavy atom, donor atom, acceptor molecule, acceptor atom, score
      L1  H     4    65       P1 10747  1.00
      L1  H     9    45       P1 10747  1.00

> <Gold.Chemscore.Hbond.Weighted>
-6.6721

> <Gold.Chemscore.Metal.Weighted>
-0.0000

> <Gold.Chemscore.Lipo.Weighted>
-11.5464

> <Gold.Chemscore.Internal_Hbond.Weighted>
0.0000

> <Gold.Chemscore.DEClash.Weighted>
0.4708

> <Gold.Chemscore.DEInternal.Weighted>
3.3529

> <Gold.Chemscore.Rot.Weighted>
9.4239

> <Gold.Chemscore.Internal.Correction.Weighted>
   9.000000E+99

> <Gold.Protein.RotatedTorsions>
[ 6907 6896 6895 6894 ] final -123.28 input  -60.11 | X-H torsion
[ 7974 7965 7964 7962 ] final -133.84 input  175.53 | X-H torsion
[ 8008 7997 7996 7995 ] final   38.28 input   59.86 | X-H torsion
[ 10167 10162 10161 10158 ] final  -62.39 input  -65.29 | X-H torsion
[ 10718 10713 10712 10709 ] final    3.93 input   66.30 | X-H torsion
[ 10763 10752 10751 10750 ] final   92.40 input  -60.55 | X-H torsion
[ 11005 11000 10999 10996 ] final -158.10 input  -57.11 | X-H torsion

> <Gold.Protein.ActiveResidues>
 VAL166  LYS551  ARG553  GLY616  TRP617  ASP618  TYR619  PRO620  LYS621  CYS622 
 ASP623  PHE694  ASN695  SER759  ASP760  ASP761  ALA762  ILE779  LEU786  VAL792 
 PHE793  MET794  SER795  GLU796  ALA797  LYS798  CYS799  TRP800  GLU811  SER814 

> <Gold.Protein.RotatedAtoms>
  150.8655  133.7580  159.2977 H   0  0  0  0  0  0  0  0  0  0  0  0  # atno 6907 bound_to 6896
  151.5209  135.1065  159.9888 H   0  0  0  0  0  0  0  0  0  0  0  0  # atno 6908 bound_to 6896
  152.4658  133.7875  159.6940 H   0  0  0  0  0  0  0  0  0  0  0  0  # atno 6909 bound_to 6896
  144.9157  140.6951  143.4997 H   0  0  0  0  0  0  0  0  0  0  0  0  # atno 7974 bound_to 7965
  155.2176  140.3328  155.4320 H   0  0  0  0  0  0  0  0  0  0  0  0  # atno 8008 bound_to 7997
  156.2346  140.1866  156.7202 H   0  0  0  0  0  0  0  0  0  0  0  0  # atno 8009 bound_to 7997
  154.6036  140.0619  156.9387 H   0  0  0  0  0  0  0  0  0  0  0  0  # atno 8010 bound_to 7997
  140.5942  143.2347  151.6073 H   0  0  0  0  0  0  0  0  0  0  0  0  # atno 10167 bound_to 10162
  156.8852  130.5667  149.5651 H   0  0  0  0  0  0  0  0  0  0  0  0  # atno 10718 bound_to 10713
  153.2187  135.4363  155.0464 H   0  0  0  0  0  0  0  0  0  0  0  0  # atno 10763 bound_to 10752
  154.8239  135.3351  154.6959 H   0  0  0  0  0  0  0  0  0  0  0  0  # atno 10764 bound_to 10752
  153.7392  135.7006  153.5027 H   0  0  0  0  0  0  0  0  0  0  0  0  # atno 10765 bound_to 10752
  140.6573  134.4387  157.5235 H   0  0  0  0  0  0  0  0  0  0  0  0  # atno 11005 bound_to 11000
  145.3380  139.1740  143.4501 LP  0  0  0  0  0  0  0  0  0  0  0  0  # atno 17320 bound_to 7965
  146.3180  140.3418  142.8648 LP  0  0  0  0  0  0  0  0  0  0  0  0  # atno 17321 bound_to 7965
  139.5247  144.3096  152.1004 LP  0  0  0  0  0  0  0  0  0  0  0  0  # atno 17342 bound_to 10162
  140.2265  144.4412  150.6318 LP  0  0  0  0  0  0  0  0  0  0  0  0  # atno 17343 bound_to 10162
  156.0657  130.5701  150.9283 LP  0  0  0  0  0  0  0  0  0  0  0  0  # atno 17370 bound_to 10713
  157.6117  131.0936  150.8783 LP  0  0  0  0  0  0  0  0  0  0  0  0  # atno 17371 bound_to 10713
  139.9025  134.8524  156.1838 LP  0  0  0  0  0  0  0  0  0  0  0  0  # atno 17394 bound_to 11000
  141.0492  133.6897  156.1739 LP  0  0  0  0  0  0  0  0  0  0  0  0  # atno 17395 bound_to 11000

$$$$
