AV-unprocessed.smi:2162|AV-procd|sdf|8803|dock7
  -GOLD-   2272011583D 1   1.00000     0.00000
 Structure written by MMmdl.
 41 42  0  0  0  0  0  0  0  0  1 V2000
  152.3241  144.1213  161.4324 C   0  0  0  0  0  0  0  0  0  0  0  0
  151.9209  144.0249  160.0012 C   0  0  0  0  0  0  0  0  0  0  0  0
  151.4759  142.9012  159.4333 N   0  0  0  0  0  0  0  0  0  0  0  0
  151.1387  143.0754  158.0875 C   0  0  0  0  0  0  0  0  0  0  0  0
  150.5684  141.9293  157.3012 C   0  0  0  0  0  0  0  0  0  0  0  0
  151.5549  140.7607  157.0955 C   0  0  0  0  0  0  0  0  0  0  0  0
  150.9002  139.5670  156.5629 N   0  0  0  0  0  0  0  0  0  0  0  0
  150.3818  139.4542  155.3294 C   0  0  0  0  0  0  0  0  0  0  0  0
  150.3293  140.3896  154.5299 O   0  0  0  0  0  0  0  0  0  0  0  0
  149.8863  138.0590  154.9176 C   0  0  1  0  0  0  0  0  0  0  0  0
  151.0322  137.0313  154.8540 C   0  0  0  0  0  0  0  0  0  0  0  0
  150.8249  136.1844  156.1005 C   0  0  0  0  0  0  0  0  0  0  0  0
  151.6499  135.3570  156.4849 O   0  0  0  0  0  0  0  0  0  0  0  0
  149.6708  136.4922  156.7078 N   0  0  0  0  0  0  0  0  0  0  0  0
  149.2090  135.9583  157.9954 C   0  0  0  0  0  0  0  0  0  0  0  0
  147.8879  135.1772  157.8722 C   0  0  0  0  0  0  0  0  0  0  0  0
  149.1115  137.0905  159.0305 C   0  0  0  0  0  0  0  0  0  0  0  0
  148.9080  137.4817  155.9590 C   0  0  0  0  0  0  0  0  0  0  0  0
  151.3686  144.3508  157.6336 C   0  0  0  0  0  0  0  0  0  0  0  0
  151.9857  145.3870  158.8900 S   0  0  0  0  0  0  0  0  0  0  0  0
  151.9238  143.2811  162.0006 H   0  0  0  0  0  0  0  0  0  0  0  0
  151.9440  145.0464  161.8660 H   0  0  0  0  0  0  0  0  0  0  0  0
  153.4109  144.1158  161.5138 H   0  0  0  0  0  0  0  0  0  0  0  0
  149.6770  141.5512  157.8033 H   0  0  0  0  0  0  0  0  0  0  0  0
  150.2268  142.2819  156.3276 H   0  0  0  0  0  0  0  0  0  0  0  0
  152.3390  141.0613  156.4003 H   0  0  0  0  0  0  0  0  0  0  0  0
  152.0586  140.5325  158.0363 H   0  0  0  0  0  0  0  0  0  0  0  0
  150.8980  138.7481  157.1535 H   0  0  0  0  0  0  0  0  0  0  0  0
  149.3948  138.1291  153.9458 H   0  0  0  0  0  0  0  0  0  0  0  0
  150.9433  136.3995  153.9697 H   0  0  0  0  0  0  0  0  0  0  0  0
  152.0269  137.4799  154.8485 H   0  0  0  0  0  0  0  0  0  0  0  0
  149.9580  135.2487  158.3512 H   0  0  0  0  0  0  0  0  0  0  0  0
  147.6267  134.7087  158.8214 H   0  0  0  0  0  0  0  0  0  0  0  0
  147.9666  134.3841  157.1280 H   0  0  0  0  0  0  0  0  0  0  0  0
  147.0559  135.8235  157.5910 H   0  0  0  0  0  0  0  0  0  0  0  0
  148.8048  136.7073  160.0039 H   0  0  0  0  0  0  0  0  0  0  0  0
  148.3849  137.8437  158.7249 H   0  0  0  0  0  0  0  0  0  0  0  0
  150.0712  137.5914  159.1624 H   0  0  0  0  0  0  0  0  0  0  0  0
  148.5041  138.2457  156.6243 H   0  0  0  0  0  0  0  0  0  0  0  0
  148.0668  136.9949  155.4640 H   0  0  0  0  0  0  0  0  0  0  0  0
  151.1954  144.7468  156.6442 H   0  0  0  0  0  0  0  0  0  0  0  0
  1  2  1  0  0  0  0
  1 21  1  0  0  0  0
  1 22  1  0  0  0  0
  1 23  1  0  0  0  0
  2 20  1  0  0  0  0
  2  3  2  0  0  0  0
  3  4  1  0  0  0  0
  4  5  1  0  0  0  0
  4 19  2  0  0  0  0
  5  6  1  0  0  0  0
  5 24  1  0  0  0  0
  5 25  1  0  0  0  0
  6  7  1  0  0  0  0
  6 26  1  0  0  0  0
  6 27  1  0  0  0  0
  7  8  1  0  0  0  0
  7 28  1  0  0  0  0
  8  9  2  0  0  0  0
  8 10  1  0  0  0  0
 10 18  1  0  0  0  0
 10 11  1  0  0  0  0
 10 29  1  0  0  0  0
 11 12  1  0  0  0  0
 11 30  1  0  0  0  0
 11 31  1  0  0  0  0
 12 13  2  0  0  0  0
 12 14  1  0  0  0  0
 14 15  1  0  0  0  0
 14 18  1  0  0  0  0
 15 16  1  0  0  0  0
 15 17  1  0  0  0  0
 15 32  1  0  0  0  0
 16 33  1  0  0  0  0
 16 34  1  0  0  0  0
 16 35  1  0  0  0  0
 17 36  1  0  0  0  0
 17 37  1  0  0  0  0
 17 38  1  0  0  0  0
 18 39  1  0  0  0  0
 18 40  1  0  0  0  0
 19 20  1  0  0  0  0
 19 41  1  0  0  0  0
M  END
> <s_m_source_file>
AV-unprocessed.smi

> <i_m_source_file_index>
2162

> <i_lp_mmshare_version>
43012

> <i_f3d_flags>
0

> <s_epik_input>
W0NIM11jMW5jKFtjSF1zMSlbQ0gyXVtDSDJdW05IXUMoPU8pW0NAQEhdMltDSDJdQyg9TylOKFtDSDJdMilbQ0hdKFtDSDNdKVtDSDNd

> <s_epik_cmdline>
J2VwaWtfcHl0aG9uJywgJy1waCcsICc3LjAnLCAnLXRuJywgJzgnLCAnLW1hJywgJzIwMCcsICctbWV0YWxfYmluZGluZycsICctaW1hZScsICc8aW5maWxlLm1hZT4nLCAnLW9tYWUnLCAnPG91dGZpbGUubWFlPic=

> <r_epik_Ionization_Penalty>
0.000973993

> <r_epik_Ionization_Penalty_Charging>
0

> <r_epik_Ionization_Penalty_Neutral>
0.000973993

> <r_epik_State_Penalty>
0.000633765

> <r_epik_Charging_Adjusted_Penalty>
0.000633765

> <i_epik_Tot_Q>
0

> <i_epik_Tot_abs_Q>
0

> <r_epik_Metal_State_Penalty>
-0

> <b_epik_Metal_Only>
0

> <s_lp_Force_Field>
OPLS_2005

> <r_lp_Energy>
12.9276

> <b_lp_Chiralities_Consistent>
1

> <s_lp_Variant>
AV-unprocessed.smi:2162-2

> <Gold.Version>
5.8.1

> <Gold.Id.Protein>
6NUR|6NUR_protein|mol2

> <Gold.PLP.Fitness>
44.2658

> <Gold.PLP.PLP>
-36.2248

> <Gold.PLP.part.hbond>
-2.0000

> <Gold.PLP.part.metal>
0.0000

> <Gold.PLP.part.buried>
-5.4692

> <Gold.PLP.part.nonpolar>
-30.3767

> <Gold.PLP.part.repulsive>
0.1888

> <Gold.PLP.ligand.clash>
0.0000

> <Gold.PLP.ligand.torsion>
0.2139

> <Gold.PLP.Chemscore.Hbond>
1.9360

> <Gold.PLP.Chemscore.CHOScore>
0.8639

> <Gold.PLP.Chemscore.Metal>
0.0000

> <Gold.Chemscore.Hbonds>
donor molecule, donor type, donor heavy atom, donor atom, acceptor molecule, acceptor atom, score
      P1  H  7989  7998       L1     9  1.00
      P1  H 10752 10764       L1    13  0.53
      L1  C    19    41       P1  8028  0.82

> <Gold.PLP.Chemscore.Internal.Correction>
0.0691

> <Gold.Rescore>
     Score         DG    S(hbond)    S(metal)    S(lipo)     H(rot)  DE(clash)    DE(int)     intcor
     17.41     -17.77       1.65        0.00      94.16       1.66       0.00       0.35       ----

> <Gold.Chemscore.Fitness>
17.4112

> <Gold.Chemscore.DG>
-17.7668

> <Gold.Chemscore.ZeroCoef>
-5.4800

> <Gold.Chemscore.Hbond>
1.6514

> <Gold.Chemscore.Metal>
0.0000

> <Gold.Chemscore.Lipo>
94.1616

> <Gold.Chemscore.Internal_Hbond>
0.0000

> <Gold.Chemscore.DEClash>
0.0015

> <Gold.Chemscore.DEInternal>
0.3542

> <Gold.Chemscore.Rot>
1.6585

> <Gold.Chemscore.Internal.Correction>
   9.000000E+99

> <Gold.Chemscore.Hbonds>
donor molecule, donor type, donor heavy atom, donor atom, acceptor molecule, acceptor atom, score
      P1  H  7989  7998       L1     9  0.95
      P1  H 10752 10764       L1    13  0.09

> <Gold.Chemscore.Hbond.Weighted>
-5.5156

> <Gold.Chemscore.Metal.Weighted>
-0.0000

> <Gold.Chemscore.Lipo.Weighted>
-11.0169

> <Gold.Chemscore.Internal_Hbond.Weighted>
0.0000

> <Gold.Chemscore.DEClash.Weighted>
0.0015

> <Gold.Chemscore.DEInternal.Weighted>
0.3542

> <Gold.Chemscore.Rot.Weighted>
4.2457

> <Gold.Chemscore.Internal.Correction.Weighted>
   9.000000E+99

> <Gold.Protein.RotatedTorsions>
[ 6907 6896 6895 6894 ] final  122.14 input  -60.11 | X-H torsion
[ 7974 7965 7964 7962 ] final  156.07 input  175.53 | X-H torsion
[ 8008 7997 7996 7995 ] final  -11.85 input   59.86 | X-H torsion
[ 10167 10162 10161 10158 ] final -174.65 input  -65.29 | X-H torsion
[ 10718 10713 10712 10709 ] final -151.46 input   66.30 | X-H torsion
[ 10763 10752 10751 10750 ] final  -47.99 input  -60.55 | X-H torsion
[ 11005 11000 10999 10996 ] final   74.29 input  -57.11 | X-H torsion

> <Gold.Protein.ActiveResidues>
 VAL166  LYS551  ARG553  GLY616  TRP617  ASP618  TYR619  PRO620  LYS621  CYS622 
 ASP623  PHE694  ASN695  SER759  ASP760  ASP761  ALA762  ILE779  LEU786  VAL792 
 PHE793  MET794  SER795  GLU796  ALA797  LYS798  CYS799  TRP800  GLU811  SER814 

> <Gold.Protein.RotatedAtoms>
  152.4267  133.7207  159.6531 H   0  0  0  0  0  0  0  0  0  0  0  0  # atno 6907 bound_to 6896
  150.8144  133.8353  159.3173 H   0  0  0  0  0  0  0  0  0  0  0  0  # atno 6908 bound_to 6896
  151.6054  135.1046  160.0121 H   0  0  0  0  0  0  0  0  0  0  0  0  # atno 6909 bound_to 6896
  144.7986  139.7153  143.6191 H   0  0  0  0  0  0  0  0  0  0  0  0  # atno 7974 bound_to 7965
  154.5429  140.2292  155.8611 H   0  0  0  0  0  0  0  0  0  0  0  0  # atno 8008 bound_to 7997
  156.1875  140.3085  155.9229 H   0  0  0  0  0  0  0  0  0  0  0  0  # atno 8009 bound_to 7997
  155.3222  140.0441  157.3030 H   0  0  0  0  0  0  0  0  0  0  0  0  # atno 8010 bound_to 7997
  139.5622  144.1841  152.1257 H   0  0  0  0  0  0  0  0  0  0  0  0  # atno 10167 bound_to 10162
  156.4595  130.8206  151.2437 H   0  0  0  0  0  0  0  0  0  0  0  0  # atno 10718 bound_to 10713
  154.0705  135.6605  153.4823 H   0  0  0  0  0  0  0  0  0  0  0  0  # atno 10763 bound_to 10752
  153.0392  135.5156  154.7571 H   0  0  0  0  0  0  0  0  0  0  0  0  # atno 10764 bound_to 10752
  154.6636  135.3018  154.9802 H   0  0  0  0  0  0  0  0  0  0  0  0  # atno 10765 bound_to 10752
  139.9398  134.7420  156.1130 H   0  0  0  0  0  0  0  0  0  0  0  0  # atno 11005 bound_to 11000
  146.2261  139.5725  142.9586 LP  0  0  0  0  0  0  0  0  0  0  0  0  # atno 17320 bound_to 7965
  145.5611  141.0404  143.2226 LP  0  0  0  0  0  0  0  0  0  0  0  0  # atno 17321 bound_to 7965
  140.1357  144.5248  150.6775 LP  0  0  0  0  0  0  0  0  0  0  0  0  # atno 17342 bound_to 10162
  140.6903  143.2372  151.5149 LP  0  0  0  0  0  0  0  0  0  0  0  0  # atno 17343 bound_to 10162
  157.7498  131.0112  150.3334 LP  0  0  0  0  0  0  0  0  0  0  0  0  # atno 17370 bound_to 10713
  156.3731  130.3867  149.7160 LP  0  0  0  0  0  0  0  0  0  0  0  0  # atno 17371 bound_to 10713
  141.1027  133.6671  156.2793 LP  0  0  0  0  0  0  0  0  0  0  0  0  # atno 17394 bound_to 11000
  140.5981  134.5582  157.5512 LP  0  0  0  0  0  0  0  0  0  0  0  0  # atno 17395 bound_to 11000

$$$$
