AV-unprocessed.smi:213|AV-procd|sdf|1640|dock10
  -GOLD-   2262020 13D 1   1.00000     0.00000
 Structure written by MMmdl.
 59 62  0  0  0  0  0  0  0  0  2 V2000
  149.2125  133.4312  154.5165 C   0  0  0  0  0  0  0  0  0  0  0  0
  149.0067  134.9368  154.7682 C   0  0  1  0  0  0  0  0  0  0  0  0
  147.5188  135.3480  154.6692 C   0  0  0  0  0  0  0  0  0  0  0  0
  146.9957  135.2787  153.2820 N   0  3  0  0  0  0  0  0  0  0  0  0
  146.7687  133.8846  152.8323 C   0  0  0  0  0  0  0  0  0  0  0  0
  146.2700  133.8611  151.3776 C   0  0  0  0  0  0  0  0  0  0  0  0
  145.0841  134.6377  151.2671 O   0  0  0  0  0  0  0  0  0  0  0  0
  145.3069  135.9998  151.6099 C   0  0  0  0  0  0  0  0  0  0  0  0
  145.7733  136.0947  153.0723 C   0  0  0  0  0  0  0  0  0  0  0  0
  149.5892  135.3429  156.0551 N   0  0  0  0  0  0  0  0  0  0  0  0
  149.1710  134.6742  157.2856 C   0  0  0  0  0  0  0  0  0  0  0  0
  150.1324  136.5870  156.1892 C   0  0  0  0  0  0  0  0  0  0  0  0
  150.3892  137.3273  155.0757 N   0  0  0  0  0  0  0  0  0  0  0  0
  150.9127  138.5521  155.1732 C   0  0  0  0  0  0  0  0  0  0  0  0
  151.2564  139.2258  156.2707 N   0  0  0  0  0  0  0  0  0  0  0  0
  151.0119  138.4932  157.3939 C   0  0  0  0  0  0  0  0  0  0  0  0
  150.4585  137.1810  157.4460 C   0  0  0  0  0  0  0  0  0  0  0  0
  150.3740  136.7657  158.7715 N   0  0  0  0  0  0  0  0  0  0  0  0
  150.8365  137.7743  159.4586 C   0  0  0  0  0  0  0  0  0  0  0  0
  151.2418  138.8536  158.7089 N   0  0  0  0  0  0  0  0  0  0  0  0
  151.7948  140.1013  159.2046 C   0  0  0  0  0  0  0  0  0  0  0  0
  151.4092  141.3046  158.3231 C   0  0  1  0  0  0  0  0  0  0  0  0
  150.0021  141.4452  158.2603 O   0  0  0  0  0  0  0  0  0  0  0  0
  152.0678  142.6192  158.7872 C   0  0  1  0  0  0  0  0  0  0  0  0
  151.8493  143.8492  157.8908 C   0  0  0  0  0  0  0  0  0  0  0  0
  151.5503  144.9720  158.8743 C   0  0  0  0  0  0  0  0  0  0  0  0
  151.9261  144.3809  160.2298 C   0  0  0  0  0  0  0  0  0  0  0  0
  151.6207  143.0047  160.0802 O   0  0  0  0  0  0  0  0  0  0  0  0
  148.8960  133.1544  153.5107 H   0  0  0  0  0  0  0  0  0  0  0  0
  148.6475  132.8159  155.2165 H   0  0  0  0  0  0  0  0  0  0  0  0
  150.2649  133.1603  154.6094 H   0  0  0  0  0  0  0  0  0  0  0  0
  149.5696  135.4367  153.9811 H   0  0  0  0  0  0  0  0  0  0  0  0
  146.9308  134.6896  155.3099 H   0  0  0  0  0  0  0  0  0  0  0  0
  147.3637  136.3569  155.0545 H   0  0  0  0  0  0  0  0  0  0  0  0
  147.6949  133.3136  152.9100 H   0  0  0  0  0  0  0  0  0  0  0  0
  146.0391  133.4037  153.4860 H   0  0  0  0  0  0  0  0  0  0  0  0
  147.0334  134.2415  150.6968 H   0  0  0  0  0  0  0  0  0  0  0  0
  146.0520  132.8376  151.0719 H   0  0  0  0  0  0  0  0  0  0  0  0
  146.0423  136.4424  150.9363 H   0  0  0  0  0  0  0  0  0  0  0  0
  144.3779  136.5542  151.4753 H   0  0  0  0  0  0  0  0  0  0  0  0
  144.9814  135.7453  153.7367 H   0  0  0  0  0  0  0  0  0  0  0  0
  145.9594  137.1385  153.3225 H   0  0  0  0  0  0  0  0  0  0  0  0
  148.8411  135.3934  158.0364 H   0  0  0  0  0  0  0  0  0  0  0  0
  149.9978  134.0963  157.6993 H   0  0  0  0  0  0  0  0  0  0  0  0
  148.3426  133.9886  157.1116 H   0  0  0  0  0  0  0  0  0  0  0  0
  151.0799  139.0657  154.2380 H   0  0  0  0  0  0  0  0  0  0  0  0
  150.8940  137.7594  160.5373 H   0  0  0  0  0  0  0  0  0  0  0  0
  151.4526  140.2502  160.2296 H   0  0  0  0  0  0  0  0  0  0  0  0
  152.8796  139.9986  159.2498 H   0  0  0  0  0  0  0  0  0  0  0  0
  151.7458  141.1084  157.3046 H   0  0  0  0  0  0  0  0  0  0  0  0
  149.6922  141.0055  157.4835 H   0  0  0  0  0  0  0  0  0  0  0  0
  153.1432  142.4521  158.8715 H   0  0  0  0  0  0  0  0  0  0  0  0
  152.7461  144.0583  157.3066 H   0  0  0  0  0  0  0  0  0  0  0  0
  151.0232  143.7290  157.1897 H   0  0  0  0  0  0  0  0  0  0  0  0
  152.0952  145.8900  158.6516 H   0  0  0  0  0  0  0  0  0  0  0  0
  150.4839  145.2010  158.8566 H   0  0  0  0  0  0  0  0  0  0  0  0
  152.9932  144.4995  160.4246 H   0  0  0  0  0  0  0  0  0  0  0  0
  151.3724  144.8303  161.0543 H   0  0  0  0  0  0  0  0  0  0  0  0
  147.7150  135.6572  152.6822 H   0  0  0  0  0  0  0  0  0  0  0  0
  1  2  1  0  0  0  0
  1 29  1  0  0  0  0
  1 30  1  0  0  0  0
  1 31  1  0  0  0  0
  2  3  1  0  0  0  0
  2 10  1  0  0  0  0
  2 32  1  0  0  0  0
  3  4  1  0  0  0  0
  3 33  1  0  0  0  0
  3 34  1  0  0  0  0
  4  9  1  0  0  0  0
  4  5  1  0  0  0  0
  4 59  1  0  0  0  0
  5  6  1  0  0  0  0
  5 35  1  0  0  0  0
  5 36  1  0  0  0  0
  6  7  1  0  0  0  0
  6 37  1  0  0  0  0
  6 38  1  0  0  0  0
  7  8  1  0  0  0  0
  8  9  1  0  0  0  0
  8 39  1  0  0  0  0
  8 40  1  0  0  0  0
  9 41  1  0  0  0  0
  9 42  1  0  0  0  0
 10 11  1  0  0  0  0
 10 12  1  0  0  0  0
 11 43  1  0  0  0  0
 11 44  1  0  0  0  0
 11 45  1  0  0  0  0
 12 17  1  0  0  0  0
 12 13  2  0  0  0  0
 13 14  1  0  0  0  0
 14 15  2  0  0  0  0
 14 46  1  0  0  0  0
 15 16  1  0  0  0  0
 16 20  1  0  0  0  0
 16 17  2  0  0  0  0
 17 18  1  0  0  0  0
 18 19  2  0  0  0  0
 19 20  1  0  0  0  0
 19 47  1  0  0  0  0
 20 21  1  0  0  0  0
 21 22  1  0  0  0  0
 21 48  1  0  0  0  0
 21 49  1  0  0  0  0
 22 23  1  0  0  0  0
 22 24  1  0  0  0  0
 22 50  1  0  0  0  0
 23 51  1  0  0  0  0
 24 28  1  0  0  0  0
 24 25  1  0  0  0  0
 24 52  1  0  0  0  0
 25 26  1  0  0  0  0
 25 53  1  0  0  0  0
 25 54  1  0  0  0  0
 26 27  1  0  0  0  0
 26 55  1  0  0  0  0
 26 56  1  0  0  0  0
 27 28  1  0  0  0  0
 27 57  1  0  0  0  0
 27 58  1  0  0  0  0
M  CHG  1   4   1
M  END
> <s_m_source_file>
AV-unprocessed.smi

> <i_m_source_file_index>
213

> <i_lp_mmshare_version>
43012

> <i_f3d_flags>
0

> <s_epik_input>
W0NIMl0xW0NIMl1PW0NIMl1bQ0gyXU4xW0NIMl1bQ0BASF0oW0NIM10pTihbQ0gzXSljKG5bY0hdbjIpYyhjMjMpbltjSF1uM1tDSDJdW0NASF0oW09IXSlbQ0BASF00W0NIMl1bQ0gyXVtDSDJdTzQ=

> <s_epik_cmdline>
J2VwaWtfcHl0aG9uJywgJy1waCcsICc3LjAnLCAnLXRuJywgJzgnLCAnLW1hJywgJzIwMCcsICctbWV0YWxfYmluZGluZycsICctaW1hZScsICc8aW5maWxlLm1hZT4nLCAnLW9tYWUnLCAnPG91dGZpbGUubWFlPic=

> <r_lp_tautomer_probability>
1

> <r_epik_Ionization_Penalty>
0.399679

> <r_epik_Ionization_Penalty_Charging>
0.399433

> <r_epik_Ionization_Penalty_Neutral>
0.000246213

> <r_epik_State_Penalty>
0.286032

> <r_epik_Charging_Adjusted_Penalty>
0.685465

> <i_epik_Tot_Q>
1

> <i_epik_Tot_abs_Q>
1

> <r_epik_Metal_State_Penalty>
0.286072

> <b_epik_Metal_Only>
0

> <s_lp_Force_Field>
OPLS_2005

> <r_lp_Energy>
46.5476

> <b_lp_Chiralities_Consistent>
1

> <s_lp_Variant>
AV-unprocessed.smi:213-8

> <Gold.Version>
5.8.1

> <Gold.Id.Protein>
6NUR|6NUR_protein|mol2

> <Gold.PLP.Fitness>
50.0437

> <Gold.PLP.PLP>
-42.8015

> <Gold.PLP.part.hbond>
-2.0000

> <Gold.PLP.part.metal>
0.0000

> <Gold.PLP.part.buried>
-7.0582

> <Gold.PLP.part.nonpolar>
-35.3780

> <Gold.PLP.part.repulsive>
0.2853

> <Gold.PLP.ligand.clash>
0.0000

> <Gold.PLP.ligand.torsion>
1.0856

> <Gold.PLP.Chemscore.Hbond>
2.8800

> <Gold.PLP.Chemscore.CHOScore>
0.0000

> <Gold.PLP.Chemscore.Metal>
0.0000

> <Gold.Chemscore.Hbonds>
donor molecule, donor type, donor heavy atom, donor atom, acceptor molecule, acceptor atom, score
      L1  H     4    59       P1  7948  2.00
      P1  H  6896  6908       L1    18  0.76

> <Gold.PLP.Chemscore.Internal.Correction>
0.7734

> <Gold.Rescore>
     Score         DG    S(hbond)    S(metal)    S(lipo)     H(rot)  DE(clash)    DE(int)     intcor
     11.21     -15.61       1.83        0.00      96.13       2.83       0.26       4.14       ----

> <Gold.Chemscore.Fitness>
11.2133

> <Gold.Chemscore.DG>
-15.6066

> <Gold.Chemscore.ZeroCoef>
-5.4800

> <Gold.Chemscore.Hbond>
1.8301

> <Gold.Chemscore.Metal>
0.0000

> <Gold.Chemscore.Lipo>
96.1294

> <Gold.Chemscore.Internal_Hbond>
0.0000

> <Gold.Chemscore.DEClash>
0.2570

> <Gold.Chemscore.DEInternal>
4.1363

> <Gold.Chemscore.Rot>
2.8254

> <Gold.Chemscore.Internal.Correction>
   9.000000E+99

> <Gold.Chemscore.Hbonds>
donor molecule, donor type, donor heavy atom, donor atom, acceptor molecule, acceptor atom, score
      L1  H     4    59       P1  7948  0.97
      P1  H  6896  6908       L1    18  0.33

> <Gold.Chemscore.Hbond.Weighted>
-6.1124

> <Gold.Chemscore.Metal.Weighted>
-0.0000

> <Gold.Chemscore.Lipo.Weighted>
-11.2471

> <Gold.Chemscore.Internal_Hbond.Weighted>
0.0000

> <Gold.Chemscore.DEClash.Weighted>
0.2570

> <Gold.Chemscore.DEInternal.Weighted>
4.1363

> <Gold.Chemscore.Rot.Weighted>
7.2330

> <Gold.Chemscore.Internal.Correction.Weighted>
   9.000000E+99

> <Gold.Protein.RotatedTorsions>
[ 6907 6896 6895 6894 ] final -149.50 input  -60.11 | X-H torsion
[ 7974 7965 7964 7962 ] final  -64.27 input  175.53 | X-H torsion
[ 8008 7997 7996 7995 ] final   67.02 input   59.86 | X-H torsion
[ 10167 10162 10161 10158 ] final   72.23 input  -65.29 | X-H torsion
[ 10718 10713 10712 10709 ] final   94.45 input   66.30 | X-H torsion
[ 10763 10752 10751 10750 ] final  -81.38 input  -60.55 | X-H torsion
[ 11005 11000 10999 10996 ] final   21.28 input  -57.11 | X-H torsion

> <Gold.Protein.ActiveResidues>
 VAL166  LYS551  ARG553  GLY616  TRP617  ASP618  TYR619  PRO620  LYS621  CYS622 
 ASP623  PHE694  ASN695  SER759  ASP760  ASP761  ALA762  ILE779  LEU786  VAL792 
 PHE793  MET794  SER795  GLU796  ALA797  LYS798  CYS799  TRP800  GLU811  SER814 

> <Gold.Protein.RotatedAtoms>
  151.1850  133.4701  159.2594 H   0  0  0  0  0  0  0  0  0  0  0  0  # atno 6907 bound_to 6896
  151.1221  135.0084  159.8553 H   0  0  0  0  0  0  0  0  0  0  0  0  # atno 6908 bound_to 6896
  152.5456  134.1761  159.8669 H   0  0  0  0  0  0  0  0  0  0  0  0  # atno 6909 bound_to 6896
  145.7688  140.8824  143.0391 H   0  0  0  0  0  0  0  0  0  0  0  0  # atno 7974 bound_to 7965
  155.6864  140.3496  155.4876 H   0  0  0  0  0  0  0  0  0  0  0  0  # atno 8008 bound_to 7997
  155.9562  140.1128  157.0957 H   0  0  0  0  0  0  0  0  0  0  0  0  # atno 8009 bound_to 7997
  154.4133  140.1184  156.5104 H   0  0  0  0  0  0  0  0  0  0  0  0  # atno 8010 bound_to 7997
  140.0375  144.5416  150.7459 H   0  0  0  0  0  0  0  0  0  0  0  0  # atno 10167 bound_to 10162
  157.6948  131.0513  150.4188 H   0  0  0  0  0  0  0  0  0  0  0  0  # atno 10718 bound_to 10713
  154.5629  135.5628  153.7024 H   0  0  0  0  0  0  0  0  0  0  0  0  # atno 10763 bound_to 10752
  153.0023  135.6278  154.2220 H   0  0  0  0  0  0  0  0  0  0  0  0  # atno 10764 bound_to 10752
  154.2158  135.2871  155.2922 H   0  0  0  0  0  0  0  0  0  0  0  0  # atno 10765 bound_to 10752
  140.3933  134.1796  155.7663 H   0  0  0  0  0  0  0  0  0  0  0  0  # atno 11005 bound_to 11000
  144.6816  139.9826  143.7483 LP  0  0  0  0  0  0  0  0  0  0  0  0  # atno 17320 bound_to 7965
  146.0191  139.3235  143.0824 LP  0  0  0  0  0  0  0  0  0  0  0  0  # atno 17321 bound_to 7965
  140.7275  143.2652  151.4069 LP  0  0  0  0  0  0  0  0  0  0  0  0  # atno 17342 bound_to 10162
  139.6035  144.1245  152.2224 LP  0  0  0  0  0  0  0  0  0  0  0  0  # atno 17343 bound_to 10162
  156.4565  130.4023  149.6603 LP  0  0  0  0  0  0  0  0  0  0  0  0  # atno 17370 bound_to 10713
  156.3733  130.7542  151.2527 LP  0  0  0  0  0  0  0  0  0  0  0  0  # atno 17371 bound_to 10713
  141.1883  133.8263  157.1000 LP  0  0  0  0  0  0  0  0  0  0  0  0  # atno 17394 bound_to 11000
  140.0390  134.9864  157.0926 LP  0  0  0  0  0  0  0  0  0  0  0  0  # atno 17395 bound_to 11000

$$$$
