AV-unprocessed.smi:283|AV-procd|sdf|2131|dock9
  -GOLD-   2262021443D 1   1.00000     0.00000
 Structure written by MMmdl.
 48 51  0  0  0  0  0  0  0  0  1 V2000
  150.8546  142.2476  157.0073 C   0  0  0  0  0  0  0  0  0  0  0  0
  151.9104  141.7313  157.9937 C   0  0  2  0  0  0  0  0  0  0  0  0
  151.6403  140.3344  158.3298 N   0  0  0  0  0  0  0  0  0  0  0  0
  151.8221  139.3501  157.4201 C   0  0  0  0  0  0  0  0  0  0  0  0
  152.6646  139.5127  156.3663 N   0  0  0  0  0  0  0  0  0  0  0  0
  152.8271  138.5258  155.4811 C   0  0  0  0  0  0  0  0  0  0  0  0
  152.2500  137.3228  155.4593 N   0  0  0  0  0  0  0  0  0  0  0  0
  151.3958  137.1551  156.5101 C   0  0  0  0  0  0  0  0  0  0  0  0
  151.1315  138.1152  157.5272 C   0  0  0  0  0  0  0  0  0  0  0  0
  150.2168  137.5990  158.4354 N   0  0  0  0  0  0  0  0  0  0  0  0
  149.9557  136.4047  157.9760 C   0  0  0  0  0  0  0  0  0  0  0  0
  150.6207  136.0550  156.8217 N   0  0  0  0  0  0  0  0  0  0  0  0
  150.5176  134.7617  156.0729 C   0  0  1  0  0  0  0  0  0  0  0  0
  149.5896  133.9267  156.6987 O   0  0  0  0  0  0  0  0  0  0  0  0
  148.7999  133.2258  155.7344 C   0  0  1  0  0  0  0  0  0  0  0  0
  147.3281  133.6417  155.9342 C   0  0  0  0  0  0  0  0  0  0  0  0
  146.8627  133.2392  157.2055 O   0  0  0  0  0  0  0  0  0  0  0  0
  149.4275  133.5829  154.3737 C   0  0  1  0  0  0  0  0  0  0  0  0
  148.5495  133.5699  153.2637 O   0  0  0  0  0  0  0  0  0  0  0  0
  150.0727  134.9371  154.6159 C   0  0  1  0  0  0  0  0  0  0  0  0
  149.1785  136.0213  154.4238 O   0  0  0  0  0  0  0  0  0  0  0  0
  152.0078  142.6584  159.2069 C   0  0  0  0  0  0  0  0  0  0  0  0
  151.2917  143.8776  159.2101 C   0  0  0  0  0  0  0  0  0  0  0  0
  151.3634  144.7496  160.3125 C   0  0  0  0  0  0  0  0  0  0  0  0
  152.1558  144.4121  161.4242 C   0  0  0  0  0  0  0  0  0  0  0  0
  152.8789  143.2052  161.4286 C   0  0  0  0  0  0  0  0  0  0  0  0
  152.8129  142.3291  160.3266 C   0  0  0  0  0  0  0  0  0  0  0  0
  153.7325  140.8659  160.3850 Cl  0  0  0  0  0  0  0  0  0  0  0  0
  151.5070  134.3098  156.1543 H   0  0  0  0  0  0  0  0  0  0  0  0
  148.8992  132.1566  155.9265 H   0  0  0  0  0  0  0  0  0  0  0  0
  150.2206  132.8612  154.1724 H   0  0  0  0  0  0  0  0  0  0  0  0
  150.9459  135.0948  153.9819 H   0  0  0  0  0  0  0  0  0  0  0  0
  151.0857  143.2631  156.6843 H   0  0  0  0  0  0  0  0  0  0  0  0
  149.8611  142.2592  157.4569 H   0  0  0  0  0  0  0  0  0  0  0  0
  150.8101  141.6216  156.1156 H   0  0  0  0  0  0  0  0  0  0  0  0
  152.8634  141.7312  157.4663 H   0  0  0  0  0  0  0  0  0  0  0  0
  151.4137  140.1518  159.2968 H   0  0  0  0  0  0  0  0  0  0  0  0
  153.5170  138.7286  154.6754 H   0  0  0  0  0  0  0  0  0  0  0  0
  149.2643  135.7390  158.4719 H   0  0  0  0  0  0  0  0  0  0  0  0
  147.2409  134.7275  155.8853 H   0  0  0  0  0  0  0  0  0  0  0  0
  146.6822  133.2368  155.1556 H   0  0  0  0  0  0  0  0  0  0  0  0
  146.1249  133.7815  157.4402 H   0  0  0  0  0  0  0  0  0  0  0  0
  148.5665  134.4265  152.8639 H   0  0  0  0  0  0  0  0  0  0  0  0
  149.0962  136.1798  153.4957 H   0  0  0  0  0  0  0  0  0  0  0  0
  150.6815  144.1511  158.3618 H   0  0  0  0  0  0  0  0  0  0  0  0
  150.8109  145.6776  160.3040 H   0  0  0  0  0  0  0  0  0  0  0  0
  152.2115  145.0793  162.2717 H   0  0  0  0  0  0  0  0  0  0  0  0
  153.4893  142.9511  162.2825 H   0  0  0  0  0  0  0  0  0  0  0  0
  1  2  1  0  0  0  0
  1 33  1  0  0  0  0
  1 34  1  0  0  0  0
  1 35  1  0  0  0  0
  2  3  1  0  0  0  0
  2 22  1  0  0  0  0
  2 36  1  0  0  0  0
  3  4  1  0  0  0  0
  3 37  1  0  0  0  0
  4  9  1  0  0  0  0
  4  5  2  0  0  0  0
  5  6  1  0  0  0  0
  6  7  2  0  0  0  0
  6 38  1  0  0  0  0
  7  8  1  0  0  0  0
  8 12  1  0  0  0  0
  8  9  2  0  0  0  0
  9 10  1  0  0  0  0
 10 11  2  0  0  0  0
 11 12  1  0  0  0  0
 11 39  1  0  0  0  0
 12 13  1  0  0  0  0
 13 29  1  0  0  0  0
 13 20  1  0  0  0  0
 13 14  1  0  0  0  0
 14 15  1  0  0  0  0
 15 30  1  0  0  0  0
 15 16  1  0  0  0  0
 15 18  1  0  0  0  0
 16 17  1  0  0  0  0
 16 40  1  0  0  0  0
 16 41  1  0  0  0  0
 17 42  1  0  0  0  0
 18 31  1  0  0  0  0
 18 19  1  0  0  0  0
 18 20  1  0  0  0  0
 19 43  1  0  0  0  0
 20 32  1  0  0  0  0
 20 21  1  0  0  0  0
 21 44  1  0  0  0  0
 22 27  1  0  0  0  0
 22 23  2  0  0  0  0
 23 24  1  0  0  0  0
 23 45  1  0  0  0  0
 24 25  2  0  0  0  0
 24 46  1  0  0  0  0
 25 26  1  0  0  0  0
 25 47  1  0  0  0  0
 26 27  2  0  0  0  0
 26 48  1  0  0  0  0
 27 28  1  0  0  0  0
M  END
> <s_m_source_file>
AV-unprocessed.smi

> <i_m_source_file_index>
283

> <i_lp_mmshare_version>
43012

> <i_f3d_flags>
0

> <s_epik_input>
Q2xjMVtjSF1bY0hdW2NIXVtjSF1jMVtDQEhdKFtDSDNdKVtOSF1jKG5bY0hdbjIpYyhjMjMpbltjSF1uM1tDQEBIXTRPW0NASF0oW0NIMl1bT0hdKVtDQEBIXShbT0hdKVtDQEhdNFtPSF0=

> <s_epik_cmdline>
J2VwaWtfcHl0aG9uJywgJy1waCcsICc3LjAnLCAnLXRuJywgJzgnLCAnLW1hJywgJzIwMCcsICctbWV0YWxfYmluZGluZycsICctaW1hZScsICc8aW5maWxlLm1hZT4nLCAnLW9tYWUnLCAnPG91dGZpbGUubWFlPic=

> <r_lp_tautomer_probability>
1

> <r_epik_Ionization_Penalty>
0.000266407

> <r_epik_Ionization_Penalty_Charging>
0

> <r_epik_Ionization_Penalty_Neutral>
0.000266407

> <r_epik_State_Penalty>
-0

> <r_epik_Charging_Adjusted_Penalty>
0

> <i_epik_Tot_Q>
0

> <i_epik_Tot_abs_Q>
0

> <r_epik_Metal_State_Penalty>
-0

> <b_epik_Metal_Only>
0

> <s_epik_Chemistry_Notes>
This compound contains an acetal/aminal-like group ( X-CH(R)-Y where X, Y are N, S, or O) that may be acid/base labile, releasing an aldehyde.

> <s_lp_Force_Field>
OPLS_2005

> <r_lp_Energy>
56.5757

> <b_lp_Chiralities_Consistent>
1

> <s_lp_Variant>
AV-unprocessed.smi:283-7

> <Gold.Version>
5.8.1

> <Gold.Id.Protein>
6NUR|6NUR_protein|mol2

> <Gold.PLP.Fitness>
56.7404

> <Gold.PLP.PLP>
-46.0338

> <Gold.PLP.part.hbond>
-4.0000

> <Gold.PLP.part.metal>
0.0000

> <Gold.PLP.part.buried>
-6.6423

> <Gold.PLP.part.nonpolar>
-35.4695

> <Gold.PLP.part.repulsive>
0.1479

> <Gold.PLP.ligand.clash>
0.0000

> <Gold.PLP.ligand.torsion>
0.4404

> <Gold.PLP.Chemscore.Hbond>
3.8480

> <Gold.PLP.Chemscore.CHOScore>
0.0000

> <Gold.PLP.Chemscore.Metal>
0.0000

> <Gold.Chemscore.Hbonds>
donor molecule, donor type, donor heavy atom, donor atom, acceptor molecule, acceptor atom, score
      L1  H    19    43       P1  7948  0.75
      L1  H    21    44       P1  7948  1.00
      P1  H  7997  8009       L1     5  0.95
      P1  H 10752 10764       L1     7  0.78

> <Gold.PLP.Chemscore.Internal.Correction>
0.0436

> <Gold.Rescore>
     Score         DG    S(hbond)    S(metal)    S(lipo)     H(rot)  DE(clash)    DE(int)     intcor
     17.51     -17.94       3.10        0.00     107.62       4.10       0.05       0.37       ----

> <Gold.Chemscore.Fitness>
17.5119

> <Gold.Chemscore.DG>
-17.9387

> <Gold.Chemscore.ZeroCoef>
-5.4800

> <Gold.Chemscore.Hbond>
3.1003

> <Gold.Chemscore.Metal>
0.0000

> <Gold.Chemscore.Lipo>
107.6191

> <Gold.Chemscore.Internal_Hbond>
0.0000

> <Gold.Chemscore.DEClash>
0.0532

> <Gold.Chemscore.DEInternal>
0.3735

> <Gold.Chemscore.Rot>
4.0968

> <Gold.Chemscore.Internal.Correction>
   9.000000E+99

> <Gold.Chemscore.Hbonds>
donor molecule, donor type, donor heavy atom, donor atom, acceptor molecule, acceptor atom, score
      L1  H    19    43       P1  7948  0.11
      L1  H    21    44       P1  7948  0.95
      P1  H  7997  8009       L1     5  0.22
      P1  H 10752 10764       L1     7  0.62

> <Gold.Chemscore.Hbond.Weighted>
-10.3552

> <Gold.Chemscore.Metal.Weighted>
-0.0000

> <Gold.Chemscore.Lipo.Weighted>
-12.5914

> <Gold.Chemscore.Internal_Hbond.Weighted>
0.0000

> <Gold.Chemscore.DEClash.Weighted>
0.0532

> <Gold.Chemscore.DEInternal.Weighted>
0.3735

> <Gold.Chemscore.Rot.Weighted>
10.4879

> <Gold.Chemscore.Internal.Correction.Weighted>
   9.000000E+99

> <Gold.Protein.RotatedTorsions>
[ 6907 6896 6895 6894 ] final  -97.31 input  -60.11 | X-H torsion
[ 7974 7965 7964 7962 ] final   -9.64 input  175.53 | X-H torsion
[ 8008 7997 7996 7995 ] final -168.92 input   59.86 | X-H torsion
[ 10167 10162 10161 10158 ] final   35.01 input  -65.29 | X-H torsion
[ 10718 10713 10712 10709 ] final  -82.74 input   66.30 | X-H torsion
[ 10763 10752 10751 10750 ] final  -48.65 input  -60.55 | X-H torsion
[ 11005 11000 10999 10996 ] final   63.29 input  -57.11 | X-H torsion

> <Gold.Protein.ActiveResidues>
 VAL166  LYS551  ARG553  GLY616  TRP617  ASP618  TYR619  PRO620  LYS621  CYS622 
 ASP623  PHE694  ASN695  SER759  ASP760  ASP761  ALA762  ILE779  LEU786  VAL792 
 PHE793  MET794  SER795  GLU796  ALA797  LYS798  CYS799  TRP800  GLU811  SER814 

> <Gold.Protein.RotatedAtoms>
  150.7013  134.1368  159.4089 H   0  0  0  0  0  0  0  0  0  0  0  0  # atno 6907 bound_to 6896
  151.9353  135.0236  160.0541 H   0  0  0  0  0  0  0  0  0  0  0  0  # atno 6908 bound_to 6896
  152.2140  133.4898  159.5162 H   0  0  0  0  0  0  0  0  0  0  0  0  # atno 6909 bound_to 6896
  146.2245  140.2646  142.8353 H   0  0  0  0  0  0  0  0  0  0  0  0  # atno 7974 bound_to 7965
  155.8980  140.1036  157.1371 H   0  0  0  0  0  0  0  0  0  0  0  0  # atno 8008 bound_to 7997
  154.4023  140.1298  156.4464 H   0  0  0  0  0  0  0  0  0  0  0  0  # atno 8009 bound_to 7997
  155.7456  140.3466  155.5128 H   0  0  0  0  0  0  0  0  0  0  0  0  # atno 8010 bound_to 7997
  140.4262  144.1390  150.6153 H   0  0  0  0  0  0  0  0  0  0  0  0  # atno 10167 bound_to 10162
  156.0028  130.4643  150.4150 H   0  0  0  0  0  0  0  0  0  0  0  0  # atno 10718 bound_to 10713
  154.0812  135.6591  153.4838 H   0  0  0  0  0  0  0  0  0  0  0  0  # atno 10763 bound_to 10752
  153.0355  135.5180  154.7472 H   0  0  0  0  0  0  0  0  0  0  0  0  # atno 10764 bound_to 10752
  154.6568  135.3009  154.9886 H   0  0  0  0  0  0  0  0  0  0  0  0  # atno 10765 bound_to 10752
  140.0034  134.6407  155.9894 H   0  0  0  0  0  0  0  0  0  0  0  0  # atno 11005 bound_to 11000
  144.9313  140.7978  143.5687 LP  0  0  0  0  0  0  0  0  0  0  0  0  # atno 17320 bound_to 7965
  145.2590  139.2000  143.4902 LP  0  0  0  0  0  0  0  0  0  0  0  0  # atno 17321 bound_to 7965
  140.4479  143.2499  151.9387 LP  0  0  0  0  0  0  0  0  0  0  0  0  # atno 17342 bound_to 10162
  139.4783  144.5591  151.8267 LP  0  0  0  0  0  0  0  0  0  0  0  0  # atno 17343 bound_to 10162
  157.2210  131.0482  151.2546 LP  0  0  0  0  0  0  0  0  0  0  0  0  # atno 17370 bound_to 10713
  157.3800  130.7226  149.6623 LP  0  0  0  0  0  0  0  0  0  0  0  0  # atno 17371 bound_to 10713
  141.1659  133.6537  156.4478 LP  0  0  0  0  0  0  0  0  0  0  0  0  # atno 17394 bound_to 11000
  140.4685  134.6775  157.5118 LP  0  0  0  0  0  0  0  0  0  0  0  0  # atno 17395 bound_to 11000

$$$$
