AV-unprocessed.smi:1406|AV-procd|sdf|5717|dock8
  -GOLD-   22720 5353D 1   1.00000     0.00000
 Structure written by MMmdl.
 41 43  0  0  0  0  0  0  0  0  2 V2000
  147.4630  141.2376  153.8947 C   0  0  0  0  0  0  0  0  0  0  0  0
  148.3625  140.0038  154.1128 C   0  0  2  0  0  0  0  0  0  0  0  0
  147.5969  138.7999  154.6850 C   0  0  0  0  0  0  0  0  0  0  0  0
  146.9413  138.9036  155.7222 O   0  0  0  0  0  0  0  0  0  0  0  0
  147.6824  137.6554  153.9875 N   0  0  0  0  0  0  0  0  0  0  0  0
  147.0644  136.3867  154.3681 C   0  0  2  0  0  0  0  0  0  0  0  0
  148.0952  135.3013  154.7313 C   0  0  0  0  0  0  0  0  0  0  0  0
  147.5257  134.0121  154.1303 C   0  0  0  0  0  0  0  0  0  0  0  0
  146.8512  134.4879  152.9170 N   0  3  1  0  0  0  0  0  0  0  0  0
  145.9694  133.5566  152.1850 C   0  0  0  0  0  0  0  0  0  0  0  0
  145.5442  134.2286  150.8617 C   0  0  0  0  0  0  0  0  0  0  0  0
  144.9465  135.6370  151.0844 C   0  0  0  0  0  0  0  0  0  0  0  0
  145.8581  136.5163  151.9679 C   0  0  0  0  0  0  0  0  0  0  0  0
  146.1824  135.7536  153.2649 C   0  0  2  0  0  0  0  0  0  0  0  0
  149.5198  140.3100  154.9445 N   0  0  0  0  0  0  0  0  0  0  0  0
  149.8435  141.4363  155.5835 C   0  0  0  0  0  0  0  0  0  0  0  0
  151.0045  141.3796  156.2205 N   0  0  0  0  0  0  0  0  0  0  0  0
  151.3756  140.1033  155.9053 C   0  0  0  0  0  0  0  0  0  0  0  0
  150.5277  139.4223  155.1348 N   0  0  0  0  0  0  0  0  0  0  0  0
  146.6346  141.0066  153.2242 H   0  0  0  0  0  0  0  0  0  0  0  0
  148.0278  142.0545  153.4445 H   0  0  0  0  0  0  0  0  0  0  0  0
  147.0386  141.6069  154.8294 H   0  0  0  0  0  0  0  0  0  0  0  0
  148.7421  139.7064  153.1337 H   0  0  0  0  0  0  0  0  0  0  0  0
  148.2398  137.6575  153.1456 H   0  0  0  0  0  0  0  0  0  0  0  0
  146.4395  136.5538  155.2481 H   0  0  0  0  0  0  0  0  0  0  0  0
  149.0567  135.5202  154.2639 H   0  0  0  0  0  0  0  0  0  0  0  0
  148.2625  135.2222  155.8060 H   0  0  0  0  0  0  0  0  0  0  0  0
  148.2967  133.2741  153.9073 H   0  0  0  0  0  0  0  0  0  0  0  0
  146.7967  133.5614  154.8056 H   0  0  0  0  0  0  0  0  0  0  0  0
  146.5022  132.6274  151.9807 H   0  0  0  0  0  0  0  0  0  0  0  0
  145.0991  133.3053  152.7933 H   0  0  0  0  0  0  0  0  0  0  0  0
  146.4142  134.3128  150.2090 H   0  0  0  0  0  0  0  0  0  0  0  0
  144.8277  133.5973  150.3352 H   0  0  0  0  0  0  0  0  0  0  0  0
  144.7701  136.1256  150.1257 H   0  0  0  0  0  0  0  0  0  0  0  0
  143.9706  135.5389  151.5618 H   0  0  0  0  0  0  0  0  0  0  0  0
  146.7751  136.7639  151.4314 H   0  0  0  0  0  0  0  0  0  0  0  0
  145.3542  137.4573  152.1903 H   0  0  0  0  0  0  0  0  0  0  0  0
  145.2345  135.5006  153.7453 H   0  0  0  0  0  0  0  0  0  0  0  0
  149.2190  142.3177  155.5796 H   0  0  0  0  0  0  0  0  0  0  0  0
  152.3011  139.6650  156.2488 H   0  0  0  0  0  0  0  0  0  0  0  0
  147.5946  134.7347  152.2793 H   0  0  0  0  0  0  0  0  0  0  0  0
  1  2  1  0  0  0  0
  1 20  1  0  0  0  0
  1 21  1  0  0  0  0
  1 22  1  0  0  0  0
  2  3  1  0  0  0  0
  2 15  1  0  0  0  0
  2 23  1  0  0  0  0
  3  4  2  0  0  0  0
  3  5  1  0  0  0  0
  5  6  1  0  0  0  0
  5 24  1  0  0  0  0
  6 14  1  0  0  0  0
  6  7  1  0  0  0  0
  6 25  1  0  0  0  0
  7  8  1  0  0  0  0
  7 26  1  0  0  0  0
  7 27  1  0  0  0  0
  8  9  1  0  0  0  0
  8 28  1  0  0  0  0
  8 29  1  0  0  0  0
  9 14  1  0  0  0  0
  9 10  1  0  0  0  0
  9 41  1  0  0  0  0
 10 11  1  0  0  0  0
 10 30  1  0  0  0  0
 10 31  1  0  0  0  0
 11 12  1  0  0  0  0
 11 32  1  0  0  0  0
 11 33  1  0  0  0  0
 12 13  1  0  0  0  0
 12 34  1  0  0  0  0
 12 35  1  0  0  0  0
 13 14  1  0  0  0  0
 13 36  1  0  0  0  0
 13 37  1  0  0  0  0
 14 38  1  0  0  0  0
 15 19  1  0  0  0  0
 15 16  1  0  0  0  0
 16 17  2  0  0  0  0
 16 39  1  0  0  0  0
 17 18  1  0  0  0  0
 18 19  2  0  0  0  0
 18 40  1  0  0  0  0
M  CHG  1   9   1
M  END
> <s_m_source_file>
AV-unprocessed.smi

> <i_m_source_file_index>
1406

> <i_lp_mmshare_version>
43012

> <i_f3d_flags>
0

> <s_epik_input>
bjFbY0hdbltjSF1uMVtDQEhdKFtDSDNdKUMoPU8pW05IXVtDQEhdKFtDSDJdW0NIMl0yKVtDQEBIXShOMjMpW0NIMl1bQ0gyXVtDSDJdW0NIMl0z

> <s_epik_cmdline>
J2VwaWtfcHl0aG9uJywgJy1waCcsICc3LjAnLCAnLXRuJywgJzgnLCAnLW1hJywgJzIwMCcsICctbWV0YWxfYmluZGluZycsICctaW1hZScsICc8aW5maWxlLm1hZT4nLCAnLW9tYWUnLCAnPG91dGZpbGUubWFlPic=

> <r_lp_tautomer_probability>
1

> <r_epik_Ionization_Penalty>
0.00197066

> <r_epik_Ionization_Penalty_Charging>
0.00196223

> <r_epik_Ionization_Penalty_Neutral>
8.43107e-06

> <r_epik_State_Penalty>
0.00133866

> <r_epik_Charging_Adjusted_Penalty>
0.00330089

> <i_epik_Tot_Q>
1

> <i_epik_Tot_abs_Q>
1

> <r_epik_Metal_State_Penalty>
-0

> <b_epik_Metal_Only>
0

> <s_lp_Force_Field>
OPLS_2005

> <r_lp_Energy>
47.4686

> <b_lp_Chiralities_Consistent>
1

> <s_lp_Variant>
AV-unprocessed.smi:1406-9

> <Gold.Version>
5.8.1

> <Gold.Id.Protein>
6NUR|6NUR_protein|mol2

> <Gold.PLP.Fitness>
35.6098

> <Gold.PLP.PLP>
-25.5012

> <Gold.PLP.part.hbond>
-2.0000

> <Gold.PLP.part.metal>
0.0000

> <Gold.PLP.part.buried>
-0.1064

> <Gold.PLP.part.nonpolar>
-23.2851

> <Gold.PLP.part.repulsive>
0.1148

> <Gold.PLP.ligand.clash>
0.0000

> <Gold.PLP.ligand.torsion>
0.2380

> <Gold.PLP.Chemscore.Hbond>
2.4960

> <Gold.PLP.Chemscore.CHOScore>
1.0000

> <Gold.PLP.Chemscore.Metal>
0.0000

> <Gold.Chemscore.Hbonds>
donor molecule, donor type, donor heavy atom, donor atom, acceptor molecule, acceptor atom, score
      L1  H     5    24       P1  7948  0.73
      L1  H     9    41       P1  7948  1.76
      L1  C    16    39       P1  8028  1.00

> <Gold.PLP.Chemscore.Internal.Correction>
0.0966

> <Gold.Rescore>
     Score         DG    S(hbond)    S(metal)    S(lipo)     H(rot)  DE(clash)    DE(int)     intcor
     10.69     -10.81       1.38        0.00      47.30       1.89       0.05       0.07       ----

> <Gold.Chemscore.Fitness>
10.6925

> <Gold.Chemscore.DG>
-10.8085

> <Gold.Chemscore.ZeroCoef>
-5.4800

> <Gold.Chemscore.Hbond>
1.3843

> <Gold.Chemscore.Metal>
0.0000

> <Gold.Chemscore.Lipo>
47.3039

> <Gold.Chemscore.Internal_Hbond>
0.0000

> <Gold.Chemscore.DEClash>
0.0493

> <Gold.Chemscore.DEInternal>
0.0667

> <Gold.Chemscore.Rot>
1.8865

> <Gold.Chemscore.Internal.Correction>
   9.000000E+99

> <Gold.Chemscore.Hbonds>
donor molecule, donor type, donor heavy atom, donor atom, acceptor molecule, acceptor atom, score
      L1  H     5    24       P1  7948  0.68
      L1  H     9    41       P1  7948  0.66

> <Gold.Chemscore.Hbond.Weighted>
-4.6234

> <Gold.Chemscore.Metal.Weighted>
-0.0000

> <Gold.Chemscore.Lipo.Weighted>
-5.5346

> <Gold.Chemscore.Internal_Hbond.Weighted>
0.0000

> <Gold.Chemscore.DEClash.Weighted>
0.0493

> <Gold.Chemscore.DEInternal.Weighted>
0.0667

> <Gold.Chemscore.Rot.Weighted>
4.8295

> <Gold.Chemscore.Internal.Correction.Weighted>
   9.000000E+99

> <Gold.Protein.RotatedTorsions>
[ 6907 6896 6895 6894 ] final   -3.20 input  -60.11 | X-H torsion
[ 7974 7965 7964 7962 ] final   70.95 input  175.53 | X-H torsion
[ 8008 7997 7996 7995 ] final -132.71 input   59.86 | X-H torsion
[ 10167 10162 10161 10158 ] final   38.91 input  -65.29 | X-H torsion
[ 10718 10713 10712 10709 ] final -146.48 input   66.30 | X-H torsion
[ 10763 10752 10751 10750 ] final   27.17 input  -60.55 | X-H torsion
[ 11005 11000 10999 10996 ] final -142.98 input  -57.11 | X-H torsion

> <Gold.Protein.ActiveResidues>
 VAL166  LYS551  ARG553  GLY616  TRP617  ASP618  TYR619  PRO620  LYS621  CYS622 
 ASP623  PHE694  ASN695  SER759  ASP760  ASP761  ALA762  ILE779  LEU786  VAL792 
 PHE793  MET794  SER795  GLU796  ALA797  LYS798  CYS799  TRP800  GLU811  SER814 

> <Gold.Protein.RotatedAtoms>
  151.5176  135.1066  159.9869 H   0  0  0  0  0  0  0  0  0  0  0  0  # atno 6907 bound_to 6896
  152.4634  133.7867  159.6890 H   0  0  0  0  0  0  0  0  0  0  0  0  # atno 6908 bound_to 6896
  150.8607  133.7584  159.3019 H   0  0  0  0  0  0  0  0  0  0  0  0  # atno 6909 bound_to 6896
  145.7718  139.2846  143.1317 H   0  0  0  0  0  0  0  0  0  0  0  0  # atno 7974 bound_to 7965
  155.3335  140.0468  157.3043 H   0  0  0  0  0  0  0  0  0  0  0  0  # atno 8008 bound_to 7997
  154.5315  140.2258  155.8761 H   0  0  0  0  0  0  0  0  0  0  0  0  # atno 8009 bound_to 7997
  156.1793  140.3077  155.9125 H   0  0  0  0  0  0  0  0  0  0  0  0  # atno 8010 bound_to 7997
  140.3891  144.1877  150.6130 H   0  0  0  0  0  0  0  0  0  0  0  0  # atno 10167 bound_to 10162
  156.3954  130.7907  151.2113 H   0  0  0  0  0  0  0  0  0  0  0  0  # atno 10718 bound_to 10713
  153.0573  135.6543  154.0546 H   0  0  0  0  0  0  0  0  0  0  0  0  # atno 10763 bound_to 10752
  154.0222  135.2919  155.3381 H   0  0  0  0  0  0  0  0  0  0  0  0  # atno 10764 bound_to 10752
  154.6894  135.5288  153.8439 H   0  0  0  0  0  0  0  0  0  0  0  0  # atno 10765 bound_to 10752
  140.8171  134.2676  157.4916 H   0  0  0  0  0  0  0  0  0  0  0  0  # atno 11005 bound_to 11000
  146.0162  140.8390  142.9946 LP  0  0  0  0  0  0  0  0  0  0  0  0  # atno 17320 bound_to 7965
  144.6811  140.2562  143.7325 LP  0  0  0  0  0  0  0  0  0  0  0  0  # atno 17321 bound_to 7965
  140.4859  143.2363  151.8889 LP  0  0  0  0  0  0  0  0  0  0  0  0  # atno 17342 bound_to 10162
  139.4790  144.5219  151.8789 LP  0  0  0  0  0  0  0  0  0  0  0  0  # atno 17343 bound_to 10162
  157.7501  131.0303  150.4130 LP  0  0  0  0  0  0  0  0  0  0  0  0  # atno 17370 bound_to 10713
  156.4400  130.3989  149.6704 LP  0  0  0  0  0  0  0  0  0  0  0  0  # atno 17371 bound_to 10713
  139.8710  134.9515  156.4086 LP  0  0  0  0  0  0  0  0  0  0  0  0  # atno 17394 bound_to 11000
  140.9138  133.7693  155.9823 LP  0  0  0  0  0  0  0  0  0  0  0  0  # atno 17395 bound_to 11000

$$$$
