AV-unprocessed.smi:2079|AV-procd|sdf|8478|dock3
  -GOLD-   2272011183D 1   1.00000     0.00000
 Structure written by MMmdl.
 42 43  0  0  0  0  0  0  0  0  2 V2000
  147.2328  133.8649  162.5453 C   0  0  0  0  0  0  0  0  0  0  0  0
  147.3387  135.0416  161.6370 C   0  0  0  0  0  0  0  0  0  0  0  0
  147.4741  135.1625  160.2825 C   0  0  0  0  0  0  0  0  0  0  0  0
  147.5210  136.5690  160.0904 C   0  0  0  0  0  0  0  0  0  0  0  0
  147.6670  137.1235  158.7931 N   0  0  0  0  0  0  0  0  0  0  0  0
  147.7686  136.4600  157.6290 C   0  0  0  0  0  0  0  0  0  0  0  0
  147.7756  135.2345  157.5080 O   0  0  0  0  0  0  0  0  0  0  0  0
  147.8659  137.3019  156.5893 N   0  0  0  0  0  0  0  0  0  0  0  0
  147.9592  136.8871  155.1939 C   0  0  0  0  0  0  0  0  0  0  0  0
  146.6826  137.2523  154.4064 C   0  0  0  0  0  0  0  0  0  0  0  0
  146.6118  136.6190  153.0572 N   0  3  1  0  0  0  0  0  0  0  0  0
  146.2569  135.1716  153.1364 C   0  0  0  0  0  0  0  0  0  0  0  0
  146.3068  134.4871  151.7633 C   0  0  0  0  0  0  0  0  0  0  0  0
  145.3789  135.1935  150.7762 C   0  0  0  0  0  0  0  0  0  0  0  0
  145.7584  136.6737  150.6998 C   0  0  0  0  0  0  0  0  0  0  0  0
  145.7282  137.3502  152.0884 C   0  0  2  0  0  0  0  0  0  0  0  0
  146.1025  138.8377  151.9173 C   0  0  0  0  0  0  0  0  0  0  0  0
  147.4190  137.2453  161.2244 N   0  0  0  0  0  0  0  0  0  0  0  0
  147.3023  136.2699  162.2214 O   0  0  0  0  0  0  0  0  0  0  0  0
  147.0670  132.9486  161.9786 H   0  0  0  0  0  0  0  0  0  0  0  0
  146.4033  133.9863  163.2421 H   0  0  0  0  0  0  0  0  0  0  0  0
  148.1475  133.7433  163.1255 H   0  0  0  0  0  0  0  0  0  0  0  0
  147.5332  134.3700  159.5510 H   0  0  0  0  0  0  0  0  0  0  0  0
  147.6793  138.1315  158.7468 H   0  0  0  0  0  0  0  0  0  0  0  0
  147.8533  138.2946  156.7736 H   0  0  0  0  0  0  0  0  0  0  0  0
  148.8394  137.3362  154.7302 H   0  0  0  0  0  0  0  0  0  0  0  0
  148.1233  135.8106  155.2043 H   0  0  0  0  0  0  0  0  0  0  0  0
  145.7926  136.9915  154.9810 H   0  0  0  0  0  0  0  0  0  0  0  0
  146.6789  138.3348  154.3075 H   0  0  0  0  0  0  0  0  0  0  0  0
  146.9450  134.6378  153.7891 H   0  0  0  0  0  0  0  0  0  0  0  0
  145.2620  135.0644  153.5717 H   0  0  0  0  0  0  0  0  0  0  0  0
  147.3292  134.4960  151.3829 H   0  0  0  0  0  0  0  0  0  0  0  0
  146.0203  133.4394  151.8583 H   0  0  0  0  0  0  0  0  0  0  0  0
  145.4518  134.7317  149.7911 H   0  0  0  0  0  0  0  0  0  0  0  0
  144.3416  135.0901  151.0978 H   0  0  0  0  0  0  0  0  0  0  0  0
  146.7539  136.7710  150.2638 H   0  0  0  0  0  0  0  0  0  0  0  0
  145.0750  137.1829  150.0192 H   0  0  0  0  0  0  0  0  0  0  0  0
  144.7057  137.3025  152.4671 H   0  0  0  0  0  0  0  0  0  0  0  0
  145.5528  139.2839  151.0880 H   0  0  0  0  0  0  0  0  0  0  0  0
  147.1658  138.9606  151.7086 H   0  0  0  0  0  0  0  0  0  0  0  0
  145.8526  139.4341  152.7941 H   0  0  0  0  0  0  0  0  0  0  0  0
  147.5453  136.6676  152.6742 H   0  0  0  0  0  0  0  0  0  0  0  0
  1  2  1  0  0  0  0
  1 20  1  0  0  0  0
  1 21  1  0  0  0  0
  1 22  1  0  0  0  0
  2 19  1  0  0  0  0
  2  3  2  0  0  0  0
  3  4  1  0  0  0  0
  3 23  1  0  0  0  0
  4  5  1  0  0  0  0
  4 18  2  0  0  0  0
  5  6  1  0  0  0  0
  5 24  1  0  0  0  0
  6  7  2  0  0  0  0
  6  8  1  0  0  0  0
  8  9  1  0  0  0  0
  8 25  1  0  0  0  0
  9 10  1  0  0  0  0
  9 26  1  0  0  0  0
  9 27  1  0  0  0  0
 10 11  1  0  0  0  0
 10 28  1  0  0  0  0
 10 29  1  0  0  0  0
 11 16  1  0  0  0  0
 11 12  1  0  0  0  0
 11 42  1  0  0  0  0
 12 13  1  0  0  0  0
 12 30  1  0  0  0  0
 12 31  1  0  0  0  0
 13 14  1  0  0  0  0
 13 32  1  0  0  0  0
 13 33  1  0  0  0  0
 14 15  1  0  0  0  0
 14 34  1  0  0  0  0
 14 35  1  0  0  0  0
 15 16  1  0  0  0  0
 15 36  1  0  0  0  0
 15 37  1  0  0  0  0
 16 17  1  0  0  0  0
 16 38  1  0  0  0  0
 17 39  1  0  0  0  0
 17 40  1  0  0  0  0
 17 41  1  0  0  0  0
 18 19  1  0  0  0  0
M  CHG  1  11   1
M  END
> <s_m_source_file>
AV-unprocessed.smi

> <i_m_source_file_index>
2079

> <i_lp_mmshare_version>
43012

> <i_f3d_flags>
0

> <s_epik_input>
W0NIM11jMVtjSF1jKG5vMSlbTkhdQyg9TylbTkhdW0NIMl1bQ0gyXU4yW0NIMl1bQ0gyXVtDSDJdW0NIMl1bQ0BIXTJbQ0gzXQ==

> <s_epik_cmdline>
J2VwaWtfcHl0aG9uJywgJy1waCcsICc3LjAnLCAnLXRuJywgJzgnLCAnLW1hJywgJzIwMCcsICctbWV0YWxfYmluZGluZycsICctaW1hZScsICc8aW5maWxlLm1hZT4nLCAnLW9tYWUnLCAnPG91dGZpbGUubWFlPic=

> <r_epik_Ionization_Penalty>
0.00265971

> <r_epik_Ionization_Penalty_Charging>
0.00262393

> <r_epik_Ionization_Penalty_Neutral>
3.57846e-05

> <r_epik_State_Penalty>
0.00182566

> <r_epik_Charging_Adjusted_Penalty>
0.00444959

> <i_epik_Tot_Q>
1

> <i_epik_Tot_abs_Q>
1

> <r_epik_Metal_State_Penalty>
0.0216344

> <b_epik_Metal_Only>
0

> <s_lp_Force_Field>
OPLS_2005

> <r_lp_Energy>
17.1718

> <b_lp_Chiralities_Consistent>
1

> <s_lp_Variant>
AV-unprocessed.smi:2079-4

> <Gold.Version>
5.8.1

> <Gold.Id.Protein>
6NUR|6NUR_protein|mol2

> <Gold.PLP.Fitness>
38.9465

> <Gold.PLP.PLP>
-28.0041

> <Gold.PLP.part.hbond>
-3.0000

> <Gold.PLP.part.metal>
0.0000

> <Gold.PLP.part.buried>
0.7607

> <Gold.PLP.part.nonpolar>
-25.9345

> <Gold.PLP.part.repulsive>
0.1340

> <Gold.PLP.ligand.clash>
0.0000

> <Gold.PLP.ligand.torsion>
0.2535

> <Gold.PLP.Chemscore.Hbond>
3.8080

> <Gold.PLP.Chemscore.CHOScore>
0.0000

> <Gold.PLP.Chemscore.Metal>
0.0000

> <Gold.Chemscore.Hbonds>
donor molecule, donor type, donor heavy atom, donor atom, acceptor molecule, acceptor atom, score
      L1  H    11    42       P1  7948  2.00
      P1  H  6931  6943       L1    18  0.86
      P1  H  6934  6947       L1    18  0.98

> <Gold.PLP.Chemscore.Internal.Correction>
0.0254

> <Gold.Rescore>
     Score         DG    S(hbond)    S(metal)    S(lipo)     H(rot)  DE(clash)    DE(int)     intcor
     14.91     -16.51       2.39        0.00      60.46       1.57       0.00       1.60       ----

> <Gold.Chemscore.Fitness>
14.9051

> <Gold.Chemscore.DG>
-16.5053

> <Gold.Chemscore.ZeroCoef>
-5.4800

> <Gold.Chemscore.Hbond>
2.3863

> <Gold.Chemscore.Metal>
0.0000

> <Gold.Chemscore.Lipo>
60.4576

> <Gold.Chemscore.Internal_Hbond>
0.0000

> <Gold.Chemscore.DEClash>
0.0044

> <Gold.Chemscore.DEInternal>
1.5958

> <Gold.Chemscore.Rot>
1.5697

> <Gold.Chemscore.Internal.Correction>
   9.000000E+99

> <Gold.Chemscore.Hbonds>
donor molecule, donor type, donor heavy atom, donor atom, acceptor molecule, acceptor atom, score
      L1  H    11    42       P1  7948  0.99
      P1  H  6931  6943       L1    18  0.20
      P1  H  6934  6947       L1    18  0.77

> <Gold.Chemscore.Hbond.Weighted>
-7.9703

> <Gold.Chemscore.Metal.Weighted>
-0.0000

> <Gold.Chemscore.Lipo.Weighted>
-7.0735

> <Gold.Chemscore.Internal_Hbond.Weighted>
0.0000

> <Gold.Chemscore.DEClash.Weighted>
0.0044

> <Gold.Chemscore.DEInternal.Weighted>
1.5958

> <Gold.Chemscore.Rot.Weighted>
4.0185

> <Gold.Chemscore.Internal.Correction.Weighted>
   9.000000E+99

> <Gold.Protein.RotatedTorsions>
[ 6907 6896 6895 6894 ] final   99.42 input  -60.11 | X-H torsion
[ 7974 7965 7964 7962 ] final -171.02 input  175.53 | X-H torsion
[ 8008 7997 7996 7995 ] final  120.73 input   59.86 | X-H torsion
[ 10167 10162 10161 10158 ] final   87.27 input  -65.29 | X-H torsion
[ 10718 10713 10712 10709 ] final  135.04 input   66.30 | X-H torsion
[ 10763 10752 10751 10750 ] final -168.82 input  -60.55 | X-H torsion
[ 11005 11000 10999 10996 ] final -156.17 input  -57.11 | X-H torsion

> <Gold.Protein.ActiveResidues>
 VAL166  LYS551  ARG553  GLY616  TRP617  ASP618  TYR619  PRO620  LYS621  CYS622 
 ASP623  PHE694  ASN695  SER759  ASP760  ASP761  ALA762  ILE779  LEU786  VAL792 
 PHE793  MET794  SER795  GLU796  ALA797  LYS798  CYS799  TRP800  GLU811  SER814 

> <Gold.Protein.RotatedAtoms>
  152.5392  134.0431  159.8075 H   0  0  0  0  0  0  0  0  0  0  0  0  # atno 6907 bound_to 6896
  151.0584  133.5557  159.2643 H   0  0  0  0  0  0  0  0  0  0  0  0  # atno 6908 bound_to 6896
  151.2466  135.0615  159.9099 H   0  0  0  0  0  0  0  0  0  0  0  0  # atno 6909 bound_to 6896
  144.7162  140.1984  143.6341 H   0  0  0  0  0  0  0  0  0  0  0  0  # atno 7974 bound_to 7965
  156.2655  140.2824  156.1196 H   0  0  0  0  0  0  0  0  0  0  0  0  # atno 8008 bound_to 7997
  155.1170  140.0391  157.2757 H   0  0  0  0  0  0  0  0  0  0  0  0  # atno 8009 bound_to 7997
  154.6699  140.2585  155.7024 H   0  0  0  0  0  0  0  0  0  0  0  0  # atno 8010 bound_to 7997
  139.8790  144.6450  150.8864 H   0  0  0  0  0  0  0  0  0  0  0  0  # atno 10167 bound_to 10162
  157.4611  131.1073  150.9918 H   0  0  0  0  0  0  0  0  0  0  0  0  # atno 10718 bound_to 10713
  154.6589  135.2922  154.9892 H   0  0  0  0  0  0  0  0  0  0  0  0  # atno 10763 bound_to 10752
  154.0959  135.6584  153.4864 H   0  0  0  0  0  0  0  0  0  0  0  0  # atno 10764 bound_to 10752
  153.0418  135.5231  154.7530 H   0  0  0  0  0  0  0  0  0  0  0  0  # atno 10765 bound_to 10752
  140.6785  134.4171  157.5228 H   0  0  0  0  0  0  0  0  0  0  0  0  # atno 11005 bound_to 11000
  145.8703  139.2268  143.1665 LP  0  0  0  0  0  0  0  0  0  0  0  0  # atno 17320 bound_to 7965
  146.0091  140.8451  142.9980 LP  0  0  0  0  0  0  0  0  0  0  0  0  # atno 17321 bound_to 7965
  140.7748  143.3601  151.1845 LP  0  0  0  0  0  0  0  0  0  0  0  0  # atno 17342 bound_to 10162
  139.7213  143.9219  152.2986 LP  0  0  0  0  0  0  0  0  0  0  0  0  # atno 17343 bound_to 10162
  157.0715  130.5866  149.5403 LP  0  0  0  0  0  0  0  0  0  0  0  0  # atno 17370 bound_to 10713
  156.0029  130.5111  150.7728 LP  0  0  0  0  0  0  0  0  0  0  0  0  # atno 17371 bound_to 10713
  139.8959  134.8672  156.2110 LP  0  0  0  0  0  0  0  0  0  0  0  0  # atno 17394 bound_to 11000
  141.0337  133.6975  156.1474 LP  0  0  0  0  0  0  0  0  0  0  0  0  # atno 17395 bound_to 11000

$$$$
