AV-unprocessed.smi:1417|AV-procd|sdf|5768|dock7
  -GOLD-   22720 5413D 1   1.00000     0.00000
 Structure written by MMmdl.
 38 39  0  0  0  0  0  0  0  0  2 V2000
  152.3789  146.1056  159.3453 C   0  0  0  0  0  0  0  0  0  0  0  0
  152.0091  144.6634  159.4157 C   0  0  0  0  0  0  0  0  0  0  0  0
  152.4301  143.5636  158.7235 C   0  0  0  0  0  0  0  0  0  0  0  0
  151.6623  142.5093  159.2894 C   0  0  0  0  0  0  0  0  0  0  0  0
  151.7263  141.2141  158.9438 N   0  5  0  0  0  0  0  0  0  0  0  0
  151.9502  140.8633  157.6561 C   0  0  0  0  0  0  0  0  0  0  0  0
  152.7765  140.0394  157.2565 O   0  0  0  0  0  0  0  0  0  0  0  0
  151.1670  141.5059  156.7772 N   0  0  0  0  0  0  0  0  0  0  0  0
  151.1789  141.3293  155.3273 C   0  0  0  0  0  0  0  0  0  0  0  0
  152.5659  141.6446  154.7453 C   0  0  0  0  0  0  0  0  0  0  0  0
  152.5517  141.5860  153.2071 C   0  0  0  0  0  0  0  0  0  0  0  0
  151.5532  142.5167  152.6583 N   0  0  0  0  0  0  0  0  0  0  0  0
  151.5454  142.5272  151.1773 C   0  0  0  0  0  0  0  0  0  0  0  0
  151.2934  141.1614  150.5289 C   0  0  0  0  0  0  0  0  0  0  0  0
  152.3184  140.3060  150.4974 N   0  0  0  0  0  0  0  0  0  0  0  0
  150.1917  140.8871  150.0582 O   0  0  0  0  0  0  0  0  0  0  0  0
  150.2134  142.1664  153.1423 C   0  0  0  0  0  0  0  0  0  0  0  0
  150.1466  142.2590  154.6764 C   0  0  0  0  0  0  0  0  0  0  0  0
  150.8600  142.9297  160.2532 N   0  0  0  0  0  0  0  0  0  0  0  0
  151.0713  144.3113  160.3358 O   0  0  0  0  0  0  0  0  0  0  0  0
  153.4359  146.2437  159.5728 H   0  0  0  0  0  0  0  0  0  0  0  0
  151.8004  146.6958  160.0565 H   0  0  0  0  0  0  0  0  0  0  0  0
  152.1926  146.5023  158.3473 H   0  0  0  0  0  0  0  0  0  0  0  0
  153.1655  143.5193  157.9345 H   0  0  0  0  0  0  0  0  0  0  0  0
  150.5076  142.1736  157.1495 H   0  0  0  0  0  0  0  0  0  0  0  0
  150.9127  140.2988  155.0838 H   0  0  0  0  0  0  0  0  0  0  0  0
  152.8883  142.6360  155.0677 H   0  0  0  0  0  0  0  0  0  0  0  0
  153.3037  140.9403  155.1315 H   0  0  0  0  0  0  0  0  0  0  0  0
  153.5519  141.8336  152.8519 H   0  0  0  0  0  0  0  0  0  0  0  0
  152.3415  140.5690  152.8714 H   0  0  0  0  0  0  0  0  0  0  0  0
  150.7954  143.2346  150.8180 H   0  0  0  0  0  0  0  0  0  0  0  0
  152.5082  142.8863  150.8106 H   0  0  0  0  0  0  0  0  0  0  0  0
  152.2003  139.3979  150.0721 H   0  0  0  0  0  0  0  0  0  0  0  0
  153.2087  140.5740  150.8909 H   0  0  0  0  0  0  0  0  0  0  0  0
  149.4766  142.8494  152.7177 H   0  0  0  0  0  0  0  0  0  0  0  0
  149.9408  141.1619  152.8136 H   0  0  0  0  0  0  0  0  0  0  0  0
  149.1437  141.9996  155.0175 H   0  0  0  0  0  0  0  0  0  0  0  0
  150.3222  143.2904  154.9869 H   0  0  0  0  0  0  0  0  0  0  0  0
  1  2  1  0  0  0  0
  1 21  1  0  0  0  0
  1 22  1  0  0  0  0
  1 23  1  0  0  0  0
  2 20  1  0  0  0  0
  2  3  2  0  0  0  0
  3  4  1  0  0  0  0
  3 24  1  0  0  0  0
  4  5  1  0  0  0  0
  4 19  2  0  0  0  0
  5  6  1  0  0  0  0
  6  7  2  0  0  0  0
  6  8  1  0  0  0  0
  8  9  1  0  0  0  0
  8 25  1  0  0  0  0
  9 18  1  0  0  0  0
  9 10  1  0  0  0  0
  9 26  1  0  0  0  0
 10 11  1  0  0  0  0
 10 27  1  0  0  0  0
 10 28  1  0  0  0  0
 11 12  1  0  0  0  0
 11 29  1  0  0  0  0
 11 30  1  0  0  0  0
 12 13  1  0  0  0  0
 12 17  1  0  0  0  0
 13 14  1  0  0  0  0
 13 31  1  0  0  0  0
 13 32  1  0  0  0  0
 14 15  1  0  0  0  0
 14 16  2  0  0  0  0
 15 33  1  0  0  0  0
 15 34  1  0  0  0  0
 17 18  1  0  0  0  0
 17 35  1  0  0  0  0
 17 36  1  0  0  0  0
 18 37  1  0  0  0  0
 18 38  1  0  0  0  0
 19 20  1  0  0  0  0
M  CHG  1   5  -1
M  END
> <s_m_source_file>
AV-unprocessed.smi

> <i_m_source_file_index>
1417

> <i_lp_mmshare_version>
43012

> <i_f3d_flags>
0

> <s_epik_input>
W0NIM11jMVtjSF1jKG5vMSlbTkhdQyg9TylbTkhdW0NIXTJbQ0gyXVtDSDJdTihbQ0gyXVtDSDJdMilbQ0gyXUMoPU8pW05IMl0=

> <s_epik_cmdline>
J2VwaWtfcHl0aG9uJywgJy1waCcsICc3LjAnLCAnLXRuJywgJzgnLCAnLW1hJywgJzIwMCcsICctbWV0YWxfYmluZGluZycsICctaW1hZScsICc8aW5maWxlLm1hZT4nLCAnLW9tYWUnLCAnPG91dGZpbGUubWFlPic=

> <r_epik_Ionization_Penalty>
6.76533

> <r_epik_Ionization_Penalty_Charging>
6.59228

> <r_epik_Ionization_Penalty_Neutral>
0.17305

> <r_epik_State_Penalty>
6.73737

> <r_epik_Charging_Adjusted_Penalty>
13.3296

> <i_epik_Tot_Q>
-1

> <i_epik_Tot_abs_Q>
1

> <r_epik_Metal_State_Penalty>
2.67929

> <b_epik_Metal_Only>
1

> <s_lp_Force_Field>
OPLS_2005

> <r_lp_Energy>
4.40981

> <b_lp_Chiralities_Consistent>
1

> <s_lp_Variant>
AV-unprocessed.smi:1417-4

> <Gold.Version>
5.8.1

> <Gold.Id.Protein>
6NUR|6NUR_protein|mol2

> <Gold.PLP.Fitness>
41.8276

> <Gold.PLP.PLP>
-35.2016

> <Gold.PLP.part.hbond>
-2.5985

> <Gold.PLP.part.metal>
0.0000

> <Gold.PLP.part.buried>
-5.9009

> <Gold.PLP.part.nonpolar>
-27.6028

> <Gold.PLP.part.repulsive>
0.6600

> <Gold.PLP.ligand.clash>
0.0000

> <Gold.PLP.ligand.torsion>
0.9047

> <Gold.PLP.Chemscore.Hbond>
2.8003

> <Gold.PLP.Chemscore.CHOScore>
0.0000

> <Gold.PLP.Chemscore.Metal>
0.0000

> <Gold.Chemscore.Hbonds>
donor molecule, donor type, donor heavy atom, donor atom, acceptor molecule, acceptor atom, score
      P1  H  7997  8008       L1     7  0.98

> <Gold.PLP.Chemscore.Internal.Correction>
0.0345

> <Gold.Rescore>
     Score         DG    S(hbond)    S(metal)    S(lipo)     H(rot)  DE(clash)    DE(int)     intcor
     13.45     -16.99       2.75        0.00      63.59       2.00       0.00       3.54       ----

> <Gold.Chemscore.Fitness>
13.4516

> <Gold.Chemscore.DG>
-16.9872

> <Gold.Chemscore.ZeroCoef>
-5.4800

> <Gold.Chemscore.Hbond>
2.7485

> <Gold.Chemscore.Metal>
0.0000

> <Gold.Chemscore.Lipo>
63.5936

> <Gold.Chemscore.Internal_Hbond>
0.0000

> <Gold.Chemscore.DEClash>
0.0000

> <Gold.Chemscore.DEInternal>
3.5356

> <Gold.Chemscore.Rot>
1.9973

> <Gold.Chemscore.Internal.Correction>
   9.000000E+99

> <Gold.Chemscore.Hbonds>
donor molecule, donor type, donor heavy atom, donor atom, acceptor molecule, acceptor atom, score
      P1  H  7997  8008       L1     7  0.93

> <Gold.Chemscore.Hbond.Weighted>
-9.1798

> <Gold.Chemscore.Metal.Weighted>
-0.0000

> <Gold.Chemscore.Lipo.Weighted>
-7.4404

> <Gold.Chemscore.Internal_Hbond.Weighted>
0.0000

> <Gold.Chemscore.DEClash.Weighted>
0.0000

> <Gold.Chemscore.DEInternal.Weighted>
3.5356

> <Gold.Chemscore.Rot.Weighted>
5.1131

> <Gold.Chemscore.Internal.Correction.Weighted>
   9.000000E+99

> <Gold.Protein.RotatedTorsions>
[ 6907 6896 6895 6894 ] final  -28.38 input  -60.11 | X-H torsion
[ 7974 7965 7964 7962 ] final -120.58 input  175.53 | X-H torsion
[ 8008 7997 7996 7995 ] final  -49.04 input   59.86 | X-H torsion
[ 10167 10162 10161 10158 ] final  163.23 input  -65.29 | X-H torsion
[ 10718 10713 10712 10709 ] final   62.54 input   66.30 | X-H torsion
[ 10763 10752 10751 10750 ] final -157.44 input  -60.55 | X-H torsion
[ 11005 11000 10999 10996 ] final -134.65 input  -57.11 | X-H torsion

> <Gold.Protein.ActiveResidues>
 VAL166  LYS551  ARG553  GLY616  TRP617  ASP618  TYR619  PRO620  LYS621  CYS622 
 ASP623  PHE694  ASN695  SER759  ASP760  ASP761  ALA762  ILE779  LEU786  VAL792 
 PHE793  MET794  SER795  GLU796  ALA797  LYS798  CYS799  TRP800  GLU811  SER814 

> <Gold.Protein.RotatedAtoms>
  151.1338  135.0144  159.8594 H   0  0  0  0  0  0  0  0  0  0  0  0  # atno 6907 bound_to 6896
  152.5451  134.1579  159.8555 H   0  0  0  0  0  0  0  0  0  0  0  0  # atno 6908 bound_to 6896
  151.1648  133.4776  159.2627 H   0  0  0  0  0  0  0  0  0  0  0  0  # atno 6909 bound_to 6896
  145.0498  140.8210  143.4216 H   0  0  0  0  0  0  0  0  0  0  0  0  # atno 7974 bound_to 7965
  154.4038  140.1306  156.4438 H   0  0  0  0  0  0  0  0  0  0  0  0  # atno 8008 bound_to 7997
  155.7433  140.3489  155.5095 H   0  0  0  0  0  0  0  0  0  0  0  0  # atno 8009 bound_to 7997
  155.9019  140.1021  157.1334 H   0  0  0  0  0  0  0  0  0  0  0  0  # atno 8010 bound_to 7997
  139.4871  144.4358  151.9014 H   0  0  0  0  0  0  0  0  0  0  0  0  # atno 10167 bound_to 10162
  157.5908  130.9056  149.9601 H   0  0  0  0  0  0  0  0  0  0  0  0  # atno 10718 bound_to 10713
  154.7636  135.3124  154.8331 H   0  0  0  0  0  0  0  0  0  0  0  0  # atno 10763 bound_to 10752
  153.9085  135.6808  153.4756 H   0  0  0  0  0  0  0  0  0  0  0  0  # atno 10764 bound_to 10752
  153.1239  135.4810  154.9172 H   0  0  0  0  0  0  0  0  0  0  0  0  # atno 10765 bound_to 10752
  140.8971  134.1738  157.4487 H   0  0  0  0  0  0  0  0  0  0  0  0  # atno 11005 bound_to 11000
  145.1542  139.2496  143.5425 LP  0  0  0  0  0  0  0  0  0  0  0  0  # atno 17320 bound_to 7965
  146.3517  140.1252  142.8599 LP  0  0  0  0  0  0  0  0  0  0  0  0  # atno 17321 bound_to 7965
  140.3807  144.2739  150.5909 LP  0  0  0  0  0  0  0  0  0  0  0  0  # atno 17342 bound_to 10162
  140.5235  143.2260  151.8351 LP  0  0  0  0  0  0  0  0  0  0  0  0  # atno 17343 bound_to 10162
  156.0962  130.3659  150.0302 LP  0  0  0  0  0  0  0  0  0  0  0  0  # atno 17370 bound_to 10713
  156.8425  130.9430  151.3631 LP  0  0  0  0  0  0  0  0  0  0  0  0  # atno 17371 bound_to 10713
  139.8737  134.9882  156.5404 LP  0  0  0  0  0  0  0  0  0  0  0  0  # atno 17394 bound_to 11000
  140.8276  133.8304  155.8954 LP  0  0  0  0  0  0  0  0  0  0  0  0  # atno 17395 bound_to 11000

$$$$
