AV-unprocessed.smi:2761|AV-procd|sdf|10634|dock3
  -GOLD-   2272015 83D 1   1.00000     0.00000
 Structure written by MMmdl.
 26 27  0  0  0  0  0  0  0  0  2 V2000
  149.3992  141.7061  157.4860 O   0  0  0  0  0  0  0  0  0  0  0  0
  150.5091  142.1034  157.8469 C   0  0  0  0  0  0  0  0  0  0  0  0
  151.6786  141.4812  157.5822 N   0  0  0  0  0  0  0  0  0  0  0  0
  151.8894  140.3027  156.8593 C   0  0  0  0  0  0  0  0  0  0  0  0
  150.9046  140.1095  155.8259 C   0  0  0  0  0  0  0  0  0  0  0  0
  151.0110  138.9998  155.0619 C   0  0  0  0  0  0  0  0  0  0  0  0
  152.0877  138.0294  155.2758 C   0  0  0  0  0  0  0  0  0  0  0  0
  152.1458  137.0341  154.5571 O   0  0  0  0  0  0  0  0  0  0  0  0
  152.9897  138.2791  156.2778 N   0  5  0  0  0  0  0  0  0  0  0  0
  152.8617  139.4735  157.0888 N   0  0  0  0  0  0  0  0  0  0  0  0
  150.6158  143.3879  158.6845 C   0  0  2  0  0  0  0  0  0  0  0  0
  151.4541  144.4867  157.9907 C   0  0  0  0  0  0  0  0  0  0  0  0
  151.5381  145.6242  158.8400 O   0  0  0  0  0  0  0  0  0  0  0  0
  152.1463  145.3005  160.0820 C   0  0  0  0  0  0  0  0  0  0  0  0
  151.3046  144.2216  160.7812 C   0  0  0  0  0  0  0  0  0  0  0  0
  151.2244  143.0807  159.9380 O   0  0  0  0  0  0  0  0  0  0  0  0
  152.4992  141.9372  157.9524 H   0  0  0  0  0  0  0  0  0  0  0  0
  150.0976  140.8026  155.6390 H   0  0  0  0  0  0  0  0  0  0  0  0
  150.2891  138.8239  154.2782 H   0  0  0  0  0  0  0  0  0  0  0  0
  149.6016  143.7524  158.8573 H   0  0  0  0  0  0  0  0  0  0  0  0
  152.4559  144.1267  157.7499 H   0  0  0  0  0  0  0  0  0  0  0  0
  150.9893  144.7948  157.0536 H   0  0  0  0  0  0  0  0  0  0  0  0
  153.1694  144.9559  159.9242 H   0  0  0  0  0  0  0  0  0  0  0  0
  152.2001  146.1985  160.6979 H   0  0  0  0  0  0  0  0  0  0  0  0
  151.7651  143.9344  161.7263 H   0  0  0  0  0  0  0  0  0  0  0  0
  150.3050  144.5944  161.0092 H   0  0  0  0  0  0  0  0  0  0  0  0
  1  2  2  0  0  0  0
  2  3  1  0  0  0  0
  2 11  1  0  0  0  0
  3 17  1  0  0  0  0
  3  4  1  0  0  0  0
  4  5  1  0  0  0  0
  4 10  2  0  0  0  0
  5  6  2  0  0  0  0
  5 18  1  0  0  0  0
  6  7  1  0  0  0  0
  6 19  1  0  0  0  0
  7  8  2  0  0  0  0
  7  9  1  0  0  0  0
  9 10  1  0  0  0  0
 11 16  1  0  0  0  0
 11 12  1  0  0  0  0
 11 20  1  0  0  0  0
 12 13  1  0  0  0  0
 12 21  1  0  0  0  0
 12 22  1  0  0  0  0
 13 14  1  0  0  0  0
 14 15  1  0  0  0  0
 14 23  1  0  0  0  0
 14 24  1  0  0  0  0
 15 16  1  0  0  0  0
 15 25  1  0  0  0  0
 15 26  1  0  0  0  0
M  CHG  1   9  -1
M  END
> <s_m_source_file>
AV-unprocessed.smi

> <i_m_source_file_index>
2761

> <i_lp_mmshare_version>
43012

> <i_f3d_flags>
0

> <s_epik_input>
TzFbQ0gyXVtDSDJdT1tDSDJdW0NASF0xQyg9TylbTkhdYzJbY0hdW2NIXWMoW09IXSlubjI=

> <s_epik_cmdline>
J2VwaWtfcHl0aG9uJywgJy1waCcsICc3LjAnLCAnLXRuJywgJzgnLCAnLW1hJywgJzIwMCcsICctbWV0YWxfYmluZGluZycsICctaW1hZScsICc8aW5maWxlLm1hZT4nLCAnLW9tYWUnLCAnPG91dGZpbGUubWFlPic=

> <r_lp_tautomer_probability>
1

> <r_epik_Ionization_Penalty>
4.21844

> <r_epik_Ionization_Penalty_Charging>
0.119247

> <r_epik_Ionization_Penalty_Neutral>
4.0992

> <r_epik_State_Penalty>
4.09486

> <r_epik_Charging_Adjusted_Penalty>
4.2141

> <i_epik_Tot_Q>
-1

> <i_epik_Tot_abs_Q>
1

> <r_epik_Metal_State_Penalty>
0.651223

> <b_epik_Metal_Only>
1

> <s_lp_Force_Field>
OPLS_2005

> <r_lp_Energy>
28.3559

> <b_lp_Chiralities_Consistent>
1

> <s_lp_Variant>
AV-unprocessed.smi:2761-3

> <Gold.Version>
5.8.1

> <Gold.Id.Protein>
6NUR|6NUR_protein|mol2

> <Gold.PLP.Fitness>
35.9266

> <Gold.PLP.PLP>
-30.6947

> <Gold.PLP.part.hbond>
-4.2629

> <Gold.PLP.part.metal>
0.0000

> <Gold.PLP.part.buried>
-3.5762

> <Gold.PLP.part.nonpolar>
-22.5976

> <Gold.PLP.part.repulsive>
0.4895

> <Gold.PLP.ligand.clash>
0.0000

> <Gold.PLP.ligand.torsion>
0.1928

> <Gold.PLP.Chemscore.Hbond>
1.8720

> <Gold.PLP.Chemscore.CHOScore>
0.0000

> <Gold.PLP.Chemscore.Metal>
0.0000

> <Gold.Chemscore.Hbonds>
donor molecule, donor type, donor heavy atom, donor atom, acceptor molecule, acceptor atom, score
      P1  H  7997  8009       L1    10  0.85
      P1  H 10752 10764       L1     8  0.77

> <Gold.PLP.Chemscore.Internal.Correction>
0.0016

> <Gold.Rescore>
     Score         DG    S(hbond)    S(metal)    S(lipo)     H(rot)  DE(clash)    DE(int)     intcor
     12.52     -14.88       1.54        0.00      58.17       1.00       0.72       1.65       ----

> <Gold.Chemscore.Fitness>
12.5151

> <Gold.Chemscore.DG>
-14.8838

> <Gold.Chemscore.ZeroCoef>
-5.4800

> <Gold.Chemscore.Hbond>
1.5444

> <Gold.Chemscore.Metal>
0.0000

> <Gold.Chemscore.Lipo>
58.1681

> <Gold.Chemscore.Internal_Hbond>
0.0000

> <Gold.Chemscore.DEClash>
0.7187

> <Gold.Chemscore.DEInternal>
1.6500

> <Gold.Chemscore.Rot>
1.0000

> <Gold.Chemscore.Internal.Correction>
   9.000000E+99

> <Gold.Chemscore.Hbonds>
donor molecule, donor type, donor heavy atom, donor atom, acceptor molecule, acceptor atom, score
      P1  H  7997  8009       L1    10  0.14
      P1  H 10752 10764       L1     8  0.76

> <Gold.Chemscore.Hbond.Weighted>
-5.1581

> <Gold.Chemscore.Metal.Weighted>
-0.0000

> <Gold.Chemscore.Lipo.Weighted>
-6.8057

> <Gold.Chemscore.Internal_Hbond.Weighted>
0.0000

> <Gold.Chemscore.DEClash.Weighted>
0.7187

> <Gold.Chemscore.DEInternal.Weighted>
1.6500

> <Gold.Chemscore.Rot.Weighted>
2.5600

> <Gold.Chemscore.Internal.Correction.Weighted>
   9.000000E+99

> <Gold.Protein.RotatedTorsions>
[ 6907 6896 6895 6894 ] final  -22.51 input  -60.11 | X-H torsion
[ 7974 7965 7964 7962 ] final   46.04 input  175.53 | X-H torsion
[ 8008 7997 7996 7995 ] final  162.11 input   59.86 | X-H torsion
[ 10167 10162 10161 10158 ] final  -76.52 input  -65.29 | X-H torsion
[ 10718 10713 10712 10709 ] final  107.96 input   66.30 | X-H torsion
[ 10763 10752 10751 10750 ] final  -91.21 input  -60.55 | X-H torsion
[ 11005 11000 10999 10996 ] final  133.90 input  -57.11 | X-H torsion

> <Gold.Protein.ActiveResidues>
 VAL166  LYS551  ARG553  GLY616  TRP617  ASP618  TYR619  PRO620  LYS621  CYS622 
 ASP623  PHE694  ASN695  SER759  ASP760  ASP761  ALA762  ILE779  LEU786  VAL792 
 PHE793  MET794  SER795  GLU796  ALA797  LYS798  CYS799  TRP800  GLU811  SER814 

> <Gold.Protein.RotatedAtoms>
  151.2175  135.0505  159.8935 H   0  0  0  0  0  0  0  0  0  0  0  0  # atno 6907 bound_to 6896
  152.5419  134.0677  159.8190 H   0  0  0  0  0  0  0  0  0  0  0  0  # atno 6908 bound_to 6896
  151.0839  133.5321  159.2650 H   0  0  0  0  0  0  0  0  0  0  0  0  # atno 6909 bound_to 6896
  146.0425  139.4898  142.9769 H   0  0  0  0  0  0  0  0  0  0  0  0  # atno 7974 bound_to 7965
  156.2055  140.1759  156.7810 H   0  0  0  0  0  0  0  0  0  0  0  0  # atno 8008 bound_to 7997
  154.5649  140.0693  156.8906 H   0  0  0  0  0  0  0  0  0  0  0  0  # atno 8009 bound_to 7997
  155.2780  140.3347  155.4263 H   0  0  0  0  0  0  0  0  0  0  0  0  # atno 8010 bound_to 7997
  140.4850  143.2393  151.7998 H   0  0  0  0  0  0  0  0  0  0  0  0  # atno 10167 bound_to 10162
  157.6606  131.0884  150.6234 H   0  0  0  0  0  0  0  0  0  0  0  0  # atno 10718 bound_to 10713
  154.6737  135.5276  153.8172 H   0  0  0  0  0  0  0  0  0  0  0  0  # atno 10763 bound_to 10752
  153.0518  135.6535  154.0684 H   0  0  0  0  0  0  0  0  0  0  0  0  # atno 10764 bound_to 10752
  154.0580  135.2964  155.3309 H   0  0  0  0  0  0  0  0  0  0  0  0  # atno 10765 bound_to 10752
  139.9880  134.9525  156.9790 H   0  0  0  0  0  0  0  0  0  0  0  0  # atno 11005 bound_to 11000
  145.6860  141.0178  143.1581 LP  0  0  0  0  0  0  0  0  0  0  0  0  # atno 17320 bound_to 7965
  144.7082  139.8477  143.7423 LP  0  0  0  0  0  0  0  0  0  0  0  0  # atno 17321 bound_to 7965
  139.4840  144.4724  151.9409 LP  0  0  0  0  0  0  0  0  0  0  0  0  # atno 17342 bound_to 10162
  140.3810  144.2736  150.5909 LP  0  0  0  0  0  0  0  0  0  0  0  0  # atno 17343 bound_to 10162
  156.6537  130.4492  149.5710 LP  0  0  0  0  0  0  0  0  0  0  0  0  # atno 17370 bound_to 10713
  156.2118  130.6683  151.1277 LP  0  0  0  0  0  0  0  0  0  0  0  0  # atno 17371 bound_to 10713
  140.4963  134.1142  155.7242 LP  0  0  0  0  0  0  0  0  0  0  0  0  # atno 17394 bound_to 11000
  141.1542  133.8914  157.2021 LP  0  0  0  0  0  0  0  0  0  0  0  0  # atno 17395 bound_to 11000

$$$$
