AV-unprocessed.smi:2387|AV-procd|sdf|9470|dock9
  -GOLD-   2272013103D 1   1.00000     0.00000
 Structure written by MMmdl.
 48 50  0  0  0  0  0  0  0  0  2 V2000
  144.2791  132.1921  150.2881 C   0  0  0  0  0  0  0  0  0  0  0  0
  144.6852  133.5625  150.7881 C   0  0  0  0  0  0  0  0  0  0  0  0
  145.7920  133.7581  151.6403 C   0  0  0  0  0  0  0  0  0  0  0  0
  146.1121  135.0630  152.0692 C   0  0  0  0  0  0  0  0  0  0  0  0
  145.3108  136.1535  151.6446 C   0  0  0  0  0  0  0  0  0  0  0  0
  145.5548  137.5060  152.0077 N   0  0  0  0  0  0  0  0  0  0  0  0
  146.3642  137.9758  152.9727 C   0  0  0  0  0  0  0  0  0  0  0  0
  147.0379  137.2797  153.7316 O   0  0  0  0  0  0  0  0  0  0  0  0
  146.3387  139.3197  153.0178 N   0  0  0  0  0  0  0  0  0  0  0  0
  147.0600  140.2012  153.9543 C   0  0  0  0  0  0  0  0  0  0  0  0
  148.6031  140.0358  153.8706 C   0  0  0  0  0  0  0  0  0  0  0  0
  149.3190  141.0238  153.7020 O   0  0  0  0  0  0  0  0  0  0  0  0
  149.1098  138.7945  153.9674 N   0  0  0  0  0  0  0  0  0  0  0  0
  150.5248  138.4553  153.9043 C   0  0  0  0  0  0  0  0  0  0  0  0
  151.3874  139.1050  154.9695 C   0  0  0  0  0  0  0  0  0  0  0  0
  152.8940  139.0132  154.9161 C   0  0  0  0  0  0  0  0  0  0  0  0
  152.1289  138.2563  155.9752 C   0  0  0  0  0  0  0  0  0  0  0  0
  146.6859  141.6761  153.6313 C   0  0  0  0  0  0  0  0  0  0  0  0
  145.9279  142.2366  154.8387 C   0  0  0  0  0  0  0  0  0  0  0  0
  146.3919  141.3899  156.0147 C   0  0  0  0  0  0  0  0  0  0  0  0
  146.5472  139.9966  155.4093 C   0  0  0  0  0  0  0  0  0  0  0  0
  144.2273  135.8922  150.7784 C   0  0  0  0  0  0  0  0  0  0  0  0
  143.9543  134.6270  150.3912 N   0  3  0  0  0  0  0  0  0  0  0  0
  144.9515  131.4209  150.6653 H   0  0  0  0  0  0  0  0  0  0  0  0
  144.3038  132.1617  149.1985 H   0  0  0  0  0  0  0  0  0  0  0  0
  143.2678  131.9522  150.6175 H   0  0  0  0  0  0  0  0  0  0  0  0
  146.3944  132.9207  151.9615 H   0  0  0  0  0  0  0  0  0  0  0  0
  146.9730  135.2010  152.7050 H   0  0  0  0  0  0  0  0  0  0  0  0
  145.0007  138.1946  151.5199 H   0  0  0  0  0  0  0  0  0  0  0  0
  145.7497  139.7903  152.3466 H   0  0  0  0  0  0  0  0  0  0  0  0
  148.4633  138.0303  154.0962 H   0  0  0  0  0  0  0  0  0  0  0  0
  150.6434  137.3728  153.9709 H   0  0  0  0  0  0  0  0  0  0  0  0
  150.8957  138.7413  152.9197 H   0  0  0  0  0  0  0  0  0  0  0  0
  150.9777  140.0349  155.3590 H   0  0  0  0  0  0  0  0  0  0  0  0
  153.3393  138.4359  154.1084 H   0  0  0  0  0  0  0  0  0  0  0  0
  153.4610  139.8864  155.2322 H   0  0  0  0  0  0  0  0  0  0  0  0
  152.1867  138.6245  156.9974 H   0  0  0  0  0  0  0  0  0  0  0  0
  152.0666  137.1749  155.8718 H   0  0  0  0  0  0  0  0  0  0  0  0
  147.5733  142.2894  153.4622 H   0  0  0  0  0  0  0  0  0  0  0  0
  146.0832  141.7702  152.7265 H   0  0  0  0  0  0  0  0  0  0  0  0
  146.1092  143.3008  154.9910 H   0  0  0  0  0  0  0  0  0  0  0  0
  144.8555  142.1001  154.6933 H   0  0  0  0  0  0  0  0  0  0  0  0
  147.3557  141.7505  156.3760 H   0  0  0  0  0  0  0  0  0  0  0  0
  145.6915  141.4097  156.8500 H   0  0  0  0  0  0  0  0  0  0  0  0
  145.5671  139.5169  155.4073 H   0  0  0  0  0  0  0  0  0  0  0  0
  147.1969  139.3641  156.0163 H   0  0  0  0  0  0  0  0  0  0  0  0
  143.5661  136.6531  150.3895 H   0  0  0  0  0  0  0  0  0  0  0  0
  143.1601  134.4680  149.7706 H   0  0  0  0  0  0  0  0  0  0  0  0
  1  2  1  0  0  0  0
  1 24  1  0  0  0  0
  1 25  1  0  0  0  0
  1 26  1  0  0  0  0
  2 23  1  0  0  0  0
  2  3  2  0  0  0  0
  3  4  1  0  0  0  0
  3 27  1  0  0  0  0
  4  5  2  0  0  0  0
  4 28  1  0  0  0  0
  5  6  1  0  0  0  0
  5 22  1  0  0  0  0
  6  7  1  0  0  0  0
  6 29  1  0  0  0  0
  7  8  2  0  0  0  0
  7  9  1  0  0  0  0
  9 10  1  0  0  0  0
  9 30  1  0  0  0  0
 10 21  1  0  0  0  0
 10 11  1  0  0  0  0
 10 18  1  0  0  0  0
 11 12  2  0  0  0  0
 11 13  1  0  0  0  0
 13 14  1  0  0  0  0
 13 31  1  0  0  0  0
 14 15  1  0  0  0  0
 14 32  1  0  0  0  0
 14 33  1  0  0  0  0
 15 17  1  0  0  0  0
 15 16  1  0  0  0  0
 15 34  1  0  0  0  0
 16 17  1  0  0  0  0
 16 35  1  0  0  0  0
 16 36  1  0  0  0  0
 17 37  1  0  0  0  0
 17 38  1  0  0  0  0
 18 19  1  0  0  0  0
 18 39  1  0  0  0  0
 18 40  1  0  0  0  0
 19 20  1  0  0  0  0
 19 41  1  0  0  0  0
 19 42  1  0  0  0  0
 20 21  1  0  0  0  0
 20 43  1  0  0  0  0
 20 44  1  0  0  0  0
 21 45  1  0  0  0  0
 21 46  1  0  0  0  0
 22 23  2  0  0  0  0
 22 47  1  0  0  0  0
 23 48  1  0  0  0  0
M  CHG  1  23   1
M  END
> <s_m_source_file>
AV-unprocessed.smi

> <i_m_source_file_index>
2387

> <i_lp_mmshare_version>
43012

> <i_f3d_flags>
0

> <s_epik_input>
W0NIM11jMVtjSF1bY0hdYyhbY0hdbjEpW05IXUMoPU8pW05IXUMyKFtDSDJdW0NIMl1bQ0gyXVtDSDJdMilDKD1PKVtOSF1bQ0gyXVtDSF0zW0NIMl1bQ0gyXTM=

> <s_epik_cmdline>
J2VwaWtfcHl0aG9uJywgJy1waCcsICc3LjAnLCAnLXRuJywgJzgnLCAnLW1hJywgJzIwMCcsICctbWV0YWxfYmluZGluZycsICctaW1hZScsICc8aW5maWxlLm1hZT4nLCAnLW9tYWUnLCAnPG91dGZpbGUubWFlPic=

> <r_epik_Ionization_Penalty>
2.1018

> <r_epik_Ionization_Penalty_Charging>
2.10178

> <r_epik_Ionization_Penalty_Neutral>
2.02976e-05

> <r_epik_State_Penalty>
2.23801

> <r_epik_Charging_Adjusted_Penalty>
4.33979

> <i_epik_Tot_Q>
1

> <i_epik_Tot_abs_Q>
1

> <r_epik_Metal_State_Penalty>
2.25493

> <b_epik_Metal_Only>
0

> <s_lp_Force_Field>
OPLS_2005

> <r_lp_Energy>
37.3987

> <b_lp_Chiralities_Consistent>
1

> <s_lp_Variant>
AV-unprocessed.smi:2387-2

> <Gold.Version>
5.8.1

> <Gold.Id.Protein>
6NUR|6NUR_protein|mol2

> <Gold.PLP.Fitness>
49.1030

> <Gold.PLP.PLP>
-36.4320

> <Gold.PLP.part.hbond>
-5.6494

> <Gold.PLP.part.metal>
0.0000

> <Gold.PLP.part.buried>
-3.1157

> <Gold.PLP.part.nonpolar>
-32.2593

> <Gold.PLP.part.repulsive>
3.7242

> <Gold.PLP.ligand.clash>
0.0000

> <Gold.PLP.ligand.torsion>
0.6970

> <Gold.PLP.Chemscore.Hbond>
4.4797

> <Gold.PLP.Chemscore.CHOScore>
0.0000

> <Gold.PLP.Chemscore.Metal>
0.0000

> <Gold.Chemscore.Hbonds>
donor molecule, donor type, donor heavy atom, donor atom, acceptor molecule, acceptor atom, score
      L1  H     6    29       P1 10171  0.80
      L1  H     9    30       P1 10175  0.42
      L1  H    23    48       P1 10186  1.29
      P1  H  7989  7998       L1    12  0.11
      P1  H  8011  8017       L1    12  0.99

> <Gold.PLP.Chemscore.Internal.Correction>
0.6261

> <Gold.Rescore>
     Score         DG    S(hbond)    S(metal)    S(lipo)     H(rot)  DE(clash)    DE(int)     intcor
     15.81     -23.36       3.39        0.00      91.57       1.63       4.68       2.86       ----

> <Gold.Chemscore.Fitness>
15.8132

> <Gold.Chemscore.DG>
-23.3569

> <Gold.Chemscore.ZeroCoef>
-5.4800

> <Gold.Chemscore.Hbond>
3.3929

> <Gold.Chemscore.Metal>
0.0000

> <Gold.Chemscore.Lipo>
91.5699

> <Gold.Chemscore.Internal_Hbond>
0.0000

> <Gold.Chemscore.DEClash>
4.6849

> <Gold.Chemscore.DEInternal>
2.8589

> <Gold.Chemscore.Rot>
1.6286

> <Gold.Chemscore.Internal.Correction>
   9.000000E+99

> <Gold.Chemscore.Hbonds>
donor molecule, donor type, donor heavy atom, donor atom, acceptor molecule, acceptor atom, score
      L1  H     6    29       P1 10171  0.77
      L1  H     9    30       P1 10175  0.39
      L1  H    23    48       P1 10186  0.60
      P1  H  7989  7998       L1    12  0.11
      P1  H  8011  8017       L1    12  0.90

> <Gold.Chemscore.Hbond.Weighted>
-11.3324

> <Gold.Chemscore.Metal.Weighted>
-0.0000

> <Gold.Chemscore.Lipo.Weighted>
-10.7137

> <Gold.Chemscore.Internal_Hbond.Weighted>
0.0000

> <Gold.Chemscore.DEClash.Weighted>
4.6849

> <Gold.Chemscore.DEInternal.Weighted>
2.8589

> <Gold.Chemscore.Rot.Weighted>
4.1692

> <Gold.Chemscore.Internal.Correction.Weighted>
   9.000000E+99

> <Gold.Protein.RotatedTorsions>
[ 6907 6896 6895 6894 ] final  -71.65 input  -60.11 | X-H torsion
[ 7974 7965 7964 7962 ] final  115.97 input  175.53 | X-H torsion
[ 8008 7997 7996 7995 ] final -131.32 input   59.86 | X-H torsion
[ 10167 10162 10161 10158 ] final -123.21 input  -65.29 | X-H torsion
[ 10718 10713 10712 10709 ] final  124.75 input   66.30 | X-H torsion
[ 10763 10752 10751 10750 ] final  162.43 input  -60.55 | X-H torsion
[ 11005 11000 10999 10996 ] final  -74.69 input  -57.11 | X-H torsion

> <Gold.Protein.ActiveResidues>
 VAL166  LYS551  ARG553  GLY616  TRP617  ASP618  TYR619  PRO620  LYS621  CYS622 
 ASP623  PHE694  ASN695  SER759  ASP760  ASP761  ALA762  ILE779  LEU786  VAL792 
 PHE793  MET794  SER795  GLU796  ALA797  LYS798  CYS799  TRP800  GLU811  SER814 

> <Gold.Protein.RotatedAtoms>
  150.7203  134.5277  159.5684 H   0  0  0  0  0  0  0  0  0  0  0  0  # atno 6907 bound_to 6896
  152.2818  134.7817  160.0404 H   0  0  0  0  0  0  0  0  0  0  0  0  # atno 6908 bound_to 6896
  151.8461  133.3396  159.3695 H   0  0  0  0  0  0  0  0  0  0  0  0  # atno 6909 bound_to 6896
  145.1853  139.3028  143.4396 H   0  0  0  0  0  0  0  0  0  0  0  0  # atno 7974 bound_to 7965
  155.3105  140.0457  157.3034 H   0  0  0  0  0  0  0  0  0  0  0  0  # atno 8008 bound_to 7997
  154.5436  140.2295  155.8567 H   0  0  0  0  0  0  0  0  0  0  0  0  # atno 8009 bound_to 7997
  156.1903  140.3052  155.9326 H   0  0  0  0  0  0  0  0  0  0  0  0  # atno 8010 bound_to 7997
  140.0060  143.5491  152.2283 H   0  0  0  0  0  0  0  0  0  0  0  0  # atno 10167 bound_to 10162
  157.5560  131.1092  150.8621 H   0  0  0  0  0  0  0  0  0  0  0  0  # atno 10718 bound_to 10713
  154.2782  135.2764  155.2708 H   0  0  0  0  0  0  0  0  0  0  0  0  # atno 10763 bound_to 10752
  154.5241  135.5748  153.6708 H   0  0  0  0  0  0  0  0  0  0  0  0  # atno 10764 bound_to 10752
  152.9933  135.6211  154.2940 H   0  0  0  0  0  0  0  0  0  0  0  0  # atno 10765 bound_to 10752
  141.1638  133.6920  156.7403 H   0  0  0  0  0  0  0  0  0  0  0  0  # atno 11005 bound_to 11000
  146.3446  140.2047  142.8589 LP  0  0  0  0  0  0  0  0  0  0  0  0  # atno 17320 bound_to 7965
  145.0095  140.8702  143.5233 LP  0  0  0  0  0  0  0  0  0  0  0  0  # atno 17321 bound_to 7965
  139.6238  144.7634  151.2682 LP  0  0  0  0  0  0  0  0  0  0  0  0  # atno 17342 bound_to 10162
  140.7400  143.6600  150.8173 LP  0  0  0  0  0  0  0  0  0  0  0  0  # atno 17343 bound_to 10162
  156.9133  130.5288  149.5280 LP  0  0  0  0  0  0  0  0  0  0  0  0  # atno 17370 bound_to 10713
  156.0619  130.5670  150.9209 LP  0  0  0  0  0  0  0  0  0  0  0  0  # atno 17371 bound_to 10713
  140.2680  134.8415  157.3820 LP  0  0  0  0  0  0  0  0  0  0  0  0  # atno 17394 bound_to 11000
  140.1548  134.4803  155.7935 LP  0  0  0  0  0  0  0  0  0  0  0  0  # atno 17395 bound_to 11000

$$$$
