AV-unprocessed.smi:3258|AV-procd|sdf|12469|dock10
  -GOLD-   2272018363D 1   1.00000     0.00000
 Structure written by MMmdl.
 38 39  0  0  0  0  0  0  0  0  1 V2000
  144.1652  137.1586  152.8978 C   0  0  0  0  0  0  0  0  0  0  0  0
  144.9946  135.9037  152.5830 C   0  0  1  0  0  0  0  0  0  0  0  0
  144.9531  135.5640  151.0805 C   0  0  0  0  0  0  0  0  0  0  0  0
  145.0923  134.1395  150.8325 N   0  0  0  0  0  0  0  0  0  0  0  0
  144.2016  133.2883  150.2129 C   0  0  0  0  0  0  0  0  0  0  0  0
  144.7594  132.0420  150.2193 C   0  0  0  0  0  0  0  0  0  0  0  0
  146.0096  132.2347  150.8712 C   0  0  0  0  0  0  0  0  0  0  0  0
  146.2064  133.4912  151.2367 N   0  0  0  0  0  0  0  0  0  0  0  0
  146.3770  136.0984  153.0159 N   0  0  0  0  0  0  0  0  0  0  0  0
  146.7554  136.6121  154.1942 C   0  0  0  0  0  0  0  0  0  0  0  0
  145.9731  137.0097  155.0577 O   0  0  0  0  0  0  0  0  0  0  0  0
  148.0900  136.6440  154.3144 N   0  0  0  0  0  0  0  0  0  0  0  0
  148.8232  137.1559  155.4678 C   0  0  0  0  0  0  0  0  0  0  0  0
  149.9994  138.0557  155.0450 C   0  0  2  0  0  0  0  0  0  0  0  0
  150.8323  138.5605  156.2051 C   0  0  0  0  0  0  0  0  0  0  0  0
  151.5813  139.7290  155.5714 C   0  0  0  0  0  0  0  0  0  0  0  0
  150.7104  140.2537  154.5734 O   0  0  0  0  0  0  0  0  0  0  0  0
  149.6054  139.3760  154.3790 C   0  0  0  0  0  0  0  0  0  0  0  0
  143.1259  137.0271  152.5961 H   0  0  0  0  0  0  0  0  0  0  0  0
  144.5552  138.0330  152.3756 H   0  0  0  0  0  0  0  0  0  0  0  0
  144.1699  137.3783  153.9658 H   0  0  0  0  0  0  0  0  0  0  0  0
  144.5613  135.0646  153.1307 H   0  0  0  0  0  0  0  0  0  0  0  0
  144.0030  135.8848  150.6513 H   0  0  0  0  0  0  0  0  0  0  0  0
  145.7347  136.1015  150.5407 H   0  0  0  0  0  0  0  0  0  0  0  0
  143.2548  133.6363  149.8267 H   0  0  0  0  0  0  0  0  0  0  0  0
  144.3385  131.1313  149.8197 H   0  0  0  0  0  0  0  0  0  0  0  0
  146.7743  131.5039  151.0886 H   0  0  0  0  0  0  0  0  0  0  0  0
  147.0976  135.7976  152.3760 H   0  0  0  0  0  0  0  0  0  0  0  0
  148.6426  136.2898  153.5473 H   0  0  0  0  0  0  0  0  0  0  0  0
  148.1560  137.6868  156.1492 H   0  0  0  0  0  0  0  0  0  0  0  0
  149.2036  136.2982  156.0229 H   0  0  0  0  0  0  0  0  0  0  0  0
  150.6530  137.5026  154.3680 H   0  0  0  0  0  0  0  0  0  0  0  0
  150.1881  138.9217  157.0081 H   0  0  0  0  0  0  0  0  0  0  0  0
  151.4996  137.8028  156.6170 H   0  0  0  0  0  0  0  0  0  0  0  0
  151.8582  140.4907  156.3006 H   0  0  0  0  0  0  0  0  0  0  0  0
  152.4925  139.3784  155.0853 H   0  0  0  0  0  0  0  0  0  0  0  0
  149.3737  139.2582  153.3202 H   0  0  0  0  0  0  0  0  0  0  0  0
  148.7331  139.8108  154.8689 H   0  0  0  0  0  0  0  0  0  0  0  0
  1  2  1  0  0  0  0
  1 19  1  0  0  0  0
  1 20  1  0  0  0  0
  1 21  1  0  0  0  0
  2  3  1  0  0  0  0
  2  9  1  0  0  0  0
  2 22  1  0  0  0  0
  3  4  1  0  0  0  0
  3 23  1  0  0  0  0
  3 24  1  0  0  0  0
  4  8  1  0  0  0  0
  4  5  1  0  0  0  0
  5  6  2  0  0  0  0
  5 25  1  0  0  0  0
  6  7  1  0  0  0  0
  6 26  1  0  0  0  0
  7  8  2  0  0  0  0
  7 27  1  0  0  0  0
  9 10  1  0  0  0  0
  9 28  1  0  0  0  0
 10 11  2  0  0  0  0
 10 12  1  0  0  0  0
 12 13  1  0  0  0  0
 12 29  1  0  0  0  0
 13 14  1  0  0  0  0
 13 30  1  0  0  0  0
 13 31  1  0  0  0  0
 14 18  1  0  0  0  0
 14 15  1  0  0  0  0
 14 32  1  0  0  0  0
 15 16  1  0  0  0  0
 15 33  1  0  0  0  0
 15 34  1  0  0  0  0
 16 17  1  0  0  0  0
 16 35  1  0  0  0  0
 16 36  1  0  0  0  0
 17 18  1  0  0  0  0
 18 37  1  0  0  0  0
 18 38  1  0  0  0  0
M  END
> <s_m_source_file>
AV-unprocessed.smi

> <i_m_source_file_index>
3258

> <i_lp_mmshare_version>
43012

> <i_f3d_flags>
0

> <s_epik_input>
bjFbY0hdW2NIXVtjSF1uMVtDSDJdW0NAQEhdKFtDSDNdKVtOSF1DKD1PKVtOSF1bQ0gyXVtDQEBIXTJbQ0gyXVtDSDJdT1tDSDJdMg==

> <s_epik_cmdline>
J2VwaWtfcHl0aG9uJywgJy1waCcsICc3LjAnLCAnLXRuJywgJzgnLCAnLW1hJywgJzIwMCcsICctbWV0YWxfYmluZGluZycsICctaW1hZScsICc8aW5maWxlLm1hZT4nLCAnLW9tYWUnLCAnPG91dGZpbGUubWFlPic=

> <r_lp_tautomer_probability>
1

> <r_epik_Ionization_Penalty>
6.85079e-05

> <r_epik_Ionization_Penalty_Charging>
0

> <r_epik_Ionization_Penalty_Neutral>
6.85079e-05

> <r_epik_State_Penalty>
-0

> <r_epik_Charging_Adjusted_Penalty>
0

> <i_epik_Tot_Q>
0

> <i_epik_Tot_abs_Q>
0

> <r_epik_Metal_State_Penalty>
-0

> <b_epik_Metal_Only>
0

> <s_lp_Force_Field>
OPLS_2005

> <r_lp_Energy>
17.05

> <b_lp_Chiralities_Consistent>
1

> <s_lp_Variant>
AV-unprocessed.smi:3258-2

> <Gold.Version>
5.8.1

> <Gold.Id.Protein>
6NUR|6NUR_protein|mol2

> <Gold.PLP.Fitness>
42.4933

> <Gold.PLP.PLP>
-29.1413

> <Gold.PLP.part.hbond>
-3.0000

> <Gold.PLP.part.metal>
0.0000

> <Gold.PLP.part.buried>
-5.2356

> <Gold.PLP.part.nonpolar>
-22.3558

> <Gold.PLP.part.repulsive>
0.2929

> <Gold.PLP.ligand.clash>
0.0000

> <Gold.PLP.ligand.torsion>
0.5988

> <Gold.PLP.Chemscore.Hbond>
2.8320

> <Gold.PLP.Chemscore.CHOScore>
2.0000

> <Gold.PLP.Chemscore.Metal>
0.0000

> <Gold.Chemscore.Hbonds>
donor molecule, donor type, donor heavy atom, donor atom, acceptor molecule, acceptor atom, score
      L1  H     9    28       P1  7948  0.83
      L1  H    12    29       P1  7948  1.00
      P1  H  7989  7998       L1    17  1.00
      L1  C     5    25       P1 10186  1.00
      L1  C     7    27       P1 10747  1.00

> <Gold.PLP.Chemscore.Internal.Correction>
0.0534

> <Gold.Rescore>
     Score         DG    S(hbond)    S(metal)    S(lipo)     H(rot)  DE(clash)    DE(int)     intcor
     15.88     -17.81       2.73        0.00      68.27       1.87       0.01       1.92       ----

> <Gold.Chemscore.Fitness>
15.8800

> <Gold.Chemscore.DG>
-17.8071

> <Gold.Chemscore.ZeroCoef>
-5.4800

> <Gold.Chemscore.Hbond>
2.7343

> <Gold.Chemscore.Metal>
0.0000

> <Gold.Chemscore.Lipo>
68.2715

> <Gold.Chemscore.Internal_Hbond>
0.0000

> <Gold.Chemscore.DEClash>
0.0112

> <Gold.Chemscore.DEInternal>
1.9159

> <Gold.Chemscore.Rot>
1.8724

> <Gold.Chemscore.Internal.Correction>
   9.000000E+99

> <Gold.Chemscore.Hbonds>
donor molecule, donor type, donor heavy atom, donor atom, acceptor molecule, acceptor atom, score
      L1  H     9    28       P1  7948  0.82
      L1  H    12    29       P1  7948  0.94
      P1  H  7989  7998       L1    17  0.52

> <Gold.Chemscore.Hbond.Weighted>
-9.1326

> <Gold.Chemscore.Metal.Weighted>
-0.0000

> <Gold.Chemscore.Lipo.Weighted>
-7.9878

> <Gold.Chemscore.Internal_Hbond.Weighted>
0.0000

> <Gold.Chemscore.DEClash.Weighted>
0.0112

> <Gold.Chemscore.DEInternal.Weighted>
1.9159

> <Gold.Chemscore.Rot.Weighted>
4.7933

> <Gold.Chemscore.Internal.Correction.Weighted>
   9.000000E+99

> <Gold.Protein.RotatedTorsions>
[ 6907 6896 6895 6894 ] final  150.74 input  -60.11 | X-H torsion
[ 7974 7965 7964 7962 ] final   40.78 input  175.53 | X-H torsion
[ 8008 7997 7996 7995 ] final  127.09 input   59.86 | X-H torsion
[ 10167 10162 10161 10158 ] final  137.09 input  -65.29 | X-H torsion
[ 10718 10713 10712 10709 ] final   50.13 input   66.30 | X-H torsion
[ 10763 10752 10751 10750 ] final  142.66 input  -60.55 | X-H torsion
[ 11005 11000 10999 10996 ] final   92.29 input  -57.11 | X-H torsion

> <Gold.Protein.ActiveResidues>
 VAL166  LYS551  ARG553  GLY616  TRP617  ASP618  TYR619  PRO620  LYS621  CYS622 
 ASP623  PHE694  ASN695  SER759  ASP760  ASP761  ALA762  ILE779  LEU786  VAL792 
 PHE793  MET794  SER795  GLU796  ALA797  LYS798  CYS799  TRP800  GLU811  SER814 

> <Gold.Protein.RotatedAtoms>
  152.1102  133.4297  159.4627 H   0  0  0  0  0  0  0  0  0  0  0  0  # atno 6907 bound_to 6896
  150.6867  134.2657  159.4576 H   0  0  0  0  0  0  0  0  0  0  0  0  # atno 6908 bound_to 6896
  152.0525  134.9644  160.0625 H   0  0  0  0  0  0  0  0  0  0  0  0  # atno 6909 bound_to 6896
  146.0877  139.5492  142.9496 H   0  0  0  0  0  0  0  0  0  0  0  0  # atno 7974 bound_to 7965
  156.2882  140.2677  156.2217 H   0  0  0  0  0  0  0  0  0  0  0  0  # atno 8008 bound_to 7997
  155.0161  140.0387  157.2437 H   0  0  0  0  0  0  0  0  0  0  0  0  # atno 8009 bound_to 7997
  154.7476  140.2737  155.6325 H   0  0  0  0  0  0  0  0  0  0  0  0  # atno 8010 bound_to 7997
  139.5156  144.6429  151.5520 H   0  0  0  0  0  0  0  0  0  0  0  0  # atno 10167 bound_to 10162
  157.4854  130.8342  149.8141 H   0  0  0  0  0  0  0  0  0  0  0  0  # atno 10718 bound_to 10713
  153.9594  135.2961  155.3434 H   0  0  0  0  0  0  0  0  0  0  0  0  # atno 10763 bound_to 10752
  154.7383  135.5036  153.9082 H   0  0  0  0  0  0  0  0  0  0  0  0  # atno 10764 bound_to 10752
  153.0954  135.6719  153.9884 H   0  0  0  0  0  0  0  0  0  0  0  0  # atno 10765 bound_to 10752
  139.8826  134.8724  156.3551 H   0  0  0  0  0  0  0  0  0  0  0  0  # atno 11005 bound_to 11000
  145.6099  141.0341  143.1972 LP  0  0  0  0  0  0  0  0  0  0  0  0  # atno 17320 bound_to 7965
  144.7337  139.7648  143.7337 LP  0  0  0  0  0  0  0  0  0  0  0  0  # atno 17321 bound_to 7965
  140.6202  143.9272  150.6520 LP  0  0  0  0  0  0  0  0  0  0  0  0  # atno 17342 bound_to 10162
  140.2543  143.3570  152.1378 LP  0  0  0  0  0  0  0  0  0  0  0  0  # atno 17343 bound_to 10162
  156.0144  130.3819  150.2158 LP  0  0  0  0  0  0  0  0  0  0  0  0  # atno 17370 bound_to 10713
  157.0346  131.0017  151.3302 LP  0  0  0  0  0  0  0  0  0  0  0  0  # atno 17371 bound_to 10713
  140.9568  133.7415  156.0346 LP  0  0  0  0  0  0  0  0  0  0  0  0  # atno 17394 bound_to 11000
  140.8039  134.3477  157.5432 LP  0  0  0  0  0  0  0  0  0  0  0  0  # atno 17395 bound_to 11000

$$$$
