AV-unprocessed.smi:2724|AV-procd|sdf|10510|dock3
  -GOLD-   2272014553D 1   1.00000     0.00000
 Structure written by MMmdl.
 25 26  0  0  0  0  0  0  0  0  1 V2000
  149.2239  144.0555  158.7993 O   0  0  0  0  0  0  0  0  0  0  0  0
  150.5227  143.7732  158.3212 C   0  0  1  0  0  0  0  0  0  0  0  0
  151.5921  144.2830  159.2859 C   0  0  0  0  0  0  0  0  0  0  0  0
  152.8339  143.4655  158.9303 C   0  0  0  0  0  0  0  0  0  0  0  0
  152.3143  142.1079  158.4338 C   0  0  0  0  0  0  0  0  0  0  0  0
  150.7927  142.2628  158.2345 C   0  0  2  0  0  0  0  0  0  0  0  0
  150.2759  141.6170  156.9554 C   0  0  0  0  0  0  0  0  0  0  0  0
  148.9064  141.6483  156.6122 C   0  0  0  0  0  0  0  0  0  0  0  0
  148.4881  141.0303  155.4184 C   0  0  0  0  0  0  0  0  0  0  0  0
  149.4587  140.4033  154.6126 C   0  0  0  0  0  0  0  0  0  0  0  0
  150.7708  140.3648  154.9285 N   0  0  0  0  0  0  0  0  0  0  0  0
  151.1633  140.9604  156.0751 C   0  0  0  0  0  0  0  0  0  0  0  0
  148.7735  144.5763  158.1518 H   0  0  0  0  0  0  0  0  0  0  0  0
  150.6678  144.2528  157.3524 H   0  0  0  0  0  0  0  0  0  0  0  0
  151.7570  145.3578  159.2035 H   0  0  0  0  0  0  0  0  0  0  0  0
  151.3022  144.0684  160.3158 H   0  0  0  0  0  0  0  0  0  0  0  0
  153.3776  143.9627  158.1257 H   0  0  0  0  0  0  0  0  0  0  0  0
  153.5169  143.3663  159.7745 H   0  0  0  0  0  0  0  0  0  0  0  0
  152.8278  141.8421  157.5091 H   0  0  0  0  0  0  0  0  0  0  0  0
  152.5252  141.3129  159.1503 H   0  0  0  0  0  0  0  0  0  0  0  0
  150.3090  141.7828  159.0877 H   0  0  0  0  0  0  0  0  0  0  0  0
  148.1863  142.1380  157.2511 H   0  0  0  0  0  0  0  0  0  0  0  0
  147.4483  141.0369  155.1266 H   0  0  0  0  0  0  0  0  0  0  0  0
  149.1736  139.9194  153.6903 H   0  0  0  0  0  0  0  0  0  0  0  0
  152.2193  140.9081  156.2953 H   0  0  0  0  0  0  0  0  0  0  0  0
  1  2  1  0  0  0  0
  1 13  1  0  0  0  0
  2  6  1  0  0  0  0
  2  3  1  0  0  0  0
  2 14  1  0  0  0  0
  3  4  1  0  0  0  0
  3 15  1  0  0  0  0
  3 16  1  0  0  0  0
  4  5  1  0  0  0  0
  4 17  1  0  0  0  0
  4 18  1  0  0  0  0
  5  6  1  0  0  0  0
  5 19  1  0  0  0  0
  5 20  1  0  0  0  0
  6  7  1  0  0  0  0
  6 21  1  0  0  0  0
  7 12  1  0  0  0  0
  7  8  2  0  0  0  0
  8  9  1  0  0  0  0
  8 22  1  0  0  0  0
  9 10  2  0  0  0  0
  9 23  1  0  0  0  0
 10 11  1  0  0  0  0
 10 24  1  0  0  0  0
 11 12  2  0  0  0  0
 12 25  1  0  0  0  0
M  END
> <s_m_source_file>
AV-unprocessed.smi

> <i_m_source_file_index>
2724

> <i_lp_mmshare_version>
43012

> <i_f3d_flags>
0

> <s_epik_input>
W09IXVtDQEBIXTFbQ0gyXVtDSDJdW0NIMl1bQ0BIXTFjMltjSF1bY0hdW2NIXW5bY0hdMg==

> <s_epik_cmdline>
J2VwaWtfcHl0aG9uJywgJy1waCcsICc3LjAnLCAnLXRuJywgJzgnLCAnLW1hJywgJzIwMCcsICctbWV0YWxfYmluZGluZycsICctaW1hZScsICc8aW5maWxlLm1hZT4nLCAnLW9tYWUnLCAnPG91dGZpbGUubWFlPic=

> <r_epik_Ionization_Penalty>
0.0175299

> <r_epik_Ionization_Penalty_Charging>
0

> <r_epik_Ionization_Penalty_Neutral>
0.0175299

> <r_epik_State_Penalty>
0.0138989

> <r_epik_Charging_Adjusted_Penalty>
0.0138989

> <i_epik_Tot_Q>
0

> <i_epik_Tot_abs_Q>
0

> <r_epik_Metal_State_Penalty>
1.40631e-05

> <b_epik_Metal_Only>
0

> <s_lp_Force_Field>
OPLS_2005

> <r_lp_Energy>
19.4991

> <b_lp_Chiralities_Consistent>
1

> <s_lp_Variant>
AV-unprocessed.smi:2724-4

> <Gold.Version>
5.8.1

> <Gold.Id.Protein>
6NUR|6NUR_protein|mol2

> <Gold.PLP.Fitness>
34.9116

> <Gold.PLP.PLP>
-25.9117

> <Gold.PLP.part.hbond>
-2.4612

> <Gold.PLP.part.metal>
0.0000

> <Gold.PLP.part.buried>
-2.1207

> <Gold.PLP.part.nonpolar>
-21.1934

> <Gold.PLP.part.repulsive>
0.0718

> <Gold.PLP.ligand.clash>
0.0000

> <Gold.PLP.ligand.torsion>
0.0003

> <Gold.PLP.Chemscore.Hbond>
2.0000

> <Gold.PLP.Chemscore.CHOScore>
1.0000

> <Gold.PLP.Chemscore.Metal>
0.0000

> <Gold.Chemscore.Hbonds>
donor molecule, donor type, donor heavy atom, donor atom, acceptor molecule, acceptor atom, score
      L1  H     1    13       P1  8029  1.00
      P1  H  7989  7998       L1    11  1.00
      L1  C    10    24       P1  7957  0.90

> <Gold.PLP.Chemscore.Internal.Correction>
0.0004

> <Gold.Rescore>
     Score         DG    S(hbond)    S(metal)    S(lipo)     H(rot)  DE(clash)    DE(int)     intcor
     16.80     -16.89       1.71        0.00      77.66       1.32       0.07       0.01       ----

> <Gold.Chemscore.Fitness>
16.8037

> <Gold.Chemscore.DG>
-16.8895

> <Gold.Chemscore.ZeroCoef>
-5.4800

> <Gold.Chemscore.Hbond>
1.7067

> <Gold.Chemscore.Metal>
0.0000

> <Gold.Chemscore.Lipo>
77.6609

> <Gold.Chemscore.Internal_Hbond>
0.0000

> <Gold.Chemscore.DEClash>
0.0727

> <Gold.Chemscore.DEInternal>
0.0131

> <Gold.Chemscore.Rot>
1.3192

> <Gold.Chemscore.Internal.Correction>
   9.000000E+99

> <Gold.Chemscore.Hbonds>
donor molecule, donor type, donor heavy atom, donor atom, acceptor molecule, acceptor atom, score
      L1  H     1    13       P1  8029  0.35
      P1  H  7989  7998       L1    11  0.49

> <Gold.Chemscore.Hbond.Weighted>
-5.7003

> <Gold.Chemscore.Metal.Weighted>
-0.0000

> <Gold.Chemscore.Lipo.Weighted>
-9.0863

> <Gold.Chemscore.Internal_Hbond.Weighted>
0.0000

> <Gold.Chemscore.DEClash.Weighted>
0.0727

> <Gold.Chemscore.DEInternal.Weighted>
0.0131

> <Gold.Chemscore.Rot.Weighted>
3.3772

> <Gold.Chemscore.Internal.Correction.Weighted>
   9.000000E+99

> <Gold.Protein.RotatedTorsions>
[ 6907 6896 6895 6894 ] final  100.77 input  -60.11 | X-H torsion
[ 7974 7965 7964 7962 ] final -119.37 input  175.53 | X-H torsion
[ 8008 7997 7996 7995 ] final  109.17 input   59.86 | X-H torsion
[ 10167 10162 10161 10158 ] final -158.87 input  -65.29 | X-H torsion
[ 10718 10713 10712 10709 ] final  113.12 input   66.30 | X-H torsion
[ 10763 10752 10751 10750 ] final -111.18 input  -60.55 | X-H torsion
[ 11005 11000 10999 10996 ] final  -47.63 input  -57.11 | X-H torsion

> <Gold.Protein.ActiveResidues>
 VAL166  LYS551  ARG553  GLY616  TRP617  ASP618  TYR619  PRO620  LYS621  CYS622 
 ASP623  PHE694  ASN695  SER759  ASP760  ASP761  ALA762  ILE779  LEU786  VAL792 
 PHE793  MET794  SER795  GLU796  ALA797  LYS798  CYS799  TRP800  GLU811  SER814 

> <Gold.Protein.RotatedAtoms>
  152.5365  134.0227  159.7988 H   0  0  0  0  0  0  0  0  0  0  0  0  # atno 6907 bound_to 6896
  151.0411  133.5698  159.2658 H   0  0  0  0  0  0  0  0  0  0  0  0  # atno 6908 bound_to 6896
  151.2667  135.0679  159.9172 H   0  0  0  0  0  0  0  0  0  0  0  0  # atno 6909 bound_to 6896
  145.0633  140.8306  143.4139 H   0  0  0  0  0  0  0  0  0  0  0  0  # atno 7974 bound_to 7965
  156.1959  140.3063  155.9425 H   0  0  0  0  0  0  0  0  0  0  0  0  # atno 8008 bound_to 7997
  155.3068  140.0449  157.3050 H   0  0  0  0  0  0  0  0  0  0  0  0  # atno 8009 bound_to 7997
  154.5508  140.2291  155.8496 H   0  0  0  0  0  0  0  0  0  0  0  0  # atno 8010 bound_to 7997
  139.6659  143.9830  152.2254 H   0  0  0  0  0  0  0  0  0  0  0  0  # atno 10167 bound_to 10162
  157.6355  131.0978  150.6995 H   0  0  0  0  0  0  0  0  0  0  0  0  # atno 10718 bound_to 10713
  154.8287  135.4537  154.1000 H   0  0  0  0  0  0  0  0  0  0  0  0  # atno 10763 bound_to 10752
  153.2292  135.6903  153.7916 H   0  0  0  0  0  0  0  0  0  0  0  0  # atno 10764 bound_to 10752
  153.7305  135.3327  155.3261 H   0  0  0  0  0  0  0  0  0  0  0  0  # atno 10765 bound_to 10752
  141.0652  133.6696  156.3325 H   0  0  0  0  0  0  0  0  0  0  0  0  # atno 11005 bound_to 11000
  145.1382  139.2589  143.5504 LP  0  0  0  0  0  0  0  0  0  0  0  0  # atno 17320 bound_to 7965
  146.3525  140.1051  142.8606 LP  0  0  0  0  0  0  0  0  0  0  0  0  # atno 17321 bound_to 7965
  139.9581  144.6576  150.8106 LP  0  0  0  0  0  0  0  0  0  0  0  0  # atno 17342 bound_to 10162
  140.7599  143.3139  151.2779 LP  0  0  0  0  0  0  0  0  0  0  0  0  # atno 17343 bound_to 10162
  156.7327  130.4714  149.5496 LP  0  0  0  0  0  0  0  0  0  0  0  0  # atno 17370 bound_to 10713
  156.1591  130.6362  151.0696 LP  0  0  0  0  0  0  0  0  0  0  0  0  # atno 17371 bound_to 10713
  140.5787  134.5767  157.5474 LP  0  0  0  0  0  0  0  0  0  0  0  0  # atno 17394 bound_to 11000
  139.9470  134.7684  156.0538 LP  0  0  0  0  0  0  0  0  0  0  0  0  # atno 17395 bound_to 11000

$$$$
