AV-unprocessed.smi:729|AV-procd|sdf|3519|dock10
  -GOLD-   22720 0513D 1   1.00000     0.00000
 Structure written by MMmdl.
 20 20  0  0  0  0  0  0  0  0  3 V2000
  152.1490  143.8073  158.5171 C   0  0  0  0  0  0  0  0  0  0  0  0
  152.6067  142.4809  159.1159 C   0  0  0  0  0  0  0  0  0  0  0  0
  153.5316  142.4678  160.1017 C   0  0  0  0  0  0  0  0  0  0  0  0
  153.9565  141.2853  160.6907 C   0  0  0  0  0  0  0  0  0  0  0  0
  154.8149  141.2679  161.6008 O   0  5  0  0  0  0  0  0  0  0  0  0
  153.3638  140.1249  160.2137 C   0  0  0  0  0  0  0  0  0  0  0  0
  152.3564  140.0735  159.1604 C   0  0  0  0  0  0  0  0  0  0  0  0
  151.8587  139.0065  158.7966 O   0  0  0  0  0  0  0  0  0  0  0  0
  152.0270  141.2801  158.6160 N   0  0  0  0  0  0  0  0  0  0  0  0
  150.9964  141.3228  157.5496 C   0  0  0  0  0  0  0  0  0  0  0  0
  151.2947  140.3841  156.3737 C   0  0  0  0  0  0  0  0  0  0  0  0
  152.3466  139.7098  156.4346 O   0  0  0  0  0  0  0  0  0  0  0  0
  150.4805  140.3713  155.4242 O   0  5  0  0  0  0  0  0  0  0  0  0
  152.5406  144.6441  159.0961 H   0  0  0  0  0  0  0  0  0  0  0  0
  151.0650  143.9112  158.5204 H   0  0  0  0  0  0  0  0  0  0  0  0
  152.5201  143.9243  157.4995 H   0  0  0  0  0  0  0  0  0  0  0  0
  153.9484  143.4050  160.4421 H   0  0  0  0  0  0  0  0  0  0  0  0
  153.6622  139.1812  160.6471 H   0  0  0  0  0  0  0  0  0  0  0  0
  149.9982  141.0694  157.9078 H   0  0  0  0  0  0  0  0  0  0  0  0
  150.8785  142.3434  157.1878 H   0  0  0  0  0  0  0  0  0  0  0  0
  1  2  1  0  0  0  0
  1 14  1  0  0  0  0
  1 15  1  0  0  0  0
  1 16  1  0  0  0  0
  2  9  1  0  0  0  0
  2  3  2  0  0  0  0
  3  4  1  0  0  0  0
  3 17  1  0  0  0  0
  4  5  1  0  0  0  0
  4  6  2  0  0  0  0
  6  7  1  0  0  0  0
  6 18  1  0  0  0  0
  7  8  2  0  0  0  0
  7  9  1  0  0  0  0
  9 10  1  0  0  0  0
 10 11  1  0  0  0  0
 10 19  1  0  0  0  0
 10 20  1  0  0  0  0
 11 12  2  0  0  0  0
 11 13  1  0  0  0  0
M  CHG  1   5  -1
M  CHG  1  13  -1
M  END
> <s_m_source_file>
AV-unprocessed.smi

> <i_m_source_file_index>
729

> <i_lp_mmshare_version>
43012

> <i_f3d_flags>
0

> <s_epik_input>
W0NIM11jMVtjSF1jKFtPSF0pW2NIXWMoPU8pbjFbQ0gyXUMoPU8pW09IXQ==

> <s_epik_cmdline>
J2VwaWtfcHl0aG9uJywgJy1waCcsICc3LjAnLCAnLXRuJywgJzgnLCAnLW1hJywgJzIwMCcsICctbWV0YWxfYmluZGluZycsICctaW1hZScsICc8aW5maWxlLm1hZT4nLCAnLW9tYWUnLCAnPG91dGZpbGUubWFlPic=

> <r_lp_tautomer_probability>
1

> <r_epik_Ionization_Penalty>
0.494568

> <r_epik_Ionization_Penalty_Charging>
0.494568

> <r_epik_Ionization_Penalty_Neutral>
1.61422e-13

> <r_epik_State_Penalty>
0.445538

> <r_epik_Charging_Adjusted_Penalty>
0.940106

> <i_epik_Tot_Q>
-2

> <i_epik_Tot_abs_Q>
2

> <r_epik_Metal_State_Penalty>
0.445538

> <b_epik_Metal_Only>
0

> <s_lp_Force_Field>
OPLS_2005

> <r_lp_Energy>
22.4438

> <b_lp_Chiralities_Consistent>
1

> <s_lp_Variant>
AV-unprocessed.smi:729-1

> <Gold.Version>
5.8.1

> <Gold.Id.Protein>
6NUR|6NUR_protein|mol2

> <Gold.PLP.Fitness>
39.0802

> <Gold.PLP.PLP>
-30.2199

> <Gold.PLP.part.hbond>
-3.0000

> <Gold.PLP.part.metal>
0.0000

> <Gold.PLP.part.buried>
-3.7308

> <Gold.PLP.part.nonpolar>
-23.7203

> <Gold.PLP.part.repulsive>
0.0650

> <Gold.PLP.ligand.clash>
0.0000

> <Gold.PLP.ligand.torsion>
0.0614

> <Gold.PLP.Chemscore.Hbond>
2.9920

> <Gold.PLP.Chemscore.CHOScore>
0.0000

> <Gold.PLP.Chemscore.Metal>
0.0000

> <Gold.Chemscore.Hbonds>
donor molecule, donor type, donor heavy atom, donor atom, acceptor molecule, acceptor atom, score
      P1  H  7989  7998       L1    13  0.34
      P1  H  7997  8008       L1    12  1.98

> <Gold.PLP.Chemscore.Internal.Correction>
0.0071

> <Gold.Rescore>
     Score         DG    S(hbond)    S(metal)    S(lipo)     H(rot)  DE(clash)    DE(int)     intcor
     10.37     -14.72       1.95        0.00      56.26       1.51       0.01       4.33       ----

> <Gold.Chemscore.Fitness>
10.3711

> <Gold.Chemscore.DG>
-14.7156

> <Gold.Chemscore.ZeroCoef>
-5.4800

> <Gold.Chemscore.Hbond>
1.9480

> <Gold.Chemscore.Metal>
0.0000

> <Gold.Chemscore.Lipo>
56.2623

> <Gold.Chemscore.Internal_Hbond>
0.0000

> <Gold.Chemscore.DEClash>
0.0102

> <Gold.Chemscore.DEInternal>
4.3342

> <Gold.Chemscore.Rot>
1.5053

> <Gold.Chemscore.Internal.Correction>
   9.000000E+99

> <Gold.Chemscore.Hbonds>
donor molecule, donor type, donor heavy atom, donor atom, acceptor molecule, acceptor atom, score
      P1  H  7989  7998       L1    13  0.21
      P1  H  7997  8008       L1    12  0.92

> <Gold.Chemscore.Hbond.Weighted>
-6.5063

> <Gold.Chemscore.Metal.Weighted>
-0.0000

> <Gold.Chemscore.Lipo.Weighted>
-6.5827

> <Gold.Chemscore.Internal_Hbond.Weighted>
0.0000

> <Gold.Chemscore.DEClash.Weighted>
0.0102

> <Gold.Chemscore.DEInternal.Weighted>
4.3342

> <Gold.Chemscore.Rot.Weighted>
3.8534

> <Gold.Chemscore.Internal.Correction.Weighted>
   9.000000E+99

> <Gold.Protein.RotatedTorsions>
[ 6907 6896 6895 6894 ] final  -74.42 input  -60.11 | X-H torsion
[ 7974 7965 7964 7962 ] final   -1.30 input  175.53 | X-H torsion
[ 8008 7997 7996 7995 ] final  -40.58 input   59.86 | X-H torsion
[ 10167 10162 10161 10158 ] final -113.90 input  -65.29 | X-H torsion
[ 10718 10713 10712 10709 ] final   78.15 input   66.30 | X-H torsion
[ 10763 10752 10751 10750 ] final   14.64 input  -60.55 | X-H torsion
[ 11005 11000 10999 10996 ] final   54.10 input  -57.11 | X-H torsion

> <Gold.Protein.ActiveResidues>
 VAL166  LYS551  ARG553  GLY616  TRP617  ASP618  TYR619  PRO620  LYS621  CYS622 
 ASP623  PHE694  ASN695  SER759  ASP760  ASP761  ALA762  ILE779  LEU786  VAL792 
 PHE793  MET794  SER795  GLU796  ALA797  LYS798  CYS799  TRP800  GLU811  SER814 

> <Gold.Protein.RotatedAtoms>
  150.7094  134.4872  159.5497 H   0  0  0  0  0  0  0  0  0  0  0  0  # atno 6907 bound_to 6896
  152.2497  134.8142  160.0457 H   0  0  0  0  0  0  0  0  0  0  0  0  # atno 6908 bound_to 6896
  151.8894  133.3477  159.3830 H   0  0  0  0  0  0  0  0  0  0  0  0  # atno 6909 bound_to 6896
  146.2418  140.1400  142.8336 H   0  0  0  0  0  0  0  0  0  0  0  0  # atno 7974 bound_to 7965
  154.4011  140.1521  156.3051 H   0  0  0  0  0  0  0  0  0  0  0  0  # atno 8008 bound_to 7997
  155.8666  140.3451  155.5770 H   0  0  0  0  0  0  0  0  0  0  0  0  # atno 8009 bound_to 7997
  155.7821  140.0845  157.2044 H   0  0  0  0  0  0  0  0  0  0  0  0  # atno 8010 bound_to 7997
  140.1068  143.4563  152.1778 H   0  0  0  0  0  0  0  0  0  0  0  0  # atno 10167 bound_to 10162
  157.6735  130.9855  150.1745 H   0  0  0  0  0  0  0  0  0  0  0  0  # atno 10718 bound_to 10713
  153.1603  135.6794  153.8753 H   0  0  0  0  0  0  0  0  0  0  0  0  # atno 10763 bound_to 10752
  153.8150  135.3138  155.3406 H   0  0  0  0  0  0  0  0  0  0  0  0  # atno 10764 bound_to 10752
  154.7927  135.4825  154.0179 H   0  0  0  0  0  0  0  0  0  0  0  0  # atno 10765 bound_to 10752
  140.0714  134.5465  155.9043 H   0  0  0  0  0  0  0  0  0  0  0  0  # atno 11005 bound_to 11000
  145.0255  140.8828  143.5141 LP  0  0  0  0  0  0  0  0  0  0  0  0  # atno 17320 bound_to 7965
  145.1455  139.2546  143.5468 LP  0  0  0  0  0  0  0  0  0  0  0  0  # atno 17321 bound_to 7965
  139.5641  144.7424  151.4072 LP  0  0  0  0  0  0  0  0  0  0  0  0  # atno 17342 bound_to 10162
  140.6948  143.7776  150.7309 LP  0  0  0  0  0  0  0  0  0  0  0  0  # atno 17343 bound_to 10162
  156.2491  130.3698  149.8252 LP  0  0  0  0  0  0  0  0  0  0  0  0  # atno 17370 bound_to 10713
  156.6030  130.8554  151.3436 LP  0  0  0  0  0  0  0  0  0  0  0  0  # atno 17371 bound_to 10713
  141.2013  133.6618  156.5943 LP  0  0  0  0  0  0  0  0  0  0  0  0  # atno 17394 bound_to 11000
  140.3622  134.7677  157.4542 LP  0  0  0  0  0  0  0  0  0  0  0  0  # atno 17395 bound_to 11000

$$$$
