AV-unprocessed.smi:2727|AV-procd|sdf|10523|dock7
  -GOLD-   2272014563D 1   1.00000     0.00000
 Structure written by MMmdl.
 40 41  0  0  0  0  0  0  0  0  1 V2000
  149.6410  140.8176  153.6051 O   0  0  0  0  0  0  0  0  0  0  0  0
  149.4154  140.0705  154.5630 C   0  0  0  0  0  0  0  0  0  0  0  0
  150.0904  140.1885  155.7166 N   0  0  0  0  0  0  0  0  0  0  0  0
  151.1297  141.1763  155.9887 C   0  0  0  0  0  0  0  0  0  0  0  0
  150.7787  142.0455  157.2135 C   0  0  0  0  0  0  0  0  0  0  0  0
  151.7491  141.8688  158.3952 C   0  0  0  0  0  0  0  0  0  0  0  0
  151.7953  140.7818  158.9745 O   0  0  0  0  0  0  0  0  0  0  0  0
  152.5212  142.9165  158.7755 N   0  0  0  0  0  0  0  0  0  0  0  0
  153.4065  142.8308  159.9434 C   0  0  0  0  0  0  0  0  0  0  0  0
  152.6497  143.0845  161.2633 C   0  0  0  0  0  0  0  0  0  0  0  0
  151.5115  144.1267  161.1975 C   0  0  0  0  0  0  0  0  0  0  0  0
  151.8177  145.3849  160.3612 C   0  0  0  0  0  0  0  0  0  0  0  0
  151.5498  145.2068  158.8515 C   0  0  0  0  0  0  0  0  0  0  0  0
  152.5166  144.2417  158.1393 C   0  0  0  0  0  0  0  0  0  0  0  0
  148.4915  139.0386  154.6544 N   0  0  0  0  0  0  0  0  0  0  0  0
  147.6703  138.8116  153.6748 C   0  0  0  0  0  0  0  0  0  0  0  0
  147.4785  139.4182  152.4359 N   0  0  0  0  0  0  0  0  0  0  0  0
  146.4601  138.7691  151.7959 C   0  0  0  0  0  0  0  0  0  0  0  0
  146.0275  137.7964  152.5923 C   0  0  0  0  0  0  0  0  0  0  0  0
  146.7491  137.7973  153.7483 O   0  0  0  0  0  0  0  0  0  0  0  0
  149.8607  139.5504  156.4647 H   0  0  0  0  0  0  0  0  0  0  0  0
  152.0876  140.6715  156.1288 H   0  0  0  0  0  0  0  0  0  0  0  0
  151.2359  141.8039  155.1032 H   0  0  0  0  0  0  0  0  0  0  0  0
  150.7643  143.0961  156.9217 H   0  0  0  0  0  0  0  0  0  0  0  0
  149.7730  141.7926  157.5486 H   0  0  0  0  0  0  0  0  0  0  0  0
  153.9122  141.8644  159.9808 H   0  0  0  0  0  0  0  0  0  0  0  0
  154.2140  143.5587  159.8599 H   0  0  0  0  0  0  0  0  0  0  0  0
  152.2288  142.1444  161.6217 H   0  0  0  0  0  0  0  0  0  0  0  0
  153.3738  143.3883  162.0201 H   0  0  0  0  0  0  0  0  0  0  0  0
  150.6036  143.6558  160.8179 H   0  0  0  0  0  0  0  0  0  0  0  0
  151.2732  144.4278  162.2182 H   0  0  0  0  0  0  0  0  0  0  0  0
  151.1744  146.1905  160.7165 H   0  0  0  0  0  0  0  0  0  0  0  0
  152.8400  145.7222  160.5362 H   0  0  0  0  0  0  0  0  0  0  0  0
  150.5206  144.8789  158.7041 H   0  0  0  0  0  0  0  0  0  0  0  0
  151.6194  146.1811  158.3669 H   0  0  0  0  0  0  0  0  0  0  0  0
  153.5208  144.6671  158.1457 H   0  0  0  0  0  0  0  0  0  0  0  0
  152.2627  144.1792  157.0813 H   0  0  0  0  0  0  0  0  0  0  0  0
  147.9780  140.2015  152.0397 H   0  0  0  0  0  0  0  0  0  0  0  0
  146.1451  139.0824  150.8115 H   0  0  0  0  0  0  0  0  0  0  0  0
  145.2512  137.0530  152.4869 H   0  0  0  0  0  0  0  0  0  0  0  0
  1  2  2  0  0  0  0
  2 15  1  0  0  0  0
  2  3  1  0  0  0  0
  3  4  1  0  0  0  0
  3 21  1  0  0  0  0
  4  5  1  0  0  0  0
  4 22  1  0  0  0  0
  4 23  1  0  0  0  0
  5  6  1  0  0  0  0
  5 24  1  0  0  0  0
  5 25  1  0  0  0  0
  6  7  2  0  0  0  0
  6  8  1  0  0  0  0
  8 14  1  0  0  0  0
  8  9  1  0  0  0  0
  9 10  1  0  0  0  0
  9 26  1  0  0  0  0
  9 27  1  0  0  0  0
 10 11  1  0  0  0  0
 10 28  1  0  0  0  0
 10 29  1  0  0  0  0
 11 12  1  0  0  0  0
 11 30  1  0  0  0  0
 11 31  1  0  0  0  0
 12 13  1  0  0  0  0
 12 32  1  0  0  0  0
 12 33  1  0  0  0  0
 13 14  1  0  0  0  0
 13 34  1  0  0  0  0
 13 35  1  0  0  0  0
 14 36  1  0  0  0  0
 14 37  1  0  0  0  0
 15 16  2  0  0  0  0
 16 20  1  0  0  0  0
 16 17  1  0  0  0  0
 17 38  1  0  0  0  0
 17 18  1  0  0  0  0
 18 39  1  0  0  0  0
 18 19  2  0  0  0  0
 19 40  1  0  0  0  0
 19 20  1  0  0  0  0
M  END
> <s_m_source_file>
AV-unprocessed.smi

> <i_m_source_file_index>
2727

> <i_lp_mmshare_version>
43012

> <i_f3d_flags>
0

> <s_epik_input>
bzFbY0hdW2NIXW5jMVtOSF1DKD1PKVtOSF1bQ0gyXVtDSDJdQyg9TylOMltDSDJdW0NIMl1bQ0gyXVtDSDJdW0NIMl1bQ0gyXTI=

> <s_epik_cmdline>
J2VwaWtfcHl0aG9uJywgJy1waCcsICc3LjAnLCAnLXRuJywgJzgnLCAnLW1hJywgJzIwMCcsICctbWV0YWxfYmluZGluZycsICctaW1hZScsICc8aW5maWxlLm1hZT4nLCAnLW9tYWUnLCAnPG91dGZpbGUubWFlPic=

> <r_lp_tautomer_probability>
0.107061

> <r_epik_Ionization_Penalty>
0.376272

> <r_epik_Ionization_Penalty_Charging>
0.375918

> <r_epik_Ionization_Penalty_Neutral>
0.000353756

> <r_epik_State_Penalty>
2.48665

> <r_epik_Charging_Adjusted_Penalty>
2.86256

> <i_epik_Tot_Q>
0

> <i_epik_Tot_abs_Q>
0

> <r_epik_Metal_State_Penalty>
4.1171

> <b_epik_Metal_Only>
0

> <s_lp_Force_Field>
OPLS_2005

> <r_lp_Energy>
47.9019

> <b_lp_Chiralities_Consistent>
1

> <s_lp_Variant>
AV-unprocessed.smi:2727-3

> <Gold.Version>
5.8.1

> <Gold.Id.Protein>
6NUR|6NUR_protein|mol2

> <Gold.PLP.Fitness>
52.0352

> <Gold.PLP.PLP>
-44.6265

> <Gold.PLP.part.hbond>
-2.9123

> <Gold.PLP.part.metal>
0.0000

> <Gold.PLP.part.buried>
-6.4580

> <Gold.PLP.part.nonpolar>
-41.5199

> <Gold.PLP.part.repulsive>
4.1972

> <Gold.PLP.ligand.clash>
0.0000

> <Gold.PLP.ligand.torsion>
0.4122

> <Gold.PLP.Chemscore.Hbond>
1.8390

> <Gold.PLP.Chemscore.CHOScore>
0.9010

> <Gold.PLP.Chemscore.Metal>
0.0000

> <Gold.Chemscore.Hbonds>
donor molecule, donor type, donor heavy atom, donor atom, acceptor molecule, acceptor atom, score
      L1  H    17    38       P1  7957  0.48
      P1  H  7989  7998       L1     1  0.38
      P1  H  8011  8017       L1     1  0.96
      L1  C    18    39       P1 10171  0.91

> <Gold.PLP.Chemscore.Internal.Correction>
0.0131

> <Gold.Rescore>
     Score         DG    S(hbond)    S(metal)    S(lipo)     H(rot)  DE(clash)    DE(int)     intcor
     17.80     -19.60       1.83        0.00     105.74       1.70       1.39       0.41       ----

> <Gold.Chemscore.Fitness>
17.8012

> <Gold.Chemscore.DG>
-19.6023

> <Gold.Chemscore.ZeroCoef>
-5.4800

> <Gold.Chemscore.Hbond>
1.8292

> <Gold.Chemscore.Metal>
0.0000

> <Gold.Chemscore.Lipo>
105.7356

> <Gold.Chemscore.Internal_Hbond>
0.0000

> <Gold.Chemscore.DEClash>
1.3910

> <Gold.Chemscore.DEInternal>
0.4101

> <Gold.Chemscore.Rot>
1.7025

> <Gold.Chemscore.Internal.Correction>
   9.000000E+99

> <Gold.Chemscore.Hbonds>
donor molecule, donor type, donor heavy atom, donor atom, acceptor molecule, acceptor atom, score
      L1  H    17    38       P1  7957  0.48
      P1  H  7989  7998       L1     1  0.21
      P1  H  8011  8017       L1     1  0.89

> <Gold.Chemscore.Hbond.Weighted>
-6.1096

> <Gold.Chemscore.Metal.Weighted>
-0.0000

> <Gold.Chemscore.Lipo.Weighted>
-12.3711

> <Gold.Chemscore.Internal_Hbond.Weighted>
0.0000

> <Gold.Chemscore.DEClash.Weighted>
1.3910

> <Gold.Chemscore.DEInternal.Weighted>
0.4101

> <Gold.Chemscore.Rot.Weighted>
4.3584

> <Gold.Chemscore.Internal.Correction.Weighted>
   9.000000E+99

> <Gold.Protein.RotatedTorsions>
[ 6907 6896 6895 6894 ] final   16.10 input  -60.11 | X-H torsion
[ 7974 7965 7964 7962 ] final  113.23 input  175.53 | X-H torsion
[ 8008 7997 7996 7995 ] final   51.67 input   59.86 | X-H torsion
[ 10167 10162 10161 10158 ] final -178.28 input  -65.29 | X-H torsion
[ 10718 10713 10712 10709 ] final  -52.10 input   66.30 | X-H torsion
[ 10763 10752 10751 10750 ] final  -51.26 input  -60.55 | X-H torsion
[ 11005 11000 10999 10996 ] final -140.75 input  -57.11 | X-H torsion

> <Gold.Protein.ActiveResidues>
 VAL166  LYS551  ARG553  GLY616  TRP617  ASP618  TYR619  PRO620  LYS621  CYS622 
 ASP623  PHE694  ASN695  SER759  ASP760  ASP761  ALA762  ILE779  LEU786  VAL792 
 PHE793  MET794  SER795  GLU796  ALA797  LYS798  CYS799  TRP800  GLU811  SER814 

> <Gold.Protein.RotatedAtoms>
  151.8286  135.0629  160.0433 H   0  0  0  0  0  0  0  0  0  0  0  0  # atno 6907 bound_to 6896
  152.2897  133.5545  159.5558 H   0  0  0  0  0  0  0  0  0  0  0  0  # atno 6908 bound_to 6896
  150.7225  134.0362  159.3792 H   0  0  0  0  0  0  0  0  0  0  0  0  # atno 6909 bound_to 6896
  145.2195  139.2868  143.4225 H   0  0  0  0  0  0  0  0  0  0  0  0  # atno 7974 bound_to 7965
  155.4391  140.3453  155.4288 H   0  0  0  0  0  0  0  0  0  0  0  0  # atno 8008 bound_to 7997
  156.1290  140.1508  156.9124 H   0  0  0  0  0  0  0  0  0  0  0  0  # atno 8009 bound_to 7997
  154.4880  140.0849  156.7510 H   0  0  0  0  0  0  0  0  0  0  0  0  # atno 8010 bound_to 7997
  139.5440  144.2286  152.0951 H   0  0  0  0  0  0  0  0  0  0  0  0  # atno 10167 bound_to 10162
  156.1651  130.4149  149.9733 H   0  0  0  0  0  0  0  0  0  0  0  0  # atno 10718 bound_to 10713
  154.1237  135.6531  153.4908 H   0  0  0  0  0  0  0  0  0  0  0  0  # atno 10763 bound_to 10752
  153.0217  135.5276  154.7071 H   0  0  0  0  0  0  0  0  0  0  0  0  # atno 10764 bound_to 10752
  154.6286  135.2973  155.0213 H   0  0  0  0  0  0  0  0  0  0  0  0  # atno 10765 bound_to 10752
  140.8392  134.2422  157.4818 H   0  0  0  0  0  0  0  0  0  0  0  0  # atno 11005 bound_to 11000
  146.3379  140.2497  142.8598 LP  0  0  0  0  0  0  0  0  0  0  0  0  # atno 17320 bound_to 7965
  144.9778  140.8431  143.5415 LP  0  0  0  0  0  0  0  0  0  0  0  0  # atno 17321 bound_to 7965
  140.1769  144.4882  150.6549 LP  0  0  0  0  0  0  0  0  0  0  0  0  # atno 17342 bound_to 10162
  140.6681  143.2275  151.5693 LP  0  0  0  0  0  0  0  0  0  0  0  0  # atno 17343 bound_to 10162
  156.7550  130.9130  151.3639 LP  0  0  0  0  0  0  0  0  0  0  0  0  # atno 17370 bound_to 10713
  157.6761  130.9096  150.0155 LP  0  0  0  0  0  0  0  0  0  0  0  0  # atno 17371 bound_to 10713
  139.8703  134.9627  156.4436 LP  0  0  0  0  0  0  0  0  0  0  0  0  # atno 17394 bound_to 11000
  140.8913  133.7846  155.9575 LP  0  0  0  0  0  0  0  0  0  0  0  0  # atno 17395 bound_to 11000

$$$$
