AV-unprocessed.smi:2226|AV-procd|sdf|9001|dock8
  -GOLD-   2272012213D 1   1.00000     0.00000
 Structure written by MMmdl.
 40 42  0  0  0  0  0  0  0  0  2 V2000
  145.8704  138.9151  154.6324 C   0  0  0  0  0  0  0  0  0  0  0  0
  147.1872  139.5517  154.8738 N   0  3  2  0  0  0  0  0  0  0  0  0
  147.5503  139.7072  156.3027 C   0  0  2  0  0  0  0  0  0  0  0  0
  146.6775  140.7838  156.9953 C   0  0  0  0  0  0  0  0  0  0  0  0
  146.6288  142.1310  156.2515 C   0  0  0  0  0  0  0  0  0  0  0  0
  146.5190  141.9619  154.7259 C   0  0  0  0  0  0  0  0  0  0  0  0
  147.4040  140.8279  154.1516 C   0  0  1  0  0  0  0  0  0  0  0  0
  148.9189  141.1353  154.1107 C   0  0  0  0  0  0  0  0  0  0  0  0
  149.6769  140.9898  155.4602 C   0  0  1  0  0  0  0  0  0  0  0  0
  149.8888  142.2632  156.1449 N   0  0  0  0  0  0  0  0  0  0  0  0
  150.4702  142.4217  157.3434 C   0  0  0  0  0  0  0  0  0  0  0  0
  150.9126  141.4875  158.0123 O   0  0  0  0  0  0  0  0  0  0  0  0
  150.5013  143.7157  157.7024 N   0  0  0  0  0  0  0  0  0  0  0  0
  151.0550  144.2694  158.8839 C   0  0  0  0  0  0  0  0  0  0  0  0
  151.3481  143.6127  160.0073 N   0  0  0  0  0  0  0  0  0  0  0  0
  151.8627  144.5833  160.8546 C   0  0  0  0  0  0  0  0  0  0  0  0
  151.8518  145.7818  160.1887 C   0  0  0  0  0  0  0  0  0  0  0  0
  151.3411  145.5971  158.9321 O   0  0  0  0  0  0  0  0  0  0  0  0
  149.0775  139.9245  156.4136 C   0  0  0  0  0  0  0  0  0  0  0  0
  145.0436  139.5169  155.0087 H   0  0  0  0  0  0  0  0  0  0  0  0
  145.8261  137.9400  155.1180 H   0  0  0  0  0  0  0  0  0  0  0  0
  145.7146  138.7574  153.5649 H   0  0  0  0  0  0  0  0  0  0  0  0
  147.3416  138.7603  156.8027 H   0  0  0  0  0  0  0  0  0  0  0  0
  145.6591  140.4045  157.0820 H   0  0  0  0  0  0  0  0  0  0  0  0
  147.0152  140.9395  158.0203 H   0  0  0  0  0  0  0  0  0  0  0  0
  145.7823  142.7152  156.6138 H   0  0  0  0  0  0  0  0  0  0  0  0
  147.4961  142.7324  156.5004 H   0  0  0  0  0  0  0  0  0  0  0  0
  145.4779  141.7543  154.4770 H   0  0  0  0  0  0  0  0  0  0  0  0
  146.7510  142.9061  154.2321 H   0  0  0  0  0  0  0  0  0  0  0  0
  147.0958  140.6790  153.1156 H   0  0  0  0  0  0  0  0  0  0  0  0
  149.3668  140.4215  153.4178 H   0  0  0  0  0  0  0  0  0  0  0  0
  149.0949  142.1108  153.6561 H   0  0  0  0  0  0  0  0  0  0  0  0
  150.6828  140.6399  155.2187 H   0  0  0  0  0  0  0  0  0  0  0  0
  149.5559  143.0907  155.6720 H   0  0  0  0  0  0  0  0  0  0  0  0
  150.0884  144.3780  157.0626 H   0  0  0  0  0  0  0  0  0  0  0  0
  152.1935  144.3477  161.8554 H   0  0  0  0  0  0  0  0  0  0  0  0
  152.1514  146.7862  160.4484 H   0  0  0  0  0  0  0  0  0  0  0  0
  149.3628  140.1213  157.4481 H   0  0  0  0  0  0  0  0  0  0  0  0
  149.5507  138.9725  156.1677 H   0  0  0  0  0  0  0  0  0  0  0  0
  147.8587  138.9025  154.4892 H   0  0  0  0  0  0  0  0  0  0  0  0
  1  2  1  0  0  0  0
  1 20  1  0  0  0  0
  1 21  1  0  0  0  0
  1 22  1  0  0  0  0
  2  7  1  0  0  0  0
  2  3  1  0  0  0  0
  2 40  1  0  0  0  0
  3 19  1  0  0  0  0
  3  4  1  0  0  0  0
  3 23  1  0  0  0  0
  4  5  1  0  0  0  0
  4 24  1  0  0  0  0
  4 25  1  0  0  0  0
  5  6  1  0  0  0  0
  5 26  1  0  0  0  0
  5 27  1  0  0  0  0
  6  7  1  0  0  0  0
  6 28  1  0  0  0  0
  6 29  1  0  0  0  0
  7  8  1  0  0  0  0
  7 30  1  0  0  0  0
  8  9  1  0  0  0  0
  8 31  1  0  0  0  0
  8 32  1  0  0  0  0
  9 10  1  0  0  0  0
  9 19  1  0  0  0  0
  9 33  1  0  0  0  0
 10 11  1  0  0  0  0
 10 34  1  0  0  0  0
 11 12  2  0  0  0  0
 11 13  1  0  0  0  0
 13 14  1  0  0  0  0
 13 35  1  0  0  0  0
 14 18  1  0  0  0  0
 14 15  2  0  0  0  0
 15 16  1  0  0  0  0
 16 17  2  0  0  0  0
 16 36  1  0  0  0  0
 17 18  1  0  0  0  0
 17 37  1  0  0  0  0
 19 38  1  0  0  0  0
 19 39  1  0  0  0  0
M  CHG  1   2   1
M  END
> <s_m_source_file>
AV-unprocessed.smi

> <i_m_source_file_index>
2226

> <i_lp_mmshare_version>
43012

> <i_f3d_flags>
0

> <s_epik_input>
W0NIMl0xW0NIMl1bQ0gyXVtDQEhdKE4oW0NIM10pW0NIXTEyKVtDSDJdW0NASF0oW0NIMl0yKVtOSF1DKD1PKVtOSF1jM25bY0hdW2NIXW8z

> <s_epik_cmdline>
J2VwaWtfcHl0aG9uJywgJy1waCcsICc3LjAnLCAnLXRuJywgJzgnLCAnLW1hJywgJzIwMCcsICctbWV0YWxfYmluZGluZycsICctaW1hZScsICc8aW5maWxlLm1hZT4nLCAnLW9tYWUnLCAnPG91dGZpbGUubWFlPic=

> <r_lp_tautomer_probability>
0.785861

> <r_epik_Ionization_Penalty>
0.000929358

> <r_epik_Ionization_Penalty_Charging>
0.000890041

> <r_epik_Ionization_Penalty_Neutral>
3.93161e-05

> <r_epik_State_Penalty>
0.0312137

> <r_epik_Charging_Adjusted_Penalty>
0.0321037

> <i_epik_Tot_Q>
1

> <i_epik_Tot_abs_Q>
1

> <r_epik_Metal_State_Penalty>
0.0605703

> <b_epik_Metal_Only>
0

> <s_lp_Force_Field>
OPLS_2005

> <r_lp_Energy>
36.0435

> <b_lp_Chiralities_Consistent>
1

> <s_lp_Variant>
AV-unprocessed.smi:2226-1

> <Gold.Version>
5.8.1

> <Gold.Id.Protein>
6NUR|6NUR_protein|mol2

> <Gold.PLP.Fitness>
36.0052

> <Gold.PLP.PLP>
-30.2544

> <Gold.PLP.part.hbond>
-3.0000

> <Gold.PLP.part.metal>
0.0000

> <Gold.PLP.part.buried>
-4.4430

> <Gold.PLP.part.nonpolar>
-23.3046

> <Gold.PLP.part.repulsive>
0.3305

> <Gold.PLP.ligand.clash>
0.0000

> <Gold.PLP.ligand.torsion>
0.1523

> <Gold.PLP.Chemscore.Hbond>
2.0000

> <Gold.PLP.Chemscore.CHOScore>
0.0000

> <Gold.PLP.Chemscore.Metal>
0.0000

> <Gold.Chemscore.Hbonds>
donor molecule, donor type, donor heavy atom, donor atom, acceptor molecule, acceptor atom, score
      L1  H    10    34       P1  8028  1.00
      L1  H    13    35       P1  8028  1.00

> <Gold.PLP.Chemscore.Internal.Correction>
0.0553

> <Gold.Rescore>
     Score         DG    S(hbond)    S(metal)    S(lipo)     H(rot)  DE(clash)    DE(int)     intcor
     13.70     -16.50       1.95        0.00      60.37       1.00       0.24       2.56       ----

> <Gold.Chemscore.Fitness>
13.6983

> <Gold.Chemscore.DG>
-16.4986

> <Gold.Chemscore.ZeroCoef>
-5.4800

> <Gold.Chemscore.Hbond>
1.9506

> <Gold.Chemscore.Metal>
0.0000

> <Gold.Chemscore.Lipo>
60.3726

> <Gold.Chemscore.Internal_Hbond>
0.0000

> <Gold.Chemscore.DEClash>
0.2375

> <Gold.Chemscore.DEInternal>
2.5628

> <Gold.Chemscore.Rot>
1.0000

> <Gold.Chemscore.Internal.Correction>
   9.000000E+99

> <Gold.Chemscore.Hbonds>
donor molecule, donor type, donor heavy atom, donor atom, acceptor molecule, acceptor atom, score
      L1  H    10    34       P1  8028  0.97
      L1  H    13    35       P1  8028  0.66

> <Gold.Chemscore.Hbond.Weighted>
-6.5150

> <Gold.Chemscore.Metal.Weighted>
-0.0000

> <Gold.Chemscore.Lipo.Weighted>
-7.0636

> <Gold.Chemscore.Internal_Hbond.Weighted>
0.0000

> <Gold.Chemscore.DEClash.Weighted>
0.2375

> <Gold.Chemscore.DEInternal.Weighted>
2.5628

> <Gold.Chemscore.Rot.Weighted>
2.5600

> <Gold.Chemscore.Internal.Correction.Weighted>
   9.000000E+99

> <Gold.Protein.RotatedTorsions>
[ 6907 6896 6895 6894 ] final   -9.84 input  -60.11 | X-H torsion
[ 7974 7965 7964 7962 ] final  146.77 input  175.53 | X-H torsion
[ 8008 7997 7996 7995 ] final  -95.95 input   59.86 | X-H torsion
[ 10167 10162 10161 10158 ] final   56.05 input  -65.29 | X-H torsion
[ 10718 10713 10712 10709 ] final  -48.56 input   66.30 | X-H torsion
[ 10763 10752 10751 10750 ] final  -64.52 input  -60.55 | X-H torsion
[ 11005 11000 10999 10996 ] final -177.87 input  -57.11 | X-H torsion

> <Gold.Protein.ActiveResidues>
 VAL166  LYS551  ARG553  GLY616  TRP617  ASP618  TYR619  PRO620  LYS621  CYS622 
 ASP623  PHE694  ASN695  SER759  ASP760  ASP761  ALA762  ILE779  LEU786  VAL792 
 PHE793  MET794  SER795  GLU796  ALA797  LYS798  CYS799  TRP800  GLU811  SER814 

> <Gold.Protein.RotatedAtoms>
  151.4115  135.0985  159.9586 H   0  0  0  0  0  0  0  0  0  0  0  0  # atno 6907 bound_to 6896
  152.5018  133.8793  159.7348 H   0  0  0  0  0  0  0  0  0  0  0  0  # atno 6908 bound_to 6896
  150.9289  133.6733  159.2843 H   0  0  0  0  0  0  0  0  0  0  0  0  # atno 6909 bound_to 6896
  144.8645  139.5946  143.5915 H   0  0  0  0  0  0  0  0  0  0  0  0  # atno 7974 bound_to 7965
  154.7680  140.0475  157.1028 H   0  0  0  0  0  0  0  0  0  0  0  0  # atno 8008 bound_to 7997
  154.9855  140.3107  155.4908 H   0  0  0  0  0  0  0  0  0  0  0  0  # atno 8009 bound_to 7997
  156.2916  140.2228  156.4957 H   0  0  0  0  0  0  0  0  0  0  0  0  # atno 8010 bound_to 7997
  140.2129  144.3870  150.6481 H   0  0  0  0  0  0  0  0  0  0  0  0  # atno 10167 bound_to 10162
  156.1976  130.4155  149.9285 H   0  0  0  0  0  0  0  0  0  0  0  0  # atno 10718 bound_to 10713
  154.3313  135.6176  153.5553 H   0  0  0  0  0  0  0  0  0  0  0  0  # atno 10763 bound_to 10752
  152.9811  135.5747  154.4958 H   0  0  0  0  0  0  0  0  0  0  0  0  # atno 10764 bound_to 10752
  154.4645  135.2857  155.1665 H   0  0  0  0  0  0  0  0  0  0  0  0  # atno 10765 bound_to 10752
  140.4361  134.6474  157.4735 H   0  0  0  0  0  0  0  0  0  0  0  0  # atno 11005 bound_to 11000
  146.2885  139.7072  142.9178 LP  0  0  0  0  0  0  0  0  0  0  0  0  # atno 17320 bound_to 7965
  145.4249  141.0410  143.2943 LP  0  0  0  0  0  0  0  0  0  0  0  0  # atno 17321 bound_to 7965
  140.6311  143.2187  151.6494 LP  0  0  0  0  0  0  0  0  0  0  0  0  # atno 17342 bound_to 10162
  139.5173  144.3319  152.0818 LP  0  0  0  0  0  0  0  0  0  0  0  0  # atno 17343 bound_to 10162
  156.7005  130.8931  151.3599 LP  0  0  0  0  0  0  0  0  0  0  0  0  # atno 17370 bound_to 10713
  157.6967  130.9289  150.0664 LP  0  0  0  0  0  0  0  0  0  0  0  0  # atno 17371 bound_to 10713
  140.0101  134.6703  155.9394 LP  0  0  0  0  0  0  0  0  0  0  0  0  # atno 17394 bound_to 11000
  141.1725  133.6538  156.4705 LP  0  0  0  0  0  0  0  0  0  0  0  0  # atno 17395 bound_to 11000

$$$$
