AV-unprocessed.smi:1978|AV-procd|sdf|7998|dock3
  -GOLD-   2272010183D 1   1.00000     0.00000
 Structure written by MMmdl.
 45 46  0  0  0  0  0  0  0  0  2 V2000
  146.2573  130.2493  152.2233 C   0  0  0  0  0  0  0  0  0  0  0  0
  147.1481  131.1914  152.9580 C   0  0  0  0  0  0  0  0  0  0  0  0
  147.5490  132.4746  152.7123 C   0  0  0  0  0  0  0  0  0  0  0  0
  148.3922  132.7630  153.8182 C   0  0  0  0  0  0  0  0  0  0  0  0
  149.0190  134.0287  153.9459 N   0  0  0  0  0  0  0  0  0  0  0  0
  149.6807  134.5094  155.0121 C   0  0  0  0  0  0  0  0  0  0  0  0
  149.8664  133.9022  156.0671 O   0  0  0  0  0  0  0  0  0  0  0  0
  150.1209  135.7570  154.7937 N   0  0  0  0  0  0  0  0  0  0  0  0
  150.8636  136.5606  155.7615 C   0  0  0  0  0  0  0  0  0  0  0  0
  151.2443  137.9732  155.2289 C   0  0  2  0  0  0  0  0  0  0  0  0
  152.7233  137.9593  154.7617 C   0  0  0  0  0  0  0  0  0  0  0  0
  150.9661  139.0443  156.2495 N   0  3  2  0  0  0  0  0  0  0  0  0
  149.7234  138.8140  157.0488 C   0  0  0  0  0  0  0  0  0  0  0  0
  149.6165  139.7919  158.2308 C   0  0  0  0  0  0  0  0  0  0  0  0
  149.6759  141.2467  157.7614 C   0  0  0  0  0  0  0  0  0  0  0  0
  150.9390  141.4611  156.9205 C   0  0  0  0  0  0  0  0  0  0  0  0
  151.0380  140.4594  155.7503 C   0  0  2  0  0  0  0  0  0  0  0  0
  150.0137  140.7724  154.6354 C   0  0  0  0  0  0  0  0  0  0  0  0
  148.4992  131.7471  154.6609 N   0  0  0  0  0  0  0  0  0  0  0  0
  147.7030  130.7342  154.1133 O   0  0  0  0  0  0  0  0  0  0  0  0
  145.6105  130.7868  151.5297 H   0  0  0  0  0  0  0  0  0  0  0  0
  145.6227  129.6952  152.9154 H   0  0  0  0  0  0  0  0  0  0  0  0
  146.8442  129.5306  151.6515 H   0  0  0  0  0  0  0  0  0  0  0  0
  147.2785  133.1025  151.8764 H   0  0  0  0  0  0  0  0  0  0  0  0
  148.9458  134.6361  153.1430 H   0  0  0  0  0  0  0  0  0  0  0  0
  149.9275  136.1821  153.8985 H   0  0  0  0  0  0  0  0  0  0  0  0
  150.2522  136.6008  156.6607 H   0  0  0  0  0  0  0  0  0  0  0  0
  151.7667  136.0117  156.0304 H   0  0  0  0  0  0  0  0  0  0  0  0
  150.6253  138.1893  154.3569 H   0  0  0  0  0  0  0  0  0  0  0  0
  152.9223  137.1525  154.0568 H   0  0  0  0  0  0  0  0  0  0  0  0
  153.4029  137.8292  155.6044 H   0  0  0  0  0  0  0  0  0  0  0  0
  153.0083  138.8687  154.2351 H   0  0  0  0  0  0  0  0  0  0  0  0
  148.8445  138.8901  156.4080 H   0  0  0  0  0  0  0  0  0  0  0  0
  149.6972  137.8162  157.4766 H   0  0  0  0  0  0  0  0  0  0  0  0
  148.6887  139.6168  158.7767 H   0  0  0  0  0  0  0  0  0  0  0  0
  150.4282  139.6022  158.9344 H   0  0  0  0  0  0  0  0  0  0  0  0
  148.7861  141.4893  157.1799 H   0  0  0  0  0  0  0  0  0  0  0  0
  149.6767  141.9190  158.6198 H   0  0  0  0  0  0  0  0  0  0  0  0
  150.9671  142.4851  156.5458 H   0  0  0  0  0  0  0  0  0  0  0  0
  151.8151  141.3512  157.5614 H   0  0  0  0  0  0  0  0  0  0  0  0
  152.0311  140.6288  155.3371 H   0  0  0  0  0  0  0  0  0  0  0  0
  150.1325  141.7974  154.2832 H   0  0  0  0  0  0  0  0  0  0  0  0
  148.9838  140.6683  154.9744 H   0  0  0  0  0  0  0  0  0  0  0  0
  150.1373  140.1251  153.7683 H   0  0  0  0  0  0  0  0  0  0  0  0
  151.7249  138.9699  156.9117 H   0  0  0  0  0  0  0  0  0  0  0  0
  1  2  1  0  0  0  0
  1 21  1  0  0  0  0
  1 22  1  0  0  0  0
  1 23  1  0  0  0  0
  2 20  1  0  0  0  0
  2  3  2  0  0  0  0
  3  4  1  0  0  0  0
  3 24  1  0  0  0  0
  4  5  1  0  0  0  0
  4 19  2  0  0  0  0
  5  6  1  0  0  0  0
  5 25  1  0  0  0  0
  6  7  2  0  0  0  0
  6  8  1  0  0  0  0
  8  9  1  0  0  0  0
  8 26  1  0  0  0  0
  9 10  1  0  0  0  0
  9 27  1  0  0  0  0
  9 28  1  0  0  0  0
 10 11  1  0  0  0  0
 10 12  1  0  0  0  0
 10 29  1  0  0  0  0
 11 30  1  0  0  0  0
 11 31  1  0  0  0  0
 11 32  1  0  0  0  0
 12 17  1  0  0  0  0
 12 13  1  0  0  0  0
 12 45  1  0  0  0  0
 13 14  1  0  0  0  0
 13 33  1  0  0  0  0
 13 34  1  0  0  0  0
 14 15  1  0  0  0  0
 14 35  1  0  0  0  0
 14 36  1  0  0  0  0
 15 16  1  0  0  0  0
 15 37  1  0  0  0  0
 15 38  1  0  0  0  0
 16 17  1  0  0  0  0
 16 39  1  0  0  0  0
 16 40  1  0  0  0  0
 17 18  1  0  0  0  0
 17 41  1  0  0  0  0
 18 42  1  0  0  0  0
 18 43  1  0  0  0  0
 18 44  1  0  0  0  0
 19 20  1  0  0  0  0
M  CHG  1  12   1
M  END
> <s_m_source_file>
AV-unprocessed.smi

> <i_m_source_file_index>
1978

> <i_lp_mmshare_version>
43012

> <i_f3d_flags>
0

> <s_epik_input>
W0NIM11jMVtjSF1jKG5vMSlbTkhdQyg9TylbTkhdW0NIMl1bQ0BIXShbQ0gzXSlOMltDSDJdW0NIMl1bQ0gyXVtDSDJdW0NASF0yW0NIM10=

> <s_epik_cmdline>
J2VwaWtfcHl0aG9uJywgJy1waCcsICc3LjAnLCAnLXRuJywgJzgnLCAnLW1hJywgJzIwMCcsICctbWV0YWxfYmluZGluZycsICctaW1hZScsICc8aW5maWxlLm1hZT4nLCAnLW9tYWUnLCAnPG91dGZpbGUubWFlPic=

> <r_epik_Ionization_Penalty>
0.00265971

> <r_epik_Ionization_Penalty_Charging>
0.00262393

> <r_epik_Ionization_Penalty_Neutral>
3.57846e-05

> <r_epik_State_Penalty>
0.00182566

> <r_epik_Charging_Adjusted_Penalty>
0.00444959

> <i_epik_Tot_Q>
1

> <i_epik_Tot_abs_Q>
1

> <r_epik_Metal_State_Penalty>
0.0216344

> <b_epik_Metal_Only>
0

> <s_lp_Force_Field>
OPLS_2005

> <r_lp_Energy>
22.9215

> <b_lp_Chiralities_Consistent>
1

> <s_lp_Variant>
AV-unprocessed.smi:1978-7

> <Gold.Version>
5.8.1

> <Gold.Id.Protein>
6NUR|6NUR_protein|mol2

> <Gold.PLP.Fitness>
36.0003

> <Gold.PLP.PLP>
-31.6838

> <Gold.PLP.part.hbond>
-2.2140

> <Gold.PLP.part.metal>
0.0000

> <Gold.PLP.part.buried>
-3.8378

> <Gold.PLP.part.nonpolar>
-25.4993

> <Gold.PLP.part.repulsive>
0.2454

> <Gold.PLP.ligand.clash>
0.0000

> <Gold.PLP.ligand.torsion>
0.8795

> <Gold.PLP.Chemscore.Hbond>
1.9920

> <Gold.PLP.Chemscore.CHOScore>
0.0000

> <Gold.PLP.Chemscore.Metal>
0.0000

> <Gold.Chemscore.Hbonds>
donor molecule, donor type, donor heavy atom, donor atom, acceptor molecule, acceptor atom, score
      L1  H     5    25       P1  7948  0.70
      L1  H     8    26       P1  7948  0.51

> <Gold.PLP.Chemscore.Internal.Correction>
0.0996

> <Gold.Rescore>
     Score         DG    S(hbond)    S(metal)    S(lipo)     H(rot)  DE(clash)    DE(int)     intcor
     11.72     -13.97       1.38        0.00      67.00       1.55       0.06       2.19       ----

> <Gold.Chemscore.Fitness>
11.7225

> <Gold.Chemscore.DG>
-13.9735

> <Gold.Chemscore.ZeroCoef>
-5.4800

> <Gold.Chemscore.Hbond>
1.3819

> <Gold.Chemscore.Metal>
0.0000

> <Gold.Chemscore.Lipo>
67.0034

> <Gold.Chemscore.Internal_Hbond>
0.0000

> <Gold.Chemscore.DEClash>
0.0640

> <Gold.Chemscore.DEInternal>
2.1871

> <Gold.Chemscore.Rot>
1.5474

> <Gold.Chemscore.Internal.Correction>
   9.000000E+99

> <Gold.Chemscore.Hbonds>
donor molecule, donor type, donor heavy atom, donor atom, acceptor molecule, acceptor atom, score
      L1  H     5    25       P1  7948  0.07
      L1  H     8    26       P1  7948  0.11

> <Gold.Chemscore.Hbond.Weighted>
-4.6154

> <Gold.Chemscore.Metal.Weighted>
-0.0000

> <Gold.Chemscore.Lipo.Weighted>
-7.8394

> <Gold.Chemscore.Internal_Hbond.Weighted>
0.0000

> <Gold.Chemscore.DEClash.Weighted>
0.0640

> <Gold.Chemscore.DEInternal.Weighted>
2.1871

> <Gold.Chemscore.Rot.Weighted>
3.9612

> <Gold.Chemscore.Internal.Correction.Weighted>
   9.000000E+99

> <Gold.Protein.RotatedTorsions>
[ 6907 6896 6895 6894 ] final    9.96 input  -60.11 | X-H torsion
[ 7974 7965 7964 7962 ] final -113.37 input  175.53 | X-H torsion
[ 8008 7997 7996 7995 ] final  -39.21 input   59.86 | X-H torsion
[ 10167 10162 10161 10158 ] final -157.93 input  -65.29 | X-H torsion
[ 10718 10713 10712 10709 ] final -174.86 input   66.30 | X-H torsion
[ 10763 10752 10751 10750 ] final  -32.90 input  -60.55 | X-H torsion
[ 11005 11000 10999 10996 ] final -177.37 input  -57.11 | X-H torsion

> <Gold.Protein.ActiveResidues>
 VAL166  LYS551  ARG553  GLY616  TRP617  ASP618  TYR619  PRO620  LYS621  CYS622 
 ASP623  PHE694  ASN695  SER759  ASP760  ASP761  ALA762  ILE779  LEU786  VAL792 
 PHE793  MET794  SER795  GLU796  ALA797  LYS798  CYS799  TRP800  GLU811  SER814 

> <Gold.Protein.RotatedAtoms>
  151.7305  135.0876  160.0299 H   0  0  0  0  0  0  0  0  0  0  0  0  # atno 6907 bound_to 6896
  152.3544  133.6215  159.5977 H   0  0  0  0  0  0  0  0  0  0  0  0  # atno 6908 bound_to 6896
  150.7561  133.9439  159.3506 H   0  0  0  0  0  0  0  0  0  0  0  0  # atno 6909 bound_to 6896
  145.1328  140.8734  143.3748 H   0  0  0  0  0  0  0  0  0  0  0  0  # atno 7974 bound_to 7965
  154.4026  140.1557  156.2826 H   0  0  0  0  0  0  0  0  0  0  0  0  # atno 8008 bound_to 7997
  155.8856  140.3441  155.5897 H   0  0  0  0  0  0  0  0  0  0  0  0  # atno 8009 bound_to 7997
  155.7617  140.0818  157.2142 H   0  0  0  0  0  0  0  0  0  0  0  0  # atno 8010 bound_to 7997
  139.6732  143.9709  152.2295 H   0  0  0  0  0  0  0  0  0  0  0  0  # atno 10167 bound_to 10162
  156.7914  130.9519  151.3120 H   0  0  0  0  0  0  0  0  0  0  0  0  # atno 10718 bound_to 10713
  153.8213  135.6874  153.4827 H   0  0  0  0  0  0  0  0  0  0  0  0  # atno 10763 bound_to 10752
  153.1567  135.4596  154.9713 H   0  0  0  0  0  0  0  0  0  0  0  0  # atno 10764 bound_to 10752
  154.7926  135.3307  154.7685 H   0  0  0  0  0  0  0  0  0  0  0  0  # atno 10765 bound_to 10752
  140.4417  134.6425  157.4760 H   0  0  0  0  0  0  0  0  0  0  0  0  # atno 11005 bound_to 11000
  145.0617  139.3100  143.5877 LP  0  0  0  0  0  0  0  0  0  0  0  0  # atno 17320 bound_to 7965
  146.3512  140.0061  142.8671 LP  0  0  0  0  0  0  0  0  0  0  0  0  # atno 17321 bound_to 7965
  139.9479  144.6639  150.8201 LP  0  0  0  0  0  0  0  0  0  0  0  0  # atno 17342 bound_to 10162
  140.7626  143.3201  151.2641 LP  0  0  0  0  0  0  0  0  0  0  0  0  # atno 17343 bound_to 10162
  157.6599  130.8957  149.9807 LP  0  0  0  0  0  0  0  0  0  0  0  0  # atno 17370 bound_to 10713
  156.1157  130.3648  149.9973 LP  0  0  0  0  0  0  0  0  0  0  0  0  # atno 17371 bound_to 10713
  140.0065  134.6755  155.9446 LP  0  0  0  0  0  0  0  0  0  0  0  0  # atno 17394 bound_to 11000
  141.1703  133.6537  156.4626 LP  0  0  0  0  0  0  0  0  0  0  0  0  # atno 17395 bound_to 11000

$$$$
