AV-unprocessed.smi:2177|AV-procd|sdf|8848|dock1
  -GOLD-   2272012 43D 1   1.00000     0.00000
 Structure written by MMmdl.
 42 43  0  0  0  0  0  0  0  0  1 V2000
  153.0808  138.1927  155.2358 C   0  0  0  0  0  0  0  0  0  0  0  0
  152.0320  139.2467  155.4468 C   0  0  0  0  0  0  0  0  0  0  0  0
  152.3365  140.3425  156.1221 N   0  0  0  0  0  0  0  0  0  0  0  0
  151.1957  141.0602  156.1454 N   0  0  0  0  0  0  0  0  0  0  0  0
  151.1745  142.3396  156.8273 C   0  0  0  0  0  0  0  0  0  0  0  0
  150.1704  140.4204  155.4769 C   0  0  0  0  0  0  0  0  0  0  0  0
  148.8014  141.0114  155.3694 C   0  0  0  0  0  0  0  0  0  0  0  0
  150.6741  139.2342  155.0124 C   0  0  0  0  0  0  0  0  0  0  0  0
  149.9724  138.1424  154.2418 C   0  0  0  0  0  0  0  0  0  0  0  0
  149.8894  136.8838  155.1060 C   0  0  0  0  0  0  0  0  0  0  0  0
  150.1288  136.9448  156.3114 O   0  0  0  0  0  0  0  0  0  0  0  0
  149.5292  135.7561  154.4740 N   0  0  0  0  0  0  0  0  0  0  0  0
  149.2492  134.4710  155.1057 C   0  0  2  0  0  0  0  0  0  0  0  0
  150.4312  134.0607  155.9969 C   0  0  0  0  0  0  0  0  0  0  0  0
  148.9519  133.4242  154.0153 C   0  0  2  0  0  0  0  0  0  0  0  0
  147.6155  133.6154  153.2922 C   0  0  0  0  0  0  0  0  0  0  0  0
  147.2535  132.2148  152.8226 C   0  0  0  0  0  0  0  0  0  0  0  0
  148.2164  131.3022  153.5873 C   0  0  0  0  0  0  0  0  0  0  0  0
  148.8022  132.1317  154.5804 O   0  0  0  0  0  0  0  0  0  0  0  0
  152.7928  137.2575  155.7165 H   0  0  0  0  0  0  0  0  0  0  0  0
  154.0460  138.4924  155.6457 H   0  0  0  0  0  0  0  0  0  0  0  0
  153.2213  137.9901  154.1741 H   0  0  0  0  0  0  0  0  0  0  0  0
  151.0576  143.1406  156.0973 H   0  0  0  0  0  0  0  0  0  0  0  0
  152.1013  142.4969  157.3809 H   0  0  0  0  0  0  0  0  0  0  0  0
  150.3389  142.3688  157.5270 H   0  0  0  0  0  0  0  0  0  0  0  0
  148.1773  140.4449  154.6790 H   0  0  0  0  0  0  0  0  0  0  0  0
  148.8476  142.0388  155.0084 H   0  0  0  0  0  0  0  0  0  0  0  0
  148.3063  141.0150  156.3406 H   0  0  0  0  0  0  0  0  0  0  0  0
  148.9653  138.4367  153.9456 H   0  0  0  0  0  0  0  0  0  0  0  0
  150.5012  137.9081  153.3174 H   0  0  0  0  0  0  0  0  0  0  0  0
  149.3646  135.8124  153.4795 H   0  0  0  0  0  0  0  0  0  0  0  0
  148.3600  134.5627  155.7326 H   0  0  0  0  0  0  0  0  0  0  0  0
  150.2366  133.1100  156.4937 H   0  0  0  0  0  0  0  0  0  0  0  0
  150.6148  134.8040  156.7731 H   0  0  0  0  0  0  0  0  0  0  0  0
  151.3477  133.9509  155.4161 H   0  0  0  0  0  0  0  0  0  0  0  0
  149.7625  133.3970  153.2839 H   0  0  0  0  0  0  0  0  0  0  0  0
  146.8565  133.9728  153.9897 H   0  0  0  0  0  0  0  0  0  0  0  0
  147.6784  134.3325  152.4731 H   0  0  0  0  0  0  0  0  0  0  0  0
  146.2130  131.9868  153.0570 H   0  0  0  0  0  0  0  0  0  0  0  0
  147.3884  132.1032  151.7461 H   0  0  0  0  0  0  0  0  0  0  0  0
  147.7146  130.4445  154.0357 H   0  0  0  0  0  0  0  0  0  0  0  0
  148.9993  130.9303  152.9244 H   0  0  0  0  0  0  0  0  0  0  0  0
  1  2  1  0  0  0  0
  1 20  1  0  0  0  0
  1 21  1  0  0  0  0
  1 22  1  0  0  0  0
  2  8  1  0  0  0  0
  2  3  2  0  0  0  0
  3  4  1  0  0  0  0
  4  5  1  0  0  0  0
  4  6  1  0  0  0  0
  5 23  1  0  0  0  0
  5 24  1  0  0  0  0
  5 25  1  0  0  0  0
  6  7  1  0  0  0  0
  6  8  2  0  0  0  0
  7 26  1  0  0  0  0
  7 27  1  0  0  0  0
  7 28  1  0  0  0  0
  8  9  1  0  0  0  0
  9 10  1  0  0  0  0
  9 29  1  0  0  0  0
  9 30  1  0  0  0  0
 10 11  2  0  0  0  0
 10 12  1  0  0  0  0
 12 13  1  0  0  0  0
 12 31  1  0  0  0  0
 13 14  1  0  0  0  0
 13 15  1  0  0  0  0
 13 32  1  0  0  0  0
 14 33  1  0  0  0  0
 14 34  1  0  0  0  0
 14 35  1  0  0  0  0
 15 19  1  0  0  0  0
 15 16  1  0  0  0  0
 15 36  1  0  0  0  0
 16 17  1  0  0  0  0
 16 37  1  0  0  0  0
 16 38  1  0  0  0  0
 17 18  1  0  0  0  0
 17 39  1  0  0  0  0
 17 40  1  0  0  0  0
 18 19  1  0  0  0  0
 18 41  1  0  0  0  0
 18 42  1  0  0  0  0
M  END
> <s_m_source_file>
AV-unprocessed.smi

> <i_m_source_file_index>
2177

> <i_lp_mmshare_version>
43012

> <i_f3d_flags>
0

> <s_epik_input>
W0NIM11jMW5uKFtDSDNdKWMoW0NIM10pYzFbQ0gyXUMoPU8pW05IXVtDQEhdKFtDSDNdKVtDQEBIXTJbQ0gyXVtDSDJdW0NIMl1PMg==

> <s_epik_cmdline>
J2VwaWtfcHl0aG9uJywgJy1waCcsICc3LjAnLCAnLXRuJywgJzgnLCAnLW1hJywgJzIwMCcsICctbWV0YWxfYmluZGluZycsICctaW1hZScsICc8aW5maWxlLm1hZT4nLCAnLW9tYWUnLCAnPG91dGZpbGUubWFlPic=

> <r_lp_tautomer_probability>
1

> <r_epik_Ionization_Penalty>
0.00310467

> <r_epik_Ionization_Penalty_Charging>
0

> <r_epik_Ionization_Penalty_Neutral>
0.00310467

> <r_epik_State_Penalty>
0.00218493

> <r_epik_Charging_Adjusted_Penalty>
0.00218493

> <i_epik_Tot_Q>
0

> <i_epik_Tot_abs_Q>
0

> <r_epik_Metal_State_Penalty>
-0

> <b_epik_Metal_Only>
0

> <s_lp_Force_Field>
OPLS_2005

> <r_lp_Energy>
11.4342

> <b_lp_Chiralities_Consistent>
1

> <s_lp_Variant>
AV-unprocessed.smi:2177-1

> <Gold.Version>
5.8.1

> <Gold.Id.Protein>
6NUR|6NUR_protein|mol2

> <Gold.PLP.Fitness>
38.0739

> <Gold.PLP.PLP>
-32.6368

> <Gold.PLP.part.hbond>
-2.2761

> <Gold.PLP.part.metal>
0.0000

> <Gold.PLP.part.buried>
1.5050

> <Gold.PLP.part.nonpolar>
-32.2136

> <Gold.PLP.part.repulsive>
0.0946

> <Gold.PLP.ligand.clash>
0.0000

> <Gold.PLP.ligand.torsion>
0.3025

> <Gold.PLP.Chemscore.Hbond>
2.0000

> <Gold.PLP.Chemscore.CHOScore>
0.0000

> <Gold.PLP.Chemscore.Metal>
0.0000

> <Gold.Chemscore.Hbonds>
donor molecule, donor type, donor heavy atom, donor atom, acceptor molecule, acceptor atom, score
      L1  H    12    31       P1  7948  1.00
      P1  H  7997  8010       L1     3  1.00

> <Gold.PLP.Chemscore.Internal.Correction>
0.0421

> <Gold.Rescore>
     Score         DG    S(hbond)    S(metal)    S(lipo)     H(rot)  DE(clash)    DE(int)     intcor
     13.39     -17.11       1.78        0.00      80.64       1.46       2.18       1.54       ----

> <Gold.Chemscore.Fitness>
13.3915

> <Gold.Chemscore.DG>
-17.1063

> <Gold.Chemscore.ZeroCoef>
-5.4800

> <Gold.Chemscore.Hbond>
1.7772

> <Gold.Chemscore.Metal>
0.0000

> <Gold.Chemscore.Lipo>
80.6408

> <Gold.Chemscore.Internal_Hbond>
0.0000

> <Gold.Chemscore.DEClash>
2.1774

> <Gold.Chemscore.DEInternal>
1.5374

> <Gold.Chemscore.Rot>
1.4627

> <Gold.Chemscore.Internal.Correction>
   9.000000E+99

> <Gold.Chemscore.Hbonds>
donor molecule, donor type, donor heavy atom, donor atom, acceptor molecule, acceptor atom, score
      L1  H    12    31       P1  7948  0.45
      P1  H  7997  8010       L1     3  0.23

> <Gold.Chemscore.Hbond.Weighted>
-5.9358

> <Gold.Chemscore.Metal.Weighted>
-0.0000

> <Gold.Chemscore.Lipo.Weighted>
-9.4350

> <Gold.Chemscore.Internal_Hbond.Weighted>
0.0000

> <Gold.Chemscore.DEClash.Weighted>
2.1774

> <Gold.Chemscore.DEInternal.Weighted>
1.5374

> <Gold.Chemscore.Rot.Weighted>
3.7445

> <Gold.Chemscore.Internal.Correction.Weighted>
   9.000000E+99

> <Gold.Protein.RotatedTorsions>
[ 6907 6896 6895 6894 ] final   62.22 input  -60.11 | X-H torsion
[ 7974 7965 7964 7962 ] final -107.96 input  175.53 | X-H torsion
[ 8008 7997 7996 7995 ] final   86.85 input   59.86 | X-H torsion
[ 10167 10162 10161 10158 ] final -132.08 input  -65.29 | X-H torsion
[ 10718 10713 10712 10709 ] final   12.05 input   66.30 | X-H torsion
[ 10763 10752 10751 10750 ] final  166.60 input  -60.55 | X-H torsion
[ 11005 11000 10999 10996 ] final    8.46 input  -57.11 | X-H torsion

> <Gold.Protein.ActiveResidues>
 VAL166  LYS551  ARG553  GLY616  TRP617  ASP618  TYR619  PRO620  LYS621  CYS622 
 ASP623  PHE694  ASN695  SER759  ASP760  ASP761  ALA762  ILE779  LEU786  VAL792 
 PHE793  MET794  SER795  GLU796  ALA797  LYS798  CYS799  TRP800  GLU811  SER814 

> <Gold.Protein.RotatedAtoms>
  152.4154  134.6050  160.0010 H   0  0  0  0  0  0  0  0  0  0  0  0  # atno 6907 bound_to 6896
  151.6215  133.3333  159.3097 H   0  0  0  0  0  0  0  0  0  0  0  0  # atno 6908 bound_to 6896
  150.8043  134.7197  159.6696 H   0  0  0  0  0  0  0  0  0  0  0  0  # atno 6909 bound_to 6896
  145.1988  140.9047  143.3381 H   0  0  0  0  0  0  0  0  0  0  0  0  # atno 7974 bound_to 7965
  155.9680  140.3388  155.6549 H   0  0  0  0  0  0  0  0  0  0  0  0  # atno 8008 bound_to 7997
  155.6712  140.0727  157.2537 H   0  0  0  0  0  0  0  0  0  0  0  0  # atno 8009 bound_to 7997
  154.4159  140.1691  156.1869 H   0  0  0  0  0  0  0  0  0  0  0  0  # atno 8010 bound_to 7997
  139.9122  143.6480  152.2573 H   0  0  0  0  0  0  0  0  0  0  0  0  # atno 10167 bound_to 10162
  157.0045  130.6092  149.5700 H   0  0  0  0  0  0  0  0  0  0  0  0  # atno 10718 bound_to 10713
  154.3414  135.2754  155.2421 H   0  0  0  0  0  0  0  0  0  0  0  0  # atno 10763 bound_to 10752
  154.4690  135.5888  153.6311 H   0  0  0  0  0  0  0  0  0  0  0  0  # atno 10764 bound_to 10752
  152.9857  135.6083  154.3615 H   0  0  0  0  0  0  0  0  0  0  0  0  # atno 10765 bound_to 10752
  140.5367  134.0414  155.7890 H   0  0  0  0  0  0  0  0  0  0  0  0  # atno 11005 bound_to 11000
  144.9968  139.3636  143.6187 LP  0  0  0  0  0  0  0  0  0  0  0  0  # atno 17320 bound_to 7965
  146.3422  139.9174  142.8771 LP  0  0  0  0  0  0  0  0  0  0  0  0  # atno 17321 bound_to 7965
  139.6932  144.7644  151.1401 LP  0  0  0  0  0  0  0  0  0  0  0  0  # atno 17342 bound_to 10162
  140.7682  143.5559  150.9152 LP  0  0  0  0  0  0  0  0  0  0  0  0  # atno 17343 bound_to 10162
  156.0159  130.5253  150.8132 LP  0  0  0  0  0  0  0  0  0  0  0  0  # atno 17370 bound_to 10713
  157.5366  131.0939  150.9884 LP  0  0  0  0  0  0  0  0  0  0  0  0  # atno 17371 bound_to 10713
  141.1251  133.9397  157.2652 LP  0  0  0  0  0  0  0  0  0  0  0  0  # atno 17394 bound_to 11000
  139.9525  135.0172  156.9036 LP  0  0  0  0  0  0  0  0  0  0  0  0  # atno 17395 bound_to 11000

$$$$
