AV-unprocessed.smi:3142|AV-procd|sdf|11971|dock8
  -GOLD-   2272017373D 1   1.00000     0.00000
 Structure written by MMmdl.
 36 38  0  0  0  0  0  0  0  0  1 V2000
  148.8512  141.0577  155.7824 C   0  0  0  0  0  0  0  0  0  0  0  0
  150.3202  141.2778  156.1924 C   0  0  1  0  0  0  0  0  0  0  0  0
  150.4623  141.8915  157.5933 C   0  0  0  0  0  0  0  0  0  0  0  0
  149.5351  141.8335  158.4018 O   0  0  0  0  0  0  0  0  0  0  0  0
  151.6420  142.4714  157.8655 N   0  0  0  0  0  0  0  0  0  0  0  0
  152.0185  143.0886  159.1324 C   0  0  0  0  0  0  0  0  0  0  0  0
  152.2704  144.5822  159.0034 C   0  0  0  0  0  0  0  0  0  0  0  0
  151.7239  145.5617  160.0157 C   0  0  0  0  0  0  0  0  0  0  0  0
  151.1687  145.5384  158.6105 C   0  0  0  0  0  0  0  0  0  0  0  0
  153.2255  142.4011  159.7435 C   0  0  0  0  0  0  0  0  0  0  0  0
  153.0761  141.1244  160.5352 C   0  0  0  0  0  0  0  0  0  0  0  0
  153.4669  142.4073  161.2344 C   0  0  0  0  0  0  0  0  0  0  0  0
  151.0896  140.0443  156.1083 N   0  0  0  0  0  0  0  0  0  0  0  0
  151.0920  139.1099  155.0772 C   0  0  0  0  0  0  0  0  0  0  0  0
  151.9504  138.1035  155.4573 C   0  0  0  0  0  0  0  0  0  0  0  0
  152.4746  138.3857  156.7160 N   0  0  0  0  0  0  0  0  0  0  0  0
  151.9162  139.5450  157.0387 C   0  0  0  0  0  0  0  0  0  0  0  0
  148.2924  141.9939  155.8047 H   0  0  0  0  0  0  0  0  0  0  0  0
  148.3430  140.3530  156.4414 H   0  0  0  0  0  0  0  0  0  0  0  0
  148.7866  140.6641  154.7675 H   0  0  0  0  0  0  0  0  0  0  0  0
  150.7517  141.9838  155.4806 H   0  0  0  0  0  0  0  0  0  0  0  0
  152.3442  142.4694  157.1402 H   0  0  0  0  0  0  0  0  0  0  0  0
  151.1918  142.9537  159.8332 H   0  0  0  0  0  0  0  0  0  0  0  0
  153.2595  144.8189  158.6152 H   0  0  0  0  0  0  0  0  0  0  0  0
  151.0857  145.1770  160.8083 H   0  0  0  0  0  0  0  0  0  0  0  0
  152.3568  146.4020  160.2934 H   0  0  0  0  0  0  0  0  0  0  0  0
  151.4323  146.3616  157.9497 H   0  0  0  0  0  0  0  0  0  0  0  0
  150.1662  145.1367  158.4770 H   0  0  0  0  0  0  0  0  0  0  0  0
  154.1184  142.4655  159.1239 H   0  0  0  0  0  0  0  0  0  0  0  0
  152.0695  140.7469  160.7041 H   0  0  0  0  0  0  0  0  0  0  0  0
  153.8442  140.3639  160.4091 H   0  0  0  0  0  0  0  0  0  0  0  0
  154.4957  142.5028  161.5754 H   0  0  0  0  0  0  0  0  0  0  0  0
  152.7189  142.8737  161.8722 H   0  0  0  0  0  0  0  0  0  0  0  0
  150.4986  139.2342  154.1833 H   0  0  0  0  0  0  0  0  0  0  0  0
  152.2231  137.2020  154.9288 H   0  0  0  0  0  0  0  0  0  0  0  0
  152.1127  140.0424  157.9772 H   0  0  0  0  0  0  0  0  0  0  0  0
  1  2  1  0  0  0  0
  1 18  1  0  0  0  0
  1 19  1  0  0  0  0
  1 20  1  0  0  0  0
  2  3  1  0  0  0  0
  2 13  1  0  0  0  0
  2 21  1  0  0  0  0
  3  4  2  0  0  0  0
  3  5  1  0  0  0  0
  5  6  1  0  0  0  0
  5 22  1  0  0  0  0
  6  7  1  0  0  0  0
  6 10  1  0  0  0  0
  6 23  1  0  0  0  0
  7  9  1  0  0  0  0
  7  8  1  0  0  0  0
  7 24  1  0  0  0  0
  8  9  1  0  0  0  0
  8 25  1  0  0  0  0
  8 26  1  0  0  0  0
  9 27  1  0  0  0  0
  9 28  1  0  0  0  0
 10 12  1  0  0  0  0
 10 11  1  0  0  0  0
 10 29  1  0  0  0  0
 11 12  1  0  0  0  0
 11 30  1  0  0  0  0
 11 31  1  0  0  0  0
 12 32  1  0  0  0  0
 12 33  1  0  0  0  0
 13 17  1  0  0  0  0
 13 14  1  0  0  0  0
 14 15  2  0  0  0  0
 14 34  1  0  0  0  0
 15 16  1  0  0  0  0
 15 35  1  0  0  0  0
 16 17  2  0  0  0  0
 17 36  1  0  0  0  0
M  END
> <s_m_source_file>
AV-unprocessed.smi

> <i_m_source_file_index>
3142

> <i_lp_mmshare_version>
43012

> <i_f3d_flags>
0

> <s_epik_input>
W2NIXTFuW2NIXVtjSF1uMVtDQEhdKFtDSDNdKUMoPU8pW05IXVtDSF0oW0NIXTJbQ0gyXVtDSDJdMilbQ0hdM1tDSDJdW0NIMl0z

> <s_epik_cmdline>
J2VwaWtfcHl0aG9uJywgJy1waCcsICc3LjAnLCAnLXRuJywgJzgnLCAnLW1hJywgJzIwMCcsICctbWV0YWxfYmluZGluZycsICctaW1hZScsICc8aW5maWxlLm1hZT4nLCAnLW9tYWUnLCAnPG91dGZpbGUubWFlPic=

> <r_lp_tautomer_probability>
1

> <r_epik_Ionization_Penalty>
0.32285

> <r_epik_Ionization_Penalty_Charging>
0.32285

> <r_epik_Ionization_Penalty_Neutral>
3.37967e-08

> <r_epik_State_Penalty>
0.317502

> <r_epik_Charging_Adjusted_Penalty>
0.640352

> <i_epik_Tot_Q>
0

> <i_epik_Tot_abs_Q>
0

> <r_epik_Metal_State_Penalty>
0.20415

> <b_epik_Metal_Only>
0

> <s_lp_Force_Field>
OPLS_2005

> <r_lp_Energy>
29.1263

> <b_lp_Chiralities_Consistent>
1

> <s_lp_Variant>
AV-unprocessed.smi:3142-2

> <Gold.Version>
5.8.1

> <Gold.Id.Protein>
6NUR|6NUR_protein|mol2

> <Gold.PLP.Fitness>
43.8585

> <Gold.PLP.PLP>
-42.2378

> <Gold.PLP.part.hbond>
0.0000

> <Gold.PLP.part.metal>
0.0000

> <Gold.PLP.part.buried>
-1.7050

> <Gold.PLP.part.nonpolar>
-39.8348

> <Gold.PLP.part.repulsive>
0.1039

> <Gold.PLP.ligand.clash>
0.0000

> <Gold.PLP.ligand.torsion>
1.7955

> <Gold.PLP.Chemscore.Hbond>
0.0000

> <Gold.PLP.Chemscore.CHOScore>
0.9986

> <Gold.PLP.Chemscore.Metal>
0.0000

> <Gold.PLP.Chemscore.Internal.Correction>
2.2158

> <Gold.Rescore>
     Score         DG    S(hbond)    S(metal)    S(lipo)     H(rot)  DE(clash)    DE(int)     intcor
     11.42     -13.32       0.00        0.00     107.46       1.85       0.17       1.73       ----

> <Gold.Chemscore.Fitness>
11.4189

> <Gold.Chemscore.DG>
-13.3159

> <Gold.Chemscore.ZeroCoef>
-5.4800

> <Gold.Chemscore.Hbond>
0.0000

> <Gold.Chemscore.Metal>
0.0000

> <Gold.Chemscore.Lipo>
107.4629

> <Gold.Chemscore.Internal_Hbond>
0.0000

> <Gold.Chemscore.DEClash>
0.1654

> <Gold.Chemscore.DEInternal>
1.7316

> <Gold.Chemscore.Rot>
1.8505

> <Gold.Chemscore.Internal.Correction>
   9.000000E+99

> <Gold.Chemscore.Hbond.Weighted>
-0.0000

> <Gold.Chemscore.Metal.Weighted>
-0.0000

> <Gold.Chemscore.Lipo.Weighted>
-12.5732

> <Gold.Chemscore.Internal_Hbond.Weighted>
0.0000

> <Gold.Chemscore.DEClash.Weighted>
0.1654

> <Gold.Chemscore.DEInternal.Weighted>
1.7316

> <Gold.Chemscore.Rot.Weighted>
4.7373

> <Gold.Chemscore.Internal.Correction.Weighted>
   9.000000E+99

> <Gold.Protein.RotatedTorsions>
[ 6907 6896 6895 6894 ] final  146.78 input  -60.11 | X-H torsion
[ 7974 7965 7964 7962 ] final   87.54 input  175.53 | X-H torsion
[ 8008 7997 7996 7995 ] final  162.08 input   59.86 | X-H torsion
[ 10167 10162 10161 10158 ] final -153.79 input  -65.29 | X-H torsion
[ 10718 10713 10712 10709 ] final   28.95 input   66.30 | X-H torsion
[ 10763 10752 10751 10750 ] final   -5.87 input  -60.55 | X-H torsion
[ 11005 11000 10999 10996 ] final  177.18 input  -57.11 | X-H torsion

> <Gold.Protein.ActiveResidues>
 VAL166  LYS551  ARG553  GLY616  TRP617  ASP618  TYR619  PRO620  LYS621  CYS622 
 ASP623  PHE694  ASN695  SER759  ASP760  ASP761  ALA762  ILE779  LEU786  VAL792 
 PHE793  MET794  SER795  GLU796  ALA797  LYS798  CYS799  TRP800  GLU811  SER814 

> <Gold.Protein.RotatedAtoms>
  152.1634  133.4597  159.4872 H   0  0  0  0  0  0  0  0  0  0  0  0  # atno 6907 bound_to 6896
  150.6910  134.2043  159.4343 H   0  0  0  0  0  0  0  0  0  0  0  0  # atno 6908 bound_to 6896
  151.9946  134.9960  160.0613 H   0  0  0  0  0  0  0  0  0  0  0  0  # atno 6909 bound_to 6896
  145.5577  139.2301  143.2477 H   0  0  0  0  0  0  0  0  0  0  0  0  # atno 7974 bound_to 7965
  156.2057  140.1760  156.7804 H   0  0  0  0  0  0  0  0  0  0  0  0  # atno 8008 bound_to 7997
  154.5652  140.0692  156.8911 H   0  0  0  0  0  0  0  0  0  0  0  0  # atno 8009 bound_to 7997
  155.2774  140.3346  155.4263 H   0  0  0  0  0  0  0  0  0  0  0  0  # atno 8010 bound_to 7997
  139.7067  143.9174  152.2451 H   0  0  0  0  0  0  0  0  0  0  0  0  # atno 10167 bound_to 10162
  157.2402  130.7065  149.6355 H   0  0  0  0  0  0  0  0  0  0  0  0  # atno 10718 bound_to 10713
  153.4044  135.7006  153.6403 H   0  0  0  0  0  0  0  0  0  0  0  0  # atno 10763 bound_to 10752
  153.4923  135.3670  155.2498 H   0  0  0  0  0  0  0  0  0  0  0  0  # atno 10764 bound_to 10752
  154.8713  135.4092  154.3385 H   0  0  0  0  0  0  0  0  0  0  0  0  # atno 10765 bound_to 10752
  140.3813  134.6944  157.4452 H   0  0  0  0  0  0  0  0  0  0  0  0  # atno 11005 bound_to 11000
  146.1873  140.6401  142.9162 LP  0  0  0  0  0  0  0  0  0  0  0  0  # atno 17320 bound_to 7965
  144.7498  140.5162  143.6810 LP  0  0  0  0  0  0  0  0  0  0  0  0  # atno 17321 bound_to 7965
  139.9032  144.6899  150.8642 LP  0  0  0  0  0  0  0  0  0  0  0  0  # atno 17342 bound_to 10162
  140.7723  143.3498  151.2037 LP  0  0  0  0  0  0  0  0  0  0  0  0  # atno 17343 bound_to 10162
  155.9670  130.4460  150.5526 LP  0  0  0  0  0  0  0  0  0  0  0  0  # atno 17370 bound_to 10713
  157.3387  131.0713  151.1805 LP  0  0  0  0  0  0  0  0  0  0  0  0  # atno 17371 bound_to 10713
  140.0476  134.6176  155.8901 LP  0  0  0  0  0  0  0  0  0  0  0  0  # atno 17394 bound_to 11000
  141.1922  133.6574  156.5493 LP  0  0  0  0  0  0  0  0  0  0  0  0  # atno 17395 bound_to 11000

$$$$
