AV-unprocessed.smi:1885|AV-procd|sdf|7653|dock9
  -GOLD-   22720 9383D 1   1.00000     0.00000
 Structure written by MMmdl.
 44 46  0  0  0  0  0  0  0  0  2 V2000
  146.7178  131.4436  153.4609 C   0  0  0  0  0  0  0  0  0  0  0  0
  147.8515  131.4045  154.3155 O   0  0  0  0  0  0  0  0  0  0  0  0
  148.4968  132.5909  154.5921 C   0  0  0  0  0  0  0  0  0  0  0  0
  147.9231  133.8731  154.4010 C   0  0  0  0  0  0  0  0  0  0  0  0
  148.6553  135.0357  154.7112 C   0  0  0  0  0  0  0  0  0  0  0  0
  149.9700  134.9398  155.2098 C   0  0  0  0  0  0  0  0  0  0  0  0
  150.7381  136.2005  155.5620 C   0  0  0  0  0  0  0  0  0  0  0  0
  149.9933  137.3805  155.3021 O   0  0  0  0  0  0  0  0  0  0  0  0
  150.7928  138.4322  154.7869 C   0  0  0  0  0  0  0  0  0  0  0  0
  151.9688  138.6896  155.7468 C   0  0  1  0  0  0  0  0  0  0  0  0
  152.8914  139.5464  155.1067 O   0  0  0  0  0  0  0  0  0  0  0  0
  151.5611  139.3710  157.0687 C   0  0  0  0  0  0  0  0  0  0  0  0
  151.2139  140.7897  156.9009 N   0  0  0  0  0  0  0  0  0  0  0  0
  150.5431  141.3981  155.8849 C   0  0  0  0  0  0  0  0  0  0  0  0
  150.4604  142.7244  156.1816 N   0  3  0  0  0  0  0  0  0  0  0  0
  151.0869  142.9686  157.4055 C   0  0  0  0  0  0  0  0  0  0  0  0
  151.2614  144.1504  158.1184 C   0  0  0  0  0  0  0  0  0  0  0  0
  151.9545  144.0574  159.3430 C   0  0  0  0  0  0  0  0  0  0  0  0
  152.1539  145.1781  160.0763 F   0  0  0  0  0  0  0  0  0  0  0  0
  152.4449  142.8219  159.8160 C   0  0  0  0  0  0  0  0  0  0  0  0
  153.1085  142.7769  160.9954 F   0  0  0  0  0  0  0  0  0  0  0  0
  152.2606  141.6300  159.0848 C   0  0  0  0  0  0  0  0  0  0  0  0
  151.5731  141.7299  157.8753 C   0  0  0  0  0  0  0  0  0  0  0  0
  150.5420  133.6666  155.4100 C   0  0  0  0  0  0  0  0  0  0  0  0
  149.8095  132.5047  155.0994 C   0  0  0  0  0  0  0  0  0  0  0  0
  146.3249  130.4344  153.3381 H   0  0  0  0  0  0  0  0  0  0  0  0
  146.9778  131.8185  152.4698 H   0  0  0  0  0  0  0  0  0  0  0  0
  145.9212  132.0579  153.8825 H   0  0  0  0  0  0  0  0  0  0  0  0
  146.9207  133.9920  154.0189 H   0  0  0  0  0  0  0  0  0  0  0  0
  148.2013  136.0046  154.5643 H   0  0  0  0  0  0  0  0  0  0  0  0
  151.0126  136.1685  156.6177 H   0  0  0  0  0  0  0  0  0  0  0  0
  151.6633  136.2087  154.9840 H   0  0  0  0  0  0  0  0  0  0  0  0
  151.1489  138.2073  153.7800 H   0  0  0  0  0  0  0  0  0  0  0  0
  150.1627  139.3186  154.7154 H   0  0  0  0  0  0  0  0  0  0  0  0
  152.4705  137.7480  155.9745 H   0  0  0  0  0  0  0  0  0  0  0  0
  152.6155  139.6751  154.2121 H   0  0  0  0  0  0  0  0  0  0  0  0
  150.6770  138.8807  157.4788 H   0  0  0  0  0  0  0  0  0  0  0  0
  152.3406  139.2691  157.8235 H   0  0  0  0  0  0  0  0  0  0  0  0
  150.1476  140.9153  155.0025 H   0  0  0  0  0  0  0  0  0  0  0  0
  150.8893  145.0986  157.7592 H   0  0  0  0  0  0  0  0  0  0  0  0
  152.6467  140.6937  159.4584 H   0  0  0  0  0  0  0  0  0  0  0  0
  151.5438  133.5729  155.8025 H   0  0  0  0  0  0  0  0  0  0  0  0
  150.2603  131.5354  155.2546 H   0  0  0  0  0  0  0  0  0  0  0  0
  150.0085  143.4098  155.5897 H   0  0  0  0  0  0  0  0  0  0  0  0
  1  2  1  0  0  0  0
  1 26  1  0  0  0  0
  1 27  1  0  0  0  0
  1 28  1  0  0  0  0
  2  3  1  0  0  0  0
  3 25  1  0  0  0  0
  3  4  2  0  0  0  0
  4  5  1  0  0  0  0
  4 29  1  0  0  0  0
  5  6  2  0  0  0  0
  5 30  1  0  0  0  0
  6  7  1  0  0  0  0
  6 24  1  0  0  0  0
  7  8  1  0  0  0  0
  7 31  1  0  0  0  0
  7 32  1  0  0  0  0
  8  9  1  0  0  0  0
  9 10  1  0  0  0  0
  9 33  1  0  0  0  0
  9 34  1  0  0  0  0
 10 11  1  0  0  0  0
 10 12  1  0  0  0  0
 10 35  1  0  0  0  0
 11 36  1  0  0  0  0
 12 13  1  0  0  0  0
 12 37  1  0  0  0  0
 12 38  1  0  0  0  0
 13 23  1  0  0  0  0
 13 14  1  0  0  0  0
 14 15  2  0  0  0  0
 14 39  1  0  0  0  0
 15 16  1  0  0  0  0
 15 44  1  0  0  0  0
 16 23  2  0  0  0  0
 16 17  1  0  0  0  0
 17 18  2  0  0  0  0
 17 40  1  0  0  0  0
 18 19  1  0  0  0  0
 18 20  1  0  0  0  0
 20 21  1  0  0  0  0
 20 22  2  0  0  0  0
 22 23  1  0  0  0  0
 22 41  1  0  0  0  0
 24 25  2  0  0  0  0
 24 42  1  0  0  0  0
 25 43  1  0  0  0  0
M  CHG  1  15   1
M  END
> <s_m_source_file>
AV-unprocessed.smi

> <i_m_source_file_index>
1885

> <i_lp_mmshare_version>
43012

> <i_f3d_flags>
0

> <s_epik_input>
W0NIM11PYzFbY0hdW2NIXWMoW2NIXVtjSF0xKVtDSDJdT1tDSDJdW0NASF0oW09IXSlbQ0gyXW4oW2NIXW4yKWMoYzIzKVtjSF1jKEYpYyhGKVtjSF0z

> <s_epik_cmdline>
J2VwaWtfcHl0aG9uJywgJy1waCcsICc3LjAnLCAnLXRuJywgJzgnLCAnLW1hJywgJzIwMCcsICctbWV0YWxfYmluZGluZycsICctaW1hZScsICc8aW5maWxlLm1hZT4nLCAnLW9tYWUnLCAnPG91dGZpbGUubWFlPic=

> <r_lp_tautomer_probability>
1

> <r_epik_Ionization_Penalty>
2.14697

> <r_epik_Ionization_Penalty_Charging>
2.14697

> <r_epik_Ionization_Penalty_Neutral>
9.74819e-07

> <r_epik_State_Penalty>
2.28651

> <r_epik_Charging_Adjusted_Penalty>
4.43348

> <i_epik_Tot_Q>
1

> <i_epik_Tot_abs_Q>
1

> <r_epik_Metal_State_Penalty>
6.36664

> <b_epik_Metal_Only>
0

> <s_lp_Force_Field>
OPLS_2005

> <r_lp_Energy>
25.0693

> <b_lp_Chiralities_Consistent>
1

> <s_lp_Variant>
AV-unprocessed.smi:1885-4

> <Gold.Version>
5.8.1

> <Gold.Id.Protein>
6NUR|6NUR_protein|mol2

> <Gold.PLP.Fitness>
58.5840

> <Gold.PLP.PLP>
-51.5014

> <Gold.PLP.part.hbond>
-2.9582

> <Gold.PLP.part.metal>
0.0000

> <Gold.PLP.part.buried>
-7.0095

> <Gold.PLP.part.nonpolar>
-42.8962

> <Gold.PLP.part.repulsive>
0.2580

> <Gold.PLP.ligand.clash>
0.0000

> <Gold.PLP.ligand.torsion>
0.9853

> <Gold.PLP.Chemscore.Hbond>
2.9520

> <Gold.PLP.Chemscore.CHOScore>
0.0000

> <Gold.PLP.Chemscore.Metal>
0.0000

> <Gold.Chemscore.Hbonds>
donor molecule, donor type, donor heavy atom, donor atom, acceptor molecule, acceptor atom, score
      L1  H    15    44       P1  8028  1.70
      P1  H  7997  8009       L1    11  1.00

> <Gold.PLP.Chemscore.Internal.Correction>
0.1971

> <Gold.Rescore>
     Score         DG    S(hbond)    S(metal)    S(lipo)     H(rot)  DE(clash)    DE(int)     intcor
     17.03     -18.06       1.95        0.00     118.00       3.03       0.03       0.99       ----

> <Gold.Chemscore.Fitness>
17.0341

> <Gold.Chemscore.DG>
-18.0625

> <Gold.Chemscore.ZeroCoef>
-5.4800

> <Gold.Chemscore.Hbond>
1.9544

> <Gold.Chemscore.Metal>
0.0000

> <Gold.Chemscore.Lipo>
118.0004

> <Gold.Chemscore.Internal_Hbond>
0.0000

> <Gold.Chemscore.DEClash>
0.0340

> <Gold.Chemscore.DEInternal>
0.9945

> <Gold.Chemscore.Rot>
3.0278

> <Gold.Chemscore.Internal.Correction>
   9.000000E+99

> <Gold.Chemscore.Hbonds>
donor molecule, donor type, donor heavy atom, donor atom, acceptor molecule, acceptor atom, score
      L1  H    15    44       P1  8028  0.83
      P1  H  7997  8009       L1    11  0.98

> <Gold.Chemscore.Hbond.Weighted>
-6.5276

> <Gold.Chemscore.Metal.Weighted>
-0.0000

> <Gold.Chemscore.Lipo.Weighted>
-13.8060

> <Gold.Chemscore.Internal_Hbond.Weighted>
0.0000

> <Gold.Chemscore.DEClash.Weighted>
0.0340

> <Gold.Chemscore.DEInternal.Weighted>
0.9945

> <Gold.Chemscore.Rot.Weighted>
7.7512

> <Gold.Chemscore.Internal.Correction.Weighted>
   9.000000E+99

> <Gold.Protein.RotatedTorsions>
[ 6907 6896 6895 6894 ] final  -15.86 input  -60.11 | X-H torsion
[ 7974 7965 7964 7962 ] final  159.50 input  175.53 | X-H torsion
[ 8008 7997 7996 7995 ] final -146.07 input   59.86 | X-H torsion
[ 10167 10162 10161 10158 ] final -123.29 input  -65.29 | X-H torsion
[ 10718 10713 10712 10709 ] final -134.61 input   66.30 | X-H torsion
[ 10763 10752 10751 10750 ] final  105.18 input  -60.55 | X-H torsion
[ 11005 11000 10999 10996 ] final  153.41 input  -57.11 | X-H torsion

> <Gold.Protein.ActiveResidues>
 VAL166  LYS551  ARG553  GLY616  TRP617  ASP618  TYR619  PRO620  LYS621  CYS622 
 ASP623  PHE694  ASN695  SER759  ASP760  ASP761  ALA762  ILE779  LEU786  VAL792 
 PHE793  MET794  SER795  GLU796  ALA797  LYS798  CYS799  TRP800  GLU811  SER814 

> <Gold.Protein.RotatedAtoms>
  151.3175  135.0810  159.9293 H   0  0  0  0  0  0  0  0  0  0  0  0  # atno 6907 bound_to 6896
  152.5264  133.9672  159.7755 H   0  0  0  0  0  0  0  0  0  0  0  0  # atno 6908 bound_to 6896
  150.9987  133.6025  159.2728 H   0  0  0  0  0  0  0  0  0  0  0  0  # atno 6909 bound_to 6896
  144.7787  139.7625  143.6268 H   0  0  0  0  0  0  0  0  0  0  0  0  # atno 7974 bound_to 7965
  155.5534  140.0618  157.2845 H   0  0  0  0  0  0  0  0  0  0  0  0  # atno 8008 bound_to 7997
  154.4413  140.1898  156.0754 H   0  0  0  0  0  0  0  0  0  0  0  0  # atno 8009 bound_to 7997
  156.0499  140.3285  155.7343 H   0  0  0  0  0  0  0  0  0  0  0  0  # atno 8010 bound_to 7997
  140.0051  143.5500  152.2287 H   0  0  0  0  0  0  0  0  0  0  0  0  # atno 10167 bound_to 10162
  156.2573  130.7189  151.1110 H   0  0  0  0  0  0  0  0  0  0  0  0  # atno 10718 bound_to 10713
  153.3759  135.3918  155.1822 H   0  0  0  0  0  0  0  0  0  0  0  0  # atno 10763 bound_to 10752
  154.8701  135.3713  154.4919 H   0  0  0  0  0  0  0  0  0  0  0  0  # atno 10764 bound_to 10752
  153.5391  135.7085  153.5706 H   0  0  0  0  0  0  0  0  0  0  0  0  # atno 10765 bound_to 10752
  140.1395  134.8748  157.2312 H   0  0  0  0  0  0  0  0  0  0  0  0  # atno 11005 bound_to 11000
  146.1982  139.5261  142.9760 LP  0  0  0  0  0  0  0  0  0  0  0  0  # atno 17320 bound_to 7965
  145.6112  141.0339  143.1966 LP  0  0  0  0  0  0  0  0  0  0  0  0  # atno 17321 bound_to 7965
  139.6244  144.7635  151.2669 LP  0  0  0  0  0  0  0  0  0  0  0  0  # atno 17342 bound_to 10162
  140.7404  143.6590  150.8181 LP  0  0  0  0  0  0  0  0  0  0  0  0  # atno 17343 bound_to 10162
  157.7237  131.0664  150.6025 LP  0  0  0  0  0  0  0  0  0  0  0  0  # atno 17370 bound_to 10713
  156.6110  130.4380  149.5859 LP  0  0  0  0  0  0  0  0  0  0  0  0  # atno 17371 bound_to 10713
  140.2740  134.3427  155.7364 LP  0  0  0  0  0  0  0  0  0  0  0  0  # atno 17394 bound_to 11000
  141.2183  133.7439  156.9265 LP  0  0  0  0  0  0  0  0  0  0  0  0  # atno 17395 bound_to 11000

$$$$
