AV-unprocessed.smi:1430|AV-procd|sdf|5828|dock5
  -GOLD-   22720 5483D 1   1.00000     0.00000
 Structure written by MMmdl.
 47 48  0  0  0  0  0  0  0  0  2 V2000
  152.3456  140.7884  158.7797 C   0  0  0  0  0  0  0  0  0  0  0  0
  152.8382  139.8668  157.8131 O   0  0  0  0  0  0  0  0  0  0  0  0
  152.0079  139.5014  156.7737 C   0  0  0  0  0  0  0  0  0  0  0  0
  150.8756  140.2944  156.5042 C   0  0  0  0  0  0  0  0  0  0  0  0
  150.0279  139.9267  155.4427 C   0  0  0  0  0  0  0  0  0  0  0  0
  150.3334  138.7820  154.6785 C   0  0  0  0  0  0  0  0  0  0  0  0
  149.4451  138.4414  153.6208 N   0  0  0  0  0  0  0  0  0  0  0  0
  148.2612  138.9879  153.2930 C   0  0  0  0  0  0  0  0  0  0  0  0
  147.7094  139.9156  153.8834 O   0  0  0  0  0  0  0  0  0  0  0  0
  147.7305  138.3843  152.2200 N   0  0  0  0  0  0  0  0  0  0  0  0
  146.4527  138.7372  151.6116 C   0  0  0  0  0  0  0  0  0  0  0  0
  145.8110  137.5260  150.9080 C   0  0  0  0  0  0  0  0  0  0  0  0
  145.9062  136.2826  151.7181 N   0  3  1  0  0  0  0  0  0  0  0  0
  144.9854  136.2616  152.8810 C   0  0  0  0  0  0  0  0  0  0  0  0
  143.5403  135.9406  152.4467 C   0  0  2  0  0  0  0  0  0  0  0  0
  142.5901  135.8271  153.6438 C   0  0  0  0  0  0  0  0  0  0  0  0
  143.5325  134.6956  151.7564 O   0  0  0  0  0  0  0  0  0  0  0  0
  144.3222  134.7135  150.5721 C   0  0  2  0  0  0  0  0  0  0  0  0
  144.1752  133.3518  149.8844 C   0  0  0  0  0  0  0  0  0  0  0  0
  145.7891  135.0197  150.9447 C   0  0  0  0  0  0  0  0  0  0  0  0
  151.4904  138.0454  155.0357 C   0  0  0  0  0  0  0  0  0  0  0  0
  152.3079  138.3937  156.0520 N   0  0  0  0  0  0  0  0  0  0  0  0
  153.1157  140.9708  159.5289 H   0  0  0  0  0  0  0  0  0  0  0  0
  151.4688  140.3946  159.2958 H   0  0  0  0  0  0  0  0  0  0  0  0
  152.0930  141.7474  158.3251 H   0  0  0  0  0  0  0  0  0  0  0  0
  150.6612  141.1685  157.1013 H   0  0  0  0  0  0  0  0  0  0  0  0
  149.1533  140.5206  155.2195 H   0  0  0  0  0  0  0  0  0  0  0  0
  149.7376  137.6576  153.0559 H   0  0  0  0  0  0  0  0  0  0  0  0
  148.2448  137.6249  151.7972 H   0  0  0  0  0  0  0  0  0  0  0  0
  145.8099  139.1104  152.4076 H   0  0  0  0  0  0  0  0  0  0  0  0
  146.5874  139.5612  150.9087 H   0  0  0  0  0  0  0  0  0  0  0  0
  144.7566  137.7498  150.7397 H   0  0  0  0  0  0  0  0  0  0  0  0
  146.2509  137.3807  149.9214 H   0  0  0  0  0  0  0  0  0  0  0  0
  145.3346  135.4969  153.5766 H   0  0  0  0  0  0  0  0  0  0  0  0
  145.0300  137.2073  153.4223 H   0  0  0  0  0  0  0  0  0  0  0  0
  143.1643  136.7221  151.7844 H   0  0  0  0  0  0  0  0  0  0  0  0
  142.5465  136.7632  154.2009 H   0  0  0  0  0  0  0  0  0  0  0  0
  142.9106  135.0429  154.3303 H   0  0  0  0  0  0  0  0  0  0  0  0
  141.5778  135.5888  153.3163 H   0  0  0  0  0  0  0  0  0  0  0  0
  143.9361  135.4771  149.8957 H   0  0  0  0  0  0  0  0  0  0  0  0
  144.7558  133.3123  148.9625 H   0  0  0  0  0  0  0  0  0  0  0  0
  143.1337  133.1547  149.6290 H   0  0  0  0  0  0  0  0  0  0  0  0
  144.5170  132.5429  150.5308 H   0  0  0  0  0  0  0  0  0  0  0  0
  146.4170  135.0418  150.0550 H   0  0  0  0  0  0  0  0  0  0  0  0
  146.1780  134.2116  151.5658 H   0  0  0  0  0  0  0  0  0  0  0  0
  151.7855  137.1449  154.5225 H   0  0  0  0  0  0  0  0  0  0  0  0
  146.8380  136.2969  152.1082 H   0  0  0  0  0  0  0  0  0  0  0  0
  1  2  1  0  0  0  0
  1 23  1  0  0  0  0
  1 24  1  0  0  0  0
  1 25  1  0  0  0  0
  2  3  1  0  0  0  0
  3 22  1  0  0  0  0
  3  4  2  0  0  0  0
  4  5  1  0  0  0  0
  4 26  1  0  0  0  0
  5  6  2  0  0  0  0
  5 27  1  0  0  0  0
  6  7  1  0  0  0  0
  6 21  1  0  0  0  0
  7  8  1  0  0  0  0
  7 28  1  0  0  0  0
  8  9  2  0  0  0  0
  8 10  1  0  0  0  0
 10 11  1  0  0  0  0
 10 29  1  0  0  0  0
 11 12  1  0  0  0  0
 11 30  1  0  0  0  0
 11 31  1  0  0  0  0
 12 13  1  0  0  0  0
 12 32  1  0  0  0  0
 12 33  1  0  0  0  0
 13 20  1  0  0  0  0
 13 14  1  0  0  0  0
 13 47  1  0  0  0  0
 14 15  1  0  0  0  0
 14 34  1  0  0  0  0
 14 35  1  0  0  0  0
 15 16  1  0  0  0  0
 15 17  1  0  0  0  0
 15 36  1  0  0  0  0
 16 37  1  0  0  0  0
 16 38  1  0  0  0  0
 16 39  1  0  0  0  0
 17 18  1  0  0  0  0
 18 19  1  0  0  0  0
 18 20  1  0  0  0  0
 18 40  1  0  0  0  0
 19 41  1  0  0  0  0
 19 42  1  0  0  0  0
 19 43  1  0  0  0  0
 20 44  1  0  0  0  0
 20 45  1  0  0  0  0
 21 22  2  0  0  0  0
 21 46  1  0  0  0  0
M  CHG  1  13   1
M  END
> <s_m_source_file>
AV-unprocessed.smi

> <i_m_source_file_index>
1430

> <i_lp_mmshare_version>
43012

> <i_f3d_flags>
0

> <s_epik_input>
W0NIM11PYzFbY0hdW2NIXWMoW2NIXW4xKVtOSF1DKD1PKVtOSF1bQ0gyXVtDSDJdTjJbQ0gyXVtDQEBIXShbQ0gzXSlPW0NAQEhdKFtDSDNdKVtDSDJdMg==

> <s_epik_cmdline>
J2VwaWtfcHl0aG9uJywgJy1waCcsICc3LjAnLCAnLXRuJywgJzgnLCAnLW1hJywgJzIwMCcsICctbWV0YWxfYmluZGluZycsICctaW1hZScsICc8aW5maWxlLm1hZT4nLCAnLW9tYWUnLCAnPG91dGZpbGUubWFlPic=

> <r_lp_tautomer_probability>
1

> <r_epik_Ionization_Penalty>
0.602607

> <r_epik_Ionization_Penalty_Charging>
0.602531

> <r_epik_Ionization_Penalty_Neutral>
7.66983e-05

> <r_epik_State_Penalty>
0.617039

> <r_epik_Charging_Adjusted_Penalty>
1.21957

> <i_epik_Tot_Q>
1

> <i_epik_Tot_abs_Q>
1

> <r_epik_Metal_State_Penalty>
0.617043

> <b_epik_Metal_Only>
0

> <s_lp_Force_Field>
OPLS_2005

> <r_lp_Energy>
19.3268

> <b_lp_Chiralities_Consistent>
1

> <s_lp_Variant>
AV-unprocessed.smi:1430-7

> <Gold.Version>
5.8.1

> <Gold.Id.Protein>
6NUR|6NUR_protein|mol2

> <Gold.PLP.Fitness>
48.9915

> <Gold.PLP.PLP>
-35.7920

> <Gold.PLP.part.hbond>
-5.8025

> <Gold.PLP.part.metal>
0.0000

> <Gold.PLP.part.buried>
3.8691

> <Gold.PLP.part.nonpolar>
-35.3082

> <Gold.PLP.part.repulsive>
0.5735

> <Gold.PLP.ligand.clash>
0.0000

> <Gold.PLP.ligand.torsion>
0.6399

> <Gold.PLP.Chemscore.Hbond>
4.7920

> <Gold.PLP.Chemscore.CHOScore>
0.0000

> <Gold.PLP.Chemscore.Metal>
0.0000

> <Gold.Chemscore.Hbonds>
donor molecule, donor type, donor heavy atom, donor atom, acceptor molecule, acceptor atom, score
      L1  H     7    28       P1  7948  0.83
      L1  H    10    29       P1  7948  0.99
      L1  H    13    47       P1  7948  1.58
      P1  H  7997  8008       L1     2  1.00

> <Gold.PLP.Chemscore.Internal.Correction>
0.1033

> <Gold.Rescore>
     Score         DG    S(hbond)    S(metal)    S(lipo)     H(rot)  DE(clash)    DE(int)     intcor
     15.80     -20.88       3.06        0.00      82.76       1.76       2.99       2.08       ----

> <Gold.Chemscore.Fitness>
15.8044

> <Gold.Chemscore.DG>
-20.8791

> <Gold.Chemscore.ZeroCoef>
-5.4800

> <Gold.Chemscore.Hbond>
3.0611

> <Gold.Chemscore.Metal>
0.0000

> <Gold.Chemscore.Lipo>
82.7557

> <Gold.Chemscore.Internal_Hbond>
0.0000

> <Gold.Chemscore.DEClash>
2.9924

> <Gold.Chemscore.DEInternal>
2.0823

> <Gold.Chemscore.Rot>
1.7606

> <Gold.Chemscore.Internal.Correction>
   9.000000E+99

> <Gold.Chemscore.Hbonds>
donor molecule, donor type, donor heavy atom, donor atom, acceptor molecule, acceptor atom, score
      L1  H     7    28       P1  7948  0.49
      L1  H    10    29       P1  7948  0.90
      L1  H    13    47       P1  7948  0.73
      P1  H  7997  8008       L1     2  0.30

> <Gold.Chemscore.Hbond.Weighted>
-10.2239

> <Gold.Chemscore.Metal.Weighted>
-0.0000

> <Gold.Chemscore.Lipo.Weighted>
-9.6824

> <Gold.Chemscore.Internal_Hbond.Weighted>
0.0000

> <Gold.Chemscore.DEClash.Weighted>
2.9924

> <Gold.Chemscore.DEInternal.Weighted>
2.0823

> <Gold.Chemscore.Rot.Weighted>
4.5072

> <Gold.Chemscore.Internal.Correction.Weighted>
   9.000000E+99

> <Gold.Protein.RotatedTorsions>
[ 6907 6896 6895 6894 ] final  141.20 input  -60.11 | X-H torsion
[ 7974 7965 7964 7962 ] final   19.44 input  175.53 | X-H torsion
[ 8008 7997 7996 7995 ] final  -76.02 input   59.86 | X-H torsion
[ 10167 10162 10161 10158 ] final   41.50 input  -65.29 | X-H torsion
[ 10718 10713 10712 10709 ] final  162.60 input   66.30 | X-H torsion
[ 10763 10752 10751 10750 ] final  145.61 input  -60.55 | X-H torsion
[ 11005 11000 10999 10996 ] final -108.70 input  -57.11 | X-H torsion

> <Gold.Protein.ActiveResidues>
 VAL166  LYS551  ARG553  GLY616  TRP617  ASP618  TYR619  PRO620  LYS621  CYS622 
 ASP623  PHE694  ASN695  SER759  ASP760  ASP761  ALA762  ILE779  LEU786  VAL792 
 PHE793  MET794  SER795  GLU796  ALA797  LYS798  CYS799  TRP800  GLU811  SER814 

> <Gold.Protein.RotatedAtoms>
  152.2338  133.5080  159.5230 H   0  0  0  0  0  0  0  0  0  0  0  0  # atno 6907 bound_to 6896
  150.7045  134.1181  159.4033 H   0  0  0  0  0  0  0  0  0  0  0  0  # atno 6908 bound_to 6896
  151.9102  135.0342  160.0564 H   0  0  0  0  0  0  0  0  0  0  0  0  # atno 6909 bound_to 6896
  146.2149  139.8312  142.8659 H   0  0  0  0  0  0  0  0  0  0  0  0  # atno 7974 bound_to 7965
  154.5468  140.0734  156.8602 H   0  0  0  0  0  0  0  0  0  0  0  0  # atno 8008 bound_to 7997
  155.3071  140.3388  155.4227 H   0  0  0  0  0  0  0  0  0  0  0  0  # atno 8009 bound_to 7997
  156.1925  140.1691  156.8049 H   0  0  0  0  0  0  0  0  0  0  0  0  # atno 8010 bound_to 7997
  140.3637  144.2195  150.6136 H   0  0  0  0  0  0  0  0  0  0  0  0  # atno 10167 bound_to 10162
  157.1203  131.0490  151.2418 H   0  0  0  0  0  0  0  0  0  0  0  0  # atno 10718 bound_to 10713
  154.0082  135.2917  155.3395 H   0  0  0  0  0  0  0  0  0  0  0  0  # atno 10763 bound_to 10752
  154.7119  135.5146  153.8683 H   0  0  0  0  0  0  0  0  0  0  0  0  # atno 10764 bound_to 10752
  153.0735  135.6656  154.0316 H   0  0  0  0  0  0  0  0  0  0  0  0  # atno 10765 bound_to 10752
  141.0887  133.9093  157.2125 H   0  0  0  0  0  0  0  0  0  0  0  0  # atno 11005 bound_to 11000
  145.2995  141.0190  143.3617 LP  0  0  0  0  0  0  0  0  0  0  0  0  # atno 17320 bound_to 7965
  144.9017  139.4641  143.6629 LP  0  0  0  0  0  0  0  0  0  0  0  0  # atno 17321 bound_to 7965
  140.5101  143.2293  151.8548 LP  0  0  0  0  0  0  0  0  0  0  0  0  # atno 17342 bound_to 10162
  139.4811  144.4959  151.9124 LP  0  0  0  0  0  0  0  0  0  0  0  0  # atno 17343 bound_to 10162
  157.4483  130.7583  149.7128 LP  0  0  0  0  0  0  0  0  0  0  0  0  # atno 17370 bound_to 10713
  155.9830  130.4004  150.3386 LP  0  0  0  0  0  0  0  0  0  0  0  0  # atno 17371 bound_to 10713
  139.9710  135.0128  156.9511 LP  0  0  0  0  0  0  0  0  0  0  0  0  # atno 17394 bound_to 11000
  140.5302  134.0821  155.7314 LP  0  0  0  0  0  0  0  0  0  0  0  0  # atno 17395 bound_to 11000

$$$$
