AV-unprocessed.smi:536|AV-procd|sdf|2863|dock2
  -GOLD-   2262023353D 1   1.00000     0.00000
 Structure written by MMmdl.
 45 47  0  0  0  0  0  0  0  0  2 V2000
  150.9387  139.4508  154.6233 C   0  0  0  0  0  0  0  0  0  0  0  0
  151.0161  140.5084  155.5614 O   0  0  0  0  0  0  0  0  0  0  0  0
  151.8613  140.2076  156.6592 C   0  0  0  0  0  0  0  0  0  0  0  0
  151.3218  140.8320  157.9583 C   0  0  0  0  0  0  0  0  0  0  0  0
  152.0814  140.4558  159.1500 N   0  0  0  0  0  0  0  0  0  0  0  0
  152.6760  141.2765  160.0572 C   0  0  0  0  0  0  0  0  0  0  0  0
  152.5968  142.6664  159.9636 N   0  0  0  0  0  0  0  0  0  0  0  0
  152.5043  143.5586  161.1146 C   0  0  0  0  0  0  0  0  0  0  0  0
  151.3206  144.5437  161.0658 C   0  0  0  0  0  0  0  0  0  0  0  0
  151.5380  145.6954  160.0727 C   0  0  0  0  0  0  0  0  0  0  0  0
  151.2001  145.3676  158.6071 C   0  0  0  0  0  0  0  0  0  0  0  0
  151.6119  143.9725  158.0999 C   0  0  0  0  0  0  0  0  0  0  0  0
  152.8875  143.3912  158.7300 C   0  0  0  0  0  0  0  0  0  0  0  0
  153.3611  140.6491  161.0145 N   0  0  0  0  0  0  0  0  0  0  0  0
  153.1725  139.3112  160.7042 C   0  0  0  0  0  0  0  0  0  0  0  0
  152.4151  139.1668  159.5834 C   0  0  0  0  0  0  0  0  0  0  0  0
  152.0715  137.8543  158.9891 C   0  0  0  0  0  0  0  0  0  0  0  0
  151.4023  137.7754  157.9609 O   0  0  0  0  0  0  0  0  0  0  0  0
  152.5843  136.8085  159.7117 N   0  5  0  0  0  0  0  0  0  0  0  0
  153.3487  136.9102  160.8536 C   0  0  0  0  0  0  0  0  0  0  0  0
  153.7716  135.9149  161.4438 O   0  0  0  0  0  0  0  0  0  0  0  0
  153.6566  138.1458  161.3589 N   0  0  0  0  0  0  0  0  0  0  0  0
  154.4735  138.2840  162.5679 C   0  0  0  0  0  0  0  0  0  0  0  0
  150.2765  139.7355  153.8057 H   0  0  0  0  0  0  0  0  0  0  0  0
  150.5384  138.5456  155.0816 H   0  0  0  0  0  0  0  0  0  0  0  0
  151.9189  139.2267  154.2004 H   0  0  0  0  0  0  0  0  0  0  0  0
  151.9378  139.1267  156.7839 H   0  0  0  0  0  0  0  0  0  0  0  0
  152.8661  140.5697  156.4506 H   0  0  0  0  0  0  0  0  0  0  0  0
  151.3164  141.9174  157.8754 H   0  0  0  0  0  0  0  0  0  0  0  0
  150.2765  140.5624  158.0997 H   0  0  0  0  0  0  0  0  0  0  0  0
  152.4346  142.9484  162.0143 H   0  0  0  0  0  0  0  0  0  0  0  0
  153.4419  144.1065  161.2164 H   0  0  0  0  0  0  0  0  0  0  0  0
  150.3775  144.0343  160.8711 H   0  0  0  0  0  0  0  0  0  0  0  0
  151.2205  144.9787  162.0605 H   0  0  0  0  0  0  0  0  0  0  0  0
  150.9286  146.5471  160.3767 H   0  0  0  0  0  0  0  0  0  0  0  0
  152.5703  146.0402  160.1434 H   0  0  0  0  0  0  0  0  0  0  0  0
  150.1268  145.4824  158.4518 H   0  0  0  0  0  0  0  0  0  0  0  0
  151.6669  146.1263  157.9782 H   0  0  0  0  0  0  0  0  0  0  0  0
  150.7882  143.2708  158.2394 H   0  0  0  0  0  0  0  0  0  0  0  0
  151.7504  144.0374  157.0204 H   0  0  0  0  0  0  0  0  0  0  0  0
  153.6369  144.1664  158.8934 H   0  0  0  0  0  0  0  0  0  0  0  0
  153.3341  142.6894  158.0248 H   0  0  0  0  0  0  0  0  0  0  0  0
  155.4453  137.8082  162.4294 H   0  0  0  0  0  0  0  0  0  0  0  0
  153.9794  137.8111  163.4180 H   0  0  0  0  0  0  0  0  0  0  0  0
  154.6576  139.3243  162.8355 H   0  0  0  0  0  0  0  0  0  0  0  0
  1  2  1  0  0  0  0
  1 24  1  0  0  0  0
  1 25  1  0  0  0  0
  1 26  1  0  0  0  0
  2  3  1  0  0  0  0
  3  4  1  0  0  0  0
  3 27  1  0  0  0  0
  3 28  1  0  0  0  0
  4  5  1  0  0  0  0
  4 29  1  0  0  0  0
  4 30  1  0  0  0  0
  5 16  1  0  0  0  0
  5  6  1  0  0  0  0
  6  7  1  0  0  0  0
  6 14  2  0  0  0  0
  7 13  1  0  0  0  0
  7  8  1  0  0  0  0
  8  9  1  0  0  0  0
  8 31  1  0  0  0  0
  8 32  1  0  0  0  0
  9 10  1  0  0  0  0
  9 33  1  0  0  0  0
  9 34  1  0  0  0  0
 10 11  1  0  0  0  0
 10 35  1  0  0  0  0
 10 36  1  0  0  0  0
 11 12  1  0  0  0  0
 11 37  1  0  0  0  0
 11 38  1  0  0  0  0
 12 13  1  0  0  0  0
 12 39  1  0  0  0  0
 12 40  1  0  0  0  0
 13 41  1  0  0  0  0
 13 42  1  0  0  0  0
 14 15  1  0  0  0  0
 15 22  1  0  0  0  0
 15 16  2  0  0  0  0
 16 17  1  0  0  0  0
 17 18  2  0  0  0  0
 17 19  1  0  0  0  0
 19 20  1  0  0  0  0
 20 21  2  0  0  0  0
 20 22  1  0  0  0  0
 22 23  1  0  0  0  0
 23 43  1  0  0  0  0
 23 44  1  0  0  0  0
 23 45  1  0  0  0  0
M  CHG  1  19  -1
M  END
> <s_m_source_file>
AV-unprocessed.smi

> <i_m_source_file_index>
536

> <i_lp_mmshare_version>
43012

> <i_f3d_flags>
0

> <s_epik_input>
W0NIM11uMWMoPU8pW25IXWMoPU8pYyhjMTIpbihbQ0gyXVtDSDJdT1tDSDNdKWMobjIpTjNbQ0gyXVtDSDJdW0NIMl1bQ0gyXVtDSDJdW0NIMl0z

> <s_epik_cmdline>
J2VwaWtfcHl0aG9uJywgJy1waCcsICc3LjAnLCAnLXRuJywgJzgnLCAnLW1hJywgJzIwMCcsICctbWV0YWxfYmluZGluZycsICctaW1hZScsICc8aW5maWxlLm1hZT4nLCAnLW9tYWUnLCAnPG91dGZpbGUubWFlPic=

> <r_lp_tautomer_probability>
1

> <r_epik_Ionization_Penalty>
6.16859

> <r_epik_Ionization_Penalty_Charging>
0.0798692

> <r_epik_Ionization_Penalty_Neutral>
6.08873

> <r_epik_State_Penalty>
6.08498

> <r_epik_Charging_Adjusted_Penalty>
6.16485

> <i_epik_Tot_Q>
-1

> <i_epik_Tot_abs_Q>
1

> <r_epik_Metal_State_Penalty>
2.03194

> <b_epik_Metal_Only>
1

> <s_lp_Force_Field>
OPLS_2005

> <r_lp_Energy>
48.7455

> <b_lp_Chiralities_Consistent>
1

> <s_lp_Variant>
AV-unprocessed.smi:536-2

> <Gold.Version>
5.8.1

> <Gold.Id.Protein>
6NUR|6NUR_protein|mol2

> <Gold.PLP.Fitness>
52.7929

> <Gold.PLP.PLP>
-47.9616

> <Gold.PLP.part.hbond>
-1.4505

> <Gold.PLP.part.metal>
0.0000

> <Gold.PLP.part.buried>
-5.2629

> <Gold.PLP.part.nonpolar>
-39.9352

> <Gold.PLP.part.repulsive>
0.0231

> <Gold.PLP.ligand.clash>
0.0000

> <Gold.PLP.ligand.torsion>
0.9944

> <Gold.PLP.Chemscore.Hbond>
2.0000

> <Gold.PLP.Chemscore.CHOScore>
0.0000

> <Gold.PLP.Chemscore.Metal>
0.0000

> <Gold.Chemscore.Hbonds>
donor molecule, donor type, donor heavy atom, donor atom, acceptor molecule, acceptor atom, score
      P1  H  6896  6908       L1    19  1.40

> <Gold.PLP.Chemscore.Internal.Correction>
0.8201

> <Gold.Rescore>
     Score         DG    S(hbond)    S(metal)    S(lipo)     H(rot)  DE(clash)    DE(int)     intcor
     13.64     -16.32       0.81        0.00     100.97       1.44       0.09       2.59       ----

> <Gold.Chemscore.Fitness>
13.6448

> <Gold.Chemscore.DG>
-16.3232

> <Gold.Chemscore.ZeroCoef>
-5.4800

> <Gold.Chemscore.Hbond>
0.8110

> <Gold.Chemscore.Metal>
0.0000

> <Gold.Chemscore.Lipo>
100.9735

> <Gold.Chemscore.Internal_Hbond>
0.0000

> <Gold.Chemscore.DEClash>
0.0897

> <Gold.Chemscore.DEInternal>
2.5888

> <Gold.Chemscore.Rot>
1.4372

> <Gold.Chemscore.Internal.Correction>
   9.000000E+99

> <Gold.Chemscore.Hbonds>
donor molecule, donor type, donor heavy atom, donor atom, acceptor molecule, acceptor atom, score
      P1  H  6896  6908       L1    19  0.07

> <Gold.Chemscore.Hbond.Weighted>
-2.7086

> <Gold.Chemscore.Metal.Weighted>
-0.0000

> <Gold.Chemscore.Lipo.Weighted>
-11.8139

> <Gold.Chemscore.Internal_Hbond.Weighted>
0.0000

> <Gold.Chemscore.DEClash.Weighted>
0.0897

> <Gold.Chemscore.DEInternal.Weighted>
2.5888

> <Gold.Chemscore.Rot.Weighted>
3.6793

> <Gold.Chemscore.Internal.Correction.Weighted>
   9.000000E+99

> <Gold.Protein.RotatedTorsions>
[ 6907 6896 6895 6894 ] final  -86.30 input  -60.11 | X-H torsion
[ 7974 7965 7964 7962 ] final   -5.47 input  175.53 | X-H torsion
[ 8008 7997 7996 7995 ] final  104.70 input   59.86 | X-H torsion
[ 10167 10162 10161 10158 ] final -151.63 input  -65.29 | X-H torsion
[ 10718 10713 10712 10709 ] final  165.20 input   66.30 | X-H torsion
[ 10763 10752 10751 10750 ] final  112.02 input  -60.55 | X-H torsion
[ 11005 11000 10999 10996 ] final   48.36 input  -57.11 | X-H torsion

> <Gold.Protein.ActiveResidues>
 VAL166  LYS551  ARG553  GLY616  TRP617  ASP618  TYR619  PRO620  LYS621  CYS622 
 ASP623  PHE694  ASN695  SER759  ASP760  ASP761  ALA762  ILE779  LEU786  VAL792 
 PHE793  MET794  SER795  GLU796  ALA797  LYS798  CYS799  TRP800  GLU811  SER814 

> <Gold.Protein.RotatedAtoms>
  150.6867  134.3071  159.4730 H   0  0  0  0  0  0  0  0  0  0  0  0  # atno 6907 bound_to 6896
  152.0961  134.9371  160.0580 H   0  0  0  0  0  0  0  0  0  0  0  0  # atno 6908 bound_to 6896
  152.0668  133.4053  159.4479 H   0  0  0  0  0  0  0  0  0  0  0  0  # atno 6909 bound_to 6896
  146.2352  140.2025  142.8334 H   0  0  0  0  0  0  0  0  0  0  0  0  # atno 7974 bound_to 7965
  156.1595  140.3143  155.8784 H   0  0  0  0  0  0  0  0  0  0  0  0  # atno 8008 bound_to 7997
  155.3810  140.0487  157.3060 H   0  0  0  0  0  0  0  0  0  0  0  0  # atno 8009 bound_to 7997
  154.5133  140.2172  155.9125 H   0  0  0  0  0  0  0  0  0  0  0  0  # atno 8010 bound_to 7997
  139.7251  143.8896  152.2516 H   0  0  0  0  0  0  0  0  0  0  0  0  # atno 10167 bound_to 10162
  157.0836  131.0398  151.2565 H   0  0  0  0  0  0  0  0  0  0  0  0  # atno 10718 bound_to 10713
  153.4717  135.3699  155.2394 H   0  0  0  0  0  0  0  0  0  0  0  0  # atno 10763 bound_to 10752
  154.8757  135.3933  154.3804 H   0  0  0  0  0  0  0  0  0  0  0  0  # atno 10764 bound_to 10752
  153.4393  135.7084  153.6244 H   0  0  0  0  0  0  0  0  0  0  0  0  # atno 10765 bound_to 10752
  140.1198  134.4845  155.8607 H   0  0  0  0  0  0  0  0  0  0  0  0  # atno 11005 bound_to 11000
  144.9770  140.8423  143.5420 LP  0  0  0  0  0  0  0  0  0  0  0  0  # atno 17320 bound_to 7965
  145.2014  139.2250  143.5191 LP  0  0  0  0  0  0  0  0  0  0  0  0  # atno 17321 bound_to 7965
  139.8803  144.7021  150.8885 LP  0  0  0  0  0  0  0  0  0  0  0  0  # atno 17342 bound_to 10162
  140.7761  143.3666  151.1727 LP  0  0  0  0  0  0  0  0  0  0  0  0  # atno 17343 bound_to 10162
  157.4780  130.7748  149.7386 LP  0  0  0  0  0  0  0  0  0  0  0  0  # atno 17370 bound_to 10713
  155.9917  130.3936  150.2974 LP  0  0  0  0  0  0  0  0  0  0  0  0  # atno 17371 bound_to 10713
  141.2149  133.6756  156.6866 LP  0  0  0  0  0  0  0  0  0  0  0  0  # atno 17394 bound_to 11000
  140.2980  134.8186  157.4074 LP  0  0  0  0  0  0  0  0  0  0  0  0  # atno 17395 bound_to 11000

$$$$
