AV-unprocessed.smi:2462|AV-procd|sdf|9718|dock3
  -GOLD-   2272013353D 1   1.00000     0.00000
 Structure written by MMmdl.
 40 41  0  0  0  0  0  0  0  0  1 V2000
  147.8386  138.4841  154.3496 C   0  0  0  0  0  0  0  0  0  0  0  0
  148.8636  139.4646  154.8918 C   0  0  0  0  0  0  0  0  0  0  0  0
  148.3584  140.7016  155.3000 N   0  0  0  0  0  0  0  0  0  0  0  0
  149.1555  141.5922  155.7925 C   0  0  0  0  0  0  0  0  0  0  0  0
  150.5346  141.3550  155.9366 N   0  0  0  0  0  0  0  0  0  0  0  0
  151.3384  142.4487  156.5205 C   0  0  0  0  0  0  0  0  0  0  0  0
  151.5380  142.3691  158.0643 C   0  0  1  0  0  0  0  0  0  0  0  0
  150.2533  142.2558  158.6484 O   0  0  0  0  0  0  0  0  0  0  0  0
  152.2964  141.0660  158.4167 C   0  0  0  0  0  0  0  0  0  0  0  0
  152.5977  140.9210  159.9196 C   0  0  0  0  0  0  0  0  0  0  0  0
  153.3587  142.1415  160.4650 C   0  0  2  0  0  0  0  0  0  0  0  0
  153.6670  141.9902  161.9612 C   0  0  0  0  0  0  0  0  0  0  0  0
  152.5655  143.4281  160.1795 C   0  0  0  0  0  0  0  0  0  0  0  0
  152.2660  143.5919  158.6787 C   0  0  0  0  0  0  0  0  0  0  0  0
  151.1134  140.1898  155.5235 C   0  0  0  0  0  0  0  0  0  0  0  0
  152.3291  140.0053  155.6015 O   0  0  0  0  0  0  0  0  0  0  0  0
  150.1908  139.1780  154.9835 C   0  0  0  0  0  0  0  0  0  0  0  0
  150.7971  137.8472  154.5557 C   0  0  0  0  0  0  0  0  0  0  0  0
  148.0905  138.1909  153.3301 H   0  0  0  0  0  0  0  0  0  0  0  0
  146.8395  138.9216  154.3334 H   0  0  0  0  0  0  0  0  0  0  0  0
  147.8013  137.5896  154.9719 H   0  0  0  0  0  0  0  0  0  0  0  0
  148.8081  142.5700  156.1303 H   0  0  0  0  0  0  0  0  0  0  0  0
  152.3060  142.5166  156.0193 H   0  0  0  0  0  0  0  0  0  0  0  0
  150.8639  143.4017  156.2784 H   0  0  0  0  0  0  0  0  0  0  0  0
  150.0361  141.3388  158.7194 H   0  0  0  0  0  0  0  0  0  0  0  0
  151.7347  140.1969  158.0709 H   0  0  0  0  0  0  0  0  0  0  0  0
  153.2441  141.0437  157.8766 H   0  0  0  0  0  0  0  0  0  0  0  0
  151.6670  140.7864  160.4725 H   0  0  0  0  0  0  0  0  0  0  0  0
  153.1823  140.0153  160.0844 H   0  0  0  0  0  0  0  0  0  0  0  0
  154.3118  142.2088  159.9381 H   0  0  0  0  0  0  0  0  0  0  0  0
  152.7522  141.9140  162.5496 H   0  0  0  0  0  0  0  0  0  0  0  0
  154.2325  142.8448  162.3342 H   0  0  0  0  0  0  0  0  0  0  0  0
  154.2604  141.0954  162.1509 H   0  0  0  0  0  0  0  0  0  0  0  0
  151.6313  143.4203  160.7426 H   0  0  0  0  0  0  0  0  0  0  0  0
  153.1255  144.2952  160.5315 H   0  0  0  0  0  0  0  0  0  0  0  0
  153.2089  143.7491  158.1537 H   0  0  0  0  0  0  0  0  0  0  0  0
  151.6797  144.5001  158.5340 H   0  0  0  0  0  0  0  0  0  0  0  0
  151.3198  137.3851  155.3941 H   0  0  0  0  0  0  0  0  0  0  0  0
  151.5181  138.0038  153.7524 H   0  0  0  0  0  0  0  0  0  0  0  0
  150.0574  137.1321  154.1993 H   0  0  0  0  0  0  0  0  0  0  0  0
  1  2  1  0  0  0  0
  1 19  1  0  0  0  0
  1 20  1  0  0  0  0
  1 21  1  0  0  0  0
  2 17  2  0  0  0  0
  2  3  1  0  0  0  0
  3  4  2  0  0  0  0
  4  5  1  0  0  0  0
  4 22  1  0  0  0  0
  5  6  1  0  0  0  0
  5 15  1  0  0  0  0
  6  7  1  0  0  0  0
  6 23  1  0  0  0  0
  6 24  1  0  0  0  0
  7 14  1  0  0  0  0
  7  8  1  0  0  0  0
  7  9  1  0  0  0  0
  8 25  1  0  0  0  0
  9 10  1  0  0  0  0
  9 26  1  0  0  0  0
  9 27  1  0  0  0  0
 10 11  1  0  0  0  0
 10 28  1  0  0  0  0
 10 29  1  0  0  0  0
 11 12  1  0  0  0  0
 11 13  1  0  0  0  0
 11 30  1  0  0  0  0
 12 31  1  0  0  0  0
 12 32  1  0  0  0  0
 12 33  1  0  0  0  0
 13 14  1  0  0  0  0
 13 34  1  0  0  0  0
 13 35  1  0  0  0  0
 14 36  1  0  0  0  0
 14 37  1  0  0  0  0
 15 16  2  0  0  0  0
 15 17  1  0  0  0  0
 17 18  1  0  0  0  0
 18 38  1  0  0  0  0
 18 39  1  0  0  0  0
 18 40  1  0  0  0  0
M  END
> <s_m_source_file>
AV-unprocessed.smi

> <i_m_source_file_index>
2462

> <i_lp_mmshare_version>
43012

> <i_f3d_flags>
0

> <s_epik_input>
W0NIM11jMW5bY0hdbihjKD1PKWMxW0NIM10pW0NIMl1bQ0BAXTIoW09IXSlbQ0gyXVtDSDJdW0NAQEhdKFtDSDNdKVtDSDJdW0NIMl0y

> <s_epik_cmdline>
J2VwaWtfcHl0aG9uJywgJy1waCcsICc3LjAnLCAnLXRuJywgJzgnLCAnLW1hJywgJzIwMCcsICctbWV0YWxfYmluZGluZycsICctaW1hZScsICc8aW5maWxlLm1hZT4nLCAnLW9tYWUnLCAnPG91dGZpbGUubWFlPic=

> <r_lp_tautomer_probability>
1

> <r_epik_Ionization_Penalty>
0.000179745

> <r_epik_Ionization_Penalty_Charging>
2.35483e-07

> <r_epik_Ionization_Penalty_Neutral>
0.00017951

> <r_epik_State_Penalty>
-0

> <r_epik_Charging_Adjusted_Penalty>
2.35483e-07

> <i_epik_Tot_Q>
0

> <i_epik_Tot_abs_Q>
0

> <r_epik_Metal_State_Penalty>
-0

> <b_epik_Metal_Only>
0

> <s_lp_Force_Field>
OPLS_2005

> <r_lp_Energy>
24.8563

> <b_lp_Chiralities_Consistent>
1

> <s_lp_Variant>
AV-unprocessed.smi:2462-2

> <Gold.Version>
5.8.1

> <Gold.Id.Protein>
6NUR|6NUR_protein|mol2

> <Gold.PLP.Fitness>
43.3264

> <Gold.PLP.PLP>
-38.4705

> <Gold.PLP.part.hbond>
-2.0413

> <Gold.PLP.part.metal>
0.0000

> <Gold.PLP.part.buried>
-1.1806

> <Gold.PLP.part.nonpolar>
-34.5143

> <Gold.PLP.part.repulsive>
0.0733

> <Gold.PLP.ligand.clash>
0.0000

> <Gold.PLP.ligand.torsion>
0.3885

> <Gold.PLP.Chemscore.Hbond>
0.8564

> <Gold.PLP.Chemscore.CHOScore>
1.0000

> <Gold.PLP.Chemscore.Metal>
0.0000

> <Gold.Chemscore.Hbonds>
donor molecule, donor type, donor heavy atom, donor atom, acceptor molecule, acceptor atom, score
      P1  H  7997  8009       L1    16  0.42
      L1  C     4    22       P1  8028  1.00

> <Gold.PLP.Chemscore.Internal.Correction>
0.0636

> <Gold.Rescore>
     Score         DG    S(hbond)    S(metal)    S(lipo)     H(rot)  DE(clash)    DE(int)     intcor
     13.53     -14.84       0.53        0.00     101.48       1.68       0.30       1.01       ----

> <Gold.Chemscore.Fitness>
13.5293

> <Gold.Chemscore.DG>
-14.8366

> <Gold.Chemscore.ZeroCoef>
-5.4800

> <Gold.Chemscore.Hbond>
0.5308

> <Gold.Chemscore.Metal>
0.0000

> <Gold.Chemscore.Lipo>
101.4838

> <Gold.Chemscore.Internal_Hbond>
0.0000

> <Gold.Chemscore.DEClash>
0.2977

> <Gold.Chemscore.DEInternal>
1.0096

> <Gold.Chemscore.Rot>
1.6758

> <Gold.Chemscore.Internal.Correction>
   9.000000E+99

> <Gold.Chemscore.Hbonds>
donor molecule, donor type, donor heavy atom, donor atom, acceptor molecule, acceptor atom, score
      P1  H  7997  8009       L1    16  0.41

> <Gold.Chemscore.Hbond.Weighted>
-1.7730

> <Gold.Chemscore.Metal.Weighted>
-0.0000

> <Gold.Chemscore.Lipo.Weighted>
-11.8736

> <Gold.Chemscore.Internal_Hbond.Weighted>
0.0000

> <Gold.Chemscore.DEClash.Weighted>
0.2977

> <Gold.Chemscore.DEInternal.Weighted>
1.0096

> <Gold.Chemscore.Rot.Weighted>
4.2899

> <Gold.Chemscore.Internal.Correction.Weighted>
   9.000000E+99

> <Gold.Protein.RotatedTorsions>
[ 6907 6896 6895 6894 ] final   -4.72 input  -60.11 | X-H torsion
[ 7974 7965 7964 7962 ] final  131.76 input  175.53 | X-H torsion
[ 8008 7997 7996 7995 ] final -124.57 input   59.86 | X-H torsion
[ 10167 10162 10161 10158 ] final  -42.02 input  -65.29 | X-H torsion
[ 10718 10713 10712 10709 ] final  121.58 input   66.30 | X-H torsion
[ 10763 10752 10751 10750 ] final -125.00 input  -60.55 | X-H torsion
[ 11005 11000 10999 10996 ] final  179.48 input  -57.11 | X-H torsion

> <Gold.Protein.ActiveResidues>
 VAL166  LYS551  ARG553  GLY616  TRP617  ASP618  TYR619  PRO620  LYS621  CYS622 
 ASP623  PHE694  ASN695  SER759  ASP760  ASP761  ALA762  ILE779  LEU786  VAL792 
 PHE793  MET794  SER795  GLU796  ALA797  LYS798  CYS799  TRP800  GLU811  SER814 

> <Gold.Protein.RotatedAtoms>
  151.4932  135.1058  159.9808 H   0  0  0  0  0  0  0  0  0  0  0  0  # atno 6907 bound_to 6896
  152.4732  133.8074  159.6996 H   0  0  0  0  0  0  0  0  0  0  0  0  # atno 6908 bound_to 6896
  150.8754  133.7383  159.2974 H   0  0  0  0  0  0  0  0  0  0  0  0  # atno 6909 bound_to 6896
  145.0040  139.4284  143.5278 H   0  0  0  0  0  0  0  0  0  0  0  0  # atno 7974 bound_to 7965
  155.1991  140.0415  157.2914 H   0  0  0  0  0  0  0  0  0  0  0  0  # atno 8008 bound_to 7997
  154.6087  140.2471  155.7669 H   0  0  0  0  0  0  0  0  0  0  0  0  # atno 8009 bound_to 7997
  156.2366  140.2919  156.0338 H   0  0  0  0  0  0  0  0  0  0  0  0  # atno 8010 bound_to 7997
  140.6983  143.3061  151.3150 H   0  0  0  0  0  0  0  0  0  0  0  0  # atno 10167 bound_to 10162
  157.5807  131.1075  150.8193 H   0  0  0  0  0  0  0  0  0  0  0  0  # atno 10718 bound_to 10713
  154.8730  135.4044  154.3197 H   0  0  0  0  0  0  0  0  0  0  0  0  # atno 10763 bound_to 10752
  153.4027  135.7018  153.6420 H   0  0  0  0  0  0  0  0  0  0  0  0  # atno 10764 bound_to 10752
  153.5155  135.3698  155.2578 H   0  0  0  0  0  0  0  0  0  0  0  0  # atno 10765 bound_to 10752
  140.4067  134.6729  157.4591 H   0  0  0  0  0  0  0  0  0  0  0  0  # atno 11005 bound_to 11000
  146.3457  139.9445  142.8737 LP  0  0  0  0  0  0  0  0  0  0  0  0  # atno 17320 bound_to 7965
  145.2114  140.9897  143.4098 LP  0  0  0  0  0  0  0  0  0  0  0  0  # atno 17321 bound_to 7965
  139.6467  144.0438  152.2596 LP  0  0  0  0  0  0  0  0  0  0  0  0  # atno 17342 bound_to 10162
  139.9961  144.6327  150.7771 LP  0  0  0  0  0  0  0  0  0  0  0  0  # atno 17343 bound_to 10162
  156.8640  130.5123  149.5301 LP  0  0  0  0  0  0  0  0  0  0  0  0  # atno 17370 bound_to 10713
  156.0853  130.5853  150.9636 LP  0  0  0  0  0  0  0  0  0  0  0  0  # atno 17371 bound_to 10713
  140.0297  134.6424  155.9123 LP  0  0  0  0  0  0  0  0  0  0  0  0  # atno 17394 bound_to 11000
  141.1837  133.6551  156.5125 LP  0  0  0  0  0  0  0  0  0  0  0  0  # atno 17395 bound_to 11000

$$$$
