AV-unprocessed.smi:2643|AV-procd|sdf|10276|dock2
  -GOLD-   2272014283D 1   1.00000     0.00000
 Structure written by MMmdl.
 34 35  0  0  0  0  0  0  0  0  1 V2000
  146.1599  139.9419  152.5143 C   0  0  0  0  0  0  0  0  0  0  0  0
  147.0312  138.9081  153.2370 C   0  0  0  0  0  0  0  0  0  0  0  0
  147.9989  139.5394  154.1129 N   0  0  0  0  0  0  0  0  0  0  0  0
  148.0927  140.8723  154.4607 C   0  0  0  0  0  0  0  0  0  0  0  0
  149.1612  140.9584  155.3077 C   0  0  0  0  0  0  0  0  0  0  0  0
  149.7018  142.0935  155.9622 N   0  0  0  0  0  0  0  0  0  0  0  0
  150.7732  142.1393  156.7767 C   0  0  0  0  0  0  0  0  0  0  0  0
  151.4603  141.1654  157.0782 O   0  0  0  0  0  0  0  0  0  0  0  0
  151.0552  143.3664  157.2505 N   0  0  0  0  0  0  0  0  0  0  0  0
  152.1417  143.7603  158.1507 C   0  0  0  0  0  0  0  0  0  0  0  0
  152.1216  142.9520  159.4659 C   0  0  0  0  0  0  0  0  0  0  0  0
  152.2086  143.9774  160.5977 C   0  0  0  0  0  0  0  0  0  0  0  0
  151.5537  145.2289  160.0230 C   0  0  0  0  0  0  0  0  0  0  0  0
  151.9915  145.2377  158.5582 C   0  0  0  0  0  0  0  0  0  0  0  0
  149.6672  139.6381  155.4284 C   0  0  0  0  0  0  0  0  0  0  0  0
  148.9592  138.7855  154.7034 N   0  0  0  0  0  0  0  0  0  0  0  0
  145.4461  139.4525  151.8518 H   0  0  0  0  0  0  0  0  0  0  0  0
  146.7683  140.6153  151.9098 H   0  0  0  0  0  0  0  0  0  0  0  0
  145.5937  140.5467  153.2232 H   0  0  0  0  0  0  0  0  0  0  0  0
  146.4100  138.2328  153.8268 H   0  0  0  0  0  0  0  0  0  0  0  0
  147.5662  138.2937  152.5118 H   0  0  0  0  0  0  0  0  0  0  0  0
  147.4050  141.6135  154.0813 H   0  0  0  0  0  0  0  0  0  0  0  0
  149.2263  142.9677  155.7921 H   0  0  0  0  0  0  0  0  0  0  0  0
  150.4507  144.1147  156.9432 H   0  0  0  0  0  0  0  0  0  0  0  0
  153.1008  143.6395  157.6436 H   0  0  0  0  0  0  0  0  0  0  0  0
  151.1866  142.3978  159.5622 H   0  0  0  0  0  0  0  0  0  0  0  0
  152.9321  142.2241  159.5137 H   0  0  0  0  0  0  0  0  0  0  0  0
  151.7280  143.6334  161.5141 H   0  0  0  0  0  0  0  0  0  0  0  0
  153.2549  144.1842  160.8269 H   0  0  0  0  0  0  0  0  0  0  0  0
  150.4684  145.1368  160.0827 H   0  0  0  0  0  0  0  0  0  0  0  0
  151.8421  146.1367  160.5537 H   0  0  0  0  0  0  0  0  0  0  0  0
  152.9608  145.7317  158.4789 H   0  0  0  0  0  0  0  0  0  0  0  0
  151.2980  145.7947  157.9264 H   0  0  0  0  0  0  0  0  0  0  0  0
  150.5059  139.2772  156.0057 H   0  0  0  0  0  0  0  0  0  0  0  0
  1  2  1  0  0  0  0
  1 17  1  0  0  0  0
  1 18  1  0  0  0  0
  1 19  1  0  0  0  0
  2  3  1  0  0  0  0
  2 20  1  0  0  0  0
  2 21  1  0  0  0  0
  3 16  1  0  0  0  0
  3  4  1  0  0  0  0
  4  5  2  0  0  0  0
  4 22  1  0  0  0  0
  5  6  1  0  0  0  0
  5 15  1  0  0  0  0
  6  7  1  0  0  0  0
  6 23  1  0  0  0  0
  7  8  2  0  0  0  0
  7  9  1  0  0  0  0
  9 10  1  0  0  0  0
  9 24  1  0  0  0  0
 10 14  1  0  0  0  0
 10 11  1  0  0  0  0
 10 25  1  0  0  0  0
 11 12  1  0  0  0  0
 11 26  1  0  0  0  0
 11 27  1  0  0  0  0
 12 13  1  0  0  0  0
 12 28  1  0  0  0  0
 12 29  1  0  0  0  0
 13 14  1  0  0  0  0
 13 30  1  0  0  0  0
 13 31  1  0  0  0  0
 14 32  1  0  0  0  0
 14 33  1  0  0  0  0
 15 16  2  0  0  0  0
 15 34  1  0  0  0  0
M  END
> <s_m_source_file>
AV-unprocessed.smi

> <i_m_source_file_index>
2643

> <i_lp_mmshare_version>
43012

> <i_f3d_flags>
0

> <s_epik_input>
W0NIM11bQ0gyXW4xW2NIXWMoW2NIXW4xKVtOSF1DKD1PKVtOSF1bQ0hdMltDSDJdW0NIMl1bQ0gyXVtDSDJdMg==

> <s_epik_cmdline>
J2VwaWtfcHl0aG9uJywgJy1waCcsICc3LjAnLCAnLXRuJywgJzgnLCAnLW1hJywgJzIwMCcsICctbWV0YWxfYmluZGluZycsICctaW1hZScsICc8aW5maWxlLm1hZT4nLCAnLW9tYWUnLCAnPG91dGZpbGUubWFlPic=

> <r_lp_tautomer_probability>
1

> <r_epik_Ionization_Penalty>
0.000191398

> <r_epik_Ionization_Penalty_Charging>
0

> <r_epik_Ionization_Penalty_Neutral>
0.000191398

> <r_epik_State_Penalty>
-0

> <r_epik_Charging_Adjusted_Penalty>
0

> <i_epik_Tot_Q>
0

> <i_epik_Tot_abs_Q>
0

> <r_epik_Metal_State_Penalty>
-0

> <b_epik_Metal_Only>
0

> <s_lp_Force_Field>
OPLS_2005

> <r_lp_Energy>
32.4137

> <b_lp_Chiralities_Consistent>
1

> <s_lp_Variant>
AV-unprocessed.smi:2643-1

> <Gold.Version>
5.8.1

> <Gold.Id.Protein>
6NUR|6NUR_protein|mol2

> <Gold.PLP.Fitness>
40.8358

> <Gold.PLP.PLP>
-35.5422

> <Gold.PLP.part.hbond>
-2.0000

> <Gold.PLP.part.metal>
0.0000

> <Gold.PLP.part.buried>
1.3186

> <Gold.PLP.part.nonpolar>
-35.3748

> <Gold.PLP.part.repulsive>
0.3379

> <Gold.PLP.ligand.clash>
0.0000

> <Gold.PLP.ligand.torsion>
0.0955

> <Gold.PLP.Chemscore.Hbond>
1.8268

> <Gold.PLP.Chemscore.CHOScore>
0.0000

> <Gold.PLP.Chemscore.Metal>
0.0000

> <Gold.Chemscore.Hbonds>
donor molecule, donor type, donor heavy atom, donor atom, acceptor molecule, acceptor atom, score
      L1  H     6    23       P1  8028  1.00
      L1  H     9    24       P1  8028  0.84

> <Gold.PLP.Chemscore.Internal.Correction>
0.0042

> <Gold.Rescore>
     Score         DG    S(hbond)    S(metal)    S(lipo)     H(rot)  DE(clash)    DE(int)     intcor
     16.76     -19.31       1.87        0.00      90.47       1.17       0.23       2.32       ----

> <Gold.Chemscore.Fitness>
16.7579

> <Gold.Chemscore.DG>
-19.3114

> <Gold.Chemscore.ZeroCoef>
-5.4800

> <Gold.Chemscore.Hbond>
1.8718

> <Gold.Chemscore.Metal>
0.0000

> <Gold.Chemscore.Lipo>
90.4724

> <Gold.Chemscore.Internal_Hbond>
0.0000

> <Gold.Chemscore.DEClash>
0.2315

> <Gold.Chemscore.DEInternal>
2.3219

> <Gold.Chemscore.Rot>
1.1741

> <Gold.Chemscore.Internal.Correction>
   9.000000E+99

> <Gold.Chemscore.Hbonds>
donor molecule, donor type, donor heavy atom, donor atom, acceptor molecule, acceptor atom, score
      L1  H     6    23       P1  8028  1.00
      L1  H     9    24       P1  8028  0.77

> <Gold.Chemscore.Hbond.Weighted>
-6.2517

> <Gold.Chemscore.Metal.Weighted>
-0.0000

> <Gold.Chemscore.Lipo.Weighted>
-10.5853

> <Gold.Chemscore.Internal_Hbond.Weighted>
0.0000

> <Gold.Chemscore.DEClash.Weighted>
0.2315

> <Gold.Chemscore.DEInternal.Weighted>
2.3219

> <Gold.Chemscore.Rot.Weighted>
3.0056

> <Gold.Chemscore.Internal.Correction.Weighted>
   9.000000E+99

> <Gold.Protein.RotatedTorsions>
[ 6907 6896 6895 6894 ] final  144.93 input  -60.11 | X-H torsion
[ 7974 7965 7964 7962 ] final -126.08 input  175.53 | X-H torsion
[ 8008 7997 7996 7995 ] final   28.89 input   59.86 | X-H torsion
[ 10167 10162 10161 10158 ] final   -1.49 input  -65.29 | X-H torsion
[ 10718 10713 10712 10709 ] final -152.23 input   66.30 | X-H torsion
[ 10763 10752 10751 10750 ] final  167.67 input  -60.55 | X-H torsion
[ 11005 11000 10999 10996 ] final   73.87 input  -57.11 | X-H torsion

> <Gold.Protein.ActiveResidues>
 VAL166  LYS551  ARG553  GLY616  TRP617  ASP618  TYR619  PRO620  LYS621  CYS622 
 ASP623  PHE694  ASN695  SER759  ASP760  ASP761  ALA762  ILE779  LEU786  VAL792 
 PHE793  MET794  SER795  GLU796  ALA797  LYS798  CYS799  TRP800  GLU811  SER814 

> <Gold.Protein.RotatedAtoms>
  152.1874  133.4749  159.4989 H   0  0  0  0  0  0  0  0  0  0  0  0  # atno 6907 bound_to 6896
  150.6945  134.1756  159.4238 H   0  0  0  0  0  0  0  0  0  0  0  0  # atno 6908 bound_to 6896
  151.9669  135.0096  160.0601 H   0  0  0  0  0  0  0  0  0  0  0  0  # atno 6909 bound_to 6896
  144.9909  140.7731  143.4554 H   0  0  0  0  0  0  0  0  0  0  0  0  # atno 7974 bound_to 7965
  155.0658  140.3195  155.4646 H   0  0  0  0  0  0  0  0  0  0  0  0  # atno 8008 bound_to 7997
  156.2802  140.2120  156.5730 H   0  0  0  0  0  0  0  0  0  0  0  0  # atno 8009 bound_to 7997
  154.7095  140.0499  157.0523 H   0  0  0  0  0  0  0  0  0  0  0  0  # atno 8010 bound_to 7997
  140.6812  143.6768  150.8138 H   0  0  0  0  0  0  0  0  0  0  0  0  # atno 10167 bound_to 10162
  156.4697  130.8252  151.2482 H   0  0  0  0  0  0  0  0  0  0  0  0  # atno 10718 bound_to 10713
  154.3573  135.2753  155.2339 H   0  0  0  0  0  0  0  0  0  0  0  0  # atno 10763 bound_to 10752
  154.4543  135.5923  153.6216 H   0  0  0  0  0  0  0  0  0  0  0  0  # atno 10764 bound_to 10752
  152.9846  135.6049  154.3790 H   0  0  0  0  0  0  0  0  0  0  0  0  # atno 10765 bound_to 10752
  139.9419  134.7384  156.1079 H   0  0  0  0  0  0  0  0  0  0  0  0  # atno 11005 bound_to 11000
  145.2287  139.2125  143.5054 LP  0  0  0  0  0  0  0  0  0  0  0  0  # atno 17320 bound_to 7965
  146.3431  140.2159  142.8590 LP  0  0  0  0  0  0  0  0  0  0  0  0  # atno 17321 bound_to 7965
  140.0469  143.5289  152.2692 LP  0  0  0  0  0  0  0  0  0  0  0  0  # atno 17342 bound_to 10162
  139.6137  144.7614  151.2895 LP  0  0  0  0  0  0  0  0  0  0  0  0  # atno 17343 bound_to 10162
  157.7492  131.0080  150.3212 LP  0  0  0  0  0  0  0  0  0  0  0  0  # atno 17370 bound_to 10713
  156.3631  130.3850  149.7235 LP  0  0  0  0  0  0  0  0  0  0  0  0  # atno 17371 bound_to 10713
  141.1056  133.6661  156.2856 LP  0  0  0  0  0  0  0  0  0  0  0  0  # atno 17394 bound_to 11000
  140.5931  134.5630  157.5503 LP  0  0  0  0  0  0  0  0  0  0  0  0  # atno 17395 bound_to 11000

$$$$
