AV-unprocessed.smi:3066|AV-procd|sdf|11693|dock3
  -GOLD-   2272017 93D 1   1.00000     0.00000
 Structure written by MMmdl.
 35 36  0  0  0  0  0  0  0  0  1 V2000
  154.6371  138.3759  154.4561 N   0  0  0  0  0  0  0  0  0  0  0  0
  153.5162  138.5900  154.6488 C   0  0  0  0  0  0  0  0  0  0  0  0
  152.1091  138.8587  154.8912 C   0  0  0  0  0  0  0  0  0  0  0  0
  151.1625  137.8855  154.7508 N   0  0  0  0  0  0  0  0  0  0  0  0
  150.0869  138.5975  155.0642 C   0  0  0  0  0  0  0  0  0  0  0  0
  150.3490  139.8739  155.3655 N   0  0  0  0  0  0  0  0  0  0  0  0
  149.4570  140.9566  155.7390 C   0  0  0  0  0  0  0  0  0  0  0  0
  149.9974  141.7201  156.9485 C   0  0  0  0  0  0  0  0  0  0  0  0
  149.3059  141.8389  157.9597 O   0  0  0  0  0  0  0  0  0  0  0  0
  151.2333  142.2309  156.8282 N   0  0  0  0  0  0  0  0  0  0  0  0
  151.9324  143.0203  157.8386 C   0  0  0  0  0  0  0  0  0  0  0  0
  152.2469  142.0976  159.0313 C   0  0  0  0  0  0  0  0  0  0  0  0
  152.9686  142.7723  160.2106 C   0  0  0  0  0  0  0  0  0  0  0  0
  152.0391  143.6729  161.0400 C   0  0  0  0  0  0  0  0  0  0  0  0
  151.8908  145.1173  160.5310 C   0  0  0  0  0  0  0  0  0  0  0  0
  151.8813  145.3131  159.0047 C   0  0  0  0  0  0  0  0  0  0  0  0
  151.0916  144.2639  158.2041 C   0  0  0  0  0  0  0  0  0  0  0  0
  151.6866  140.0672  155.2570 N   0  0  0  0  0  0  0  0  0  0  0  0
  149.0889  138.1838  155.0694 H   0  0  0  0  0  0  0  0  0  0  0  0
  149.3493  141.6301  154.8878 H   0  0  0  0  0  0  0  0  0  0  0  0
  148.4666  140.5556  155.9610 H   0  0  0  0  0  0  0  0  0  0  0  0
  151.7220  142.0762  155.9578 H   0  0  0  0  0  0  0  0  0  0  0  0
  152.8834  143.3523  157.4174 H   0  0  0  0  0  0  0  0  0  0  0  0
  151.3305  141.6258  159.3894 H   0  0  0  0  0  0  0  0  0  0  0  0
  152.8748  141.2803  158.6734 H   0  0  0  0  0  0  0  0  0  0  0  0
  153.3383  141.9819  160.8649 H   0  0  0  0  0  0  0  0  0  0  0  0
  153.8519  143.3175  159.8755 H   0  0  0  0  0  0  0  0  0  0  0  0
  151.0547  143.2088  161.1107 H   0  0  0  0  0  0  0  0  0  0  0  0
  152.4082  143.7158  162.0652 H   0  0  0  0  0  0  0  0  0  0  0  0
  150.9736  145.5320  160.9506 H   0  0  0  0  0  0  0  0  0  0  0  0
  152.6986  145.7236  160.9423 H   0  0  0  0  0  0  0  0  0  0  0  0
  151.4639  146.2997  158.8000 H   0  0  0  0  0  0  0  0  0  0  0  0
  152.9061  145.3563  158.6341 H   0  0  0  0  0  0  0  0  0  0  0  0
  150.7664  144.7419  157.2789 H   0  0  0  0  0  0  0  0  0  0  0  0
  150.1775  143.9816  158.7280 H   0  0  0  0  0  0  0  0  0  0  0  0
  1  2  3  0  0  0  0
  2  3  1  0  0  0  0
  3 18  2  0  0  0  0
  3  4  1  0  0  0  0
  4  5  2  0  0  0  0
  5  6  1  0  0  0  0
  5 19  1  0  0  0  0
  6  7  1  0  0  0  0
  6 18  1  0  0  0  0
  7  8  1  0  0  0  0
  7 20  1  0  0  0  0
  7 21  1  0  0  0  0
  8  9  2  0  0  0  0
  8 10  1  0  0  0  0
 10 11  1  0  0  0  0
 10 22  1  0  0  0  0
 11 17  1  0  0  0  0
 11 12  1  0  0  0  0
 11 23  1  0  0  0  0
 12 13  1  0  0  0  0
 12 24  1  0  0  0  0
 12 25  1  0  0  0  0
 13 14  1  0  0  0  0
 13 26  1  0  0  0  0
 13 27  1  0  0  0  0
 14 15  1  0  0  0  0
 14 28  1  0  0  0  0
 14 29  1  0  0  0  0
 15 16  1  0  0  0  0
 15 30  1  0  0  0  0
 15 31  1  0  0  0  0
 16 17  1  0  0  0  0
 16 32  1  0  0  0  0
 16 33  1  0  0  0  0
 17 34  1  0  0  0  0
 17 35  1  0  0  0  0
M  END
> <s_m_source_file>
AV-unprocessed.smi

> <i_m_source_file_index>
3066

> <i_lp_mmshare_version>
43012

> <i_f3d_flags>
0

> <s_epik_input>
TiNDYzFuW2NIXW4objEpW0NIMl1DKD1PKVtOSF1bQ0hdMltDSDJdW0NIMl1bQ0gyXVtDSDJdW0NIMl1bQ0gyXTI=

> <s_epik_cmdline>
J2VwaWtfcHl0aG9uJywgJy1waCcsICc3LjAnLCAnLXRuJywgJzgnLCAnLW1hJywgJzIwMCcsICctbWV0YWxfYmluZGluZycsICctaW1hZScsICc8aW5maWxlLm1hZT4nLCAnLW9tYWUnLCAnPG91dGZpbGUubWFlPic=

> <r_lp_tautomer_probability>
1

> <r_epik_Ionization_Penalty>
4.79211e-08

> <r_epik_Ionization_Penalty_Charging>
0

> <r_epik_Ionization_Penalty_Neutral>
4.79211e-08

> <r_epik_State_Penalty>
-0

> <r_epik_Charging_Adjusted_Penalty>
0

> <i_epik_Tot_Q>
0

> <i_epik_Tot_abs_Q>
0

> <r_epik_Metal_State_Penalty>
-0

> <b_epik_Metal_Only>
0

> <s_lp_Force_Field>
OPLS_2005

> <r_lp_Energy>
17.6035

> <b_lp_Chiralities_Consistent>
1

> <s_lp_Variant>
AV-unprocessed.smi:3066-1

> <Gold.Version>
5.8.1

> <Gold.Id.Protein>
6NUR|6NUR_protein|mol2

> <Gold.PLP.Fitness>
43.0178

> <Gold.PLP.PLP>
-40.5706

> <Gold.PLP.part.hbond>
-2.2081

> <Gold.PLP.part.metal>
0.0000

> <Gold.PLP.part.buried>
-5.3458

> <Gold.PLP.part.nonpolar>
-34.1333

> <Gold.PLP.part.repulsive>
0.3409

> <Gold.PLP.ligand.clash>
0.0000

> <Gold.PLP.ligand.torsion>
0.2045

> <Gold.PLP.Chemscore.Hbond>
0.9473

> <Gold.PLP.Chemscore.CHOScore>
0.0000

> <Gold.PLP.Chemscore.Metal>
0.0000

> <Gold.Chemscore.Hbonds>
donor molecule, donor type, donor heavy atom, donor atom, acceptor molecule, acceptor atom, score
      P1  H  7989  7998       L1    18  0.73
      P1  H  7997  8010       L1     1  0.19

> <Gold.PLP.Chemscore.Internal.Correction>
0.0142

> <Gold.Rescore>
     Score         DG    S(hbond)    S(metal)    S(lipo)     H(rot)  DE(clash)    DE(int)     intcor
      9.30     -11.89       0.36        0.00      87.10       1.95       0.27       2.33       ----

> <Gold.Chemscore.Fitness>
9.2962

> <Gold.Chemscore.DG>
-11.8878

> <Gold.Chemscore.ZeroCoef>
-5.4800

> <Gold.Chemscore.Hbond>
0.3601

> <Gold.Chemscore.Metal>
0.0000

> <Gold.Chemscore.Lipo>
87.0970

> <Gold.Chemscore.Internal_Hbond>
0.0000

> <Gold.Chemscore.DEClash>
0.2663

> <Gold.Chemscore.DEInternal>
2.3253

> <Gold.Chemscore.Rot>
1.9474

> <Gold.Chemscore.Internal.Correction>
   9.000000E+99

> <Gold.Chemscore.Hbonds>
donor molecule, donor type, donor heavy atom, donor atom, acceptor molecule, acceptor atom, score
      P1  H  7989  7998       L1    18  0.02
      P1  H  7997  8010       L1     1  0.02

> <Gold.Chemscore.Hbond.Weighted>
-1.2027

> <Gold.Chemscore.Metal.Weighted>
-0.0000

> <Gold.Chemscore.Lipo.Weighted>
-10.1904

> <Gold.Chemscore.Internal_Hbond.Weighted>
0.0000

> <Gold.Chemscore.DEClash.Weighted>
0.2663

> <Gold.Chemscore.DEInternal.Weighted>
2.3253

> <Gold.Chemscore.Rot.Weighted>
4.9852

> <Gold.Chemscore.Internal.Correction.Weighted>
   9.000000E+99

> <Gold.Protein.RotatedTorsions>
[ 6907 6896 6895 6894 ] final  167.78 input  -60.11 | X-H torsion
[ 7974 7965 7964 7962 ] final    5.25 input  175.53 | X-H torsion
[ 8008 7997 7996 7995 ] final  162.81 input   59.86 | X-H torsion
[ 10167 10162 10161 10158 ] final -128.34 input  -65.29 | X-H torsion
[ 10718 10713 10712 10709 ] final   73.48 input   66.30 | X-H torsion
[ 10763 10752 10751 10750 ] final   39.86 input  -60.55 | X-H torsion
[ 11005 11000 10999 10996 ] final -158.67 input  -57.11 | X-H torsion

> <Gold.Protein.ActiveResidues>
 VAL166  LYS551  ARG553  GLY616  TRP617  ASP618  TYR619  PRO620  LYS621  CYS622 
 ASP623  PHE694  ASN695  SER759  ASP760  ASP761  ALA762  ILE779  LEU786  VAL792 
 PHE793  MET794  SER795  GLU796  ALA797  LYS798  CYS799  TRP800  GLU811  SER814 

> <Gold.Protein.RotatedAtoms>
  151.8579  133.3452  159.3694 H   0  0  0  0  0  0  0  0  0  0  0  0  # atno 6907 bound_to 6896
  150.7187  134.5235  159.5674 H   0  0  0  0  0  0  0  0  0  0  0  0  # atno 6908 bound_to 6896
  152.2742  134.7900  160.0459 H   0  0  0  0  0  0  0  0  0  0  0  0  # atno 6909 bound_to 6896
  146.2441  140.0412  142.8382 H   0  0  0  0  0  0  0  0  0  0  0  0  # atno 7974 bound_to 7965
  156.2004  140.1740  156.7912 H   0  0  0  0  0  0  0  0  0  0  0  0  # atno 8008 bound_to 7997
  154.5584  140.0704  156.8810 H   0  0  0  0  0  0  0  0  0  0  0  0  # atno 8009 bound_to 7997
  155.2895  140.3354  155.4255 H   0  0  0  0  0  0  0  0  0  0  0  0  # atno 8010 bound_to 7997
  139.9513  143.6052  152.2474 H   0  0  0  0  0  0  0  0  0  0  0  0  # atno 10167 bound_to 10162
  157.6549  130.9630  150.1075 H   0  0  0  0  0  0  0  0  0  0  0  0  # atno 10718 bound_to 10713
  152.9954  135.6208  154.2534 H   0  0  0  0  0  0  0  0  0  0  0  0  # atno 10763 bound_to 10752
  154.2272  135.2793  155.2905 H   0  0  0  0  0  0  0  0  0  0  0  0  # atno 10764 bound_to 10752
  154.5480  135.5741  153.6955 H   0  0  0  0  0  0  0  0  0  0  0  0  # atno 10765 bound_to 10752
  140.6510  134.4450  157.5235 H   0  0  0  0  0  0  0  0  0  0  0  0  # atno 11005 bound_to 11000
  145.1067  140.9380  143.4680 LP  0  0  0  0  0  0  0  0  0  0  0  0  # atno 17320 bound_to 7965
  145.0617  139.3100  143.5877 LP  0  0  0  0  0  0  0  0  0  0  0  0  # atno 17321 bound_to 7965
  139.6626  144.7662  151.1934 LP  0  0  0  0  0  0  0  0  0  0  0  0  # atno 17342 bound_to 10162
  140.7582  143.5987  150.8722 LP  0  0  0  0  0  0  0  0  0  0  0  0  # atno 17343 bound_to 10162
  156.1981  130.3658  149.8823 LP  0  0  0  0  0  0  0  0  0  0  0  0  # atno 17370 bound_to 10713
  156.6734  130.8829  151.3565 LP  0  0  0  0  0  0  0  0  0  0  0  0  # atno 17371 bound_to 10713
  139.9046  134.8478  156.1758 LP  0  0  0  0  0  0  0  0  0  0  0  0  # atno 17394 bound_to 11000
  141.0537  133.6876  156.1819 LP  0  0  0  0  0  0  0  0  0  0  0  0  # atno 17395 bound_to 11000

$$$$
