AV-unprocessed.smi:224|AV-procd|sdf|1710|dock1
  -GOLD-   2262020173D 1   1.00000     0.00000
 Structure written by MMmdl.
 56 59  0  0  0  0  0  0  0  0  2 V2000
  152.9980  143.6413  158.8165 C   0  0  0  0  0  0  0  0  0  0  0  0
  151.7332  143.3692  157.9920 C   0  0  1  0  0  0  0  0  0  0  0  0
  152.0123  143.6790  156.6417 O   0  0  0  0  0  0  0  0  0  0  0  0
  151.2829  141.8977  158.0960 C   0  0  0  0  0  0  0  0  0  0  0  0
  151.2047  141.1981  156.7834 N   0  3  1  0  0  0  0  0  0  0  0  0
  151.4278  139.7342  156.9181 C   0  0  0  0  0  0  0  0  0  0  0  0
  151.5054  139.0500  155.5419 C   0  0  0  0  0  0  0  0  0  0  0  0
  150.3388  139.3747  154.7250 N   0  0  0  0  0  0  0  0  0  0  0  0
  149.2438  138.5678  154.7677 C   0  0  0  0  0  0  0  0  0  0  0  0
  149.0698  137.7268  155.8225 N   0  0  0  0  0  0  0  0  0  0  0  0
  147.9918  136.9414  155.8948 C   0  0  0  0  0  0  0  0  0  0  0  0
  146.9792  136.8360  155.0339 N   0  0  0  0  0  0  0  0  0  0  0  0
  147.1497  137.6653  153.9654 C   0  0  0  0  0  0  0  0  0  0  0  0
  148.2440  138.5517  153.7521 C   0  0  0  0  0  0  0  0  0  0  0  0
  148.0803  139.2149  152.5413 N   0  0  0  0  0  0  0  0  0  0  0  0
  146.9502  138.7591  152.0749 C   0  0  0  0  0  0  0  0  0  0  0  0
  146.3178  137.8324  152.8719 N   0  0  0  0  0  0  0  0  0  0  0  0
  145.0534  137.1664  152.5965 C   0  0  0  0  0  0  0  0  0  0  0  0
  145.1947  135.9249  151.6845 C   0  0  1  0  0  0  0  0  0  0  0  0
  145.6843  136.3367  150.4194 O   0  0  0  0  0  0  0  0  0  0  0  0
  146.1464  134.8782  152.2484 C   0  0  0  0  0  0  0  0  0  0  0  0
  145.6125  133.5840  151.6496 C   0  0  0  0  0  0  0  0  0  0  0  0
  144.2070  133.7571  151.7146 O   0  0  0  0  0  0  0  0  0  0  0  0
  143.8931  135.1253  151.4685 C   0  0  0  0  0  0  0  0  0  0  0  0
  150.1080  140.8090  154.5658 C   0  0  0  0  0  0  0  0  0  0  0  0
  150.0243  141.5372  155.9267 C   0  0  1  0  0  0  0  0  0  0  0  0
  148.6672  141.3089  156.6261 C   0  0  0  0  0  0  0  0  0  0  0  0
  152.8271  143.4342  159.8733 H   0  0  0  0  0  0  0  0  0  0  0  0
  153.3064  144.6840  158.7326 H   0  0  0  0  0  0  0  0  0  0  0  0
  153.8316  143.0200  158.4872 H   0  0  0  0  0  0  0  0  0  0  0  0
  150.9518  144.0390  158.3490 H   0  0  0  0  0  0  0  0  0  0  0  0
  151.1955  143.7631  156.1737 H   0  0  0  0  0  0  0  0  0  0  0  0
  151.9936  141.3668  158.7314 H   0  0  0  0  0  0  0  0  0  0  0  0
  150.3232  141.8296  158.6089 H   0  0  0  0  0  0  0  0  0  0  0  0
  152.3581  139.5512  157.4567 H   0  0  0  0  0  0  0  0  0  0  0  0
  150.6305  139.2952  157.5188 H   0  0  0  0  0  0  0  0  0  0  0  0
  152.3928  139.3986  155.0125 H   0  0  0  0  0  0  0  0  0  0  0  0
  151.6267  137.9715  155.6506 H   0  0  0  0  0  0  0  0  0  0  0  0
  147.9305  136.3090  156.7680 H   0  0  0  0  0  0  0  0  0  0  0  0
  146.5414  139.0909  151.1313 H   0  0  0  0  0  0  0  0  0  0  0  0
  144.6015  136.8850  153.5486 H   0  0  0  0  0  0  0  0  0  0  0  0
  144.3772  137.8915  152.1418 H   0  0  0  0  0  0  0  0  0  0  0  0
  145.4827  137.2529  150.3050 H   0  0  0  0  0  0  0  0  0  0  0  0
  147.1951  135.0623  152.0103 H   0  0  0  0  0  0  0  0  0  0  0  0
  146.0559  134.8307  153.3345 H   0  0  0  0  0  0  0  0  0  0  0  0
  145.9202  133.4769  150.6083 H   0  0  0  0  0  0  0  0  0  0  0  0
  145.9349  132.6989  152.1983 H   0  0  0  0  0  0  0  0  0  0  0  0
  143.1107  135.4150  152.1687 H   0  0  0  0  0  0  0  0  0  0  0  0
  143.4911  135.2492  150.4618 H   0  0  0  0  0  0  0  0  0  0  0  0
  150.9449  141.2116  153.9939 H   0  0  0  0  0  0  0  0  0  0  0  0
  149.2180  141.0260  153.9778 H   0  0  0  0  0  0  0  0  0  0  0  0
  150.0795  142.5984  155.6884 H   0  0  0  0  0  0  0  0  0  0  0  0
  147.8425  141.5083  155.9411 H   0  0  0  0  0  0  0  0  0  0  0  0
  148.5346  141.9748  157.4783 H   0  0  0  0  0  0  0  0  0  0  0  0
  148.5522  140.2859  156.9825 H   0  0  0  0  0  0  0  0  0  0  0  0
  152.0042  141.5326  156.2642 H   0  0  0  0  0  0  0  0  0  0  0  0
  1  2  1  0  0  0  0
  1 28  1  0  0  0  0
  1 29  1  0  0  0  0
  1 30  1  0  0  0  0
  2  3  1  0  0  0  0
  2  4  1  0  0  0  0
  2 31  1  0  0  0  0
  3 32  1  0  0  0  0
  4  5  1  0  0  0  0
  4 33  1  0  0  0  0
  4 34  1  0  0  0  0
  5 26  1  0  0  0  0
  5  6  1  0  0  0  0
  5 56  1  0  0  0  0
  6  7  1  0  0  0  0
  6 35  1  0  0  0  0
  6 36  1  0  0  0  0
  7  8  1  0  0  0  0
  7 37  1  0  0  0  0
  7 38  1  0  0  0  0
  8  9  1  0  0  0  0
  8 25  1  0  0  0  0
  9 14  1  0  0  0  0
  9 10  2  0  0  0  0
 10 11  1  0  0  0  0
 11 12  2  0  0  0  0
 11 39  1  0  0  0  0
 12 13  1  0  0  0  0
 13 17  1  0  0  0  0
 13 14  2  0  0  0  0
 14 15  1  0  0  0  0
 15 16  2  0  0  0  0
 16 17  1  0  0  0  0
 16 40  1  0  0  0  0
 17 18  1  0  0  0  0
 18 19  1  0  0  0  0
 18 41  1  0  0  0  0
 18 42  1  0  0  0  0
 19 24  1  0  0  0  0
 19 20  1  0  0  0  0
 19 21  1  0  0  0  0
 20 43  1  0  0  0  0
 21 22  1  0  0  0  0
 21 44  1  0  0  0  0
 21 45  1  0  0  0  0
 22 23  1  0  0  0  0
 22 46  1  0  0  0  0
 22 47  1  0  0  0  0
 23 24  1  0  0  0  0
 24 48  1  0  0  0  0
 24 49  1  0  0  0  0
 25 26  1  0  0  0  0
 25 50  1  0  0  0  0
 25 51  1  0  0  0  0
 26 27  1  0  0  0  0
 26 52  1  0  0  0  0
 27 53  1  0  0  0  0
 27 54  1  0  0  0  0
 27 55  1  0  0  0  0
M  CHG  1   5   1
M  END
> <s_m_source_file>
AV-unprocessed.smi

> <i_m_source_file_index>
224

> <i_lp_mmshare_version>
43012

> <i_f3d_flags>
0

> <s_epik_input>
W0NIM11bQ0BIXShbT0hdKVtDSDJdTjFbQ0gyXVtDSDJdTihbQ0gyXVtDQEhdMVtDSDNdKWMobltjSF1uMiljKGMyMyluW2NIXW4zW0NIMl1bQ0BAXTQoW09IXSlbQ0gyXVtDSDJdT1tDSDJdNA==

> <s_epik_cmdline>
J2VwaWtfcHl0aG9uJywgJy1waCcsICc3LjAnLCAnLXRuJywgJzgnLCAnLW1hJywgJzIwMCcsICctbWV0YWxfYmluZGluZycsICctaW1hZScsICc8aW5maWxlLm1hZT4nLCAnLW9tYWUnLCAnPG91dGZpbGUubWFlPic=

> <r_lp_tautomer_probability>
1

> <r_epik_Ionization_Penalty>
0.00516958

> <r_epik_Ionization_Penalty_Charging>
0.00509693

> <r_epik_Ionization_Penalty_Neutral>
7.26542e-05

> <r_epik_State_Penalty>
-0

> <r_epik_Charging_Adjusted_Penalty>
0.00509693

> <i_epik_Tot_Q>
1

> <i_epik_Tot_abs_Q>
1

> <r_epik_Metal_State_Penalty>
-0

> <b_epik_Metal_Only>
0

> <s_lp_Force_Field>
OPLS_2005

> <r_lp_Energy>
49.6762

> <b_lp_Chiralities_Consistent>
1

> <s_lp_Variant>
AV-unprocessed.smi:224-4

> <Gold.Version>
5.8.1

> <Gold.Id.Protein>
6NUR|6NUR_protein|mol2

> <Gold.PLP.Fitness>
45.5750

> <Gold.PLP.PLP>
-38.5029

> <Gold.PLP.part.hbond>
-1.9399

> <Gold.PLP.part.metal>
0.0000

> <Gold.PLP.part.buried>
-1.0007

> <Gold.PLP.part.nonpolar>
-38.3347

> <Gold.PLP.part.repulsive>
3.1634

> <Gold.PLP.ligand.clash>
0.0000

> <Gold.PLP.ligand.torsion>
1.9092

> <Gold.PLP.Chemscore.Hbond>
1.9920

> <Gold.PLP.Chemscore.CHOScore>
1.5229

> <Gold.PLP.Chemscore.Metal>
0.0000

> <Gold.Chemscore.Hbonds>
donor molecule, donor type, donor heavy atom, donor atom, acceptor molecule, acceptor atom, score
      L1  H    20    43       P1 10171  0.62

> <Gold.PLP.Chemscore.Internal.Correction>
0.3458

> <Gold.Rescore>
     Score         DG    S(hbond)    S(metal)    S(lipo)     H(rot)  DE(clash)    DE(int)     intcor
      9.84     -13.93       1.99        0.00      81.64       3.02       1.88       2.21       ----

> <Gold.Chemscore.Fitness>
9.8418

> <Gold.Chemscore.DG>
-13.9348

> <Gold.Chemscore.ZeroCoef>
-5.4800

> <Gold.Chemscore.Hbond>
1.9885

> <Gold.Chemscore.Metal>
0.0000

> <Gold.Chemscore.Lipo>
81.6430

> <Gold.Chemscore.Internal_Hbond>
0.0000

> <Gold.Chemscore.DEClash>
1.8820

> <Gold.Chemscore.DEInternal>
2.2110

> <Gold.Chemscore.Rot>
3.0231

> <Gold.Chemscore.Internal.Correction>
   9.000000E+99

> <Gold.Chemscore.Hbonds>
donor molecule, donor type, donor heavy atom, donor atom, acceptor molecule, acceptor atom, score
      L1  H     3    32       P1  8028  0.01
      L1  H    20    43       P1 10171  0.61

> <Gold.Chemscore.Hbond.Weighted>
-6.6417

> <Gold.Chemscore.Metal.Weighted>
-0.0000

> <Gold.Chemscore.Lipo.Weighted>
-9.5522

> <Gold.Chemscore.Internal_Hbond.Weighted>
0.0000

> <Gold.Chemscore.DEClash.Weighted>
1.8820

> <Gold.Chemscore.DEInternal.Weighted>
2.2110

> <Gold.Chemscore.Rot.Weighted>
7.7391

> <Gold.Chemscore.Internal.Correction.Weighted>
   9.000000E+99

> <Gold.Protein.RotatedTorsions>
[ 6907 6896 6895 6894 ] final  122.87 input  -60.11 | X-H torsion
[ 7974 7965 7964 7962 ] final -156.78 input  175.53 | X-H torsion
[ 8008 7997 7996 7995 ] final   47.72 input   59.86 | X-H torsion
[ 10167 10162 10161 10158 ] final -135.82 input  -65.29 | X-H torsion
[ 10718 10713 10712 10709 ] final  -70.01 input   66.30 | X-H torsion
[ 10763 10752 10751 10750 ] final  169.78 input  -60.55 | X-H torsion
[ 11005 11000 10999 10996 ] final  100.92 input  -57.11 | X-H torsion

> <Gold.Protein.ActiveResidues>
 VAL166  LYS551  ARG553  GLY616  TRP617  ASP618  TYR619  PRO620  LYS621  CYS622 
 ASP623  PHE694  ASN695  SER759  ASP760  ASP761  ALA762  ILE779  LEU786  VAL792 
 PHE793  MET794  SER795  GLU796  ALA797  LYS798  CYS799  TRP800  GLU811  SER814 

> <Gold.Protein.RotatedAtoms>
  152.4208  133.7114  159.6480 H   0  0  0  0  0  0  0  0  0  0  0  0  # atno 6907 bound_to 6896
  150.8084  133.8456  159.3200 H   0  0  0  0  0  0  0  0  0  0  0  0  # atno 6908 bound_to 6896
  151.6173  135.1037  160.0145 H   0  0  0  0  0  0  0  0  0  0  0  0  # atno 6909 bound_to 6896
  144.7577  140.4061  143.6000 H   0  0  0  0  0  0  0  0  0  0  0  0  # atno 7974 bound_to 7965
  155.3738  140.3425  155.4244 H   0  0  0  0  0  0  0  0  0  0  0  0  # atno 8008 bound_to 7997
  156.1648  140.1612  156.8584 H   0  0  0  0  0  0  0  0  0  0  0  0  # atno 8009 bound_to 7997
  154.5174  140.0775  156.8090 H   0  0  0  0  0  0  0  0  0  0  0  0  # atno 8010 bound_to 7997
  139.8740  143.6922  152.2636 H   0  0  0  0  0  0  0  0  0  0  0  0  # atno 10167 bound_to 10162
  156.0428  130.4323  150.2232 H   0  0  0  0  0  0  0  0  0  0  0  0  # atno 10718 bound_to 10713
  154.3881  135.2754  155.2171 H   0  0  0  0  0  0  0  0  0  0  0  0  # atno 10763 bound_to 10752
  154.4249  135.5991  153.6036 H   0  0  0  0  0  0  0  0  0  0  0  0  # atno 10764 bound_to 10752
  152.9832  135.5981  154.4132 H   0  0  0  0  0  0  0  0  0  0  0  0  # atno 10765 bound_to 10752
  139.8772  134.9161  156.4829 H   0  0  0  0  0  0  0  0  0  0  0  0  # atno 11005 bound_to 11000
  145.6722  139.1601  143.2748 LP  0  0  0  0  0  0  0  0  0  0  0  0  # atno 17320 bound_to 7965
  146.1607  140.6792  142.9279 LP  0  0  0  0  0  0  0  0  0  0  0  0  # atno 17321 bound_to 7965
  139.7257  144.7593  151.0882 LP  0  0  0  0  0  0  0  0  0  0  0  0  # atno 17342 bound_to 10162
  140.7756  143.5151  150.9605 LP  0  0  0  0  0  0  0  0  0  0  0  0  # atno 17343 bound_to 10162
  157.0325  131.0011  151.3308 LP  0  0  0  0  0  0  0  0  0  0  0  0  # atno 17370 bound_to 10713
  157.5267  130.8032  149.7870 LP  0  0  0  0  0  0  0  0  0  0  0  0  # atno 17371 bound_to 10713
  140.8714  133.7985  155.9368 LP  0  0  0  0  0  0  0  0  0  0  0  0  # atno 17394 bound_to 11000
  140.8948  134.2450  157.5074 LP  0  0  0  0  0  0  0  0  0  0  0  0  # atno 17395 bound_to 11000

$$$$
