AV-unprocessed.smi:2822|AV-procd|sdf|10876|dock3
  -GOLD-   2272015313D 1   1.00000     0.00000
 Structure written by MMmdl.
 40 42  0  0  0  0  0  0  0  0  2 V2000
  146.5930  141.9015  157.7917 Cl  0  0  0  0  0  0  0  0  0  0  0  0
  146.9597  141.4121  156.1744 C   0  0  0  0  0  0  0  0  0  0  0  0
  145.9047  141.2073  155.2613 C   0  0  0  0  0  0  0  0  0  0  0  0
  146.1716  140.8246  153.9946 N   0  3  0  0  0  0  0  0  0  0  0  0
  147.4277  140.6229  153.5436 C   0  0  0  0  0  0  0  0  0  0  0  0
  148.5242  140.8119  154.4090 C   0  0  0  0  0  0  0  0  0  0  0  0
  148.2967  141.2126  155.7496 C   0  0  0  0  0  0  0  0  0  0  0  0
  149.3456  141.4186  156.6587 N   0  0  0  0  0  0  0  0  0  0  0  0
  150.6552  141.8659  156.2094 C   0  0  0  0  0  0  0  0  0  0  0  0
  151.4401  142.5358  157.3450 C   0  0  2  0  0  0  0  0  0  0  0  0
  151.9911  141.5028  158.3451 C   0  0  0  0  0  0  0  0  0  0  0  0
  152.6770  142.1409  159.4612 N   0  0  0  0  0  0  0  0  0  0  0  0
  153.1936  141.1508  160.4046 C   0  0  0  0  0  0  0  0  0  0  0  0
  153.9531  141.7966  161.5742 C   0  0  0  0  0  0  0  0  0  0  0  0
  153.0545  142.8076  162.3010 C   0  0  0  0  0  0  0  0  0  0  0  0
  152.4692  143.8126  161.2967 C   0  0  0  0  0  0  0  0  0  0  0  0
  151.7741  143.0845  160.1277 C   0  0  1  0  0  0  0  0  0  0  0  0
  151.1984  144.0994  159.1187 C   0  0  0  0  0  0  0  0  0  0  0  0
  150.5614  143.4117  158.0466 O   0  0  0  0  0  0  0  0  0  0  0  0
  144.8605  141.3380  155.5058 H   0  0  0  0  0  0  0  0  0  0  0  0
  147.5184  140.3193  152.5109 H   0  0  0  0  0  0  0  0  0  0  0  0
  149.5218  140.6486  154.0294 H   0  0  0  0  0  0  0  0  0  0  0  0
  149.2602  141.0623  157.6007 H   0  0  0  0  0  0  0  0  0  0  0  0
  151.2195  141.0227  155.8088 H   0  0  0  0  0  0  0  0  0  0  0  0
  150.5156  142.5804  155.3974 H   0  0  0  0  0  0  0  0  0  0  0  0
  152.2690  143.1091  156.9249 H   0  0  0  0  0  0  0  0  0  0  0  0
  151.1716  140.8869  158.7194 H   0  0  0  0  0  0  0  0  0  0  0  0
  152.6771  140.8289  157.8305 H   0  0  0  0  0  0  0  0  0  0  0  0
  152.3727  140.5471  160.7948 H   0  0  0  0  0  0  0  0  0  0  0  0
  153.8615  140.4635  159.8838 H   0  0  0  0  0  0  0  0  0  0  0  0
  154.2950  141.0298  162.2697 H   0  0  0  0  0  0  0  0  0  0  0  0
  154.8456  142.2990  161.1988 H   0  0  0  0  0  0  0  0  0  0  0  0
  152.2435  142.2798  162.8044 H   0  0  0  0  0  0  0  0  0  0  0  0
  153.6180  143.3286  163.0754 H   0  0  0  0  0  0  0  0  0  0  0  0
  151.7637  144.4711  161.8044 H   0  0  0  0  0  0  0  0  0  0  0  0
  153.2673  144.4493  160.9123 H   0  0  0  0  0  0  0  0  0  0  0  0
  150.9336  142.5235  160.5409 H   0  0  0  0  0  0  0  0  0  0  0  0
  150.4668  144.7462  159.6035 H   0  0  0  0  0  0  0  0  0  0  0  0
  151.9842  144.7456  158.7238 H   0  0  0  0  0  0  0  0  0  0  0  0
  145.3917  140.6825  153.3520 H   0  0  0  0  0  0  0  0  0  0  0  0
  1  2  1  0  0  0  0
  2  7  1  0  0  0  0
  2  3  2  0  0  0  0
  3  4  1  0  0  0  0
  3 20  1  0  0  0  0
  4  5  2  0  0  0  0
  4 40  1  0  0  0  0
  5  6  1  0  0  0  0
  5 21  1  0  0  0  0
  6  7  2  0  0  0  0
  6 22  1  0  0  0  0
  7  8  1  0  0  0  0
  8  9  1  0  0  0  0
  8 23  1  0  0  0  0
  9 10  1  0  0  0  0
  9 24  1  0  0  0  0
  9 25  1  0  0  0  0
 10 19  1  0  0  0  0
 10 11  1  0  0  0  0
 10 26  1  0  0  0  0
 11 12  1  0  0  0  0
 11 27  1  0  0  0  0
 11 28  1  0  0  0  0
 12 17  1  0  0  0  0
 12 13  1  0  0  0  0
 13 14  1  0  0  0  0
 13 29  1  0  0  0  0
 13 30  1  0  0  0  0
 14 15  1  0  0  0  0
 14 31  1  0  0  0  0
 14 32  1  0  0  0  0
 15 16  1  0  0  0  0
 15 33  1  0  0  0  0
 15 34  1  0  0  0  0
 16 17  1  0  0  0  0
 16 35  1  0  0  0  0
 16 36  1  0  0  0  0
 17 18  1  0  0  0  0
 17 37  1  0  0  0  0
 18 19  1  0  0  0  0
 18 38  1  0  0  0  0
 18 39  1  0  0  0  0
M  CHG  1   4   1
M  END
> <s_m_source_file>
AV-unprocessed.smi

> <i_m_source_file_index>
2822

> <i_lp_mmshare_version>
43012

> <i_f3d_flags>
0

> <s_epik_input>
Q2xjMVtjSF1uW2NIXVtjSF1jMVtOSF1bQ0gyXVtDQEhdKFtDSDJdMilPW0NIMl1bQ0BASF0oTjIzKVtDSDJdW0NIMl1bQ0gyXVtDSDJdMw==

> <s_epik_cmdline>
J2VwaWtfcHl0aG9uJywgJy1waCcsICc3LjAnLCAnLXRuJywgJzgnLCAnLW1hJywgJzIwMCcsICctbWV0YWxfYmluZGluZycsICctaW1hZScsICc8aW5maWxlLm1hZT4nLCAnLW9tYWUnLCAnPG91dGZpbGUubWFlPic=

> <r_epik_Ionization_Penalty>
1.37653

> <r_epik_Ionization_Penalty_Charging>
0.152973

> <r_epik_Ionization_Penalty_Neutral>
1.22356

> <r_epik_State_Penalty>
1.42693

> <r_epik_Charging_Adjusted_Penalty>
1.5799

> <i_epik_Tot_Q>
1

> <i_epik_Tot_abs_Q>
1

> <r_epik_Metal_State_Penalty>
4.59822

> <b_epik_Metal_Only>
0

> <s_lp_Force_Field>
OPLS_2005

> <r_lp_Energy>
43.1836

> <b_lp_Chiralities_Consistent>
1

> <s_lp_Variant>
AV-unprocessed.smi:2822-17

> <Gold.Version>
5.8.1

> <Gold.Id.Protein>
6NUR|6NUR_protein|mol2

> <Gold.PLP.Fitness>
45.2399

> <Gold.PLP.PLP>
-40.1713

> <Gold.PLP.part.hbond>
-1.2725

> <Gold.PLP.part.metal>
0.0000

> <Gold.PLP.part.buried>
-6.3201

> <Gold.PLP.part.nonpolar>
-32.6909

> <Gold.PLP.part.repulsive>
0.2088

> <Gold.PLP.ligand.clash>
0.0000

> <Gold.PLP.ligand.torsion>
0.4663

> <Gold.PLP.Chemscore.Hbond>
2.0000

> <Gold.PLP.Chemscore.CHOScore>
0.0000

> <Gold.PLP.Chemscore.Metal>
0.0000

> <Gold.Chemscore.Hbonds>
donor molecule, donor type, donor heavy atom, donor atom, acceptor molecule, acceptor atom, score
      L1  H     4    40       P1 10175  2.00

> <Gold.PLP.Chemscore.Internal.Correction>
0.0012

> <Gold.Rescore>
     Score         DG    S(hbond)    S(metal)    S(lipo)     H(rot)  DE(clash)    DE(int)     intcor
     18.55     -18.93       0.98        0.00     112.86       1.18       0.04       0.34       ----

> <Gold.Chemscore.Fitness>
18.5471

> <Gold.Chemscore.DG>
-18.9254

> <Gold.Chemscore.ZeroCoef>
-5.4800

> <Gold.Chemscore.Hbond>
0.9756

> <Gold.Chemscore.Metal>
0.0000

> <Gold.Chemscore.Lipo>
112.8589

> <Gold.Chemscore.Internal_Hbond>
0.0000

> <Gold.Chemscore.DEClash>
0.0414

> <Gold.Chemscore.DEInternal>
0.3369

> <Gold.Chemscore.Rot>
1.1788

> <Gold.Chemscore.Internal.Correction>
   9.000000E+99

> <Gold.Chemscore.Hbonds>
donor molecule, donor type, donor heavy atom, donor atom, acceptor molecule, acceptor atom, score
      L1  H     4    40       P1 10175  0.88

> <Gold.Chemscore.Hbond.Weighted>
-3.2586

> <Gold.Chemscore.Metal.Weighted>
-0.0000

> <Gold.Chemscore.Lipo.Weighted>
-13.2045

> <Gold.Chemscore.Internal_Hbond.Weighted>
0.0000

> <Gold.Chemscore.DEClash.Weighted>
0.0414

> <Gold.Chemscore.DEInternal.Weighted>
0.3369

> <Gold.Chemscore.Rot.Weighted>
3.0177

> <Gold.Chemscore.Internal.Correction.Weighted>
   9.000000E+99

> <Gold.Protein.RotatedTorsions>
[ 6907 6896 6895 6894 ] final  -24.54 input  -60.11 | X-H torsion
[ 7974 7965 7964 7962 ] final  130.43 input  175.53 | X-H torsion
[ 8008 7997 7996 7995 ] final  -52.85 input   59.86 | X-H torsion
[ 10167 10162 10161 10158 ] final  -42.80 input  -65.29 | X-H torsion
[ 10718 10713 10712 10709 ] final -141.66 input   66.30 | X-H torsion
[ 10763 10752 10751 10750 ] final  124.60 input  -60.55 | X-H torsion
[ 11005 11000 10999 10996 ] final -101.62 input  -57.11 | X-H torsion

> <Gold.Protein.ActiveResidues>
 VAL166  LYS551  ARG553  GLY616  TRP617  ASP618  TYR619  PRO620  LYS621  CYS622 
 ASP623  PHE694  ASN695  SER759  ASP760  ASP761  ALA762  ILE779  LEU786  VAL792 
 PHE793  MET794  SER795  GLU796  ALA797  LYS798  CYS799  TRP800  GLU811  SER814 

> <Gold.Protein.RotatedAtoms>
  151.1880  135.0390  159.8820 H   0  0  0  0  0  0  0  0  0  0  0  0  # atno 6907 bound_to 6896
  152.5441  134.0988  159.8319 H   0  0  0  0  0  0  0  0  0  0  0  0  # atno 6908 bound_to 6896
  151.1113  133.5124  159.2638 H   0  0  0  0  0  0  0  0  0  0  0  0  # atno 6909 bound_to 6896
  145.0180  139.4158  143.5211 H   0  0  0  0  0  0  0  0  0  0  0  0  # atno 7974 bound_to 7965
  154.4117  140.1214  156.5059 H   0  0  0  0  0  0  0  0  0  0  0  0  # atno 8008 bound_to 7997
  155.6848  140.3496  155.4850 H   0  0  0  0  0  0  0  0  0  0  0  0  # atno 8009 bound_to 7997
  155.9520  140.1106  157.0959 H   0  0  0  0  0  0  0  0  0  0  0  0  # atno 8010 bound_to 7997
  140.6957  143.3018  151.3260 H   0  0  0  0  0  0  0  0  0  0  0  0  # atno 10167 bound_to 10162
  156.3367  130.7615  151.1743 H   0  0  0  0  0  0  0  0  0  0  0  0  # atno 10718 bound_to 10713
  153.6640  135.3341  155.3135 H   0  0  0  0  0  0  0  0  0  0  0  0  # atno 10763 bound_to 10752
  154.8508  135.4370  154.1775 H   0  0  0  0  0  0  0  0  0  0  0  0  # atno 10764 bound_to 10752
  153.2749  135.7003  153.7519 H   0  0  0  0  0  0  0  0  0  0  0  0  # atno 10765 bound_to 10752
  141.1223  133.8493  157.1255 H   0  0  0  0  0  0  0  0  0  0  0  0  # atno 11005 bound_to 11000
  146.3481  139.9662  142.8711 LP  0  0  0  0  0  0  0  0  0  0  0  0  # atno 17320 bound_to 7965
  145.1933  140.9821  143.4198 LP  0  0  0  0  0  0  0  0  0  0  0  0  # atno 17321 bound_to 7965
  139.6409  144.0542  152.2553 LP  0  0  0  0  0  0  0  0  0  0  0  0  # atno 17342 bound_to 10162
  140.0047  144.6268  150.7699 LP  0  0  0  0  0  0  0  0  0  0  0  0  # atno 17343 bound_to 10162
  157.7440  131.0466  150.4902 LP  0  0  0  0  0  0  0  0  0  0  0  0  # atno 17370 bound_to 10713
  156.5076  130.4132  149.6319 LP  0  0  0  0  0  0  0  0  0  0  0  0  # atno 17371 bound_to 10713
  140.0191  134.9954  157.0554 LP  0  0  0  0  0  0  0  0  0  0  0  0  # atno 17394 bound_to 11000
  140.4470  134.1622  155.7178 LP  0  0  0  0  0  0  0  0  0  0  0  0  # atno 17395 bound_to 11000

$$$$
