AV-unprocessed.smi:1910|AV-procd|sdf|7736|dock4
  -GOLD-   22720 9473D 1   1.00000     0.00000
 Structure written by MMmdl.
 40 41  0  0  0  0  0  0  0  0  1 V2000
  151.9423  137.9450  154.3168 C   0  0  0  0  0  0  0  0  0  0  0  0
  150.5912  138.1474  153.9172 O   0  0  0  0  0  0  0  0  0  0  0  0
  149.9460  139.2978  154.3301 C   0  0  0  0  0  0  0  0  0  0  0  0
  150.6727  140.2502  154.9672 N   0  0  0  0  0  0  0  0  0  0  0  0
  150.0450  141.3714  155.3764 C   0  0  0  0  0  0  0  0  0  0  0  0
  148.6707  141.5987  155.1809 C   0  0  0  0  0  0  0  0  0  0  0  0
  147.9144  140.6127  154.5206 C   0  0  0  0  0  0  0  0  0  0  0  0
  148.5616  139.4349  154.0716 C   0  0  0  0  0  0  0  0  0  0  0  0
  147.8997  138.3654  153.4046 N   0  0  0  0  0  0  0  0  0  0  0  0
  146.5930  138.0506  153.3904 C   0  0  0  0  0  0  0  0  0  0  0  0
  145.7021  138.6624  153.9787 O   0  0  0  0  0  0  0  0  0  0  0  0
  146.3663  136.9694  152.6311 N   0  0  0  0  0  0  0  0  0  0  0  0
  145.0589  136.3623  152.4019 C   0  0  0  0  0  0  0  0  0  0  0  0
  145.0351  135.4991  151.1239 C   0  0  0  0  0  0  0  0  0  0  0  0
  145.0179  134.0557  151.3536 N   0  0  0  0  0  0  0  0  0  0  0  0
  144.4529  133.3193  150.2255 C   0  0  0  0  0  0  0  0  0  0  0  0
  144.4649  131.8000  150.4687 C   0  0  0  0  0  0  0  0  0  0  0  0
  145.7944  131.3695  150.7408 O   0  0  0  0  0  0  0  0  0  0  0  0
  146.3671  132.0325  151.8633 C   0  0  0  0  0  0  0  0  0  0  0  0
  146.3604  133.5520  151.6227 C   0  0  0  0  0  0  0  0  0  0  0  0
  152.2986  136.9969  153.9147 H   0  0  0  0  0  0  0  0  0  0  0  0
  152.0344  137.8985  155.4030 H   0  0  0  0  0  0  0  0  0  0  0  0
  152.5946  138.7318  153.9350 H   0  0  0  0  0  0  0  0  0  0  0  0
  150.6552  142.1064  155.8802 H   0  0  0  0  0  0  0  0  0  0  0  0
  148.2058  142.5077  155.5333 H   0  0  0  0  0  0  0  0  0  0  0  0
  146.8576  140.7789  154.3871 H   0  0  0  0  0  0  0  0  0  0  0  0
  148.4948  137.7969  152.8196 H   0  0  0  0  0  0  0  0  0  0  0  0
  147.1552  136.5315  152.1785 H   0  0  0  0  0  0  0  0  0  0  0  0
  144.8058  135.7428  153.2638 H   0  0  0  0  0  0  0  0  0  0  0  0
  144.2976  137.1420  152.3631 H   0  0  0  0  0  0  0  0  0  0  0  0
  144.2105  135.7905  150.4714 H   0  0  0  0  0  0  0  0  0  0  0  0
  145.9414  135.7387  150.5660 H   0  0  0  0  0  0  0  0  0  0  0  0
  143.4265  133.6376  150.0435 H   0  0  0  0  0  0  0  0  0  0  0  0
  145.0150  133.5442  149.3179 H   0  0  0  0  0  0  0  0  0  0  0  0
  143.8127  131.5377  151.3032 H   0  0  0  0  0  0  0  0  0  0  0  0
  144.0910  131.2720  149.5914 H   0  0  0  0  0  0  0  0  0  0  0  0
  145.8092  131.7815  152.7668 H   0  0  0  0  0  0  0  0  0  0  0  0
  147.3868  131.6750  152.0066 H   0  0  0  0  0  0  0  0  0  0  0  0
  147.0180  133.7855  150.7840 H   0  0  0  0  0  0  0  0  0  0  0  0
  146.7770  134.0561  152.4953 H   0  0  0  0  0  0  0  0  0  0  0  0
  1  2  1  0  0  0  0
  1 21  1  0  0  0  0
  1 22  1  0  0  0  0
  1 23  1  0  0  0  0
  2  3  1  0  0  0  0
  3  8  1  0  0  0  0
  3  4  2  0  0  0  0
  4  5  1  0  0  0  0
  5  6  2  0  0  0  0
  5 24  1  0  0  0  0
  6  7  1  0  0  0  0
  6 25  1  0  0  0  0
  7  8  2  0  0  0  0
  7 26  1  0  0  0  0
  8  9  1  0  0  0  0
  9 10  1  0  0  0  0
  9 27  1  0  0  0  0
 10 11  2  0  0  0  0
 10 12  1  0  0  0  0
 12 13  1  0  0  0  0
 12 28  1  0  0  0  0
 13 14  1  0  0  0  0
 13 29  1  0  0  0  0
 13 30  1  0  0  0  0
 14 15  1  0  0  0  0
 14 31  1  0  0  0  0
 14 32  1  0  0  0  0
 15 20  1  0  0  0  0
 15 16  1  0  0  0  0
 16 17  1  0  0  0  0
 16 33  1  0  0  0  0
 16 34  1  0  0  0  0
 17 18  1  0  0  0  0
 17 35  1  0  0  0  0
 17 36  1  0  0  0  0
 18 19  1  0  0  0  0
 19 20  1  0  0  0  0
 19 37  1  0  0  0  0
 19 38  1  0  0  0  0
 20 39  1  0  0  0  0
 20 40  1  0  0  0  0
M  END
> <s_m_source_file>
AV-unprocessed.smi

> <i_m_source_file_index>
1910

> <i_lp_mmshare_version>
43012

> <i_f3d_flags>
0

> <s_epik_input>
W0NIM11PYzFuW2NIXVtjSF1bY0hdYzFbTkhdQyg9TylbTkhdW0NIMl1bQ0gyXU4yW0NIMl1bQ0gyXU9bQ0gyXVtDSDJdMg==

> <s_epik_cmdline>
J2VwaWtfcHl0aG9uJywgJy1waCcsICc3LjAnLCAnLXRuJywgJzgnLCAnLW1hJywgJzIwMCcsICctbWV0YWxfYmluZGluZycsICctaW1hZScsICc8aW5maWxlLm1hZT4nLCAnLW9tYWUnLCAnPG91dGZpbGUubWFlPic=

> <r_lp_tautomer_probability>
1

> <r_epik_Ionization_Penalty>
0.266083

> <r_epik_Ionization_Penalty_Charging>
0

> <r_epik_Ionization_Penalty_Neutral>
0.266083

> <r_epik_State_Penalty>
0.257924

> <r_epik_Charging_Adjusted_Penalty>
0.257924

> <i_epik_Tot_Q>
0

> <i_epik_Tot_abs_Q>
0

> <r_epik_Metal_State_Penalty>
0.257922

> <b_epik_Metal_Only>
0

> <s_lp_Force_Field>
OPLS_2005

> <r_lp_Energy>
30.1373

> <b_lp_Chiralities_Consistent>
1

> <s_lp_Variant>
AV-unprocessed.smi:1910-1

> <Gold.Version>
5.8.1

> <Gold.Id.Protein>
6NUR|6NUR_protein|mol2

> <Gold.PLP.Fitness>
40.8957

> <Gold.PLP.PLP>
-33.7480

> <Gold.PLP.part.hbond>
-3.2134

> <Gold.PLP.part.metal>
0.0000

> <Gold.PLP.part.buried>
-5.9192

> <Gold.PLP.part.nonpolar>
-26.9287

> <Gold.PLP.part.repulsive>
1.3536

> <Gold.PLP.ligand.clash>
0.0000

> <Gold.PLP.ligand.torsion>
0.8669

> <Gold.PLP.Chemscore.Hbond>
2.9500

> <Gold.PLP.Chemscore.CHOScore>
0.0000

> <Gold.PLP.Chemscore.Metal>
0.0000

> <Gold.Chemscore.Hbonds>
donor molecule, donor type, donor heavy atom, donor atom, acceptor molecule, acceptor atom, score
      L1  H     9    27       P1  7948  1.00
      L1  H    12    28       P1  7948  1.00
      P1  H  7989  7998       L1     4  0.90

> <Gold.PLP.Chemscore.Internal.Correction>
0.0314

> <Gold.Rescore>
     Score         DG    S(hbond)    S(metal)    S(lipo)     H(rot)  DE(clash)    DE(int)     intcor
     14.45     -16.59       2.10        0.00      73.55       1.76       0.34       1.80       ----

> <Gold.Chemscore.Fitness>
14.4510

> <Gold.Chemscore.DG>
-16.5915

> <Gold.Chemscore.ZeroCoef>
-5.4800

> <Gold.Chemscore.Hbond>
2.1015

> <Gold.Chemscore.Metal>
0.0000

> <Gold.Chemscore.Lipo>
73.5450

> <Gold.Chemscore.Internal_Hbond>
0.0000

> <Gold.Chemscore.DEClash>
0.3412

> <Gold.Chemscore.DEInternal>
1.7993

> <Gold.Chemscore.Rot>
1.7626

> <Gold.Chemscore.Internal.Correction>
   9.000000E+99

> <Gold.Chemscore.Hbonds>
donor molecule, donor type, donor heavy atom, donor atom, acceptor molecule, acceptor atom, score
      L1  H     9    27       P1  7948  0.98
      L1  H    12    28       P1  7948  0.99
      P1  H  7989  7998       L1     4  0.05

> <Gold.Chemscore.Hbond.Weighted>
-7.0190

> <Gold.Chemscore.Metal.Weighted>
-0.0000

> <Gold.Chemscore.Lipo.Weighted>
-8.6048

> <Gold.Chemscore.Internal_Hbond.Weighted>
0.0000

> <Gold.Chemscore.DEClash.Weighted>
0.3412

> <Gold.Chemscore.DEInternal.Weighted>
1.7993

> <Gold.Chemscore.Rot.Weighted>
4.5123

> <Gold.Chemscore.Internal.Correction.Weighted>
   9.000000E+99

> <Gold.Protein.RotatedTorsions>
[ 6907 6896 6895 6894 ] final  -55.50 input  -60.11 | X-H torsion
[ 7974 7965 7964 7962 ] final   11.59 input  175.53 | X-H torsion
[ 8008 7997 7996 7995 ] final   75.64 input   59.86 | X-H torsion
[ 10167 10162 10161 10158 ] final  -13.71 input  -65.29 | X-H torsion
[ 10718 10713 10712 10709 ] final  -89.34 input   66.30 | X-H torsion
[ 10763 10752 10751 10750 ] final -150.69 input  -60.55 | X-H torsion
[ 11005 11000 10999 10996 ] final -173.21 input  -57.11 | X-H torsion

> <Gold.Protein.ActiveResidues>
 VAL166  LYS551  ARG553  GLY616  TRP617  ASP618  TYR619  PRO620  LYS621  CYS622 
 ASP623  PHE694  ASN695  SER759  ASP760  ASP761  ALA762  ILE779  LEU786  VAL792 
 PHE793  MET794  SER795  GLU796  ALA797  LYS798  CYS799  TRP800  GLU811  SER814 

> <Gold.Protein.RotatedAtoms>
  150.8247  134.7471  159.6801 H   0  0  0  0  0  0  0  0  0  0  0  0  # atno 6907 bound_to 6896
  152.4359  134.5684  159.9924 H   0  0  0  0  0  0  0  0  0  0  0  0  # atno 6908 bound_to 6896
  151.5860  133.3334  159.3054 H   0  0  0  0  0  0  0  0  0  0  0  0  # atno 6909 bound_to 6896
  146.2368  139.9463  142.8476 H   0  0  0  0  0  0  0  0  0  0  0  0  # atno 7974 bound_to 7965
  155.8158  140.3471  155.5484 H   0  0  0  0  0  0  0  0  0  0  0  0  # atno 8008 bound_to 7997
  155.8394  140.0939  157.1764 H   0  0  0  0  0  0  0  0  0  0  0  0  # atno 8009 bound_to 7997
  154.4005  140.1397  156.3697 H   0  0  0  0  0  0  0  0  0  0  0  0  # atno 8010 bound_to 7997
  140.7187  143.5397  150.9423 H   0  0  0  0  0  0  0  0  0  0  0  0  # atno 10167 bound_to 10162
  155.9984  130.4868  150.5156 H   0  0  0  0  0  0  0  0  0  0  0  0  # atno 10718 bound_to 10713
  154.8103  135.3278  154.7322 H   0  0  0  0  0  0  0  0  0  0  0  0  # atno 10763 bound_to 10752
  153.7972  135.6906  153.4866 H   0  0  0  0  0  0  0  0  0  0  0  0  # atno 10764 bound_to 10752
  153.1877  135.4562  155.0056 H   0  0  0  0  0  0  0  0  0  0  0  0  # atno 10765 bound_to 10752
  140.4883  134.6009  157.4945 H   0  0  0  0  0  0  0  0  0  0  0  0  # atno 11005 bound_to 11000
  145.1904  140.9809  143.4214 LP  0  0  0  0  0  0  0  0  0  0  0  0  # atno 17320 bound_to 7965
  144.9862  139.3734  143.6237 LP  0  0  0  0  0  0  0  0  0  0  0  0  # atno 17321 bound_to 7965
  139.9120  143.6709  152.3113 LP  0  0  0  0  0  0  0  0  0  0  0  0  # atno 17342 bound_to 10162
  139.7095  144.7622  151.1135 LP  0  0  0  0  0  0  0  0  0  0  0  0  # atno 17343 bound_to 10162
  157.3123  131.0666  151.1992 LP  0  0  0  0  0  0  0  0  0  0  0  0  # atno 17370 bound_to 10713
  157.2933  130.6807  149.6125 LP  0  0  0  0  0  0  0  0  0  0  0  0  # atno 17371 bound_to 10713
  139.9785  134.7176  155.9905 LP  0  0  0  0  0  0  0  0  0  0  0  0  # atno 17394 bound_to 11000
  141.1497  133.6550  156.3975 LP  0  0  0  0  0  0  0  0  0  0  0  0  # atno 17395 bound_to 11000

$$$$
