AV-unprocessed.smi:448|AV-procd|sdf|2605|dock2
  -GOLD-   2262023 03D 1   1.00000     0.00000
 Structure written by MMmdl.
 43 44  0  0  0  0  0  0  0  0  1 V2000
  150.1984  143.9812  159.3066 C   0  0  0  0  0  0  0  0  0  0  0  0
  151.6494  143.9025  158.7855 C   0  0  0  0  0  0  0  0  0  0  0  0
  152.3324  145.2574  159.0545 C   0  0  0  0  0  0  0  0  0  0  0  0
  152.4105  142.8092  159.5653 C   0  0  0  0  0  0  0  0  0  0  0  0
  151.6995  143.6327  157.2538 C   0  0  0  0  0  0  0  0  0  0  0  0
  151.0823  142.3045  156.7925 C   0  0  0  0  0  0  0  0  0  0  0  0
  151.4727  141.2477  157.2887 O   0  0  0  0  0  0  0  0  0  0  0  0
  150.1040  142.4009  155.8724 N   0  0  0  0  0  0  0  0  0  0  0  0
  149.3958  141.3511  155.2299 C   0  0  0  0  0  0  0  0  0  0  0  0
  148.2994  141.7601  154.4415 C   0  0  0  0  0  0  0  0  0  0  0  0
  147.5420  140.7944  153.7517 C   0  0  0  0  0  0  0  0  0  0  0  0
  147.8947  139.4276  153.8539 C   0  0  0  0  0  0  0  0  0  0  0  0
  147.1874  138.4031  153.1884 N   0  0  0  0  0  0  0  0  0  0  0  0
  146.4380  137.4428  153.9932 C   0  0  0  0  0  0  0  0  0  0  0  0
  146.0018  136.2464  153.1302 C   0  0  0  0  0  0  0  0  0  0  0  0
  145.2682  136.7104  152.0019 O   0  0  0  0  0  0  0  0  0  0  0  0
  146.0560  137.5563  151.1708 C   0  0  0  0  0  0  0  0  0  0  0  0
  146.4987  138.7993  151.9624 C   0  0  0  0  0  0  0  0  0  0  0  0
  149.0048  139.1198  154.6733 C   0  0  0  0  0  0  0  0  0  0  0  0
  149.7304  140.0433  155.3369 N   0  0  0  0  0  0  0  0  0  0  0  0
  150.1710  144.2819  160.3545 H   0  0  0  0  0  0  0  0  0  0  0  0
  149.6866  143.0213  159.2411 H   0  0  0  0  0  0  0  0  0  0  0  0
  149.6131  144.7081  158.7425 H   0  0  0  0  0  0  0  0  0  0  0  0
  151.8231  146.0693  158.5342 H   0  0  0  0  0  0  0  0  0  0  0  0
  153.3706  145.2539  158.7206 H   0  0  0  0  0  0  0  0  0  0  0  0
  152.3329  145.5005  160.1177 H   0  0  0  0  0  0  0  0  0  0  0  0
  152.4480  143.0377  160.6310 H   0  0  0  0  0  0  0  0  0  0  0  0
  153.4384  142.7145  159.2140 H   0  0  0  0  0  0  0  0  0  0  0  0
  151.9364  141.8323  159.4646 H   0  0  0  0  0  0  0  0  0  0  0  0
  151.1810  144.4344  156.7260 H   0  0  0  0  0  0  0  0  0  0  0  0
  152.7337  143.6783  156.9078 H   0  0  0  0  0  0  0  0  0  0  0  0
  149.8547  143.3351  155.5822 H   0  0  0  0  0  0  0  0  0  0  0  0
  148.0381  142.8052  154.3595 H   0  0  0  0  0  0  0  0  0  0  0  0
  146.7109  141.1240  153.1465 H   0  0  0  0  0  0  0  0  0  0  0  0
  147.0510  137.0848  154.8211 H   0  0  0  0  0  0  0  0  0  0  0  0
  145.5611  137.9326  154.4186 H   0  0  0  0  0  0  0  0  0  0  0  0
  146.8666  135.6672  152.8027 H   0  0  0  0  0  0  0  0  0  0  0  0
  145.3706  135.5745  153.7117 H   0  0  0  0  0  0  0  0  0  0  0  0
  146.9203  137.0087  150.7918 H   0  0  0  0  0  0  0  0  0  0  0  0
  145.4642  137.8545  150.3055 H   0  0  0  0  0  0  0  0  0  0  0  0
  145.6282  139.4006  152.2275 H   0  0  0  0  0  0  0  0  0  0  0  0
  147.1284  139.4192  151.3259 H   0  0  0  0  0  0  0  0  0  0  0  0
  149.3217  138.0983  154.8220 H   0  0  0  0  0  0  0  0  0  0  0  0
  1  2  1  0  0  0  0
  1 21  1  0  0  0  0
  1 22  1  0  0  0  0
  1 23  1  0  0  0  0
  2  3  1  0  0  0  0
  2  4  1  0  0  0  0
  2  5  1  0  0  0  0
  3 24  1  0  0  0  0
  3 25  1  0  0  0  0
  3 26  1  0  0  0  0
  4 27  1  0  0  0  0
  4 28  1  0  0  0  0
  4 29  1  0  0  0  0
  5  6  1  0  0  0  0
  5 30  1  0  0  0  0
  5 31  1  0  0  0  0
  6  7  2  0  0  0  0
  6  8  1  0  0  0  0
  8  9  1  0  0  0  0
  8 32  1  0  0  0  0
  9 20  1  0  0  0  0
  9 10  2  0  0  0  0
 10 11  1  0  0  0  0
 10 33  1  0  0  0  0
 11 12  2  0  0  0  0
 11 34  1  0  0  0  0
 12 13  1  0  0  0  0
 12 19  1  0  0  0  0
 13 18  1  0  0  0  0
 13 14  1  0  0  0  0
 14 15  1  0  0  0  0
 14 35  1  0  0  0  0
 14 36  1  0  0  0  0
 15 16  1  0  0  0  0
 15 37  1  0  0  0  0
 15 38  1  0  0  0  0
 16 17  1  0  0  0  0
 17 18  1  0  0  0  0
 17 39  1  0  0  0  0
 17 40  1  0  0  0  0
 18 41  1  0  0  0  0
 18 42  1  0  0  0  0
 19 20  2  0  0  0  0
 19 43  1  0  0  0  0
M  END
> <s_m_source_file>
AV-unprocessed.smi

> <i_m_source_file_index>
448

> <i_lp_mmshare_version>
43012

> <i_f3d_flags>
0

> <s_epik_input>
W0NIM11DKFtDSDNdKShbQ0gzXSlbQ0gyXUMoPU8pW05IXWMxW2NIXVtjSF1jKFtjSF1uMSlOMltDSDJdW0NIMl1PW0NIMl1bQ0gyXTI=

> <s_epik_cmdline>
J2VwaWtfcHl0aG9uJywgJy1waCcsICc3LjAnLCAnLXRuJywgJzgnLCAnLW1hJywgJzIwMCcsICctbWV0YWxfYmluZGluZycsICctaW1hZScsICc8aW5maWxlLm1hZT4nLCAnLW9tYWUnLCAnPG91dGZpbGUubWFlPic=

> <r_lp_tautomer_probability>
1

> <r_epik_Ionization_Penalty>
0.00318181

> <r_epik_Ionization_Penalty_Charging>
0

> <r_epik_Ionization_Penalty_Neutral>
0.00318181

> <r_epik_State_Penalty>
0.00295116

> <r_epik_Charging_Adjusted_Penalty>
0.00295116

> <i_epik_Tot_Q>
0

> <i_epik_Tot_abs_Q>
0

> <r_epik_Metal_State_Penalty>
-0

> <b_epik_Metal_Only>
0

> <s_lp_Force_Field>
OPLS_2005

> <r_lp_Energy>
25.5761

> <b_lp_Chiralities_Consistent>
1

> <s_lp_Variant>
AV-unprocessed.smi:448-1

> <Gold.Version>
5.8.1

> <Gold.Id.Protein>
6NUR|6NUR_protein|mol2

> <Gold.PLP.Fitness>
40.1166

> <Gold.PLP.PLP>
-37.6199

> <Gold.PLP.part.hbond>
-1.0000

> <Gold.PLP.part.metal>
0.0000

> <Gold.PLP.part.buried>
-2.1120

> <Gold.PLP.part.nonpolar>
-37.3093

> <Gold.PLP.part.repulsive>
0.9093

> <Gold.PLP.ligand.clash>
0.0000

> <Gold.PLP.ligand.torsion>
0.4446

> <Gold.PLP.Chemscore.Hbond>
1.0000

> <Gold.PLP.Chemscore.CHOScore>
0.0000

> <Gold.PLP.Chemscore.Metal>
0.0000

> <Gold.Chemscore.Hbonds>
donor molecule, donor type, donor heavy atom, donor atom, acceptor molecule, acceptor atom, score
      L1  H     8    32       P1  8028  1.00

> <Gold.PLP.Chemscore.Internal.Correction>
0.3859

> <Gold.Rescore>
     Score         DG    S(hbond)    S(metal)    S(lipo)     H(rot)  DE(clash)    DE(int)     intcor
     14.63     -17.74       0.99        0.00     105.03       1.30       1.40       1.71       ----

> <Gold.Chemscore.Fitness>
14.6294

> <Gold.Chemscore.DG>
-17.7415

> <Gold.Chemscore.ZeroCoef>
-5.4800

> <Gold.Chemscore.Hbond>
0.9916

> <Gold.Chemscore.Metal>
0.0000

> <Gold.Chemscore.Lipo>
105.0298

> <Gold.Chemscore.Internal_Hbond>
0.0000

> <Gold.Chemscore.DEClash>
1.3974

> <Gold.Chemscore.DEInternal>
1.7147

> <Gold.Chemscore.Rot>
1.3042

> <Gold.Chemscore.Internal.Correction>
   9.000000E+99

> <Gold.Chemscore.Hbonds>
donor molecule, donor type, donor heavy atom, donor atom, acceptor molecule, acceptor atom, score
      L1  H     8    32       P1  8028  0.97

> <Gold.Chemscore.Hbond.Weighted>
-3.3119

> <Gold.Chemscore.Metal.Weighted>
-0.0000

> <Gold.Chemscore.Lipo.Weighted>
-12.2885

> <Gold.Chemscore.Internal_Hbond.Weighted>
0.0000

> <Gold.Chemscore.DEClash.Weighted>
1.3974

> <Gold.Chemscore.DEInternal.Weighted>
1.7147

> <Gold.Chemscore.Rot.Weighted>
3.3389

> <Gold.Chemscore.Internal.Correction.Weighted>
   9.000000E+99

> <Gold.Protein.RotatedTorsions>
[ 6907 6896 6895 6894 ] final  -85.91 input  -60.11 | X-H torsion
[ 7974 7965 7964 7962 ] final  -19.31 input  175.53 | X-H torsion
[ 8008 7997 7996 7995 ] final  -62.67 input   59.86 | X-H torsion
[ 10167 10162 10161 10158 ] final -177.59 input  -65.29 | X-H torsion
[ 10718 10713 10712 10709 ] final  167.40 input   66.30 | X-H torsion
[ 10763 10752 10751 10750 ] final -108.87 input  -60.55 | X-H torsion
[ 11005 11000 10999 10996 ] final  111.87 input  -57.11 | X-H torsion

> <Gold.Protein.ActiveResidues>
 VAL166  LYS551  ARG553  GLY616  TRP617  ASP618  TYR619  PRO620  LYS621  CYS622 
 ASP623  PHE694  ASN695  SER759  ASP760  ASP761  ALA762  ILE779  LEU786  VAL792 
 PHE793  MET794  SER795  GLU796  ALA797  LYS798  CYS799  TRP800  GLU811  SER814 

> <Gold.Protein.RotatedAtoms>
  150.6868  134.3132  159.4754 H   0  0  0  0  0  0  0  0  0  0  0  0  # atno 6907 bound_to 6896
  152.1015  134.9335  160.0578 H   0  0  0  0  0  0  0  0  0  0  0  0  # atno 6908 bound_to 6896
  152.0613  133.4028  159.4456 H   0  0  0  0  0  0  0  0  0  0  0  0  # atno 6909 bound_to 6896
  146.1848  140.4044  142.8480 H   0  0  0  0  0  0  0  0  0  0  0  0  # atno 7974 bound_to 7965
  154.4512  140.0991  156.6624 H   0  0  0  0  0  0  0  0  0  0  0  0  # atno 8008 bound_to 7997
  155.5278  140.3480  155.4401 H   0  0  0  0  0  0  0  0  0  0  0  0  # atno 8009 bound_to 7997
  156.0685  140.1343  156.9846 H   0  0  0  0  0  0  0  0  0  0  0  0  # atno 8010 bound_to 7997
  139.5473  144.2203  152.1011 H   0  0  0  0  0  0  0  0  0  0  0  0  # atno 10167 bound_to 10162
  157.0520  131.0316  151.2677 H   0  0  0  0  0  0  0  0  0  0  0  0  # atno 10718 bound_to 10713
  154.8160  135.4622  154.0646 H   0  0  0  0  0  0  0  0  0  0  0  0  # atno 10763 bound_to 10752
  153.2038  135.6872  153.8205 H   0  0  0  0  0  0  0  0  0  0  0  0  # atno 10764 bound_to 10752
  153.7680  135.3274  155.3324 H   0  0  0  0  0  0  0  0  0  0  0  0  # atno 10765 bound_to 10752
  139.8914  134.9517  156.6499 H   0  0  0  0  0  0  0  0  0  0  0  0  # atno 11005 bound_to 11000
  144.8377  140.6808  143.6249 LP  0  0  0  0  0  0  0  0  0  0  0  0  # atno 17320 bound_to 7965
  145.3972  139.1605  143.4197 LP  0  0  0  0  0  0  0  0  0  0  0  0  # atno 17321 bound_to 7965
  140.1692  144.4952  150.6589 LP  0  0  0  0  0  0  0  0  0  0  0  0  # atno 17342 bound_to 10162
  140.6725  143.2291  151.5590 LP  0  0  0  0  0  0  0  0  0  0  0  0  # atno 17343 bound_to 10162
  157.5023  130.7887  149.7617 LP  0  0  0  0  0  0  0  0  0  0  0  0  # atno 17370 bound_to 10713
  156.0005  130.3883  150.2626 LP  0  0  0  0  0  0  0  0  0  0  0  0  # atno 17371 bound_to 10713
  140.7528  133.8882  155.8360 LP  0  0  0  0  0  0  0  0  0  0  0  0  # atno 17394 bound_to 11000
  140.9986  134.1181  157.4339 LP  0  0  0  0  0  0  0  0  0  0  0  0  # atno 17395 bound_to 11000

$$$$
