AV-unprocessed.smi:152|AV-procd|sdf|1249|dock10
  -GOLD-   2262018473D 1   1.00000     0.00000
 Structure written by MMmdl.
 58 61  0  0  0  0  0  0  0  0  2 V2000
  163.5255  130.0798  147.3756 C   0  0  0  0  0  0  0  0  0  0  0  0
  162.5599  129.0273  146.8145 C   0  0  0  0  0  0  0  0  0  0  0  0
  161.1745  129.5459  146.7025 N   0  3  1  0  0  0  0  0  0  0  0  0
  160.2451  128.6613  145.9549 C   0  0  0  0  0  0  0  0  0  0  0  0
  159.0071  128.4669  146.8346 C   0  0  0  0  0  0  0  0  0  0  0  0
  159.0450  129.6561  147.7827 C   0  0  0  0  0  0  0  0  0  0  0  0
  160.5440  129.8730  148.0032 C   0  0  2  0  0  0  0  0  0  0  0  0
  160.8886  131.3079  148.4608 C   0  0  0  0  0  0  0  0  0  0  0  0
  161.2916  131.3953  149.8639 N   0  0  0  0  0  0  0  0  0  0  0  0
  161.0039  130.2428  150.7064 C   0  0  0  0  0  0  0  0  0  0  0  0
  161.1093  132.5659  150.5213 C   0  0  0  0  0  0  0  0  0  0  0  0
  161.6029  133.6829  149.9305 N   0  0  0  0  0  0  0  0  0  0  0  0
  161.4534  134.8750  150.5152 C   0  0  0  0  0  0  0  0  0  0  0  0
  160.8573  135.1673  151.6722 N   0  0  0  0  0  0  0  0  0  0  0  0
  160.3751  134.0461  152.2801 C   0  0  0  0  0  0  0  0  0  0  0  0
  160.4549  132.7152  151.7796 C   0  0  0  0  0  0  0  0  0  0  0  0
  159.8522  131.8402  152.6768 N   0  0  0  0  0  0  0  0  0  0  0  0
  159.4374  132.6084  153.6463 C   0  0  0  0  0  0  0  0  0  0  0  0
  159.7163  133.9472  153.4932 N   0  0  0  0  0  0  0  0  0  0  0  0
  159.3734  135.0178  154.4167 C   0  0  0  0  0  0  0  0  0  0  0  0
  158.1419  135.8545  153.9873 C   0  0  0  0  0  0  0  0  0  0  0  0
  156.9999  135.0202  154.0702 O   0  0  0  0  0  0  0  0  0  0  0  0
  157.9445  137.0449  154.9475 C   0  0  0  0  0  0  0  0  0  0  0  0
  156.8396  138.0024  154.4673 C   0  0  0  0  0  0  0  0  0  0  0  0
  157.1225  138.4453  153.1455 O   0  0  0  0  0  0  0  0  0  0  0  0
  157.1334  137.3823  152.2006 C   0  0  0  0  0  0  0  0  0  0  0  0
  158.2530  136.3819  152.5398 C   0  0  0  0  0  0  0  0  0  0  0  0
  164.5264  129.6621  147.4870 H   0  0  0  0  0  0  0  0  0  0  0  0
  163.2013  130.4282  148.3566 H   0  0  0  0  0  0  0  0  0  0  0  0
  163.6047  130.9477  146.7207 H   0  0  0  0  0  0  0  0  0  0  0  0
  162.9042  128.6693  145.8431 H   0  0  0  0  0  0  0  0  0  0  0  0
  162.5664  128.1660  147.4830 H   0  0  0  0  0  0  0  0  0  0  0  0
  159.9781  129.1583  145.0218 H   0  0  0  0  0  0  0  0  0  0  0  0
  160.6894  127.6985  145.6985 H   0  0  0  0  0  0  0  0  0  0  0  0
  158.0827  128.4129  146.2586 H   0  0  0  0  0  0  0  0  0  0  0  0
  159.1009  127.5414  147.4046 H   0  0  0  0  0  0  0  0  0  0  0  0
  158.5998  130.5265  147.2986 H   0  0  0  0  0  0  0  0  0  0  0  0
  158.5030  129.4735  148.7114 H   0  0  0  0  0  0  0  0  0  0  0  0
  160.8884  129.1359  148.7302 H   0  0  0  0  0  0  0  0  0  0  0  0
  161.6714  131.7372  147.8363 H   0  0  0  0  0  0  0  0  0  0  0  0
  160.0163  131.9455  148.3136 H   0  0  0  0  0  0  0  0  0  0  0  0
  159.9700  130.2676  151.0536 H   0  0  0  0  0  0  0  0  0  0  0  0
  161.6589  130.2230  151.5784 H   0  0  0  0  0  0  0  0  0  0  0  0
  161.1558  129.3133  150.1574 H   0  0  0  0  0  0  0  0  0  0  0  0
  161.8723  135.7149  149.9807 H   0  0  0  0  0  0  0  0  0  0  0  0
  158.9200  132.2164  154.5101 H   0  0  0  0  0  0  0  0  0  0  0  0
  159.2114  134.5818  155.4034 H   0  0  0  0  0  0  0  0  0  0  0  0
  160.2460  135.6654  154.5122 H   0  0  0  0  0  0  0  0  0  0  0  0
  157.2556  134.1968  154.4572 H   0  0  0  0  0  0  0  0  0  0  0  0
  157.7227  136.6917  155.9554 H   0  0  0  0  0  0  0  0  0  0  0  0
  158.8764  137.6069  155.0200 H   0  0  0  0  0  0  0  0  0  0  0  0
  155.8595  137.5243  154.5025 H   0  0  0  0  0  0  0  0  0  0  0  0
  156.7888  138.8709  155.1242 H   0  0  0  0  0  0  0  0  0  0  0  0
  156.1598  136.8906  152.1793 H   0  0  0  0  0  0  0  0  0  0  0  0
  157.2960  137.7992  151.2065 H   0  0  0  0  0  0  0  0  0  0  0  0
  159.2146  136.8804  152.4121 H   0  0  0  0  0  0  0  0  0  0  0  0
  158.2355  135.5597  151.8233 H   0  0  0  0  0  0  0  0  0  0  0  0
  161.2188  130.4127  146.1860 H   0  0  0  0  0  0  0  0  0  0  0  0
  1  2  1  0  0  0  0
  1 28  1  0  0  0  0
  1 29  1  0  0  0  0
  1 30  1  0  0  0  0
  2  3  1  0  0  0  0
  2 31  1  0  0  0  0
  2 32  1  0  0  0  0
  3  7  1  0  0  0  0
  3  4  1  0  0  0  0
  3 58  1  0  0  0  0
  4  5  1  0  0  0  0
  4 33  1  0  0  0  0
  4 34  1  0  0  0  0
  5  6  1  0  0  0  0
  5 35  1  0  0  0  0
  5 36  1  0  0  0  0
  6  7  1  0  0  0  0
  6 37  1  0  0  0  0
  6 38  1  0  0  0  0
  7  8  1  0  0  0  0
  7 39  1  0  0  0  0
  8  9  1  0  0  0  0
  8 40  1  0  0  0  0
  8 41  1  0  0  0  0
  9 10  1  0  0  0  0
  9 11  1  0  0  0  0
 10 42  1  0  0  0  0
 10 43  1  0  0  0  0
 10 44  1  0  0  0  0
 11 16  1  0  0  0  0
 11 12  2  0  0  0  0
 12 13  1  0  0  0  0
 13 14  2  0  0  0  0
 13 45  1  0  0  0  0
 14 15  1  0  0  0  0
 15 19  1  0  0  0  0
 15 16  2  0  0  0  0
 16 17  1  0  0  0  0
 17 18  2  0  0  0  0
 18 19  1  0  0  0  0
 18 46  1  0  0  0  0
 19 20  1  0  0  0  0
 20 21  1  0  0  0  0
 20 47  1  0  0  0  0
 20 48  1  0  0  0  0
 21 27  1  0  0  0  0
 21 22  1  0  0  0  0
 21 23  1  0  0  0  0
 22 49  1  0  0  0  0
 23 24  1  0  0  0  0
 23 50  1  0  0  0  0
 23 51  1  0  0  0  0
 24 25  1  0  0  0  0
 24 52  1  0  0  0  0
 24 53  1  0  0  0  0
 25 26  1  0  0  0  0
 26 27  1  0  0  0  0
 26 54  1  0  0  0  0
 26 55  1  0  0  0  0
 27 56  1  0  0  0  0
 27 57  1  0  0  0  0
M  CHG  1   3   1
M  END
> <s_m_source_file>
AV-unprocessed.smi

> <i_m_source_file_index>
152

> <i_lp_mmshare_version>
43012

> <i_f3d_flags>
0

> <s_epik_input>
W0NIM11bQ0gyXU4xW0NIMl1bQ0gyXVtDSDJdW0NASF0xW0NIMl1OKFtDSDNdKWMobltjSF1uMiljKGMyMyluW2NIXW4zW0NIMl1DNChbT0hdKVtDSDJdW0NIMl1PW0NIMl1bQ0gyXTQ=

> <s_epik_cmdline>
J2VwaWtfcHl0aG9uJywgJy1waCcsICc3LjAnLCAnLXRuJywgJzgnLCAnLW1hJywgJzIwMCcsICctbWV0YWxfYmluZGluZycsICctaW1hZScsICc8aW5maWxlLm1hZT4nLCAnLW9tYWUnLCAnPG91dGZpbGUubWFlPic=

> <r_lp_tautomer_probability>
1

> <r_epik_Ionization_Penalty>
0.00152183

> <r_epik_Ionization_Penalty_Charging>
0.00112577

> <r_epik_Ionization_Penalty_Neutral>
0.000396066

> <r_epik_State_Penalty>
-0

> <r_epik_Charging_Adjusted_Penalty>
0.00112577

> <i_epik_Tot_Q>
1

> <i_epik_Tot_abs_Q>
1

> <r_epik_Metal_State_Penalty>
-0

> <b_epik_Metal_Only>
0

> <s_lp_Force_Field>
OPLS_2005

> <r_lp_Energy>
45.0855

> <b_lp_Chiralities_Consistent>
1

> <s_lp_Variant>
AV-unprocessed.smi:152-4

> <Gold.Version>
5.8.1

> <Gold.Id.Protein>
6NUR|6NUR_protein|mol2

> <Gold.PLP.Fitness>
44.1038

> <Gold.PLP.PLP>
-44.1495

> <Gold.PLP.part.hbond>
-2.9400

> <Gold.PLP.part.metal>
0.0000

> <Gold.PLP.part.buried>
-5.7504

> <Gold.PLP.part.nonpolar>
-37.2883

> <Gold.PLP.part.repulsive>
0.6176

> <Gold.PLP.ligand.clash>
0.0000

> <Gold.PLP.ligand.torsion>
1.6593

> <Gold.PLP.Chemscore.Hbond>
0.8450

> <Gold.PLP.Chemscore.CHOScore>
0.0000

> <Gold.PLP.Chemscore.Metal>
0.0000

> <Gold.Chemscore.Hbonds>
donor molecule, donor type, donor heavy atom, donor atom, acceptor molecule, acceptor atom, score
      P1  H 10752 10764       L1    22  0.80

> <Gold.PLP.Chemscore.Internal.Correction>
0.7378

> <Gold.Rescore>
     Score         DG    S(hbond)    S(metal)    S(lipo)     H(rot)  DE(clash)    DE(int)     intcor
      9.41     -14.12       0.91        0.00     107.69       2.73       1.57       3.15       ----

> <Gold.Chemscore.Fitness>
9.4068

> <Gold.Chemscore.DG>
-14.1250

> <Gold.Chemscore.ZeroCoef>
-5.4800

> <Gold.Chemscore.Hbond>
0.9119

> <Gold.Chemscore.Metal>
0.0000

> <Gold.Chemscore.Lipo>
107.6935

> <Gold.Chemscore.Internal_Hbond>
0.0000

> <Gold.Chemscore.DEClash>
1.5695

> <Gold.Chemscore.DEInternal>
3.1487

> <Gold.Chemscore.Rot>
2.7348

> <Gold.Chemscore.Internal.Correction>
   9.000000E+99

> <Gold.Chemscore.Hbonds>
donor molecule, donor type, donor heavy atom, donor atom, acceptor molecule, acceptor atom, score
      P1  H 10752 10764       L1    22  0.57

> <Gold.Chemscore.Hbond.Weighted>
-3.0459

> <Gold.Chemscore.Metal.Weighted>
-0.0000

> <Gold.Chemscore.Lipo.Weighted>
-12.6001

> <Gold.Chemscore.Internal_Hbond.Weighted>
0.0000

> <Gold.Chemscore.DEClash.Weighted>
1.5695

> <Gold.Chemscore.DEInternal.Weighted>
3.1487

> <Gold.Chemscore.Rot.Weighted>
7.0010

> <Gold.Chemscore.Internal.Correction.Weighted>
   9.000000E+99

> <Gold.Protein.RotatedTorsions>
[ 6907 6896 6895 6894 ] final   64.67 input  -60.11 | X-H torsion
[ 7974 7965 7964 7962 ] final  131.27 input  175.53 | X-H torsion
[ 8008 7997 7996 7995 ] final  -35.42 input   59.86 | X-H torsion
[ 10167 10162 10161 10158 ] final    0.92 input  -65.29 | X-H torsion
[ 10718 10713 10712 10709 ] final   52.50 input   66.30 | X-H torsion
[ 10763 10752 10751 10750 ] final  109.72 input  -60.55 | X-H torsion
[ 11005 11000 10999 10996 ] final  130.07 input  -57.11 | X-H torsion

> <Gold.Protein.ActiveResidues>
 VAL166  LYS551  ARG553  GLY616  TRP617  ASP618  TYR619  PRO620  LYS621  CYS622 
 ASP623  PHE694  ASN695  SER759  ASP760  ASP761  ALA762  ILE779  LEU786  VAL792 
 PHE793  MET794  SER795  GLU796  ALA797  LYS798  CYS799  TRP800  GLU811  SER814 

> <Gold.Protein.RotatedAtoms>
  152.4349  134.5705  159.9919 H   0  0  0  0  0  0  0  0  0  0  0  0  # atno 6907 bound_to 6896
  151.5818  133.3371  159.3018 H   0  0  0  0  0  0  0  0  0  0  0  0  # atno 6908 bound_to 6896
  150.8247  134.7506  159.6867 H   0  0  0  0  0  0  0  0  0  0  0  0  # atno 6909 bound_to 6896
  145.0090  139.4238  143.5254 H   0  0  0  0  0  0  0  0  0  0  0  0  # atno 7974 bound_to 7965
  154.4096  140.1658  156.2209 H   0  0  0  0  0  0  0  0  0  0  0  0  # atno 8008 bound_to 7997
  155.9365  140.3411  155.6268 H   0  0  0  0  0  0  0  0  0  0  0  0  # atno 8009 bound_to 7997
  155.7042  140.0749  157.2388 H   0  0  0  0  0  0  0  0  0  0  0  0  # atno 8010 bound_to 7997
  140.6707  143.7057  150.7917 H   0  0  0  0  0  0  0  0  0  0  0  0  # atno 10167 bound_to 10162
  157.5081  130.8482  149.8400 H   0  0  0  0  0  0  0  0  0  0  0  0  # atno 10718 bound_to 10713
  153.4388  135.3771  155.2215 H   0  0  0  0  0  0  0  0  0  0  0  0  # atno 10763 bound_to 10752
  154.8753  135.3858  154.4178 H   0  0  0  0  0  0  0  0  0  0  0  0  # atno 10764 bound_to 10752
  153.4721  135.7087  153.6051 H   0  0  0  0  0  0  0  0  0  0  0  0  # atno 10765 bound_to 10752
  139.9651  134.9592  156.9240 H   0  0  0  0  0  0  0  0  0  0  0  0  # atno 11005 bound_to 11000
  146.3466  139.9523  142.8727 LP  0  0  0  0  0  0  0  0  0  0  0  0  # atno 17320 bound_to 7965
  145.2049  140.9870  143.4134 LP  0  0  0  0  0  0  0  0  0  0  0  0  # atno 17321 bound_to 7965
  140.0742  143.5031  152.2564 LP  0  0  0  0  0  0  0  0  0  0  0  0  # atno 17342 bound_to 10162
  139.5974  144.7571  151.3254 LP  0  0  0  0  0  0  0  0  0  0  0  0  # atno 17343 bound_to 10162
  156.0271  130.3776  150.1792 LP  0  0  0  0  0  0  0  0  0  0  0  0  # atno 17370 bound_to 10713
  156.9982  130.9914  151.3397 LP  0  0  0  0  0  0  0  0  0  0  0  0  # atno 17371 bound_to 10713
  140.5414  134.0716  155.7342 LP  0  0  0  0  0  0  0  0  0  0  0  0  # atno 17394 bound_to 11000
  141.1330  133.9269  157.2494 LP  0  0  0  0  0  0  0  0  0  0  0  0  # atno 17395 bound_to 11000

$$$$
