AV-unprocessed.smi:37|AV-procd|sdf|317|dock1
  -GOLD-   2262016133D 1   1.00000     0.00000
 Structure written by MMmdl.
 44 45  0  0  0  0  0  0  0  0  1 V2000
  147.5798  135.9199  162.9468 C   0  0  0  0  0  0  0  0  0  0  0  0
  147.4360  135.3255  161.5374 C   0  0  0  0  0  0  0  0  0  0  0  0
  147.4445  136.3758  160.4245 C   0  0  0  0  0  0  0  0  0  0  0  0
  146.5874  137.2575  160.3408 O   0  0  0  0  0  0  0  0  0  0  0  0
  148.4747  136.2042  159.5821 O   0  0  0  0  0  0  0  0  0  0  0  0
  148.8481  137.2533  158.7020 C   0  0  0  0  0  0  0  0  0  0  0  0
  150.0268  136.8043  157.8217 C   0  0  2  0  0  0  0  0  0  0  0  0
  151.1091  136.4831  158.6959 O   0  0  0  0  0  0  0  0  0  0  0  0
  152.2806  137.0661  158.2209 C   0  0  2  0  0  0  0  0  0  0  0  0
  153.2379  137.3143  159.3630 N   0  0  0  0  0  0  0  0  0  0  0  0
  153.0745  136.7201  160.6091 C   0  0  0  0  0  0  0  0  0  0  0  0
  153.9204  136.9387  161.6435 C   0  0  0  0  0  0  0  0  0  0  0  0
  153.6959  136.3349  162.8229 F   0  0  0  0  0  0  0  0  0  0  0  0
  155.0684  137.8283  161.4925 C   0  0  0  0  0  0  0  0  0  0  0  0
  155.8912  138.0847  162.3692 O   0  0  0  0  0  0  0  0  0  0  0  0
  155.1878  138.4076  160.2258 N   0  0  0  0  0  0  0  0  0  0  0  0
  154.3215  138.1935  159.1523 C   0  0  0  0  0  0  0  0  0  0  0  0
  154.5150  138.7618  158.0784 O   0  0  0  0  0  0  0  0  0  0  0  0
  151.8486  138.3536  157.5202 C   0  0  2  0  0  0  0  0  0  0  0  0
  151.4408  139.8108  158.8300 Br  0  0  0  0  0  0  0  0  0  0  0  0
  150.5750  137.8665  156.8444 C   0  0  2  0  0  0  0  0  0  0  0  0
  149.6576  138.9153  156.5526 O   0  0  0  0  0  0  0  0  0  0  0  0
  149.7121  139.5613  155.3767 C   0  0  0  0  0  0  0  0  0  0  0  0
  150.6088  139.4526  154.5385 O   0  0  0  0  0  0  0  0  0  0  0  0
  148.5076  140.4832  155.1789 C   0  0  0  0  0  0  0  0  0  0  0  0
  148.4967  141.1951  153.8184 C   0  0  0  0  0  0  0  0  0  0  0  0
  155.9648  139.0350  160.0771 H   0  0  0  0  0  0  0  0  0  0  0  0
  147.5735  135.1302  163.6983 H   0  0  0  0  0  0  0  0  0  0  0  0
  146.7591  136.6004  163.1778 H   0  0  0  0  0  0  0  0  0  0  0  0
  148.5160  136.4688  163.0542 H   0  0  0  0  0  0  0  0  0  0  0  0
  148.2463  134.6199  161.3531 H   0  0  0  0  0  0  0  0  0  0  0  0
  146.5054  134.7612  161.4710 H   0  0  0  0  0  0  0  0  0  0  0  0
  148.0075  137.5644  158.0805 H   0  0  0  0  0  0  0  0  0  0  0  0
  149.1410  138.1157  159.3021 H   0  0  0  0  0  0  0  0  0  0  0  0
  149.7496  135.9045  157.2712 H   0  0  0  0  0  0  0  0  0  0  0  0
  152.7731  136.3553  157.5529 H   0  0  0  0  0  0  0  0  0  0  0  0
  152.2366  136.0620  160.7866 H   0  0  0  0  0  0  0  0  0  0  0  0
  152.6084  138.7099  156.8241 H   0  0  0  0  0  0  0  0  0  0  0  0
  150.8490  137.3439  155.9260 H   0  0  0  0  0  0  0  0  0  0  0  0
  147.5984  139.8918  155.2914 H   0  0  0  0  0  0  0  0  0  0  0  0
  148.5036  141.2225  155.9802 H   0  0  0  0  0  0  0  0  0  0  0  0
  147.6192  141.8355  153.7282 H   0  0  0  0  0  0  0  0  0  0  0  0
  148.4691  140.4804  152.9949 H   0  0  0  0  0  0  0  0  0  0  0  0
  149.3785  141.8243  153.6918 H   0  0  0  0  0  0  0  0  0  0  0  0
  1  2  1  0  0  0  0
  1 28  1  0  0  0  0
  1 29  1  0  0  0  0
  1 30  1  0  0  0  0
  2  3  1  0  0  0  0
  2 31  1  0  0  0  0
  2 32  1  0  0  0  0
  3  4  2  0  0  0  0
  3  5  1  0  0  0  0
  5  6  1  0  0  0  0
  6  7  1  0  0  0  0
  6 33  1  0  0  0  0
  6 34  1  0  0  0  0
  7 21  1  0  0  0  0
  7  8  1  0  0  0  0
  7 35  1  0  0  0  0
  8  9  1  0  0  0  0
  9 10  1  0  0  0  0
  9 19  1  0  0  0  0
  9 36  1  0  0  0  0
 10 17  1  0  0  0  0
 10 11  1  0  0  0  0
 11 12  2  0  0  0  0
 11 37  1  0  0  0  0
 12 13  1  0  0  0  0
 12 14  1  0  0  0  0
 14 15  2  0  0  0  0
 14 16  1  0  0  0  0
 16 27  1  0  0  0  0
 16 17  1  0  0  0  0
 17 18  2  0  0  0  0
 19 20  1  0  0  0  0
 19 21  1  0  0  0  0
 19 38  1  0  0  0  0
 21 22  1  0  0  0  0
 21 39  1  0  0  0  0
 22 23  1  0  0  0  0
 23 24  2  0  0  0  0
 23 25  1  0  0  0  0
 25 26  1  0  0  0  0
 25 40  1  0  0  0  0
 25 41  1  0  0  0  0
 26 42  1  0  0  0  0
 26 43  1  0  0  0  0
 26 44  1  0  0  0  0
M  END
> <s_m_source_file>
AV-unprocessed.smi

> <i_m_source_file_index>
37

> <i_lp_mmshare_version>
43012

> <i_f3d_flags>
0

> <s_epik_input>
W0NIM11bQ0gyXUMoPU8pT1tDSDJdW0NAQEhdMU9bQ0BASF0objJbY0hdYyhGKWMoPU8pW25IXWMyPU8pW0NAQEhdKEJyKVtDQEhdMU9DKD1PKVtDSDJdW0NIM10=

> <s_epik_cmdline>
J2VwaWtfcHl0aG9uJywgJy1waCcsICc3LjAnLCAnLXRuJywgJzgnLCAnLW1hJywgJzIwMCcsICctbWV0YWxfYmluZGluZycsICctaW1hZScsICc8aW5maWxlLm1hZT4nLCAnLW9tYWUnLCAnPG91dGZpbGUubWFlPic=

> <r_lp_tautomer_probability>
0.999537

> <r_epik_Ionization_Penalty>
0.104106

> <r_epik_Ionization_Penalty_Charging>
0.104106

> <r_epik_Ionization_Penalty_Neutral>
3.94675e-16

> <r_epik_State_Penalty>
0.0940182

> <r_epik_Charging_Adjusted_Penalty>
0.198124

> <i_epik_Tot_Q>
0

> <i_epik_Tot_abs_Q>
0

> <r_epik_Metal_State_Penalty>
3.05314

> <b_epik_Metal_Only>
0

> <s_epik_Chemistry_Notes>
This compound has an ester and may undergo hydrolysis at high or low pH. This compound contains an acetal/aminal-like group ( X-CH(R)-Y where X, Y are N, S, or O) that may be acid/base labile, releasing an aldehyde.

> <s_lp_Force_Field>
OPLS_2005

> <r_lp_Energy>
26.9129

> <b_lp_Chiralities_Consistent>
1

> <s_lp_Variant>
AV-unprocessed.smi:37-15

> <Gold.Version>
5.8.1

> <Gold.Id.Protein>
6NUR|6NUR_protein|mol2

> <Gold.PLP.Fitness>
49.7583

> <Gold.PLP.PLP>
-39.5186

> <Gold.PLP.part.hbond>
-4.0000

> <Gold.PLP.part.metal>
0.0000

> <Gold.PLP.part.buried>
-4.7161

> <Gold.PLP.part.nonpolar>
-31.0352

> <Gold.PLP.part.repulsive>
0.0671

> <Gold.PLP.ligand.clash>
0.0000

> <Gold.PLP.ligand.torsion>
1.0150

> <Gold.PLP.Chemscore.Hbond>
4.0000

> <Gold.PLP.Chemscore.CHOScore>
0.0000

> <Gold.PLP.Chemscore.Metal>
0.0000

> <Gold.Chemscore.Hbonds>
donor molecule, donor type, donor heavy atom, donor atom, acceptor molecule, acceptor atom, score
      P1  H  6896  6908       L1     8  0.83
      P1  H  6934  6947       L1     4  1.00
      P1  H  7989  7998       L1    24  0.99
      P1  H  7997  8010       L1    18  1.00

> <Gold.PLP.Chemscore.Internal.Correction>
0.2698

> <Gold.Rescore>
     Score         DG    S(hbond)    S(metal)    S(lipo)     H(rot)  DE(clash)    DE(int)     intcor
     15.52     -17.75       3.91        0.00      66.11       3.33       0.15       2.07       ----

> <Gold.Chemscore.Fitness>
15.5210

> <Gold.Chemscore.DG>
-17.7493

> <Gold.Chemscore.ZeroCoef>
-5.4800

> <Gold.Chemscore.Hbond>
3.9102

> <Gold.Chemscore.Metal>
0.0000

> <Gold.Chemscore.Lipo>
66.1106

> <Gold.Chemscore.Internal_Hbond>
0.0000

> <Gold.Chemscore.DEClash>
0.1533

> <Gold.Chemscore.DEInternal>
2.0750

> <Gold.Chemscore.Rot>
3.3303

> <Gold.Chemscore.Internal.Correction>
   9.000000E+99

> <Gold.Chemscore.Hbonds>
donor molecule, donor type, donor heavy atom, donor atom, acceptor molecule, acceptor atom, score
      P1  H  6896  6908       L1     8  0.78
      P1  H  6934  6947       L1     4  0.90
      P1  H  7989  7998       L1    24  0.93
      P1  H  7997  8010       L1    18  0.92

> <Gold.Chemscore.Hbond.Weighted>
-13.0599

> <Gold.Chemscore.Metal.Weighted>
-0.0000

> <Gold.Chemscore.Lipo.Weighted>
-7.7349

> <Gold.Chemscore.Internal_Hbond.Weighted>
0.0000

> <Gold.Chemscore.DEClash.Weighted>
0.1533

> <Gold.Chemscore.DEInternal.Weighted>
2.0750

> <Gold.Chemscore.Rot.Weighted>
8.5256

> <Gold.Chemscore.Internal.Correction.Weighted>
   9.000000E+99

> <Gold.Protein.RotatedTorsions>
[ 6907 6896 6895 6894 ] final -139.26 input  -60.11 | X-H torsion
[ 7974 7965 7964 7962 ] final  -17.58 input  175.53 | X-H torsion
[ 8008 7997 7996 7995 ] final   12.18 input   59.86 | X-H torsion
[ 10167 10162 10161 10158 ] final  101.53 input  -65.29 | X-H torsion
[ 10718 10713 10712 10709 ] final  159.45 input   66.30 | X-H torsion
[ 10763 10752 10751 10750 ] final  -58.19 input  -60.55 | X-H torsion
[ 11005 11000 10999 10996 ] final  138.54 input  -57.11 | X-H torsion

> <Gold.Protein.ActiveResidues>
 VAL166  LYS551  ARG553  GLY616  TRP617  ASP618  TYR619  PRO620  LYS621  CYS622 
 ASP623  PHE694  ASN695  SER759  ASP760  ASP761  ALA762  ILE779  LEU786  VAL792 
 PHE793  MET794  SER795  GLU796  ALA797  LYS798  CYS799  TRP800  GLU811  SER814 

> <Gold.Protein.RotatedAtoms>
  151.0455  133.5669  159.2646 H   0  0  0  0  0  0  0  0  0  0  0  0  # atno 6907 bound_to 6896
  151.2699  135.0680  159.9140 H   0  0  0  0  0  0  0  0  0  0  0  0  # atno 6908 bound_to 6896
  152.5372  134.0187  159.8026 H   0  0  0  0  0  0  0  0  0  0  0  0  # atno 6909 bound_to 6896
  146.1934  140.3799  142.8449 H   0  0  0  0  0  0  0  0  0  0  0  0  # atno 7974 bound_to 7965
  154.8171  140.2878  155.5812 H   0  0  0  0  0  0  0  0  0  0  0  0  # atno 8008 bound_to 7997
  156.2994  140.2557  156.3001 H   0  0  0  0  0  0  0  0  0  0  0  0  # atno 8009 bound_to 7997
  154.9381  140.0382  157.2072 H   0  0  0  0  0  0  0  0  0  0  0  0  # atno 8010 bound_to 7997
  139.7430  144.7006  151.0546 H   0  0  0  0  0  0  0  0  0  0  0  0  # atno 10167 bound_to 10162
  157.1641  131.0594  151.2217 H   0  0  0  0  0  0  0  0  0  0  0  0  # atno 10718 bound_to 10713
  154.2342  135.6355  153.5185 H   0  0  0  0  0  0  0  0  0  0  0  0  # atno 10763 bound_to 10752
  152.9943  135.5526  154.5980 H   0  0  0  0  0  0  0  0  0  0  0  0  # atno 10764 bound_to 10752
  154.5470  135.2899  155.1018 H   0  0  0  0  0  0  0  0  0  0  0  0  # atno 10765 bound_to 10752
  140.0191  134.9405  157.0437 H   0  0  0  0  0  0  0  0  0  0  0  0  # atno 11005 bound_to 11000
  144.8532  140.7031  143.6155 LP  0  0  0  0  0  0  0  0  0  0  0  0  # atno 17320 bound_to 7965
  145.3720  139.1656  143.4327 LP  0  0  0  0  0  0  0  0  0  0  0  0  # atno 17321 bound_to 7965
  140.7788  143.4901  150.9904 LP  0  0  0  0  0  0  0  0  0  0  0  0  # atno 17342 bound_to 10162
  139.8589  143.7340  152.3174 LP  0  0  0  0  0  0  0  0  0  0  0  0  # atno 17343 bound_to 10162
  157.4105  130.7382  149.6835 LP  0  0  0  0  0  0  0  0  0  0  0  0  # atno 17370 bound_to 10713
  155.9749  130.4096  150.3889 LP  0  0  0  0  0  0  0  0  0  0  0  0  # atno 17371 bound_to 10713
  140.4419  134.1672  155.7174 LP  0  0  0  0  0  0  0  0  0  0  0  0  # atno 17394 bound_to 11000
  141.1762  133.8509  157.1413 LP  0  0  0  0  0  0  0  0  0  0  0  0  # atno 17395 bound_to 11000

$$$$
