AV-unprocessed.smi:16|AV-procd|sdf|94|dock3
  -GOLD-   2262015233D 1   1.00000     0.00000
 Structure written by MMmdl.
 60 64  0  0  0  0  0  0  0  0  2 V2000
  149.4852  136.7349  157.0484 C   0  0  0  0  0  0  0  0  0  0  0  0
  149.6891  138.2559  157.0283 C   0  0  0  0  0  0  0  0  0  0  0  0
  150.5793  138.6955  155.9215 N   0  3  2  0  0  0  0  0  0  0  0  0
  151.1370  140.0658  156.0718 C   0  0  0  0  0  0  0  0  0  0  0  0
  150.0987  141.1497  155.7420 C   0  0  0  0  0  0  0  0  0  0  0  0
  149.5296  140.9470  154.3239 C   0  0  2  0  0  0  0  0  0  0  0  0
  148.5644  141.9400  153.9756 O   0  0  0  0  0  0  0  0  0  0  0  0
  147.3223  141.8247  154.6632 C   0  0  0  0  0  0  0  0  0  0  0  0
  146.7157  140.4381  154.4135 C   0  0  0  0  0  0  0  0  0  0  0  0
  147.6573  139.3877  154.7840 N   0  0  0  0  0  0  0  0  0  0  0  0
  147.0476  138.1792  154.7400 C   0  0  0  0  0  0  0  0  0  0  0  0
  146.9829  137.3984  155.8507 N   0  0  0  0  0  0  0  0  0  0  0  0
  146.3900  136.2022  155.7914 C   0  0  0  0  0  0  0  0  0  0  0  0
  145.8135  135.6077  154.7446 N   0  0  0  0  0  0  0  0  0  0  0  0
  145.8851  136.3853  153.6255 C   0  0  0  0  0  0  0  0  0  0  0  0
  146.4836  137.6730  153.5395 C   0  0  0  0  0  0  0  0  0  0  0  0
  146.3692  138.1705  152.2487 N   0  0  0  0  0  0  0  0  0  0  0  0
  145.7411  137.2262  151.6028 C   0  0  0  0  0  0  0  0  0  0  0  0
  145.4100  136.1175  152.3510 N   0  0  0  0  0  0  0  0  0  0  0  0
  144.7249  134.9467  151.8784 C   0  0  0  0  0  0  0  0  0  0  0  0
  144.9565  133.5712  152.5072 C   0  0  0  0  0  0  0  0  0  0  0  0
  144.7100  132.9117  151.1301 C   0  0  0  0  0  0  0  0  0  0  0  0
  145.6651  131.7497  150.8043 C   0  0  0  0  0  0  0  0  0  0  0  0
  146.9943  132.0269  151.1950 O   0  0  0  0  0  0  0  0  0  0  0  0
  143.2529  132.4516  150.9129 C   0  0  0  0  0  0  0  0  0  0  0  0
  142.9860  132.1366  149.5615 O   0  0  0  0  0  0  0  0  0  0  0  0
  145.0903  134.2928  150.5457 C   0  0  0  0  0  0  0  0  0  0  0  0
  148.9626  139.5212  154.1238 C   0  0  2  0  0  0  0  0  0  0  0  0
  150.0180  138.4647  154.5618 C   0  0  0  0  0  0  0  0  0  0  0  0
  150.3565  141.0765  153.6243 H   0  0  0  0  0  0  0  0  0  0  0  0
  148.7851  139.3902  153.0550 H   0  0  0  0  0  0  0  0  0  0  0  0
  148.7511  136.4592  157.8057 H   0  0  0  0  0  0  0  0  0  0  0  0
  150.4055  136.2009  157.2827 H   0  0  0  0  0  0  0  0  0  0  0  0
  149.1192  136.3728  156.0870 H   0  0  0  0  0  0  0  0  0  0  0  0
  148.7086  138.7152  156.8977 H   0  0  0  0  0  0  0  0  0  0  0  0
  150.0629  138.5992  157.9924 H   0  0  0  0  0  0  0  0  0  0  0  0
  151.5373  140.2159  157.0737 H   0  0  0  0  0  0  0  0  0  0  0  0
  151.9858  140.1630  155.3937 H   0  0  0  0  0  0  0  0  0  0  0  0
  149.3106  141.1293  156.4928 H   0  0  0  0  0  0  0  0  0  0  0  0
  150.5606  142.1348  155.8139 H   0  0  0  0  0  0  0  0  0  0  0  0
  147.4432  142.0124  155.7296 H   0  0  0  0  0  0  0  0  0  0  0  0
  146.6471  142.5956  154.2917 H   0  0  0  0  0  0  0  0  0  0  0  0
  145.7896  140.3387  154.9818 H   0  0  0  0  0  0  0  0  0  0  0  0
  146.4560  140.3338  153.3587 H   0  0  0  0  0  0  0  0  0  0  0  0
  146.3769  135.6395  156.7134 H   0  0  0  0  0  0  0  0  0  0  0  0
  145.5016  137.3152  150.5528 H   0  0  0  0  0  0  0  0  0  0  0  0
  143.6598  135.1856  151.8914 H   0  0  0  0  0  0  0  0  0  0  0  0
  145.9761  133.4362  152.8709 H   0  0  0  0  0  0  0  0  0  0  0  0
  144.2351  133.3036  153.2799 H   0  0  0  0  0  0  0  0  0  0  0  0
  145.3589  130.8412  151.3236 H   0  0  0  0  0  0  0  0  0  0  0  0
  145.6512  131.5126  149.7399 H   0  0  0  0  0  0  0  0  0  0  0  0
  147.5706  131.4247  150.7499 H   0  0  0  0  0  0  0  0  0  0  0  0
  143.0194  131.5812  151.5268 H   0  0  0  0  0  0  0  0  0  0  0  0
  142.5477  133.2275  151.2119 H   0  0  0  0  0  0  0  0  0  0  0  0
  142.2841  132.6903  149.2556 H   0  0  0  0  0  0  0  0  0  0  0  0
  144.4819  134.6227  149.7033 H   0  0  0  0  0  0  0  0  0  0  0  0
  146.1523  134.3717  150.3083 H   0  0  0  0  0  0  0  0  0  0  0  0
  150.8548  138.5178  153.8643 H   0  0  0  0  0  0  0  0  0  0  0  0
  149.6468  137.4438  154.4751 H   0  0  0  0  0  0  0  0  0  0  0  0
  151.3719  138.0721  155.9804 H   0  0  0  0  0  0  0  0  0  0  0  0
  1  2  1  0  0  0  0
  1 32  1  0  0  0  0
  1 33  1  0  0  0  0
  1 34  1  0  0  0  0
  2  3  1  0  0  0  0
  2 35  1  0  0  0  0
  2 36  1  0  0  0  0
  3 29  1  0  0  0  0
  3  4  1  0  0  0  0
  3 60  1  0  0  0  0
  4  5  1  0  0  0  0
  4 37  1  0  0  0  0
  4 38  1  0  0  0  0
  5  6  1  0  0  0  0
  5 39  1  0  0  0  0
  5 40  1  0  0  0  0
  6 30  1  0  0  0  0
  6 28  1  0  0  0  0
  6  7  1  0  0  0  0
  7  8  1  0  0  0  0
  8  9  1  0  0  0  0
  8 41  1  0  0  0  0
  8 42  1  0  0  0  0
  9 10  1  0  0  0  0
  9 43  1  0  0  0  0
  9 44  1  0  0  0  0
 10 11  1  0  0  0  0
 10 28  1  0  0  0  0
 11 16  1  0  0  0  0
 11 12  2  0  0  0  0
 12 13  1  0  0  0  0
 13 14  2  0  0  0  0
 13 45  1  0  0  0  0
 14 15  1  0  0  0  0
 15 19  1  0  0  0  0
 15 16  2  0  0  0  0
 16 17  1  0  0  0  0
 17 18  2  0  0  0  0
 18 19  1  0  0  0  0
 18 46  1  0  0  0  0
 19 20  1  0  0  0  0
 20 27  1  0  0  0  0
 20 21  1  0  0  0  0
 20 47  1  0  0  0  0
 21 22  1  0  0  0  0
 21 48  1  0  0  0  0
 21 49  1  0  0  0  0
 22 23  1  0  0  0  0
 22 25  1  0  0  0  0
 22 27  1  0  0  0  0
 23 24  1  0  0  0  0
 23 50  1  0  0  0  0
 23 51  1  0  0  0  0
 24 52  1  0  0  0  0
 25 26  1  0  0  0  0
 25 53  1  0  0  0  0
 25 54  1  0  0  0  0
 26 55  1  0  0  0  0
 27 56  1  0  0  0  0
 27 57  1  0  0  0  0
 28 31  1  0  0  0  0
 28 29  1  0  0  0  0
 29 58  1  0  0  0  0
 29 59  1  0  0  0  0
M  CHG  1   3   1
M  END
> <s_m_source_file>
AV-unprocessed.smi

> <i_m_source_file_index>
16

> <i_lp_mmshare_version>
43012

> <i_f3d_flags>
0

> <s_epik_input>
W0NIM11bQ0gyXU4oW0NIMl1bQ0gyXTEpW0NIMl1bQ0BASF0oW0NAQEhdMTIpTihbQ0gyXVtDSDJdTzIpYyhuW2NIXW4zKWMoYzM0KW5bY0hdbjRbQ0hdKFtDSDJdNSlbQ0gyXUM1KFtDSDJdW09IXSlbQ0gyXVtPSF0=

> <s_epik_cmdline>
J2VwaWtfcHl0aG9uJywgJy1waCcsICc3LjAnLCAnLXRuJywgJzgnLCAnLW1hJywgJzIwMCcsICctbWV0YWxfYmluZGluZycsICctaW1hZScsICc8aW5maWxlLm1hZT4nLCAnLW9tYWUnLCAnPG91dGZpbGUubWFlPic=

> <r_lp_tautomer_probability>
1

> <r_epik_Ionization_Penalty>
0.0135603

> <r_epik_Ionization_Penalty_Charging>
0.0131385

> <r_epik_Ionization_Penalty_Neutral>
0.000421734

> <r_epik_State_Penalty>
0.0102091

> <r_epik_Charging_Adjusted_Penalty>
0.0233476

> <i_epik_Tot_Q>
1

> <i_epik_Tot_abs_Q>
1

> <r_epik_Metal_State_Penalty>
0.0103746

> <b_epik_Metal_Only>
0

> <s_lp_Force_Field>
OPLS_2005

> <r_lp_Energy>
67.696

> <b_lp_Chiralities_Consistent>
1

> <s_lp_Variant>
AV-unprocessed.smi:16-8

> <Gold.Version>
5.8.1

> <Gold.Id.Protein>
6NUR|6NUR_protein|mol2

> <Gold.PLP.Fitness>
47.6400

> <Gold.PLP.PLP>
-38.4600

> <Gold.PLP.part.hbond>
-4.1298

> <Gold.PLP.part.metal>
0.0000

> <Gold.PLP.part.buried>
-3.3724

> <Gold.PLP.part.nonpolar>
-33.1871

> <Gold.PLP.part.repulsive>
0.6548

> <Gold.PLP.ligand.clash>
0.0000

> <Gold.PLP.ligand.torsion>
0.9757

> <Gold.PLP.Chemscore.Hbond>
2.4842

> <Gold.PLP.Chemscore.CHOScore>
0.9873

> <Gold.PLP.Chemscore.Metal>
0.0000

> <Gold.Chemscore.Hbonds>
donor molecule, donor type, donor heavy atom, donor atom, acceptor molecule, acceptor atom, score
      L1  H    24    52       P1 10747  1.00
      L1  H    26    55       P1 10186  0.68
      P1  H  8011  8017       L1     7  0.15
      P1  H 10785 10796       L1    26  0.67
      L1  C    18    46       P1 10171  0.87

> <Gold.PLP.Chemscore.Internal.Correction>
0.7170

> <Gold.Rescore>
     Score         DG    S(hbond)    S(metal)    S(lipo)     H(rot)  DE(clash)    DE(int)     intcor
     13.50     -15.10       2.24        0.00      90.99       3.33       0.26       1.34       ----

> <Gold.Chemscore.Fitness>
13.5026

> <Gold.Chemscore.DG>
-15.1038

> <Gold.Chemscore.ZeroCoef>
-5.4800

> <Gold.Chemscore.Hbond>
2.2426

> <Gold.Chemscore.Metal>
0.0000

> <Gold.Chemscore.Lipo>
90.9886

> <Gold.Chemscore.Internal_Hbond>
0.0000

> <Gold.Chemscore.DEClash>
0.2639

> <Gold.Chemscore.DEInternal>
1.3373

> <Gold.Chemscore.Rot>
3.3251

> <Gold.Chemscore.Internal.Correction>
   9.000000E+99

> <Gold.Chemscore.Hbonds>
donor molecule, donor type, donor heavy atom, donor atom, acceptor molecule, acceptor atom, score
      L1  H    24    52       P1 10747  0.96
      L1  H    26    55       P1 10186  0.63
      P1  H 10785 10796       L1    26  0.64

> <Gold.Chemscore.Hbond.Weighted>
-7.4903

> <Gold.Chemscore.Metal.Weighted>
-0.0000

> <Gold.Chemscore.Lipo.Weighted>
-10.6457

> <Gold.Chemscore.Internal_Hbond.Weighted>
0.0000

> <Gold.Chemscore.DEClash.Weighted>
0.2639

> <Gold.Chemscore.DEInternal.Weighted>
1.3373

> <Gold.Chemscore.Rot.Weighted>
8.5122

> <Gold.Chemscore.Internal.Correction.Weighted>
   9.000000E+99

> <Gold.Protein.RotatedTorsions>
[ 6907 6896 6895 6894 ] final  170.24 input  -60.11 | X-H torsion
[ 7974 7965 7964 7962 ] final  118.61 input  175.53 | X-H torsion
[ 8008 7997 7996 7995 ] final  122.70 input   59.86 | X-H torsion
[ 10167 10162 10161 10158 ] final    7.71 input  -65.29 | X-H torsion
[ 10718 10713 10712 10709 ] final  -63.20 input   66.30 | X-H torsion
[ 10763 10752 10751 10750 ] final   42.18 input  -60.55 | X-H torsion
[ 11005 11000 10999 10996 ] final   87.39 input  -57.11 | X-H torsion

> <Gold.Protein.ActiveResidues>
 VAL166  LYS551  ARG553  GLY616  TRP617  ASP618  TYR619  PRO620  LYS621  CYS622 
 ASP623  PHE694  ASN695  SER759  ASP760  ASP761  ALA762  ILE779  LEU786  VAL792 
 PHE793  MET794  SER795  GLU796  ALA797  LYS798  CYS799  TRP800  GLU811  SER814 

> <Gold.Protein.RotatedAtoms>
  151.8191  133.3392  159.3578 H   0  0  0  0  0  0  0  0  0  0  0  0  # atno 6907 bound_to 6896
  150.7300  134.5590  159.5842 H   0  0  0  0  0  0  0  0  0  0  0  0  # atno 6908 bound_to 6896
  152.3019  134.7602  160.0407 H   0  0  0  0  0  0  0  0  0  0  0  0  # atno 6909 bound_to 6896
  145.1531  139.3199  143.4556 H   0  0  0  0  0  0  0  0  0  0  0  0  # atno 7974 bound_to 7965
  156.2738  140.2780  156.1509 H   0  0  0  0  0  0  0  0  0  0  0  0  # atno 8008 bound_to 7997
  155.0854  140.0388  157.2670 H   0  0  0  0  0  0  0  0  0  0  0  0  # atno 8009 bound_to 7997
  154.6931  140.2633  155.6799 H   0  0  0  0  0  0  0  0  0  0  0  0  # atno 8010 bound_to 7997
  140.6356  143.7894  150.7355 H   0  0  0  0  0  0  0  0  0  0  0  0  # atno 10167 bound_to 10162
  156.0806  130.4218  150.1243 H   0  0  0  0  0  0  0  0  0  0  0  0  # atno 10718 bound_to 10713
  152.9889  135.6139  154.2908 H   0  0  0  0  0  0  0  0  0  0  0  0  # atno 10763 bound_to 10752
  154.2633  135.2781  155.2771 H   0  0  0  0  0  0  0  0  0  0  0  0  # atno 10764 bound_to 10752
  154.5187  135.5821  153.6720 H   0  0  0  0  0  0  0  0  0  0  0  0  # atno 10765 bound_to 10752
  139.8921  134.8419  156.2853 H   0  0  0  0  0  0  0  0  0  0  0  0  # atno 11005 bound_to 11000
  146.3492  140.1613  142.8591 LP  0  0  0  0  0  0  0  0  0  0  0  0  # atno 17320 bound_to 7965
  145.0410  140.8945  143.5052 LP  0  0  0  0  0  0  0  0  0  0  0  0  # atno 17321 bound_to 7965
  140.1514  143.4354  152.2128 LP  0  0  0  0  0  0  0  0  0  0  0  0  # atno 17342 bound_to 10162
  139.5567  144.7377  151.4275 LP  0  0  0  0  0  0  0  0  0  0  0  0  # atno 17343 bound_to 10162
  156.9275  130.9703  151.3538 LP  0  0  0  0  0  0  0  0  0  0  0  0  # atno 17370 bound_to 10713
  157.5921  130.8451  149.8675 LP  0  0  0  0  0  0  0  0  0  0  0  0  # atno 17371 bound_to 10713
  141.0012  133.7150  156.0963 LP  0  0  0  0  0  0  0  0  0  0  0  0  # atno 17394 bound_to 11000
  140.7496  134.4060  157.5543 LP  0  0  0  0  0  0  0  0  0  0  0  0  # atno 17395 bound_to 11000

$$$$
