AV-unprocessed.smi:543|AV-procd|sdf|2876|dock10
  -GOLD-   2262023373D 1   1.00000     0.00000
 Structure written by MMmdl.
 45 47  0  0  0  0  0  0  0  0  2 V2000
  149.5520  136.9279  155.0943 C   0  0  0  0  0  0  0  0  0  0  0  0
  149.8950  138.2999  155.0230 O   0  0  0  0  0  0  0  0  0  0  0  0
  148.9887  139.0486  154.2280 C   0  0  0  0  0  0  0  0  0  0  0  0
  149.2441  140.5486  154.4325 C   0  0  0  0  0  0  0  0  0  0  0  0
  148.9249  140.9709  155.7963 N   0  0  0  0  0  0  0  0  0  0  0  0
  149.7711  141.2051  156.8400 C   0  0  0  0  0  0  0  0  0  0  0  0
  151.1559  141.0176  156.7455 N   0  0  0  0  0  0  0  0  0  0  0  0
  151.8678  140.5606  155.5582 C   0  0  0  0  0  0  0  0  0  0  0  0
  152.0720  141.0725  157.8846 C   0  0  0  0  0  0  0  0  0  0  0  0
  152.1607  142.4205  158.5811 C   0  0  0  0  0  0  0  0  0  0  0  0
  151.5851  143.5622  157.9842 C   0  0  0  0  0  0  0  0  0  0  0  0
  151.6529  144.8108  158.6324 C   0  0  0  0  0  0  0  0  0  0  0  0
  152.2997  144.9240  159.8779 C   0  0  0  0  0  0  0  0  0  0  0  0
  152.8784  143.7878  160.4757 C   0  0  0  0  0  0  0  0  0  0  0  0
  152.8091  142.5385  159.8290 C   0  0  0  0  0  0  0  0  0  0  0  0
  149.1702  141.6670  157.9390 N   0  0  0  0  0  0  0  0  0  0  0  0
  147.8341  141.7100  157.5797 C   0  0  0  0  0  0  0  0  0  0  0  0
  147.6596  141.3033  156.2947 C   0  0  0  0  0  0  0  0  0  0  0  0
  146.3448  141.2791  155.6141 C   0  0  0  0  0  0  0  0  0  0  0  0
  146.2410  140.9205  154.4428 O   0  0  0  0  0  0  0  0  0  0  0  0
  145.3291  141.6964  156.4345 N   0  5  0  0  0  0  0  0  0  0  0  0
  145.4625  142.1125  157.7418 C   0  0  0  0  0  0  0  0  0  0  0  0
  144.4945  142.4799  158.4091 O   0  0  0  0  0  0  0  0  0  0  0  0
  146.7003  142.1254  158.3289 N   0  0  0  0  0  0  0  0  0  0  0  0
  146.8758  142.5705  159.7145 C   0  0  0  0  0  0  0  0  0  0  0  0
  150.2759  136.4024  155.7170 H   0  0  0  0  0  0  0  0  0  0  0  0
  149.5619  136.4679  154.1053 H   0  0  0  0  0  0  0  0  0  0  0  0
  148.5642  136.7900  155.5358 H   0  0  0  0  0  0  0  0  0  0  0  0
  149.1115  138.7886  153.1755 H   0  0  0  0  0  0  0  0  0  0  0  0
  147.9622  138.8056  154.5054 H   0  0  0  0  0  0  0  0  0  0  0  0
  150.2813  140.7957  154.2125 H   0  0  0  0  0  0  0  0  0  0  0  0
  148.6680  141.1154  153.7088 H   0  0  0  0  0  0  0  0  0  0  0  0
  151.1670  140.2220  154.7946 H   0  0  0  0  0  0  0  0  0  0  0  0
  152.5259  139.7216  155.7864 H   0  0  0  0  0  0  0  0  0  0  0  0
  152.4731  141.3664  155.1419 H   0  0  0  0  0  0  0  0  0  0  0  0
  151.8216  140.3176  158.6316 H   0  0  0  0  0  0  0  0  0  0  0  0
  153.0623  140.8007  157.5174 H   0  0  0  0  0  0  0  0  0  0  0  0
  151.0826  143.4826  157.0315 H   0  0  0  0  0  0  0  0  0  0  0  0
  151.2071  145.6815  158.1745 H   0  0  0  0  0  0  0  0  0  0  0  0
  152.3510  145.8815  160.3749 H   0  0  0  0  0  0  0  0  0  0  0  0
  153.3741  143.8741  161.4315 H   0  0  0  0  0  0  0  0  0  0  0  0
  153.2515  141.6712  160.2961 H   0  0  0  0  0  0  0  0  0  0  0  0
  146.6099  143.6240  159.8106 H   0  0  0  0  0  0  0  0  0  0  0  0
  147.9014  142.4585  160.0660 H   0  0  0  0  0  0  0  0  0  0  0  0
  146.2394  141.9947  160.3879 H   0  0  0  0  0  0  0  0  0  0  0  0
  1  2  1  0  0  0  0
  1 26  1  0  0  0  0
  1 27  1  0  0  0  0
  1 28  1  0  0  0  0
  2  3  1  0  0  0  0
  3  4  1  0  0  0  0
  3 29  1  0  0  0  0
  3 30  1  0  0  0  0
  4  5  1  0  0  0  0
  4 31  1  0  0  0  0
  4 32  1  0  0  0  0
  5 18  1  0  0  0  0
  5  6  1  0  0  0  0
  6  7  1  0  0  0  0
  6 16  2  0  0  0  0
  7  8  1  0  0  0  0
  7  9  1  0  0  0  0
  8 33  1  0  0  0  0
  8 34  1  0  0  0  0
  8 35  1  0  0  0  0
  9 10  1  0  0  0  0
  9 36  1  0  0  0  0
  9 37  1  0  0  0  0
 10 15  1  0  0  0  0
 10 11  2  0  0  0  0
 11 12  1  0  0  0  0
 11 38  1  0  0  0  0
 12 13  2  0  0  0  0
 12 39  1  0  0  0  0
 13 14  1  0  0  0  0
 13 40  1  0  0  0  0
 14 15  2  0  0  0  0
 14 41  1  0  0  0  0
 15 42  1  0  0  0  0
 16 17  1  0  0  0  0
 17 24  1  0  0  0  0
 17 18  2  0  0  0  0
 18 19  1  0  0  0  0
 19 20  2  0  0  0  0
 19 21  1  0  0  0  0
 21 22  1  0  0  0  0
 22 23  2  0  0  0  0
 22 24  1  0  0  0  0
 24 25  1  0  0  0  0
 25 43  1  0  0  0  0
 25 44  1  0  0  0  0
 25 45  1  0  0  0  0
M  CHG  1  21  -1
M  END
> <s_m_source_file>
AV-unprocessed.smi

> <i_m_source_file_index>
543

> <i_lp_mmshare_version>
43012

> <i_f3d_flags>
0

> <s_epik_input>
W0NIM11uMWMoPU8pW25IXWMoPU8pYyhjMTIpbihbQ0gyXVtDSDJdT1tDSDNdKWMobjIpTihbQ0gzXSlbQ0gyXWMzW2NIXVtjSF1bY0hdW2NIXVtjSF0z

> <s_epik_cmdline>
J2VwaWtfcHl0aG9uJywgJy1waCcsICc3LjAnLCAnLXRuJywgJzgnLCAnLW1hJywgJzIwMCcsICctbWV0YWxfYmluZGluZycsICctaW1hZScsICc8aW5maWxlLm1hZT4nLCAnLW9tYWUnLCAnPG91dGZpbGUubWFlPic=

> <r_lp_tautomer_probability>
1

> <r_epik_Ionization_Penalty>
6.27073

> <r_epik_Ionization_Penalty_Charging>
0.0750099

> <r_epik_Ionization_Penalty_Neutral>
6.19572

> <r_epik_State_Penalty>
6.19553

> <r_epik_Charging_Adjusted_Penalty>
6.27054

> <i_epik_Tot_Q>
-1

> <i_epik_Tot_abs_Q>
1

> <r_epik_Metal_State_Penalty>
2.13591

> <b_epik_Metal_Only>
1

> <s_lp_Force_Field>
OPLS_2005

> <r_lp_Energy>
36.8514

> <b_lp_Chiralities_Consistent>
1

> <s_lp_Variant>
AV-unprocessed.smi:543-2

> <Gold.Version>
5.8.1

> <Gold.Id.Protein>
6NUR|6NUR_protein|mol2

> <Gold.PLP.Fitness>
42.2777

> <Gold.PLP.PLP>
-43.1674

> <Gold.PLP.part.hbond>
0.0000

> <Gold.PLP.part.metal>
0.0000

> <Gold.PLP.part.buried>
-5.5853

> <Gold.PLP.part.nonpolar>
-37.7607

> <Gold.PLP.part.repulsive>
0.5820

> <Gold.PLP.ligand.clash>
4.7127

> <Gold.PLP.ligand.torsion>
0.4991

> <Gold.PLP.Chemscore.Hbond>
0.0000

> <Gold.PLP.Chemscore.CHOScore>
0.0000

> <Gold.PLP.Chemscore.Metal>
0.0000

> <Gold.PLP.Chemscore.Internal.Correction>
4.8212

> <Gold.Rescore>
     Score         DG    S(hbond)    S(metal)    S(lipo)     H(rot)  DE(clash)    DE(int)     intcor
     11.32     -13.08       0.00        0.00     104.83       1.82       0.19       1.57       ----

> <Gold.Chemscore.Fitness>
11.3219

> <Gold.Chemscore.DG>
-13.0837

> <Gold.Chemscore.ZeroCoef>
-5.4800

> <Gold.Chemscore.Hbond>
0.0000

> <Gold.Chemscore.Metal>
0.0000

> <Gold.Chemscore.Lipo>
104.8269

> <Gold.Chemscore.Internal_Hbond>
0.0000

> <Gold.Chemscore.DEClash>
0.1874

> <Gold.Chemscore.DEInternal>
1.5744

> <Gold.Chemscore.Rot>
1.8207

> <Gold.Chemscore.Internal.Correction>
   9.000000E+99

> <Gold.Chemscore.Hbond.Weighted>
-0.0000

> <Gold.Chemscore.Metal.Weighted>
-0.0000

> <Gold.Chemscore.Lipo.Weighted>
-12.2648

> <Gold.Chemscore.Internal_Hbond.Weighted>
0.0000

> <Gold.Chemscore.DEClash.Weighted>
0.1874

> <Gold.Chemscore.DEInternal.Weighted>
1.5744

> <Gold.Chemscore.Rot.Weighted>
4.6610

> <Gold.Chemscore.Internal.Correction.Weighted>
   9.000000E+99

> <Gold.Protein.RotatedTorsions>
[ 6907 6896 6895 6894 ] final -103.06 input  -60.11 | X-H torsion
[ 7974 7965 7964 7962 ] final   -2.05 input  175.53 | X-H torsion
[ 8008 7997 7996 7995 ] final -116.67 input   59.86 | X-H torsion
[ 10167 10162 10161 10158 ] final   -9.23 input  -65.29 | X-H torsion
[ 10718 10713 10712 10709 ] final   67.25 input   66.30 | X-H torsion
[ 10763 10752 10751 10750 ] final -109.42 input  -60.55 | X-H torsion
[ 11005 11000 10999 10996 ] final  108.43 input  -57.11 | X-H torsion

> <Gold.Protein.ActiveResidues>
 VAL166  LYS551  ARG553  GLY616  TRP617  ASP618  TYR619  PRO620  LYS621  CYS622 
 ASP623  PHE694  ASN695  SER759  ASP760  ASP761  ALA762  ILE779  LEU786  VAL792 
 PHE793  MET794  SER795  GLU796  ALA797  LYS798  CYS799  TRP800  GLU811  SER814 

> <Gold.Protein.RotatedAtoms>
  150.7223  134.0486  159.3790 H   0  0  0  0  0  0  0  0  0  0  0  0  # atno 6907 bound_to 6896
  151.8462  135.0571  160.0463 H   0  0  0  0  0  0  0  0  0  0  0  0  # atno 6908 bound_to 6896
  152.2825  133.5448  159.5543 H   0  0  0  0  0  0  0  0  0  0  0  0  # atno 6909 bound_to 6896
  146.2409  140.1512  142.8334 H   0  0  0  0  0  0  0  0  0  0  0  0  # atno 7974 bound_to 7965
  155.0715  140.0393  157.2610 H   0  0  0  0  0  0  0  0  0  0  0  0  # atno 8008 bound_to 7997
  154.6979  140.2667  155.6724 H   0  0  0  0  0  0  0  0  0  0  0  0  # atno 8009 bound_to 7997
  156.2750  140.2746  156.1579 H   0  0  0  0  0  0  0  0  0  0  0  0  # atno 8010 bound_to 7997
  140.7081  143.5881  150.8922 H   0  0  0  0  0  0  0  0  0  0  0  0  # atno 10167 bound_to 10162
  157.6219  130.9311  150.0218 H   0  0  0  0  0  0  0  0  0  0  0  0  # atno 10718 bound_to 10713
  154.8192  135.4602  154.0729 H   0  0  0  0  0  0  0  0  0  0  0  0  # atno 10763 bound_to 10752
  153.2097  135.6880  153.8135 H   0  0  0  0  0  0  0  0  0  0  0  0  # atno 10764 bound_to 10752
  153.7591  135.3287  155.3311 H   0  0  0  0  0  0  0  0  0  0  0  0  # atno 10765 bound_to 10752
  139.8844  134.9430  156.5971 H   0  0  0  0  0  0  0  0  0  0  0  0  # atno 11005 bound_to 11000
  145.0166  140.8758  143.5192 LP  0  0  0  0  0  0  0  0  0  0  0  0  # atno 17320 bound_to 7965
  145.1554  139.2489  143.5419 LP  0  0  0  0  0  0  0  0  0  0  0  0  # atno 17321 bound_to 7965
  139.9607  143.6167  152.3003 LP  0  0  0  0  0  0  0  0  0  0  0  0  # atno 17342 bound_to 10162
  139.6719  144.7660  151.1767 LP  0  0  0  0  0  0  0  0  0  0  0  0  # atno 17343 bound_to 10162
  156.1369  130.3642  149.9643 LP  0  0  0  0  0  0  0  0  0  0  0  0  # atno 17370 bound_to 10713
  156.7692  130.9180  151.3644 LP  0  0  0  0  0  0  0  0  0  0  0  0  # atno 17371 bound_to 10713
  140.7912  133.8581  155.8647 LP  0  0  0  0  0  0  0  0  0  0  0  0  # atno 17394 bound_to 11000
  140.9676  134.1574  157.4603 LP  0  0  0  0  0  0  0  0  0  0  0  0  # atno 17395 bound_to 11000

$$$$
