AV-unprocessed.smi:2603|AV-procd|sdf|10185|dock5
  -GOLD-   2272014203D 1   1.00000     0.00000
 Structure written by MMmdl.
 35 36  0  0  0  0  0  0  0  0  1 V2000
  153.3951  141.4516  160.7178 C   0  0  0  0  0  0  0  0  0  0  0  0
  153.4964  142.9714  160.8673 C   0  0  0  0  0  0  0  0  0  0  0  0
  152.2514  143.5523  160.5216 O   0  0  0  0  0  0  0  0  0  0  0  0
  151.8211  143.1592  159.2314 C   0  0  2  0  0  0  0  0  0  0  0  0
  152.0134  144.2102  158.1745 C   0  0  0  0  0  0  0  0  0  0  0  0
  150.6324  143.9604  158.7544 C   0  0  1  0  0  0  0  0  0  0  0  0
  149.6794  143.2927  157.9299 N   0  0  0  0  0  0  0  0  0  0  0  0
  149.0237  142.1668  158.2482 C   0  0  0  0  0  0  0  0  0  0  0  0
  149.1753  141.5641  159.3108 O   0  0  0  0  0  0  0  0  0  0  0  0
  148.0355  141.6415  157.2073 C   0  0  0  0  0  0  0  0  0  0  0  0
  148.7866  141.1729  155.9878 C   0  0  0  0  0  0  0  0  0  0  0  0
  150.0762  140.5698  155.9218 C   0  0  0  0  0  0  0  0  0  0  0  0
  151.0219  140.2514  157.0442 C   0  0  0  0  0  0  0  0  0  0  0  0
  150.4277  140.2906  154.6779 N   0  0  0  0  0  0  0  0  0  0  0  0
  149.3615  140.7074  153.8752 O   0  0  0  0  0  0  0  0  0  0  0  0
  148.3990  141.2296  154.6775 C   0  0  0  0  0  0  0  0  0  0  0  0
  147.1705  141.7435  154.0064 C   0  0  0  0  0  0  0  0  0  0  0  0
  154.3403  140.9714  160.9711 H   0  0  0  0  0  0  0  0  0  0  0  0
  153.1426  141.1747  159.6939 H   0  0  0  0  0  0  0  0  0  0  0  0
  152.6263  141.0449  161.3753 H   0  0  0  0  0  0  0  0  0  0  0  0
  153.7594  143.2287  161.8945 H   0  0  0  0  0  0  0  0  0  0  0  0
  154.2830  143.3582  160.2176 H   0  0  0  0  0  0  0  0  0  0  0  0
  151.8906  142.0981  158.9958 H   0  0  0  0  0  0  0  0  0  0  0  0
  152.5202  145.1296  158.4616 H   0  0  0  0  0  0  0  0  0  0  0  0
  152.2072  143.8705  157.1589 H   0  0  0  0  0  0  0  0  0  0  0  0
  150.2562  144.7206  159.4379 H   0  0  0  0  0  0  0  0  0  0  0  0
  149.4844  143.7122  157.0326 H   0  0  0  0  0  0  0  0  0  0  0  0
  147.4383  140.8391  157.6423 H   0  0  0  0  0  0  0  0  0  0  0  0
  147.3318  142.4368  156.9590 H   0  0  0  0  0  0  0  0  0  0  0  0
  151.6579  141.1073  157.2704 H   0  0  0  0  0  0  0  0  0  0  0  0
  151.6703  139.4105  156.7956 H   0  0  0  0  0  0  0  0  0  0  0  0
  150.4809  139.9901  157.9536 H   0  0  0  0  0  0  0  0  0  0  0  0
  147.1039  142.8269  154.1050 H   0  0  0  0  0  0  0  0  0  0  0  0
  146.2761  141.3081  154.4523 H   0  0  0  0  0  0  0  0  0  0  0  0
  147.1705  141.5000  152.9435 H   0  0  0  0  0  0  0  0  0  0  0  0
  1  2  1  0  0  0  0
  1 18  1  0  0  0  0
  1 19  1  0  0  0  0
  1 20  1  0  0  0  0
  2  3  1  0  0  0  0
  2 21  1  0  0  0  0
  2 22  1  0  0  0  0
  3  4  1  0  0  0  0
  4  6  1  0  0  0  0
  4  5  1  0  0  0  0
  4 23  1  0  0  0  0
  5  6  1  0  0  0  0
  5 24  1  0  0  0  0
  5 25  1  0  0  0  0
  6  7  1  0  0  0  0
  6 26  1  0  0  0  0
  7  8  1  0  0  0  0
  7 27  1  0  0  0  0
  8  9  2  0  0  0  0
  8 10  1  0  0  0  0
 10 11  1  0  0  0  0
 10 28  1  0  0  0  0
 10 29  1  0  0  0  0
 11 16  2  0  0  0  0
 11 12  1  0  0  0  0
 12 13  1  0  0  0  0
 12 14  2  0  0  0  0
 13 30  1  0  0  0  0
 13 31  1  0  0  0  0
 13 32  1  0  0  0  0
 14 15  1  0  0  0  0
 15 16  1  0  0  0  0
 16 17  1  0  0  0  0
 17 33  1  0  0  0  0
 17 34  1  0  0  0  0
 17 35  1  0  0  0  0
M  END
> <s_m_source_file>
AV-unprocessed.smi

> <i_m_source_file_index>
2603

> <i_lp_mmshare_version>
43012

> <i_f3d_flags>
0

> <s_epik_input>
W0NIM11bQ0gyXU9bQ0BASF0xW0NIMl1bQ0BIXTFbTkhdQyg9TylbQ0gyXWMyYyhbQ0gzXSlub2MyW0NIM10=

> <s_epik_cmdline>
J2VwaWtfcHl0aG9uJywgJy1waCcsICc3LjAnLCAnLXRuJywgJzgnLCAnLW1hJywgJzIwMCcsICctbWV0YWxfYmluZGluZycsICctaW1hZScsICc8aW5maWxlLm1hZT4nLCAnLW9tYWUnLCAnPG91dGZpbGUubWFlPic=

> <r_lp_tautomer_probability>
1

> <r_epik_Ionization_Penalty>
2.37325e-08

> <r_epik_Ionization_Penalty_Charging>
0

> <r_epik_Ionization_Penalty_Neutral>
2.37325e-08

> <r_epik_State_Penalty>
-0

> <r_epik_Charging_Adjusted_Penalty>
0

> <i_epik_Tot_Q>
0

> <i_epik_Tot_abs_Q>
0

> <r_epik_Metal_State_Penalty>
-0

> <b_epik_Metal_Only>
0

> <s_lp_Force_Field>
OPLS_2005

> <r_lp_Energy>
10.4269

> <b_lp_Chiralities_Consistent>
1

> <s_lp_Variant>
AV-unprocessed.smi:2603-1

> <Gold.Version>
5.8.1

> <Gold.Id.Protein>
6NUR|6NUR_protein|mol2

> <Gold.PLP.Fitness>
38.5905

> <Gold.PLP.PLP>
-30.9630

> <Gold.PLP.part.hbond>
-6.5107

> <Gold.PLP.part.metal>
0.0000

> <Gold.PLP.part.buried>
-3.0557

> <Gold.PLP.part.nonpolar>
-25.8359

> <Gold.PLP.part.repulsive>
3.5220

> <Gold.PLP.ligand.clash>
0.0000

> <Gold.PLP.ligand.torsion>
0.7702

> <Gold.PLP.Chemscore.Hbond>
2.8320

> <Gold.PLP.Chemscore.CHOScore>
0.0000

> <Gold.PLP.Chemscore.Metal>
0.0000

> <Gold.Chemscore.Hbonds>
donor molecule, donor type, donor heavy atom, donor atom, acceptor molecule, acceptor atom, score
      L1  H     7    27       P1  8028  1.00
      P1  H  7989  7998       L1    14  0.60
      P1  H  8011  8017       L1    15  0.23

> <Gold.PLP.Chemscore.Internal.Correction>
0.6718

> <Gold.Rescore>
     Score         DG    S(hbond)    S(metal)    S(lipo)     H(rot)  DE(clash)    DE(int)     intcor
     13.91     -18.10       2.03        0.00      86.83       1.69       3.28       0.91       ----

> <Gold.Chemscore.Fitness>
13.9109

> <Gold.Chemscore.DG>
-18.0996

> <Gold.Chemscore.ZeroCoef>
-5.4800

> <Gold.Chemscore.Hbond>
2.0343

> <Gold.Chemscore.Metal>
0.0000

> <Gold.Chemscore.Lipo>
86.8350

> <Gold.Chemscore.Internal_Hbond>
0.0000

> <Gold.Chemscore.DEClash>
3.2756

> <Gold.Chemscore.DEInternal>
0.9131

> <Gold.Chemscore.Rot>
1.6933

> <Gold.Chemscore.Internal.Correction>
   9.000000E+99

> <Gold.Chemscore.Hbonds>
donor molecule, donor type, donor heavy atom, donor atom, acceptor molecule, acceptor atom, score
      L1  H     7    27       P1  8028  0.85
      P1  H  7989  7998       L1    14  0.04
      P1  H  8011  8017       L1    15  0.09

> <Gold.Chemscore.Hbond.Weighted>
-6.7947

> <Gold.Chemscore.Metal.Weighted>
-0.0000

> <Gold.Chemscore.Lipo.Weighted>
-10.1597

> <Gold.Chemscore.Internal_Hbond.Weighted>
0.0000

> <Gold.Chemscore.DEClash.Weighted>
3.2756

> <Gold.Chemscore.DEInternal.Weighted>
0.9131

> <Gold.Chemscore.Rot.Weighted>
4.3348

> <Gold.Chemscore.Internal.Correction.Weighted>
   9.000000E+99

> <Gold.Protein.RotatedTorsions>
[ 6907 6896 6895 6894 ] final   44.14 input  -60.11 | X-H torsion
[ 7974 7965 7964 7962 ] final   35.46 input  175.53 | X-H torsion
[ 8008 7997 7996 7995 ] final   65.49 input   59.86 | X-H torsion
[ 10167 10162 10161 10158 ] final -116.90 input  -65.29 | X-H torsion
[ 10718 10713 10712 10709 ] final -118.50 input   66.30 | X-H torsion
[ 10763 10752 10751 10750 ] final   20.45 input  -60.55 | X-H torsion
[ 11005 11000 10999 10996 ] final  170.51 input  -57.11 | X-H torsion

> <Gold.Protein.ActiveResidues>
 VAL166  LYS551  ARG553  GLY616  TRP617  ASP618  TYR619  PRO620  LYS621  CYS622 
 ASP623  PHE694  ASN695  SER759  ASP760  ASP761  ALA762  ILE779  LEU786  VAL792 
 PHE793  MET794  SER795  GLU796  ALA797  LYS798  CYS799  TRP800  GLU811  SER814 

> <Gold.Protein.RotatedAtoms>
  152.2289  134.8341  160.0475 H   0  0  0  0  0  0  0  0  0  0  0  0  # atno 6907 bound_to 6896
  151.9097  133.3553  159.3867 H   0  0  0  0  0  0  0  0  0  0  0  0  # atno 6908 bound_to 6896
  150.7020  134.4670  159.5451 H   0  0  0  0  0  0  0  0  0  0  0  0  # atno 6909 bound_to 6896
  146.1281  139.6139  142.9245 H   0  0  0  0  0  0  0  0  0  0  0  0  # atno 7974 bound_to 7965
  155.6626  140.3497  155.4788 H   0  0  0  0  0  0  0  0  0  0  0  0  # atno 8008 bound_to 7997
  155.9756  140.1164  157.0796 H   0  0  0  0  0  0  0  0  0  0  0  0  # atno 8009 bound_to 7997
  154.4178  140.1148  156.5352 H   0  0  0  0  0  0  0  0  0  0  0  0  # atno 8010 bound_to 7997
  140.0742  143.4849  152.1963 H   0  0  0  0  0  0  0  0  0  0  0  0  # atno 10167 bound_to 10162
  156.1111  130.6249  150.9299 H   0  0  0  0  0  0  0  0  0  0  0  0  # atno 10718 bound_to 10713
  153.1076  135.6689  153.9557 H   0  0  0  0  0  0  0  0  0  0  0  0  # atno 10763 bound_to 10752
  153.9110  135.3025  155.3450 H   0  0  0  0  0  0  0  0  0  0  0  0  # atno 10764 bound_to 10752
  154.7497  135.5040  153.9344 H   0  0  0  0  0  0  0  0  0  0  0  0  # atno 10765 bound_to 10752
  140.3092  134.7531  157.3977 H   0  0  0  0  0  0  0  0  0  0  0  0  # atno 11005 bound_to 11000
  145.5321  141.0426  143.2377 LP  0  0  0  0  0  0  0  0  0  0  0  0  # atno 17320 bound_to 7965
  144.7663  139.6839  143.7213 LP  0  0  0  0  0  0  0  0  0  0  0  0  # atno 17321 bound_to 7965
  139.5818  144.7514  151.3621 LP  0  0  0  0  0  0  0  0  0  0  0  0  # atno 17342 bound_to 10162
  140.7110  143.7389  150.7568 LP  0  0  0  0  0  0  0  0  0  0  0  0  # atno 17343 bound_to 10162
  157.6292  131.0923  150.8474 LP  0  0  0  0  0  0  0  0  0  0  0  0  # atno 17370 bound_to 10713
  156.8585  130.5105  149.5305 LP  0  0  0  0  0  0  0  0  0  0  0  0  # atno 17371 bound_to 10713
  140.1040  134.5434  155.8326 LP  0  0  0  0  0  0  0  0  0  0  0  0  # atno 17394 bound_to 11000
  141.2112  133.6703  156.6564 LP  0  0  0  0  0  0  0  0  0  0  0  0  # atno 17395 bound_to 11000

$$$$
