AV-unprocessed.smi:278|AV-procd|sdf|2090|dock1
  -GOLD-   2262021363D 1   1.00000     0.00000
 Structure written by MMmdl.
 50 54  0  0  0  0  0  0  0  0  1 V2000
  149.4110  134.7041  158.1857 O   0  0  0  0  0  0  0  0  0  0  0  0
  149.3548  133.4885  157.3592 S   0  0  0  0  0  0  0  0  0  0  0  0
  149.7087  132.1741  157.9156 O   0  0  0  0  0  0  0  0  0  0  0  0
  147.7292  133.4017  156.5384 C   0  0  0  0  0  0  0  0  0  0  0  0
  147.8144  134.4117  155.3849 C   0  0  0  0  0  0  0  0  0  0  0  0
  149.2743  134.5125  154.8692 C   0  0  1  0  0  0  0  0  0  0  0  0
  149.8304  135.9400  154.8359 C   0  0  0  0  0  0  0  0  0  0  0  0
  151.2655  135.7942  155.0192 N   0  0  0  0  0  0  0  0  0  0  0  0
  151.9266  136.9307  155.3248 C   0  0  0  0  0  0  0  0  0  0  0  0
  153.2082  137.0277  154.8950 N   0  0  0  0  0  0  0  0  0  0  0  0
  153.9237  138.1229  155.1688 C   0  0  0  0  0  0  0  0  0  0  0  0
  153.5561  139.2135  155.8452 N   0  0  0  0  0  0  0  0  0  0  0  0
  152.2661  139.1181  156.2774 C   0  0  0  0  0  0  0  0  0  0  0  0
  151.3850  138.0213  156.0636 C   0  0  0  0  0  0  0  0  0  0  0  0
  150.1538  138.2820  156.6538 N   0  0  0  0  0  0  0  0  0  0  0  0
  150.2989  139.4638  157.1876 C   0  0  0  0  0  0  0  0  0  0  0  0
  151.5374  140.0374  157.0112 N   0  0  0  0  0  0  0  0  0  0  0  0
  151.9707  141.3337  157.5020 C   0  0  0  0  0  0  0  0  0  0  0  0
  151.9080  141.4290  159.0388 C   0  0  1  0  0  0  0  0  0  0  0  0
  152.6656  140.3929  159.6351 O   0  0  0  0  0  0  0  0  0  0  0  0
  152.3546  142.8068  159.5701 C   0  0  1  0  0  0  0  0  0  0  0  0
  151.8491  144.0325  158.8019 C   0  0  0  0  0  0  0  0  0  0  0  0
  151.9077  145.1002  159.8717 C   0  0  0  0  0  0  0  0  0  0  0  0
  151.4689  144.3207  161.1081 C   0  0  0  0  0  0  0  0  0  0  0  0
  151.9786  143.0022  160.9321 O   0  0  0  0  0  0  0  0  0  0  0  0
  151.4806  134.6857  155.9391 C   0  0  0  0  0  0  0  0  0  0  0  0
  150.2554  133.7730  155.7911 C   0  0  1  0  0  0  0  0  0  0  0  0
  149.3488  134.0785  153.8709 H   0  0  0  0  0  0  0  0  0  0  0  0
  150.5193  132.8025  155.3695 H   0  0  0  0  0  0  0  0  0  0  0  0
  147.5995  132.3889  156.1565 H   0  0  0  0  0  0  0  0  0  0  0  0
  146.9311  133.6178  157.2488 H   0  0  0  0  0  0  0  0  0  0  0  0
  147.1288  134.1442  154.5806 H   0  0  0  0  0  0  0  0  0  0  0  0
  147.4847  135.3830  155.7548 H   0  0  0  0  0  0  0  0  0  0  0  0
  149.6035  136.4362  153.8919 H   0  0  0  0  0  0  0  0  0  0  0  0
  149.4061  136.5404  155.6408 H   0  0  0  0  0  0  0  0  0  0  0  0
  154.9365  138.1257  154.7936 H   0  0  0  0  0  0  0  0  0  0  0  0
  149.5027  139.9510  157.7315 H   0  0  0  0  0  0  0  0  0  0  0  0
  152.9843  141.5212  157.1456 H   0  0  0  0  0  0  0  0  0  0  0  0
  151.3366  142.0979  157.0512 H   0  0  0  0  0  0  0  0  0  0  0  0
  150.8746  141.2717  159.3504 H   0  0  0  0  0  0  0  0  0  0  0  0
  153.0599  139.8769  158.9486 H   0  0  0  0  0  0  0  0  0  0  0  0
  153.4452  142.8382  159.5598 H   0  0  0  0  0  0  0  0  0  0  0  0
  152.4577  144.2672  157.9285 H   0  0  0  0  0  0  0  0  0  0  0  0
  150.8172  143.9064  158.4726 H   0  0  0  0  0  0  0  0  0  0  0  0
  152.9317  145.4559  159.9934 H   0  0  0  0  0  0  0  0  0  0  0  0
  151.2689  145.9576  159.6586 H   0  0  0  0  0  0  0  0  0  0  0  0
  151.8259  144.7679  162.0360 H   0  0  0  0  0  0  0  0  0  0  0  0
  150.3805  144.2670  161.1551 H   0  0  0  0  0  0  0  0  0  0  0  0
  152.3903  134.1537  155.6591 H   0  0  0  0  0  0  0  0  0  0  0  0
  151.6088  135.0262  156.9666 H   0  0  0  0  0  0  0  0  0  0  0  0
  1  2  2  0  0  0  0
  2 27  1  0  0  0  0
  2  3  2  0  0  0  0
  2  4  1  0  0  0  0
  4  5  1  0  0  0  0
  4 30  1  0  0  0  0
  4 31  1  0  0  0  0
  5  6  1  0  0  0  0
  5 32  1  0  0  0  0
  5 33  1  0  0  0  0
  6 28  1  0  0  0  0
  6 27  1  0  0  0  0
  6  7  1  0  0  0  0
  7  8  1  0  0  0  0
  7 34  1  0  0  0  0
  7 35  1  0  0  0  0
  8  9  1  0  0  0  0
  8 26  1  0  0  0  0
  9 14  1  0  0  0  0
  9 10  2  0  0  0  0
 10 11  1  0  0  0  0
 11 12  2  0  0  0  0
 11 36  1  0  0  0  0
 12 13  1  0  0  0  0
 13 17  1  0  0  0  0
 13 14  2  0  0  0  0
 14 15  1  0  0  0  0
 15 16  2  0  0  0  0
 16 17  1  0  0  0  0
 16 37  1  0  0  0  0
 17 18  1  0  0  0  0
 18 19  1  0  0  0  0
 18 38  1  0  0  0  0
 18 39  1  0  0  0  0
 19 20  1  0  0  0  0
 19 21  1  0  0  0  0
 19 40  1  0  0  0  0
 20 41  1  0  0  0  0
 21 25  1  0  0  0  0
 21 22  1  0  0  0  0
 21 42  1  0  0  0  0
 22 23  1  0  0  0  0
 22 43  1  0  0  0  0
 22 44  1  0  0  0  0
 23 24  1  0  0  0  0
 23 45  1  0  0  0  0
 23 46  1  0  0  0  0
 24 25  1  0  0  0  0
 24 47  1  0  0  0  0
 24 48  1  0  0  0  0
 26 27  1  0  0  0  0
 26 49  1  0  0  0  0
 26 50  1  0  0  0  0
 27 29  1  0  0  0  0
M  END
> <s_m_source_file>
AV-unprocessed.smi

> <i_m_source_file_index>
278

> <i_lp_mmshare_version>
43012

> <i_f3d_flags>
0

> <s_epik_input>
W0NIMl0xW0NIMl1TKD1PKSg9TylbQ0BASF0oW0NAQEhdMTIpW0NIMl1OKFtDSDJdMiljKG5bY0hdbjMpYyhjMzQpbltjSF1uNFtDSDJdW0NASF0oW09IXSlbQ0BASF01W0NIMl1bQ0gyXVtDSDJdTzU=

> <s_epik_cmdline>
J2VwaWtfcHl0aG9uJywgJy1waCcsICc3LjAnLCAnLXRuJywgJzgnLCAnLW1hJywgJzIwMCcsICctbWV0YWxfYmluZGluZycsICctaW1hZScsICc8aW5maWxlLm1hZT4nLCAnLW9tYWUnLCAnPG91dGZpbGUubWFlPic=

> <r_lp_tautomer_probability>
1

> <r_epik_Ionization_Penalty>
0.000636766

> <r_epik_Ionization_Penalty_Charging>
0

> <r_epik_Ionization_Penalty_Neutral>
0.000636766

> <r_epik_State_Penalty>
0.000329976

> <r_epik_Charging_Adjusted_Penalty>
0.000329976

> <i_epik_Tot_Q>
0

> <i_epik_Tot_abs_Q>
0

> <r_epik_Metal_State_Penalty>
-0

> <b_epik_Metal_Only>
0

> <s_lp_Force_Field>
OPLS_2005

> <r_lp_Energy>
54.1016

> <b_lp_Chiralities_Consistent>
1

> <s_lp_Variant>
AV-unprocessed.smi:278-4

> <Gold.Version>
5.8.1

> <Gold.Id.Protein>
6NUR|6NUR_protein|mol2

> <Gold.PLP.Fitness>
47.2179

> <Gold.PLP.PLP>
-40.1949

> <Gold.PLP.part.hbond>
-3.6849

> <Gold.PLP.part.metal>
0.0000

> <Gold.PLP.part.buried>
-7.8592

> <Gold.PLP.part.nonpolar>
-29.0817

> <Gold.PLP.part.repulsive>
0.3865

> <Gold.PLP.ligand.clash>
0.0000

> <Gold.PLP.ligand.torsion>
0.9241

> <Gold.PLP.Chemscore.Hbond>
2.9313

> <Gold.PLP.Chemscore.CHOScore>
0.0000

> <Gold.PLP.Chemscore.Metal>
0.0000

> <Gold.Chemscore.Hbonds>
donor molecule, donor type, donor heavy atom, donor atom, acceptor molecule, acceptor atom, score
      P1  H  6896  6909       L1     1  0.65
      P1  H  7997  8009       L1    12  0.36
      P1  H 10752 10765       L1    10  0.02

> <Gold.PLP.Chemscore.Internal.Correction>
0.0771

> <Gold.Rescore>
     Score         DG    S(hbond)    S(metal)    S(lipo)     H(rot)  DE(clash)    DE(int)     intcor
     15.41     -17.76       2.62        0.00      84.17       2.46       0.17       2.18       ----

> <Gold.Chemscore.Fitness>
15.4146

> <Gold.Chemscore.DG>
-17.7562

> <Gold.Chemscore.ZeroCoef>
-5.4800

> <Gold.Chemscore.Hbond>
2.6153

> <Gold.Chemscore.Metal>
0.0000

> <Gold.Chemscore.Lipo>
84.1689

> <Gold.Chemscore.Internal_Hbond>
0.0000

> <Gold.Chemscore.DEClash>
0.1657

> <Gold.Chemscore.DEInternal>
2.1759

> <Gold.Chemscore.Rot>
2.4636

> <Gold.Chemscore.Internal.Correction>
   9.000000E+99

> <Gold.Chemscore.Hbonds>
donor molecule, donor type, donor heavy atom, donor atom, acceptor molecule, acceptor atom, score
      P1  H  6896  6909       L1     1  0.05
      P1  H  7997  8009       L1    12  0.34

> <Gold.Chemscore.Hbond.Weighted>
-8.7352

> <Gold.Chemscore.Metal.Weighted>
-0.0000

> <Gold.Chemscore.Lipo.Weighted>
-9.8478

> <Gold.Chemscore.Internal_Hbond.Weighted>
0.0000

> <Gold.Chemscore.DEClash.Weighted>
0.1657

> <Gold.Chemscore.DEInternal.Weighted>
2.1759

> <Gold.Chemscore.Rot.Weighted>
6.3068

> <Gold.Chemscore.Internal.Correction.Weighted>
   9.000000E+99

> <Gold.Protein.RotatedTorsions>
[ 6907 6896 6895 6894 ] final   11.93 input  -60.11 | X-H torsion
[ 7974 7965 7964 7962 ] final  -94.00 input  175.53 | X-H torsion
[ 8008 7997 7996 7995 ] final -143.35 input   59.86 | X-H torsion
[ 10167 10162 10161 10158 ] final  132.28 input  -65.29 | X-H torsion
[ 10718 10713 10712 10709 ] final   25.46 input   66.30 | X-H torsion
[ 10763 10752 10751 10750 ] final  151.79 input  -60.55 | X-H torsion
[ 11005 11000 10999 10996 ] final  158.94 input  -57.11 | X-H torsion

> <Gold.Protein.ActiveResidues>
 VAL166  LYS551  ARG553  GLY616  TRP617  ASP618  TYR619  PRO620  LYS621  CYS622 
 ASP623  PHE694  ASN695  SER759  ASP760  ASP761  ALA762  ILE779  LEU786  VAL792 
 PHE793  MET794  SER795  GLU796  ALA797  LYS798  CYS799  TRP800  GLU811  SER814 

> <Gold.Protein.RotatedAtoms>
  151.7623  135.0807  160.0347 H   0  0  0  0  0  0  0  0  0  0  0  0  # atno 6907 bound_to 6896
  152.3345  133.5991  159.5841 H   0  0  0  0  0  0  0  0  0  0  0  0  # atno 6908 bound_to 6896
  150.7442  133.9733  159.3594 H   0  0  0  0  0  0  0  0  0  0  0  0  # atno 6909 bound_to 6896
  145.3790  140.9515  143.2404 H   0  0  0  0  0  0  0  0  0  0  0  0  # atno 7974 bound_to 7965
  155.5092  140.0582  157.2926 H   0  0  0  0  0  0  0  0  0  0  0  0  # atno 8008 bound_to 7997
  154.4558  140.1972  156.0333 H   0  0  0  0  0  0  0  0  0  0  0  0  # atno 8009 bound_to 7997
  156.0796  140.3249  155.7681 H   0  0  0  0  0  0  0  0  0  0  0  0  # atno 8010 bound_to 7997
  139.5346  144.6669  151.4829 H   0  0  0  0  0  0  0  0  0  0  0  0  # atno 10167 bound_to 10162
  157.1937  130.6858  149.6160 H   0  0  0  0  0  0  0  0  0  0  0  0  # atno 10718 bound_to 10713
  154.1094  135.2840  155.3234 H   0  0  0  0  0  0  0  0  0  0  0  0  # atno 10763 bound_to 10752
  154.6500  135.5372  153.7893 H   0  0  0  0  0  0  0  0  0  0  0  0  # atno 10764 bound_to 10752
  153.0350  135.6507  154.1254 H   0  0  0  0  0  0  0  0  0  0  0  0  # atno 10765 bound_to 10752
  140.1914  134.8405  157.2916 H   0  0  0  0  0  0  0  0  0  0  0  0  # atno 11005 bound_to 11000
  144.8521  139.5306  143.6851 LP  0  0  0  0  0  0  0  0  0  0  0  0  # atno 17320 bound_to 7965
  146.2850  139.6981  142.9201 LP  0  0  0  0  0  0  0  0  0  0  0  0  # atno 17321 bound_to 7965
  140.6546  143.8626  150.6821 LP  0  0  0  0  0  0  0  0  0  0  0  0  # atno 17342 bound_to 10162
  140.2002  143.3966  152.1797 LP  0  0  0  0  0  0  0  0  0  0  0  0  # atno 17343 bound_to 10162
  155.9708  130.4606  150.6078 LP  0  0  0  0  0  0  0  0  0  0  0  0  # atno 17370 bound_to 10713
  157.3835  131.0784  151.1456 LP  0  0  0  0  0  0  0  0  0  0  0  0  # atno 17371 bound_to 10713
  140.2156  134.4086  155.7591 LP  0  0  0  0  0  0  0  0  0  0  0  0  # atno 17394 bound_to 11000
  141.2226  133.7140  156.8408 LP  0  0  0  0  0  0  0  0  0  0  0  0  # atno 17395 bound_to 11000

$$$$
