AV-unprocessed.smi:21|AV-procd|sdf|131|dock2
  -GOLD-   2262015313D 1   1.00000     0.00000
 Structure written by MMmdl.
 62 65  0  0  0  0  0  0  0  0  2 V2000
  144.7429  133.7891  151.6319 C   0  0  0  0  0  0  0  0  0  0  0  0
  145.6613  134.7963  151.2375 O   0  0  0  0  0  0  0  0  0  0  0  0
  145.0474  136.0370  150.9125 C   0  0  1  0  0  0  0  0  0  0  0  0
  144.5831  136.7080  152.1989 C   0  0  0  0  0  0  0  0  0  0  0  0
  145.8551  137.3581  152.7565 C   0  0  2  0  0  0  0  0  0  0  0  0
  145.5850  138.5374  153.7260 C   0  0  0  0  0  0  0  0  0  0  0  0
  145.4858  138.1197  155.1243 N   0  0  0  0  0  0  0  0  0  0  0  0
  144.7240  136.9075  155.4242 C   0  0  0  0  0  0  0  0  0  0  0  0
  146.3222  138.6288  156.0787 C   0  0  0  0  0  0  0  0  0  0  0  0
  146.4257  137.9604  157.2600 N   0  0  0  0  0  0  0  0  0  0  0  0
  147.2342  138.3920  158.2303 C   0  0  0  0  0  0  0  0  0  0  0  0
  148.0265  139.4623  158.2368 N   0  0  0  0  0  0  0  0  0  0  0  0
  147.9310  140.1517  157.0657 C   0  0  0  0  0  0  0  0  0  0  0  0
  147.1132  139.8147  155.9457 C   0  0  0  0  0  0  0  0  0  0  0  0
  147.2957  140.7686  154.9475 N   0  0  0  0  0  0  0  0  0  0  0  0
  148.1646  141.6056  155.4418 C   0  0  0  0  0  0  0  0  0  0  0  0
  148.5895  141.3181  156.7168 N   0  0  0  0  0  0  0  0  0  0  0  0
  149.5607  142.0657  157.4976 C   0  0  0  0  0  0  0  0  0  0  0  0
  150.9955  142.0729  156.9080 C   0  0  2  0  0  0  0  0  0  0  0  0
  151.4023  140.6070  156.6179 C   0  0  0  0  0  0  0  0  0  0  0  0
  150.9811  140.1857  155.3371 O   0  0  0  0  0  0  0  0  0  0  0  0
  152.0243  142.7967  157.8302 C   0  0  1  0  0  0  0  0  0  0  0  0
  151.6931  144.2409  158.1731 C   0  0  0  0  0  0  0  0  0  0  0  0
  152.5860  144.5013  159.3769 C   0  0  0  0  0  0  0  0  0  0  0  0
  152.5583  143.2848  160.1070 O   0  0  0  0  0  0  0  0  0  0  0  0
  152.1906  142.2132  159.2430 C   0  0  0  0  0  0  0  0  0  0  0  0
  146.7016  137.6710  151.5687 N   0  3  2  0  0  0  0  0  0  0  0  0
  147.0772  139.0870  151.3434 C   0  0  0  0  0  0  0  0  0  0  0  0
  146.0796  137.0375  150.3822 C   0  0  0  0  0  0  0  0  0  0  0  0
  144.2128  135.8890  150.2249 H   0  0  0  0  0  0  0  0  0  0  0  0
  146.4059  136.5835  153.2907 H   0  0  0  0  0  0  0  0  0  0  0  0
  145.2840  132.8674  151.8452 H   0  0  0  0  0  0  0  0  0  0  0  0
  144.0138  133.5747  150.8508 H   0  0  0  0  0  0  0  0  0  0  0  0
  144.2085  134.0792  152.5372 H   0  0  0  0  0  0  0  0  0  0  0  0
  143.8457  137.4758  151.9600 H   0  0  0  0  0  0  0  0  0  0  0  0
  144.1214  136.0103  152.8984 H   0  0  0  0  0  0  0  0  0  0  0  0
  146.3443  139.3120  153.6411 H   0  0  0  0  0  0  0  0  0  0  0  0
  144.6528  139.0284  153.4456 H   0  0  0  0  0  0  0  0  0  0  0  0
  144.0921  137.0564  156.3006 H   0  0  0  0  0  0  0  0  0  0  0  0
  145.3927  136.0680  155.6174 H   0  0  0  0  0  0  0  0  0  0  0  0
  144.0727  136.6292  154.5956 H   0  0  0  0  0  0  0  0  0  0  0  0
  147.2489  137.7931  159.1292 H   0  0  0  0  0  0  0  0  0  0  0  0
  148.5175  142.4641  154.8888 H   0  0  0  0  0  0  0  0  0  0  0  0
  149.2056  143.0884  157.6279 H   0  0  0  0  0  0  0  0  0  0  0  0
  149.5644  141.6189  158.4924 H   0  0  0  0  0  0  0  0  0  0  0  0
  150.9569  142.5948  155.9505 H   0  0  0  0  0  0  0  0  0  0  0  0
  152.4804  140.4742  156.7155 H   0  0  0  0  0  0  0  0  0  0  0  0
  150.9377  139.9253  157.3308 H   0  0  0  0  0  0  0  0  0  0  0  0
  150.0370  140.2151  155.3061 H   0  0  0  0  0  0  0  0  0  0  0  0
  153.0003  142.7894  157.3420 H   0  0  0  0  0  0  0  0  0  0  0  0
  151.8911  144.9350  157.3559 H   0  0  0  0  0  0  0  0  0  0  0  0
  150.6453  144.3360  158.4617 H   0  0  0  0  0  0  0  0  0  0  0  0
  153.6098  144.7005  159.0578 H   0  0  0  0  0  0  0  0  0  0  0  0
  152.2458  145.3418  159.9822 H   0  0  0  0  0  0  0  0  0  0  0  0
  151.2537  141.7934  159.6100 H   0  0  0  0  0  0  0  0  0  0  0  0
  152.9500  141.4333  159.2784 H   0  0  0  0  0  0  0  0  0  0  0  0
  146.1971  139.7171  151.2109 H   0  0  0  0  0  0  0  0  0  0  0  0
  147.6886  139.1725  150.4448 H   0  0  0  0  0  0  0  0  0  0  0  0
  147.6687  139.4752  152.1725 H   0  0  0  0  0  0  0  0  0  0  0  0
  146.8303  136.5885  149.7325 H   0  0  0  0  0  0  0  0  0  0  0  0
  145.5579  137.7973  149.7974 H   0  0  0  0  0  0  0  0  0  0  0  0
  147.5685  137.1769  151.7274 H   0  0  0  0  0  0  0  0  0  0  0  0
  1  2  1  0  0  0  0
  1 32  1  0  0  0  0
  1 33  1  0  0  0  0
  1 34  1  0  0  0  0
  2  3  1  0  0  0  0
  3 30  1  0  0  0  0
  3 29  1  0  0  0  0
  3  4  1  0  0  0  0
  4  5  1  0  0  0  0
  4 35  1  0  0  0  0
  4 36  1  0  0  0  0
  5 31  1  0  0  0  0
  5  6  1  0  0  0  0
  5 27  1  0  0  0  0
  6  7  1  0  0  0  0
  6 37  1  0  0  0  0
  6 38  1  0  0  0  0
  7  8  1  0  0  0  0
  7  9  1  0  0  0  0
  8 39  1  0  0  0  0
  8 40  1  0  0  0  0
  8 41  1  0  0  0  0
  9 14  1  0  0  0  0
  9 10  2  0  0  0  0
 10 11  1  0  0  0  0
 11 12  2  0  0  0  0
 11 42  1  0  0  0  0
 12 13  1  0  0  0  0
 13 17  1  0  0  0  0
 13 14  2  0  0  0  0
 14 15  1  0  0  0  0
 15 16  2  0  0  0  0
 16 17  1  0  0  0  0
 16 43  1  0  0  0  0
 17 18  1  0  0  0  0
 18 19  1  0  0  0  0
 18 44  1  0  0  0  0
 18 45  1  0  0  0  0
 19 20  1  0  0  0  0
 19 22  1  0  0  0  0
 19 46  1  0  0  0  0
 20 21  1  0  0  0  0
 20 47  1  0  0  0  0
 20 48  1  0  0  0  0
 21 49  1  0  0  0  0
 22 26  1  0  0  0  0
 22 23  1  0  0  0  0
 22 50  1  0  0  0  0
 23 24  1  0  0  0  0
 23 51  1  0  0  0  0
 23 52  1  0  0  0  0
 24 25  1  0  0  0  0
 24 53  1  0  0  0  0
 24 54  1  0  0  0  0
 25 26  1  0  0  0  0
 26 55  1  0  0  0  0
 26 56  1  0  0  0  0
 27 28  1  0  0  0  0
 27 29  1  0  0  0  0
 27 62  1  0  0  0  0
 28 57  1  0  0  0  0
 28 58  1  0  0  0  0
 28 59  1  0  0  0  0
 29 60  1  0  0  0  0
 29 61  1  0  0  0  0
M  CHG  1  27   1
M  END
> <s_m_source_file>
AV-unprocessed.smi

> <i_m_source_file_index>
21

> <i_lp_mmshare_version>
43012

> <i_f3d_flags>
0

> <s_epik_input>
W0NIM11PW0NASF0xW0NIMl1bQ0BIXShOKFtDSDNdKVtDSDJdMSlbQ0gyXU4oW0NIM10pYyhuW2NIXW4yKWMoYzIzKW5bY0hdbjNbQ0gyXVtDQEhdKFtDSDJdW09IXSlbQ0BASF00W0NIMl1bQ0gyXU9bQ0gyXTQ=

> <s_epik_cmdline>
J2VwaWtfcHl0aG9uJywgJy1waCcsICc3LjAnLCAnLXRuJywgJzgnLCAnLW1hJywgJzIwMCcsICctbWV0YWxfYmluZGluZycsICctaW1hZScsICc8aW5maWxlLm1hZT4nLCAnLW9tYWUnLCAnPG91dGZpbGUubWFlPic=

> <r_lp_tautomer_probability>
1

> <r_epik_Ionization_Penalty>
0.0157465

> <r_epik_Ionization_Penalty_Charging>
0.015354

> <r_epik_Ionization_Penalty_Neutral>
0.000392529

> <r_epik_State_Penalty>
0.0120612

> <r_epik_Charging_Adjusted_Penalty>
0.0274152

> <i_epik_Tot_Q>
1

> <i_epik_Tot_abs_Q>
1

> <r_epik_Metal_State_Penalty>
0.0121253

> <b_epik_Metal_Only>
0

> <s_lp_Force_Field>
OPLS_2005

> <r_lp_Energy>
62.3844

> <b_lp_Chiralities_Consistent>
1

> <s_lp_Variant>
AV-unprocessed.smi:21-11

> <Gold.Version>
5.8.1

> <Gold.Id.Protein>
6NUR|6NUR_protein|mol2

> <Gold.PLP.Fitness>
51.9086

> <Gold.PLP.PLP>
-40.9574

> <Gold.PLP.part.hbond>
-2.9093

> <Gold.PLP.part.metal>
0.0000

> <Gold.PLP.part.buried>
-2.5993

> <Gold.PLP.part.nonpolar>
-35.9734

> <Gold.PLP.part.repulsive>
0.3250

> <Gold.PLP.ligand.clash>
0.0000

> <Gold.PLP.ligand.torsion>
1.0701

> <Gold.PLP.Chemscore.Hbond>
3.0000

> <Gold.PLP.Chemscore.CHOScore>
1.0000

> <Gold.PLP.Chemscore.Metal>
0.0000

> <Gold.Chemscore.Hbonds>
donor molecule, donor type, donor heavy atom, donor atom, acceptor molecule, acceptor atom, score
      L1  H    27    62       P1  7948  2.00
      P1  H  7989  7998       L1    21  0.91
      L1  C    16    43       P1  8028  0.99

> <Gold.PLP.Chemscore.Internal.Correction>
1.0914

> <Gold.Rescore>
     Score         DG    S(hbond)    S(metal)    S(lipo)     H(rot)  DE(clash)    DE(int)     intcor
     12.62     -15.97       1.94        0.00     101.73       3.08       0.84       2.51       ----

> <Gold.Chemscore.Fitness>
12.6245

> <Gold.Chemscore.DG>
-15.9747

> <Gold.Chemscore.ZeroCoef>
-5.4800

> <Gold.Chemscore.Hbond>
1.9361

> <Gold.Chemscore.Metal>
0.0000

> <Gold.Chemscore.Lipo>
101.7285

> <Gold.Chemscore.Internal_Hbond>
0.0000

> <Gold.Chemscore.DEClash>
0.8424

> <Gold.Chemscore.DEInternal>
2.5077

> <Gold.Chemscore.Rot>
3.0758

> <Gold.Chemscore.Internal.Correction>
   9.000000E+99

> <Gold.Chemscore.Hbonds>
donor molecule, donor type, donor heavy atom, donor atom, acceptor molecule, acceptor atom, score
      L1  H    27    62       P1  7948  1.00
      P1  H  7989  7998       L1    21  0.48

> <Gold.Chemscore.Hbond.Weighted>
-6.4666

> <Gold.Chemscore.Metal.Weighted>
-0.0000

> <Gold.Chemscore.Lipo.Weighted>
-11.9022

> <Gold.Chemscore.Internal_Hbond.Weighted>
0.0000

> <Gold.Chemscore.DEClash.Weighted>
0.8424

> <Gold.Chemscore.DEInternal.Weighted>
2.5077

> <Gold.Chemscore.Rot.Weighted>
7.8741

> <Gold.Chemscore.Internal.Correction.Weighted>
   9.000000E+99

> <Gold.Protein.RotatedTorsions>
[ 6907 6896 6895 6894 ] final   27.42 input  -60.11 | X-H torsion
[ 7974 7965 7964 7962 ] final  -14.12 input  175.53 | X-H torsion
[ 8008 7997 7996 7995 ] final  114.26 input   59.86 | X-H torsion
[ 10167 10162 10161 10158 ] final -148.76 input  -65.29 | X-H torsion
[ 10718 10713 10712 10709 ] final  104.06 input   66.30 | X-H torsion
[ 10763 10752 10751 10750 ] final   52.05 input  -60.55 | X-H torsion
[ 11005 11000 10999 10996 ] final   81.93 input  -57.11 | X-H torsion

> <Gold.Protein.ActiveResidues>
 VAL166  LYS551  ARG553  GLY616  TRP617  ASP618  TYR619  PRO620  LYS621  CYS622 
 ASP623  PHE694  ASN695  SER759  ASP760  ASP761  ALA762  ILE779  LEU786  VAL792 
 PHE793  MET794  SER795  GLU796  ALA797  LYS798  CYS799  TRP800  GLU811  SER814 

> <Gold.Protein.RotatedAtoms>
  152.0020  134.9923  160.0565 H   0  0  0  0  0  0  0  0  0  0  0  0  # atno 6907 bound_to 6896
  152.1510  133.4517  159.4822 H   0  0  0  0  0  0  0  0  0  0  0  0  # atno 6908 bound_to 6896
  150.6875  134.2106  159.4401 H   0  0  0  0  0  0  0  0  0  0  0  0  # atno 6909 bound_to 6896
  146.2087  140.3302  142.8398 H   0  0  0  0  0  0  0  0  0  0  0  0  # atno 7974 bound_to 7965
  156.2310  140.2963  156.0188 H   0  0  0  0  0  0  0  0  0  0  0  0  # atno 8008 bound_to 7997
  155.2225  140.0416  157.2967 H   0  0  0  0  0  0  0  0  0  0  0  0  # atno 8009 bound_to 7997
  154.5996  140.2423  155.7818 H   0  0  0  0  0  0  0  0  0  0  0  0  # atno 8010 bound_to 7997
  139.7503  143.8529  152.2584 H   0  0  0  0  0  0  0  0  0  0  0  0  # atno 10167 bound_to 10162
  157.6752  131.0794  150.5649 H   0  0  0  0  0  0  0  0  0  0  0  0  # atno 10718 bound_to 10713
  152.9787  135.5825  154.4515 H   0  0  0  0  0  0  0  0  0  0  0  0  # atno 10763 bound_to 10752
  154.4104  135.2770  155.2043 H   0  0  0  0  0  0  0  0  0  0  0  0  # atno 10764 bound_to 10752
  154.3835  135.6141  153.5858 H   0  0  0  0  0  0  0  0  0  0  0  0  # atno 10765 bound_to 10752
  139.9081  134.8034  156.2107 H   0  0  0  0  0  0  0  0  0  0  0  0  # atno 11005 bound_to 11000
  144.8858  140.7460  143.5958 LP  0  0  0  0  0  0  0  0  0  0  0  0  # atno 17320 bound_to 7965
  145.3223  139.1784  143.4581 LP  0  0  0  0  0  0  0  0  0  0  0  0  # atno 17321 bound_to 7965
  139.8505  144.7167  150.9220 LP  0  0  0  0  0  0  0  0  0  0  0  0  # atno 17342 bound_to 10162
  140.7797  143.3903  151.1321 LP  0  0  0  0  0  0  0  0  0  0  0  0  # atno 17343 bound_to 10162
  156.5952  130.4339  149.5920 LP  0  0  0  0  0  0  0  0  0  0  0  0  # atno 17370 bound_to 10713
  156.2551  130.6930  151.1680 LP  0  0  0  0  0  0  0  0  0  0  0  0  # atno 17371 bound_to 10713
  141.0467  133.6910  156.1696 LP  0  0  0  0  0  0  0  0  0  0  0  0  # atno 17394 bound_to 11000
  140.6873  134.4703  157.5589 LP  0  0  0  0  0  0  0  0  0  0  0  0  # atno 17395 bound_to 11000

$$$$
