AV-unprocessed.smi:2024|AV-procd|sdf|8194|dock4
  -GOLD-   2272010453D 1   1.00000     0.00000
 Structure written by MMmdl.
 43 44  0  0  0  0  0  0  0  0  3 V2000
  154.6042  142.4051  159.7540 C   0  0  0  0  0  0  0  0  0  0  0  0
  153.3780  141.8893  160.4048 N   0  3  0  0  0  0  0  0  0  0  0  0
  153.2345  140.4167  160.3296 C   0  0  0  0  0  0  0  0  0  0  0  0
  152.7558  139.9566  158.9361 C   0  0  0  0  0  0  0  0  0  0  0  0
  151.4682  140.5926  158.6199 N   0  0  0  0  0  0  0  0  0  0  0  0
  150.7260  140.0393  157.4574 C   0  0  0  0  0  0  0  0  0  0  0  0
  149.4171  140.8217  157.1994 C   0  0  0  0  0  0  0  0  0  0  0  0
  151.5976  140.1054  156.1768 C   0  0  0  0  0  0  0  0  0  0  0  0
  150.3928  138.5390  157.7192 C   0  0  0  0  0  0  0  0  0  0  0  0
  149.6630  138.3362  158.9724 N   0  0  0  0  0  0  0  0  0  0  0  0
  149.3267  137.1589  159.5196 C   0  0  0  0  0  0  0  0  0  0  0  0
  149.7206  136.1052  159.0145 O   0  0  0  0  0  0  0  0  0  0  0  0
  148.5338  137.2727  160.6084 N   0  5  0  0  0  0  0  0  0  0  0  0
  147.9285  136.1845  161.1112 C   0  0  0  0  0  0  0  0  0  0  0  0
  147.5616  136.0791  162.3932 N   0  0  0  0  0  0  0  0  0  0  0  0
  146.9442  134.8638  162.6952 C   0  0  0  0  0  0  0  0  0  0  0  0
  146.8327  134.0273  161.6163 C   0  0  0  0  0  0  0  0  0  0  0  0
  147.5019  134.7459  160.1791 S   0  0  0  0  0  0  0  0  0  0  0  0
  151.7024  142.0440  158.5648 C   0  0  0  0  0  0  0  0  0  0  0  0
  152.1340  142.5538  159.9528 C   0  0  0  0  0  0  0  0  0  0  0  0
  154.6105  142.2076  158.6822 H   0  0  0  0  0  0  0  0  0  0  0  0
  155.4898  141.9408  160.1888 H   0  0  0  0  0  0  0  0  0  0  0  0
  154.6901  143.4819  159.9016 H   0  0  0  0  0  0  0  0  0  0  0  0
  154.1782  139.9356  160.5889 H   0  0  0  0  0  0  0  0  0  0  0  0
  152.5118  140.1007  161.0837 H   0  0  0  0  0  0  0  0  0  0  0  0
  153.4975  140.1811  158.1691 H   0  0  0  0  0  0  0  0  0  0  0  0
  152.6644  138.8735  158.9804 H   0  0  0  0  0  0  0  0  0  0  0  0
  148.9148  140.4494  156.3060 H   0  0  0  0  0  0  0  0  0  0  0  0
  149.6008  141.8847  157.0428 H   0  0  0  0  0  0  0  0  0  0  0  0
  148.7065  140.7223  158.0200 H   0  0  0  0  0  0  0  0  0  0  0  0
  151.1547  139.5200  155.3705 H   0  0  0  0  0  0  0  0  0  0  0  0
  152.6018  139.7139  156.3455 H   0  0  0  0  0  0  0  0  0  0  0  0
  151.6934  141.1210  155.7923 H   0  0  0  0  0  0  0  0  0  0  0  0
  149.8732  138.0787  156.8791 H   0  0  0  0  0  0  0  0  0  0  0  0
  151.3210  137.9728  157.8013 H   0  0  0  0  0  0  0  0  0  0  0  0
  149.3248  139.1673  159.4350 H   0  0  0  0  0  0  0  0  0  0  0  0
  146.6134  134.6794  163.7066 H   0  0  0  0  0  0  0  0  0  0  0  0
  146.3983  133.0398  161.5787 H   0  0  0  0  0  0  0  0  0  0  0  0
  152.4576  142.2844  157.8160 H   0  0  0  0  0  0  0  0  0  0  0  0
  150.8046  142.5840  158.2750 H   0  0  0  0  0  0  0  0  0  0  0  0
  151.3443  142.3534  160.6789 H   0  0  0  0  0  0  0  0  0  0  0  0
  152.2712  143.6354  159.9383 H   0  0  0  0  0  0  0  0  0  0  0  0
  153.4786  142.1151  161.3841 H   0  0  0  0  0  0  0  0  0  0  0  0
  1  2  1  0  0  0  0
  1 21  1  0  0  0  0
  1 22  1  0  0  0  0
  1 23  1  0  0  0  0
  2 20  1  0  0  0  0
  2  3  1  0  0  0  0
  2 43  1  0  0  0  0
  3  4  1  0  0  0  0
  3 24  1  0  0  0  0
  3 25  1  0  0  0  0
  4  5  1  0  0  0  0
  4 26  1  0  0  0  0
  4 27  1  0  0  0  0
  5  6  1  0  0  0  0
  5 19  1  0  0  0  0
  6  7  1  0  0  0  0
  6  8  1  0  0  0  0
  6  9  1  0  0  0  0
  7 28  1  0  0  0  0
  7 29  1  0  0  0  0
  7 30  1  0  0  0  0
  8 31  1  0  0  0  0
  8 32  1  0  0  0  0
  8 33  1  0  0  0  0
  9 10  1  0  0  0  0
  9 34  1  0  0  0  0
  9 35  1  0  0  0  0
 10 11  1  0  0  0  0
 10 36  1  0  0  0  0
 11 12  2  0  0  0  0
 11 13  1  0  0  0  0
 13 14  1  0  0  0  0
 14 18  1  0  0  0  0
 14 15  2  0  0  0  0
 15 16  1  0  0  0  0
 16 17  2  0  0  0  0
 16 37  1  0  0  0  0
 17 18  1  0  0  0  0
 17 38  1  0  0  0  0
 19 20  1  0  0  0  0
 19 39  1  0  0  0  0
 19 40  1  0  0  0  0
 20 41  1  0  0  0  0
 20 42  1  0  0  0  0
M  CHG  1   2   1
M  CHG  1  13  -1
M  END
> <s_m_source_file>
AV-unprocessed.smi

> <i_m_source_file_index>
2024

> <i_lp_mmshare_version>
43012

> <i_f3d_flags>
0

> <s_epik_input>
W0NIM11OMVtDSDJdW0NIMl1OKFtDSDJdW0NIMl0xKUMoW0NIM10pKFtDSDNdKVtDSDJdW05IXUMoPU8pW05IXWMybltjSF1bY0hdczI=

> <s_epik_cmdline>
J2VwaWtfcHl0aG9uJywgJy1waCcsICc3LjAnLCAnLXRuJywgJzgnLCAnLW1hJywgJzIwMCcsICctbWV0YWxfYmluZGluZycsICctaW1hZScsICc8aW5maWxlLm1hZT4nLCAnLW9tYWUnLCAnPG91dGZpbGUubWFlPic=

> <r_lp_tautomer_probability>
0.999

> <r_epik_Ionization_Penalty>
7.04933

> <r_epik_Ionization_Penalty_Charging>
5.90256

> <r_epik_Ionization_Penalty_Neutral>
1.14676

> <r_epik_State_Penalty>
6.00717

> <r_epik_Charging_Adjusted_Penalty>
11.9097

> <i_epik_Tot_Q>
0

> <i_epik_Tot_abs_Q>
2

> <r_epik_Metal_State_Penalty>
1.97542

> <b_epik_Metal_Only>
1

> <s_lp_Force_Field>
OPLS_2005

> <r_lp_Energy>
14.8551

> <b_lp_Chiralities_Consistent>
1

> <s_lp_Variant>
AV-unprocessed.smi:2024-4

> <Gold.Version>
5.8.1

> <Gold.Id.Protein>
6NUR|6NUR_protein|mol2

> <Gold.PLP.Fitness>
43.5743

> <Gold.PLP.PLP>
-33.8772

> <Gold.PLP.part.hbond>
-3.0000

> <Gold.PLP.part.metal>
0.0000

> <Gold.PLP.part.buried>
-5.5294

> <Gold.PLP.part.nonpolar>
-26.5361

> <Gold.PLP.part.repulsive>
0.2669

> <Gold.PLP.ligand.clash>
0.0000

> <Gold.PLP.ligand.torsion>
0.2677

> <Gold.PLP.Chemscore.Hbond>
3.3922

> <Gold.PLP.Chemscore.CHOScore>
0.0000

> <Gold.PLP.Chemscore.Metal>
0.0000

> <Gold.Chemscore.Hbonds>
donor molecule, donor type, donor heavy atom, donor atom, acceptor molecule, acceptor atom, score
      P1  H  6896  6909       L1    12  1.00
      P1  H  6931  6943       L1    13  1.47
      P1  H  6934  6947       L1    13  0.52

> <Gold.PLP.Chemscore.Internal.Correction>
0.0558

> <Gold.Rescore>
     Score         DG    S(hbond)    S(metal)    S(lipo)     H(rot)  DE(clash)    DE(int)     intcor
     15.74     -16.19       1.70        0.00      77.25       1.57       0.00       0.46       ----

> <Gold.Chemscore.Fitness>
15.7353

> <Gold.Chemscore.DG>
-16.1934

> <Gold.Chemscore.ZeroCoef>
-5.4800

> <Gold.Chemscore.Hbond>
1.7032

> <Gold.Chemscore.Metal>
0.0000

> <Gold.Chemscore.Lipo>
77.2514

> <Gold.Chemscore.Internal_Hbond>
0.0000

> <Gold.Chemscore.DEClash>
0.0004

> <Gold.Chemscore.DEInternal>
0.4578

> <Gold.Chemscore.Rot>
1.5678

> <Gold.Chemscore.Internal.Correction>
   9.000000E+99

> <Gold.Chemscore.Hbonds>
donor molecule, donor type, donor heavy atom, donor atom, acceptor molecule, acceptor atom, score
      P1  H  6896  6909       L1    12  1.00
      P1  H  6931  6943       L1    13  0.49
      P1  H  6934  6947       L1    13  0.18

> <Gold.Chemscore.Hbond.Weighted>
-5.6886

> <Gold.Chemscore.Metal.Weighted>
-0.0000

> <Gold.Chemscore.Lipo.Weighted>
-9.0384

> <Gold.Chemscore.Internal_Hbond.Weighted>
0.0000

> <Gold.Chemscore.DEClash.Weighted>
0.0004

> <Gold.Chemscore.DEInternal.Weighted>
0.4578

> <Gold.Chemscore.Rot.Weighted>
4.0136

> <Gold.Chemscore.Internal.Correction.Weighted>
   9.000000E+99

> <Gold.Protein.RotatedTorsions>
[ 6907 6896 6895 6894 ] final   68.71 input  -60.11 | X-H torsion
[ 7974 7965 7964 7962 ] final  150.20 input  175.53 | X-H torsion
[ 8008 7997 7996 7995 ] final -105.12 input   59.86 | X-H torsion
[ 10167 10162 10161 10158 ] final  -30.48 input  -65.29 | X-H torsion
[ 10718 10713 10712 10709 ] final  165.81 input   66.30 | X-H torsion
[ 10763 10752 10751 10750 ] final   43.76 input  -60.55 | X-H torsion
[ 11005 11000 10999 10996 ] final  137.45 input  -57.11 | X-H torsion

> <Gold.Protein.ActiveResidues>
 VAL166  LYS551  ARG553  GLY616  TRP617  ASP618  TYR619  PRO620  LYS621  CYS622 
 ASP623  PHE694  ASN695  SER759  ASP760  ASP761  ALA762  ILE779  LEU786  VAL792 
 PHE793  MET794  SER795  GLU796  ALA797  LYS798  CYS799  TRP800  GLU811  SER814 

> <Gold.Protein.RotatedAtoms>
  152.4639  134.5122  159.9756 H   0  0  0  0  0  0  0  0  0  0  0  0  # atno 6907 bound_to 6896
  151.5164  133.3469  159.2901 H   0  0  0  0  0  0  0  0  0  0  0  0  # atno 6908 bound_to 6896
  150.8614  134.7995  159.7147 H   0  0  0  0  0  0  0  0  0  0  0  0  # atno 6909 bound_to 6896
  144.8382  139.6378  143.6028 H   0  0  0  0  0  0  0  0  0  0  0  0  # atno 7974 bound_to 7965
  154.8952  140.0414  157.1861 H   0  0  0  0  0  0  0  0  0  0  0  0  # atno 8008 bound_to 7997
  154.8500  140.2927  155.5583 H   0  0  0  0  0  0  0  0  0  0  0  0  # atno 8009 bound_to 7997
  156.2995  140.2466  156.3457 H   0  0  0  0  0  0  0  0  0  0  0  0  # atno 8010 bound_to 7997
  140.7248  143.3845  151.1540 H   0  0  0  0  0  0  0  0  0  0  0  0  # atno 10167 bound_to 10162
  157.0748  131.0376  151.2598 H   0  0  0  0  0  0  0  0  0  0  0  0  # atno 10718 bound_to 10713
  152.9854  135.6091  154.3163 H   0  0  0  0  0  0  0  0  0  0  0  0  # atno 10763 bound_to 10752
  154.2876  135.2775  155.2671 H   0  0  0  0  0  0  0  0  0  0  0  0  # atno 10764 bound_to 10752
  154.4981  135.5874  153.6567 H   0  0  0  0  0  0  0  0  0  0  0  0  # atno 10765 bound_to 10752
  140.0115  134.9437  157.0287 H   0  0  0  0  0  0  0  0  0  0  0  0  # atno 11005 bound_to 11000
  146.2678  139.6561  142.9317 LP  0  0  0  0  0  0  0  0  0  0  0  0  # atno 17320 bound_to 7965
  145.4750  141.0437  143.2677 LP  0  0  0  0  0  0  0  0  0  0  0  0  # atno 17321 bound_to 7965
  139.7440  143.8881  152.3058 LP  0  0  0  0  0  0  0  0  0  0  0  0  # atno 17342 bound_to 10162
  139.8712  144.7067  150.8986 LP  0  0  0  0  0  0  0  0  0  0  0  0  # atno 17343 bound_to 10162
  157.4849  130.7787  149.7450 LP  0  0  0  0  0  0  0  0  0  0  0  0  # atno 17370 bound_to 10713
  155.9940  130.3920  150.2876 LP  0  0  0  0  0  0  0  0  0  0  0  0  # atno 17371 bound_to 10713
  140.4546  134.1546  155.7185 LP  0  0  0  0  0  0  0  0  0  0  0  0  # atno 17394 bound_to 11000
  141.1714  133.8601  157.1559 LP  0  0  0  0  0  0  0  0  0  0  0  0  # atno 17395 bound_to 11000

$$$$
