AV-unprocessed.smi:2488|AV-procd|sdf|9794|dock7
  -GOLD-   2272013433D 1   1.00000     0.00000
 Structure written by MMmdl.
 33 34  0  0  0  0  0  0  0  0  1 V2000
  152.3100  143.2291  160.3522 C   0  0  0  0  0  0  0  0  0  0  0  0
  152.7459  141.8390  159.8754 C   0  0  0  0  0  0  0  0  0  0  0  0
  151.7296  141.2048  158.9438 C   0  0  0  0  0  0  0  0  0  0  0  0
  150.5626  141.8661  158.7771 N   0  0  0  0  0  0  0  0  0  0  0  0
  149.6637  141.3047  157.9655 C   0  0  0  0  0  0  0  0  0  0  0  0
  149.7965  140.1541  157.3014 N   0  0  0  0  0  0  0  0  0  0  0  0
  150.9613  139.4775  157.4535 C   0  0  0  0  0  0  0  0  0  0  0  0
  151.1391  138.2499  156.7824 N   0  0  0  0  0  0  0  0  0  0  0  0
  151.1915  137.1523  157.7460 C   0  0  0  0  0  0  0  0  0  0  0  0
  151.5412  135.8305  157.0498 C   0  0  0  0  0  0  0  0  0  0  0  0
  150.5931  135.5858  156.0210 O   0  0  0  0  0  0  0  0  0  0  0  0
  150.6402  136.5935  155.0186 C   0  0  0  0  0  0  0  0  0  0  0  0
  150.2847  137.9782  155.6120 C   0  0  2  0  0  0  0  0  0  0  0  0
  150.3485  139.0094  154.4652 C   0  0  0  0  0  0  0  0  0  0  0  0
  149.7925  138.6953  153.2901 N   0  0  0  0  0  0  0  0  0  0  0  0
  150.9111  140.0875  154.6428 O   0  0  0  0  0  0  0  0  0  0  0  0
  151.9829  139.9776  158.2935 C   0  0  0  0  0  0  0  0  0  0  0  0
  153.1520  139.3128  158.4628 F   0  0  0  0  0  0  0  0  0  0  0  0
  153.0538  143.6611  161.0218 H   0  0  0  0  0  0  0  0  0  0  0  0
  151.3638  143.1797  160.8921 H   0  0  0  0  0  0  0  0  0  0  0  0
  152.1818  143.9120  159.5119 H   0  0  0  0  0  0  0  0  0  0  0  0
  153.7048  141.9098  159.3605 H   0  0  0  0  0  0  0  0  0  0  0  0
  152.9102  141.1885  160.7349 H   0  0  0  0  0  0  0  0  0  0  0  0
  148.7319  141.8344  157.8342 H   0  0  0  0  0  0  0  0  0  0  0  0
  151.9311  137.3543  158.5222 H   0  0  0  0  0  0  0  0  0  0  0  0
  150.2245  137.0619  158.2446 H   0  0  0  0  0  0  0  0  0  0  0  0
  152.5520  135.8573  156.6390 H   0  0  0  0  0  0  0  0  0  0  0  0
  151.5088  135.0086  157.7650 H   0  0  0  0  0  0  0  0  0  0  0  0
  151.6311  136.6037  154.5598 H   0  0  0  0  0  0  0  0  0  0  0  0
  149.9343  136.3215  154.2326 H   0  0  0  0  0  0  0  0  0  0  0  0
  149.2490  137.9320  155.9542 H   0  0  0  0  0  0  0  0  0  0  0  0
  149.8267  139.3542  152.5257 H   0  0  0  0  0  0  0  0  0  0  0  0
  149.3443  137.7986  153.1716 H   0  0  0  0  0  0  0  0  0  0  0  0
  1  2  1  0  0  0  0
  1 19  1  0  0  0  0
  1 20  1  0  0  0  0
  1 21  1  0  0  0  0
  2  3  1  0  0  0  0
  2 22  1  0  0  0  0
  2 23  1  0  0  0  0
  3 17  1  0  0  0  0
  3  4  2  0  0  0  0
  4  5  1  0  0  0  0
  5  6  2  0  0  0  0
  5 24  1  0  0  0  0
  6  7  1  0  0  0  0
  7  8  1  0  0  0  0
  7 17  2  0  0  0  0
  8 13  1  0  0  0  0
  8  9  1  0  0  0  0
  9 10  1  0  0  0  0
  9 25  1  0  0  0  0
  9 26  1  0  0  0  0
 10 11  1  0  0  0  0
 10 27  1  0  0  0  0
 10 28  1  0  0  0  0
 11 12  1  0  0  0  0
 12 13  1  0  0  0  0
 12 29  1  0  0  0  0
 12 30  1  0  0  0  0
 13 14  1  0  0  0  0
 13 31  1  0  0  0  0
 14 15  1  0  0  0  0
 14 16  2  0  0  0  0
 15 32  1  0  0  0  0
 15 33  1  0  0  0  0
 17 18  1  0  0  0  0
M  END
> <s_m_source_file>
AV-unprocessed.smi

> <i_m_source_file_index>
2488

> <i_lp_mmshare_version>
43012

> <i_f3d_flags>
0

> <s_epik_input>
W0NIM11bQ0gyXWMxbltjSF1uYyhjMUYpTjJbQ0gyXVtDSDJdT1tDSDJdW0NASF0yQyg9TylbTkgyXQ==

> <s_epik_cmdline>
J2VwaWtfcHl0aG9uJywgJy1waCcsICc3LjAnLCAnLXRuJywgJzgnLCAnLW1hJywgJzIwMCcsICctbWV0YWxfYmluZGluZycsICctaW1hZScsICc8aW5maWxlLm1hZT4nLCAnLW9tYWUnLCAnPG91dGZpbGUubWFlPic=

> <r_lp_tautomer_probability>
1

> <r_epik_Ionization_Penalty>
2.73136e-05

> <r_epik_Ionization_Penalty_Charging>
0

> <r_epik_Ionization_Penalty_Neutral>
2.73136e-05

> <r_epik_State_Penalty>
-0

> <r_epik_Charging_Adjusted_Penalty>
0

> <i_epik_Tot_Q>
0

> <i_epik_Tot_abs_Q>
0

> <r_epik_Metal_State_Penalty>
-0

> <b_epik_Metal_Only>
0

> <s_lp_Force_Field>
OPLS_2005

> <r_lp_Energy>
13.0675

> <b_lp_Chiralities_Consistent>
1

> <s_lp_Variant>
AV-unprocessed.smi:2488-2

> <Gold.Version>
5.8.1

> <Gold.Id.Protein>
6NUR|6NUR_protein|mol2

> <Gold.PLP.Fitness>
33.2490

> <Gold.PLP.PLP>
-25.8702

> <Gold.PLP.part.hbond>
-3.0604

> <Gold.PLP.part.metal>
0.0000

> <Gold.PLP.part.buried>
-3.7634

> <Gold.PLP.part.nonpolar>
-18.6799

> <Gold.PLP.part.repulsive>
0.2596

> <Gold.PLP.ligand.clash>
0.0000

> <Gold.PLP.ligand.torsion>
0.6894

> <Gold.PLP.Chemscore.Hbond>
2.8590

> <Gold.PLP.Chemscore.CHOScore>
0.0000

> <Gold.PLP.Chemscore.Metal>
0.0000

> <Gold.Chemscore.Hbonds>
donor molecule, donor type, donor heavy atom, donor atom, acceptor molecule, acceptor atom, score
      L1  H    15    32       P1  7957  1.00
      L1  H    15    33       P1  7948  0.84
      P1  H  7989  7998       L1    16  1.00

> <Gold.PLP.Chemscore.Internal.Correction>
0.1805

> <Gold.Rescore>
     Score         DG    S(hbond)    S(metal)    S(lipo)     H(rot)  DE(clash)    DE(int)     intcor
     13.15     -15.96       2.76        0.00      51.52       1.86       0.72       2.08       ----

> <Gold.Chemscore.Fitness>
13.1521

> <Gold.Chemscore.DG>
-15.9591

> <Gold.Chemscore.ZeroCoef>
-5.4800

> <Gold.Chemscore.Hbond>
2.7569

> <Gold.Chemscore.Metal>
0.0000

> <Gold.Chemscore.Lipo>
51.5234

> <Gold.Chemscore.Internal_Hbond>
0.0000

> <Gold.Chemscore.DEClash>
0.7247

> <Gold.Chemscore.DEInternal>
2.0823

> <Gold.Chemscore.Rot>
1.8582

> <Gold.Chemscore.Internal.Correction>
   9.000000E+99

> <Gold.Chemscore.Hbonds>
donor molecule, donor type, donor heavy atom, donor atom, acceptor molecule, acceptor atom, score
      L1  H    15    32       P1  7957  0.89
      L1  H    15    33       P1  7948  0.76
      P1  H  7989  7998       L1    16  0.95

> <Gold.Chemscore.Hbond.Weighted>
-9.2079

> <Gold.Chemscore.Metal.Weighted>
-0.0000

> <Gold.Chemscore.Lipo.Weighted>
-6.0282

> <Gold.Chemscore.Internal_Hbond.Weighted>
0.0000

> <Gold.Chemscore.DEClash.Weighted>
0.7247

> <Gold.Chemscore.DEInternal.Weighted>
2.0823

> <Gold.Chemscore.Rot.Weighted>
4.7570

> <Gold.Chemscore.Internal.Correction.Weighted>
   9.000000E+99

> <Gold.Protein.RotatedTorsions>
[ 6907 6896 6895 6894 ] final -150.52 input  -60.11 | X-H torsion
[ 7974 7965 7964 7962 ] final   39.48 input  175.53 | X-H torsion
[ 8008 7997 7996 7995 ] final  -27.66 input   59.86 | X-H torsion
[ 10167 10162 10161 10158 ] final   60.25 input  -65.29 | X-H torsion
[ 10718 10713 10712 10709 ] final  -69.23 input   66.30 | X-H torsion
[ 10763 10752 10751 10750 ] final  175.40 input  -60.55 | X-H torsion
[ 11005 11000 10999 10996 ] final -108.35 input  -57.11 | X-H torsion

> <Gold.Protein.ActiveResidues>
 VAL166  LYS551  ARG553  GLY616  TRP617  ASP618  TYR619  PRO620  LYS621  CYS622 
 ASP623  PHE694  ASN695  SER759  ASP760  ASP761  ALA762  ILE779  LEU786  VAL792 
 PHE793  MET794  SER795  GLU796  ALA797  LYS798  CYS799  TRP800  GLU811  SER814 

> <Gold.Protein.RotatedAtoms>
  151.1997  133.4618  159.2595 H   0  0  0  0  0  0  0  0  0  0  0  0  # atno 6907 bound_to 6896
  151.1081  135.0011  159.8491 H   0  0  0  0  0  0  0  0  0  0  0  0  # atno 6908 bound_to 6896
  152.5448  134.1918  159.8730 H   0  0  0  0  0  0  0  0  0  0  0  0  # atno 6909 bound_to 6896
  146.0981  139.5647  142.9432 H   0  0  0  0  0  0  0  0  0  0  0  0  # atno 7974 bound_to 7965
  154.4367  140.1866  156.0967 H   0  0  0  0  0  0  0  0  0  0  0  0  # atno 8008 bound_to 7997
  156.0324  140.3329  155.7128 H   0  0  0  0  0  0  0  0  0  0  0  0  # atno 8009 bound_to 7997
  155.5820  140.0622  157.2771 H   0  0  0  0  0  0  0  0  0  0  0  0  # atno 8010 bound_to 7997
  140.1676  144.4309  150.6677 H   0  0  0  0  0  0  0  0  0  0  0  0  # atno 10167 bound_to 10162
  156.0465  130.4309  150.2118 H   0  0  0  0  0  0  0  0  0  0  0  0  # atno 10718 bound_to 10713
  154.4671  135.2770  155.1670 H   0  0  0  0  0  0  0  0  0  0  0  0  # atno 10763 bound_to 10752
  154.3434  135.6165  153.5611 H   0  0  0  0  0  0  0  0  0  0  0  0  # atno 10764 bound_to 10752
  152.9860  135.5794  154.5045 H   0  0  0  0  0  0  0  0  0  0  0  0  # atno 10765 bound_to 10752
  141.0906  133.9062  157.2084 H   0  0  0  0  0  0  0  0  0  0  0  0  # atno 11005 bound_to 11000
  145.5908  141.0370  143.2071 LP  0  0  0  0  0  0  0  0  0  0  0  0  # atno 17320 bound_to 7965
  144.7411  139.7446  143.7310 LP  0  0  0  0  0  0  0  0  0  0  0  0  # atno 17321 bound_to 7965
  140.6603  143.2250  151.5872 LP  0  0  0  0  0  0  0  0  0  0  0  0  # atno 17342 bound_to 10162
  139.5352  144.2800  152.1236 LP  0  0  0  0  0  0  0  0  0  0  0  0  # atno 17343 bound_to 10162
  157.0206  130.9978  151.3340 LP  0  0  0  0  0  0  0  0  0  0  0  0  # atno 17370 bound_to 10713
  157.5346  130.8081  149.7957 LP  0  0  0  0  0  0  0  0  0  0  0  0  # atno 17371 bound_to 10713
  139.9731  135.0122  156.9563 LP  0  0  0  0  0  0  0  0  0  0  0  0  # atno 17394 bound_to 11000
  140.5261  134.0859  155.7304 LP  0  0  0  0  0  0  0  0  0  0  0  0  # atno 17395 bound_to 11000

$$$$
