AV-unprocessed.smi:3326|AV-procd|sdf|12785|dock4
  -GOLD-   2272019133D 1   1.00000     0.00000
 Structure written by MMmdl.
 30 31  0  0  0  0  0  0  0  0  1 V2000
  151.7676  145.5648  160.3345 F   0  0  0  0  0  0  0  0  0  0  0  0
  151.4527  144.5985  159.4710 C   0  0  0  0  0  0  0  0  0  0  0  0
  150.1270  144.4551  159.4778 F   0  0  0  0  0  0  0  0  0  0  0  0
  151.8404  144.9874  158.2562 F   0  0  0  0  0  0  0  0  0  0  0  0
  152.1221  143.2750  159.8345 C   0  0  0  0  0  0  0  0  0  0  0  0
  152.7729  143.1217  161.0800 C   0  0  0  0  0  0  0  0  0  0  0  0
  153.3792  141.8923  161.3959 C   0  0  0  0  0  0  0  0  0  0  0  0
  153.3129  140.8547  160.4496 C   0  0  0  0  0  0  0  0  0  0  0  0
  152.6966  140.9837  159.2572 N   0  0  0  0  0  0  0  0  0  0  0  0
  152.1092  142.1656  158.9487 C   0  0  0  0  0  0  0  0  0  0  0  0
  151.4771  142.2778  157.6988 N   0  0  0  0  0  0  0  0  0  0  0  0
  151.4672  141.1672  156.7541 C   0  0  0  0  0  0  0  0  0  0  0  0
  150.4210  141.3587  155.6444 C   0  0  2  0  0  0  0  0  0  0  0  0
  148.9821  141.3219  156.1506 C   0  0  0  0  0  0  0  0  0  0  0  0
  148.2282  140.9675  154.8888 C   0  0  0  0  0  0  0  0  0  0  0  0
  149.1841  139.9919  154.2048 C   0  0  0  0  0  0  0  0  0  0  0  0
  150.4854  140.2867  154.7083 O   0  0  0  0  0  0  0  0  0  0  0  0
  152.8126  143.9307  161.7939 H   0  0  0  0  0  0  0  0  0  0  0  0
  153.8825  141.7491  162.3406 H   0  0  0  0  0  0  0  0  0  0  0  0
  153.7667  139.8965  160.6545 H   0  0  0  0  0  0  0  0  0  0  0  0
  150.7656  142.9856  157.5862 H   0  0  0  0  0  0  0  0  0  0  0  0
  152.4610  141.0813  156.3141 H   0  0  0  0  0  0  0  0  0  0  0  0
  151.2905  140.2317  157.2855 H   0  0  0  0  0  0  0  0  0  0  0  0
  150.5832  142.2957  155.1091 H   0  0  0  0  0  0  0  0  0  0  0  0
  148.8554  140.5355  156.8962 H   0  0  0  0  0  0  0  0  0  0  0  0
  148.6617  142.2669  156.5900 H   0  0  0  0  0  0  0  0  0  0  0  0
  147.2448  140.5378  155.0811 H   0  0  0  0  0  0  0  0  0  0  0  0
  148.0971  141.8577  154.2719 H   0  0  0  0  0  0  0  0  0  0  0  0
  148.9374  138.9625  154.4660 H   0  0  0  0  0  0  0  0  0  0  0  0
  149.1513  140.0822  153.1185 H   0  0  0  0  0  0  0  0  0  0  0  0
  1  2  1  0  0  0  0
  2  3  1  0  0  0  0
  2  4  1  0  0  0  0
  2  5  1  0  0  0  0
  5 10  1  0  0  0  0
  5  6  2  0  0  0  0
  6  7  1  0  0  0  0
  6 18  1  0  0  0  0
  7  8  2  0  0  0  0
  7 19  1  0  0  0  0
  8  9  1  0  0  0  0
  8 20  1  0  0  0  0
  9 10  2  0  0  0  0
 10 11  1  0  0  0  0
 11 12  1  0  0  0  0
 11 21  1  0  0  0  0
 12 13  1  0  0  0  0
 12 22  1  0  0  0  0
 12 23  1  0  0  0  0
 13 17  1  0  0  0  0
 13 14  1  0  0  0  0
 13 24  1  0  0  0  0
 14 15  1  0  0  0  0
 14 25  1  0  0  0  0
 14 26  1  0  0  0  0
 15 16  1  0  0  0  0
 15 27  1  0  0  0  0
 15 28  1  0  0  0  0
 16 17  1  0  0  0  0
 16 29  1  0  0  0  0
 16 30  1  0  0  0  0
M  END
> <s_m_source_file>
AV-unprocessed.smi

> <i_m_source_file_index>
3326

> <i_lp_mmshare_version>
43012

> <i_f3d_flags>
0

> <s_epik_input>
RkMoRikoRiljMVtjSF1bY0hdW2NIXW5jMVtOSF1bQ0gyXVtDQEBIXTJbQ0gyXVtDSDJdW0NIMl1PMg==

> <s_epik_cmdline>
J2VwaWtfcHl0aG9uJywgJy1waCcsICc3LjAnLCAnLXRuJywgJzgnLCAnLW1hJywgJzIwMCcsICctbWV0YWxfYmluZGluZycsICctaW1hZScsICc8aW5maWxlLm1hZT4nLCAnLW9tYWUnLCAnPG91dGZpbGUubWFlPic=

> <r_lp_tautomer_probability>
1

> <r_epik_Ionization_Penalty>
0.000820218

> <r_epik_Ionization_Penalty_Charging>
0

> <r_epik_Ionization_Penalty_Neutral>
0.000820218

> <r_epik_State_Penalty>
0.000527207

> <r_epik_Charging_Adjusted_Penalty>
0.000527207

> <i_epik_Tot_Q>
0

> <i_epik_Tot_abs_Q>
0

> <r_epik_Metal_State_Penalty>
-0

> <b_epik_Metal_Only>
0

> <s_lp_Force_Field>
OPLS_2005

> <r_lp_Energy>
21.819

> <b_lp_Chiralities_Consistent>
1

> <s_lp_Variant>
AV-unprocessed.smi:3326-1

> <Gold.Version>
5.8.1

> <Gold.Id.Protein>
6NUR|6NUR_protein|mol2

> <Gold.PLP.Fitness>
45.3734

> <Gold.PLP.PLP>
-42.8355

> <Gold.PLP.part.hbond>
-1.0000

> <Gold.PLP.part.metal>
0.0000

> <Gold.PLP.part.buried>
-5.4780

> <Gold.PLP.part.nonpolar>
-35.5270

> <Gold.PLP.part.repulsive>
0.1253

> <Gold.PLP.ligand.clash>
0.1824

> <Gold.PLP.ligand.torsion>
0.4178

> <Gold.PLP.Chemscore.Hbond>
1.0000

> <Gold.PLP.Chemscore.CHOScore>
0.0000

> <Gold.PLP.Chemscore.Metal>
0.0000

> <Gold.Chemscore.Hbonds>
donor molecule, donor type, donor heavy atom, donor atom, acceptor molecule, acceptor atom, score
      P1  H  7989  7998       L1    17  1.00

> <Gold.PLP.Chemscore.Internal.Correction>
0.5560

> <Gold.Rescore>
     Score         DG    S(hbond)    S(metal)    S(lipo)     H(rot)  DE(clash)    DE(int)     intcor
     13.00     -15.06       0.79        0.00      86.74       1.25       0.22       1.84       ----

> <Gold.Chemscore.Fitness>
12.9997

> <Gold.Chemscore.DG>
-15.0607

> <Gold.Chemscore.ZeroCoef>
-5.4800

> <Gold.Chemscore.Hbond>
0.7891

> <Gold.Chemscore.Metal>
0.0000

> <Gold.Chemscore.Lipo>
86.7424

> <Gold.Chemscore.Internal_Hbond>
0.0000

> <Gold.Chemscore.DEClash>
0.2208

> <Gold.Chemscore.DEInternal>
1.8403

> <Gold.Chemscore.Rot>
1.2514

> <Gold.Chemscore.Internal.Correction>
   9.000000E+99

> <Gold.Chemscore.Hbonds>
donor molecule, donor type, donor heavy atom, donor atom, acceptor molecule, acceptor atom, score
      P1  H  7989  7998       L1    17  0.35

> <Gold.Chemscore.Hbond.Weighted>
-2.6354

> <Gold.Chemscore.Metal.Weighted>
-0.0000

> <Gold.Chemscore.Lipo.Weighted>
-10.1489

> <Gold.Chemscore.Internal_Hbond.Weighted>
0.0000

> <Gold.Chemscore.DEClash.Weighted>
0.2208

> <Gold.Chemscore.DEInternal.Weighted>
1.8403

> <Gold.Chemscore.Rot.Weighted>
3.2036

> <Gold.Chemscore.Internal.Correction.Weighted>
   9.000000E+99

> <Gold.Protein.RotatedTorsions>
[ 6907 6896 6895 6894 ] final -106.57 input  -60.11 | X-H torsion
[ 7974 7965 7964 7962 ] final  174.48 input  175.53 | X-H torsion
[ 8008 7997 7996 7995 ] final   61.39 input   59.86 | X-H torsion
[ 10167 10162 10161 10158 ] final   92.02 input  -65.29 | X-H torsion
[ 10718 10713 10712 10709 ] final -172.05 input   66.30 | X-H torsion
[ 10763 10752 10751 10750 ] final  -90.73 input  -60.55 | X-H torsion
[ 11005 11000 10999 10996 ] final  176.77 input  -57.11 | X-H torsion

> <Gold.Protein.ActiveResidues>
 VAL166  LYS551  ARG553  GLY616  TRP617  ASP618  TYR619  PRO620  LYS621  CYS622 
 ASP623  PHE694  ASN695  SER759  ASP760  ASP761  ALA762  ILE779  LEU786  VAL792 
 PHE793  MET794  SER795  GLU796  ALA797  LYS798  CYS799  TRP800  GLU811  SER814 

> <Gold.Protein.RotatedAtoms>
  150.7396  133.9956  159.3621 H   0  0  0  0  0  0  0  0  0  0  0  0  # atno 6907 bound_to 6896
  151.7907  135.0734  160.0396 H   0  0  0  0  0  0  0  0  0  0  0  0  # atno 6908 bound_to 6896
  152.3210  133.5817  159.5781 H   0  0  0  0  0  0  0  0  0  0  0  0  # atno 6909 bound_to 6896
  144.7221  139.9803  143.6438 H   0  0  0  0  0  0  0  0  0  0  0  0  # atno 7974 bound_to 7965
  155.5976  140.3493  155.4584 H   0  0  0  0  0  0  0  0  0  0  0  0  # atno 8008 bound_to 7997
  156.0253  140.1262  157.0340 H   0  0  0  0  0  0  0  0  0  0  0  0  # atno 8009 bound_to 7997
  154.4331  140.1054  156.6008 H   0  0  0  0  0  0  0  0  0  0  0  0  # atno 8010 bound_to 7997
  139.8317  144.6684  150.9391 H   0  0  0  0  0  0  0  0  0  0  0  0  # atno 10167 bound_to 10162
  156.7499  130.9374  151.3114 H   0  0  0  0  0  0  0  0  0  0  0  0  # atno 10718 bound_to 10713
  154.6688  135.5293  153.8112 H   0  0  0  0  0  0  0  0  0  0  0  0  # atno 10763 bound_to 10752
  153.0488  135.6524  154.0757 H   0  0  0  0  0  0  0  0  0  0  0  0  # atno 10764 bound_to 10752
  154.0658  135.2958  155.3297 H   0  0  0  0  0  0  0  0  0  0  0  0  # atno 10765 bound_to 10752
  140.3768  134.6982  157.4426 H   0  0  0  0  0  0  0  0  0  0  0  0  # atno 11005 bound_to 11000
  146.0493  139.3495  143.0649 LP  0  0  0  0  0  0  0  0  0  0  0  0  # atno 17320 bound_to 7965
  145.8236  140.9667  143.0886 LP  0  0  0  0  0  0  0  0  0  0  0  0  # atno 17321 bound_to 7965
  140.7806  143.3994  151.1174 LP  0  0  0  0  0  0  0  0  0  0  0  0  # atno 17342 bound_to 10162
  139.7648  143.8582  152.3108 LP  0  0  0  0  0  0  0  0  0  0  0  0  # atno 17343 bound_to 10162
  157.6782  130.9114  150.0201 LP  0  0  0  0  0  0  0  0  0  0  0  0  # atno 17370 bound_to 10713
  156.1408  130.3642  149.9585 LP  0  0  0  0  0  0  0  0  0  0  0  0  # atno 17371 bound_to 10713
  140.0509  134.6131  155.8862 LP  0  0  0  0  0  0  0  0  0  0  0  0  # atno 17394 bound_to 11000
  141.1937  133.6580  156.5559 LP  0  0  0  0  0  0  0  0  0  0  0  0  # atno 17395 bound_to 11000

$$$$
