AV-unprocessed.smi:1570|AV-procd|sdf|6323|dock7
  -GOLD-   22720 6533D 1   1.00000     0.00000
 Structure written by MMmdl.
 52 54  0  0  0  0  0  0  0  0  2 V2000
  152.0249  145.2201  158.5372 C   0  0  0  0  0  0  0  0  0  0  0  0
  151.8599  144.2006  159.6713 C   0  0  0  0  0  0  0  0  0  0  0  0
  152.0075  142.8337  159.1779 N   0  0  0  0  0  0  0  0  0  0  0  0
  151.3590  142.2806  158.1268 C   0  0  0  0  0  0  0  0  0  0  0  0
  150.5217  142.8377  157.4166 O   0  0  0  0  0  0  0  0  0  0  0  0
  151.8034  141.0098  157.9784 N   0  0  0  0  0  0  0  0  0  0  0  0
  151.3669  140.0522  156.9628 C   0  0  0  0  0  0  0  0  0  0  0  0
  151.8062  140.4770  155.5466 C   0  0  1  0  0  0  0  0  0  0  0  0
  153.1932  140.2297  155.4221 O   0  0  0  0  0  0  0  0  0  0  0  0
  151.0856  139.6599  154.4548 C   0  0  0  0  0  0  0  0  0  0  0  0
  149.6076  139.7254  154.5850 N   0  3  1  0  0  0  0  0  0  0  0  0
  149.0605  141.0568  154.2370 C   0  0  0  0  0  0  0  0  0  0  0  0
  147.5442  141.1003  154.5006 C   0  0  1  0  0  0  0  0  0  0  0  0
  146.9228  142.4325  154.0668 C   0  0  0  0  0  0  0  0  0  0  0  0
  146.9037  140.0592  153.7674 O   0  0  0  0  0  0  0  0  0  0  0  0
  147.3771  138.7432  154.0539 C   0  0  2  0  0  0  0  0  0  0  0  0
  146.9369  138.2532  155.4450 C   0  0  0  0  0  0  0  0  0  0  0  0
  148.8992  138.6649  153.8264 C   0  0  0  0  0  0  0  0  0  0  0  0
  152.7764  140.7475  158.9541 C   0  0  0  0  0  0  0  0  0  0  0  0
  153.5461  139.5993  159.2121 C   0  0  0  0  0  0  0  0  0  0  0  0
  154.4631  139.6632  160.2874 C   0  0  0  0  0  0  0  0  0  0  0  0
  154.5921  140.8435  161.0644 C   0  0  0  0  0  0  0  0  0  0  0  0
  153.8078  141.9859  160.7814 C   0  0  0  0  0  0  0  0  0  0  0  0
  152.9038  141.8953  159.7087 C   0  0  0  0  0  0  0  0  0  0  0  0
  151.9174  146.2377  158.9125 H   0  0  0  0  0  0  0  0  0  0  0  0
  151.2749  145.0710  157.7597 H   0  0  0  0  0  0  0  0  0  0  0  0
  153.0090  145.1398  158.0740 H   0  0  0  0  0  0  0  0  0  0  0  0
  152.5957  144.3883  160.4537 H   0  0  0  0  0  0  0  0  0  0  0  0
  150.8828  144.3238  160.1407 H   0  0  0  0  0  0  0  0  0  0  0  0
  151.7053  139.0426  157.1975 H   0  0  0  0  0  0  0  0  0  0  0  0
  150.2775  140.0101  157.0100 H   0  0  0  0  0  0  0  0  0  0  0  0
  151.6205  141.5407  155.4032 H   0  0  0  0  0  0  0  0  0  0  0  0
  153.3656  139.3360  155.6770 H   0  0  0  0  0  0  0  0  0  0  0  0
  151.3929  140.0336  153.4766 H   0  0  0  0  0  0  0  0  0  0  0  0
  151.3959  138.6142  154.4885 H   0  0  0  0  0  0  0  0  0  0  0  0
  149.5549  141.8257  154.8320 H   0  0  0  0  0  0  0  0  0  0  0  0
  149.2727  141.2758  153.1890 H   0  0  0  0  0  0  0  0  0  0  0  0
  147.3538  140.9713  155.5663 H   0  0  0  0  0  0  0  0  0  0  0  0
  147.3663  143.2682  154.6089 H   0  0  0  0  0  0  0  0  0  0  0  0
  145.8499  142.4436  154.2606 H   0  0  0  0  0  0  0  0  0  0  0  0
  147.0696  142.6088  153.0008 H   0  0  0  0  0  0  0  0  0  0  0  0
  146.9000  138.0869  153.3253 H   0  0  0  0  0  0  0  0  0  0  0  0
  147.1982  137.2039  155.5851 H   0  0  0  0  0  0  0  0  0  0  0  0
  145.8566  138.3405  155.5633 H   0  0  0  0  0  0  0  0  0  0  0  0
  147.4095  138.8131  156.2515 H   0  0  0  0  0  0  0  0  0  0  0  0
  149.1141  138.7852  152.7632 H   0  0  0  0  0  0  0  0  0  0  0  0
  149.2600  137.6758  154.1063 H   0  0  0  0  0  0  0  0  0  0  0  0
  153.4496  138.7038  158.6169 H   0  0  0  0  0  0  0  0  0  0  0  0
  155.0746  138.8034  160.5189 H   0  0  0  0  0  0  0  0  0  0  0  0
  155.2990  140.8709  161.8806 H   0  0  0  0  0  0  0  0  0  0  0  0
  153.9049  142.8887  161.3663 H   0  0  0  0  0  0  0  0  0  0  0  0
  149.4021  139.5811  155.5638 H   0  0  0  0  0  0  0  0  0  0  0  0
  1  2  1  0  0  0  0
  1 25  1  0  0  0  0
  1 26  1  0  0  0  0
  1 27  1  0  0  0  0
  2  3  1  0  0  0  0
  2 28  1  0  0  0  0
  2 29  1  0  0  0  0
  3 24  1  0  0  0  0
  3  4  1  0  0  0  0
  4  5  2  0  0  0  0
  4  6  1  0  0  0  0
  6  7  1  0  0  0  0
  6 19  1  0  0  0  0
  7  8  1  0  0  0  0
  7 30  1  0  0  0  0
  7 31  1  0  0  0  0
  8  9  1  0  0  0  0
  8 10  1  0  0  0  0
  8 32  1  0  0  0  0
  9 33  1  0  0  0  0
 10 11  1  0  0  0  0
 10 34  1  0  0  0  0
 10 35  1  0  0  0  0
 11 18  1  0  0  0  0
 11 12  1  0  0  0  0
 11 52  1  0  0  0  0
 12 13  1  0  0  0  0
 12 36  1  0  0  0  0
 12 37  1  0  0  0  0
 13 14  1  0  0  0  0
 13 15  1  0  0  0  0
 13 38  1  0  0  0  0
 14 39  1  0  0  0  0
 14 40  1  0  0  0  0
 14 41  1  0  0  0  0
 15 16  1  0  0  0  0
 16 17  1  0  0  0  0
 16 18  1  0  0  0  0
 16 42  1  0  0  0  0
 17 43  1  0  0  0  0
 17 44  1  0  0  0  0
 17 45  1  0  0  0  0
 18 46  1  0  0  0  0
 18 47  1  0  0  0  0
 19 24  2  0  0  0  0
 19 20  1  0  0  0  0
 20 21  2  0  0  0  0
 20 48  1  0  0  0  0
 21 22  1  0  0  0  0
 21 49  1  0  0  0  0
 22 23  2  0  0  0  0
 22 50  1  0  0  0  0
 23 24  1  0  0  0  0
 23 51  1  0  0  0  0
M  CHG  1  11   1
M  END
> <s_m_source_file>
AV-unprocessed.smi

> <i_m_source_file_index>
1570

> <i_lp_mmshare_version>
43012

> <i_f3d_flags>
0

> <s_epik_input>
W2NIXTFbY0hdW2NIXVtjSF1jKGMxMiluKFtDSDJdW0NIM10pYyg9TyluMltDSDJdW0NASF0oW09IXSlbQ0gyXU4zW0NIMl1bQ0BASF0oW0NIM10pT1tDQEBIXShbQ0gzXSlbQ0gyXTM=

> <s_epik_cmdline>
J2VwaWtfcHl0aG9uJywgJy1waCcsICc3LjAnLCAnLXRuJywgJzgnLCAnLW1hJywgJzIwMCcsICctbWV0YWxfYmluZGluZycsICctaW1hZScsICc8aW5maWxlLm1hZT4nLCAnLW9tYWUnLCAnPG91dGZpbGUubWFlPic=

> <r_epik_Ionization_Penalty>
0.706332

> <r_epik_Ionization_Penalty_Charging>
0.706318

> <r_epik_Ionization_Penalty_Neutral>
1.42224e-05

> <r_epik_State_Penalty>
0.729493

> <r_epik_Charging_Adjusted_Penalty>
1.43581

> <i_epik_Tot_Q>
1

> <i_epik_Tot_abs_Q>
1

> <r_epik_Metal_State_Penalty>
0.729493

> <b_epik_Metal_Only>
0

> <s_lp_Force_Field>
OPLS_2005

> <r_lp_Energy>
55.371

> <b_lp_Chiralities_Consistent>
1

> <s_lp_Variant>
AV-unprocessed.smi:1570-12

> <Gold.Version>
5.8.1

> <Gold.Id.Protein>
6NUR|6NUR_protein|mol2

> <Gold.PLP.Fitness>
52.2125

> <Gold.PLP.PLP>
-49.7592

> <Gold.PLP.part.hbond>
-1.0000

> <Gold.PLP.part.metal>
0.0000

> <Gold.PLP.part.buried>
-6.2068

> <Gold.PLP.part.nonpolar>
-43.2597

> <Gold.PLP.part.repulsive>
0.3318

> <Gold.PLP.ligand.clash>
0.0000

> <Gold.PLP.ligand.torsion>
0.3244

> <Gold.PLP.Chemscore.Hbond>
1.0000

> <Gold.PLP.Chemscore.CHOScore>
0.0000

> <Gold.PLP.Chemscore.Metal>
0.0000

> <Gold.PLP.Chemscore.Internal.Correction>
0.1021

> <Gold.Rescore>
     Score         DG    S(hbond)    S(metal)    S(lipo)     H(rot)  DE(clash)    DE(int)     intcor
     17.39     -17.73       0.95        0.00     124.16       2.13       0.08       0.26       ----

> <Gold.Chemscore.Fitness>
17.3900

> <Gold.Chemscore.DG>
-17.7250

> <Gold.Chemscore.ZeroCoef>
-5.4800

> <Gold.Chemscore.Hbond>
0.9497

> <Gold.Chemscore.Metal>
0.0000

> <Gold.Chemscore.Lipo>
124.1591

> <Gold.Chemscore.Internal_Hbond>
0.0000

> <Gold.Chemscore.DEClash>
0.0754

> <Gold.Chemscore.DEInternal>
0.2597

> <Gold.Chemscore.Rot>
2.1303

> <Gold.Chemscore.Internal.Correction>
   9.000000E+99

> <Gold.Chemscore.Hbond.Weighted>
-3.1719

> <Gold.Chemscore.Metal.Weighted>
-0.0000

> <Gold.Chemscore.Lipo.Weighted>
-14.5266

> <Gold.Chemscore.Internal_Hbond.Weighted>
0.0000

> <Gold.Chemscore.DEClash.Weighted>
0.0754

> <Gold.Chemscore.DEInternal.Weighted>
0.2597

> <Gold.Chemscore.Rot.Weighted>
5.4535

> <Gold.Chemscore.Internal.Correction.Weighted>
   9.000000E+99

> <Gold.Protein.RotatedTorsions>
[ 6907 6896 6895 6894 ] final  103.77 input  -60.11 | X-H torsion
[ 7974 7965 7964 7962 ] final  154.76 input  175.53 | X-H torsion
[ 8008 7997 7996 7995 ] final  103.47 input   59.86 | X-H torsion
[ 10167 10162 10161 10158 ] final   -3.67 input  -65.29 | X-H torsion
[ 10718 10713 10712 10709 ] final   76.39 input   66.30 | X-H torsion
[ 10763 10752 10751 10750 ] final -133.43 input  -60.55 | X-H torsion
[ 11005 11000 10999 10996 ] final   35.69 input  -57.11 | X-H torsion

> <Gold.Protein.ActiveResidues>
 VAL166  LYS551  ARG553  GLY616  TRP617  ASP618  TYR619  PRO620  LYS621  CYS622 
 ASP623  PHE694  ASN695  SER759  ASP760  ASP761  ALA762  ILE779  LEU786  VAL792 
 PHE793  MET794  SER795  GLU796  ALA797  LYS798  CYS799  TRP800  GLU811  SER814 

> <Gold.Protein.RotatedAtoms>
  152.5285  133.9777  159.7791 H   0  0  0  0  0  0  0  0  0  0  0  0  # atno 6907 bound_to 6896
  151.0036  133.6024  159.2699 H   0  0  0  0  0  0  0  0  0  0  0  0  # atno 6908 bound_to 6896
  151.3124  135.0804  159.9330 H   0  0  0  0  0  0  0  0  0  0  0  0  # atno 6909 bound_to 6896
  144.8068  139.6976  143.6158 H   0  0  0  0  0  0  0  0  0  0  0  0  # atno 7974 bound_to 7965
  156.1487  140.3164  155.8612 H   0  0  0  0  0  0  0  0  0  0  0  0  # atno 8008 bound_to 7997
  155.4014  140.0500  157.3053 H   0  0  0  0  0  0  0  0  0  0  0  0  # atno 8009 bound_to 7997
  154.5039  140.2139  155.9303 H   0  0  0  0  0  0  0  0  0  0  0  0  # atno 8010 bound_to 7997
  140.6899  143.6513  150.8348 H   0  0  0  0  0  0  0  0  0  0  0  0  # atno 10167 bound_to 10162
  157.6671  130.9772  150.1490 H   0  0  0  0  0  0  0  0  0  0  0  0  # atno 10718 bound_to 10713
  154.8732  135.3766  154.4572 H   0  0  0  0  0  0  0  0  0  0  0  0  # atno 10763 bound_to 10752
  153.5243  135.7028  153.5720 H   0  0  0  0  0  0  0  0  0  0  0  0  # atno 10764 bound_to 10752
  153.3954  135.3962  155.1917 H   0  0  0  0  0  0  0  0  0  0  0  0  # atno 10765 bound_to 10752
  140.2401  134.3425  155.7929 H   0  0  0  0  0  0  0  0  0  0  0  0  # atno 11005 bound_to 11000
  146.2361  139.5907  142.9523 LP  0  0  0  0  0  0  0  0  0  0  0  0  # atno 17320 bound_to 7965
  145.5419  141.0420  143.2326 LP  0  0  0  0  0  0  0  0  0  0  0  0  # atno 17321 bound_to 7965
  140.0224  143.5528  152.2795 LP  0  0  0  0  0  0  0  0  0  0  0  0  # atno 17342 bound_to 10162
  139.6291  144.7641  151.2574 LP  0  0  0  0  0  0  0  0  0  0  0  0  # atno 17343 bound_to 10162
  156.2294  130.3681  149.8462 LP  0  0  0  0  0  0  0  0  0  0  0  0  # atno 17370 bound_to 10713
  156.6293  130.8659  151.3492 LP  0  0  0  0  0  0  0  0  0  0  0  0  # atno 17371 bound_to 10713
  141.2211  133.7294  156.8871 LP  0  0  0  0  0  0  0  0  0  0  0  0  # atno 17394 bound_to 11000
  140.1662  134.9131  157.2777 LP  0  0  0  0  0  0  0  0  0  0  0  0  # atno 17395 bound_to 11000

$$$$
