AV-unprocessed.smi:3255|AV-procd|sdf|12463|dock7
  -GOLD-   2272018363D 1   1.00000     0.00000
 Structure written by MMmdl.
 38 39  0  0  0  0  0  0  0  0  1 V2000
  148.2572  139.0345  155.9819 C   0  0  0  0  0  0  0  0  0  0  0  0
  148.6430  139.1615  154.5010 C   0  0  2  0  0  0  0  0  0  0  0  0
  148.0232  138.0666  153.7557 N   0  0  0  0  0  0  0  0  0  0  0  0
  146.7053  137.8527  153.6344 C   0  0  0  0  0  0  0  0  0  0  0  0
  145.8394  138.5474  154.1665 O   0  0  0  0  0  0  0  0  0  0  0  0
  146.4428  136.8054  152.8399 N   0  0  0  0  0  0  0  0  0  0  0  0
  145.1070  136.3626  152.4500 C   0  0  0  0  0  0  0  0  0  0  0  0
  145.0498  135.9323  150.9719 C   0  0  0  0  0  0  0  0  0  0  0  0
  145.2866  134.5117  150.7900 N   0  0  0  0  0  0  0  0  0  0  0  0
  146.4416  133.8076  151.1055 C   0  0  0  0  0  0  0  0  0  0  0  0
  146.2125  132.4972  150.7518 C   0  0  0  0  0  0  0  0  0  0  0  0
  144.9275  132.3704  150.2297 N   0  0  0  0  0  0  0  0  0  0  0  0
  144.4396  133.6030  150.2867 C   0  0  0  0  0  0  0  0  0  0  0  0
  150.1737  139.1535  154.3027 C   0  0  1  0  0  0  0  0  0  0  0  0
  150.9638  139.9997  155.3057 C   0  0  0  0  0  0  0  0  0  0  0  0
  152.3080  139.3113  155.3045 C   0  0  0  0  0  0  0  0  0  0  0  0
  151.8949  137.8472  155.2132 C   0  0  0  0  0  0  0  0  0  0  0  0
  150.6903  137.8315  154.4520 O   0  0  0  0  0  0  0  0  0  0  0  0
  148.6708  139.8551  156.5687 H   0  0  0  0  0  0  0  0  0  0  0  0
  148.6245  138.1015  156.4107 H   0  0  0  0  0  0  0  0  0  0  0  0
  147.1743  139.0565  156.1080 H   0  0  0  0  0  0  0  0  0  0  0  0
  148.2565  140.1172  154.1426 H   0  0  0  0  0  0  0  0  0  0  0  0
  148.6501  137.4375  153.2756 H   0  0  0  0  0  0  0  0  0  0  0  0
  147.2229  136.2959  152.4515 H   0  0  0  0  0  0  0  0  0  0  0  0
  144.8468  135.5127  153.0809 H   0  0  0  0  0  0  0  0  0  0  0  0
  144.3600  137.1309  152.6574 H   0  0  0  0  0  0  0  0  0  0  0  0
  144.0826  136.1879  150.5374 H   0  0  0  0  0  0  0  0  0  0  0  0
  145.8029  136.4751  150.3996 H   0  0  0  0  0  0  0  0  0  0  0  0
  147.3102  134.2847  151.5349 H   0  0  0  0  0  0  0  0  0  0  0  0
  146.8688  131.6432  150.8325 H   0  0  0  0  0  0  0  0  0  0  0  0
  143.4451  133.8529  149.9472 H   0  0  0  0  0  0  0  0  0  0  0  0
  150.4210  139.4882  153.2939 H   0  0  0  0  0  0  0  0  0  0  0  0
  151.0228  141.0501  155.0205 H   0  0  0  0  0  0  0  0  0  0  0  0
  150.5189  139.9390  156.3002 H   0  0  0  0  0  0  0  0  0  0  0  0
  152.8777  139.6004  154.4203 H   0  0  0  0  0  0  0  0  0  0  0  0
  152.9063  139.5334  156.1885 H   0  0  0  0  0  0  0  0  0  0  0  0
  152.6644  137.2231  154.7583 H   0  0  0  0  0  0  0  0  0  0  0  0
  151.6803  137.4512  156.2065 H   0  0  0  0  0  0  0  0  0  0  0  0
  1  2  1  0  0  0  0
  1 19  1  0  0  0  0
  1 20  1  0  0  0  0
  1 21  1  0  0  0  0
  2  3  1  0  0  0  0
  2 14  1  0  0  0  0
  2 22  1  0  0  0  0
  3  4  1  0  0  0  0
  3 23  1  0  0  0  0
  4  5  2  0  0  0  0
  4  6  1  0  0  0  0
  6  7  1  0  0  0  0
  6 24  1  0  0  0  0
  7  8  1  0  0  0  0
  7 25  1  0  0  0  0
  7 26  1  0  0  0  0
  8  9  1  0  0  0  0
  8 27  1  0  0  0  0
  8 28  1  0  0  0  0
  9 13  1  0  0  0  0
  9 10  1  0  0  0  0
 10 11  2  0  0  0  0
 10 29  1  0  0  0  0
 11 12  1  0  0  0  0
 11 30  1  0  0  0  0
 12 13  2  0  0  0  0
 13 31  1  0  0  0  0
 14 18  1  0  0  0  0
 14 15  1  0  0  0  0
 14 32  1  0  0  0  0
 15 16  1  0  0  0  0
 15 33  1  0  0  0  0
 15 34  1  0  0  0  0
 16 17  1  0  0  0  0
 16 35  1  0  0  0  0
 16 36  1  0  0  0  0
 17 18  1  0  0  0  0
 17 37  1  0  0  0  0
 17 38  1  0  0  0  0
M  END
> <s_m_source_file>
AV-unprocessed.smi

> <i_m_source_file_index>
3255

> <i_lp_mmshare_version>
43012

> <i_f3d_flags>
0

> <s_epik_input>
TzFbQ0gyXVtDSDJdW0NIMl1bQ0BIXTFbQ0BIXShbQ0gzXSlbTkhdQyg9TylbTkhdW0NIMl1bQ0gyXW4yW2NIXVtjSF1uW2NIXTI=

> <s_epik_cmdline>
J2VwaWtfcHl0aG9uJywgJy1waCcsICc3LjAnLCAnLXRuJywgJzgnLCAnLW1hJywgJzIwMCcsICctbWV0YWxfYmluZGluZycsICctaW1hZScsICc8aW5maWxlLm1hZT4nLCAnLW9tYWUnLCAnPG91dGZpbGUubWFlPic=

> <r_lp_tautomer_probability>
1

> <r_epik_Ionization_Penalty>
0.620274

> <r_epik_Ionization_Penalty_Charging>
0.620225

> <r_epik_Ionization_Penalty_Neutral>
4.91362e-05

> <r_epik_State_Penalty>
0.636186

> <r_epik_Charging_Adjusted_Penalty>
1.25641

> <i_epik_Tot_Q>
0

> <i_epik_Tot_abs_Q>
0

> <r_epik_Metal_State_Penalty>
0.306491

> <b_epik_Metal_Only>
0

> <s_lp_Force_Field>
OPLS_2005

> <r_lp_Energy>
16.3443

> <b_lp_Chiralities_Consistent>
1

> <s_lp_Variant>
AV-unprocessed.smi:3255-7

> <Gold.Version>
5.8.1

> <Gold.Id.Protein>
6NUR|6NUR_protein|mol2

> <Gold.PLP.Fitness>
43.5214

> <Gold.PLP.PLP>
-29.7278

> <Gold.PLP.part.hbond>
-2.0000

> <Gold.PLP.part.metal>
0.0000

> <Gold.PLP.part.buried>
-3.0577

> <Gold.PLP.part.nonpolar>
-25.4265

> <Gold.PLP.part.repulsive>
0.5006

> <Gold.PLP.ligand.clash>
0.0000

> <Gold.PLP.ligand.torsion>
0.6045

> <Gold.PLP.Chemscore.Hbond>
1.9920

> <Gold.PLP.Chemscore.CHOScore>
3.0000

> <Gold.PLP.Chemscore.Metal>
0.0000

> <Gold.Chemscore.Hbonds>
donor molecule, donor type, donor heavy atom, donor atom, acceptor molecule, acceptor atom, score
      L1  H     3    23       P1  7948  0.99
      L1  H     6    24       P1  7948  1.00
      L1  C    10    29       P1  7948  1.00
      L1  C    11    30       P1 10747  1.00
      L1  C    13    31       P1 10186  0.99

> <Gold.PLP.Chemscore.Internal.Correction>
0.0267

> <Gold.Rescore>
     Score         DG    S(hbond)    S(metal)    S(lipo)     H(rot)  DE(clash)    DE(int)     intcor
     12.96     -13.76       1.91        0.00      64.02       2.18       0.20       0.60       ----

> <Gold.Chemscore.Fitness>
12.9646

> <Gold.Chemscore.DG>
-13.7592

> <Gold.Chemscore.ZeroCoef>
-5.4800

> <Gold.Chemscore.Hbond>
1.9091

> <Gold.Chemscore.Metal>
0.0000

> <Gold.Chemscore.Lipo>
64.0238

> <Gold.Chemscore.Internal_Hbond>
0.0000

> <Gold.Chemscore.DEClash>
0.1955

> <Gold.Chemscore.DEInternal>
0.5991

> <Gold.Chemscore.Rot>
2.1828

> <Gold.Chemscore.Internal.Correction>
   9.000000E+99

> <Gold.Chemscore.Hbonds>
donor molecule, donor type, donor heavy atom, donor atom, acceptor molecule, acceptor atom, score
      L1  H     3    23       P1  7948  0.94
      L1  H     6    24       P1  7948  0.95

> <Gold.Chemscore.Hbond.Weighted>
-6.3765

> <Gold.Chemscore.Metal.Weighted>
-0.0000

> <Gold.Chemscore.Lipo.Weighted>
-7.4908

> <Gold.Chemscore.Internal_Hbond.Weighted>
0.0000

> <Gold.Chemscore.DEClash.Weighted>
0.1955

> <Gold.Chemscore.DEInternal.Weighted>
0.5991

> <Gold.Chemscore.Rot.Weighted>
5.5881

> <Gold.Chemscore.Internal.Correction.Weighted>
   9.000000E+99

> <Gold.Protein.RotatedTorsions>
[ 6907 6896 6895 6894 ] final   10.76 input  -60.11 | X-H torsion
[ 7974 7965 7964 7962 ] final   85.97 input  175.53 | X-H torsion
[ 8008 7997 7996 7995 ] final   59.98 input   59.86 | X-H torsion
[ 10167 10162 10161 10158 ] final   79.71 input  -65.29 | X-H torsion
[ 10718 10713 10712 10709 ] final   78.91 input   66.30 | X-H torsion
[ 10763 10752 10751 10750 ] final   80.07 input  -60.55 | X-H torsion
[ 11005 11000 10999 10996 ] final  101.61 input  -57.11 | X-H torsion

> <Gold.Protein.ActiveResidues>
 VAL166  LYS551  ARG553  GLY616  TRP617  ASP618  TYR619  PRO620  LYS621  CYS622 
 ASP623  PHE694  ASN695  SER759  ASP760  ASP761  ALA762  ILE779  LEU786  VAL792 
 PHE793  MET794  SER795  GLU796  ALA797  LYS798  CYS799  TRP800  GLU811  SER814 

> <Gold.Protein.RotatedAtoms>
  151.7434  135.0849  160.0319 H   0  0  0  0  0  0  0  0  0  0  0  0  # atno 6907 bound_to 6896
  152.3464  133.6123  159.5922 H   0  0  0  0  0  0  0  0  0  0  0  0  # atno 6908 bound_to 6896
  150.7512  133.9558  159.3542 H   0  0  0  0  0  0  0  0  0  0  0  0  # atno 6909 bound_to 6896
  145.5785  139.2322  143.2366 H   0  0  0  0  0  0  0  0  0  0  0  0  # atno 7974 bound_to 7965
  155.5750  140.3490  155.4525 H   0  0  0  0  0  0  0  0  0  0  0  0  # atno 8008 bound_to 7997
  156.0416  140.1297  157.0175 H   0  0  0  0  0  0  0  0  0  0  0  0  # atno 8009 bound_to 7997
  154.4394  140.1023  156.6230 H   0  0  0  0  0  0  0  0  0  0  0  0  # atno 8010 bound_to 7997
  139.9574  144.5984  150.8104 H   0  0  0  0  0  0  0  0  0  0  0  0  # atno 10167 bound_to 10162
  157.6760  130.9890  150.1856 H   0  0  0  0  0  0  0  0  0  0  0  0  # atno 10718 bound_to 10713
  153.1003  135.4816  154.8855 H   0  0  0  0  0  0  0  0  0  0  0  0  # atno 10763 bound_to 10752
  154.7371  135.3073  154.8794 H   0  0  0  0  0  0  0  0  0  0  0  0  # atno 10764 bound_to 10752
  153.9413  135.6834  153.4797 H   0  0  0  0  0  0  0  0  0  0  0  0  # atno 10765 bound_to 10752
  139.8774  134.9190  156.4933 H   0  0  0  0  0  0  0  0  0  0  0  0  # atno 11005 bound_to 11000
  146.1733  140.6611  142.9223 LP  0  0  0  0  0  0  0  0  0  0  0  0  # atno 17320 bound_to 7965
  144.7405  140.4928  143.6873 LP  0  0  0  0  0  0  0  0  0  0  0  0  # atno 17321 bound_to 7965
  140.7564  143.3065  151.2949 LP  0  0  0  0  0  0  0  0  0  0  0  0  # atno 17342 bound_to 10162
  139.6581  144.0240  152.2673 LP  0  0  0  0  0  0  0  0  0  0  0  0  # atno 17343 bound_to 10162
  156.2579  130.3707  149.8162 LP  0  0  0  0  0  0  0  0  0  0  0  0  # atno 17370 bound_to 10713
  156.5916  130.8509  151.3409 LP  0  0  0  0  0  0  0  0  0  0  0  0  # atno 17371 bound_to 10713
  140.8643  133.8036  155.9297 LP  0  0  0  0  0  0  0  0  0  0  0  0  # atno 17394 bound_to 11000
  140.9018  134.2369  157.5037 LP  0  0  0  0  0  0  0  0  0  0  0  0  # atno 17395 bound_to 11000

$$$$
