AV-unprocessed.smi:1669|AV-procd|sdf|6683|dock3
  -GOLD-   22720 7403D 1   1.00000     0.00000
 Structure written by MMmdl.
 48 50  0  0  0  0  0  0  0  0  2 V2000
  146.3528  136.9489  154.8053 C   0  0  0  0  0  0  0  0  0  0  0  0
  146.8022  137.4671  153.4919 N   0  3  1  0  0  0  0  0  0  0  0  0
  145.7487  137.3750  152.4477 C   0  0  0  0  0  0  0  0  0  0  0  0
  145.5431  135.9478  151.9743 C   0  0  0  0  0  0  0  0  0  0  0  0
  146.2040  134.8876  152.6295 C   0  0  0  0  0  0  0  0  0  0  0  0
  146.0137  133.5607  152.1972 C   0  0  0  0  0  0  0  0  0  0  0  0
  145.1642  133.2894  151.1072 C   0  0  0  0  0  0  0  0  0  0  0  0
  144.5057  134.3458  150.4484 C   0  0  0  0  0  0  0  0  0  0  0  0
  144.6952  135.6729  150.8801 C   0  0  0  0  0  0  0  0  0  0  0  0
  147.3873  138.8271  153.5985 C   0  0  0  0  0  0  0  0  0  0  0  0
  148.4953  138.8944  154.6728 C   0  0  2  0  0  0  0  0  0  0  0  0
  147.9122  139.2633  155.9059 O   0  0  0  0  0  0  0  0  0  0  0  0
  149.6145  139.9047  154.3519 C   0  0  0  0  0  0  0  0  0  0  0  0
  150.6669  139.9056  155.3598 N   0  0  0  0  0  0  0  0  0  0  0  0
  151.7753  139.1242  155.4311 C   0  0  0  0  0  0  0  0  0  0  0  0
  152.0939  138.0836  154.4018 C   0  0  0  0  0  0  0  0  0  0  0  0
  151.8776  136.7701  154.8705 O   0  0  0  0  0  0  0  0  0  0  0  0
  152.5656  139.3346  156.4840 N   0  0  0  0  0  0  0  0  0  0  0  0
  151.9190  140.3557  157.1520 C   0  0  0  0  0  0  0  0  0  0  0  0
  152.2546  141.0276  158.3490 C   0  0  0  0  0  0  0  0  0  0  0  0
  151.4262  142.0546  158.8469 C   0  0  0  0  0  0  0  0  0  0  0  0
  150.2545  142.4252  158.1560 C   0  0  0  0  0  0  0  0  0  0  0  0
  149.9019  141.7684  156.9616 C   0  0  0  0  0  0  0  0  0  0  0  0
  150.7298  140.7408  156.4710 C   0  0  0  0  0  0  0  0  0  0  0  0
  145.5321  137.5482  155.2017 H   0  0  0  0  0  0  0  0  0  0  0  0
  147.1698  136.9675  155.5273 H   0  0  0  0  0  0  0  0  0  0  0  0
  146.0164  135.9150  154.7289 H   0  0  0  0  0  0  0  0  0  0  0  0
  144.8124  137.7911  152.8236 H   0  0  0  0  0  0  0  0  0  0  0  0
  146.0146  137.9740  151.5766 H   0  0  0  0  0  0  0  0  0  0  0  0
  146.8567  135.0889  153.4667 H   0  0  0  0  0  0  0  0  0  0  0  0
  146.5192  132.7506  152.7019 H   0  0  0  0  0  0  0  0  0  0  0  0
  145.0185  132.2717  150.7759 H   0  0  0  0  0  0  0  0  0  0  0  0
  143.8546  134.1380  149.6119 H   0  0  0  0  0  0  0  0  0  0  0  0
  144.1854  136.4772  150.3702 H   0  0  0  0  0  0  0  0  0  0  0  0
  147.7634  139.1147  152.6160 H   0  0  0  0  0  0  0  0  0  0  0  0
  146.6161  139.5574  153.8487 H   0  0  0  0  0  0  0  0  0  0  0  0
  148.9474  137.9129  154.8093 H   0  0  0  0  0  0  0  0  0  0  0  0
  148.2104  138.6652  156.5747 H   0  0  0  0  0  0  0  0  0  0  0  0
  150.0413  139.6999  153.3708 H   0  0  0  0  0  0  0  0  0  0  0  0
  149.2028  140.9135  154.2975 H   0  0  0  0  0  0  0  0  0  0  0  0
  151.4716  138.2448  153.5208 H   0  0  0  0  0  0  0  0  0  0  0  0
  153.1291  138.1904  154.0777 H   0  0  0  0  0  0  0  0  0  0  0  0
  151.1353  136.7771  155.4554 H   0  0  0  0  0  0  0  0  0  0  0  0
  153.1514  140.7536  158.8849 H   0  0  0  0  0  0  0  0  0  0  0  0
  151.6926  142.5622  159.7626 H   0  0  0  0  0  0  0  0  0  0  0  0
  149.6276  143.2152  158.5429 H   0  0  0  0  0  0  0  0  0  0  0  0
  149.0066  142.0535  156.4292 H   0  0  0  0  0  0  0  0  0  0  0  0
  147.5593  136.8665  153.1965 H   0  0  0  0  0  0  0  0  0  0  0  0
  1  2  1  0  0  0  0
  1 25  1  0  0  0  0
  1 26  1  0  0  0  0
  1 27  1  0  0  0  0
  2  3  1  0  0  0  0
  2 10  1  0  0  0  0
  2 48  1  0  0  0  0
  3  4  1  0  0  0  0
  3 28  1  0  0  0  0
  3 29  1  0  0  0  0
  4  9  1  0  0  0  0
  4  5  2  0  0  0  0
  5  6  1  0  0  0  0
  5 30  1  0  0  0  0
  6  7  2  0  0  0  0
  6 31  1  0  0  0  0
  7  8  1  0  0  0  0
  7 32  1  0  0  0  0
  8  9  2  0  0  0  0
  8 33  1  0  0  0  0
  9 34  1  0  0  0  0
 10 11  1  0  0  0  0
 10 35  1  0  0  0  0
 10 36  1  0  0  0  0
 11 12  1  0  0  0  0
 11 13  1  0  0  0  0
 11 37  1  0  0  0  0
 12 38  1  0  0  0  0
 13 14  1  0  0  0  0
 13 39  1  0  0  0  0
 13 40  1  0  0  0  0
 14 24  1  0  0  0  0
 14 15  1  0  0  0  0
 15 16  1  0  0  0  0
 15 18  2  0  0  0  0
 16 17  1  0  0  0  0
 16 41  1  0  0  0  0
 16 42  1  0  0  0  0
 17 43  1  0  0  0  0
 18 19  1  0  0  0  0
 19 24  2  0  0  0  0
 19 20  1  0  0  0  0
 20 21  2  0  0  0  0
 20 44  1  0  0  0  0
 21 22  1  0  0  0  0
 21 45  1  0  0  0  0
 22 23  2  0  0  0  0
 22 46  1  0  0  0  0
 23 24  1  0  0  0  0
 23 47  1  0  0  0  0
M  CHG  1   2   1
M  END
> <s_m_source_file>
AV-unprocessed.smi

> <i_m_source_file_index>
1669

> <i_lp_mmshare_version>
43012

> <i_f3d_flags>
0

> <s_epik_input>
W2NIXTFbY0hdW2NIXVtjSF1bY0hdYzFbQ0gyXU4oW0NIM10pW0NIMl1bQ0BIXShbT0hdKVtDSDJdbihjKG4yKVtDSDJdW09IXSljKGMyMylbY0hdW2NIXVtjSF1bY0hdMw==

> <s_epik_cmdline>
J2VwaWtfcHl0aG9uJywgJy1waCcsICc3LjAnLCAnLXRuJywgJzgnLCAnLW1hJywgJzIwMCcsICctbWV0YWxfYmluZGluZycsICctaW1hZScsICc8aW5maWxlLm1hZT4nLCAnLW9tYWUnLCAnPG91dGZpbGUubWFlPic=

> <r_epik_Ionization_Penalty>
0.0949884

> <r_epik_Ionization_Penalty_Charging>
0.0475377

> <r_epik_Ionization_Penalty_Neutral>
0.0474507

> <r_epik_State_Penalty>
0.078247

> <r_epik_Charging_Adjusted_Penalty>
0.125785

> <i_epik_Tot_Q>
1

> <i_epik_Tot_abs_Q>
1

> <r_epik_Metal_State_Penalty>
0.0403451

> <b_epik_Metal_Only>
0

> <s_lp_Force_Field>
OPLS_2005

> <r_lp_Energy>
16.111

> <b_lp_Chiralities_Consistent>
1

> <s_lp_Variant>
AV-unprocessed.smi:1669-1

> <Gold.Version>
5.8.1

> <Gold.Id.Protein>
6NUR|6NUR_protein|mol2

> <Gold.PLP.Fitness>
51.3548

> <Gold.PLP.PLP>
-41.5840

> <Gold.PLP.part.hbond>
-3.0000

> <Gold.PLP.part.metal>
0.0000

> <Gold.PLP.part.buried>
-2.3485

> <Gold.PLP.part.nonpolar>
-36.4175

> <Gold.PLP.part.repulsive>
0.0095

> <Gold.PLP.ligand.clash>
0.0045

> <Gold.PLP.ligand.torsion>
1.1503

> <Gold.PLP.Chemscore.Hbond>
4.0000

> <Gold.PLP.Chemscore.CHOScore>
0.0000

> <Gold.PLP.Chemscore.Metal>
0.0000

> <Gold.Chemscore.Hbonds>
donor molecule, donor type, donor heavy atom, donor atom, acceptor molecule, acceptor atom, score
      L1  H     2    48       P1  7948  1.98
      P1  H  7997  8008       L1    18  1.00
      P1  H 10752 10764       L1    17  1.00

> <Gold.PLP.Chemscore.Internal.Correction>
0.0759

> <Gold.Rescore>
     Score         DG    S(hbond)    S(metal)    S(lipo)     H(rot)  DE(clash)    DE(int)     intcor
     14.87     -18.46       2.71        0.00     103.08       3.17       0.11       3.49       ----

> <Gold.Chemscore.Fitness>
14.8712

> <Gold.Chemscore.DG>
-18.4628

> <Gold.Chemscore.ZeroCoef>
-5.4800

> <Gold.Chemscore.Hbond>
2.7083

> <Gold.Chemscore.Metal>
0.0000

> <Gold.Chemscore.Lipo>
103.0765

> <Gold.Chemscore.Internal_Hbond>
0.0000

> <Gold.Chemscore.DEClash>
0.1058

> <Gold.Chemscore.DEInternal>
3.4858

> <Gold.Chemscore.Rot>
3.1731

> <Gold.Chemscore.Internal.Correction>
   9.000000E+99

> <Gold.Chemscore.Hbonds>
donor molecule, donor type, donor heavy atom, donor atom, acceptor molecule, acceptor atom, score
      L1  H     2    48       P1  7948  0.91
      P1  H  7997  8008       L1    18  0.28
      P1  H 10752 10764       L1    17  0.93

> <Gold.Chemscore.Hbond.Weighted>
-9.0459

> <Gold.Chemscore.Metal.Weighted>
-0.0000

> <Gold.Chemscore.Lipo.Weighted>
-12.0600

> <Gold.Chemscore.Internal_Hbond.Weighted>
0.0000

> <Gold.Chemscore.DEClash.Weighted>
0.1058

> <Gold.Chemscore.DEInternal.Weighted>
3.4858

> <Gold.Chemscore.Rot.Weighted>
8.1230

> <Gold.Chemscore.Internal.Correction.Weighted>
   9.000000E+99

> <Gold.Protein.RotatedTorsions>
[ 6907 6896 6895 6894 ] final  128.40 input  -60.11 | X-H torsion
[ 7974 7965 7964 7962 ] final  -59.29 input  175.53 | X-H torsion
[ 8008 7997 7996 7995 ] final  -33.91 input   59.86 | X-H torsion
[ 10167 10162 10161 10158 ] final  174.84 input  -65.29 | X-H torsion
[ 10718 10713 10712 10709 ] final  -64.43 input   66.30 | X-H torsion
[ 10763 10752 10751 10750 ] final  -68.77 input  -60.55 | X-H torsion
[ 11005 11000 10999 10996 ] final -130.41 input  -57.11 | X-H torsion

> <Gold.Protein.ActiveResidues>
 VAL166  LYS551  ARG553  GLY616  TRP617  ASP618  TYR619  PRO620  LYS621  CYS622 
 ASP623  PHE694  ASN695  SER759  ASP760  ASP761  ALA762  ILE779  LEU786  VAL792 
 PHE793  MET794  SER795  GLU796  ALA797  LYS798  CYS799  TRP800  GLU811  SER814 

> <Gold.Protein.RotatedAtoms>
  152.3723  133.6435  159.6096 H   0  0  0  0  0  0  0  0  0  0  0  0  # atno 6907 bound_to 6896
  150.7677  133.9251  159.3418 H   0  0  0  0  0  0  0  0  0  0  0  0  # atno 6908 bound_to 6896
  151.7071  135.0920  160.0312 H   0  0  0  0  0  0  0  0  0  0  0  0  # atno 6909 bound_to 6896
  145.8292  140.8490  143.0092 H   0  0  0  0  0  0  0  0  0  0  0  0  # atno 7974 bound_to 7965
  154.4135  140.1698  156.1964 H   0  0  0  0  0  0  0  0  0  0  0  0  # atno 8008 bound_to 7997
  155.9561  140.3397  155.6426 H   0  0  0  0  0  0  0  0  0  0  0  0  # atno 8009 bound_to 7997
  155.6808  140.0722  157.2476 H   0  0  0  0  0  0  0  0  0  0  0  0  # atno 8010 bound_to 7997
  139.5156  144.3101  152.0300 H   0  0  0  0  0  0  0  0  0  0  0  0  # atno 10167 bound_to 10162
  156.0730  130.4233  150.1419 H   0  0  0  0  0  0  0  0  0  0  0  0  # atno 10718 bound_to 10713
  154.3938  135.6046  153.5858 H   0  0  0  0  0  0  0  0  0  0  0  0  # atno 10763 bound_to 10752
  152.9787  135.5890  154.4266 H   0  0  0  0  0  0  0  0  0  0  0  0  # atno 10764 bound_to 10752
  154.4054  135.2843  155.2048 H   0  0  0  0  0  0  0  0  0  0  0  0  # atno 10765 bound_to 10752
  140.9348  134.1271  157.4203 H   0  0  0  0  0  0  0  0  0  0  0  0  # atno 11005 bound_to 11000
  144.6741  140.0647  143.7475 LP  0  0  0  0  0  0  0  0  0  0  0  0  # atno 17320 bound_to 7965
  145.9589  139.2786  143.1167 LP  0  0  0  0  0  0  0  0  0  0  0  0  # atno 17321 bound_to 7965
  140.2546  144.4133  150.6209 LP  0  0  0  0  0  0  0  0  0  0  0  0  # atno 17342 bound_to 10162
  140.6201  143.2175  151.6712 LP  0  0  0  0  0  0  0  0  0  0  0  0  # atno 17343 bound_to 10162
  156.9466  130.9761  151.3506 LP  0  0  0  0  0  0  0  0  0  0  0  0  # atno 17370 bound_to 10713
  157.5811  130.8377  149.8523 LP  0  0  0  0  0  0  0  0  0  0  0  0  # atno 17371 bound_to 10713
  139.8805  135.0017  156.6084 LP  0  0  0  0  0  0  0  0  0  0  0  0  # atno 17394 bound_to 11000
  140.7814  133.8657  155.8570 LP  0  0  0  0  0  0  0  0  0  0  0  0  # atno 17395 bound_to 11000

$$$$
