AV-unprocessed.smi:2253|AV-procd|sdf|9117|dock3
  -GOLD-   2272012323D 1   1.00000     0.00000
 Structure written by MMmdl.
 52 54  0  0  0  0  0  0  0  0  3 V2000
  143.1122  145.8861  155.4490 C   0  0  0  0  0  0  0  0  0  0  0  0
  143.6877  144.6070  154.9795 N   0  3  2  0  0  0  0  0  0  0  0  0
  143.8348  143.6176  156.0712 C   0  0  0  0  0  0  0  0  0  0  0  0
  144.3154  142.2598  155.5308 C   0  0  0  0  0  0  0  0  0  0  0  0
  145.6463  142.3696  154.7427 C   0  0  1  0  0  0  0  0  0  0  0  0
  146.0773  141.0636  154.1344 N   0  3  2  0  0  0  0  0  0  0  0  0
  146.2189  139.9171  155.0782 C   0  0  0  0  0  0  0  0  0  0  0  0
  147.4562  140.0714  155.9825 C   0  0  0  0  0  0  0  0  0  0  0  0
  148.7357  140.1880  155.1362 C   0  0  2  0  0  0  0  0  0  0  0  0
  149.8885  140.4193  156.0023 N   0  0  0  0  0  0  0  0  0  0  0  0
  149.9269  141.3020  157.0117 C   0  0  0  0  0  0  0  0  0  0  0  0
  148.9633  141.9956  157.3341 O   0  0  0  0  0  0  0  0  0  0  0  0
  151.1362  141.3128  157.5994 N   0  0  0  0  0  0  0  0  0  0  0  0
  151.6187  142.1056  158.6795 C   0  0  0  0  0  0  0  0  0  0  0  0
  151.2080  143.4327  158.9592 C   0  0  0  0  0  0  0  0  0  0  0  0
  151.7778  144.0978  160.0637 C   0  0  0  0  0  0  0  0  0  0  0  0
  152.6994  143.5392  160.8759 N   0  0  0  0  0  0  0  0  0  0  0  0
  153.0897  142.2759  160.6067 C   0  0  0  0  0  0  0  0  0  0  0  0
  152.5837  141.5226  159.5286 C   0  0  0  0  0  0  0  0  0  0  0  0
  153.0217  140.2580  159.3150 F   0  0  0  0  0  0  0  0  0  0  0  0
  148.5838  141.3155  154.0958 C   0  0  0  0  0  0  0  0  0  0  0  0
  147.2921  141.1432  153.2711 C   0  0  0  0  0  0  0  0  0  0  0  0
  145.4657  143.4654  153.6619 C   0  0  0  0  0  0  0  0  0  0  0  0
  144.9611  144.7951  154.2474 C   0  0  0  0  0  0  0  0  0  0  0  0
  143.7705  146.3716  156.1707 H   0  0  0  0  0  0  0  0  0  0  0  0
  142.1448  145.7217  155.9249 H   0  0  0  0  0  0  0  0  0  0  0  0
  142.9582  146.5690  154.6130 H   0  0  0  0  0  0  0  0  0  0  0  0
  144.5369  143.9957  156.8163 H   0  0  0  0  0  0  0  0  0  0  0  0
  142.8767  143.4884  156.5765 H   0  0  0  0  0  0  0  0  0  0  0  0
  144.4261  141.5991  156.3900 H   0  0  0  0  0  0  0  0  0  0  0  0
  143.5413  141.8266  154.8956 H   0  0  0  0  0  0  0  0  0  0  0  0
  146.4139  142.6998  155.4427 H   0  0  0  0  0  0  0  0  0  0  0  0
  145.3178  139.7502  155.6651 H   0  0  0  0  0  0  0  0  0  0  0  0
  146.3281  139.0066  154.4871 H   0  0  0  0  0  0  0  0  0  0  0  0
  147.3437  140.9463  156.6242 H   0  0  0  0  0  0  0  0  0  0  0  0
  147.5319  139.2112  156.6490 H   0  0  0  0  0  0  0  0  0  0  0  0
  148.8763  139.2418  154.6095 H   0  0  0  0  0  0  0  0  0  0  0  0
  150.7244  139.8882  155.8047 H   0  0  0  0  0  0  0  0  0  0  0  0
  151.8135  140.6688  157.2178 H   0  0  0  0  0  0  0  0  0  0  0  0
  150.4801  143.9585  158.3630 H   0  0  0  0  0  0  0  0  0  0  0  0
  151.4844  145.1100  160.3003 H   0  0  0  0  0  0  0  0  0  0  0  0
  153.8291  141.8528  161.2705 H   0  0  0  0  0  0  0  0  0  0  0  0
  148.5874  142.2874  154.5900 H   0  0  0  0  0  0  0  0  0  0  0  0
  149.4421  141.3185  153.4232 H   0  0  0  0  0  0  0  0  0  0  0  0
  147.3613  140.2150  152.7019 H   0  0  0  0  0  0  0  0  0  0  0  0
  147.2138  141.9240  152.5182 H   0  0  0  0  0  0  0  0  0  0  0  0
  146.4035  143.6769  153.1516 H   0  0  0  0  0  0  0  0  0  0  0  0
  144.7687  143.1182  152.8975 H   0  0  0  0  0  0  0  0  0  0  0  0
  144.8140  145.5141  153.4403 H   0  0  0  0  0  0  0  0  0  0  0  0
  145.7105  145.2200  154.9175 H   0  0  0  0  0  0  0  0  0  0  0  0
  145.3206  140.8039  153.5175 H   0  0  0  0  0  0  0  0  0  0  0  0
  143.0251  144.2218  154.3212 H   0  0  0  0  0  0  0  0  0  0  0  0
  1  2  1  0  0  0  0
  1 25  1  0  0  0  0
  1 26  1  0  0  0  0
  1 27  1  0  0  0  0
  2 24  1  0  0  0  0
  2  3  1  0  0  0  0
  2 52  1  0  0  0  0
  3  4  1  0  0  0  0
  3 28  1  0  0  0  0
  3 29  1  0  0  0  0
  4  5  1  0  0  0  0
  4 30  1  0  0  0  0
  4 31  1  0  0  0  0
  5  6  1  0  0  0  0
  5 23  1  0  0  0  0
  5 32  1  0  0  0  0
  6 22  1  0  0  0  0
  6  7  1  0  0  0  0
  6 51  1  0  0  0  0
  7  8  1  0  0  0  0
  7 33  1  0  0  0  0
  7 34  1  0  0  0  0
  8  9  1  0  0  0  0
  8 35  1  0  0  0  0
  8 36  1  0  0  0  0
  9 10  1  0  0  0  0
  9 21  1  0  0  0  0
  9 37  1  0  0  0  0
 10 11  1  0  0  0  0
 10 38  1  0  0  0  0
 11 12  2  0  0  0  0
 11 13  1  0  0  0  0
 13 14  1  0  0  0  0
 13 39  1  0  0  0  0
 14 19  1  0  0  0  0
 14 15  2  0  0  0  0
 15 16  1  0  0  0  0
 15 40  1  0  0  0  0
 16 17  2  0  0  0  0
 16 41  1  0  0  0  0
 17 18  1  0  0  0  0
 18 19  2  0  0  0  0
 18 42  1  0  0  0  0
 19 20  1  0  0  0  0
 21 22  1  0  0  0  0
 21 43  1  0  0  0  0
 21 44  1  0  0  0  0
 22 45  1  0  0  0  0
 22 46  1  0  0  0  0
 23 24  1  0  0  0  0
 23 47  1  0  0  0  0
 23 48  1  0  0  0  0
 24 49  1  0  0  0  0
 24 50  1  0  0  0  0
M  CHG  1   2   1
M  CHG  1   6   1
M  END
> <s_m_source_file>
AV-unprocessed.smi

> <i_m_source_file_index>
2253

> <i_lp_mmshare_version>
43012

> <i_f3d_flags>
0

> <s_epik_input>
W0NIM11OMVtDSDJdW0NIMl1bQ0hdKFtDSDJdW0NIMl0xKU4yW0NIMl1bQ0gyXVtDSF0oW0NIMl1bQ0gyXTIpW05IXUMoPU8pW05IXWMzW2NIXVtjSF1uW2NIXWMzRg==

> <s_epik_cmdline>
J2VwaWtfcHl0aG9uJywgJy1waCcsICc3LjAnLCAnLXRuJywgJzgnLCAnLW1hJywgJzIwMCcsICctbWV0YWxfYmluZGluZycsICctaW1hZScsICc8aW5maWxlLm1hZT4nLCAnLW9tYWUnLCAnPG91dGZpbGUubWFlPic=

> <r_epik_Ionization_Penalty>
0.183544

> <r_epik_Ionization_Penalty_Charging>
0.180787

> <r_epik_Ionization_Penalty_Neutral>
0.00275649

> <r_epik_State_Penalty>
0.153592

> <r_epik_Charging_Adjusted_Penalty>
0.334379

> <i_epik_Tot_Q>
2

> <i_epik_Tot_abs_Q>
2

> <r_epik_Metal_State_Penalty>
0.153693

> <b_epik_Metal_Only>
0

> <s_lp_Force_Field>
OPLS_2005

> <r_lp_Energy>
48.1083

> <b_lp_Chiralities_Consistent>
1

> <s_lp_Variant>
AV-unprocessed.smi:2253-3

> <Gold.Version>
5.8.1

> <Gold.Id.Protein>
6NUR|6NUR_protein|mol2

> <Gold.PLP.Fitness>
43.3926

> <Gold.PLP.PLP>
-38.1968

> <Gold.PLP.part.hbond>
-1.0000

> <Gold.PLP.part.metal>
0.0000

> <Gold.PLP.part.buried>
-7.2640

> <Gold.PLP.part.nonpolar>
-30.8745

> <Gold.PLP.part.repulsive>
0.4883

> <Gold.PLP.ligand.clash>
0.0000

> <Gold.PLP.ligand.torsion>
0.4260

> <Gold.PLP.Chemscore.Hbond>
2.0000

> <Gold.PLP.Chemscore.CHOScore>
0.0000

> <Gold.PLP.Chemscore.Metal>
0.0000

> <Gold.Chemscore.Hbonds>
donor molecule, donor type, donor heavy atom, donor atom, acceptor molecule, acceptor atom, score
      L1  H     6    51       P1 10175  2.00

> <Gold.PLP.Chemscore.Internal.Correction>
0.0479

> <Gold.Rescore>
     Score         DG    S(hbond)    S(metal)    S(lipo)     H(rot)  DE(clash)    DE(int)     intcor
     18.77     -20.88       1.87        0.00     105.62       1.26       0.17       1.94       ----

> <Gold.Chemscore.Fitness>
18.7668

> <Gold.Chemscore.DG>
-20.8811

> <Gold.Chemscore.ZeroCoef>
-5.4800

> <Gold.Chemscore.Hbond>
1.8740

> <Gold.Chemscore.Metal>
0.0000

> <Gold.Chemscore.Lipo>
105.6159

> <Gold.Chemscore.Internal_Hbond>
0.0000

> <Gold.Chemscore.DEClash>
0.1722

> <Gold.Chemscore.DEInternal>
1.9421

> <Gold.Chemscore.Rot>
1.2559

> <Gold.Chemscore.Internal.Correction>
   9.000000E+99

> <Gold.Chemscore.Hbonds>
donor molecule, donor type, donor heavy atom, donor atom, acceptor molecule, acceptor atom, score
      L1  H     6    51       P1 10175  0.84

> <Gold.Chemscore.Hbond.Weighted>
-6.2592

> <Gold.Chemscore.Metal.Weighted>
-0.0000

> <Gold.Chemscore.Lipo.Weighted>
-12.3571

> <Gold.Chemscore.Internal_Hbond.Weighted>
0.0000

> <Gold.Chemscore.DEClash.Weighted>
0.1722

> <Gold.Chemscore.DEInternal.Weighted>
1.9421

> <Gold.Chemscore.Rot.Weighted>
3.2151

> <Gold.Chemscore.Internal.Correction.Weighted>
   9.000000E+99

> <Gold.Protein.RotatedTorsions>
[ 6907 6896 6895 6894 ] final  175.83 input  -60.11 | X-H torsion
[ 7974 7965 7964 7962 ] final  -94.52 input  175.53 | X-H torsion
[ 8008 7997 7996 7995 ] final   76.95 input   59.86 | X-H torsion
[ 10167 10162 10161 10158 ] final  151.71 input  -65.29 | X-H torsion
[ 10718 10713 10712 10709 ] final   18.48 input   66.30 | X-H torsion
[ 10763 10752 10751 10750 ] final -165.95 input  -60.55 | X-H torsion
[ 11005 11000 10999 10996 ] final -119.19 input  -57.11 | X-H torsion

> <Gold.Protein.ActiveResidues>
 VAL166  LYS551  ARG553  GLY616  TRP617  ASP618  TYR619  PRO620  LYS621  CYS622 
 ASP623  PHE694  ASN695  SER759  ASP760  ASP761  ALA762  ILE779  LEU786  VAL792 
 PHE793  MET794  SER795  GLU796  ALA797  LYS798  CYS799  TRP800  GLU811  SER814 

> <Gold.Protein.RotatedAtoms>
  151.7299  133.3317  159.3337 H   0  0  0  0  0  0  0  0  0  0  0  0  # atno 6907 bound_to 6896
  150.7617  134.6373  159.6227 H   0  0  0  0  0  0  0  0  0  0  0  0  # atno 6908 bound_to 6896
  152.3598  134.6890  160.0262 H   0  0  0  0  0  0  0  0  0  0  0  0  # atno 6909 bound_to 6896
  145.3723  140.9507  143.2440 H   0  0  0  0  0  0  0  0  0  0  0  0  # atno 7974 bound_to 7965
  155.8346  140.3465  155.5594 H   0  0  0  0  0  0  0  0  0  0  0  0  # atno 8008 bound_to 7997
  155.8205  140.0912  157.1871 H   0  0  0  0  0  0  0  0  0  0  0  0  # atno 8009 bound_to 7997
  154.4004  140.1431  156.3482 H   0  0  0  0  0  0  0  0  0  0  0  0  # atno 8010 bound_to 7997
  139.4838  144.5418  151.7551 H   0  0  0  0  0  0  0  0  0  0  0  0  # atno 10167 bound_to 10162
  157.0969  130.6451  149.5862 H   0  0  0  0  0  0  0  0  0  0  0  0  # atno 10718 bound_to 10713
  154.6881  135.2966  154.9518 H   0  0  0  0  0  0  0  0  0  0  0  0  # atno 10763 bound_to 10752
  154.0491  135.6647  153.4802 H   0  0  0  0  0  0  0  0  0  0  0  0  # atno 10764 bound_to 10752
  153.0593  135.5125  154.7959 H   0  0  0  0  0  0  0  0  0  0  0  0  # atno 10765 bound_to 10752
  141.0233  134.0091  157.3251 H   0  0  0  0  0  0  0  0  0  0  0  0  # atno 11005 bound_to 11000
  144.8568  139.5238  143.6831 LP  0  0  0  0  0  0  0  0  0  0  0  0  # atno 17320 bound_to 7965
  146.2880  139.7058  142.9181 LP  0  0  0  0  0  0  0  0  0  0  0  0  # atno 17321 bound_to 7965
  140.4959  144.1241  150.5960 LP  0  0  0  0  0  0  0  0  0  0  0  0  # atno 17342 bound_to 10162
  140.4118  143.2653  151.9823 LP  0  0  0  0  0  0  0  0  0  0  0  0  # atno 17343 bound_to 10162
  155.9883  130.4926  150.7166 LP  0  0  0  0  0  0  0  0  0  0  0  0  # atno 17370 bound_to 10713
  157.4674  131.0889  151.0680 LP  0  0  0  0  0  0  0  0  0  0  0  0  # atno 17371 bound_to 10713
  139.9160  135.0196  156.7881 LP  0  0  0  0  0  0  0  0  0  0  0  0  # atno 17394 bound_to 11000
  140.6535  133.9710  155.7767 LP  0  0  0  0  0  0  0  0  0  0  0  0  # atno 17395 bound_to 11000

$$$$
