AV-unprocessed.smi:1347|AV-procd|sdf|5516|dock10
  -GOLD-   22720 5103D 1   1.00000     0.00000
 Structure written by MMmdl.
 38 39  0  0  0  0  0  0  0  0  1 V2000
  153.6643  136.6968  163.9588 C   0  0  0  0  0  0  0  0  0  0  0  0
  153.7585  137.6283  162.8957 O   0  0  0  0  0  0  0  0  0  0  0  0
  154.3339  137.0610  161.7301 C   0  0  0  0  0  0  0  0  0  0  0  0
  153.4661  137.4136  160.5231 C   0  0  0  0  0  0  0  0  0  0  0  0
  152.9024  136.5262  159.8830 O   0  0  0  0  0  0  0  0  0  0  0  0
  153.3573  138.7179  160.2304 N   0  0  0  0  0  0  0  0  0  0  0  0
  152.5336  139.2742  159.1624 C   0  0  0  0  0  0  0  0  0  0  0  0
  152.5261  140.7992  159.1257 C   0  0  0  0  0  0  0  0  0  0  0  0
  153.1550  141.5208  160.1624 C   0  0  0  0  0  0  0  0  0  0  0  0
  153.1479  142.9269  160.1234 C   0  0  0  0  0  0  0  0  0  0  0  0
  152.5066  143.5613  159.0438 C   0  0  0  0  0  0  0  0  0  0  0  0
  151.8986  142.8869  158.0456 N   0  0  0  0  0  0  0  0  0  0  0  0
  151.9058  141.5322  158.0803 C   0  0  0  0  0  0  0  0  0  0  0  0
  151.2677  140.8585  157.0271 N   0  0  0  0  0  0  0  0  0  0  0  0
  150.4514  141.7128  156.1760 C   0  0  0  0  0  0  0  0  0  0  0  0
  149.6668  140.8486  155.1732 C   0  0  0  0  0  0  0  0  0  0  0  0
  150.5710  140.0351  154.4297 O   0  0  0  0  0  0  0  0  0  0  0  0
  151.3179  139.1559  155.2668 C   0  0  0  0  0  0  0  0  0  0  0  0
  152.1463  139.9788  156.2674 C   0  0  0  0  0  0  0  0  0  0  0  0
  153.2223  137.1790  164.8307 H   0  0  0  0  0  0  0  0  0  0  0  0
  154.6486  136.3229  164.2437 H   0  0  0  0  0  0  0  0  0  0  0  0
  153.0330  135.8501  163.6861 H   0  0  0  0  0  0  0  0  0  0  0  0
  155.3383  137.4554  161.5686 H   0  0  0  0  0  0  0  0  0  0  0  0
  154.4134  135.9774  161.8362 H   0  0  0  0  0  0  0  0  0  0  0  0
  153.8581  139.3767  160.8086 H   0  0  0  0  0  0  0  0  0  0  0  0
  152.9162  138.9073  158.2097 H   0  0  0  0  0  0  0  0  0  0  0  0
  151.5157  138.8911  159.2494 H   0  0  0  0  0  0  0  0  0  0  0  0
  153.6420  141.0055  160.9772 H   0  0  0  0  0  0  0  0  0  0  0  0
  153.6238  143.5047  160.9016 H   0  0  0  0  0  0  0  0  0  0  0  0
  152.4804  144.6390  158.9804 H   0  0  0  0  0  0  0  0  0  0  0  0
  149.7631  142.2964  156.7885 H   0  0  0  0  0  0  0  0  0  0  0  0
  151.0887  142.4181  155.6410 H   0  0  0  0  0  0  0  0  0  0  0  0
  148.9379  140.2210  155.6885 H   0  0  0  0  0  0  0  0  0  0  0  0
  149.1100  141.4833  154.4838 H   0  0  0  0  0  0  0  0  0  0  0  0
  150.6452  138.4735  155.7890 H   0  0  0  0  0  0  0  0  0  0  0  0
  151.9743  138.5449  154.6468 H   0  0  0  0  0  0  0  0  0  0  0  0
  152.8911  140.5709  155.7340 H   0  0  0  0  0  0  0  0  0  0  0  0
  152.6842  139.3153  156.9458 H   0  0  0  0  0  0  0  0  0  0  0  0
  1  2  1  0  0  0  0
  1 20  1  0  0  0  0
  1 21  1  0  0  0  0
  1 22  1  0  0  0  0
  2  3  1  0  0  0  0
  3  4  1  0  0  0  0
  3 23  1  0  0  0  0
  3 24  1  0  0  0  0
  4  5  2  0  0  0  0
  4  6  1  0  0  0  0
  6  7  1  0  0  0  0
  6 25  1  0  0  0  0
  7  8  1  0  0  0  0
  7 26  1  0  0  0  0
  7 27  1  0  0  0  0
  8 13  1  0  0  0  0
  8  9  2  0  0  0  0
  9 10  1  0  0  0  0
  9 28  1  0  0  0  0
 10 11  2  0  0  0  0
 10 29  1  0  0  0  0
 11 12  1  0  0  0  0
 11 30  1  0  0  0  0
 12 13  2  0  0  0  0
 13 14  1  0  0  0  0
 14 19  1  0  0  0  0
 14 15  1  0  0  0  0
 15 16  1  0  0  0  0
 15 31  1  0  0  0  0
 15 32  1  0  0  0  0
 16 17  1  0  0  0  0
 16 33  1  0  0  0  0
 16 34  1  0  0  0  0
 17 18  1  0  0  0  0
 18 19  1  0  0  0  0
 18 35  1  0  0  0  0
 18 36  1  0  0  0  0
 19 37  1  0  0  0  0
 19 38  1  0  0  0  0
M  END
> <s_m_source_file>
AV-unprocessed.smi

> <i_m_source_file_index>
1347

> <i_lp_mmshare_version>
43012

> <i_f3d_flags>
0

> <s_epik_input>
W0NIM11PW0NIMl1DKD1PKVtOSF1bQ0gyXWMxW2NIXVtjSF1bY0hdbmMxTjJbQ0gyXVtDSDJdT1tDSDJdW0NIMl0y

> <s_epik_cmdline>
J2VwaWtfcHl0aG9uJywgJy1waCcsICc3LjAnLCAnLXRuJywgJzgnLCAnLW1hJywgJzIwMCcsICctbWV0YWxfYmluZGluZycsICctaW1hZScsICc8aW5maWxlLm1hZT4nLCAnLW9tYWUnLCAnPG91dGZpbGUubWFlPic=

> <r_lp_tautomer_probability>
1

> <r_epik_Ionization_Penalty>
0.00422298

> <r_epik_Ionization_Penalty_Charging>
0

> <r_epik_Ionization_Penalty_Neutral>
0.00422298

> <r_epik_State_Penalty>
0.00303469

> <r_epik_Charging_Adjusted_Penalty>
0.00303469

> <i_epik_Tot_Q>
0

> <i_epik_Tot_abs_Q>
0

> <r_epik_Metal_State_Penalty>
-0

> <b_epik_Metal_Only>
0

> <s_lp_Force_Field>
OPLS_2005

> <r_lp_Energy>
19.5871

> <b_lp_Chiralities_Consistent>
1

> <s_lp_Variant>
AV-unprocessed.smi:1347-1

> <Gold.Version>
5.8.1

> <Gold.Id.Protein>
6NUR|6NUR_protein|mol2

> <Gold.PLP.Fitness>
44.1337

> <Gold.PLP.PLP>
-39.0340

> <Gold.PLP.part.hbond>
-2.0000

> <Gold.PLP.part.metal>
0.0000

> <Gold.PLP.part.buried>
-4.8776

> <Gold.PLP.part.nonpolar>
-31.9766

> <Gold.PLP.part.repulsive>
0.2098

> <Gold.PLP.ligand.clash>
0.0000

> <Gold.PLP.ligand.torsion>
0.5300

> <Gold.PLP.Chemscore.Hbond>
2.0000

> <Gold.PLP.Chemscore.CHOScore>
0.0000

> <Gold.PLP.Chemscore.Metal>
0.0000

> <Gold.Chemscore.Hbonds>
donor molecule, donor type, donor heavy atom, donor atom, acceptor molecule, acceptor atom, score
      P1  H  6896  6908       L1     5  1.00
      P1  H  7989  7998       L1    17  1.00

> <Gold.PLP.Chemscore.Internal.Correction>
0.1596

> <Gold.Rescore>
     Score         DG    S(hbond)    S(metal)    S(lipo)     H(rot)  DE(clash)    DE(int)     intcor
     15.57     -17.43       1.84        0.00      92.03       1.94       0.17       1.69       ----

> <Gold.Chemscore.Fitness>
15.5713

> <Gold.Chemscore.DG>
-17.4319

> <Gold.Chemscore.ZeroCoef>
-5.4800

> <Gold.Chemscore.Hbond>
1.8403

> <Gold.Chemscore.Metal>
0.0000

> <Gold.Chemscore.Lipo>
92.0342

> <Gold.Chemscore.Internal_Hbond>
0.0000

> <Gold.Chemscore.DEClash>
0.1697

> <Gold.Chemscore.DEInternal>
1.6909

> <Gold.Chemscore.Rot>
1.9385

> <Gold.Chemscore.Internal.Correction>
   9.000000E+99

> <Gold.Chemscore.Hbonds>
donor molecule, donor type, donor heavy atom, donor atom, acceptor molecule, acceptor atom, score
      P1  H  6896  6908       L1     5  0.98
      P1  H  7989  7998       L1    17  0.59

> <Gold.Chemscore.Hbond.Weighted>
-6.1466

> <Gold.Chemscore.Metal.Weighted>
-0.0000

> <Gold.Chemscore.Lipo.Weighted>
-10.7680

> <Gold.Chemscore.Internal_Hbond.Weighted>
0.0000

> <Gold.Chemscore.DEClash.Weighted>
0.1697

> <Gold.Chemscore.DEInternal.Weighted>
1.6909

> <Gold.Chemscore.Rot.Weighted>
4.9627

> <Gold.Chemscore.Internal.Correction.Weighted>
   9.000000E+99

> <Gold.Protein.RotatedTorsions>
[ 6907 6896 6895 6894 ] final  -74.55 input  -60.11 | X-H torsion
[ 7974 7965 7964 7962 ] final    2.74 input  175.53 | X-H torsion
[ 8008 7997 7996 7995 ] final  152.58 input   59.86 | X-H torsion
[ 10167 10162 10161 10158 ] final  -30.00 input  -65.29 | X-H torsion
[ 10718 10713 10712 10709 ] final  -42.81 input   66.30 | X-H torsion
[ 10763 10752 10751 10750 ] final  166.99 input  -60.55 | X-H torsion
[ 11005 11000 10999 10996 ] final   14.74 input  -57.11 | X-H torsion

> <Gold.Protein.ActiveResidues>
 VAL166  LYS551  ARG553  GLY616  TRP617  ASP618  TYR619  PRO620  LYS621  CYS622 
 ASP623  PHE694  ASN695  SER759  ASP760  ASP761  ALA762  ILE779  LEU786  VAL792 
 PHE793  MET794  SER795  GLU796  ALA797  LYS798  CYS799  TRP800  GLU811  SER814 

> <Gold.Protein.RotatedAtoms>
  150.7089  134.4853  159.5489 H   0  0  0  0  0  0  0  0  0  0  0  0  # atno 6907 bound_to 6896
  152.2481  134.8157  160.0459 H   0  0  0  0  0  0  0  0  0  0  0  0  # atno 6908 bound_to 6896
  151.8915  133.3482  159.3836 H   0  0  0  0  0  0  0  0  0  0  0  0  # atno 6909 bound_to 6896
  146.2444  140.0790  142.8358 H   0  0  0  0  0  0  0  0  0  0  0  0  # atno 7974 bound_to 7965
  156.2622  140.2017  156.6355 H   0  0  0  0  0  0  0  0  0  0  0  0  # atno 8008 bound_to 7997
  154.6650  140.0556  157.0128 H   0  0  0  0  0  0  0  0  0  0  0  0  # atno 8009 bound_to 7997
  155.1221  140.3225  155.4497 H   0  0  0  0  0  0  0  0  0  0  0  0  # atno 8010 bound_to 7997
  140.7254  143.3883  151.1475 H   0  0  0  0  0  0  0  0  0  0  0  0  # atno 10167 bound_to 10162
  156.2556  130.4192  149.8600 H   0  0  0  0  0  0  0  0  0  0  0  0  # atno 10718 bound_to 10713
  154.3471  135.2753  155.2392 H   0  0  0  0  0  0  0  0  0  0  0  0  # atno 10763 bound_to 10752
  154.4637  135.5900  153.6277 H   0  0  0  0  0  0  0  0  0  0  0  0  # atno 10764 bound_to 10752
  152.9853  135.6071  154.3678 H   0  0  0  0  0  0  0  0  0  0  0  0  # atno 10765 bound_to 10752
  140.4661  134.1078  155.7724 H   0  0  0  0  0  0  0  0  0  0  0  0  # atno 11005 bound_to 11000
  145.0749  140.9181  143.4859 LP  0  0  0  0  0  0  0  0  0  0  0  0  # atno 17320 bound_to 7965
  145.0931  139.2875  143.5724 LP  0  0  0  0  0  0  0  0  0  0  0  0  # atno 17321 bound_to 7965
  139.7484  143.8816  152.3070 LP  0  0  0  0  0  0  0  0  0  0  0  0  # atno 17342 bound_to 10162
  139.8661  144.7092  150.9042 LP  0  0  0  0  0  0  0  0  0  0  0  0  # atno 17343 bound_to 10162
  156.6133  130.8596  151.3459 LP  0  0  0  0  0  0  0  0  0  0  0  0  # atno 17370 bound_to 10713
  157.7231  130.9585  150.1521 LP  0  0  0  0  0  0  0  0  0  0  0  0  # atno 17371 bound_to 10713
  141.1599  133.8813  157.1877 LP  0  0  0  0  0  0  0  0  0  0  0  0  # atno 17394 bound_to 11000
  139.9914  135.0063  156.9984 LP  0  0  0  0  0  0  0  0  0  0  0  0  # atno 17395 bound_to 11000

$$$$
