AV-unprocessed.smi:773|AV-procd|sdf|3689|dock1
  -GOLD-   22720 1103D 1   1.00000     0.00000
 Structure written by MMmdl.
 39 40  0  0  0  0  0  0  0  0  1 V2000
  150.7814  137.2424  154.4317 C   0  0  0  0  0  0  0  0  0  0  0  0
  151.1829  138.5252  155.1005 C   0  0  0  0  0  0  0  0  0  0  0  0
  152.4445  138.7053  155.4529 N   0  0  0  0  0  0  0  0  0  0  0  0
  152.4993  139.9686  156.0486 O   0  0  0  0  0  0  0  0  0  0  0  0
  151.2545  140.5083  156.0270 C   0  0  0  0  0  0  0  0  0  0  0  0
  151.1067  141.8589  156.6416 C   0  0  0  0  0  0  0  0  0  0  0  0
  150.3710  139.6473  155.4344 C   0  0  0  0  0  0  0  0  0  0  0  0
  148.8906  139.8231  155.1992 C   0  0  0  0  0  0  0  0  0  0  0  0
  148.5188  139.9555  153.7060 C   0  0  2  0  0  0  0  0  0  0  0  0
  147.4407  141.0254  153.4849 C   0  0  0  0  0  0  0  0  0  0  0  0
  148.0534  138.6814  153.1571 N   0  0  0  0  0  0  0  0  0  0  0  0
  146.8029  138.2022  153.2384 C   0  0  0  0  0  0  0  0  0  0  0  0
  145.8754  138.7762  153.8099 O   0  0  0  0  0  0  0  0  0  0  0  0
  146.6793  137.0281  152.6066 N   0  0  0  0  0  0  0  0  0  0  0  0
  145.4313  136.2833  152.5027 C   0  0  0  0  0  0  0  0  0  0  0  0
  145.5436  134.8274  152.9781 C   0  0  0  0  0  0  0  0  0  0  0  0
  144.6739  134.4486  151.7724 C   0  0  0  0  0  0  0  0  0  0  0  0
  145.1795  135.7291  151.0948 C   0  0  0  0  0  0  0  0  0  0  0  0
  149.7364  137.0043  154.6287 H   0  0  0  0  0  0  0  0  0  0  0  0
  151.3800  136.4032  154.7877 H   0  0  0  0  0  0  0  0  0  0  0  0
  150.9093  137.3097  153.3512 H   0  0  0  0  0  0  0  0  0  0  0  0
  150.1576  142.3166  156.3637 H   0  0  0  0  0  0  0  0  0  0  0  0
  151.9082  142.5229  156.3177 H   0  0  0  0  0  0  0  0  0  0  0  0
  151.1413  141.7901  157.7289 H   0  0  0  0  0  0  0  0  0  0  0  0
  148.3394  138.9863  155.6292 H   0  0  0  0  0  0  0  0  0  0  0  0
  148.5285  140.7033  155.7312 H   0  0  0  0  0  0  0  0  0  0  0  0
  149.4087  140.2783  153.1633 H   0  0  0  0  0  0  0  0  0  0  0  0
  147.7731  141.9976  153.8501 H   0  0  0  0  0  0  0  0  0  0  0  0
  146.5162  140.7731  154.0054 H   0  0  0  0  0  0  0  0  0  0  0  0
  147.2070  141.1353  152.4255 H   0  0  0  0  0  0  0  0  0  0  0  0
  148.7376  138.1292  152.6613 H   0  0  0  0  0  0  0  0  0  0  0  0
  147.4933  136.6294  152.1621 H   0  0  0  0  0  0  0  0  0  0  0  0
  144.5566  136.7956  152.9103 H   0  0  0  0  0  0  0  0  0  0  0  0
  146.5551  134.4213  152.9123 H   0  0  0  0  0  0  0  0  0  0  0  0
  145.0899  134.6287  153.9496 H   0  0  0  0  0  0  0  0  0  0  0  0
  144.9606  133.5225  151.2735 H   0  0  0  0  0  0  0  0  0  0  0  0
  143.6054  134.4775  151.9935 H   0  0  0  0  0  0  0  0  0  0  0  0
  144.4263  136.2687  150.5199 H   0  0  0  0  0  0  0  0  0  0  0  0
  146.0919  135.5669  150.5173 H   0  0  0  0  0  0  0  0  0  0  0  0
  1  2  1  0  0  0  0
  1 19  1  0  0  0  0
  1 20  1  0  0  0  0
  1 21  1  0  0  0  0
  2  7  1  0  0  0  0
  2  3  2  0  0  0  0
  3  4  1  0  0  0  0
  4  5  1  0  0  0  0
  5  6  1  0  0  0  0
  5  7  2  0  0  0  0
  6 22  1  0  0  0  0
  6 23  1  0  0  0  0
  6 24  1  0  0  0  0
  7  8  1  0  0  0  0
  8  9  1  0  0  0  0
  8 25  1  0  0  0  0
  8 26  1  0  0  0  0
  9 10  1  0  0  0  0
  9 11  1  0  0  0  0
  9 27  1  0  0  0  0
 10 28  1  0  0  0  0
 10 29  1  0  0  0  0
 10 30  1  0  0  0  0
 11 12  1  0  0  0  0
 11 31  1  0  0  0  0
 12 13  2  0  0  0  0
 12 14  1  0  0  0  0
 14 15  1  0  0  0  0
 14 32  1  0  0  0  0
 15 18  1  0  0  0  0
 15 16  1  0  0  0  0
 15 33  1  0  0  0  0
 16 17  1  0  0  0  0
 16 34  1  0  0  0  0
 16 35  1  0  0  0  0
 17 18  1  0  0  0  0
 17 36  1  0  0  0  0
 17 37  1  0  0  0  0
 18 38  1  0  0  0  0
 18 39  1  0  0  0  0
M  END
> <s_m_source_file>
AV-unprocessed.smi

> <i_m_source_file_index>
773

> <i_lp_mmshare_version>
43012

> <i_f3d_flags>
0

> <s_epik_input>
W0NIM11jMW5vYyhbQ0gzXSljMVtDSDJdW0NASF0oW0NIM10pW05IXUMoPU8pW05IXVtDSF0yW0NIMl1bQ0gyXVtDSDJdMg==

> <s_epik_cmdline>
J2VwaWtfcHl0aG9uJywgJy1waCcsICc3LjAnLCAnLXRuJywgJzgnLCAnLW1hJywgJzIwMCcsICctbWV0YWxfYmluZGluZycsICctaW1hZScsICc8aW5maWxlLm1hZT4nLCAnLW9tYWUnLCAnPG91dGZpbGUubWFlPic=

> <r_lp_tautomer_probability>
1

> <r_epik_Ionization_Penalty>
6.63278e-05

> <r_epik_Ionization_Penalty_Charging>
0

> <r_epik_Ionization_Penalty_Neutral>
6.63278e-05

> <r_epik_State_Penalty>
-0

> <r_epik_Charging_Adjusted_Penalty>
0

> <i_epik_Tot_Q>
0

> <i_epik_Tot_abs_Q>
0

> <r_epik_Metal_State_Penalty>
-0

> <b_epik_Metal_Only>
0

> <s_lp_Force_Field>
OPLS_2005

> <r_lp_Energy>
7.52074

> <b_lp_Chiralities_Consistent>
1

> <s_lp_Variant>
AV-unprocessed.smi:773-1

> <Gold.Version>
5.8.1

> <Gold.Id.Protein>
6NUR|6NUR_protein|mol2

> <Gold.PLP.Fitness>
34.7056

> <Gold.PLP.PLP>
-28.1683

> <Gold.PLP.part.hbond>
-3.9383

> <Gold.PLP.part.metal>
0.0000

> <Gold.PLP.part.buried>
-1.1450

> <Gold.PLP.part.nonpolar>
-24.6332

> <Gold.PLP.part.repulsive>
0.5569

> <Gold.PLP.ligand.clash>
0.0000

> <Gold.PLP.ligand.torsion>
1.0542

> <Gold.PLP.Chemscore.Hbond>
2.7956

> <Gold.PLP.Chemscore.CHOScore>
0.0000

> <Gold.PLP.Chemscore.Metal>
0.0000

> <Gold.Chemscore.Hbonds>
donor molecule, donor type, donor heavy atom, donor atom, acceptor molecule, acceptor atom, score
      L1  H    11    31       P1  7948  0.80
      L1  H    14    32       P1  7948  0.99
      P1  H  7997  8009       L1     4  1.00

> <Gold.PLP.Chemscore.Internal.Correction>
0.2590

> <Gold.Rescore>
     Score         DG    S(hbond)    S(metal)    S(lipo)     H(rot)  DE(clash)    DE(int)     intcor
     14.75     -17.81       2.52        0.00      67.56       1.56       0.67       2.39       ----

> <Gold.Chemscore.Fitness>
14.7509

> <Gold.Chemscore.DG>
-17.8127

> <Gold.Chemscore.ZeroCoef>
-5.4800

> <Gold.Chemscore.Hbond>
2.5235

> <Gold.Chemscore.Metal>
0.0000

> <Gold.Chemscore.Lipo>
67.5562

> <Gold.Chemscore.Internal_Hbond>
0.0000

> <Gold.Chemscore.DEClash>
0.6721

> <Gold.Chemscore.DEInternal>
2.3896

> <Gold.Chemscore.Rot>
1.5625

> <Gold.Chemscore.Internal.Correction>
   9.000000E+99

> <Gold.Chemscore.Hbonds>
donor molecule, donor type, donor heavy atom, donor atom, acceptor molecule, acceptor atom, score
      L1  H    11    31       P1  7948  0.74
      L1  H    14    32       P1  7948  0.92
      P1  H  7997  8009       L1     4  0.33

> <Gold.Chemscore.Hbond.Weighted>
-8.4286

> <Gold.Chemscore.Metal.Weighted>
-0.0000

> <Gold.Chemscore.Lipo.Weighted>
-7.9041

> <Gold.Chemscore.Internal_Hbond.Weighted>
0.0000

> <Gold.Chemscore.DEClash.Weighted>
0.6721

> <Gold.Chemscore.DEInternal.Weighted>
2.3896

> <Gold.Chemscore.Rot.Weighted>
4.0000

> <Gold.Chemscore.Internal.Correction.Weighted>
   9.000000E+99

> <Gold.Protein.RotatedTorsions>
[ 6907 6896 6895 6894 ] final -123.94 input  -60.11 | X-H torsion
[ 7974 7965 7964 7962 ] final -134.15 input  175.53 | X-H torsion
[ 8008 7997 7996 7995 ] final -175.26 input   59.86 | X-H torsion
[ 10167 10162 10161 10158 ] final   81.01 input  -65.29 | X-H torsion
[ 10718 10713 10712 10709 ] final  128.57 input   66.30 | X-H torsion
[ 10763 10752 10751 10750 ] final -153.89 input  -60.55 | X-H torsion
[ 11005 11000 10999 10996 ] final   88.29 input  -57.11 | X-H torsion

> <Gold.Protein.ActiveResidues>
 VAL166  LYS551  ARG553  GLY616  TRP617  ASP618  TYR619  PRO620  LYS621  CYS622 
 ASP623  PHE694  ASN695  SER759  ASP760  ASP761  ALA762  ILE779  LEU786  VAL792 
 PHE793  MET794  SER795  GLU796  ALA797  LYS798  CYS799  TRP800  GLU811  SER814 

> <Gold.Protein.RotatedAtoms>
  150.8719  133.7493  159.2958 H   0  0  0  0  0  0  0  0  0  0  0  0  # atno 6907 bound_to 6896
  151.5103  135.1063  159.9861 H   0  0  0  0  0  0  0  0  0  0  0  0  # atno 6908 bound_to 6896
  152.4701  133.7965  159.6986 H   0  0  0  0  0  0  0  0  0  0  0  0  # atno 6909 bound_to 6896
  144.9128  140.6917  143.5014 H   0  0  0  0  0  0  0  0  0  0  0  0  # atno 7974 bound_to 7965
  155.9803  140.1180  157.0732 H   0  0  0  0  0  0  0  0  0  0  0  0  # atno 8008 bound_to 7997
  154.4181  140.1145  156.5495 H   0  0  0  0  0  0  0  0  0  0  0  0  # atno 8009 bound_to 7997
  155.6479  140.3473  155.4740 H   0  0  0  0  0  0  0  0  0  0  0  0  # atno 8010 bound_to 7997
  139.9437  144.6072  150.8227 H   0  0  0  0  0  0  0  0  0  0  0  0  # atno 10167 bound_to 10162
  157.5232  131.1098  150.9121 H   0  0  0  0  0  0  0  0  0  0  0  0  # atno 10718 bound_to 10713
  154.7896  135.3202  154.7807 H   0  0  0  0  0  0  0  0  0  0  0  0  # atno 10763 bound_to 10752
  153.8498  135.6863  153.4798 H   0  0  0  0  0  0  0  0  0  0  0  0  # atno 10764 bound_to 10752
  153.1561  135.4679  154.9647 H   0  0  0  0  0  0  0  0  0  0  0  0  # atno 10765 bound_to 10752
  139.8900  134.8478  156.2980 H   0  0  0  0  0  0  0  0  0  0  0  0  # atno 11005 bound_to 11000
  145.3425  139.1728  143.4478 LP  0  0  0  0  0  0  0  0  0  0  0  0  # atno 17320 bound_to 7965
  146.3167  140.3468  142.8652 LP  0  0  0  0  0  0  0  0  0  0  0  0  # atno 17321 bound_to 7965
  140.7603  143.3149  151.2757 LP  0  0  0  0  0  0  0  0  0  0  0  0  # atno 17342 bound_to 10162
  139.6684  144.0065  152.2737 LP  0  0  0  0  0  0  0  0  0  0  0  0  # atno 17343 bound_to 10162
  156.9725  130.5496  149.5291 LP  0  0  0  0  0  0  0  0  0  0  0  0  # atno 17370 bound_to 10713
  156.0368  130.5455  150.8674 LP  0  0  0  0  0  0  0  0  0  0  0  0  # atno 17371 bound_to 10713
  140.9932  133.7196  156.0846 LP  0  0  0  0  0  0  0  0  0  0  0  0  # atno 17394 bound_to 11000
  140.7597  134.3953  157.5528 LP  0  0  0  0  0  0  0  0  0  0  0  0  # atno 17395 bound_to 11000

$$$$
