AV-unprocessed.smi:1644|AV-procd|sdf|6598|dock8
  -GOLD-   22720 7303D 1   1.00000     0.00000
 Structure written by MMmdl.
 49 51  0  0  0  0  0  0  0  0  3 V2000
  147.2392  134.1506  162.2966 C   0  0  0  0  0  0  0  0  0  0  0  0
  147.6212  133.9773  160.8224 C   0  0  0  0  0  0  0  0  0  0  0  0
  146.9980  135.0565  159.9220 C   0  0  0  0  0  0  0  0  0  0  0  0
  147.8149  136.3659  159.8846 C   0  0  2  0  0  0  0  0  0  0  0  0
  146.9887  137.4976  159.5173 N   0  5  0  0  0  0  0  0  0  0  0  0
  147.4908  138.0551  158.3913 C   0  0  0  0  0  0  0  0  0  0  0  0
  147.0528  139.0434  157.8033 O   0  0  0  0  0  0  0  0  0  0  0  0
  148.5794  137.3864  157.9643 N   0  0  0  0  0  0  0  0  0  0  0  0
  149.3718  137.7210  156.7750 C   0  0  0  0  0  0  0  0  0  0  0  0
  150.7994  138.1874  157.1266 C   0  0  1  0  0  0  0  0  0  0  0  0
  151.6060  137.0359  157.2765 O   0  0  0  0  0  0  0  0  0  0  0  0
  151.4108  139.1368  156.0743 C   0  0  0  0  0  0  0  0  0  0  0  0
  150.9751  140.5303  156.2368 N   0  0  0  0  0  0  0  0  0  0  0  0
  150.1309  141.2702  155.4689 C   0  0  0  0  0  0  0  0  0  0  0  0
  150.0477  142.5094  156.0276 N   0  3  0  0  0  0  0  0  0  0  0  0
  150.8505  142.5605  157.1694 C   0  0  0  0  0  0  0  0  0  0  0  0
  151.0931  143.5942  158.0663 C   0  0  0  0  0  0  0  0  0  0  0  0
  151.9697  143.3234  159.1414 C   0  0  0  0  0  0  0  0  0  0  0  0
  152.2579  144.4318  160.1397 C   0  0  0  0  0  0  0  0  0  0  0  0
  152.5683  142.0456  159.2910 C   0  0  0  0  0  0  0  0  0  0  0  0
  153.5053  141.7632  160.4529 C   0  0  0  0  0  0  0  0  0  0  0  0
  152.3094  141.0081  158.3675 C   0  0  0  0  0  0  0  0  0  0  0  0
  151.4468  141.2926  157.3115 C   0  0  0  0  0  0  0  0  0  0  0  0
  148.8517  136.3628  158.7795 C   0  0  0  0  0  0  0  0  0  0  0  0
  149.7734  135.5514  158.6859 O   0  0  0  0  0  0  0  0  0  0  0  0
  147.6922  133.3711  162.9094 H   0  0  0  0  0  0  0  0  0  0  0  0
  146.1588  134.0958  162.4326 H   0  0  0  0  0  0  0  0  0  0  0  0
  147.5779  135.1136  162.6796 H   0  0  0  0  0  0  0  0  0  0  0  0
  148.7077  134.0011  160.7309 H   0  0  0  0  0  0  0  0  0  0  0  0
  147.3052  132.9907  160.4821 H   0  0  0  0  0  0  0  0  0  0  0  0
  146.9169  134.6540  158.9111 H   0  0  0  0  0  0  0  0  0  0  0  0
  145.9758  135.2599  160.2463 H   0  0  0  0  0  0  0  0  0  0  0  0
  148.3284  136.5149  160.8354 H   0  0  0  0  0  0  0  0  0  0  0  0
  149.4208  136.8409  156.1311 H   0  0  0  0  0  0  0  0  0  0  0  0
  148.8660  138.4839  156.1806 H   0  0  0  0  0  0  0  0  0  0  0  0
  150.7851  138.6929  158.0930 H   0  0  0  0  0  0  0  0  0  0  0  0
  151.7347  136.6495  156.4236 H   0  0  0  0  0  0  0  0  0  0  0  0
  152.4998  139.0940  156.0885 H   0  0  0  0  0  0  0  0  0  0  0  0
  151.1091  138.8303  155.0722 H   0  0  0  0  0  0  0  0  0  0  0  0
  149.6210  140.9344  154.5774 H   0  0  0  0  0  0  0  0  0  0  0  0
  150.6315  144.5635  157.9475 H   0  0  0  0  0  0  0  0  0  0  0  0
  153.3266  144.6439  160.1791 H   0  0  0  0  0  0  0  0  0  0  0  0
  151.9244  144.1447  161.1372 H   0  0  0  0  0  0  0  0  0  0  0  0
  151.7459  145.3560  159.8694 H   0  0  0  0  0  0  0  0  0  0  0  0
  153.8640  140.7335  160.4344 H   0  0  0  0  0  0  0  0  0  0  0  0
  152.9957  141.9209  161.4039 H   0  0  0  0  0  0  0  0  0  0  0  0
  154.3748  142.4196  160.4112 H   0  0  0  0  0  0  0  0  0  0  0  0
  152.7609  140.0339  158.4847 H   0  0  0  0  0  0  0  0  0  0  0  0
  149.4837  143.2621  155.6547 H   0  0  0  0  0  0  0  0  0  0  0  0
  1  2  1  0  0  0  0
  1 26  1  0  0  0  0
  1 27  1  0  0  0  0
  1 28  1  0  0  0  0
  2  3  1  0  0  0  0
  2 29  1  0  0  0  0
  2 30  1  0  0  0  0
  3  4  1  0  0  0  0
  3 31  1  0  0  0  0
  3 32  1  0  0  0  0
  4 24  1  0  0  0  0
  4  5  1  0  0  0  0
  4 33  1  0  0  0  0
  5  6  1  0  0  0  0
  6  7  2  0  0  0  0
  6  8  1  0  0  0  0
  8  9  1  0  0  0  0
  8 24  1  0  0  0  0
  9 10  1  0  0  0  0
  9 34  1  0  0  0  0
  9 35  1  0  0  0  0
 10 11  1  0  0  0  0
 10 12  1  0  0  0  0
 10 36  1  0  0  0  0
 11 37  1  0  0  0  0
 12 13  1  0  0  0  0
 12 38  1  0  0  0  0
 12 39  1  0  0  0  0
 13 23  1  0  0  0  0
 13 14  1  0  0  0  0
 14 15  2  0  0  0  0
 14 40  1  0  0  0  0
 15 16  1  0  0  0  0
 15 49  1  0  0  0  0
 16 23  2  0  0  0  0
 16 17  1  0  0  0  0
 17 18  2  0  0  0  0
 17 41  1  0  0  0  0
 18 19  1  0  0  0  0
 18 20  1  0  0  0  0
 19 42  1  0  0  0  0
 19 43  1  0  0  0  0
 19 44  1  0  0  0  0
 20 21  1  0  0  0  0
 20 22  2  0  0  0  0
 21 45  1  0  0  0  0
 21 46  1  0  0  0  0
 21 47  1  0  0  0  0
 22 23  1  0  0  0  0
 22 48  1  0  0  0  0
 24 25  2  0  0  0  0
M  CHG  1   5  -1
M  CHG  1  15   1
M  END
> <s_m_source_file>
AV-unprocessed.smi

> <i_m_source_file_index>
1644

> <i_lp_mmshare_version>
43012

> <i_f3d_flags>
0

> <s_epik_input>
W0NIM11bQ0gyXVtDSDJdW0NAQEhdMVtOSF1DKD1PKU4oQzE9TylbQ0gyXVtDQEhdKFtPSF0pW0NIMl1uKFtjSF1uMiljKGMyMylbY0hdYyhbQ0gzXSljKFtjSF0zKVtDSDNd

> <s_epik_cmdline>
J2VwaWtfcHl0aG9uJywgJy1waCcsICc3LjAnLCAnLXRuJywgJzgnLCAnLW1hJywgJzIwMCcsICctbWV0YWxfYmluZGluZycsICctaW1hZScsICc8aW5maWxlLm1hZT4nLCAnLW9tYWUnLCAnPG91dGZpbGUubWFlPic=

> <r_lp_tautomer_probability>
1

> <r_epik_Ionization_Penalty>
6.86868

> <r_epik_Ionization_Penalty_Charging>
6.86868

> <r_epik_Ionization_Penalty_Neutral>
5.84798e-07

> <r_epik_State_Penalty>
6.92818

> <r_epik_Charging_Adjusted_Penalty>
13.7969

> <i_epik_Tot_Q>
0

> <i_epik_Tot_abs_Q>
2

> <r_epik_Metal_State_Penalty>
2.98017

> <b_epik_Metal_Only>
1

> <s_lp_Force_Field>
OPLS_2005

> <r_lp_Energy>
19.1239

> <b_lp_Chiralities_Consistent>
1

> <s_lp_Variant>
AV-unprocessed.smi:1644-15

> <Gold.Version>
5.8.1

> <Gold.Id.Protein>
6NUR|6NUR_protein|mol2

> <Gold.PLP.Fitness>
56.4109

> <Gold.PLP.PLP>
-44.1042

> <Gold.PLP.part.hbond>
-3.3002

> <Gold.PLP.part.metal>
0.0000

> <Gold.PLP.part.buried>
-4.9453

> <Gold.PLP.part.nonpolar>
-36.3908

> <Gold.PLP.part.repulsive>
0.1250

> <Gold.PLP.ligand.clash>
0.0000

> <Gold.PLP.ligand.torsion>
1.1274

> <Gold.PLP.Chemscore.Hbond>
4.8240

> <Gold.PLP.Chemscore.CHOScore>
0.0000

> <Gold.PLP.Chemscore.Metal>
0.0000

> <Gold.Chemscore.Hbonds>
donor molecule, donor type, donor heavy atom, donor atom, acceptor molecule, acceptor atom, score
      L1  H    15    49       P1  8028  2.00
      P1  H  6896  6907       L1    25  1.00
      P1  H  6934  6947       L1     5  1.60

> <Gold.PLP.Chemscore.Internal.Correction>
0.0895

> <Gold.Rescore>
     Score         DG    S(hbond)    S(metal)    S(lipo)     H(rot)  DE(clash)    DE(int)     intcor
     18.71     -20.11       2.59        0.00     110.76       2.72       0.05       1.35       ----

> <Gold.Chemscore.Fitness>
18.7056

> <Gold.Chemscore.DG>
-20.1107

> <Gold.Chemscore.ZeroCoef>
-5.4800

> <Gold.Chemscore.Hbond>
2.5890

> <Gold.Chemscore.Metal>
0.0000

> <Gold.Chemscore.Lipo>
110.7551

> <Gold.Chemscore.Internal_Hbond>
0.0000

> <Gold.Chemscore.DEClash>
0.0538

> <Gold.Chemscore.DEInternal>
1.3513

> <Gold.Chemscore.Rot>
2.7245

> <Gold.Chemscore.Internal.Correction>
   9.000000E+99

> <Gold.Chemscore.Hbonds>
donor molecule, donor type, donor heavy atom, donor atom, acceptor molecule, acceptor atom, score
      L1  H    15    49       P1  8028  0.95
      P1  H  6896  6907       L1    25  0.97
      P1  H  6934  6947       L1     5  0.21

> <Gold.Chemscore.Hbond.Weighted>
-8.6472

> <Gold.Chemscore.Metal.Weighted>
-0.0000

> <Gold.Chemscore.Lipo.Weighted>
-12.9583

> <Gold.Chemscore.Internal_Hbond.Weighted>
0.0000

> <Gold.Chemscore.DEClash.Weighted>
0.0538

> <Gold.Chemscore.DEInternal.Weighted>
1.3513

> <Gold.Chemscore.Rot.Weighted>
6.9748

> <Gold.Chemscore.Internal.Correction.Weighted>
   9.000000E+99

> <Gold.Protein.RotatedTorsions>
[ 6907 6896 6895 6894 ] final  -57.34 input  -60.11 | X-H torsion
[ 7974 7965 7964 7962 ] final   70.27 input  175.53 | X-H torsion
[ 8008 7997 7996 7995 ] final -140.36 input   59.86 | X-H torsion
[ 10167 10162 10161 10158 ] final  176.12 input  -65.29 | X-H torsion
[ 10718 10713 10712 10709 ] final   13.16 input   66.30 | X-H torsion
[ 10763 10752 10751 10750 ] final  179.12 input  -60.55 | X-H torsion
[ 11005 11000 10999 10996 ] final -131.25 input  -57.11 | X-H torsion

> <Gold.Protein.ActiveResidues>
 VAL166  LYS551  ARG553  GLY616  TRP617  ASP618  TYR619  PRO620  LYS621  CYS622 
 ASP623  PHE694  ASN695  SER759  ASP760  ASP761  ALA762  ILE779  LEU786  VAL792 
 PHE793  MET794  SER795  GLU796  ALA797  LYS798  CYS799  TRP800  GLU811  SER814 

> <Gold.Protein.RotatedAtoms>
  150.8094  134.7239  159.6673 H   0  0  0  0  0  0  0  0  0  0  0  0  # atno 6907 bound_to 6896
  152.4213  134.5946  159.9993 H   0  0  0  0  0  0  0  0  0  0  0  0  # atno 6908 bound_to 6896
  151.6160  133.3306  159.3114 H   0  0  0  0  0  0  0  0  0  0  0  0  # atno 6909 bound_to 6896
  145.7802  139.2884  143.1270 H   0  0  0  0  0  0  0  0  0  0  0  0  # atno 7974 bound_to 7965
  155.4601  140.0545  157.2992 H   0  0  0  0  0  0  0  0  0  0  0  0  # atno 8008 bound_to 7997
  154.4741  140.2053  155.9877 H   0  0  0  0  0  0  0  0  0  0  0  0  # atno 8009 bound_to 7997
  156.1103  140.3205  155.8068 H   0  0  0  0  0  0  0  0  0  0  0  0  # atno 8010 bound_to 7997
  139.5202  144.2952  152.0428 H   0  0  0  0  0  0  0  0  0  0  0  0  # atno 10167 bound_to 10162
  157.0207  130.6153  149.5720 H   0  0  0  0  0  0  0  0  0  0  0  0  # atno 10718 bound_to 10713
  154.5165  135.2791  155.1298 H   0  0  0  0  0  0  0  0  0  0  0  0  # atno 10763 bound_to 10752
  154.2873  135.6274  153.5374 H   0  0  0  0  0  0  0  0  0  0  0  0  # atno 10764 bound_to 10752
  152.9928  135.5665  154.5644 H   0  0  0  0  0  0  0  0  0  0  0  0  # atno 10765 bound_to 10752
  140.9275  134.1363  157.4263 H   0  0  0  0  0  0  0  0  0  0  0  0  # atno 11005 bound_to 11000
  146.0082  140.8459  142.9984 LP  0  0  0  0  0  0  0  0  0  0  0  0  # atno 17320 bound_to 7965
  144.6798  140.2451  143.7339 LP  0  0  0  0  0  0  0  0  0  0  0  0  # atno 17321 bound_to 7965
  140.2402  144.4278  150.6263 LP  0  0  0  0  0  0  0  0  0  0  0  0  # atno 17342 bound_to 10162
  140.6296  143.2186  151.6524 LP  0  0  0  0  0  0  0  0  0  0  0  0  # atno 17343 bound_to 10162
  156.0103  130.5194  150.7967 LP  0  0  0  0  0  0  0  0  0  0  0  0  # atno 17370 bound_to 10713
  157.5252  131.0933  151.0027 LP  0  0  0  0  0  0  0  0  0  0  0  0  # atno 17371 bound_to 10713
  139.8789  134.9993  156.5949 LP  0  0  0  0  0  0  0  0  0  0  0  0  # atno 17394 bound_to 11000
  140.7906  133.8585  155.8643 LP  0  0  0  0  0  0  0  0  0  0  0  0  # atno 17395 bound_to 11000

$$$$
