AV-unprocessed.smi:182|AV-procd|sdf|1456|dock1
  -GOLD-   2262019263D 1   1.00000     0.00000
 Structure written by MMmdl.
 56 59  0  0  0  0  0  0  0  0  1 V2000
  151.9059  138.7469  159.0986 N   0  0  0  0  0  0  0  0  0  0  0  0
  152.2023  139.4776  158.0212 C   0  0  0  0  0  0  0  0  0  0  0  0
  153.2174  140.1689  157.9613 O   0  0  0  0  0  0  0  0  0  0  0  0
  151.2080  139.4173  156.8569 C   0  0  0  0  0  0  0  0  0  0  0  0
  150.6246  140.7931  156.4731 C   0  0  0  0  0  0  0  0  0  0  0  0
  149.2124  140.7178  155.8594 C   0  0  1  0  0  0  0  0  0  0  0  0
  149.0431  141.7455  154.7229 C   0  0  0  0  0  0  0  0  0  0  0  0
  147.6343  141.6577  154.1157 C   0  0  0  0  0  0  0  0  0  0  0  0
  147.3202  140.2269  153.6517 C   0  0  0  0  0  0  0  0  0  0  0  0
  147.5374  139.2708  154.7382 N   0  0  0  0  0  0  0  0  0  0  0  0
  146.9990  138.0303  154.6138 C   0  0  0  0  0  0  0  0  0  0  0  0
  146.9618  137.1961  155.6876 N   0  0  0  0  0  0  0  0  0  0  0  0
  146.4250  135.9775  155.5789 C   0  0  0  0  0  0  0  0  0  0  0  0
  145.8751  135.4007  154.5091 N   0  0  0  0  0  0  0  0  0  0  0  0
  145.9125  136.2286  153.4263 C   0  0  0  0  0  0  0  0  0  0  0  0
  146.4580  137.5433  153.3896 C   0  0  0  0  0  0  0  0  0  0  0  0
  146.3457  138.0638  152.1052 N   0  0  0  0  0  0  0  0  0  0  0  0
  145.7607  137.1156  151.4259 C   0  0  0  0  0  0  0  0  0  0  0  0
  145.4358  135.9903  152.1488 N   0  0  0  0  0  0  0  0  0  0  0  0
  144.8269  134.7938  151.6452 C   0  0  0  0  0  0  0  0  0  0  0  0
  145.5001  133.4295  151.8155 C   0  0  0  0  0  0  0  0  0  0  0  0
  144.8976  132.9721  150.4673 C   0  0  0  0  0  0  0  0  0  0  0  0
  145.8378  132.1617  149.5594 C   0  0  0  0  0  0  0  0  0  0  0  0
  147.1675  132.6308  149.6512 O   0  0  0  0  0  0  0  0  0  0  0  0
  143.5397  132.2478  150.5644 C   0  0  0  0  0  0  0  0  0  0  0  0
  142.9022  132.1760  149.3053 O   0  0  0  0  0  0  0  0  0  0  0  0
  144.8155  134.4809  150.1473 C   0  0  0  0  0  0  0  0  0  0  0  0
  148.8726  139.3065  155.3347 C   0  0  0  0  0  0  0  0  0  0  0  0
  152.5281  138.7525  159.8940 H   0  0  0  0  0  0  0  0  0  0  0  0
  151.0622  138.1926  159.1162 H   0  0  0  0  0  0  0  0  0  0  0  0
  151.7132  138.9716  156.0001 H   0  0  0  0  0  0  0  0  0  0  0  0
  150.4011  138.7380  157.1337 H   0  0  0  0  0  0  0  0  0  0  0  0
  150.5792  141.4165  157.3675 H   0  0  0  0  0  0  0  0  0  0  0  0
  151.2970  141.3037  155.7821 H   0  0  0  0  0  0  0  0  0  0  0  0
  148.4949  140.9709  156.6417 H   0  0  0  0  0  0  0  0  0  0  0  0
  149.2191  142.7551  155.0957 H   0  0  0  0  0  0  0  0  0  0  0  0
  149.7877  141.5662  153.9461 H   0  0  0  0  0  0  0  0  0  0  0  0
  146.8984  141.9691  154.8580 H   0  0  0  0  0  0  0  0  0  0  0  0
  147.5426  142.3502  153.2786 H   0  0  0  0  0  0  0  0  0  0  0  0
  146.2862  140.1778  153.3069 H   0  0  0  0  0  0  0  0  0  0  0  0
  147.9564  139.9610  152.8062 H   0  0  0  0  0  0  0  0  0  0  0  0
  146.4347  135.3805  156.4789 H   0  0  0  0  0  0  0  0  0  0  0  0
  145.5447  137.2157  150.3721 H   0  0  0  0  0  0  0  0  0  0  0  0
  143.8140  134.7780  152.0508 H   0  0  0  0  0  0  0  0  0  0  0  0
  146.5895  133.4975  151.7933 H   0  0  0  0  0  0  0  0  0  0  0  0
  145.1639  132.8697  152.6885 H   0  0  0  0  0  0  0  0  0  0  0  0
  145.8377  131.1091  149.8436 H   0  0  0  0  0  0  0  0  0  0  0  0
  145.5201  132.1958  148.5171 H   0  0  0  0  0  0  0  0  0  0  0  0
  147.7077  131.9370  149.9973 H   0  0  0  0  0  0  0  0  0  0  0  0
  143.6605  131.2294  150.9338 H   0  0  0  0  0  0  0  0  0  0  0  0
  142.8711  132.7450  151.2675 H   0  0  0  0  0  0  0  0  0  0  0  0
  142.2409  132.8498  149.2648 H   0  0  0  0  0  0  0  0  0  0  0  0
  143.9082  134.7905  149.6278 H   0  0  0  0  0  0  0  0  0  0  0  0
  145.7041  134.8573  149.6368 H   0  0  0  0  0  0  0  0  0  0  0  0
  149.5985  139.0056  154.5779 H   0  0  0  0  0  0  0  0  0  0  0  0
  148.9541  138.5824  156.1423 H   0  0  0  0  0  0  0  0  0  0  0  0
  1  2  1  0  0  0  0
  1 29  1  0  0  0  0
  1 30  1  0  0  0  0
  2  3  2  0  0  0  0
  2  4  1  0  0  0  0
  4  5  1  0  0  0  0
  4 31  1  0  0  0  0
  4 32  1  0  0  0  0
  5  6  1  0  0  0  0
  5 33  1  0  0  0  0
  5 34  1  0  0  0  0
  6 28  1  0  0  0  0
  6  7  1  0  0  0  0
  6 35  1  0  0  0  0
  7  8  1  0  0  0  0
  7 36  1  0  0  0  0
  7 37  1  0  0  0  0
  8  9  1  0  0  0  0
  8 38  1  0  0  0  0
  8 39  1  0  0  0  0
  9 10  1  0  0  0  0
  9 40  1  0  0  0  0
  9 41  1  0  0  0  0
 10 11  1  0  0  0  0
 10 28  1  0  0  0  0
 11 16  1  0  0  0  0
 11 12  2  0  0  0  0
 12 13  1  0  0  0  0
 13 14  2  0  0  0  0
 13 42  1  0  0  0  0
 14 15  1  0  0  0  0
 15 19  1  0  0  0  0
 15 16  2  0  0  0  0
 16 17  1  0  0  0  0
 17 18  2  0  0  0  0
 18 19  1  0  0  0  0
 18 43  1  0  0  0  0
 19 20  1  0  0  0  0
 20 27  1  0  0  0  0
 20 21  1  0  0  0  0
 20 44  1  0  0  0  0
 21 22  1  0  0  0  0
 21 45  1  0  0  0  0
 21 46  1  0  0  0  0
 22 23  1  0  0  0  0
 22 25  1  0  0  0  0
 22 27  1  0  0  0  0
 23 24  1  0  0  0  0
 23 47  1  0  0  0  0
 23 48  1  0  0  0  0
 24 49  1  0  0  0  0
 25 26  1  0  0  0  0
 25 50  1  0  0  0  0
 25 51  1  0  0  0  0
 26 52  1  0  0  0  0
 27 53  1  0  0  0  0
 27 54  1  0  0  0  0
 28 55  1  0  0  0  0
 28 56  1  0  0  0  0
M  END
> <s_m_source_file>
AV-unprocessed.smi

> <i_m_source_file_index>
182

> <i_lp_mmshare_version>
43012

> <i_f3d_flags>
0

> <s_epik_input>
W05IMl1DKD1PKVtDSDJdW0NIMl1bQ0BASF0xW0NIMl1bQ0gyXVtDSDJdTihbQ0gyXTEpYyhuW2NIXW4yKWMoYzIzKW5bY0hdbjNbQ0hdKFtDSDJdNClbQ0gyXUM0KFtDSDJdW09IXSlbQ0gyXVtPSF0=

> <s_epik_cmdline>
J2VwaWtfcHl0aG9uJywgJy1waCcsICc3LjAnLCAnLXRuJywgJzgnLCAnLW1hJywgJzIwMCcsICctbWV0YWxfYmluZGluZycsICctaW1hZScsICc8aW5maWxlLm1hZT4nLCAnLW9tYWUnLCAnPG91dGZpbGUubWFlPic=

> <r_lp_tautomer_probability>
1

> <r_epik_Ionization_Penalty>
0.00186057

> <r_epik_Ionization_Penalty_Charging>
0

> <r_epik_Ionization_Penalty_Neutral>
0.00186057

> <r_epik_State_Penalty>
0.00110736

> <r_epik_Charging_Adjusted_Penalty>
0.00110736

> <i_epik_Tot_Q>
0

> <i_epik_Tot_abs_Q>
0

> <r_epik_Metal_State_Penalty>
-0

> <b_epik_Metal_Only>
0

> <s_lp_Force_Field>
OPLS_2005

> <r_lp_Energy>
37.6951

> <b_lp_Chiralities_Consistent>
1

> <s_lp_Variant>
AV-unprocessed.smi:182-2

> <Gold.Version>
5.8.1

> <Gold.Id.Protein>
6NUR|6NUR_protein|mol2

> <Gold.PLP.Fitness>
49.8581

> <Gold.PLP.PLP>
-38.1728

> <Gold.PLP.part.hbond>
-6.0952

> <Gold.PLP.part.metal>
0.0000

> <Gold.PLP.part.buried>
-0.2437

> <Gold.PLP.part.nonpolar>
-33.9219

> <Gold.PLP.part.repulsive>
0.6287

> <Gold.PLP.ligand.clash>
0.0000

> <Gold.PLP.ligand.torsion>
1.4854

> <Gold.PLP.Chemscore.Hbond>
3.9175

> <Gold.PLP.Chemscore.CHOScore>
0.6173

> <Gold.PLP.Chemscore.Metal>
0.0000

> <Gold.Chemscore.Hbonds>
donor molecule, donor type, donor heavy atom, donor atom, acceptor molecule, acceptor atom, score
      L1  H    24    49       P1 10747  1.00
      L1  H    26    52       P1 10186  1.00
      P1  H  7997  8008       L1     3  0.98
      P1  H 10785 10796       L1    26  0.75
      L1  C    18    43       P1 10171  0.75

> <Gold.PLP.Chemscore.Internal.Correction>
1.0518

> <Gold.Rescore>
     Score         DG    S(hbond)    S(metal)    S(lipo)     H(rot)  DE(clash)    DE(int)     intcor
     11.38     -14.46       3.48        0.00      82.16       4.79       0.35       2.72       ----

> <Gold.Chemscore.Fitness>
11.3829

> <Gold.Chemscore.DG>
-14.4578

> <Gold.Chemscore.ZeroCoef>
-5.4800

> <Gold.Chemscore.Hbond>
3.4831

> <Gold.Chemscore.Metal>
0.0000

> <Gold.Chemscore.Lipo>
82.1571

> <Gold.Chemscore.Internal_Hbond>
0.0000

> <Gold.Chemscore.DEClash>
0.3508

> <Gold.Chemscore.DEInternal>
2.7241

> <Gold.Chemscore.Rot>
4.7922

> <Gold.Chemscore.Internal.Correction>
   9.000000E+99

> <Gold.Chemscore.Hbonds>
donor molecule, donor type, donor heavy atom, donor atom, acceptor molecule, acceptor atom, score
      L1  H    24    49       P1 10747  1.00
      L1  H    26    52       P1 10186  0.95
      P1  H  7997  8008       L1     3  0.93
      P1  H 10785 10796       L1    26  0.30

> <Gold.Chemscore.Hbond.Weighted>
-11.6334

> <Gold.Chemscore.Metal.Weighted>
-0.0000

> <Gold.Chemscore.Lipo.Weighted>
-9.6124

> <Gold.Chemscore.Internal_Hbond.Weighted>
0.0000

> <Gold.Chemscore.DEClash.Weighted>
0.3508

> <Gold.Chemscore.DEInternal.Weighted>
2.7241

> <Gold.Chemscore.Rot.Weighted>
12.2680

> <Gold.Chemscore.Internal.Correction.Weighted>
   9.000000E+99

> <Gold.Protein.RotatedTorsions>
[ 6907 6896 6895 6894 ] final  -51.08 input  -60.11 | X-H torsion
[ 7974 7965 7964 7962 ] final   17.08 input  175.53 | X-H torsion
[ 8008 7997 7996 7995 ] final  -82.79 input   59.86 | X-H torsion
[ 10167 10162 10161 10158 ] final  -44.58 input  -65.29 | X-H torsion
[ 10718 10713 10712 10709 ] final   83.23 input   66.30 | X-H torsion
[ 10763 10752 10751 10750 ] final  119.13 input  -60.55 | X-H torsion
[ 11005 11000 10999 10996 ] final -105.99 input  -57.11 | X-H torsion

> <Gold.Protein.ActiveResidues>
 VAL166  LYS551  ARG553  GLY616  TRP617  ASP618  TYR619  PRO620  LYS621  CYS622 
 ASP623  PHE694  ASN695  SER759  ASP760  ASP761  ALA762  ILE779  LEU786  VAL792 
 PHE793  MET794  SER795  GLU796  ALA797  LYS798  CYS799  TRP800  GLU811  SER814 

> <Gold.Protein.RotatedAtoms>
  150.8646  134.8006  159.7108 H   0  0  0  0  0  0  0  0  0  0  0  0  # atno 6907 bound_to 6896
  152.4672  134.5045  159.9745 H   0  0  0  0  0  0  0  0  0  0  0  0  # atno 6908 bound_to 6896
  151.5143  133.3440  159.2926 H   0  0  0  0  0  0  0  0  0  0  0  0  # atno 6909 bound_to 6896
  146.2230  139.8654  142.8597 H   0  0  0  0  0  0  0  0  0  0  0  0  # atno 7974 bound_to 7965
  154.6123  140.0628  156.9510 H   0  0  0  0  0  0  0  0  0  0  0  0  # atno 8008 bound_to 7997
  155.1953  140.3310  155.4333 H   0  0  0  0  0  0  0  0  0  0  0  0  # atno 8009 bound_to 7997
  156.2384  140.1874  156.7040 H   0  0  0  0  0  0  0  0  0  0  0  0  # atno 8010 bound_to 7997
  140.6891  143.2923  151.3516 H   0  0  0  0  0  0  0  0  0  0  0  0  # atno 10167 bound_to 10162
  157.6874  131.0082  150.2492 H   0  0  0  0  0  0  0  0  0  0  0  0  # atno 10718 bound_to 10713
  153.5783  135.3489  155.2865 H   0  0  0  0  0  0  0  0  0  0  0  0  # atno 10763 bound_to 10752
  154.8672  135.4176  154.2649 H   0  0  0  0  0  0  0  0  0  0  0  0  # atno 10764 bound_to 10752
  153.3429  135.7051  153.6922 H   0  0  0  0  0  0  0  0  0  0  0  0  # atno 10765 bound_to 10752
  141.1026  133.8855  157.1802 H   0  0  0  0  0  0  0  0  0  0  0  0  # atno 11005 bound_to 11000
  145.2662  141.0093  143.3798 LP  0  0  0  0  0  0  0  0  0  0  0  0  # atno 17320 bound_to 7965
  144.9260  139.4355  143.6518 LP  0  0  0  0  0  0  0  0  0  0  0  0  # atno 17321 bound_to 7965
  139.6277  144.0783  152.2448 LP  0  0  0  0  0  0  0  0  0  0  0  0  # atno 17342 bound_to 10162
  140.0247  144.6126  150.7537 LP  0  0  0  0  0  0  0  0  0  0  0  0  # atno 17343 bound_to 10162
  156.3092  130.3769  149.7678 LP  0  0  0  0  0  0  0  0  0  0  0  0  # atno 17370 bound_to 10713
  156.5283  130.8246  151.3228 LP  0  0  0  0  0  0  0  0  0  0  0  0  # atno 17371 bound_to 10713
  139.9884  135.0074  156.9916 LP  0  0  0  0  0  0  0  0  0  0  0  0  # atno 17394 bound_to 11000
  140.4983  134.1123  155.7245 LP  0  0  0  0  0  0  0  0  0  0  0  0  # atno 17395 bound_to 11000

$$$$
