AV-unprocessed.smi:3308|AV-procd|sdf|12711|dock4
  -GOLD-   2272019 43D 1   1.00000     0.00000
 Structure written by MMmdl.
 41 42  0  0  0  0  0  0  0  0  2 V2000
  147.7112  142.0381  154.3782 C   0  0  0  0  0  0  0  0  0  0  0  0
  149.1192  141.4386  154.5627 C   0  0  1  0  0  0  0  0  0  0  0  0
  149.8820  142.1847  155.5914 N   0  3  0  0  0  0  0  0  0  0  0  0
  149.7274  141.7021  156.9811 C   0  0  0  0  0  0  0  0  0  0  0  0
  150.1977  142.7383  158.0117 C   0  0  0  0  0  0  0  0  0  0  0  0
  149.6003  143.8108  158.1149 O   0  0  0  0  0  0  0  0  0  0  0  0
  151.2663  142.4353  158.7774 N   0  0  0  0  0  0  0  0  0  0  0  0
  152.0012  141.1756  158.6773 C   0  0  0  0  0  0  0  0  0  0  0  0
  153.2633  141.3639  159.5193 C   0  0  0  0  0  0  0  0  0  0  0  0
  152.8774  142.4295  160.5360 C   0  0  0  0  0  0  0  0  0  0  0  0
  151.8549  143.2978  159.8020 C   0  0  0  0  0  0  0  0  0  0  0  0
  149.0676  139.9242  154.8965 C   0  0  1  0  0  0  0  0  0  0  0  0
  148.0845  139.1423  154.0047 C   0  0  0  0  0  0  0  0  0  0  0  0
  150.3867  139.2989  154.9275 N   0  0  0  0  0  0  0  0  0  0  0  0
  150.7135  137.9884  154.6423 C   0  0  0  0  0  0  0  0  0  0  0  0
  152.0606  137.8534  154.8194 C   0  0  0  0  0  0  0  0  0  0  0  0
  152.4803  139.1512  155.2226 C   0  0  0  0  0  0  0  0  0  0  0  0
  151.4775  140.0114  155.2914 N   0  0  0  0  0  0  0  0  0  0  0  0
  147.1285  141.4513  153.6676 H   0  0  0  0  0  0  0  0  0  0  0  0
  147.7526  143.0557  153.9903 H   0  0  0  0  0  0  0  0  0  0  0  0
  147.1580  142.0650  155.3176 H   0  0  0  0  0  0  0  0  0  0  0  0
  149.6548  141.5394  153.6175 H   0  0  0  0  0  0  0  0  0  0  0  0
  150.8614  142.1760  155.3429 H   0  0  0  0  0  0  0  0  0  0  0  0
  148.6780  141.4655  157.1613 H   0  0  0  0  0  0  0  0  0  0  0  0
  150.3048  140.7881  157.1181 H   0  0  0  0  0  0  0  0  0  0  0  0
  151.3854  140.3725  159.0849 H   0  0  0  0  0  0  0  0  0  0  0  0
  152.2481  140.9229  157.6449 H   0  0  0  0  0  0  0  0  0  0  0  0
  153.6033  140.4383  159.9846 H   0  0  0  0  0  0  0  0  0  0  0  0
  154.0714  141.7367  158.8885 H   0  0  0  0  0  0  0  0  0  0  0  0
  152.4036  141.9558  161.3969 H   0  0  0  0  0  0  0  0  0  0  0  0
  153.7342  142.9988  160.8980 H   0  0  0  0  0  0  0  0  0  0  0  0
  152.3503  144.1406  159.3176 H   0  0  0  0  0  0  0  0  0  0  0  0
  151.1102  143.6908  160.4952 H   0  0  0  0  0  0  0  0  0  0  0  0
  148.6746  139.8446  155.9114 H   0  0  0  0  0  0  0  0  0  0  0  0
  147.0819  139.5666  154.0627 H   0  0  0  0  0  0  0  0  0  0  0  0
  148.0170  138.1007  154.3206 H   0  0  0  0  0  0  0  0  0  0  0  0
  148.3861  139.1490  152.9570 H   0  0  0  0  0  0  0  0  0  0  0  0
  149.9683  137.2670  154.3408 H   0  0  0  0  0  0  0  0  0  0  0  0
  152.6560  136.9628  154.6819 H   0  0  0  0  0  0  0  0  0  0  0  0
  153.4759  139.4905  155.4681 H   0  0  0  0  0  0  0  0  0  0  0  0
  149.5654  143.1438  155.5722 H   0  0  0  0  0  0  0  0  0  0  0  0
  1  2  1  0  0  0  0
  1 19  1  0  0  0  0
  1 20  1  0  0  0  0
  1 21  1  0  0  0  0
  2  3  1  0  0  0  0
  2 12  1  0  0  0  0
  2 22  1  0  0  0  0
  3  4  1  0  0  0  0
  3 23  1  0  0  0  0
  3 41  1  0  0  0  0
  4  5  1  0  0  0  0
  4 24  1  0  0  0  0
  4 25  1  0  0  0  0
  5  6  2  0  0  0  0
  5  7  1  0  0  0  0
  7 11  1  0  0  0  0
  7  8  1  0  0  0  0
  8  9  1  0  0  0  0
  8 26  1  0  0  0  0
  8 27  1  0  0  0  0
  9 10  1  0  0  0  0
  9 28  1  0  0  0  0
  9 29  1  0  0  0  0
 10 11  1  0  0  0  0
 10 30  1  0  0  0  0
 10 31  1  0  0  0  0
 11 32  1  0  0  0  0
 11 33  1  0  0  0  0
 12 13  1  0  0  0  0
 12 14  1  0  0  0  0
 12 34  1  0  0  0  0
 13 35  1  0  0  0  0
 13 36  1  0  0  0  0
 13 37  1  0  0  0  0
 14 18  1  0  0  0  0
 14 15  1  0  0  0  0
 15 16  2  0  0  0  0
 15 38  1  0  0  0  0
 16 17  1  0  0  0  0
 16 39  1  0  0  0  0
 17 18  2  0  0  0  0
 17 40  1  0  0  0  0
M  CHG  1   3   1
M  END
> <s_m_source_file>
AV-unprocessed.smi

> <i_m_source_file_index>
3308

> <i_lp_mmshare_version>
43012

> <i_f3d_flags>
0

> <s_epik_input>
bjFbY0hdW2NIXVtjSF1uMVtDQEBIXShbQ0gzXSlbQ0BIXShbQ0gzXSlbTkhdW0NIMl1DKD1PKU4yW0NIMl1bQ0gyXVtDSDJdW0NIMl0y

> <s_epik_cmdline>
J2VwaWtfcHl0aG9uJywgJy1waCcsICc3LjAnLCAnLXRuJywgJzgnLCAnLW1hJywgJzIwMCcsICctbWV0YWxfYmluZGluZycsICctaW1hZScsICc8aW5maWxlLm1hZT4nLCAnLW9tYWUnLCAnPG91dGZpbGUubWFlPic=

> <r_lp_tautomer_probability>
1

> <r_epik_Ionization_Penalty>
0.141739

> <r_epik_Ionization_Penalty_Charging>
0.141731

> <r_epik_Ionization_Penalty_Neutral>
8.82171e-06

> <r_epik_State_Penalty>
0.131043

> <r_epik_Charging_Adjusted_Penalty>
0.272773

> <i_epik_Tot_Q>
1

> <i_epik_Tot_abs_Q>
1

> <r_epik_Metal_State_Penalty>
0.131385

> <b_epik_Metal_Only>
0

> <s_lp_Force_Field>
OPLS_2005

> <r_lp_Energy>
32.7398

> <b_lp_Chiralities_Consistent>
1

> <s_lp_Variant>
AV-unprocessed.smi:3308-4

> <Gold.Version>
5.8.1

> <Gold.Id.Protein>
6NUR|6NUR_protein|mol2

> <Gold.PLP.Fitness>
49.4267

> <Gold.PLP.PLP>
-40.3095

> <Gold.PLP.part.hbond>
-2.0000

> <Gold.PLP.part.metal>
0.0000

> <Gold.PLP.part.buried>
-2.7064

> <Gold.PLP.part.nonpolar>
-36.4493

> <Gold.PLP.part.repulsive>
1.0310

> <Gold.PLP.ligand.clash>
0.0000

> <Gold.PLP.ligand.torsion>
1.1680

> <Gold.PLP.Chemscore.Hbond>
2.7500

> <Gold.PLP.Chemscore.CHOScore>
1.0000

> <Gold.PLP.Chemscore.Metal>
0.0000

> <Gold.Chemscore.Hbonds>
donor molecule, donor type, donor heavy atom, donor atom, acceptor molecule, acceptor atom, score
      L1  H     3    41       P1  8028  2.00
      P1  H  7989  7998       L1    18  0.65
      L1  C    15    38       P1  7948  0.23

> <Gold.PLP.Chemscore.Internal.Correction>
0.2033

> <Gold.Rescore>
     Score         DG    S(hbond)    S(metal)    S(lipo)     H(rot)  DE(clash)    DE(int)     intcor
     11.91     -15.65       1.00        0.00      97.47       1.78       0.34       3.41       ----

> <Gold.Chemscore.Fitness>
11.9080

> <Gold.Chemscore.DG>
-15.6550

> <Gold.Chemscore.ZeroCoef>
-5.4800

> <Gold.Chemscore.Hbond>
0.9990

> <Gold.Chemscore.Metal>
0.0000

> <Gold.Chemscore.Lipo>
97.4737

> <Gold.Chemscore.Internal_Hbond>
0.0000

> <Gold.Chemscore.DEClash>
0.3368

> <Gold.Chemscore.DEInternal>
3.4102

> <Gold.Chemscore.Rot>
1.7836

> <Gold.Chemscore.Internal.Correction>
   9.000000E+99

> <Gold.Chemscore.Hbonds>
donor molecule, donor type, donor heavy atom, donor atom, acceptor molecule, acceptor atom, score
      L1  H     3    41       P1  8028  1.00
      P1  H  7989  7998       L1    18  0.01

> <Gold.Chemscore.Hbond.Weighted>
-3.3365

> <Gold.Chemscore.Metal.Weighted>
-0.0000

> <Gold.Chemscore.Lipo.Weighted>
-11.4044

> <Gold.Chemscore.Internal_Hbond.Weighted>
0.0000

> <Gold.Chemscore.DEClash.Weighted>
0.3368

> <Gold.Chemscore.DEInternal.Weighted>
3.4102

> <Gold.Chemscore.Rot.Weighted>
4.5660

> <Gold.Chemscore.Internal.Correction.Weighted>
   9.000000E+99

> <Gold.Protein.RotatedTorsions>
[ 6907 6896 6895 6894 ] final -173.94 input  -60.11 | X-H torsion
[ 7974 7965 7964 7962 ] final -109.69 input  175.53 | X-H torsion
[ 8008 7997 7996 7995 ] final   38.51 input   59.86 | X-H torsion
[ 10167 10162 10161 10158 ] final -139.83 input  -65.29 | X-H torsion
[ 10718 10713 10712 10709 ] final  150.59 input   66.30 | X-H torsion
[ 10763 10752 10751 10750 ] final -157.68 input  -60.55 | X-H torsion
[ 11005 11000 10999 10996 ] final  131.02 input  -57.11 | X-H torsion

> <Gold.Protein.ActiveResidues>
 VAL166  LYS551  ARG553  GLY616  TRP617  ASP618  TYR619  PRO620  LYS621  CYS622 
 ASP623  PHE694  ASN695  SER759  ASP760  ASP761  ALA762  ILE779  LEU786  VAL792 
 PHE793  MET794  SER795  GLU796  ALA797  LYS798  CYS799  TRP800  GLU811  SER814 

> <Gold.Protein.RotatedAtoms>
  151.5642  133.3399  159.2976 H   0  0  0  0  0  0  0  0  0  0  0  0  # atno 6907 bound_to 6896
  150.8405  134.7697  159.6939 H   0  0  0  0  0  0  0  0  0  0  0  0  # atno 6908 bound_to 6896
  152.4473  134.5475  159.9908 H   0  0  0  0  0  0  0  0  0  0  0  0  # atno 6909 bound_to 6896
  145.1774  140.8955  143.3499 H   0  0  0  0  0  0  0  0  0  0  0  0  # atno 7974 bound_to 7965
  155.2213  140.3331  155.4315 H   0  0  0  0  0  0  0  0  0  0  0  0  # atno 8008 bound_to 7997
  156.2332  140.1860  156.7235 H   0  0  0  0  0  0  0  0  0  0  0  0  # atno 8009 bound_to 7997
  154.6014  140.0622  156.9358 H   0  0  0  0  0  0  0  0  0  0  0  0  # atno 8010 bound_to 7997
  139.8341  143.7407  152.2665 H   0  0  0  0  0  0  0  0  0  0  0  0  # atno 10167 bound_to 10162
  157.2815  131.0836  151.1528 H   0  0  0  0  0  0  0  0  0  0  0  0  # atno 10718 bound_to 10713
  154.7617  135.3119  154.8365 H   0  0  0  0  0  0  0  0  0  0  0  0  # atno 10763 bound_to 10752
  153.9124  135.6804  153.4754 H   0  0  0  0  0  0  0  0  0  0  0  0  # atno 10764 bound_to 10752
  153.1219  135.4819  154.9140 H   0  0  0  0  0  0  0  0  0  0  0  0  # atno 10765 bound_to 10752
  139.9706  134.9578  156.9378 H   0  0  0  0  0  0  0  0  0  0  0  0  # atno 11005 bound_to 11000
  145.0170  139.3458  143.6091 LP  0  0  0  0  0  0  0  0  0  0  0  0  # atno 17320 bound_to 7965
  146.3459  139.9456  142.8735 LP  0  0  0  0  0  0  0  0  0  0  0  0  # atno 17321 bound_to 7965
  139.7624  144.7502  151.0344 LP  0  0  0  0  0  0  0  0  0  0  0  0  # atno 17342 bound_to 10162
  140.7804  143.4736  151.0113 LP  0  0  0  0  0  0  0  0  0  0  0  0  # atno 17343 bound_to 10162
  157.2960  130.6819  149.6139 LP  0  0  0  0  0  0  0  0  0  0  0  0  # atno 17370 bound_to 10713
  155.9664  130.4406  150.5308 LP  0  0  0  0  0  0  0  0  0  0  0  0  # atno 17371 bound_to 10713
  140.5302  134.0821  155.7314 LP  0  0  0  0  0  0  0  0  0  0  0  0  # atno 17394 bound_to 11000
  141.1385  133.9179  157.2379 LP  0  0  0  0  0  0  0  0  0  0  0  0  # atno 17395 bound_to 11000

$$$$
