AV-unprocessed.smi:2571|AV-procd|sdf|10108|dock4
  -GOLD-   2272014123D 1   1.00000     0.00000
 Structure written by MMmdl.
 38 40  0  0  0  0  0  0  0  0  1 V2000
  151.8336  144.9495  159.3650 C   0  0  0  0  0  0  0  0  0  0  0  0
  152.4451  144.1019  160.3267 O   0  0  0  0  0  0  0  0  0  0  0  0
  152.6645  142.7848  159.9842 C   0  0  0  0  0  0  0  0  0  0  0  0
  153.4781  142.0248  160.8489 C   0  0  0  0  0  0  0  0  0  0  0  0
  153.7515  140.6713  160.5760 C   0  0  0  0  0  0  0  0  0  0  0  0
  153.2128  140.0613  159.4286 C   0  0  0  0  0  0  0  0  0  0  0  0
  152.4003  140.8049  158.5486 C   0  0  0  0  0  0  0  0  0  0  0  0
  151.8169  140.1442  157.3097 C   0  0  2  0  0  0  0  0  0  0  0  0
  152.8256  139.6193  156.4674 O   0  0  0  0  0  0  0  0  0  0  0  0
  150.9167  141.1200  156.5246 C   0  0  0  0  0  0  0  0  0  0  0  0
  150.1386  140.4567  155.4895 N   0  0  0  0  0  0  0  0  0  0  0  0
  150.7582  139.6173  154.6204 N   0  0  0  0  0  0  0  0  0  0  0  0
  149.8059  139.1779  153.7999 C   0  0  0  0  0  0  0  0  0  0  0  0
  148.5334  139.7278  154.1170 C   0  0  0  0  0  0  0  0  0  0  0  0
  147.1864  139.6035  153.5685 C   0  0  0  0  0  0  0  0  0  0  0  0
  146.2313  140.2776  154.1287 N   0  0  0  0  0  0  0  0  0  0  0  0
  146.4748  141.1060  155.2302 N   0  0  0  0  0  0  0  0  0  0  0  0
  145.2967  141.7987  155.7469 C   0  0  0  0  0  0  0  0  0  0  0  0
  147.6955  141.2941  155.8165 C   0  0  0  0  0  0  0  0  0  0  0  0
  147.8892  142.0322  156.7824 O   0  0  0  0  0  0  0  0  0  0  0  0
  148.7934  140.5232  155.1840 C   0  0  0  0  0  0  0  0  0  0  0  0
  152.1263  142.1618  158.8298 C   0  0  0  0  0  0  0  0  0  0  0  0
  151.7268  145.9501  159.7836 H   0  0  0  0  0  0  0  0  0  0  0  0
  150.8368  144.5960  159.0981 H   0  0  0  0  0  0  0  0  0  0  0  0
  152.4413  145.0330  158.4629 H   0  0  0  0  0  0  0  0  0  0  0  0
  153.8963  142.4846  161.7325 H   0  0  0  0  0  0  0  0  0  0  0  0
  154.3752  140.1009  161.2483 H   0  0  0  0  0  0  0  0  0  0  0  0
  153.4263  139.0215  159.2279 H   0  0  0  0  0  0  0  0  0  0  0  0
  151.2101  139.2952  157.6275 H   0  0  0  0  0  0  0  0  0  0  0  0
  152.8592  138.6830  156.5896 H   0  0  0  0  0  0  0  0  0  0  0  0
  150.2240  141.6136  157.2081 H   0  0  0  0  0  0  0  0  0  0  0  0
  151.5068  141.9161  156.0719 H   0  0  0  0  0  0  0  0  0  0  0  0
  150.0683  138.4864  153.0130 H   0  0  0  0  0  0  0  0  0  0  0  0
  146.9946  138.9598  152.7102 H   0  0  0  0  0  0  0  0  0  0  0  0
  145.1248  141.5376  156.7921 H   0  0  0  0  0  0  0  0  0  0  0  0
  144.3942  141.5415  155.1900 H   0  0  0  0  0  0  0  0  0  0  0  0
  145.4276  142.8797  155.6813 H   0  0  0  0  0  0  0  0  0  0  0  0
  151.4965  142.7076  158.1434 H   0  0  0  0  0  0  0  0  0  0  0  0
  1  2  1  0  0  0  0
  1 23  1  0  0  0  0
  1 24  1  0  0  0  0
  1 25  1  0  0  0  0
  2  3  1  0  0  0  0
  3 22  1  0  0  0  0
  3  4  2  0  0  0  0
  4  5  1  0  0  0  0
  4 26  1  0  0  0  0
  5  6  2  0  0  0  0
  5 27  1  0  0  0  0
  6  7  1  0  0  0  0
  6 28  1  0  0  0  0
  7  8  1  0  0  0  0
  7 22  2  0  0  0  0
  8  9  1  0  0  0  0
  8 10  1  0  0  0  0
  8 29  1  0  0  0  0
  9 30  1  0  0  0  0
 10 11  1  0  0  0  0
 10 31  1  0  0  0  0
 10 32  1  0  0  0  0
 11 21  1  0  0  0  0
 11 12  1  0  0  0  0
 12 13  2  0  0  0  0
 13 14  1  0  0  0  0
 13 33  1  0  0  0  0
 14 21  2  0  0  0  0
 14 15  1  0  0  0  0
 15 16  2  0  0  0  0
 15 34  1  0  0  0  0
 16 17  1  0  0  0  0
 17 18  1  0  0  0  0
 17 19  1  0  0  0  0
 18 35  1  0  0  0  0
 18 36  1  0  0  0  0
 18 37  1  0  0  0  0
 19 20  2  0  0  0  0
 19 21  1  0  0  0  0
 22 38  1  0  0  0  0
M  END
> <s_m_source_file>
AV-unprocessed.smi

> <i_m_source_file_index>
2571

> <i_lp_mmshare_version>
43012

> <i_f3d_flags>
0

> <s_epik_input>
W0NIM11PYzFbY0hdW2NIXVtjSF1jKFtjSF0xKVtDQEhdKFtPSF0pW0NIMl1uKG5bY0hdMiljKGMyMyljKD1PKW4oW0NIM10pbltjSF0z

> <s_epik_cmdline>
J2VwaWtfcHl0aG9uJywgJy1waCcsICc3LjAnLCAnLXRuJywgJzgnLCAnLW1hJywgJzIwMCcsICctbWV0YWxfYmluZGluZycsICctaW1hZScsICc8aW5maWxlLm1hZT4nLCAnLW9tYWUnLCAnPG91dGZpbGUubWFlPic=

> <r_lp_tautomer_probability>
1

> <r_epik_Ionization_Penalty>
1.38887e-06

> <r_epik_Ionization_Penalty_Charging>
1.65421e-10

> <r_epik_Ionization_Penalty_Neutral>
1.38871e-06

> <r_epik_State_Penalty>
-0

> <r_epik_Charging_Adjusted_Penalty>
1.65421e-10

> <i_epik_Tot_Q>
0

> <i_epik_Tot_abs_Q>
0

> <r_epik_Metal_State_Penalty>
-0

> <b_epik_Metal_Only>
0

> <s_lp_Force_Field>
OPLS_2005

> <r_lp_Energy>
30.8007

> <b_lp_Chiralities_Consistent>
1

> <s_lp_Variant>
AV-unprocessed.smi:2571-1

> <Gold.Version>
5.8.1

> <Gold.Id.Protein>
6NUR|6NUR_protein|mol2

> <Gold.PLP.Fitness>
47.1138

> <Gold.PLP.PLP>
-38.8557

> <Gold.PLP.part.hbond>
-2.0000

> <Gold.PLP.part.metal>
0.0000

> <Gold.PLP.part.buried>
-3.1822

> <Gold.PLP.part.nonpolar>
-36.4898

> <Gold.PLP.part.repulsive>
1.8721

> <Gold.PLP.ligand.clash>
0.0000

> <Gold.PLP.ligand.torsion>
0.2681

> <Gold.PLP.Chemscore.Hbond>
2.0000

> <Gold.PLP.Chemscore.CHOScore>
0.9046

> <Gold.PLP.Chemscore.Metal>
0.0000

> <Gold.Chemscore.Hbonds>
donor molecule, donor type, donor heavy atom, donor atom, acceptor molecule, acceptor atom, score
      P1  H  7989  7998       L1    12  1.00
      P1  H  7997  8010       L1     9  1.00
      L1  C    13    33       P1  7948  0.54
      L1  C    13    33       P1  7957  0.34

> <Gold.PLP.Chemscore.Internal.Correction>
0.0805

> <Gold.Rescore>
     Score         DG    S(hbond)    S(metal)    S(lipo)     H(rot)  DE(clash)    DE(int)     intcor
     14.46     -16.00       0.98        0.00     110.46       2.21       0.01       1.53       ----

> <Gold.Chemscore.Fitness>
14.4566

> <Gold.Chemscore.DG>
-15.9997

> <Gold.Chemscore.ZeroCoef>
-5.4800

> <Gold.Chemscore.Hbond>
0.9774

> <Gold.Chemscore.Metal>
0.0000

> <Gold.Chemscore.Lipo>
110.4642

> <Gold.Chemscore.Internal_Hbond>
0.0000

> <Gold.Chemscore.DEClash>
0.0139

> <Gold.Chemscore.DEInternal>
1.5291

> <Gold.Chemscore.Rot>
2.2146

> <Gold.Chemscore.Internal.Correction>
   9.000000E+99

> <Gold.Chemscore.Hbonds>
donor molecule, donor type, donor heavy atom, donor atom, acceptor molecule, acceptor atom, score
      P1  H  7989  7998       L1    12  0.08
      P1  H  7997  8010       L1     9  0.49

> <Gold.Chemscore.Hbond.Weighted>
-3.2646

> <Gold.Chemscore.Metal.Weighted>
-0.0000

> <Gold.Chemscore.Lipo.Weighted>
-12.9243

> <Gold.Chemscore.Internal_Hbond.Weighted>
0.0000

> <Gold.Chemscore.DEClash.Weighted>
0.0139

> <Gold.Chemscore.DEInternal.Weighted>
1.5291

> <Gold.Chemscore.Rot.Weighted>
5.6693

> <Gold.Chemscore.Internal.Correction.Weighted>
   9.000000E+99

> <Gold.Protein.RotatedTorsions>
[ 6907 6896 6895 6894 ] final  -50.92 input  -60.11 | X-H torsion
[ 7974 7965 7964 7962 ] final -166.66 input  175.53 | X-H torsion
[ 8008 7997 7996 7995 ] final   64.17 input   59.86 | X-H torsion
[ 10167 10162 10161 10158 ] final  -98.92 input  -65.29 | X-H torsion
[ 10718 10713 10712 10709 ] final   80.72 input   66.30 | X-H torsion
[ 10763 10752 10751 10750 ] final -114.12 input  -60.55 | X-H torsion
[ 11005 11000 10999 10996 ] final   77.39 input  -57.11 | X-H torsion

> <Gold.Protein.ActiveResidues>
 VAL166  LYS551  ARG553  GLY616  TRP617  ASP618  TYR619  PRO620  LYS621  CYS622 
 ASP623  PHE694  ASN695  SER759  ASP760  ASP761  ALA762  ILE779  LEU786  VAL792 
 PHE793  MET794  SER795  GLU796  ALA797  LYS798  CYS799  TRP800  GLU811  SER814 

> <Gold.Protein.RotatedAtoms>
  150.8661  134.8024  159.7119 H   0  0  0  0  0  0  0  0  0  0  0  0  # atno 6907 bound_to 6896
  152.4682  134.5022  159.9738 H   0  0  0  0  0  0  0  0  0  0  0  0  # atno 6908 bound_to 6896
  151.5118  133.3445  159.2922 H   0  0  0  0  0  0  0  0  0  0  0  0  # atno 6909 bound_to 6896
  144.7240  140.2633  143.6261 H   0  0  0  0  0  0  0  0  0  0  0  0  # atno 7974 bound_to 7965
  155.6418  140.3497  155.4717 H   0  0  0  0  0  0  0  0  0  0  0  0  # atno 8008 bound_to 7997
  155.9919  140.1195  157.0653 H   0  0  0  0  0  0  0  0  0  0  0  0  # atno 8009 bound_to 7997
  154.4222  140.1117  156.5564 H   0  0  0  0  0  0  0  0  0  0  0  0  # atno 8010 bound_to 7997
  140.2679  143.3363  152.0563 H   0  0  0  0  0  0  0  0  0  0  0  0  # atno 10167 bound_to 10162
  157.6814  130.9972  150.2121 H   0  0  0  0  0  0  0  0  0  0  0  0  # atno 10718 bound_to 10713
  154.8426  135.4429  154.1455 H   0  0  0  0  0  0  0  0  0  0  0  0  # atno 10763 bound_to 10752
  153.2629  135.6938  153.7565 H   0  0  0  0  0  0  0  0  0  0  0  0  # atno 10764 bound_to 10752
  153.6835  135.3399  155.3159 H   0  0  0  0  0  0  0  0  0  0  0  0  # atno 10765 bound_to 10752
  139.9257  134.7679  156.1516 H   0  0  0  0  0  0  0  0  0  0  0  0  # atno 11005 bound_to 11000
  145.8114  139.2005  143.1990 LP  0  0  0  0  0  0  0  0  0  0  0  0  # atno 17320 bound_to 7965
  146.0592  140.7988  142.9743 LP  0  0  0  0  0  0  0  0  0  0  0  0  # atno 17321 bound_to 7965
  139.4997  144.6676  151.6320 LP  0  0  0  0  0  0  0  0  0  0  0  0  # atno 17342 bound_to 10162
  140.5913  143.9774  150.6326 LP  0  0  0  0  0  0  0  0  0  0  0  0  # atno 17343 bound_to 10162
  156.2790  130.3731  149.7954 LP  0  0  0  0  0  0  0  0  0  0  0  0  # atno 17370 bound_to 10713
  156.5649  130.8399  151.3339 LP  0  0  0  0  0  0  0  0  0  0  0  0  # atno 17371 bound_to 10713
  141.0812  133.6753  156.2340 LP  0  0  0  0  0  0  0  0  0  0  0  0  # atno 17394 bound_to 11000
  140.6345  134.5230  157.5563 LP  0  0  0  0  0  0  0  0  0  0  0  0  # atno 17395 bound_to 11000

$$$$
