AV-unprocessed.smi:833|AV-procd|sdf|3881|dock5
  -GOLD-   22720 1333D 1   1.00000     0.00000
 Structure written by MMmdl.
 39 40  0  0  0  0  0  0  0  0  1 V2000
  144.1053  133.9214  150.7745 C   0  0  0  0  0  0  0  0  0  0  0  0
  145.1520  135.0364  150.9033 C   0  0  1  0  0  0  0  0  0  0  0  0
  144.8181  136.0226  149.9482 O   0  0  0  0  0  0  0  0  0  0  0  0
  145.1506  135.6711  152.3090 C   0  0  0  0  0  0  0  0  0  0  0  0
  146.3784  136.4132  152.5736 N   0  0  0  0  0  0  0  0  0  0  0  0
  146.4374  137.6514  153.0818 C   0  0  0  0  0  0  0  0  0  0  0  0
  145.4437  138.3112  153.3856 O   0  0  0  0  0  0  0  0  0  0  0  0
  147.7083  138.0720  153.1897 N   0  0  0  0  0  0  0  0  0  0  0  0
  148.1738  139.3445  153.6251 C   0  0  0  0  0  0  0  0  0  0  0  0
  147.3726  140.5054  153.4975 C   0  0  0  0  0  0  0  0  0  0  0  0
  147.8436  141.7282  154.0056 C   0  0  0  0  0  0  0  0  0  0  0  0
  149.0962  141.7449  154.6405 C   0  0  0  0  0  0  0  0  0  0  0  0
  149.8649  140.6465  154.7823 N   0  0  0  0  0  0  0  0  0  0  0  0
  149.4314  139.4621  154.2841 C   0  0  0  0  0  0  0  0  0  0  0  0
  150.2882  138.3491  154.4478 N   0  0  0  0  0  0  0  0  0  0  0  0
  151.6798  138.5999  154.8125 C   0  0  0  0  0  0  0  0  0  0  0  0
  152.0919  137.4670  155.7584 C   0  0  0  0  0  0  0  0  0  0  0  0
  151.0864  136.3602  155.4567 C   0  0  0  0  0  0  0  0  0  0  0  0
  149.8209  137.1497  155.1347 C   0  0  0  0  0  0  0  0  0  0  0  0
  144.3144  133.1063  151.4677 H   0  0  0  0  0  0  0  0  0  0  0  0
  144.0988  133.5014  149.7680 H   0  0  0  0  0  0  0  0  0  0  0  0
  143.1017  134.2909  150.9883 H   0  0  0  0  0  0  0  0  0  0  0  0
  146.1357  134.6274  150.6682 H   0  0  0  0  0  0  0  0  0  0  0  0
  145.1684  135.7589  149.1103 H   0  0  0  0  0  0  0  0  0  0  0  0
  144.2649  136.2876  152.4756 H   0  0  0  0  0  0  0  0  0  0  0  0
  145.1129  134.8830  153.0616 H   0  0  0  0  0  0  0  0  0  0  0  0
  147.2465  135.9484  152.3513 H   0  0  0  0  0  0  0  0  0  0  0  0
  148.4155  137.4592  152.8111 H   0  0  0  0  0  0  0  0  0  0  0  0
  146.3957  140.4726  153.0395 H   0  0  0  0  0  0  0  0  0  0  0  0
  147.2523  142.6280  153.9224 H   0  0  0  0  0  0  0  0  0  0  0  0
  149.4901  142.6627  155.0512 H   0  0  0  0  0  0  0  0  0  0  0  0
  152.2904  138.5685  153.9099 H   0  0  0  0  0  0  0  0  0  0  0  0
  151.8141  139.5769  155.2790 H   0  0  0  0  0  0  0  0  0  0  0  0
  153.1267  137.1532  155.6185 H   0  0  0  0  0  0  0  0  0  0  0  0
  151.9767  137.7930  156.7930 H   0  0  0  0  0  0  0  0  0  0  0  0
  151.4069  135.7935  154.5815 H   0  0  0  0  0  0  0  0  0  0  0  0
  150.9542  135.6634  156.2847 H   0  0  0  0  0  0  0  0  0  0  0  0
  149.3102  137.4088  156.0629 H   0  0  0  0  0  0  0  0  0  0  0  0
  149.1327  136.5772  154.5123 H   0  0  0  0  0  0  0  0  0  0  0  0
  1  2  1  0  0  0  0
  1 20  1  0  0  0  0
  1 21  1  0  0  0  0
  1 22  1  0  0  0  0
  2  3  1  0  0  0  0
  2  4  1  0  0  0  0
  2 23  1  0  0  0  0
  3 24  1  0  0  0  0
  4  5  1  0  0  0  0
  4 25  1  0  0  0  0
  4 26  1  0  0  0  0
  5  6  1  0  0  0  0
  5 27  1  0  0  0  0
  6  7  2  0  0  0  0
  6  8  1  0  0  0  0
  8  9  1  0  0  0  0
  8 28  1  0  0  0  0
  9 14  1  0  0  0  0
  9 10  2  0  0  0  0
 10 11  1  0  0  0  0
 10 29  1  0  0  0  0
 11 12  2  0  0  0  0
 11 30  1  0  0  0  0
 12 13  1  0  0  0  0
 12 31  1  0  0  0  0
 13 14  2  0  0  0  0
 14 15  1  0  0  0  0
 15 19  1  0  0  0  0
 15 16  1  0  0  0  0
 16 17  1  0  0  0  0
 16 32  1  0  0  0  0
 16 33  1  0  0  0  0
 17 18  1  0  0  0  0
 17 34  1  0  0  0  0
 17 35  1  0  0  0  0
 18 19  1  0  0  0  0
 18 36  1  0  0  0  0
 18 37  1  0  0  0  0
 19 38  1  0  0  0  0
 19 39  1  0  0  0  0
M  END
> <s_m_source_file>
AV-unprocessed.smi

> <i_m_source_file_index>
833

> <i_lp_mmshare_version>
43012

> <i_f3d_flags>
0

> <s_epik_input>
W0NIM11bQ0BIXShbT0hdKVtDSDJdW05IXUMoPU8pW05IXWMxW2NIXVtjSF1bY0hdbmMxTjJbQ0gyXVtDSDJdW0NIMl1bQ0gyXTI=

> <s_epik_cmdline>
J2VwaWtfcHl0aG9uJywgJy1waCcsICc3LjAnLCAnLXRuJywgJzgnLCAnLW1hJywgJzIwMCcsICctbWV0YWxfYmluZGluZycsICctaW1hZScsICc8aW5maWxlLm1hZT4nLCAnLW9tYWUnLCAnPG91dGZpbGUubWFlPic=

> <r_lp_tautomer_probability>
1

> <r_epik_Ionization_Penalty>
0.0986749

> <r_epik_Ionization_Penalty_Charging>
0

> <r_epik_Ionization_Penalty_Neutral>
0.0986749

> <r_epik_State_Penalty>
0.0881977

> <r_epik_Charging_Adjusted_Penalty>
0.0881977

> <i_epik_Tot_Q>
0

> <i_epik_Tot_abs_Q>
0

> <r_epik_Metal_State_Penalty>
0.0755487

> <b_epik_Metal_Only>
0

> <s_lp_Force_Field>
OPLS_2005

> <r_lp_Energy>
30.9988

> <b_lp_Chiralities_Consistent>
1

> <s_lp_Variant>
AV-unprocessed.smi:833-2

> <Gold.Version>
5.8.1

> <Gold.Id.Protein>
6NUR|6NUR_protein|mol2

> <Gold.PLP.Fitness>
41.8715

> <Gold.PLP.PLP>
-29.7512

> <Gold.PLP.part.hbond>
-4.9841

> <Gold.PLP.part.metal>
0.0000

> <Gold.PLP.part.buried>
0.2866

> <Gold.PLP.part.nonpolar>
-26.3879

> <Gold.PLP.part.repulsive>
1.7309

> <Gold.PLP.ligand.clash>
0.0000

> <Gold.PLP.ligand.torsion>
0.6066

> <Gold.PLP.Chemscore.Hbond>
3.3335

> <Gold.PLP.Chemscore.CHOScore>
1.0000

> <Gold.PLP.Chemscore.Metal>
0.0000

> <Gold.Chemscore.Hbonds>
donor molecule, donor type, donor heavy atom, donor atom, acceptor molecule, acceptor atom, score
      L1  H     3    24       P1  7921  1.00
      L1  H     5    27       P1  7948  0.88
      L1  H     8    28       P1  7948  1.00
      P1  H  7989  7998       L1    13  0.45
      L1  C    12    31       P1  8028  1.00

> <Gold.PLP.Chemscore.Internal.Correction>
0.3332

> <Gold.Rescore>
     Score         DG    S(hbond)    S(metal)    S(lipo)     H(rot)  DE(clash)    DE(int)     intcor
     15.49     -17.51       2.88        0.00      64.98       2.03       0.08       1.93       ----

> <Gold.Chemscore.Fitness>
15.4935

> <Gold.Chemscore.DG>
-17.5071

> <Gold.Chemscore.ZeroCoef>
-5.4800

> <Gold.Chemscore.Hbond>
2.8811

> <Gold.Chemscore.Metal>
0.0000

> <Gold.Chemscore.Lipo>
64.9803

> <Gold.Chemscore.Internal_Hbond>
0.0000

> <Gold.Chemscore.DEClash>
0.0800

> <Gold.Chemscore.DEInternal>
1.9336

> <Gold.Chemscore.Rot>
2.0306

> <Gold.Chemscore.Internal.Correction>
   9.000000E+99

> <Gold.Chemscore.Hbonds>
donor molecule, donor type, donor heavy atom, donor atom, acceptor molecule, acceptor atom, score
      L1  H     3    24       P1  7921  0.97
      L1  H     5    27       P1  7948  0.87
      L1  H     8    28       P1  7948  0.97
      P1  H  7989  7998       L1    13  0.05

> <Gold.Chemscore.Hbond.Weighted>
-9.6228

> <Gold.Chemscore.Metal.Weighted>
-0.0000

> <Gold.Chemscore.Lipo.Weighted>
-7.6027

> <Gold.Chemscore.Internal_Hbond.Weighted>
0.0000

> <Gold.Chemscore.DEClash.Weighted>
0.0800

> <Gold.Chemscore.DEInternal.Weighted>
1.9336

> <Gold.Chemscore.Rot.Weighted>
5.1984

> <Gold.Chemscore.Internal.Correction.Weighted>
   9.000000E+99

> <Gold.Protein.RotatedTorsions>
[ 6907 6896 6895 6894 ] final  -49.68 input  -60.11 | X-H torsion
[ 7974 7965 7964 7962 ] final  -47.86 input  175.53 | X-H torsion
[ 8008 7997 7996 7995 ] final  155.58 input   59.86 | X-H torsion
[ 10167 10162 10161 10158 ] final  -86.13 input  -65.29 | X-H torsion
[ 10718 10713 10712 10709 ] final -145.19 input   66.30 | X-H torsion
[ 10763 10752 10751 10750 ] final  -10.85 input  -60.55 | X-H torsion
[ 11005 11000 10999 10996 ] final  175.46 input  -57.11 | X-H torsion

> <Gold.Protein.ActiveResidues>
 VAL166  LYS551  ARG553  GLY616  TRP617  ASP618  TYR619  PRO620  LYS621  CYS622 
 ASP623  PHE694  ASN695  SER759  ASP760  ASP761  ALA762  ILE779  LEU786  VAL792 
 PHE793  MET794  SER795  GLU796  ALA797  LYS798  CYS799  TRP800  GLU811  SER814 

> <Gold.Protein.RotatedAtoms>
  150.8781  134.8168  159.7204 H   0  0  0  0  0  0  0  0  0  0  0  0  # atno 6907 bound_to 6896
  152.4760  134.4839  159.9684 H   0  0  0  0  0  0  0  0  0  0  0  0  # atno 6908 bound_to 6896
  151.4918  133.3484  159.2890 H   0  0  0  0  0  0  0  0  0  0  0  0  # atno 6909 bound_to 6896
  145.9572  140.7515  142.9475 H   0  0  0  0  0  0  0  0  0  0  0  0  # atno 7974 bound_to 7965
  156.2470  140.1936  156.6823 H   0  0  0  0  0  0  0  0  0  0  0  0  # atno 8008 bound_to 7997
  154.6313  140.0595  156.9761 H   0  0  0  0  0  0  0  0  0  0  0  0  # atno 8009 bound_to 7997
  155.1706  140.3268  155.4396 H   0  0  0  0  0  0  0  0  0  0  0  0  # atno 8010 bound_to 7997
  140.3971  143.2679  151.9190 H   0  0  0  0  0  0  0  0  0  0  0  0  # atno 10167 bound_to 10162
  156.3794  130.7829  151.2019 H   0  0  0  0  0  0  0  0  0  0  0  0  # atno 10718 bound_to 10713
  153.4752  135.7017  153.5970 H   0  0  0  0  0  0  0  0  0  0  0  0  # atno 10763 bound_to 10752
  153.4207  135.3826  155.2109 H   0  0  0  0  0  0  0  0  0  0  0  0  # atno 10764 bound_to 10752
  154.8724  135.3927  154.4194 H   0  0  0  0  0  0  0  0  0  0  0  0  # atno 10765 bound_to 10752
  140.3625  134.7101  157.4340 H   0  0  0  0  0  0  0  0  0  0  0  0  # atno 11005 bound_to 11000
  144.6807  140.2531  143.7329 LP  0  0  0  0  0  0  0  0  0  0  0  0  # atno 17320 bound_to 7965
  145.8090  139.1995  143.2004 LP  0  0  0  0  0  0  0  0  0  0  0  0  # atno 17321 bound_to 7965
  139.4786  144.5670  151.8149 LP  0  0  0  0  0  0  0  0  0  0  0  0  # atno 17342 bound_to 10162
  140.4779  144.1493  150.5928 LP  0  0  0  0  0  0  0  0  0  0  0  0  # atno 17343 bound_to 10162
  157.7491  131.0348  150.4336 LP  0  0  0  0  0  0  0  0  0  0  0  0  # atno 17370 bound_to 10713
  156.4578  130.4025  149.6595 LP  0  0  0  0  0  0  0  0  0  0  0  0  # atno 17371 bound_to 10713
  140.0616  134.5988  155.8743 LP  0  0  0  0  0  0  0  0  0  0  0  0  # atno 17394 bound_to 11000
  141.1980  133.6599  156.5769 LP  0  0  0  0  0  0  0  0  0  0  0  0  # atno 17395 bound_to 11000

$$$$
