AV-unprocessed.smi:3176|AV-procd|sdf|12124|dock2
  -GOLD-   2272017563D 1   1.00000     0.00000
 Structure written by MMmdl.
 32 33  0  0  0  0  0  0  0  0  1 V2000
  149.8457  140.2853  156.7024 O   0  0  0  0  0  0  0  0  0  0  0  0
  149.6431  141.3294  156.0813 C   0  0  0  0  0  0  0  0  0  0  0  0
  149.8105  142.5483  156.6168 N   0  0  0  0  0  0  0  0  0  0  0  0
  150.2326  142.8087  157.9884 C   0  0  0  0  0  0  0  0  0  0  0  0
  151.7645  142.8844  158.1051 C   0  0  0  0  0  0  0  0  0  0  0  0
  152.2368  142.7916  159.5433 C   0  0  0  0  0  0  0  0  0  0  0  0
  153.1017  141.7533  159.9504 C   0  0  0  0  0  0  0  0  0  0  0  0
  153.5173  141.7145  161.2953 C   0  0  0  0  0  0  0  0  0  0  0  0
  153.0555  142.7111  162.1765 C   0  0  0  0  0  0  0  0  0  0  0  0
  152.1955  143.7066  161.6713 C   0  0  0  0  0  0  0  0  0  0  0  0
  151.7914  143.7534  160.3834 N   0  0  0  0  0  0  0  0  0  0  0  0
  149.1832  141.2830  154.6200 C   0  0  2  0  0  0  0  0  0  0  0  0
  147.8382  141.9909  154.3716 C   0  0  0  0  0  0  0  0  0  0  0  0
  146.8798  140.8523  154.0827 C   0  0  0  0  0  0  0  0  0  0  0  0
  147.8066  139.8155  153.4652 C   0  0  0  0  0  0  0  0  0  0  0  0
  148.9768  139.9177  154.2613 O   0  0  0  0  0  0  0  0  0  0  0  0
  149.6305  143.3523  156.0330 H   0  0  0  0  0  0  0  0  0  0  0  0
  149.7760  143.7317  158.3496 H   0  0  0  0  0  0  0  0  0  0  0  0
  149.8494  142.0054  158.6185 H   0  0  0  0  0  0  0  0  0  0  0  0
  152.2233  142.0798  157.5283 H   0  0  0  0  0  0  0  0  0  0  0  0
  152.1313  143.8164  157.6728 H   0  0  0  0  0  0  0  0  0  0  0  0
  153.4411  141.0046  159.2493 H   0  0  0  0  0  0  0  0  0  0  0  0
  154.1786  140.9350  161.6439 H   0  0  0  0  0  0  0  0  0  0  0  0
  153.3536  142.7128  163.2145 H   0  0  0  0  0  0  0  0  0  0  0  0
  151.8225  144.4865  162.3189 H   0  0  0  0  0  0  0  0  0  0  0  0
  149.9484  141.7099  153.9693 H   0  0  0  0  0  0  0  0  0  0  0  0
  147.4990  142.6095  155.2040 H   0  0  0  0  0  0  0  0  0  0  0  0
  147.9209  142.6390  153.4984 H   0  0  0  0  0  0  0  0  0  0  0  0
  146.4595  140.4701  155.0141 H   0  0  0  0  0  0  0  0  0  0  0  0
  146.0583  141.1390  153.4256 H   0  0  0  0  0  0  0  0  0  0  0  0
  147.3900  138.8084  153.4882 H   0  0  0  0  0  0  0  0  0  0  0  0
  148.0435  140.0701  152.4308 H   0  0  0  0  0  0  0  0  0  0  0  0
  1  2  2  0  0  0  0
  2  3  1  0  0  0  0
  2 12  1  0  0  0  0
  3  4  1  0  0  0  0
  3 17  1  0  0  0  0
  4  5  1  0  0  0  0
  4 18  1  0  0  0  0
  4 19  1  0  0  0  0
  5  6  1  0  0  0  0
  5 20  1  0  0  0  0
  5 21  1  0  0  0  0
  6 11  1  0  0  0  0
  6  7  2  0  0  0  0
  7  8  1  0  0  0  0
  7 22  1  0  0  0  0
  8  9  2  0  0  0  0
  8 23  1  0  0  0  0
  9 10  1  0  0  0  0
  9 24  1  0  0  0  0
 10 11  2  0  0  0  0
 10 25  1  0  0  0  0
 12 16  1  0  0  0  0
 12 13  1  0  0  0  0
 12 26  1  0  0  0  0
 13 14  1  0  0  0  0
 13 27  1  0  0  0  0
 13 28  1  0  0  0  0
 14 15  1  0  0  0  0
 14 29  1  0  0  0  0
 14 30  1  0  0  0  0
 15 16  1  0  0  0  0
 15 31  1  0  0  0  0
 15 32  1  0  0  0  0
M  END
> <s_m_source_file>
AV-unprocessed.smi

> <i_m_source_file_index>
3176

> <i_lp_mmshare_version>
43012

> <i_f3d_flags>
0

> <s_epik_input>
TzFbQ0gyXVtDSDJdW0NIMl1bQ0BIXTFDKD1PKVtOSF1bQ0gyXVtDSDJdYzJbY0hdW2NIXVtjSF1bY0hdbjI=

> <s_epik_cmdline>
J2VwaWtfcHl0aG9uJywgJy1waCcsICc3LjAnLCAnLXRuJywgJzgnLCAnLW1hJywgJzIwMCcsICctbWV0YWxfYmluZGluZycsICctaW1hZScsICc8aW5maWxlLm1hZT4nLCAnLW9tYWUnLCAnPG91dGZpbGUubWFlPic=

> <r_epik_Ionization_Penalty>
0.0282744

> <r_epik_Ionization_Penalty_Charging>
0

> <r_epik_Ionization_Penalty_Neutral>
0.0282744

> <r_epik_State_Penalty>
0.0231919

> <r_epik_Charging_Adjusted_Penalty>
0.0231919

> <i_epik_Tot_Q>
0

> <i_epik_Tot_abs_Q>
0

> <r_epik_Metal_State_Penalty>
0.02213

> <b_epik_Metal_Only>
0

> <s_lp_Force_Field>
OPLS_2005

> <r_lp_Energy>
16.3652

> <b_lp_Chiralities_Consistent>
1

> <s_lp_Variant>
AV-unprocessed.smi:3176-1

> <Gold.Version>
5.8.1

> <Gold.Id.Protein>
6NUR|6NUR_protein|mol2

> <Gold.PLP.Fitness>
39.5144

> <Gold.PLP.PLP>
-37.0106

> <Gold.PLP.part.hbond>
-0.9125

> <Gold.PLP.part.metal>
0.0000

> <Gold.PLP.part.buried>
-2.7973

> <Gold.PLP.part.nonpolar>
-33.2733

> <Gold.PLP.part.repulsive>
0.2689

> <Gold.PLP.ligand.clash>
0.0000

> <Gold.PLP.ligand.torsion>
0.2587

> <Gold.PLP.Chemscore.Hbond>
1.0000

> <Gold.PLP.Chemscore.CHOScore>
0.0000

> <Gold.PLP.Chemscore.Metal>
0.0000

> <Gold.Chemscore.Hbonds>
donor molecule, donor type, donor heavy atom, donor atom, acceptor molecule, acceptor atom, score
      L1  H     3    17       P1  8028  1.00

> <Gold.PLP.Chemscore.Internal.Correction>
0.0211

> <Gold.Rescore>
     Score         DG    S(hbond)    S(metal)    S(lipo)     H(rot)  DE(clash)    DE(int)     intcor
     16.42     -16.81       0.95        0.00     102.94       1.52       0.09       0.30       ----

> <Gold.Chemscore.Fitness>
16.4159

> <Gold.Chemscore.DG>
-16.8093

> <Gold.Chemscore.ZeroCoef>
-5.4800

> <Gold.Chemscore.Hbond>
0.9478

> <Gold.Chemscore.Metal>
0.0000

> <Gold.Chemscore.Lipo>
102.9443

> <Gold.Chemscore.Internal_Hbond>
0.0000

> <Gold.Chemscore.DEClash>
0.0934

> <Gold.Chemscore.DEInternal>
0.3001

> <Gold.Chemscore.Rot>
1.5159

> <Gold.Chemscore.Internal.Correction>
   9.000000E+99

> <Gold.Chemscore.Hbonds>
donor molecule, donor type, donor heavy atom, donor atom, acceptor molecule, acceptor atom, score
      L1  H     3    17       P1  8028  0.96

> <Gold.Chemscore.Hbond.Weighted>
-3.1655

> <Gold.Chemscore.Metal.Weighted>
-0.0000

> <Gold.Chemscore.Lipo.Weighted>
-12.0445

> <Gold.Chemscore.Internal_Hbond.Weighted>
0.0000

> <Gold.Chemscore.DEClash.Weighted>
0.0934

> <Gold.Chemscore.DEInternal.Weighted>
0.3001

> <Gold.Chemscore.Rot.Weighted>
3.8807

> <Gold.Chemscore.Internal.Correction.Weighted>
   9.000000E+99

> <Gold.Protein.RotatedTorsions>
[ 6907 6896 6895 6894 ] final  169.43 input  -60.11 | X-H torsion
[ 7974 7965 7964 7962 ] final  -31.20 input  175.53 | X-H torsion
[ 8008 7997 7996 7995 ] final  145.11 input   59.86 | X-H torsion
[ 10167 10162 10161 10158 ] final  -32.49 input  -65.29 | X-H torsion
[ 10718 10713 10712 10709 ] final   86.50 input   66.30 | X-H torsion
[ 10763 10752 10751 10750 ] final   37.43 input  -60.55 | X-H torsion
[ 11005 11000 10999 10996 ] final   -3.61 input  -57.11 | X-H torsion

> <Gold.Protein.ActiveResidues>
 VAL166  LYS551  ARG553  GLY616  TRP617  ASP618  TYR619  PRO620  LYS621  CYS622 
 ASP623  PHE694  ASN695  SER759  ASP760  ASP761  ALA762  ILE779  LEU786  VAL792 
 PHE793  MET794  SER795  GLU796  ALA797  LYS798  CYS799  TRP800  GLU811  SER814 

> <Gold.Protein.RotatedAtoms>
  151.8321  133.3410  159.3616 H   0  0  0  0  0  0  0  0  0  0  0  0  # atno 6907 bound_to 6896
  150.7261  134.5473  159.5786 H   0  0  0  0  0  0  0  0  0  0  0  0  # atno 6908 bound_to 6896
  152.2928  134.7702  160.0425 H   0  0  0  0  0  0  0  0  0  0  0  0  # atno 6909 bound_to 6896
  146.1086  140.5637  142.8788 H   0  0  0  0  0  0  0  0  0  0  0  0  # atno 7974 bound_to 7965
  156.2891  140.2218  156.5162 H   0  0  0  0  0  0  0  0  0  0  0  0  # atno 8008 bound_to 7997
  154.7567  140.0476  157.0961 H   0  0  0  0  0  0  0  0  0  0  0  0  # atno 8009 bound_to 7997
  155.0042  140.3105  155.4858 H   0  0  0  0  0  0  0  0  0  0  0  0  # atno 8010 bound_to 7997
  140.7220  143.3690  151.1814 H   0  0  0  0  0  0  0  0  0  0  0  0  # atno 10167 bound_to 10162
  157.6929  131.0218  150.2982 H   0  0  0  0  0  0  0  0  0  0  0  0  # atno 10718 bound_to 10713
  153.0038  135.6278  154.2144 H   0  0  0  0  0  0  0  0  0  0  0  0  # atno 10763 bound_to 10752
  154.1888  135.2809  155.3030 H   0  0  0  0  0  0  0  0  0  0  0  0  # atno 10764 bound_to 10752
  154.5776  135.5657  153.7214 H   0  0  0  0  0  0  0  0  0  0  0  0  # atno 10765 bound_to 10752
  140.6712  133.9235  155.8496 H   0  0  0  0  0  0  0  0  0  0  0  0  # atno 11005 bound_to 11000
  144.7492  140.5146  143.6814 LP  0  0  0  0  0  0  0  0  0  0  0  0  # atno 17320 bound_to 7965
  145.5711  139.1483  143.3288 LP  0  0  0  0  0  0  0  0  0  0  0  0  # atno 17321 bound_to 7965
  139.7258  143.9151  152.3002 LP  0  0  0  0  0  0  0  0  0  0  0  0  # atno 17342 bound_to 10162
  139.8923  144.6958  150.8757 LP  0  0  0  0  0  0  0  0  0  0  0  0  # atno 17343 bound_to 10162
  156.3502  130.3829  149.7336 LP  0  0  0  0  0  0  0  0  0  0  0  0  # atno 17370 bound_to 10713
  156.4816  130.8043  151.3057 LP  0  0  0  0  0  0  0  0  0  0  0  0  # atno 17371 bound_to 10713
  141.0390  134.0648  157.3924 LP  0  0  0  0  0  0  0  0  0  0  0  0  # atno 17394 bound_to 11000
  139.8981  135.0153  156.7132 LP  0  0  0  0  0  0  0  0  0  0  0  0  # atno 17395 bound_to 11000

$$$$
