AV-unprocessed.smi:853|AV-procd|sdf|3953|dock9
  -GOLD-   22720 1423D 1   1.00000     0.00000
 Structure written by MMmdl.
 49 51  0  0  0  0  0  0  0  0  1 V2000
  144.3823  132.6917  149.2883 C   0  0  0  0  0  0  0  0  0  0  0  0
  144.3018  132.7107  150.8164 C   0  0  0  0  0  0  0  0  0  0  0  0
  144.4220  131.6416  151.4150 O   0  0  0  0  0  0  0  0  0  0  0  0
  144.1056  133.8894  151.4550 N   0  0  0  0  0  0  0  0  0  0  0  0
  144.0849  134.0057  152.9178 C   0  0  0  0  0  0  0  0  0  0  0  0
  145.3569  134.7414  153.3759 C   0  0  0  0  0  0  0  0  0  0  0  0
  145.4919  136.1158  152.6858 C   0  0  0  0  0  0  0  0  0  0  0  0
  146.7935  136.6959  153.0025 N   0  0  0  0  0  0  0  0  0  0  0  0
  147.0222  137.6151  153.9511 C   0  0  0  0  0  0  0  0  0  0  0  0
  146.1379  138.0882  154.6646 O   0  0  0  0  0  0  0  0  0  0  0  0
  148.3231  137.9502  153.9944 N   0  0  0  0  0  0  0  0  0  0  0  0
  148.9844  138.8518  154.8720 C   0  0  0  0  0  0  0  0  0  0  0  0
  148.5887  139.1119  156.2050 C   0  0  0  0  0  0  0  0  0  0  0  0
  149.3458  140.0126  156.9782 C   0  0  0  0  0  0  0  0  0  0  0  0
  150.4868  140.6244  156.4071 C   0  0  0  0  0  0  0  0  0  0  0  0
  151.2714  141.5302  157.1484 N   0  0  0  0  0  0  0  0  0  0  0  0
  151.5992  141.2906  158.5456 C   0  0  0  0  0  0  0  0  0  0  0  0
  152.3078  142.5653  159.0005 C   0  0  0  0  0  0  0  0  0  0  0  0
  151.6248  143.6537  158.1729 C   0  0  0  0  0  0  0  0  0  0  0  0
  151.2755  142.9570  156.8527 C   0  0  0  0  0  0  0  0  0  0  0  0
  150.8645  140.3726  155.1312 N   0  0  0  0  0  0  0  0  0  0  0  0
  150.1357  139.5088  154.3942 C   0  0  0  0  0  0  0  0  0  0  0  0
  145.3041  135.9999  151.1554 C   0  0  0  0  0  0  0  0  0  0  0  0
  144.0329  135.2052  150.8077 C   0  0  0  0  0  0  0  0  0  0  0  0
  145.1949  133.3271  148.9349 H   0  0  0  0  0  0  0  0  0  0  0  0
  143.4455  133.0344  148.8482 H   0  0  0  0  0  0  0  0  0  0  0  0
  144.5700  131.6804  148.9259 H   0  0  0  0  0  0  0  0  0  0  0  0
  143.1979  134.5623  153.2244 H   0  0  0  0  0  0  0  0  0  0  0  0
  144.0152  133.0389  153.4181 H   0  0  0  0  0  0  0  0  0  0  0  0
  145.3441  134.8660  154.4593 H   0  0  0  0  0  0  0  0  0  0  0  0
  146.2266  134.1237  153.1458 H   0  0  0  0  0  0  0  0  0  0  0  0
  144.7056  136.7620  153.0812 H   0  0  0  0  0  0  0  0  0  0  0  0
  147.5794  136.3691  152.4595 H   0  0  0  0  0  0  0  0  0  0  0  0
  148.9104  137.5303  153.2887 H   0  0  0  0  0  0  0  0  0  0  0  0
  147.7333  138.6350  156.6568 H   0  0  0  0  0  0  0  0  0  0  0  0
  149.0408  140.2206  157.9929 H   0  0  0  0  0  0  0  0  0  0  0  0
  150.6809  141.1375  159.1144 H   0  0  0  0  0  0  0  0  0  0  0  0
  152.2327  140.4114  158.6671 H   0  0  0  0  0  0  0  0  0  0  0  0
  152.2313  142.7337  160.0749 H   0  0  0  0  0  0  0  0  0  0  0  0
  153.3657  142.5134  158.7398 H   0  0  0  0  0  0  0  0  0  0  0  0
  150.7076  143.9676  158.6733 H   0  0  0  0  0  0  0  0  0  0  0  0
  152.2486  144.5371  158.0328 H   0  0  0  0  0  0  0  0  0  0  0  0
  152.0356  143.1570  156.0969 H   0  0  0  0  0  0  0  0  0  0  0  0
  150.3137  143.3042  156.4737 H   0  0  0  0  0  0  0  0  0  0  0  0
  150.4858  139.3387  153.3865 H   0  0  0  0  0  0  0  0  0  0  0  0
  145.2542  136.9922  150.7057 H   0  0  0  0  0  0  0  0  0  0  0  0
  146.1685  135.5028  150.7122 H   0  0  0  0  0  0  0  0  0  0  0  0
  143.9119  135.1550  149.7267 H   0  0  0  0  0  0  0  0  0  0  0  0
  143.1523  135.7353  151.1733 H   0  0  0  0  0  0  0  0  0  0  0  0
  1  2  1  0  0  0  0
  1 25  1  0  0  0  0
  1 26  1  0  0  0  0
  1 27  1  0  0  0  0
  2  3  2  0  0  0  0
  2  4  1  0  0  0  0
  4 24  1  0  0  0  0
  4  5  1  0  0  0  0
  5  6  1  0  0  0  0
  5 28  1  0  0  0  0
  5 29  1  0  0  0  0
  6  7  1  0  0  0  0
  6 30  1  0  0  0  0
  6 31  1  0  0  0  0
  7  8  1  0  0  0  0
  7 23  1  0  0  0  0
  7 32  1  0  0  0  0
  8  9  1  0  0  0  0
  8 33  1  0  0  0  0
  9 10  2  0  0  0  0
  9 11  1  0  0  0  0
 11 12  1  0  0  0  0
 11 34  1  0  0  0  0
 12 22  1  0  0  0  0
 12 13  2  0  0  0  0
 13 14  1  0  0  0  0
 13 35  1  0  0  0  0
 14 15  2  0  0  0  0
 14 36  1  0  0  0  0
 15 16  1  0  0  0  0
 15 21  1  0  0  0  0
 16 20  1  0  0  0  0
 16 17  1  0  0  0  0
 17 18  1  0  0  0  0
 17 37  1  0  0  0  0
 17 38  1  0  0  0  0
 18 19  1  0  0  0  0
 18 39  1  0  0  0  0
 18 40  1  0  0  0  0
 19 20  1  0  0  0  0
 19 41  1  0  0  0  0
 19 42  1  0  0  0  0
 20 43  1  0  0  0  0
 20 44  1  0  0  0  0
 21 22  2  0  0  0  0
 22 45  1  0  0  0  0
 23 24  1  0  0  0  0
 23 46  1  0  0  0  0
 23 47  1  0  0  0  0
 24 48  1  0  0  0  0
 24 49  1  0  0  0  0
M  END
> <s_m_source_file>
AV-unprocessed.smi

> <i_m_source_file_index>
853

> <i_lp_mmshare_version>
43012

> <i_f3d_flags>
0

> <s_epik_input>
W0NIM11DKD1PKU4xW0NIMl1bQ0gyXVtDSF0oW0NIMl1bQ0gyXTEpW05IXUMoPU8pW05IXWMyW2NIXVtjSF1jKG5bY0hdMilOM1tDSDJdW0NIMl1bQ0gyXVtDSDJdMw==

> <s_epik_cmdline>
J2VwaWtfcHl0aG9uJywgJy1waCcsICc3LjAnLCAnLXRuJywgJzgnLCAnLW1hJywgJzIwMCcsICctbWV0YWxfYmluZGluZycsICctaW1hZScsICc8aW5maWxlLm1hZT4nLCAnLW9tYWUnLCAnPG91dGZpbGUubWFlPic=

> <r_lp_tautomer_probability>
1

> <r_epik_Ionization_Penalty>
0.102256

> <r_epik_Ionization_Penalty_Charging>
0

> <r_epik_Ionization_Penalty_Neutral>
0.102256

> <r_epik_State_Penalty>
0.0916633

> <r_epik_Charging_Adjusted_Penalty>
0.0916633

> <i_epik_Tot_Q>
0

> <i_epik_Tot_abs_Q>
0

> <r_epik_Metal_State_Penalty>
0.078099

> <b_epik_Metal_Only>
0

> <s_lp_Force_Field>
OPLS_2005

> <r_lp_Energy>
47.0227

> <b_lp_Chiralities_Consistent>
1

> <s_lp_Variant>
AV-unprocessed.smi:853-1

> <Gold.Version>
5.8.1

> <Gold.Id.Protein>
6NUR|6NUR_protein|mol2

> <Gold.PLP.Fitness>
44.0928

> <Gold.PLP.PLP>
-37.3799

> <Gold.PLP.part.hbond>
-2.8394

> <Gold.PLP.part.metal>
0.0000

> <Gold.PLP.part.buried>
-3.9695

> <Gold.PLP.part.nonpolar>
-31.3170

> <Gold.PLP.part.repulsive>
0.3177

> <Gold.PLP.ligand.clash>
0.0000

> <Gold.PLP.ligand.torsion>
1.4574

> <Gold.PLP.Chemscore.Hbond>
2.1383

> <Gold.PLP.Chemscore.CHOScore>
1.0000

> <Gold.PLP.Chemscore.Metal>
0.0000

> <Gold.Chemscore.Hbonds>
donor molecule, donor type, donor heavy atom, donor atom, acceptor molecule, acceptor atom, score
      L1  H     8    33       P1  7948  0.91
      L1  H    11    34       P1  7948  0.91
      P1  H  7989  7998       L1    21  0.30
      L1  C    22    45       P1  7957  1.00

> <Gold.PLP.Chemscore.Internal.Correction>
0.2129

> <Gold.Rescore>
     Score         DG    S(hbond)    S(metal)    S(lipo)     H(rot)  DE(clash)    DE(int)     intcor
     17.98     -19.61       1.90        0.00      88.54       1.00       0.08       1.55       ----

> <Gold.Chemscore.Fitness>
17.9777

> <Gold.Chemscore.DG>
-19.6108

> <Gold.Chemscore.ZeroCoef>
-5.4800

> <Gold.Chemscore.Hbond>
1.8958

> <Gold.Chemscore.Metal>
0.0000

> <Gold.Chemscore.Lipo>
88.5359

> <Gold.Chemscore.Internal_Hbond>
0.0000

> <Gold.Chemscore.DEClash>
0.0833

> <Gold.Chemscore.DEInternal>
1.5499

> <Gold.Chemscore.Rot>
1.0000

> <Gold.Chemscore.Internal.Correction>
   9.000000E+99

> <Gold.Chemscore.Hbonds>
donor molecule, donor type, donor heavy atom, donor atom, acceptor molecule, acceptor atom, score
      L1  H     8    33       P1  7948  0.88
      L1  H    11    34       P1  7948  0.88

> <Gold.Chemscore.Hbond.Weighted>
-6.3321

> <Gold.Chemscore.Metal.Weighted>
-0.0000

> <Gold.Chemscore.Lipo.Weighted>
-10.3587

> <Gold.Chemscore.Internal_Hbond.Weighted>
0.0000

> <Gold.Chemscore.DEClash.Weighted>
0.0833

> <Gold.Chemscore.DEInternal.Weighted>
1.5499

> <Gold.Chemscore.Rot.Weighted>
2.5600

> <Gold.Chemscore.Internal.Correction.Weighted>
   9.000000E+99

> <Gold.Protein.RotatedTorsions>
[ 6907 6896 6895 6894 ] final  -80.57 input  -60.11 | X-H torsion
[ 7974 7965 7964 7962 ] final  -98.06 input  175.53 | X-H torsion
[ 8008 7997 7996 7995 ] final -142.74 input   59.86 | X-H torsion
[ 10167 10162 10161 10158 ] final  -22.81 input  -65.29 | X-H torsion
[ 10718 10713 10712 10709 ] final  -61.64 input   66.30 | X-H torsion
[ 10763 10752 10751 10750 ] final  167.03 input  -60.55 | X-H torsion
[ 11005 11000 10999 10996 ] final  -82.38 input  -57.11 | X-H torsion

> <Gold.Protein.ActiveResidues>
 VAL166  LYS551  ARG553  GLY616  TRP617  ASP618  TYR619  PRO620  LYS621  CYS622 
 ASP623  PHE694  ASN695  SER759  ASP760  ASP761  ALA762  ILE779  LEU786  VAL792 
 PHE793  MET794  SER795  GLU796  ALA797  LYS798  CYS799  TRP800  GLU811  SER814 

> <Gold.Protein.RotatedAtoms>
  150.6927  134.3949  159.5092 H   0  0  0  0  0  0  0  0  0  0  0  0  # atno 6907 bound_to 6896
  152.1732  134.8814  160.0542 H   0  0  0  0  0  0  0  0  0  0  0  0  # atno 6908 bound_to 6896
  151.9832  133.3730  159.4152 H   0  0  0  0  0  0  0  0  0  0  0  0  # atno 6909 bound_to 6896
  145.3256  140.9431  143.2691 H   0  0  0  0  0  0  0  0  0  0  0  0  # atno 7974 bound_to 7965
  155.4992  140.0574  157.2942 H   0  0  0  0  0  0  0  0  0  0  0  0  # atno 8008 bound_to 7997
  154.4593  140.1989  156.0238 H   0  0  0  0  0  0  0  0  0  0  0  0  # atno 8009 bound_to 7997
  156.0860  140.3240  155.7759 H   0  0  0  0  0  0  0  0  0  0  0  0  # atno 8010 bound_to 7997
  140.7287  143.4500  151.0530 H   0  0  0  0  0  0  0  0  0  0  0  0  # atno 10167 bound_to 10162
  156.0908  130.4200  150.1023 H   0  0  0  0  0  0  0  0  0  0  0  0  # atno 10718 bound_to 10713
  154.3478  135.2753  155.2388 H   0  0  0  0  0  0  0  0  0  0  0  0  # atno 10763 bound_to 10752
  154.4631  135.5902  153.6273 H   0  0  0  0  0  0  0  0  0  0  0  0  # atno 10764 bound_to 10752
  152.9852  135.6070  154.3685 H   0  0  0  0  0  0  0  0  0  0  0  0  # atno 10765 bound_to 10752
  141.1663  133.7242  156.8563 H   0  0  0  0  0  0  0  0  0  0  0  0  # atno 11005 bound_to 11000
  144.8905  139.4781  143.6680 LP  0  0  0  0  0  0  0  0  0  0  0  0  # atno 17320 bound_to 7965
  146.3066  139.7600  142.9052 LP  0  0  0  0  0  0  0  0  0  0  0  0  # atno 17321 bound_to 7965
  139.8175  143.7865  152.3175 LP  0  0  0  0  0  0  0  0  0  0  0  0  # atno 17342 bound_to 10162
  139.7936  144.7401  150.9920 LP  0  0  0  0  0  0  0  0  0  0  0  0  # atno 17343 bound_to 10162
  156.9033  130.9627  151.3573 LP  0  0  0  0  0  0  0  0  0  0  0  0  # atno 17370 bound_to 10713
  157.6056  130.8545  149.8871 LP  0  0  0  0  0  0  0  0  0  0  0  0  # atno 17371 bound_to 10713
  140.1880  134.8986  157.3027 LP  0  0  0  0  0  0  0  0  0  0  0  0  # atno 17394 bound_to 11000
  140.2321  134.3896  155.7517 LP  0  0  0  0  0  0  0  0  0  0  0  0  # atno 17395 bound_to 11000

$$$$
