AV-unprocessed.smi:2342|AV-procd|sdf|9354|dock7
  -GOLD-   2272012573D 1   1.00000     0.00000
 Structure written by MMmdl.
 38 38  0  0  0  0  0  0  0  0  2 V2000
  149.7708  139.7717  154.7353 C   0  0  0  0  0  0  0  0  0  0  0  0
  150.5281  138.5066  155.1710 C   0  0  2  0  0  0  0  0  0  0  0  0
  150.4433  138.2877  156.7031 C   0  0  0  0  0  0  0  0  0  0  0  0
  151.5307  138.9358  157.4303 N   0  0  0  0  0  0  0  0  0  0  0  0
  151.7894  138.7769  158.7371 C   0  0  0  0  0  0  0  0  0  0  0  0
  151.0414  138.1814  159.5125 O   0  0  0  0  0  0  0  0  0  0  0  0
  153.1156  139.3500  159.2374 C   0  0  0  0  0  0  0  0  0  0  0  0
  152.8835  140.7190  159.8092 C   0  0  0  0  0  0  0  0  0  0  0  0
  153.2787  141.1748  161.0414 C   0  0  0  0  0  0  0  0  0  0  0  0
  152.8588  142.8471  161.2785 S   0  0  0  0  0  0  0  0  0  0  0  0
  152.1311  142.8731  159.6683 C   0  0  0  0  0  0  0  0  0  0  0  0
  151.4836  144.0785  159.0303 C   0  0  0  0  0  0  0  0  0  0  0  0
  149.9881  143.8004  158.7838 C   0  0  0  0  0  0  0  0  0  0  0  0
  152.1276  144.4047  157.6654 C   0  0  0  0  0  0  0  0  0  0  0  0
  151.6663  145.3112  159.9369 C   0  0  0  0  0  0  0  0  0  0  0  0
  152.2212  141.6895  159.0510 N   0  0  0  0  0  0  0  0  0  0  0  0
  151.9832  138.5699  154.6722 C   0  0  0  0  0  0  0  0  0  0  0  0
  152.6482  139.5896  154.9610 O   0  0  0  0  0  0  0  0  0  0  0  0
  152.4060  137.5933  154.0149 O   0  5  0  0  0  0  0  0  0  0  0  0
  149.8343  139.9219  153.6568 H   0  0  0  0  0  0  0  0  0  0  0  0
  150.1687  140.6638  155.2205 H   0  0  0  0  0  0  0  0  0  0  0  0
  148.7142  139.6988  154.9934 H   0  0  0  0  0  0  0  0  0  0  0  0
  150.0549  137.6518  154.6848 H   0  0  0  0  0  0  0  0  0  0  0  0
  149.5053  138.6924  157.0845 H   0  0  0  0  0  0  0  0  0  0  0  0
  150.4249  137.2206  156.9304 H   0  0  0  0  0  0  0  0  0  0  0  0
  152.2077  139.4384  156.8740 H   0  0  0  0  0  0  0  0  0  0  0  0
  153.5416  138.6781  159.9838 H   0  0  0  0  0  0  0  0  0  0  0  0
  153.8287  139.3932  158.4133 H   0  0  0  0  0  0  0  0  0  0  0  0
  153.8090  140.6356  161.8121 H   0  0  0  0  0  0  0  0  0  0  0  0
  149.4941  144.6559  158.3222 H   0  0  0  0  0  0  0  0  0  0  0  0
  149.4611  143.5834  159.7135 H   0  0  0  0  0  0  0  0  0  0  0  0
  149.8492  142.9447  158.1219 H   0  0  0  0  0  0  0  0  0  0  0  0
  152.0213  143.5770  156.9629 H   0  0  0  0  0  0  0  0  0  0  0  0
  153.1915  144.6241  157.7643 H   0  0  0  0  0  0  0  0  0  0  0  0
  151.6608  145.2764  157.2059 H   0  0  0  0  0  0  0  0  0  0  0  0
  151.2217  146.2021  159.4923 H   0  0  0  0  0  0  0  0  0  0  0  0
  152.7222  145.5214  160.1116 H   0  0  0  0  0  0  0  0  0  0  0  0
  151.1950  145.1652  160.9095 H   0  0  0  0  0  0  0  0  0  0  0  0
  1  2  1  0  0  0  0
  1 20  1  0  0  0  0
  1 21  1  0  0  0  0
  1 22  1  0  0  0  0
  2  3  1  0  0  0  0
  2 17  1  0  0  0  0
  2 23  1  0  0  0  0
  3  4  1  0  0  0  0
  3 24  1  0  0  0  0
  3 25  1  0  0  0  0
  4  5  1  0  0  0  0
  4 26  1  0  0  0  0
  5  6  2  0  0  0  0
  5  7  1  0  0  0  0
  7  8  1  0  0  0  0
  7 27  1  0  0  0  0
  7 28  1  0  0  0  0
  8 16  1  0  0  0  0
  8  9  2  0  0  0  0
  9 10  1  0  0  0  0
  9 29  1  0  0  0  0
 10 11  1  0  0  0  0
 11 12  1  0  0  0  0
 11 16  2  0  0  0  0
 12 13  1  0  0  0  0
 12 14  1  0  0  0  0
 12 15  1  0  0  0  0
 13 30  1  0  0  0  0
 13 31  1  0  0  0  0
 13 32  1  0  0  0  0
 14 33  1  0  0  0  0
 14 34  1  0  0  0  0
 14 35  1  0  0  0  0
 15 36  1  0  0  0  0
 15 37  1  0  0  0  0
 15 38  1  0  0  0  0
 17 18  2  0  0  0  0
 17 19  1  0  0  0  0
M  CHG  1  19  -1
M  END
> <s_m_source_file>
AV-unprocessed.smi

> <i_m_source_file_index>
2342

> <i_lp_mmshare_version>
43012

> <i_f3d_flags>
0

> <s_epik_input>
Tz1DKFtPSF0pW0NASF0oW0NIM10pW0NIMl1bTkhdQyg9TylbQ0gyXWMxW2NIXXNjKG4xKUMoW0NIM10pKFtDSDNdKVtDSDNd

> <s_epik_cmdline>
J2VwaWtfcHl0aG9uJywgJy1waCcsICc3LjAnLCAnLXRuJywgJzgnLCAnLW1hJywgJzIwMCcsICctbWV0YWxfYmluZGluZycsICctaW1hZScsICc8aW5maWxlLm1hZT4nLCAnLW9tYWUnLCAnPG91dGZpbGUubWFlPic=

> <r_epik_Ionization_Penalty>
0.00120065

> <r_epik_Ionization_Penalty_Charging>
0.00115909

> <r_epik_Ionization_Penalty_Neutral>
4.15663e-05

> <r_epik_State_Penalty>
0.00076313

> <r_epik_Charging_Adjusted_Penalty>
0.00192222

> <i_epik_Tot_Q>
-1

> <i_epik_Tot_abs_Q>
1

> <r_epik_Metal_State_Penalty>
-0

> <b_epik_Metal_Only>
0

> <s_lp_Force_Field>
OPLS_2005

> <r_lp_Energy>
-10.4991

> <b_lp_Chiralities_Consistent>
1

> <s_lp_Variant>
AV-unprocessed.smi:2342-1

> <Gold.Version>
5.8.1

> <Gold.Id.Protein>
6NUR|6NUR_protein|mol2

> <Gold.PLP.Fitness>
51.3563

> <Gold.PLP.PLP>
-42.7637

> <Gold.PLP.part.hbond>
-3.5726

> <Gold.PLP.part.metal>
0.0000

> <Gold.PLP.part.buried>
-6.1424

> <Gold.PLP.part.nonpolar>
-33.8586

> <Gold.PLP.part.repulsive>
0.1947

> <Gold.PLP.ligand.clash>
0.0000

> <Gold.PLP.ligand.torsion>
1.0104

> <Gold.PLP.Chemscore.Hbond>
3.4982

> <Gold.PLP.Chemscore.CHOScore>
0.0000

> <Gold.PLP.Chemscore.Metal>
0.0000

> <Gold.Chemscore.Hbonds>
donor molecule, donor type, donor heavy atom, donor atom, acceptor molecule, acceptor atom, score
      P1  H  7989  7998       L1    18  0.30
      P1  H  7997  8008       L1    18  1.56
      P1  H 10752 10764       L1    19  1.47

> <Gold.PLP.Chemscore.Internal.Correction>
0.1189

> <Gold.Rescore>
     Score         DG    S(hbond)    S(metal)    S(lipo)     H(rot)  DE(clash)    DE(int)     intcor
     15.33     -17.66       1.75        0.00     106.37       2.38       0.02       2.32       ----

> <Gold.Chemscore.Fitness>
15.3288

> <Gold.Chemscore.DG>
-17.6646

> <Gold.Chemscore.ZeroCoef>
-5.4800

> <Gold.Chemscore.Hbond>
1.7471

> <Gold.Chemscore.Metal>
0.0000

> <Gold.Chemscore.Lipo>
106.3695

> <Gold.Chemscore.Internal_Hbond>
0.0000

> <Gold.Chemscore.DEClash>
0.0164

> <Gold.Chemscore.DEInternal>
2.3194

> <Gold.Chemscore.Rot>
2.3812

> <Gold.Chemscore.Internal.Correction>
   9.000000E+99

> <Gold.Chemscore.Hbonds>
donor molecule, donor type, donor heavy atom, donor atom, acceptor molecule, acceptor atom, score
      P1  H  7989  7998       L1    18  0.04
      P1  H  7997  8008       L1    18  0.77
      P1  H 10752 10764       L1    19  0.72

> <Gold.Chemscore.Hbond.Weighted>
-5.8353

> <Gold.Chemscore.Metal.Weighted>
-0.0000

> <Gold.Chemscore.Lipo.Weighted>
-12.4452

> <Gold.Chemscore.Internal_Hbond.Weighted>
0.0000

> <Gold.Chemscore.DEClash.Weighted>
0.0164

> <Gold.Chemscore.DEInternal.Weighted>
2.3194

> <Gold.Chemscore.Rot.Weighted>
6.0959

> <Gold.Chemscore.Internal.Correction.Weighted>
   9.000000E+99

> <Gold.Protein.RotatedTorsions>
[ 6907 6896 6895 6894 ] final -143.06 input  -60.11 | X-H torsion
[ 7974 7965 7964 7962 ] final  -28.89 input  175.53 | X-H torsion
[ 8008 7997 7996 7995 ] final  -14.85 input   59.86 | X-H torsion
[ 10167 10162 10161 10158 ] final   92.09 input  -65.29 | X-H torsion
[ 10718 10713 10712 10709 ] final -175.61 input   66.30 | X-H torsion
[ 10763 10752 10751 10750 ] final  -97.68 input  -60.55 | X-H torsion
[ 11005 11000 10999 10996 ] final   13.82 input  -57.11 | X-H torsion

> <Gold.Protein.ActiveResidues>
 VAL166  LYS551  ARG553  GLY616  TRP617  ASP618  TYR619  PRO620  LYS621  CYS622 
 ASP623  PHE694  ASN695  SER759  ASP760  ASP761  ALA762  ILE779  LEU786  VAL792 
 PHE793  MET794  SER795  GLU796  ALA797  LYS798  CYS799  TRP800  GLU811  SER814 

> <Gold.Protein.RotatedAtoms>
  151.0954  133.5283  159.2612 H   0  0  0  0  0  0  0  0  0  0  0  0  # atno 6907 bound_to 6896
  151.2135  135.0490  159.8930 H   0  0  0  0  0  0  0  0  0  0  0  0  # atno 6908 bound_to 6896
  152.5438  134.0767  159.8271 H   0  0  0  0  0  0  0  0  0  0  0  0  # atno 6909 bound_to 6896
  146.1256  140.5341  142.8716 H   0  0  0  0  0  0  0  0  0  0  0  0  # atno 7974 bound_to 7965
  154.5177  140.2212  155.9035 H   0  0  0  0  0  0  0  0  0  0  0  0  # atno 8008 bound_to 7997
  156.1626  140.3139  155.8799 H   0  0  0  0  0  0  0  0  0  0  0  0  # atno 8009 bound_to 7997
  155.3720  140.0467  157.3036 H   0  0  0  0  0  0  0  0  0  0  0  0  # atno 8010 bound_to 7997
  139.8311  144.6686  150.9399 H   0  0  0  0  0  0  0  0  0  0  0  0  # atno 10167 bound_to 10162
  156.8024  130.9557  151.3118 H   0  0  0  0  0  0  0  0  0  0  0  0  # atno 10718 bound_to 10713
  154.7349  135.5037  153.9024 H   0  0  0  0  0  0  0  0  0  0  0  0  # atno 10763 bound_to 10752
  153.0985  135.6679  153.9726 H   0  0  0  0  0  0  0  0  0  0  0  0  # atno 10764 bound_to 10752
  153.9518  135.3057  155.3417 H   0  0  0  0  0  0  0  0  0  0  0  0  # atno 10765 bound_to 10752
  140.4765  134.0979  155.7742 H   0  0  0  0  0  0  0  0  0  0  0  0  # atno 11005 bound_to 11000
  144.7639  140.5485  143.6716 LP  0  0  0  0  0  0  0  0  0  0  0  0  # atno 17320 bound_to 7965
  145.5373  139.1475  143.3467 LP  0  0  0  0  0  0  0  0  0  0  0  0  # atno 17321 bound_to 7965
  140.7806  143.4000  151.1165 LP  0  0  0  0  0  0  0  0  0  0  0  0  # atno 17342 bound_to 10162
  139.7653  143.8574  152.3109 LP  0  0  0  0  0  0  0  0  0  0  0  0  # atno 17343 bound_to 10162
  157.6547  130.8914  149.9704 LP  0  0  0  0  0  0  0  0  0  0  0  0  # atno 17370 bound_to 10713
  156.1093  130.3651  150.0078 LP  0  0  0  0  0  0  0  0  0  0  0  0  # atno 17371 bound_to 10713
  141.1552  133.8896  157.1996 LP  0  0  0  0  0  0  0  0  0  0  0  0  # atno 17394 bound_to 11000
  139.9853  135.0084  156.9847 LP  0  0  0  0  0  0  0  0  0  0  0  0  # atno 17395 bound_to 11000

$$$$
