AV-unprocessed.smi:706|AV-procd|sdf|3452|dock1
  -GOLD-   22720 0433D 1   1.00000     0.00000
 Structure written by MMmdl.
 27 27  0  0  0  0  0  0  0  0  1 V2000
  152.4115  143.0730  159.7945 C   0  0  0  0  0  0  0  0  0  0  0  0
  151.9850  143.6061  158.4250 C   0  0  0  0  0  0  0  0  0  0  0  0
  150.6918  143.1037  158.1222 O   0  0  0  0  0  0  0  0  0  0  0  0
  150.6826  141.7545  157.6784 C   0  0  0  0  0  0  0  0  0  0  0  0
  150.9861  141.6529  156.1720 C   0  0  0  0  0  0  0  0  0  0  0  0
  151.1001  140.2812  155.7233 N   0  0  0  0  0  0  0  0  0  0  0  0
  150.4014  139.7603  154.6310 C   0  0  0  0  0  0  0  0  0  0  0  0
  149.5489  140.5832  153.9165 N   0  0  0  0  0  0  0  0  0  0  0  0
  150.5496  138.4678  154.2438 C   0  0  0  0  0  0  0  0  0  0  0  0
  151.4513  137.5611  154.9460 C   0  0  0  0  0  0  0  0  0  0  0  0
  151.6317  136.3794  154.6611 O   0  0  0  0  0  0  0  0  0  0  0  0
  152.1383  138.1393  156.0134 N   0  0  0  0  0  0  0  0  0  0  0  0
  152.0155  139.4628  156.4312 C   0  0  0  0  0  0  0  0  0  0  0  0
  152.6941  139.8647  157.3772 O   0  0  0  0  0  0  0  0  0  0  0  0
  152.7836  137.5518  156.5211 H   0  0  0  0  0  0  0  0  0  0  0  0
  153.4027  143.4381  160.0639 H   0  0  0  0  0  0  0  0  0  0  0  0
  152.4444  141.9834  159.7970 H   0  0  0  0  0  0  0  0  0  0  0  0
  151.7156  143.3899  160.5719 H   0  0  0  0  0  0  0  0  0  0  0  0
  151.9705  144.6968  158.4416 H   0  0  0  0  0  0  0  0  0  0  0  0
  152.7088  143.2968  157.6711 H   0  0  0  0  0  0  0  0  0  0  0  0
  151.4585  141.2262  158.2334 H   0  0  0  0  0  0  0  0  0  0  0  0
  149.7387  141.2693  157.9321 H   0  0  0  0  0  0  0  0  0  0  0  0
  150.2342  142.1423  155.5517 H   0  0  0  0  0  0  0  0  0  0  0  0
  151.9245  142.1480  155.9254 H   0  0  0  0  0  0  0  0  0  0  0  0
  149.4150  141.5542  154.1611 H   0  0  0  0  0  0  0  0  0  0  0  0
  149.0070  140.2402  153.1360 H   0  0  0  0  0  0  0  0  0  0  0  0
  149.9957  138.0895  153.3957 H   0  0  0  0  0  0  0  0  0  0  0  0
  1  2  1  0  0  0  0
  1 16  1  0  0  0  0
  1 17  1  0  0  0  0
  1 18  1  0  0  0  0
  2  3  1  0  0  0  0
  2 19  1  0  0  0  0
  2 20  1  0  0  0  0
  3  4  1  0  0  0  0
  4  5  1  0  0  0  0
  4 21  1  0  0  0  0
  4 22  1  0  0  0  0
  5  6  1  0  0  0  0
  5 23  1  0  0  0  0
  5 24  1  0  0  0  0
  6 13  1  0  0  0  0
  6  7  1  0  0  0  0
  7  8  1  0  0  0  0
  7  9  2  0  0  0  0
  8 25  1  0  0  0  0
  8 26  1  0  0  0  0
  9 10  1  0  0  0  0
  9 27  1  0  0  0  0
 10 11  2  0  0  0  0
 10 12  1  0  0  0  0
 12 15  1  0  0  0  0
 12 13  1  0  0  0  0
 13 14  2  0  0  0  0
M  END
> <s_m_source_file>
AV-unprocessed.smi

> <i_m_source_file_index>
706

> <i_lp_mmshare_version>
43012

> <i_f3d_flags>
0

> <s_epik_input>
W0NIM11bQ0gyXU9bQ0gyXVtDSDJdbjFjKFtOSDJdKVtjSF1jKD1PKVtuSF1jMT1P

> <s_epik_cmdline>
J2VwaWtfcHl0aG9uJywgJy1waCcsICc3LjAnLCAnLXRuJywgJzgnLCAnLW1hJywgJzIwMCcsICctbWV0YWxfYmluZGluZycsICctaW1hZScsICc8aW5maWxlLm1hZT4nLCAnLW9tYWUnLCAnPG91dGZpbGUubWFlPic=

> <r_lp_tautomer_probability>
1

> <r_epik_Ionization_Penalty>
6.92057e-06

> <r_epik_Ionization_Penalty_Charging>
2.18399e-06

> <r_epik_Ionization_Penalty_Neutral>
4.73657e-06

> <r_epik_State_Penalty>
-0

> <r_epik_Charging_Adjusted_Penalty>
2.18399e-06

> <i_epik_Tot_Q>
0

> <i_epik_Tot_abs_Q>
0

> <r_epik_Metal_State_Penalty>
-0

> <b_epik_Metal_Only>
0

> <s_epik_Chemistry_Notes>
This compound has an imine and may undergo hydrolysis.

> <s_lp_Force_Field>
OPLS_2005

> <r_lp_Energy>
11.2939

> <b_lp_Chiralities_Consistent>
1

> <s_lp_Variant>
AV-unprocessed.smi:706-1

> <Gold.Version>
5.8.1

> <Gold.Id.Protein>
6NUR|6NUR_protein|mol2

> <Gold.PLP.Fitness>
35.4315

> <Gold.PLP.PLP>
-28.6836

> <Gold.PLP.part.hbond>
-3.0000

> <Gold.PLP.part.metal>
0.0000

> <Gold.PLP.part.buried>
-2.9878

> <Gold.PLP.part.nonpolar>
-23.6073

> <Gold.PLP.part.repulsive>
1.9906

> <Gold.PLP.ligand.clash>
0.0000

> <Gold.PLP.ligand.torsion>
0.2626

> <Gold.PLP.Chemscore.Hbond>
2.4212

> <Gold.PLP.Chemscore.CHOScore>
0.0000

> <Gold.PLP.Chemscore.Metal>
0.0000

> <Gold.Chemscore.Hbonds>
donor molecule, donor type, donor heavy atom, donor atom, acceptor molecule, acceptor atom, score
      L1  H     8    26       P1  7957  0.50
      P1  H  7997  8009       L1    14  1.00
      P1  H 10752 10764       L1    11  0.99

> <Gold.PLP.Chemscore.Internal.Correction>
0.0096

> <Gold.Rescore>
     Score         DG    S(hbond)    S(metal)    S(lipo)     H(rot)  DE(clash)    DE(int)     intcor
     11.02     -12.26       1.96        0.00      48.50       2.12       0.08       1.15       ----

> <Gold.Chemscore.Fitness>
11.0230

> <Gold.Chemscore.DG>
-12.2598

> <Gold.Chemscore.ZeroCoef>
-5.4800

> <Gold.Chemscore.Hbond>
1.9597

> <Gold.Chemscore.Metal>
0.0000

> <Gold.Chemscore.Lipo>
48.4980

> <Gold.Chemscore.Internal_Hbond>
0.0000

> <Gold.Chemscore.DEClash>
0.0820

> <Gold.Chemscore.DEInternal>
1.1548

> <Gold.Chemscore.Rot>
2.1250

> <Gold.Chemscore.Internal.Correction>
   9.000000E+99

> <Gold.Chemscore.Hbonds>
donor molecule, donor type, donor heavy atom, donor atom, acceptor molecule, acceptor atom, score
      L1  H     8    26       P1  7957  0.48
      P1  H  7997  8009       L1    14  0.82
      P1  H 10752 10764       L1    11  0.92

> <Gold.Chemscore.Hbond.Weighted>
-6.5454

> <Gold.Chemscore.Metal.Weighted>
-0.0000

> <Gold.Chemscore.Lipo.Weighted>
-5.6743

> <Gold.Chemscore.Internal_Hbond.Weighted>
0.0000

> <Gold.Chemscore.DEClash.Weighted>
0.0820

> <Gold.Chemscore.DEInternal.Weighted>
1.1548

> <Gold.Chemscore.Rot.Weighted>
5.4399

> <Gold.Chemscore.Internal.Correction.Weighted>
   9.000000E+99

> <Gold.Protein.RotatedTorsions>
[ 6907 6896 6895 6894 ] final  -96.78 input  -60.11 | X-H torsion
[ 7974 7965 7964 7962 ] final  165.29 input  175.53 | X-H torsion
[ 8008 7997 7996 7995 ] final  160.49 input   59.86 | X-H torsion
[ 10167 10162 10161 10158 ] final   31.57 input  -65.29 | X-H torsion
[ 10718 10713 10712 10709 ] final   18.39 input   66.30 | X-H torsion
[ 10763 10752 10751 10750 ] final  -75.91 input  -60.55 | X-H torsion
[ 11005 11000 10999 10996 ] final  104.81 input  -57.11 | X-H torsion

> <Gold.Protein.ActiveResidues>
 VAL166  LYS551  ARG553  GLY616  TRP617  ASP618  TYR619  PRO620  LYS621  CYS622 
 ASP623  PHE694  ASN695  SER759  ASP760  ASP761  ALA762  ILE779  LEU786  VAL792 
 PHE793  MET794  SER795  GLU796  ALA797  LYS798  CYS799  TRP800  GLU811  SER814 

> <Gold.Protein.RotatedAtoms>
  150.6998  134.1450  159.4118 H   0  0  0  0  0  0  0  0  0  0  0  0  # atno 6907 bound_to 6896
  151.9434  135.0200  160.0546 H   0  0  0  0  0  0  0  0  0  0  0  0  # atno 6908 bound_to 6896
  152.2074  133.4850  159.5128 H   0  0  0  0  0  0  0  0  0  0  0  0  # atno 6909 bound_to 6896
  144.7509  139.8449  143.6366 H   0  0  0  0  0  0  0  0  0  0  0  0  # atno 7974 bound_to 7965
  156.2168  140.1803  156.7569 H   0  0  0  0  0  0  0  0  0  0  0  0  # atno 8008 bound_to 7997
  154.5804  140.0667  156.9125 H   0  0  0  0  0  0  0  0  0  0  0  0  # atno 8009 bound_to 7997
  155.2512  140.3329  155.4284 H   0  0  0  0  0  0  0  0  0  0  0  0  # atno 8010 bound_to 7997
  140.4576  144.0954  150.6205 H   0  0  0  0  0  0  0  0  0  0  0  0  # atno 10167 bound_to 10162
  157.0957  130.6446  149.5860 H   0  0  0  0  0  0  0  0  0  0  0  0  # atno 10718 bound_to 10713
  154.4929  135.5815  153.6472 H   0  0  0  0  0  0  0  0  0  0  0  0  # atno 10763 bound_to 10752
  152.9865  135.6117  154.3102 H   0  0  0  0  0  0  0  0  0  0  0  0  # atno 10764 bound_to 10752
  154.3003  135.2847  155.2593 H   0  0  0  0  0  0  0  0  0  0  0  0  # atno 10765 bound_to 10752
  139.8795  134.9313  156.5418 H   0  0  0  0  0  0  0  0  0  0  0  0  # atno 11005 bound_to 11000
  146.1457  139.4525  143.0081 LP  0  0  0  0  0  0  0  0  0  0  0  0  # atno 17320 bound_to 7965
  145.6949  141.0153  143.1535 LP  0  0  0  0  0  0  0  0  0  0  0  0  # atno 17321 bound_to 7965
  140.4132  143.2647  151.9807 LP  0  0  0  0  0  0  0  0  0  0  0  0  # atno 17342 bound_to 10162
  139.4803  144.5897  151.7793 LP  0  0  0  0  0  0  0  0  0  0  0  0  # atno 17343 bound_to 10162
  155.9886  130.4930  150.7179 LP  0  0  0  0  0  0  0  0  0  0  0  0  # atno 17370 bound_to 10713
  157.4683  131.0890  151.0670 LP  0  0  0  0  0  0  0  0  0  0  0  0  # atno 17371 bound_to 10713
  140.8305  133.8283  155.8979 LP  0  0  0  0  0  0  0  0  0  0  0  0  # atno 17394 bound_to 11000
  140.9333  134.1994  157.4849 LP  0  0  0  0  0  0  0  0  0  0  0  0  # atno 17395 bound_to 11000

$$$$
