AV-unprocessed.smi:2744|AV-procd|sdf|10569|dock7
  -GOLD-   2272015 23D 1   1.00000     0.00000
 Structure written by MMmdl.
 40 41  0  0  0  0  0  0  0  0  1 V2000
  145.5084  138.9067  154.9987 C   0  0  0  0  0  0  0  0  0  0  0  0
  146.9541  139.3939  154.8061 C   0  0  0  0  0  0  0  0  0  0  0  0
  147.1194  140.6875  153.9664 C   0  0  2  0  0  0  0  0  0  0  0  0
  146.2706  141.8512  154.5124 C   0  0  0  0  0  0  0  0  0  0  0  0
  146.6636  140.4135  152.6549 O   0  0  0  0  0  0  0  0  0  0  0  0
  148.6012  141.1370  153.8782 C   0  0  0  0  0  0  0  0  0  0  0  0
  149.2852  141.2130  155.1603 N   0  0  0  0  0  0  0  0  0  0  0  0
  148.8783  141.9176  156.2718 C   0  0  0  0  0  0  0  0  0  0  0  0
  149.6661  141.8284  157.3089 N   0  0  0  0  0  0  0  0  0  0  0  0
  150.7003  141.0094  156.8743 C   0  0  0  0  0  0  0  0  0  0  0  0
  151.8802  140.5086  157.4830 C   0  0  0  0  0  0  0  0  0  0  0  0
  152.1869  140.8170  158.7630 N   0  0  0  0  0  0  0  0  0  0  0  0
  152.9643  142.0079  159.0949 C   0  0  0  0  0  0  0  0  0  0  0  0
  153.2605  142.0776  160.6022 C   0  0  0  0  0  0  0  0  0  0  0  0
  152.2218  143.2647  158.6227 C   0  0  0  0  0  0  0  0  0  0  0  0
  152.6904  139.7159  156.7329 N   0  0  0  0  0  0  0  0  0  0  0  0
  152.3641  139.4292  155.4687 C   0  0  0  0  0  0  0  0  0  0  0  0
  151.2957  139.8236  154.7718 N   0  0  0  0  0  0  0  0  0  0  0  0
  150.4810  140.6185  155.5237 C   0  0  0  0  0  0  0  0  0  0  0  0
  145.4939  137.9606  155.5400 H   0  0  0  0  0  0  0  0  0  0  0  0
  145.0095  138.7446  154.0429 H   0  0  0  0  0  0  0  0  0  0  0  0
  144.9157  139.6162  155.5755 H   0  0  0  0  0  0  0  0  0  0  0  0
  147.4015  139.5448  155.7892 H   0  0  0  0  0  0  0  0  0  0  0  0
  147.5166  138.5821  154.3442 H   0  0  0  0  0  0  0  0  0  0  0  0
  146.5259  142.0705  155.5496 H   0  0  0  0  0  0  0  0  0  0  0  0
  145.2030  141.6343  154.4719 H   0  0  0  0  0  0  0  0  0  0  0  0
  146.4313  142.7627  153.9355 H   0  0  0  0  0  0  0  0  0  0  0  0
  145.7247  140.5185  152.6335 H   0  0  0  0  0  0  0  0  0  0  0  0
  149.1660  140.4625  153.2330 H   0  0  0  0  0  0  0  0  0  0  0  0
  148.6606  142.1201  153.4090 H   0  0  0  0  0  0  0  0  0  0  0  0
  147.9670  142.4974  156.2912 H   0  0  0  0  0  0  0  0  0  0  0  0
  151.9639  140.2100  159.5387 H   0  0  0  0  0  0  0  0  0  0  0  0
  153.9116  141.9731  158.5554 H   0  0  0  0  0  0  0  0  0  0  0  0
  153.8516  142.9615  160.8431 H   0  0  0  0  0  0  0  0  0  0  0  0
  153.8241  141.2085  160.9418 H   0  0  0  0  0  0  0  0  0  0  0  0
  152.3398  142.1242  161.1848 H   0  0  0  0  0  0  0  0  0  0  0  0
  152.8002  144.1646  158.8341 H   0  0  0  0  0  0  0  0  0  0  0  0
  151.2552  143.3660  159.1179 H   0  0  0  0  0  0  0  0  0  0  0  0
  152.0439  143.2342  157.5472 H   0  0  0  0  0  0  0  0  0  0  0  0
  153.0584  138.7931  154.9400 H   0  0  0  0  0  0  0  0  0  0  0  0
  1  2  1  0  0  0  0
  1 20  1  0  0  0  0
  1 21  1  0  0  0  0
  1 22  1  0  0  0  0
  2  3  1  0  0  0  0
  2 23  1  0  0  0  0
  2 24  1  0  0  0  0
  3  4  1  0  0  0  0
  3  5  1  0  0  0  0
  3  6  1  0  0  0  0
  4 25  1  0  0  0  0
  4 26  1  0  0  0  0
  4 27  1  0  0  0  0
  5 28  1  0  0  0  0
  6  7  1  0  0  0  0
  6 29  1  0  0  0  0
  6 30  1  0  0  0  0
  7 19  1  0  0  0  0
  7  8  1  0  0  0  0
  8  9  2  0  0  0  0
  8 31  1  0  0  0  0
  9 10  1  0  0  0  0
 10 19  2  0  0  0  0
 10 11  1  0  0  0  0
 11 12  1  0  0  0  0
 11 16  2  0  0  0  0
 12 13  1  0  0  0  0
 12 32  1  0  0  0  0
 13 14  1  0  0  0  0
 13 15  1  0  0  0  0
 13 33  1  0  0  0  0
 14 34  1  0  0  0  0
 14 35  1  0  0  0  0
 14 36  1  0  0  0  0
 15 37  1  0  0  0  0
 15 38  1  0  0  0  0
 15 39  1  0  0  0  0
 16 17  1  0  0  0  0
 17 18  2  0  0  0  0
 17 40  1  0  0  0  0
 18 19  1  0  0  0  0
M  END
> <s_m_source_file>
AV-unprocessed.smi

> <i_m_source_file_index>
2744

> <i_lp_mmshare_version>
43012

> <i_f3d_flags>
0

> <s_epik_input>
W0NIM11bQ0gyXVtDQEBdKFtDSDNdKShbT0hdKVtDSDJdbihbY0hdbjEpYyhjMTIpbltjSF1uYzJbTkhdW0NIXShbQ0gzXSlbQ0gzXQ==

> <s_epik_cmdline>
J2VwaWtfcHl0aG9uJywgJy1waCcsICc3LjAnLCAnLXRuJywgJzgnLCAnLW1hJywgJzIwMCcsICctbWV0YWxfYmluZGluZycsICctaW1hZScsICc8aW5maWxlLm1hZT4nLCAnLW9tYWUnLCAnPG91dGZpbGUubWFlPic=

> <r_lp_tautomer_probability>
1

> <r_epik_Ionization_Penalty>
0.00217876

> <r_epik_Ionization_Penalty_Charging>
0

> <r_epik_Ionization_Penalty_Neutral>
0.00217876

> <r_epik_State_Penalty>
-0

> <r_epik_Charging_Adjusted_Penalty>
0

> <i_epik_Tot_Q>
0

> <i_epik_Tot_abs_Q>
0

> <r_epik_Metal_State_Penalty>
-0

> <b_epik_Metal_Only>
0

> <s_lp_Force_Field>
OPLS_2005

> <r_lp_Energy>
9.28896

> <b_lp_Chiralities_Consistent>
1

> <s_lp_Variant>
AV-unprocessed.smi:2744-2

> <Gold.Version>
5.8.1

> <Gold.Id.Protein>
6NUR|6NUR_protein|mol2

> <Gold.PLP.Fitness>
42.5438

> <Gold.PLP.PLP>
-34.0729

> <Gold.PLP.part.hbond>
-3.0424

> <Gold.PLP.part.metal>
0.0000

> <Gold.PLP.part.buried>
-1.0536

> <Gold.PLP.part.nonpolar>
-30.8924

> <Gold.PLP.part.repulsive>
0.3021

> <Gold.PLP.ligand.clash>
0.0000

> <Gold.PLP.ligand.torsion>
0.9193

> <Gold.PLP.Chemscore.Hbond>
3.0000

> <Gold.PLP.Chemscore.CHOScore>
0.4192

> <Gold.PLP.Chemscore.Metal>
0.0000

> <Gold.Chemscore.Hbonds>
donor molecule, donor type, donor heavy atom, donor atom, acceptor molecule, acceptor atom, score
      L1  H     5    28       P1 10175  0.98
      P1  H  7989  7998       L1    18  1.00
      P1  H  7997  8010       L1    16  1.00
      L1  C     8    31       P1  8028  0.41

> <Gold.PLP.Chemscore.Internal.Correction>
0.0518

> <Gold.Rescore>
     Score         DG    S(hbond)    S(metal)    S(lipo)     H(rot)  DE(clash)    DE(int)     intcor
     11.72     -13.21       2.02        0.00      60.43       2.38       0.67       0.82       ----

> <Gold.Chemscore.Fitness>
11.7213

> <Gold.Chemscore.DG>
-13.2115

> <Gold.Chemscore.ZeroCoef>
-5.4800

> <Gold.Chemscore.Hbond>
2.0222

> <Gold.Chemscore.Metal>
0.0000

> <Gold.Chemscore.Lipo>
60.4324

> <Gold.Chemscore.Internal_Hbond>
0.0000

> <Gold.Chemscore.DEClash>
0.6678

> <Gold.Chemscore.DEInternal>
0.8224

> <Gold.Chemscore.Rot>
2.3802

> <Gold.Chemscore.Internal.Correction>
   9.000000E+99

> <Gold.Chemscore.Hbonds>
donor molecule, donor type, donor heavy atom, donor atom, acceptor molecule, acceptor atom, score
      L1  H     5    28       P1 10175  0.56
      P1  H  7989  7998       L1    18  0.26
      P1  H  7997  8010       L1    16  0.34

> <Gold.Chemscore.Hbond.Weighted>
-6.7542

> <Gold.Chemscore.Metal.Weighted>
-0.0000

> <Gold.Chemscore.Lipo.Weighted>
-7.0706

> <Gold.Chemscore.Internal_Hbond.Weighted>
0.0000

> <Gold.Chemscore.DEClash.Weighted>
0.6678

> <Gold.Chemscore.DEInternal.Weighted>
0.8224

> <Gold.Chemscore.Rot.Weighted>
6.0933

> <Gold.Chemscore.Internal.Correction.Weighted>
   9.000000E+99

> <Gold.Protein.RotatedTorsions>
[ 6907 6896 6895 6894 ] final  109.51 input  -60.11 | X-H torsion
[ 7974 7965 7964 7962 ] final    8.51 input  175.53 | X-H torsion
[ 8008 7997 7996 7995 ] final   62.78 input   59.86 | X-H torsion
[ 10167 10162 10161 10158 ] final   -9.46 input  -65.29 | X-H torsion
[ 10718 10713 10712 10709 ] final  117.73 input   66.30 | X-H torsion
[ 10763 10752 10751 10750 ] final  125.20 input  -60.55 | X-H torsion
[ 11005 11000 10999 10996 ] final  170.01 input  -57.11 | X-H torsion

> <Gold.Protein.ActiveResidues>
 VAL166  LYS551  ARG553  GLY616  TRP617  ASP618  TYR619  PRO620  LYS621  CYS622 
 ASP623  PHE694  ASN695  SER759  ASP760  ASP761  ALA762  ILE779  LEU786  VAL792 
 PHE793  MET794  SER795  GLU796  ALA797  LYS798  CYS799  TRP800  GLU811  SER814 

> <Gold.Protein.RotatedAtoms>
  152.5064  133.8934  159.7404 H   0  0  0  0  0  0  0  0  0  0  0  0  # atno 6907 bound_to 6896
  150.9367  133.6695  159.2806 H   0  0  0  0  0  0  0  0  0  0  0  0  # atno 6908 bound_to 6896
  151.4021  135.0977  159.9611 H   0  0  0  0  0  0  0  0  0  0  0  0  # atno 6909 bound_to 6896
  146.2415  139.9922  142.8424 H   0  0  0  0  0  0  0  0  0  0  0  0  # atno 7974 bound_to 7965
  155.6197  140.3495  155.4648 H   0  0  0  0  0  0  0  0  0  0  0  0  # atno 8008 bound_to 7997
  156.0089  140.1229  157.0498 H   0  0  0  0  0  0  0  0  0  0  0  0  # atno 8009 bound_to 7997
  154.4274  140.1085  156.5787 H   0  0  0  0  0  0  0  0  0  0  0  0  # atno 8010 bound_to 7997
  140.7088  143.5856  150.8947 H   0  0  0  0  0  0  0  0  0  0  0  0  # atno 10167 bound_to 10162
  157.6077  131.1040  150.7656 H   0  0  0  0  0  0  0  0  0  0  0  0  # atno 10718 bound_to 10713
  153.6736  135.3326  155.3160 H   0  0  0  0  0  0  0  0  0  0  0  0  # atno 10763 bound_to 10752
  154.8484  135.4392  154.1680 H   0  0  0  0  0  0  0  0  0  0  0  0  # atno 10764 bound_to 10752
  153.2677  135.6997  153.7589 H   0  0  0  0  0  0  0  0  0  0  0  0  # atno 10765 bound_to 10752
  140.3038  134.7573  157.3937 H   0  0  0  0  0  0  0  0  0  0  0  0  # atno 11005 bound_to 11000
  145.1492  140.9614  143.4442 LP  0  0  0  0  0  0  0  0  0  0  0  0  # atno 17320 bound_to 7965
  145.0221  139.3415  143.6067 LP  0  0  0  0  0  0  0  0  0  0  0  0  # atno 17321 bound_to 7965
  139.9581  143.6195  152.3010 LP  0  0  0  0  0  0  0  0  0  0  0  0  # atno 17342 bound_to 10162
  139.6738  144.7659  151.1735 LP  0  0  0  0  0  0  0  0  0  0  0  0  # atno 17343 bound_to 10162
  156.8040  130.4930  149.5365 LP  0  0  0  0  0  0  0  0  0  0  0  0  # atno 17370 bound_to 10713
  156.1169  130.6082  151.0134 LP  0  0  0  0  0  0  0  0  0  0  0  0  # atno 17371 bound_to 10713
  140.1085  134.5377  155.8287 LP  0  0  0  0  0  0  0  0  0  0  0  0  # atno 17394 bound_to 11000
  141.2122  133.6717  156.6645 LP  0  0  0  0  0  0  0  0  0  0  0  0  # atno 17395 bound_to 11000

$$$$
