AV-unprocessed.smi:1426|AV-procd|sdf|5807|dock7
  -GOLD-   22720 5463D 1   1.00000     0.00000
 Structure written by MMmdl.
 44 46  0  0  0  0  0  0  0  0  2 V2000
  151.4237  135.7876  155.6540 O   0  0  0  0  0  0  0  0  0  0  0  0
  150.6993  135.9901  154.6797 C   0  0  0  0  0  0  0  0  0  0  0  0
  150.6075  137.1730  154.0566 N   0  0  0  0  0  0  0  0  0  0  0  0
  151.3341  138.3799  154.4382 C   0  0  0  0  0  0  0  0  0  0  0  0
  150.3949  139.4909  154.9565 C   0  0  2  0  0  0  0  0  0  0  0  0
  149.8119  139.2068  156.3340 C   0  0  0  0  0  0  0  0  0  0  0  0
  148.5113  138.4530  156.0392 C   0  0  0  0  0  0  0  0  0  0  0  0
  148.2796  138.5829  154.6400 O   0  0  0  0  0  0  0  0  0  0  0  0
  149.1212  139.6017  154.1219 C   0  0  0  0  0  0  0  0  0  0  0  0
  149.8877  135.0793  154.1169 N   0  0  0  0  0  0  0  0  0  0  0  0
  149.6765  133.7271  154.5104 C   0  0  0  0  0  0  0  0  0  0  0  0
  150.5782  133.0633  155.3818 C   0  0  0  0  0  0  0  0  0  0  0  0
  150.3313  131.7328  155.7691 C   0  0  0  0  0  0  0  0  0  0  0  0
  149.1877  131.0822  155.2759 C   0  0  0  0  0  0  0  0  0  0  0  0
  148.3601  131.7331  154.4329 N   0  3  0  0  0  0  0  0  0  0  0  0
  148.5511  133.0084  154.0112 C   0  0  0  0  0  0  0  0  0  0  0  0
  147.6052  133.5545  153.1139 N   0  0  0  0  0  0  0  0  0  0  0  0
  146.2716  133.9177  153.5791 C   0  0  0  0  0  0  0  0  0  0  0  0
  145.4545  134.1301  152.3080 C   0  0  0  0  0  0  0  0  0  0  0  0
  146.0357  133.0797  151.3660 C   0  0  0  0  0  0  0  0  0  0  0  0
  147.5147  133.0098  151.7627 C   0  0  0  0  0  0  0  0  0  0  0  0
  149.9863  137.2505  153.2645 H   0  0  0  0  0  0  0  0  0  0  0  0
  152.0804  138.1329  155.1951 H   0  0  0  0  0  0  0  0  0  0  0  0
  151.8888  138.7299  153.5669 H   0  0  0  0  0  0  0  0  0  0  0  0
  150.9295  140.4418  154.9516 H   0  0  0  0  0  0  0  0  0  0  0  0
  150.4812  138.6502  156.9904 H   0  0  0  0  0  0  0  0  0  0  0  0
  149.5789  140.1496  156.8307 H   0  0  0  0  0  0  0  0  0  0  0  0
  148.5964  137.3954  156.2905 H   0  0  0  0  0  0  0  0  0  0  0  0
  147.6771  138.8693  156.6045 H   0  0  0  0  0  0  0  0  0  0  0  0
  148.6440  140.5704  154.2779 H   0  0  0  0  0  0  0  0  0  0  0  0
  149.2934  139.4781  153.0523 H   0  0  0  0  0  0  0  0  0  0  0  0
  149.2791  135.4207  153.3876 H   0  0  0  0  0  0  0  0  0  0  0  0
  151.4639  133.5533  155.7570 H   0  0  0  0  0  0  0  0  0  0  0  0
  151.0097  131.2210  156.4361 H   0  0  0  0  0  0  0  0  0  0  0  0
  148.9155  130.0656  155.5204 H   0  0  0  0  0  0  0  0  0  0  0  0
  145.8361  133.1049  154.1618 H   0  0  0  0  0  0  0  0  0  0  0  0
  146.2958  134.8137  154.1998 H   0  0  0  0  0  0  0  0  0  0  0  0
  144.3820  134.0159  152.4672 H   0  0  0  0  0  0  0  0  0  0  0  0
  145.6352  135.1298  151.9098 H   0  0  0  0  0  0  0  0  0  0  0  0
  145.5589  132.1169  151.5552 H   0  0  0  0  0  0  0  0  0  0  0  0
  145.8906  133.3246  150.3135 H   0  0  0  0  0  0  0  0  0  0  0  0
  148.1092  133.6311  151.0920 H   0  0  0  0  0  0  0  0  0  0  0  0
  147.8921  131.9874  151.7061 H   0  0  0  0  0  0  0  0  0  0  0  0
  147.5438  131.2305  154.0840 H   0  0  0  0  0  0  0  0  0  0  0  0
  1  2  2  0  0  0  0
  2  3  1  0  0  0  0
  2 10  1  0  0  0  0
  3  4  1  0  0  0  0
  3 22  1  0  0  0  0
  4  5  1  0  0  0  0
  4 23  1  0  0  0  0
  4 24  1  0  0  0  0
  5  9  1  0  0  0  0
  5  6  1  0  0  0  0
  5 25  1  0  0  0  0
  6  7  1  0  0  0  0
  6 26  1  0  0  0  0
  6 27  1  0  0  0  0
  7  8  1  0  0  0  0
  7 28  1  0  0  0  0
  7 29  1  0  0  0  0
  8  9  1  0  0  0  0
  9 30  1  0  0  0  0
  9 31  1  0  0  0  0
 10 11  1  0  0  0  0
 10 32  1  0  0  0  0
 11 16  1  0  0  0  0
 11 12  2  0  0  0  0
 12 13  1  0  0  0  0
 12 33  1  0  0  0  0
 13 14  2  0  0  0  0
 13 34  1  0  0  0  0
 14 15  1  0  0  0  0
 14 35  1  0  0  0  0
 15 16  2  0  0  0  0
 15 44  1  0  0  0  0
 16 17  1  0  0  0  0
 17 21  1  0  0  0  0
 17 18  1  0  0  0  0
 18 19  1  0  0  0  0
 18 36  1  0  0  0  0
 18 37  1  0  0  0  0
 19 20  1  0  0  0  0
 19 38  1  0  0  0  0
 19 39  1  0  0  0  0
 20 21  1  0  0  0  0
 20 40  1  0  0  0  0
 20 41  1  0  0  0  0
 21 42  1  0  0  0  0
 21 43  1  0  0  0  0
M  CHG  1  15   1
M  END
> <s_m_source_file>
AV-unprocessed.smi

> <i_m_source_file_index>
1426

> <i_lp_mmshare_version>
43012

> <i_f3d_flags>
0

> <s_epik_input>
W0NIMl0xT1tDSDJdW0NIMl1bQ0BIXTFbQ0gyXVtOSF1DKD1PKVtOSF1jMltjSF1bY0hdW2NIXW5jMk4zW0NIMl1bQ0gyXVtDSDJdW0NIMl0z

> <s_epik_cmdline>
J2VwaWtfcHl0aG9uJywgJy1waCcsICc3LjAnLCAnLXRuJywgJzgnLCAnLW1hJywgJzIwMCcsICctbWV0YWxfYmluZGluZycsICctaW1hZScsICc8aW5maWxlLm1hZT4nLCAnLW9tYWUnLCAnPG91dGZpbGUubWFlPic=

> <r_lp_tautomer_probability>
0.999994

> <r_epik_Ionization_Penalty>
1.10677

> <r_epik_Ionization_Penalty_Charging>
1.10675

> <r_epik_Ionization_Penalty_Neutral>
2.02663e-05

> <r_epik_State_Penalty>
1.16438

> <r_epik_Charging_Adjusted_Penalty>
2.27113

> <i_epik_Tot_Q>
1

> <i_epik_Tot_abs_Q>
1

> <r_epik_Metal_State_Penalty>
1.25078

> <b_epik_Metal_Only>
0

> <s_lp_Force_Field>
OPLS_2005

> <r_lp_Energy>
54.6113

> <b_lp_Chiralities_Consistent>
1

> <s_lp_Variant>
AV-unprocessed.smi:1426-3

> <Gold.Version>
5.8.1

> <Gold.Id.Protein>
6NUR|6NUR_protein|mol2

> <Gold.PLP.Fitness>
37.4397

> <Gold.PLP.PLP>
-29.1887

> <Gold.PLP.part.hbond>
-4.8837

> <Gold.PLP.part.metal>
0.0000

> <Gold.PLP.part.buried>
0.0075

> <Gold.PLP.part.nonpolar>
-24.0611

> <Gold.PLP.part.repulsive>
0.4585

> <Gold.PLP.ligand.clash>
0.0000

> <Gold.PLP.ligand.torsion>
0.3867

> <Gold.PLP.Chemscore.Hbond>
2.8800

> <Gold.PLP.Chemscore.CHOScore>
0.0000

> <Gold.PLP.Chemscore.Metal>
0.0000

> <Gold.Chemscore.Hbonds>
donor molecule, donor type, donor heavy atom, donor atom, acceptor molecule, acceptor atom, score
      L1  H     3    22       P1  7948  0.90
      L1  H    10    32       P1  7948  1.00
      P1  H 10752 10763       L1     1  1.00

> <Gold.PLP.Chemscore.Internal.Correction>
0.3844

> <Gold.Rescore>
     Score         DG    S(hbond)    S(metal)    S(lipo)     H(rot)  DE(clash)    DE(int)     intcor
     12.46     -15.89       2.08        0.00      60.35       1.40       0.22       3.20       ----

> <Gold.Chemscore.Fitness>
12.4631

> <Gold.Chemscore.DG>
-15.8884

> <Gold.Chemscore.ZeroCoef>
-5.4800

> <Gold.Chemscore.Hbond>
2.0771

> <Gold.Chemscore.Metal>
0.0000

> <Gold.Chemscore.Lipo>
60.3471

> <Gold.Chemscore.Internal_Hbond>
0.0000

> <Gold.Chemscore.DEClash>
0.2213

> <Gold.Chemscore.DEInternal>
3.2039

> <Gold.Chemscore.Rot>
1.4023

> <Gold.Chemscore.Internal.Correction>
   9.000000E+99

> <Gold.Chemscore.Hbonds>
donor molecule, donor type, donor heavy atom, donor atom, acceptor molecule, acceptor atom, score
      L1  H     3    22       P1  7948  0.22
      L1  H    10    32       P1  7948  0.25
      P1  H 10752 10763       L1     1  0.50

> <Gold.Chemscore.Hbond.Weighted>
-6.9376

> <Gold.Chemscore.Metal.Weighted>
-0.0000

> <Gold.Chemscore.Lipo.Weighted>
-7.0606

> <Gold.Chemscore.Internal_Hbond.Weighted>
0.0000

> <Gold.Chemscore.DEClash.Weighted>
0.2213

> <Gold.Chemscore.DEInternal.Weighted>
3.2039

> <Gold.Chemscore.Rot.Weighted>
3.5898

> <Gold.Chemscore.Internal.Correction.Weighted>
   9.000000E+99

> <Gold.Protein.RotatedTorsions>
[ 6907 6896 6895 6894 ] final  122.84 input  -60.11 | X-H torsion
[ 7974 7965 7964 7962 ] final  -57.33 input  175.53 | X-H torsion
[ 8008 7997 7996 7995 ] final   81.66 input   59.86 | X-H torsion
[ 10167 10162 10161 10158 ] final   24.11 input  -65.29 | X-H torsion
[ 10718 10713 10712 10709 ] final   16.23 input   66.30 | X-H torsion
[ 10763 10752 10751 10750 ] final   84.10 input  -60.55 | X-H torsion
[ 11005 11000 10999 10996 ] final -132.49 input  -57.11 | X-H torsion

> <Gold.Protein.ActiveResidues>
 VAL166  LYS551  ARG553  GLY616  TRP617  ASP618  TYR619  PRO620  LYS621  CYS622 
 ASP623  PHE694  ASN695  SER759  ASP760  ASP761  ALA762  ILE779  LEU786  VAL792 
 PHE793  MET794  SER795  GLU796  ALA797  LYS798  CYS799  TRP800  GLU811  SER814 

> <Gold.Protein.RotatedAtoms>
  152.4210  133.7116  159.6481 H   0  0  0  0  0  0  0  0  0  0  0  0  # atno 6907 bound_to 6896
  150.8086  133.8453  159.3199 H   0  0  0  0  0  0  0  0  0  0  0  0  # atno 6908 bound_to 6896
  151.6169  135.1037  160.0145 H   0  0  0  0  0  0  0  0  0  0  0  0  # atno 6909 bound_to 6896
  145.8523  140.8344  142.9979 H   0  0  0  0  0  0  0  0  0  0  0  0  # atno 7974 bound_to 7965
  155.9002  140.3434  155.6020 H   0  0  0  0  0  0  0  0  0  0  0  0  # atno 8008 bound_to 7997
  155.7509  140.0820  157.2220 H   0  0  0  0  0  0  0  0  0  0  0  0  # atno 8009 bound_to 7997
  154.4043  140.1553  156.2710 H   0  0  0  0  0  0  0  0  0  0  0  0  # atno 8010 bound_to 7997
  140.5214  143.9995  150.6419 H   0  0  0  0  0  0  0  0  0  0  0  0  # atno 10167 bound_to 10162
  157.0648  130.6324  149.5793 H   0  0  0  0  0  0  0  0  0  0  0  0  # atno 10718 bound_to 10713
  153.1350  135.4667  154.9409 H   0  0  0  0  0  0  0  0  0  0  0  0  # atno 10763 bound_to 10752
  154.7698  135.3155  154.8215 H   0  0  0  0  0  0  0  0  0  0  0  0  # atno 10764 bound_to 10752
  153.8749  135.6900  153.4825 H   0  0  0  0  0  0  0  0  0  0  0  0  # atno 10765 bound_to 10752
  140.9166  134.1499  157.4348 H   0  0  0  0  0  0  0  0  0  0  0  0  # atno 11005 bound_to 11000
  144.6729  140.0971  143.7462 LP  0  0  0  0  0  0  0  0  0  0  0  0  # atno 17320 bound_to 7965
  145.9344  139.2627  143.1306 LP  0  0  0  0  0  0  0  0  0  0  0  0  # atno 17321 bound_to 7965
  140.3345  143.3057  152.0652 LP  0  0  0  0  0  0  0  0  0  0  0  0  # atno 17342 bound_to 10162
  139.4925  144.6486  151.6725 LP  0  0  0  0  0  0  0  0  0  0  0  0  # atno 17343 bound_to 10162
  155.9968  130.5038  150.7509 LP  0  0  0  0  0  0  0  0  0  0  0  0  # atno 17370 bound_to 10713
  157.4925  131.0912  151.0409 LP  0  0  0  0  0  0  0  0  0  0  0  0  # atno 17371 bound_to 10713
  139.8767  134.9956  156.5750 LP  0  0  0  0  0  0  0  0  0  0  0  0  # atno 17394 bound_to 11000
  140.8042  133.8481  155.8753 LP  0  0  0  0  0  0  0  0  0  0  0  0  # atno 17395 bound_to 11000

$$$$
