AV-unprocessed.smi:433|AV-procd|sdf|2550|dock4
  -GOLD-   2262022513D 1   1.00000     0.00000
 Structure written by MMmdl.
 36 37  0  0  0  0  0  0  0  0  1 V2000
  146.2048  137.5499  154.2825 C   0  0  0  0  0  0  0  0  0  0  0  0
  147.0749  138.6901  154.2802 N   0  0  0  0  0  0  0  0  0  0  0  0
  146.6080  139.9786  154.1077 C   0  0  0  0  0  0  0  0  0  0  0  0
  147.4218  141.0566  154.0918 C   0  0  0  0  0  0  0  0  0  0  0  0
  148.8630  140.9103  154.2628 C   0  0  0  0  0  0  0  0  0  0  0  0
  149.6433  141.8628  154.2271 O   0  0  0  0  0  0  0  0  0  0  0  0
  149.3052  139.5772  154.4573 N   0  0  0  0  0  0  0  0  0  0  0  0
  150.7318  139.3512  154.6109 C   0  0  0  0  0  0  0  0  0  0  0  0
  151.3652  140.2305  155.7131 C   0  0  2  0  0  0  0  0  0  0  0  0
  152.5779  139.6362  156.1291 O   0  0  0  0  0  0  0  0  0  0  0  0
  150.4654  140.3474  156.9521 C   0  0  0  0  0  0  0  0  0  0  0  0
  151.2909  140.5786  158.0858 O   0  0  0  0  0  0  0  0  0  0  0  0
  151.6314  141.8772  158.3950 C   0  0  0  0  0  0  0  0  0  0  0  0
  152.3984  142.0752  159.5619 C   0  0  0  0  0  0  0  0  0  0  0  0
  152.7926  143.3687  159.9544 C   0  0  0  0  0  0  0  0  0  0  0  0
  152.4203  144.4827  159.1798 C   0  0  0  0  0  0  0  0  0  0  0  0
  151.6537  144.2998  158.0138 C   0  0  0  0  0  0  0  0  0  0  0  0
  151.2596  143.0057  157.6210 C   0  0  0  0  0  0  0  0  0  0  0  0
  148.4546  138.4471  154.4549 C   0  0  0  0  0  0  0  0  0  0  0  0
  148.8902  137.3000  154.5892 O   0  0  0  0  0  0  0  0  0  0  0  0
  145.1830  137.9058  154.1464 H   0  0  0  0  0  0  0  0  0  0  0  0
  146.3141  137.0538  155.2483 H   0  0  0  0  0  0  0  0  0  0  0  0
  146.5027  136.9074  153.4520 H   0  0  0  0  0  0  0  0  0  0  0  0
  145.5472  140.1355  153.9753 H   0  0  0  0  0  0  0  0  0  0  0  0
  147.0018  142.0411  153.9472 H   0  0  0  0  0  0  0  0  0  0  0  0
  150.8581  138.2883  154.8235 H   0  0  0  0  0  0  0  0  0  0  0  0
  151.2101  139.4784  153.6378 H   0  0  0  0  0  0  0  0  0  0  0  0
  151.5837  141.2319  155.3394 H   0  0  0  0  0  0  0  0  0  0  0  0
  152.4222  138.7174  156.2870 H   0  0  0  0  0  0  0  0  0  0  0  0
  149.7474  141.1589  156.8198 H   0  0  0  0  0  0  0  0  0  0  0  0
  149.9085  139.4195  157.0944 H   0  0  0  0  0  0  0  0  0  0  0  0
  152.6887  141.2250  160.1617 H   0  0  0  0  0  0  0  0  0  0  0  0
  153.3806  143.5054  160.8500 H   0  0  0  0  0  0  0  0  0  0  0  0
  152.7218  145.4755  159.4796 H   0  0  0  0  0  0  0  0  0  0  0  0
  151.3663  145.1543  157.4190 H   0  0  0  0  0  0  0  0  0  0  0  0
  150.6707  142.9052  156.7222 H   0  0  0  0  0  0  0  0  0  0  0  0
  1  2  1  0  0  0  0
  1 21  1  0  0  0  0
  1 22  1  0  0  0  0
  1 23  1  0  0  0  0
  2 19  1  0  0  0  0
  2  3  1  0  0  0  0
  3  4  2  0  0  0  0
  3 24  1  0  0  0  0
  4  5  1  0  0  0  0
  4 25  1  0  0  0  0
  5  6  2  0  0  0  0
  5  7  1  0  0  0  0
  7  8  1  0  0  0  0
  7 19  1  0  0  0  0
  8  9  1  0  0  0  0
  8 26  1  0  0  0  0
  8 27  1  0  0  0  0
  9 10  1  0  0  0  0
  9 11  1  0  0  0  0
  9 28  1  0  0  0  0
 10 29  1  0  0  0  0
 11 12  1  0  0  0  0
 11 30  1  0  0  0  0
 11 31  1  0  0  0  0
 12 13  1  0  0  0  0
 13 18  1  0  0  0  0
 13 14  2  0  0  0  0
 14 15  1  0  0  0  0
 14 32  1  0  0  0  0
 15 16  2  0  0  0  0
 15 33  1  0  0  0  0
 16 17  1  0  0  0  0
 16 34  1  0  0  0  0
 17 18  2  0  0  0  0
 17 35  1  0  0  0  0
 18 36  1  0  0  0  0
 19 20  2  0  0  0  0
M  END
> <s_m_source_file>
AV-unprocessed.smi

> <i_m_source_file_index>
433

> <i_lp_mmshare_version>
43012

> <i_f3d_flags>
0

> <s_epik_input>
W0NIM11uMVtjSF1bY0hdYyg9TyluKGMxPU8pW0NIMl1bQ0BIXShbT0hdKVtDSDJdT2MyW2NIXVtjSF1bY0hdW2NIXVtjSF0y

> <s_epik_cmdline>
J2VwaWtfcHl0aG9uJywgJy1waCcsICc3LjAnLCAnLXRuJywgJzgnLCAnLW1hJywgJzIwMCcsICctbWV0YWxfYmluZGluZycsICctaW1hZScsICc8aW5maWxlLm1hZT4nLCAnLW9tYWUnLCAnPG91dGZpbGUubWFlPic=

> <r_lp_tautomer_probability>
1

> <r_epik_Ionization_Penalty>
2.21742e-07

> <r_epik_Ionization_Penalty_Charging>
1.04568e-07

> <r_epik_Ionization_Penalty_Neutral>
1.17174e-07

> <r_epik_State_Penalty>
-0

> <r_epik_Charging_Adjusted_Penalty>
1.04568e-07

> <i_epik_Tot_Q>
0

> <i_epik_Tot_abs_Q>
0

> <r_epik_Metal_State_Penalty>
-0

> <b_epik_Metal_Only>
0

> <s_lp_Force_Field>
OPLS_2005

> <r_lp_Energy>
22.5639

> <b_lp_Chiralities_Consistent>
1

> <s_lp_Variant>
AV-unprocessed.smi:433-1

> <Gold.Version>
5.8.1

> <Gold.Id.Protein>
6NUR|6NUR_protein|mol2

> <Gold.PLP.Fitness>
46.2841

> <Gold.PLP.PLP>
-39.9080

> <Gold.PLP.part.hbond>
-3.0000

> <Gold.PLP.part.metal>
0.0000

> <Gold.PLP.part.buried>
-2.6244

> <Gold.PLP.part.nonpolar>
-34.7587

> <Gold.PLP.part.repulsive>
0.3581

> <Gold.PLP.ligand.clash>
0.0000

> <Gold.PLP.ligand.torsion>
0.7490

> <Gold.PLP.Chemscore.Hbond>
1.6158

> <Gold.PLP.Chemscore.CHOScore>
1.0000

> <Gold.PLP.Chemscore.Metal>
0.0000

> <Gold.Chemscore.Hbonds>
donor molecule, donor type, donor heavy atom, donor atom, acceptor molecule, acceptor atom, score
      P1  H  7989  7998       L1     6  0.05
      P1  H  7997  8010       L1    10  1.00
      P1  H  8011  8017       L1     6  0.42
      L1  C     3    24       P1 10175  1.00

> <Gold.PLP.Chemscore.Internal.Correction>
0.0268

> <Gold.Rescore>
     Score         DG    S(hbond)    S(metal)    S(lipo)     H(rot)  DE(clash)    DE(int)     intcor
     15.25     -17.94       2.08        0.00     100.86       2.46       0.57       2.11       ----

> <Gold.Chemscore.Fitness>
15.2489

> <Gold.Chemscore.DG>
-17.9362

> <Gold.Chemscore.ZeroCoef>
-5.4800

> <Gold.Chemscore.Hbond>
2.0826

> <Gold.Chemscore.Metal>
0.0000

> <Gold.Chemscore.Lipo>
100.8558

> <Gold.Chemscore.Internal_Hbond>
0.0000

> <Gold.Chemscore.DEClash>
0.5745

> <Gold.Chemscore.DEInternal>
2.1128

> <Gold.Chemscore.Rot>
2.4608

> <Gold.Chemscore.Internal.Correction>
   9.000000E+99

> <Gold.Chemscore.Hbonds>
donor molecule, donor type, donor heavy atom, donor atom, acceptor molecule, acceptor atom, score
      P1  H  7989  7998       L1     6  0.02
      P1  H  7997  8010       L1    10  0.88
      P1  H  8011  8017       L1     6  0.27

> <Gold.Chemscore.Hbond.Weighted>
-6.9557

> <Gold.Chemscore.Metal.Weighted>
-0.0000

> <Gold.Chemscore.Lipo.Weighted>
-11.8001

> <Gold.Chemscore.Internal_Hbond.Weighted>
0.0000

> <Gold.Chemscore.DEClash.Weighted>
0.5745

> <Gold.Chemscore.DEInternal.Weighted>
2.1128

> <Gold.Chemscore.Rot.Weighted>
6.2997

> <Gold.Chemscore.Internal.Correction.Weighted>
   9.000000E+99

> <Gold.Protein.RotatedTorsions>
[ 6907 6896 6895 6894 ] final -143.12 input  -60.11 | X-H torsion
[ 7974 7965 7964 7962 ] final   -2.34 input  175.53 | X-H torsion
[ 8008 7997 7996 7995 ] final   81.25 input   59.86 | X-H torsion
[ 10167 10162 10161 10158 ] final  131.36 input  -65.29 | X-H torsion
[ 10718 10713 10712 10709 ] final -153.17 input   66.30 | X-H torsion
[ 10763 10752 10751 10750 ] final   93.45 input  -60.55 | X-H torsion
[ 11005 11000 10999 10996 ] final -142.60 input  -57.11 | X-H torsion

> <Gold.Protein.ActiveResidues>
 VAL166  LYS551  ARG553  GLY616  TRP617  ASP618  TYR619  PRO620  LYS621  CYS622 
 ASP623  PHE694  ASN695  SER759  ASP760  ASP761  ALA762  ILE779  LEU786  VAL792 
 PHE793  MET794  SER795  GLU796  ALA797  LYS798  CYS799  TRP800  GLU811  SER814 

> <Gold.Protein.RotatedAtoms>
  151.0961  133.5278  159.2612 H   0  0  0  0  0  0  0  0  0  0  0  0  # atno 6907 bound_to 6896
  151.2127  135.0487  159.8927 H   0  0  0  0  0  0  0  0  0  0  0  0  # atno 6908 bound_to 6896
  152.5439  134.0775  159.8274 H   0  0  0  0  0  0  0  0  0  0  0  0  # atno 6909 bound_to 6896
  146.2405  140.1557  142.8333 H   0  0  0  0  0  0  0  0  0  0  0  0  # atno 7974 bound_to 7965
  155.8946  140.3437  155.5981 H   0  0  0  0  0  0  0  0  0  0  0  0  # atno 8008 bound_to 7997
  155.7571  140.0827  157.2192 H   0  0  0  0  0  0  0  0  0  0  0  0  # atno 8009 bound_to 7997
  154.4037  140.1542  156.2778 H   0  0  0  0  0  0  0  0  0  0  0  0  # atno 8010 bound_to 7997
  139.5387  144.6709  151.4696 H   0  0  0  0  0  0  0  0  0  0  0  0  # atno 10167 bound_to 10162
  156.4822  130.8308  151.2535 H   0  0  0  0  0  0  0  0  0  0  0  0  # atno 10718 bound_to 10713
  153.2305  135.4325  155.0589 H   0  0  0  0  0  0  0  0  0  0  0  0  # atno 10763 bound_to 10752
  154.8294  135.3378  154.6795 H   0  0  0  0  0  0  0  0  0  0  0  0  # atno 10764 bound_to 10752
  153.7222  135.7016  153.5066 H   0  0  0  0  0  0  0  0  0  0  0  0  # atno 10765 bound_to 10752
  140.8209  134.2633  157.4901 H   0  0  0  0  0  0  0  0  0  0  0  0  # atno 11005 bound_to 11000
  145.0131  140.8731  143.5212 LP  0  0  0  0  0  0  0  0  0  0  0  0  # atno 17320 bound_to 7965
  145.1593  139.2468  143.5400 LP  0  0  0  0  0  0  0  0  0  0  0  0  # atno 17321 bound_to 7965
  140.6607  143.8504  150.6885 LP  0  0  0  0  0  0  0  0  0  0  0  0  # atno 17342 bound_to 10162
  140.1897  143.4046  152.1872 LP  0  0  0  0  0  0  0  0  0  0  0  0  # atno 17343 bound_to 10162
  157.7482  131.0041  150.3063 LP  0  0  0  0  0  0  0  0  0  0  0  0  # atno 17370 bound_to 10713
  156.3510  130.3831  149.7329 LP  0  0  0  0  0  0  0  0  0  0  0  0  # atno 17371 bound_to 10713
  139.8708  134.9534  156.4145 LP  0  0  0  0  0  0  0  0  0  0  0  0  # atno 17394 bound_to 11000
  140.9100  133.7718  155.9781 LP  0  0  0  0  0  0  0  0  0  0  0  0  # atno 17395 bound_to 11000

$$$$
