AV-unprocessed.smi:1605|AV-procd|sdf|6456|dock1
  -GOLD-   22720 7113D 1   1.00000     0.00000
 Structure written by MMmdl.
 52 54  0  0  0  0  0  0  0  0  3 V2000
  146.3973  134.5765  156.4684 C   0  0  0  0  0  0  0  0  0  0  0  0
  147.5825  134.3187  155.7311 O   0  0  0  0  0  0  0  0  0  0  0  0
  148.5547  135.3531  155.8024 C   0  0  2  0  0  0  0  0  0  0  0  0
  147.9175  136.6293  155.2336 C   0  0  0  0  0  0  0  0  0  0  0  0
  148.9341  137.7810  155.1704 C   0  0  0  0  0  0  0  0  0  0  0  0
  150.1243  137.3994  154.3673 N   0  3  1  0  0  0  0  0  0  0  0  0
  151.0561  138.5391  154.1637 C   0  0  0  0  0  0  0  0  0  0  0  0
  152.1751  138.5994  155.2274 C   0  0  1  0  0  0  0  0  0  0  0  0
  153.2064  139.4459  154.7583 O   0  0  0  0  0  0  0  0  0  0  0  0
  151.6827  139.1051  156.6030 C   0  0  0  0  0  0  0  0  0  0  0  0
  151.1914  140.4934  156.6013 N   0  0  0  0  0  0  0  0  0  0  0  0
  150.3806  141.1316  155.7130 C   0  0  0  0  0  0  0  0  0  0  0  0
  150.2117  142.4089  156.1534 N   0  3  0  0  0  0  0  0  0  0  0  0
  150.9156  142.5881  157.3458 C   0  0  0  0  0  0  0  0  0  0  0  0
  151.0487  143.7030  158.1652 C   0  0  0  0  0  0  0  0  0  0  0  0
  151.8429  143.5600  159.3253 C   0  0  0  0  0  0  0  0  0  0  0  0
  152.0157  144.7612  160.2393 C   0  0  0  0  0  0  0  0  0  0  0  0
  152.4671  142.3238  159.6341 C   0  0  0  0  0  0  0  0  0  0  0  0
  153.3163  142.1782  160.8854 C   0  0  0  0  0  0  0  0  0  0  0  0
  152.3175  141.2015  158.7887 C   0  0  0  0  0  0  0  0  0  0  0  0
  151.5391  141.3610  157.6444 C   0  0  0  0  0  0  0  0  0  0  0  0
  150.7846  136.1873  154.9218 C   0  0  0  0  0  0  0  0  0  0  0  0
  149.8078  135.0010  154.9795 C   0  0  0  0  0  0  0  0  0  0  0  0
  145.6966  133.7541  156.3246 H   0  0  0  0  0  0  0  0  0  0  0  0
  145.9112  135.4917  156.1283 H   0  0  0  0  0  0  0  0  0  0  0  0
  146.5925  134.6591  157.5373 H   0  0  0  0  0  0  0  0  0  0  0  0
  148.8297  135.5363  156.8429 H   0  0  0  0  0  0  0  0  0  0  0  0
  147.5283  136.4335  154.2334 H   0  0  0  0  0  0  0  0  0  0  0  0
  147.0633  136.9225  155.8449 H   0  0  0  0  0  0  0  0  0  0  0  0
  148.4529  138.6537  154.7274 H   0  0  0  0  0  0  0  0  0  0  0  0
  149.2465  138.0662  156.1764 H   0  0  0  0  0  0  0  0  0  0  0  0
  151.5168  138.4598  153.1778 H   0  0  0  0  0  0  0  0  0  0  0  0
  150.4853  139.4690  154.1572 H   0  0  0  0  0  0  0  0  0  0  0  0
  152.6074  137.6118  155.3825 H   0  0  0  0  0  0  0  0  0  0  0  0
  152.8263  140.1339  154.2337 H   0  0  0  0  0  0  0  0  0  0  0  0
  150.8588  138.4780  156.9462 H   0  0  0  0  0  0  0  0  0  0  0  0
  152.4643  139.0078  157.3573 H   0  0  0  0  0  0  0  0  0  0  0  0
  149.9506  140.7041  154.8187 H   0  0  0  0  0  0  0  0  0  0  0  0
  150.5672  144.6400  157.9260 H   0  0  0  0  0  0  0  0  0  0  0  0
  151.6156  144.5485  161.2307 H   0  0  0  0  0  0  0  0  0  0  0  0
  151.4959  145.6371  159.8500 H   0  0  0  0  0  0  0  0  0  0  0  0
  153.0706  145.0186  160.3392 H   0  0  0  0  0  0  0  0  0  0  0  0
  153.7088  141.1657  160.9851 H   0  0  0  0  0  0  0  0  0  0  0  0
  152.7271  142.3957  161.7764 H   0  0  0  0  0  0  0  0  0  0  0  0
  154.1644  142.8626  160.8538 H   0  0  0  0  0  0  0  0  0  0  0  0
  152.7967  140.2628  159.0237 H   0  0  0  0  0  0  0  0  0  0  0  0
  151.6418  135.9051  154.3122 H   0  0  0  0  0  0  0  0  0  0  0  0
  151.1680  136.4044  155.9202 H   0  0  0  0  0  0  0  0  0  0  0  0
  150.3180  134.1374  155.4052 H   0  0  0  0  0  0  0  0  0  0  0  0
  149.5156  134.7197  153.9667 H   0  0  0  0  0  0  0  0  0  0  0  0
  149.7732  137.1531  153.4529 H   0  0  0  0  0  0  0  0  0  0  0  0
  149.6519  143.1044  155.6766 H   0  0  0  0  0  0  0  0  0  0  0  0
  1  2  1  0  0  0  0
  1 24  1  0  0  0  0
  1 25  1  0  0  0  0
  1 26  1  0  0  0  0
  2  3  1  0  0  0  0
  3 23  1  0  0  0  0
  3  4  1  0  0  0  0
  3 27  1  0  0  0  0
  4  5  1  0  0  0  0
  4 28  1  0  0  0  0
  4 29  1  0  0  0  0
  5  6  1  0  0  0  0
  5 30  1  0  0  0  0
  5 31  1  0  0  0  0
  6  7  1  0  0  0  0
  6 22  1  0  0  0  0
  6 51  1  0  0  0  0
  7  8  1  0  0  0  0
  7 32  1  0  0  0  0
  7 33  1  0  0  0  0
  8  9  1  0  0  0  0
  8 10  1  0  0  0  0
  8 34  1  0  0  0  0
  9 35  1  0  0  0  0
 10 11  1  0  0  0  0
 10 36  1  0  0  0  0
 10 37  1  0  0  0  0
 11 21  1  0  0  0  0
 11 12  1  0  0  0  0
 12 13  2  0  0  0  0
 12 38  1  0  0  0  0
 13 14  1  0  0  0  0
 13 52  1  0  0  0  0
 14 21  2  0  0  0  0
 14 15  1  0  0  0  0
 15 16  2  0  0  0  0
 15 39  1  0  0  0  0
 16 17  1  0  0  0  0
 16 18  1  0  0  0  0
 17 40  1  0  0  0  0
 17 41  1  0  0  0  0
 17 42  1  0  0  0  0
 18 19  1  0  0  0  0
 18 20  2  0  0  0  0
 19 43  1  0  0  0  0
 19 44  1  0  0  0  0
 19 45  1  0  0  0  0
 20 21  1  0  0  0  0
 20 46  1  0  0  0  0
 22 23  1  0  0  0  0
 22 47  1  0  0  0  0
 22 48  1  0  0  0  0
 23 49  1  0  0  0  0
 23 50  1  0  0  0  0
M  CHG  1   6   1
M  CHG  1  13   1
M  END
> <s_m_source_file>
AV-unprocessed.smi

> <i_m_source_file_index>
1605

> <i_lp_mmshare_version>
43012

> <i_f3d_flags>
0

> <s_epik_input>
W0NIM11PW0NIXTFbQ0gyXVtDSDJdTihbQ0gyXVtDSDJdMSlbQ0gyXVtDQEhdKFtPSF0pW0NIMl1uKFtjSF1uMiljKGMyMylbY0hdYyhbQ0gzXSljKFtjSF0zKVtDSDNd

> <s_epik_cmdline>
J2VwaWtfcHl0aG9uJywgJy1waCcsICc3LjAnLCAnLXRuJywgJzgnLCAnLW1hJywgJzIwMCcsICctbWV0YWxfYmluZGluZycsICctaW1hZScsICc8aW5maWxlLm1hZT4nLCAnLW9tYWUnLCAnPG91dGZpbGUubWFlPic=

> <r_epik_Ionization_Penalty>
1.19848

> <r_epik_Ionization_Penalty_Charging>
1.19848

> <r_epik_Ionization_Penalty_Neutral>
1.67134e-06

> <r_epik_State_Penalty>
1.2782

> <r_epik_Charging_Adjusted_Penalty>
2.47668

> <i_epik_Tot_Q>
2

> <i_epik_Tot_abs_Q>
2

> <r_epik_Metal_State_Penalty>
5.29544

> <b_epik_Metal_Only>
0

> <s_lp_Force_Field>
OPLS_2005

> <r_lp_Energy>
33.6993

> <b_lp_Chiralities_Consistent>
1

> <s_lp_Variant>
AV-unprocessed.smi:1605-6

> <Gold.Version>
5.8.1

> <Gold.Id.Protein>
6NUR|6NUR_protein|mol2

> <Gold.PLP.Fitness>
59.8830

> <Gold.PLP.PLP>
-46.2387

> <Gold.PLP.part.hbond>
-4.0000

> <Gold.PLP.part.metal>
0.0000

> <Gold.PLP.part.buried>
-6.9532

> <Gold.PLP.part.nonpolar>
-36.3168

> <Gold.PLP.part.repulsive>
0.1755

> <Gold.PLP.ligand.clash>
0.0000

> <Gold.PLP.ligand.torsion>
0.7136

> <Gold.PLP.Chemscore.Hbond>
5.0000

> <Gold.PLP.Chemscore.CHOScore>
0.0000

> <Gold.PLP.Chemscore.Metal>
0.0000

> <Gold.Chemscore.Hbonds>
donor molecule, donor type, donor heavy atom, donor atom, acceptor molecule, acceptor atom, score
      L1  H     6    51       P1  7948  2.00
      L1  H    13    52       P1  8028  1.98
      P1  H  7997  8009       L1     9  1.00

> <Gold.PLP.Chemscore.Internal.Correction>
0.0715

> <Gold.Rescore>
     Score         DG    S(hbond)    S(metal)    S(lipo)     H(rot)  DE(clash)    DE(int)     intcor
     22.04     -22.85       2.73        0.00     120.59       2.28       0.13       0.67       ----

> <Gold.Chemscore.Fitness>
22.0448

> <Gold.Chemscore.DG>
-22.8507

> <Gold.Chemscore.ZeroCoef>
-5.4800

> <Gold.Chemscore.Hbond>
2.7272

> <Gold.Chemscore.Metal>
0.0000

> <Gold.Chemscore.Lipo>
120.5861

> <Gold.Chemscore.Internal_Hbond>
0.0000

> <Gold.Chemscore.DEClash>
0.1313

> <Gold.Chemscore.DEInternal>
0.6745

> <Gold.Chemscore.Rot>
2.2839

> <Gold.Chemscore.Internal.Correction>
   9.000000E+99

> <Gold.Chemscore.Hbonds>
donor molecule, donor type, donor heavy atom, donor atom, acceptor molecule, acceptor atom, score
      L1  H     6    51       P1  7948  0.59
      L1  H    13    52       P1  8028  0.94
      P1  H  7997  8009       L1     9  0.65

> <Gold.Chemscore.Hbond.Weighted>
-9.1090

> <Gold.Chemscore.Metal.Weighted>
-0.0000

> <Gold.Chemscore.Lipo.Weighted>
-14.1086

> <Gold.Chemscore.Internal_Hbond.Weighted>
0.0000

> <Gold.Chemscore.DEClash.Weighted>
0.1313

> <Gold.Chemscore.DEInternal.Weighted>
0.6745

> <Gold.Chemscore.Rot.Weighted>
5.8469

> <Gold.Chemscore.Internal.Correction.Weighted>
   9.000000E+99

> <Gold.Protein.RotatedTorsions>
[ 6907 6896 6895 6894 ] final  106.65 input  -60.11 | X-H torsion
[ 7974 7965 7964 7962 ] final  -67.23 input  175.53 | X-H torsion
[ 8008 7997 7996 7995 ] final -130.83 input   59.86 | X-H torsion
[ 10167 10162 10161 10158 ] final   -4.75 input  -65.29 | X-H torsion
[ 10718 10713 10712 10709 ] final  -53.24 input   66.30 | X-H torsion
[ 10763 10752 10751 10750 ] final  -22.24 input  -60.55 | X-H torsion
[ 11005 11000 10999 10996 ] final  -46.46 input  -57.11 | X-H torsion

> <Gold.Protein.ActiveResidues>
 VAL166  LYS551  ARG553  GLY616  TRP617  ASP618  TYR619  PRO620  LYS621  CYS622 
 ASP623  PHE694  ASN695  SER759  ASP760  ASP761  ALA762  ILE779  LEU786  VAL792 
 PHE793  MET794  SER795  GLU796  ALA797  LYS798  CYS799  TRP800  GLU811  SER814 

> <Gold.Protein.RotatedAtoms>
  152.5185  133.9349  159.7598 H   0  0  0  0  0  0  0  0  0  0  0  0  # atno 6907 bound_to 6896
  150.9692  133.6354  159.2748 H   0  0  0  0  0  0  0  0  0  0  0  0  # atno 6908 bound_to 6896
  151.3572  135.0902  159.9475 H   0  0  0  0  0  0  0  0  0  0  0  0  # atno 6909 bound_to 6896
  145.7318  140.8993  143.0576 H   0  0  0  0  0  0  0  0  0  0  0  0  # atno 7974 bound_to 7965
  155.3023  140.0453  157.3030 H   0  0  0  0  0  0  0  0  0  0  0  0  # atno 8008 bound_to 7997
  154.5480  140.2308  155.8499 H   0  0  0  0  0  0  0  0  0  0  0  0  # atno 8009 bound_to 7997
  156.1941  140.3043  155.9399 H   0  0  0  0  0  0  0  0  0  0  0  0  # atno 8010 bound_to 7997
  140.6939  143.6387  150.8455 H   0  0  0  0  0  0  0  0  0  0  0  0  # atno 10167 bound_to 10162
  156.1552  130.4150  149.9880 H   0  0  0  0  0  0  0  0  0  0  0  0  # atno 10718 bound_to 10713
  153.6488  135.6982  153.5216 H   0  0  0  0  0  0  0  0  0  0  0  0  # atno 10763 bound_to 10752
  153.2723  135.4211  155.0999 H   0  0  0  0  0  0  0  0  0  0  0  0  # atno 10764 bound_to 10752
  154.8481  135.3581  154.6032 H   0  0  0  0  0  0  0  0  0  0  0  0  # atno 10765 bound_to 10752
  141.0580  133.6719  156.3157 H   0  0  0  0  0  0  0  0  0  0  0  0  # atno 11005 bound_to 11000
  144.6891  139.9341  143.7473 LP  0  0  0  0  0  0  0  0  0  0  0  0  # atno 17320 bound_to 7965
  146.0531  139.3530  143.0627 LP  0  0  0  0  0  0  0  0  0  0  0  0  # atno 17321 bound_to 7965
  140.0103  143.5649  152.2841 LP  0  0  0  0  0  0  0  0  0  0  0  0  # atno 17342 bound_to 10162
  139.6371  144.7651  151.2416 LP  0  0  0  0  0  0  0  0  0  0  0  0  # atno 17343 bound_to 10162
  156.7726  130.9192  151.3644 LP  0  0  0  0  0  0  0  0  0  0  0  0  # atno 17370 bound_to 10713
  157.6689  130.9033  149.9995 LP  0  0  0  0  0  0  0  0  0  0  0  0  # atno 17371 bound_to 10713
  140.5926  134.5636  157.5502 LP  0  0  0  0  0  0  0  0  0  0  0  0  # atno 17394 bound_to 11000
  139.9407  134.7792  156.0686 LP  0  0  0  0  0  0  0  0  0  0  0  0  # atno 17395 bound_to 11000

$$$$
