AV-unprocessed.smi:241|AV-procd|sdf|1842|dock1
  -GOLD-   2262020453D 1   1.00000     0.00000
 Structure written by MMmdl.
 54 57  0  0  0  0  0  0  0  0  1 V2000
  142.0780  132.7688  159.5465 C   0  0  0  0  0  0  0  0  0  0  0  0
  142.4100  133.9800  158.8874 O   0  0  0  0  0  0  0  0  0  0  0  0
  143.7298  134.0077  158.3628 C   0  0  0  0  0  0  0  0  0  0  0  0
  144.1763  135.4540  158.0735 C   0  0  2  0  0  0  0  0  0  0  0  0
  143.7955  136.4749  159.1449 C   0  0  0  0  0  0  0  0  0  0  0  0
  143.9396  137.7930  158.3903 C   0  0  2  0  0  0  0  0  0  0  0  0
  143.1574  138.8120  158.9955 O   0  0  0  0  0  0  0  0  0  0  0  0
  143.1824  140.0385  158.2837 C   0  0  0  0  0  0  0  0  0  0  0  0
  143.4793  137.4345  156.9690 C   0  0  0  0  0  0  0  0  0  0  0  0
  143.5811  135.9830  156.8496 N   0  0  0  0  0  0  0  0  0  0  0  0
  144.1214  135.5492  155.6897 C   0  0  0  0  0  0  0  0  0  0  0  0
  145.4713  135.5143  155.5342 N   0  0  0  0  0  0  0  0  0  0  0  0
  145.9979  135.0826  154.3839 C   0  0  0  0  0  0  0  0  0  0  0  0
  145.3695  134.6557  153.2859 N   0  0  0  0  0  0  0  0  0  0  0  0
  144.0146  134.6965  153.4412 C   0  0  0  0  0  0  0  0  0  0  0  0
  143.3145  135.1218  154.6041 C   0  0  0  0  0  0  0  0  0  0  0  0
  141.9447  135.0097  154.4063 N   0  0  0  0  0  0  0  0  0  0  0  0
  141.8400  134.5381  153.1935 C   0  0  0  0  0  0  0  0  0  0  0  0
  143.0327  134.3478  152.5308 N   0  0  0  0  0  0  0  0  0  0  0  0
  143.2114  133.8116  151.2135 C   0  0  0  0  0  0  0  0  0  0  0  0
  143.7336  132.3889  151.0065 C   0  0  0  0  0  0  0  0  0  0  0  0
  144.4181  132.8405  149.6954 C   0  0  0  0  0  0  0  0  0  0  0  0
  145.8366  132.3000  149.4444 C   0  0  0  0  0  0  0  0  0  0  0  0
  146.6470  132.3750  150.5994 O   0  0  0  0  0  0  0  0  0  0  0  0
  143.5875  132.7062  148.4016 C   0  0  0  0  0  0  0  0  0  0  0  0
  143.4799  133.9338  147.7112 O   0  0  0  0  0  0  0  0  0  0  0  0
  144.3761  134.2521  150.3229 C   0  0  0  0  0  0  0  0  0  0  0  0
  145.2625  135.4633  157.9694 H   0  0  0  0  0  0  0  0  0  0  0  0
  144.9952  138.0716  158.3784 H   0  0  0  0  0  0  0  0  0  0  0  0
  141.0498  132.8185  159.9045 H   0  0  0  0  0  0  0  0  0  0  0  0
  142.7241  132.6049  160.4098 H   0  0  0  0  0  0  0  0  0  0  0  0
  142.1604  131.9092  158.8823 H   0  0  0  0  0  0  0  0  0  0  0  0
  144.3764  133.5805  159.1297 H   0  0  0  0  0  0  0  0  0  0  0  0
  143.8426  133.3713  157.4830 H   0  0  0  0  0  0  0  0  0  0  0  0
  142.7595  136.3304  159.4560 H   0  0  0  0  0  0  0  0  0  0  0  0
  144.4310  136.4242  160.0294 H   0  0  0  0  0  0  0  0  0  0  0  0
  142.5760  140.7766  158.8080 H   0  0  0  0  0  0  0  0  0  0  0  0
  142.7759  139.9274  157.2779 H   0  0  0  0  0  0  0  0  0  0  0  0
  144.1973  140.4304  158.2093 H   0  0  0  0  0  0  0  0  0  0  0  0
  142.4312  137.7021  156.8316 H   0  0  0  0  0  0  0  0  0  0  0  0
  144.0566  137.9736  156.2163 H   0  0  0  0  0  0  0  0  0  0  0  0
  147.0769  135.0808  154.3354 H   0  0  0  0  0  0  0  0  0  0  0  0
  140.8812  134.3211  152.7455 H   0  0  0  0  0  0  0  0  0  0  0  0
  142.2576  133.9488  150.7013 H   0  0  0  0  0  0  0  0  0  0  0  0
  144.4472  132.0906  151.7770 H   0  0  0  0  0  0  0  0  0  0  0  0
  142.9532  131.6366  150.8899 H   0  0  0  0  0  0  0  0  0  0  0  0
  145.8094  131.2661  149.0984 H   0  0  0  0  0  0  0  0  0  0  0  0
  146.3343  132.8714  148.6603 H   0  0  0  0  0  0  0  0  0  0  0  0
  147.3594  131.7607  150.5073 H   0  0  0  0  0  0  0  0  0  0  0  0
  144.0338  131.9841  147.7175 H   0  0  0  0  0  0  0  0  0  0  0  0
  142.5840  132.3375  148.6160 H   0  0  0  0  0  0  0  0  0  0  0  0
  144.3428  134.3155  147.6477 H   0  0  0  0  0  0  0  0  0  0  0  0
  144.1334  135.0579  149.6293 H   0  0  0  0  0  0  0  0  0  0  0  0
  145.2724  134.4918  150.8980 H   0  0  0  0  0  0  0  0  0  0  0  0
  1  2  1  0  0  0  0
  1 30  1  0  0  0  0
  1 31  1  0  0  0  0
  1 32  1  0  0  0  0
  2  3  1  0  0  0  0
  3  4  1  0  0  0  0
  3 33  1  0  0  0  0
  3 34  1  0  0  0  0
  4 28  1  0  0  0  0
  4 10  1  0  0  0  0
  4  5  1  0  0  0  0
  5  6  1  0  0  0  0
  5 35  1  0  0  0  0
  5 36  1  0  0  0  0
  6 29  1  0  0  0  0
  6  7  1  0  0  0  0
  6  9  1  0  0  0  0
  7  8  1  0  0  0  0
  8 37  1  0  0  0  0
  8 38  1  0  0  0  0
  8 39  1  0  0  0  0
  9 10  1  0  0  0  0
  9 40  1  0  0  0  0
  9 41  1  0  0  0  0
 10 11  1  0  0  0  0
 11 16  1  0  0  0  0
 11 12  2  0  0  0  0
 12 13  1  0  0  0  0
 13 14  2  0  0  0  0
 13 42  1  0  0  0  0
 14 15  1  0  0  0  0
 15 19  1  0  0  0  0
 15 16  2  0  0  0  0
 16 17  1  0  0  0  0
 17 18  2  0  0  0  0
 18 19  1  0  0  0  0
 18 43  1  0  0  0  0
 19 20  1  0  0  0  0
 20 27  1  0  0  0  0
 20 21  1  0  0  0  0
 20 44  1  0  0  0  0
 21 22  1  0  0  0  0
 21 45  1  0  0  0  0
 21 46  1  0  0  0  0
 22 23  1  0  0  0  0
 22 25  1  0  0  0  0
 22 27  1  0  0  0  0
 23 24  1  0  0  0  0
 23 47  1  0  0  0  0
 23 48  1  0  0  0  0
 24 49  1  0  0  0  0
 25 26  1  0  0  0  0
 25 50  1  0  0  0  0
 25 51  1  0  0  0  0
 26 52  1  0  0  0  0
 27 53  1  0  0  0  0
 27 54  1  0  0  0  0
M  END
> <s_m_source_file>
AV-unprocessed.smi

> <i_m_source_file_index>
241

> <i_lp_mmshare_version>
43012

> <i_f3d_flags>
0

> <s_epik_input>
W0NIM11PW0NIMl1bQ0BASF0xW0NIMl1bQ0BASF0oT1tDSDNdKVtDSDJdTjFjKG5bY0hdbjIpYyhjMjMpbltjSF1uM1tDSF0oW0NIMl00KVtDSDJdQzQoW0NIMl1bT0hdKVtDSDJdW09IXQ==

> <s_epik_cmdline>
J2VwaWtfcHl0aG9uJywgJy1waCcsICc3LjAnLCAnLXRuJywgJzgnLCAnLW1hJywgJzIwMCcsICctbWV0YWxfYmluZGluZycsICctaW1hZScsICc8aW5maWxlLm1hZT4nLCAnLW9tYWUnLCAnPG91dGZpbGUubWFlPic=

> <r_lp_tautomer_probability>
1

> <r_epik_Ionization_Penalty>
0.00568677

> <r_epik_Ionization_Penalty_Charging>
0

> <r_epik_Ionization_Penalty_Neutral>
0.00568677

> <r_epik_State_Penalty>
0.00400877

> <r_epik_Charging_Adjusted_Penalty>
0.00400877

> <i_epik_Tot_Q>
0

> <i_epik_Tot_abs_Q>
0

> <r_epik_Metal_State_Penalty>
-0

> <b_epik_Metal_Only>
0

> <s_lp_Force_Field>
OPLS_2005

> <r_lp_Energy>
58.6567

> <b_lp_Chiralities_Consistent>
1

> <s_lp_Variant>
AV-unprocessed.smi:241-3

> <Gold.Version>
5.8.1

> <Gold.Id.Protein>
6NUR|6NUR_protein|mol2

> <Gold.PLP.Fitness>
44.5221

> <Gold.PLP.PLP>
-35.7602

> <Gold.PLP.part.hbond>
-6.7093

> <Gold.PLP.part.metal>
0.0000

> <Gold.PLP.part.buried>
-4.3788

> <Gold.PLP.part.nonpolar>
-25.8199

> <Gold.PLP.part.repulsive>
0.2250

> <Gold.PLP.ligand.clash>
0.0000

> <Gold.PLP.ligand.torsion>
2.1568

> <Gold.PLP.Chemscore.Hbond>
4.0000

> <Gold.PLP.Chemscore.CHOScore>
0.0690

> <Gold.PLP.Chemscore.Metal>
0.0000

> <Gold.Chemscore.Hbonds>
donor molecule, donor type, donor heavy atom, donor atom, acceptor molecule, acceptor atom, score
      L1  H    24    49       P1 10747  1.00
      L1  H    26    52       P1  7921  1.00
      P1  H 10192 10197       L1    26  1.00
      P1  H 11000 11005       L1     2  0.81
      L1  C    18    43       P1 10187  0.08

> <Gold.PLP.Chemscore.Internal.Correction>
0.8685

> <Gold.Rescore>
     Score         DG    S(hbond)    S(metal)    S(lipo)     H(rot)  DE(clash)    DE(int)     intcor
     12.74     -16.10       3.69        0.00      72.28       3.97       1.34       2.02       ----

> <Gold.Chemscore.Fitness>
12.7432

> <Gold.Chemscore.DG>
-16.1030

> <Gold.Chemscore.ZeroCoef>
-5.4800

> <Gold.Chemscore.Hbond>
3.6937

> <Gold.Chemscore.Metal>
0.0000

> <Gold.Chemscore.Lipo>
72.2757

> <Gold.Chemscore.Internal_Hbond>
0.0000

> <Gold.Chemscore.DEClash>
1.3380

> <Gold.Chemscore.DEInternal>
2.0218

> <Gold.Chemscore.Rot>
3.9727

> <Gold.Chemscore.Internal.Correction>
   9.000000E+99

> <Gold.Chemscore.Hbonds>
donor molecule, donor type, donor heavy atom, donor atom, acceptor molecule, acceptor atom, score
      L1  H    24    49       P1 10747  1.00
      L1  H    26    52       P1  7921  1.00
      P1  H 10192 10197       L1    26  0.86
      P1  H 11000 11005       L1     2  0.36

> <Gold.Chemscore.Hbond.Weighted>
-12.3370

> <Gold.Chemscore.Metal.Weighted>
-0.0000

> <Gold.Chemscore.Lipo.Weighted>
-8.4563

> <Gold.Chemscore.Internal_Hbond.Weighted>
0.0000

> <Gold.Chemscore.DEClash.Weighted>
1.3380

> <Gold.Chemscore.DEInternal.Weighted>
2.0218

> <Gold.Chemscore.Rot.Weighted>
10.1702

> <Gold.Chemscore.Internal.Correction.Weighted>
   9.000000E+99

> <Gold.Protein.RotatedTorsions>
[ 6907 6896 6895 6894 ] final  -99.07 input  -60.11 | X-H torsion
[ 7974 7965 7964 7962 ] final   18.38 input  175.53 | X-H torsion
[ 8008 7997 7996 7995 ] final  152.60 input   59.86 | X-H torsion
[ 10167 10162 10161 10158 ] final   20.66 input  -65.29 | X-H torsion
[ 10718 10713 10712 10709 ] final  127.77 input   66.30 | X-H torsion
[ 10763 10752 10751 10750 ] final   18.00 input  -60.55 | X-H torsion
[ 11005 11000 10999 10996 ] final -148.02 input  -57.11 | X-H torsion

> <Gold.Protein.ActiveResidues>
 VAL166  LYS551  ARG553  GLY616  TRP617  ASP618  TYR619  PRO620  LYS621  CYS622 
 ASP623  PHE694  ASN695  SER759  ASP760  ASP761  ALA762  ILE779  LEU786  VAL792 
 PHE793  MET794  SER795  GLU796  ALA797  LYS798  CYS799  TRP800  GLU811  SER814 

> <Gold.Protein.RotatedAtoms>
  150.7067  134.1097  159.3995 H   0  0  0  0  0  0  0  0  0  0  0  0  # atno 6907 bound_to 6896
  151.9084  135.0347  160.0521 H   0  0  0  0  0  0  0  0  0  0  0  0  # atno 6908 bound_to 6896
  152.2356  133.5058  159.5277 H   0  0  0  0  0  0  0  0  0  0  0  0  # atno 6909 bound_to 6896
  146.2187  139.8465  142.8631 H   0  0  0  0  0  0  0  0  0  0  0  0  # atno 7974 bound_to 7965
  156.2621  140.2016  156.6359 H   0  0  0  0  0  0  0  0  0  0  0  0  # atno 8008 bound_to 7997
  154.6647  140.0557  157.0125 H   0  0  0  0  0  0  0  0  0  0  0  0  # atno 8009 bound_to 7997
  155.1224  140.3226  155.4497 H   0  0  0  0  0  0  0  0  0  0  0  0  # atno 8010 bound_to 7997
  140.5486  143.9549  150.6564 H   0  0  0  0  0  0  0  0  0  0  0  0  # atno 10167 bound_to 10162
  157.5304  131.1098  150.9018 H   0  0  0  0  0  0  0  0  0  0  0  0  # atno 10718 bound_to 10713
  153.1288  135.6735  153.9212 H   0  0  0  0  0  0  0  0  0  0  0  0  # atno 10763 bound_to 10752
  153.8705  135.3070  155.3443 H   0  0  0  0  0  0  0  0  0  0  0  0  # atno 10764 bound_to 10752
  154.7689  135.4950  153.9690 H   0  0  0  0  0  0  0  0  0  0  0  0  # atno 10765 bound_to 10752
  140.7656  134.3248  157.5089 H   0  0  0  0  0  0  0  0  0  0  0  0  # atno 11005 bound_to 11000
  145.2845  141.0149  143.3698 LP  0  0  0  0  0  0  0  0  0  0  0  0  # atno 17320 bound_to 7965
  144.9124  139.4512  143.6580 LP  0  0  0  0  0  0  0  0  0  0  0  0  # atno 17321 bound_to 7965
  140.2969  143.3286  152.1009 LP  0  0  0  0  0  0  0  0  0  0  0  0  # atno 17342 bound_to 10162
  139.5018  144.6721  151.6218 LP  0  0  0  0  0  0  0  0  0  0  0  0  # atno 17343 bound_to 10162
  156.9601  130.5452  149.5285 LP  0  0  0  0  0  0  0  0  0  0  0  0  # atno 17370 bound_to 10713
  156.0418  130.5500  150.8789 LP  0  0  0  0  0  0  0  0  0  0  0  0  # atno 17371 bound_to 10713
  139.8764  134.9229  156.3312 LP  0  0  0  0  0  0  0  0  0  0  0  0  # atno 17394 bound_to 11000
  140.9622  133.7381  156.0417 LP  0  0  0  0  0  0  0  0  0  0  0  0  # atno 17395 bound_to 11000

$$$$
