AV-unprocessed.smi:2113|AV-procd|sdf|8615|dock1
  -GOLD-   2272011353D 1   1.00000     0.00000
 Structure written by MMmdl.
 44 45  0  0  0  0  0  0  0  0  1 V2000
  148.2104  132.8548  152.8793 C   0  0  0  0  0  0  0  0  0  0  0  0
  148.6116  133.2259  154.3083 C   0  0  0  0  0  0  0  0  0  0  0  0
  149.5836  134.2644  154.2566 O   0  0  0  0  0  0  0  0  0  0  0  0
  149.5918  135.1579  155.3684 C   0  0  2  0  0  0  0  0  0  0  0  0
  148.1675  135.7083  155.5308 C   0  0  0  0  0  0  0  0  0  0  0  0
  150.6065  136.2888  155.1371 C   0  0  0  0  0  0  0  0  0  0  0  0
  151.5765  136.4161  155.8849 O   0  0  0  0  0  0  0  0  0  0  0  0
  150.3498  137.1221  154.1168 N   0  0  0  0  0  0  0  0  0  0  0  0
  151.1270  138.3160  153.8040 C   0  0  0  0  0  0  0  0  0  0  0  0
  151.3311  139.2228  155.0069 C   0  0  0  0  0  0  0  0  0  0  0  0
  150.3852  140.2100  155.3489 C   0  0  0  0  0  0  0  0  0  0  0  0
  150.6114  141.0082  156.4858 C   0  0  0  0  0  0  0  0  0  0  0  0
  151.7823  140.8004  157.2533 C   0  0  0  0  0  0  0  0  0  0  0  0
  152.0198  141.5772  158.4082 N   0  0  0  0  0  0  0  0  0  0  0  0
  152.0169  143.0322  158.2665 C   0  0  0  0  0  0  0  0  0  0  0  0
  152.0162  143.7058  159.6490 C   0  0  0  0  0  0  0  0  0  0  0  0
  153.1205  143.2329  160.4129 O   0  0  0  0  0  0  0  0  0  0  0  0
  153.0469  141.8286  160.6342 C   0  0  0  0  0  0  0  0  0  0  0  0
  153.0778  141.0850  159.2877 C   0  0  0  0  0  0  0  0  0  0  0  0
  152.6995  139.8626  156.9080 N   0  0  0  0  0  0  0  0  0  0  0  0
  152.4766  139.0983  155.8179 C   0  0  0  0  0  0  0  0  0  0  0  0
  147.4614  132.0628  152.8785 H   0  0  0  0  0  0  0  0  0  0  0  0
  149.0718  132.5013  152.3119 H   0  0  0  0  0  0  0  0  0  0  0  0
  147.7912  133.7132  152.3541 H   0  0  0  0  0  0  0  0  0  0  0  0
  147.7345  133.5595  154.8645 H   0  0  0  0  0  0  0  0  0  0  0  0
  149.0054  132.3427  154.8109 H   0  0  0  0  0  0  0  0  0  0  0  0
  149.8523  134.6057  156.2736 H   0  0  0  0  0  0  0  0  0  0  0  0
  148.1060  136.4110  156.3626 H   0  0  0  0  0  0  0  0  0  0  0  0
  147.4625  134.9009  155.7297 H   0  0  0  0  0  0  0  0  0  0  0  0
  147.8304  136.2236  154.6303 H   0  0  0  0  0  0  0  0  0  0  0  0
  149.5334  136.9441  153.5500 H   0  0  0  0  0  0  0  0  0  0  0  0
  152.0893  138.0330  153.3739 H   0  0  0  0  0  0  0  0  0  0  0  0
  150.5975  138.8782  153.0345 H   0  0  0  0  0  0  0  0  0  0  0  0
  149.4954  140.3538  154.7535 H   0  0  0  0  0  0  0  0  0  0  0  0
  149.8940  141.7713  156.7480 H   0  0  0  0  0  0  0  0  0  0  0  0
  152.8970  143.3426  157.7015 H   0  0  0  0  0  0  0  0  0  0  0  0
  151.1383  143.3555  157.7069 H   0  0  0  0  0  0  0  0  0  0  0  0
  152.0967  144.7872  159.5399 H   0  0  0  0  0  0  0  0  0  0  0  0
  151.0825  143.5074  160.1778 H   0  0  0  0  0  0  0  0  0  0  0  0
  153.8924  141.5222  161.2500 H   0  0  0  0  0  0  0  0  0  0  0  0
  152.1416  141.5843  161.1921 H   0  0  0  0  0  0  0  0  0  0  0  0
  152.9854  140.0158  159.4730 H   0  0  0  0  0  0  0  0  0  0  0  0
  154.0409  141.2397  158.7991 H   0  0  0  0  0  0  0  0  0  0  0  0
  153.2328  138.3600  155.5943 H   0  0  0  0  0  0  0  0  0  0  0  0
  1  2  1  0  0  0  0
  1 22  1  0  0  0  0
  1 23  1  0  0  0  0
  1 24  1  0  0  0  0
  2  3  1  0  0  0  0
  2 25  1  0  0  0  0
  2 26  1  0  0  0  0
  3  4  1  0  0  0  0
  4  5  1  0  0  0  0
  4  6  1  0  0  0  0
  4 27  1  0  0  0  0
  5 28  1  0  0  0  0
  5 29  1  0  0  0  0
  5 30  1  0  0  0  0
  6  7  2  0  0  0  0
  6  8  1  0  0  0  0
  8  9  1  0  0  0  0
  8 31  1  0  0  0  0
  9 10  1  0  0  0  0
  9 32  1  0  0  0  0
  9 33  1  0  0  0  0
 10 21  1  0  0  0  0
 10 11  2  0  0  0  0
 11 12  1  0  0  0  0
 11 34  1  0  0  0  0
 12 13  2  0  0  0  0
 12 35  1  0  0  0  0
 13 14  1  0  0  0  0
 13 20  1  0  0  0  0
 14 19  1  0  0  0  0
 14 15  1  0  0  0  0
 15 16  1  0  0  0  0
 15 36  1  0  0  0  0
 15 37  1  0  0  0  0
 16 17  1  0  0  0  0
 16 38  1  0  0  0  0
 16 39  1  0  0  0  0
 17 18  1  0  0  0  0
 18 19  1  0  0  0  0
 18 40  1  0  0  0  0
 18 41  1  0  0  0  0
 19 42  1  0  0  0  0
 19 43  1  0  0  0  0
 20 21  2  0  0  0  0
 21 44  1  0  0  0  0
M  END
> <s_m_source_file>
AV-unprocessed.smi

> <i_m_source_file_index>
2113

> <i_lp_mmshare_version>
43012

> <i_f3d_flags>
0

> <s_epik_input>
W0NIM11bQ0gyXU9bQ0BIXShbQ0gzXSlDKD1PKVtOSF1bQ0gyXWMxW2NIXVtjSF1jKG5bY0hdMSlOMltDSDJdW0NIMl1PW0NIMl1bQ0gyXTI=

> <s_epik_cmdline>
J2VwaWtfcHl0aG9uJywgJy1waCcsICc3LjAnLCAnLXRuJywgJzgnLCAnLW1hJywgJzIwMCcsICctbWV0YWxfYmluZGluZycsICctaW1hZScsICc8aW5maWxlLm1hZT4nLCAnLW9tYWUnLCAnPG91dGZpbGUubWFlPic=

> <r_lp_tautomer_probability>
1

> <r_epik_Ionization_Penalty>
0.00454344

> <r_epik_Ionization_Penalty_Charging>
0

> <r_epik_Ionization_Penalty_Neutral>
0.00454344

> <r_epik_State_Penalty>
0.00328127

> <r_epik_Charging_Adjusted_Penalty>
0.00328127

> <i_epik_Tot_Q>
0

> <i_epik_Tot_abs_Q>
0

> <r_epik_Metal_State_Penalty>
-0

> <b_epik_Metal_Only>
0

> <s_lp_Force_Field>
OPLS_2005

> <r_lp_Energy>
17.3889

> <b_lp_Chiralities_Consistent>
1

> <s_lp_Variant>
AV-unprocessed.smi:2113-1

> <Gold.Version>
5.8.1

> <Gold.Id.Protein>
6NUR|6NUR_protein|mol2

> <Gold.PLP.Fitness>
47.5832

> <Gold.PLP.PLP>
-40.0691

> <Gold.PLP.part.hbond>
-4.0000

> <Gold.PLP.part.metal>
0.0000

> <Gold.PLP.part.buried>
-2.4233

> <Gold.PLP.part.nonpolar>
-32.2784

> <Gold.PLP.part.repulsive>
0.2670

> <Gold.PLP.ligand.clash>
0.0000

> <Gold.PLP.ligand.torsion>
0.8233

> <Gold.PLP.Chemscore.Hbond>
2.8640

> <Gold.PLP.Chemscore.CHOScore>
0.0000

> <Gold.PLP.Chemscore.Metal>
0.0000

> <Gold.Chemscore.Hbonds>
donor molecule, donor type, donor heavy atom, donor atom, acceptor molecule, acceptor atom, score
      L1  H     8    31       P1  7948  0.83
      P1  H  7997  8008       L1    20  1.00
      P1  H 10752 10764       L1     7  1.00

> <Gold.PLP.Chemscore.Internal.Correction>
0.5687

> <Gold.Rescore>
     Score         DG    S(hbond)    S(metal)    S(lipo)     H(rot)  DE(clash)    DE(int)     intcor
     16.97     -17.75       1.90        0.00      92.07       1.90       0.02       0.76       ----

> <Gold.Chemscore.Fitness>
16.9692

> <Gold.Chemscore.DG>
-17.7458

> <Gold.Chemscore.ZeroCoef>
-5.4800

> <Gold.Chemscore.Hbond>
1.8997

> <Gold.Chemscore.Metal>
0.0000

> <Gold.Chemscore.Lipo>
92.0709

> <Gold.Chemscore.Internal_Hbond>
0.0000

> <Gold.Chemscore.DEClash>
0.0195

> <Gold.Chemscore.DEInternal>
0.7571

> <Gold.Chemscore.Rot>
1.8952

> <Gold.Chemscore.Internal.Correction>
   9.000000E+99

> <Gold.Chemscore.Hbonds>
donor molecule, donor type, donor heavy atom, donor atom, acceptor molecule, acceptor atom, score
      L1  H     8    31       P1  7948  0.71
      P1  H  7997  8008       L1    20  0.29
      P1  H 10752 10764       L1     7  0.58

> <Gold.Chemscore.Hbond.Weighted>
-6.3452

> <Gold.Chemscore.Metal.Weighted>
-0.0000

> <Gold.Chemscore.Lipo.Weighted>
-10.7723

> <Gold.Chemscore.Internal_Hbond.Weighted>
0.0000

> <Gold.Chemscore.DEClash.Weighted>
0.0195

> <Gold.Chemscore.DEInternal.Weighted>
0.7571

> <Gold.Chemscore.Rot.Weighted>
4.8516

> <Gold.Chemscore.Internal.Correction.Weighted>
   9.000000E+99

> <Gold.Protein.RotatedTorsions>
[ 6907 6896 6895 6894 ] final  -78.52 input  -60.11 | X-H torsion
[ 7974 7965 7964 7962 ] final  -87.87 input  175.53 | X-H torsion
[ 8008 7997 7996 7995 ] final  -72.00 input   59.86 | X-H torsion
[ 10167 10162 10161 10158 ] final  -55.90 input  -65.29 | X-H torsion
[ 10718 10713 10712 10709 ] final  179.55 input   66.30 | X-H torsion
[ 10763 10752 10751 10750 ] final  -32.55 input  -60.55 | X-H torsion
[ 11005 11000 10999 10996 ] final   41.19 input  -57.11 | X-H torsion

> <Gold.Protein.ActiveResidues>
 VAL166  LYS551  ARG553  GLY616  TRP617  ASP618  TYR619  PRO620  LYS621  CYS622 
 ASP623  PHE694  ASN695  SER759  ASP760  ASP761  ALA762  ILE779  LEU786  VAL792 
 PHE793  MET794  SER795  GLU796  ALA797  LYS798  CYS799  TRP800  GLU811  SER814 

> <Gold.Protein.RotatedAtoms>
  150.6971  134.4260  159.5226 H   0  0  0  0  0  0  0  0  0  0  0  0  # atno 6907 bound_to 6896
  152.1995  134.8598  160.0518 H   0  0  0  0  0  0  0  0  0  0  0  0  # atno 6908 bound_to 6896
  151.9523  133.3635  159.4041 H   0  0  0  0  0  0  0  0  0  0  0  0  # atno 6909 bound_to 6896
  145.4607  140.9561  143.1971 H   0  0  0  0  0  0  0  0  0  0  0  0  # atno 7974 bound_to 7965
  154.5131  140.0805  156.8029 H   0  0  0  0  0  0  0  0  0  0  0  0  # atno 8008 bound_to 7997
  155.3740  140.3424  155.4226 H   0  0  0  0  0  0  0  0  0  0  0  0  # atno 8009 bound_to 7997
  156.1597  140.1584  156.8621 H   0  0  0  0  0  0  0  0  0  0  0  0  # atno 8010 bound_to 7997
  140.6348  143.2477  151.5146 H   0  0  0  0  0  0  0  0  0  0  0  0  # atno 10167 bound_to 10162
  156.8740  130.9793  151.3070 H   0  0  0  0  0  0  0  0  0  0  0  0  # atno 10718 bound_to 10713
  153.8157  135.6878  153.4834 H   0  0  0  0  0  0  0  0  0  0  0  0  # atno 10763 bound_to 10752
  153.1600  135.4583  154.9757 H   0  0  0  0  0  0  0  0  0  0  0  0  # atno 10764 bound_to 10752
  154.7949  135.3315  154.7633 H   0  0  0  0  0  0  0  0  0  0  0  0  # atno 10765 bound_to 10752
  140.1858  134.4047  155.8174 H   0  0  0  0  0  0  0  0  0  0  0  0  # atno 11005 bound_to 11000
  144.8004  139.6151  143.7074 LP  0  0  0  0  0  0  0  0  0  0  0  0  # atno 17320 bound_to 7965
  146.2453  139.6084  142.9464 LP  0  0  0  0  0  0  0  0  0  0  0  0  # atno 17321 bound_to 7965
  139.5559  144.2276  152.1612 LP  0  0  0  0  0  0  0  0  0  0  0  0  # atno 17342 bound_to 10162
  140.1529  144.5097  150.6677 LP  0  0  0  0  0  0  0  0  0  0  0  0  # atno 17343 bound_to 10162
  157.6179  130.8632  149.9059 LP  0  0  0  0  0  0  0  0  0  0  0  0  # atno 17370 bound_to 10713
  156.0711  130.3685  150.0773 LP  0  0  0  0  0  0  0  0  0  0  0  0  # atno 17371 bound_to 10713
  141.2225  133.7022  156.8010 LP  0  0  0  0  0  0  0  0  0  0  0  0  # atno 17394 bound_to 11000
  140.2215  134.8753  157.3382 LP  0  0  0  0  0  0  0  0  0  0  0  0  # atno 17395 bound_to 11000

$$$$
