AV-unprocessed.smi:1726|AV-procd|sdf|6962|dock4
  -GOLD-   22720 8173D 1   1.00000     0.00000
 Structure written by MMmdl.
 42 43  0  0  0  0  0  0  0  0  3 V2000
  146.8039  139.0006  152.5511 C   0  0  0  0  0  0  0  0  0  0  0  0
  146.3041  138.0955  151.4154 C   0  0  0  0  0  0  0  0  0  0  0  0
  146.2629  136.6662  151.8122 N   0  3  2  0  0  0  0  0  0  0  0  0
  145.5803  135.8139  150.8041 C   0  0  0  0  0  0  0  0  0  0  0  0
  145.6952  134.3228  151.1670 C   0  0  0  0  0  0  0  0  0  0  0  0
  145.1793  134.0474  152.5899 C   0  0  0  0  0  0  0  0  0  0  0  0
  145.8561  134.9781  153.6123 C   0  0  1  0  0  0  0  0  0  0  0  0
  147.2648  134.6112  153.7640 N   0  0  0  0  0  0  0  0  0  0  0  0
  147.7441  133.7106  154.6341 C   0  0  0  0  0  0  0  0  0  0  0  0
  147.0263  133.0797  155.4091 O   0  0  0  0  0  0  0  0  0  0  0  0
  149.0812  133.6094  154.5289 N   0  0  0  0  0  0  0  0  0  0  0  0
  149.9852  132.8341  155.2757 C   0  0  0  0  0  0  0  0  0  0  0  0
  150.3816  131.5699  154.9575 C   0  0  0  0  0  0  0  0  0  0  0  0
  151.3143  130.8149  155.7855 C   0  0  0  0  0  0  0  0  0  0  0  0
  151.7977  129.4109  155.4705 C   0  0  0  0  0  0  0  0  0  0  0  0
  151.5741  128.6035  156.5069 F   0  0  0  0  0  0  0  0  0  0  0  0
  151.1411  128.9228  154.4186 F   0  0  0  0  0  0  0  0  0  0  0  0
  153.1024  129.3937  155.1971 F   0  0  0  0  0  0  0  0  0  0  0  0
  151.7190  131.5212  156.9003 C   0  0  0  0  0  0  0  0  0  0  0  0
  151.3683  132.7655  157.2922 N   0  5  0  0  0  0  0  0  0  0  0  0
  150.4995  133.4650  156.5093 C   0  0  0  0  0  0  0  0  0  0  0  0
  150.1359  134.6030  156.8087 O   0  0  0  0  0  0  0  0  0  0  0  0
  145.6923  136.4486  153.1679 C   0  0  0  0  0  0  0  0  0  0  0  0
  146.8955  140.0313  152.2075 H   0  0  0  0  0  0  0  0  0  0  0  0
  147.7854  138.6829  152.9045 H   0  0  0  0  0  0  0  0  0  0  0  0
  146.1259  139.0045  153.4039 H   0  0  0  0  0  0  0  0  0  0  0  0
  145.3221  138.4177  151.0663 H   0  0  0  0  0  0  0  0  0  0  0  0
  146.9860  138.2165  150.5727 H   0  0  0  0  0  0  0  0  0  0  0  0
  144.5309  136.1047  150.7314 H   0  0  0  0  0  0  0  0  0  0  0  0
  146.0228  135.9759  149.8204 H   0  0  0  0  0  0  0  0  0  0  0  0
  145.1376  133.7219  150.4481 H   0  0  0  0  0  0  0  0  0  0  0  0
  146.7362  134.0080  151.0849 H   0  0  0  0  0  0  0  0  0  0  0  0
  144.1003  134.2056  152.6174 H   0  0  0  0  0  0  0  0  0  0  0  0
  145.3417  133.0022  152.8561 H   0  0  0  0  0  0  0  0  0  0  0  0
  145.3663  134.8410  154.5780 H   0  0  0  0  0  0  0  0  0  0  0  0
  147.9234  135.0715  153.1524 H   0  0  0  0  0  0  0  0  0  0  0  0
  149.5159  134.1528  153.7973 H   0  0  0  0  0  0  0  0  0  0  0  0
  150.0024  131.0745  154.0801 H   0  0  0  0  0  0  0  0  0  0  0  0
  152.4330  131.0060  157.5780 H   0  0  0  0  0  0  0  0  0  0  0  0
  146.1681  137.1078  153.8925 H   0  0  0  0  0  0  0  0  0  0  0  0
  144.6352  136.7201  153.1629 H   0  0  0  0  0  0  0  0  0  0  0  0
  147.2227  136.3531  151.8439 H   0  0  0  0  0  0  0  0  0  0  0  0
  1  2  1  0  0  0  0
  1 24  1  0  0  0  0
  1 25  1  0  0  0  0
  1 26  1  0  0  0  0
  2  3  1  0  0  0  0
  2 27  1  0  0  0  0
  2 28  1  0  0  0  0
  3 23  1  0  0  0  0
  3  4  1  0  0  0  0
  3 42  1  0  0  0  0
  4  5  1  0  0  0  0
  4 29  1  0  0  0  0
  4 30  1  0  0  0  0
  5  6  1  0  0  0  0
  5 31  1  0  0  0  0
  5 32  1  0  0  0  0
  6  7  1  0  0  0  0
  6 33  1  0  0  0  0
  6 34  1  0  0  0  0
  7  8  1  0  0  0  0
  7 23  1  0  0  0  0
  7 35  1  0  0  0  0
  8  9  1  0  0  0  0
  8 36  1  0  0  0  0
  9 10  2  0  0  0  0
  9 11  1  0  0  0  0
 11 12  1  0  0  0  0
 11 37  1  0  0  0  0
 12 21  1  0  0  0  0
 12 13  2  0  0  0  0
 13 14  1  0  0  0  0
 13 38  1  0  0  0  0
 14 15  1  0  0  0  0
 14 19  2  0  0  0  0
 15 16  1  0  0  0  0
 15 17  1  0  0  0  0
 15 18  1  0  0  0  0
 19 20  1  0  0  0  0
 19 39  1  0  0  0  0
 20 21  1  0  0  0  0
 21 22  2  0  0  0  0
 23 40  1  0  0  0  0
 23 41  1  0  0  0  0
M  CHG  1   3   1
M  CHG  1  20  -1
M  END
> <s_m_source_file>
AV-unprocessed.smi

> <i_m_source_file_index>
1726

> <i_lp_mmshare_version>
43012

> <i_f3d_flags>
0

> <s_epik_input>
W0NIM11bQ0gyXU4xW0NIMl1bQ0gyXVtDSDJdW0NASF0oW0NIMl0xKVtOSF1DKD1PKVtOSF1jMltjSF1jKEMoRikoRilGKVtjSF1bbkhdYzI9Tw==

> <s_epik_cmdline>
J2VwaWtfcHl0aG9uJywgJy1waCcsICc3LjAnLCAnLXRuJywgJzgnLCAnLW1hJywgJzIwMCcsICctbWV0YWxfYmluZGluZycsICctaW1hZScsICc8aW5maWxlLm1hZT4nLCAnLW9tYWUnLCAnPG91dGZpbGUubWFlPic=

> <r_lp_tautomer_probability>
1

> <r_epik_Ionization_Penalty>
3.01007

> <r_epik_Ionization_Penalty_Charging>
0.14897

> <r_epik_Ionization_Penalty_Neutral>
2.8611

> <r_epik_State_Penalty>
2.85632

> <r_epik_Charging_Adjusted_Penalty>
3.00529

> <i_epik_Tot_Q>
0

> <i_epik_Tot_abs_Q>
2

> <r_epik_Metal_State_Penalty>
0.443826

> <b_epik_Metal_Only>
1

> <s_lp_Force_Field>
OPLS_2005

> <r_lp_Energy>
34.8935

> <b_lp_Chiralities_Consistent>
1

> <s_lp_Variant>
AV-unprocessed.smi:1726-6

> <Gold.Version>
5.8.1

> <Gold.Id.Protein>
6NUR|6NUR_protein|mol2

> <Gold.PLP.Fitness>
44.3088

> <Gold.PLP.PLP>
-31.9003

> <Gold.PLP.part.hbond>
-3.0000

> <Gold.PLP.part.metal>
0.0000

> <Gold.PLP.part.buried>
-1.2163

> <Gold.PLP.part.nonpolar>
-29.1763

> <Gold.PLP.part.repulsive>
0.0790

> <Gold.PLP.ligand.clash>
0.0000

> <Gold.PLP.ligand.torsion>
1.3210

> <Gold.PLP.Chemscore.Hbond>
5.0000

> <Gold.PLP.Chemscore.CHOScore>
0.0000

> <Gold.PLP.Chemscore.Metal>
0.0000

> <Gold.Chemscore.Hbonds>
donor molecule, donor type, donor heavy atom, donor atom, acceptor molecule, acceptor atom, score
      L1  H     3    42       P1  7948  2.00
      L1  H     8    36       P1  7948  1.00
      P1  H  6896  6907       L1    20  2.00

> <Gold.PLP.Chemscore.Internal.Correction>
0.0506

> <Gold.Rescore>
     Score         DG    S(hbond)    S(metal)    S(lipo)     H(rot)  DE(clash)    DE(int)     intcor
     18.63     -19.92       2.93        0.00      67.88       1.28       0.14       1.16       ----

> <Gold.Chemscore.Fitness>
18.6305

> <Gold.Chemscore.DG>
-19.9226

> <Gold.Chemscore.ZeroCoef>
-5.4800

> <Gold.Chemscore.Hbond>
2.9271

> <Gold.Chemscore.Metal>
0.0000

> <Gold.Chemscore.Lipo>
67.8808

> <Gold.Chemscore.Internal_Hbond>
0.0000

> <Gold.Chemscore.DEClash>
0.1370

> <Gold.Chemscore.DEInternal>
1.1552

> <Gold.Chemscore.Rot>
1.2796

> <Gold.Chemscore.Internal.Correction>
   9.000000E+99

> <Gold.Chemscore.Hbonds>
donor molecule, donor type, donor heavy atom, donor atom, acceptor molecule, acceptor atom, score
      L1  H     3    42       P1  7948  1.00
      L1  H     8    36       P1  7948  0.96
      P1  H  6896  6907       L1    20  0.77

> <Gold.Chemscore.Hbond.Weighted>
-9.7764

> <Gold.Chemscore.Metal.Weighted>
-0.0000

> <Gold.Chemscore.Lipo.Weighted>
-7.9421

> <Gold.Chemscore.Internal_Hbond.Weighted>
0.0000

> <Gold.Chemscore.DEClash.Weighted>
0.1370

> <Gold.Chemscore.DEInternal.Weighted>
1.1552

> <Gold.Chemscore.Rot.Weighted>
3.2759

> <Gold.Chemscore.Internal.Correction.Weighted>
   9.000000E+99

> <Gold.Protein.RotatedTorsions>
[ 6907 6896 6895 6894 ] final -159.96 input  -60.11 | X-H torsion
[ 7974 7965 7964 7962 ] final  115.06 input  175.53 | X-H torsion
[ 8008 7997 7996 7995 ] final   92.20 input   59.86 | X-H torsion
[ 10167 10162 10161 10158 ] final  -82.17 input  -65.29 | X-H torsion
[ 10718 10713 10712 10709 ] final  -89.80 input   66.30 | X-H torsion
[ 10763 10752 10751 10750 ] final   92.73 input  -60.55 | X-H torsion
[ 11005 11000 10999 10996 ] final   76.49 input  -57.11 | X-H torsion

> <Gold.Protein.ActiveResidues>
 VAL166  LYS551  ARG553  GLY616  TRP617  ASP618  TYR619  PRO620  LYS621  CYS622 
 ASP623  PHE694  ASN695  SER759  ASP760  ASP761  ALA762  ILE779  LEU786  VAL792 
 PHE793  MET794  SER795  GLU796  ALA797  LYS798  CYS799  TRP800  GLU811  SER814 

> <Gold.Protein.RotatedAtoms>
  151.3416  133.3960  159.2671 H   0  0  0  0  0  0  0  0  0  0  0  0  # atno 6907 bound_to 6896
  150.9873  134.9216  159.7889 H   0  0  0  0  0  0  0  0  0  0  0  0  # atno 6908 bound_to 6896
  152.5236  134.3381  159.9259 H   0  0  0  0  0  0  0  0  0  0  0  0  # atno 6909 bound_to 6896
  145.1967  139.2973  143.4340 H   0  0  0  0  0  0  0  0  0  0  0  0  # atno 7974 bound_to 7965
  156.0327  140.3328  155.7157 H   0  0  0  0  0  0  0  0  0  0  0  0  # atno 8008 bound_to 7997
  155.5862  140.0641  157.2788 H   0  0  0  0  0  0  0  0  0  0  0  0  # atno 8009 bound_to 7997
  154.4359  140.1835  156.1015 H   0  0  0  0  0  0  0  0  0  0  0  0  # atno 8010 bound_to 7997
  140.4345  143.2536  151.8713 H   0  0  0  0  0  0  0  0  0  0  0  0  # atno 10167 bound_to 10162
  155.9985  130.4886  150.5226 H   0  0  0  0  0  0  0  0  0  0  0  0  # atno 10718 bound_to 10713
  153.2224  135.4351  155.0504 H   0  0  0  0  0  0  0  0  0  0  0  0  # atno 10763 bound_to 10752
  154.8256  135.3359  154.6908 H   0  0  0  0  0  0  0  0  0  0  0  0  # atno 10764 bound_to 10752
  153.7339  135.7009  153.5039 H   0  0  0  0  0  0  0  0  0  0  0  0  # atno 10765 bound_to 10752
  139.9296  134.7605  156.1402 H   0  0  0  0  0  0  0  0  0  0  0  0  # atno 11005 bound_to 11000
  146.3426  140.2198  142.8591 LP  0  0  0  0  0  0  0  0  0  0  0  0  # atno 17320 bound_to 7965
  144.9988  140.8613  143.5294 LP  0  0  0  0  0  0  0  0  0  0  0  0  # atno 17321 bound_to 7965
  139.4786  144.5298  151.8683 LP  0  0  0  0  0  0  0  0  0  0  0  0  # atno 17342 bound_to 10162
  140.4389  144.2013  150.5890 LP  0  0  0  0  0  0  0  0  0  0  0  0  # atno 17343 bound_to 10162
  157.3185  131.0677  151.1949 LP  0  0  0  0  0  0  0  0  0  0  0  0  # atno 17370 bound_to 10713
  157.2870  130.6778  149.6095 LP  0  0  0  0  0  0  0  0  0  0  0  0  # atno 17371 bound_to 10713
  141.0876  133.6727  156.2471 LP  0  0  0  0  0  0  0  0  0  0  0  0  # atno 17394 bound_to 11000
  140.6239  134.5333  157.5551 LP  0  0  0  0  0  0  0  0  0  0  0  0  # atno 17395 bound_to 11000

$$$$
