AV-unprocessed.smi:349|AV-procd|sdf|2397|dock9
  -GOLD-   2262022333D 1   1.00000     0.00000
 Structure written by MMmdl.
 43 44  0  0  0  0  0  0  0  0  1 V2000
  147.4266  134.3715  162.0022 C   0  0  0  0  0  0  0  0  0  0  0  0
  147.3328  135.6989  161.2333 C   0  0  0  0  0  0  0  0  0  0  0  0
  148.3719  135.8505  160.1005 C   0  0  1  0  0  0  0  0  0  0  0  0
  148.2768  134.6806  159.1062 C   0  0  0  0  0  0  0  0  0  0  0  0
  148.2196  137.1844  159.3544 C   0  0  0  0  0  0  0  0  0  0  0  0
  147.2008  137.8609  159.4975 O   0  0  0  0  0  0  0  0  0  0  0  0
  149.2376  137.5427  158.5558 N   0  0  0  0  0  0  0  0  0  0  0  0
  149.2954  138.7491  157.7347 C   0  0  0  0  0  0  0  0  0  0  0  0
  150.4440  138.7410  156.7247 C   0  0  0  0  0  0  0  0  0  0  0  0
  150.4556  137.7785  155.6892 C   0  0  0  0  0  0  0  0  0  0  0  0
  151.4955  137.7886  154.7431 C   0  0  0  0  0  0  0  0  0  0  0  0
  152.4919  138.7724  154.8615 C   0  0  0  0  0  0  0  0  0  0  0  0
  152.4947  139.7038  155.8362 N   0  0  0  0  0  0  0  0  0  0  0  0
  151.4948  139.7000  156.7522 C   0  0  0  0  0  0  0  0  0  0  0  0
  151.5504  140.6796  157.7602 N   0  0  0  0  0  0  0  0  0  0  0  0
  151.3162  142.0596  157.3476 C   0  0  0  0  0  0  0  0  0  0  0  0
  151.2154  142.9644  158.5872 C   0  0  0  0  0  0  0  0  0  0  0  0
  152.3968  142.8285  159.3725 O   0  0  0  0  0  0  0  0  0  0  0  0
  152.5862  141.4925  159.8308 C   0  0  0  0  0  0  0  0  0  0  0  0
  152.7142  140.5430  158.6269 C   0  0  0  0  0  0  0  0  0  0  0  0
  146.6303  134.2987  162.7431 H   0  0  0  0  0  0  0  0  0  0  0  0
  148.3748  134.2772  162.5317 H   0  0  0  0  0  0  0  0  0  0  0  0
  147.3311  133.5194  161.3286 H   0  0  0  0  0  0  0  0  0  0  0  0
  146.3319  135.7756  160.8068 H   0  0  0  0  0  0  0  0  0  0  0  0
  147.4194  136.5296  161.9354 H   0  0  0  0  0  0  0  0  0  0  0  0
  149.3664  135.8182  160.5491 H   0  0  0  0  0  0  0  0  0  0  0  0
  149.0055  134.7832  158.3010 H   0  0  0  0  0  0  0  0  0  0  0  0
  147.2866  134.6181  158.6532 H   0  0  0  0  0  0  0  0  0  0  0  0
  148.4724  133.7298  159.6026 H   0  0  0  0  0  0  0  0  0  0  0  0
  150.0333  136.9233  158.5041 H   0  0  0  0  0  0  0  0  0  0  0  0
  148.3628  138.8962  157.1881 H   0  0  0  0  0  0  0  0  0  0  0  0
  149.3642  139.5908  158.4211 H   0  0  0  0  0  0  0  0  0  0  0  0
  149.6729  137.0395  155.6089 H   0  0  0  0  0  0  0  0  0  0  0  0
  151.5249  137.0631  153.9439 H   0  0  0  0  0  0  0  0  0  0  0  0
  153.3072  138.8145  154.1546 H   0  0  0  0  0  0  0  0  0  0  0  0
  152.1336  142.4011  156.7109 H   0  0  0  0  0  0  0  0  0  0  0  0
  150.3984  142.1200  156.7616 H   0  0  0  0  0  0  0  0  0  0  0  0
  151.1066  144.0061  158.2852 H   0  0  0  0  0  0  0  0  0  0  0  0
  150.3375  142.7113  159.1839 H   0  0  0  0  0  0  0  0  0  0  0  0
  153.4890  141.4513  160.4402 H   0  0  0  0  0  0  0  0  0  0  0  0
  151.7544  141.1964  160.4721 H   0  0  0  0  0  0  0  0  0  0  0  0
  152.8168  139.5137  158.9719 H   0  0  0  0  0  0  0  0  0  0  0  0
  153.6146  140.7802  158.0583 H   0  0  0  0  0  0  0  0  0  0  0  0
  1  2  1  0  0  0  0
  1 21  1  0  0  0  0
  1 22  1  0  0  0  0
  1 23  1  0  0  0  0
  2  3  1  0  0  0  0
  2 24  1  0  0  0  0
  2 25  1  0  0  0  0
  3  4  1  0  0  0  0
  3  5  1  0  0  0  0
  3 26  1  0  0  0  0
  4 27  1  0  0  0  0
  4 28  1  0  0  0  0
  4 29  1  0  0  0  0
  5  6  2  0  0  0  0
  5  7  1  0  0  0  0
  7  8  1  0  0  0  0
  7 30  1  0  0  0  0
  8  9  1  0  0  0  0
  8 31  1  0  0  0  0
  8 32  1  0  0  0  0
  9 14  1  0  0  0  0
  9 10  2  0  0  0  0
 10 11  1  0  0  0  0
 10 33  1  0  0  0  0
 11 12  2  0  0  0  0
 11 34  1  0  0  0  0
 12 13  1  0  0  0  0
 12 35  1  0  0  0  0
 13 14  2  0  0  0  0
 14 15  1  0  0  0  0
 15 20  1  0  0  0  0
 15 16  1  0  0  0  0
 16 17  1  0  0  0  0
 16 36  1  0  0  0  0
 16 37  1  0  0  0  0
 17 18  1  0  0  0  0
 17 38  1  0  0  0  0
 17 39  1  0  0  0  0
 18 19  1  0  0  0  0
 19 20  1  0  0  0  0
 19 40  1  0  0  0  0
 19 41  1  0  0  0  0
 20 42  1  0  0  0  0
 20 43  1  0  0  0  0
M  END
> <s_m_source_file>
AV-unprocessed.smi

> <i_m_source_file_index>
349

> <i_lp_mmshare_version>
43012

> <i_f3d_flags>
0

> <s_epik_input>
W0NIM11bQ0gyXVtDQEhdKFtDSDNdKUMoPU8pW05IXVtDSDJdYzFbY0hdW2NIXVtjSF1uYzFOMltDSDJdW0NIMl1PW0NIMl1bQ0gyXTI=

> <s_epik_cmdline>
J2VwaWtfcHl0aG9uJywgJy1waCcsICc3LjAnLCAnLXRuJywgJzgnLCAnLW1hJywgJzIwMCcsICctbWV0YWxfYmluZGluZycsICctaW1hZScsICc8aW5maWxlLm1hZT4nLCAnLW9tYWUnLCAnPG91dGZpbGUubWFlPic=

> <r_lp_tautomer_probability>
1

> <r_epik_Ionization_Penalty>
0.00513869

> <r_epik_Ionization_Penalty_Charging>
0

> <r_epik_Ionization_Penalty_Neutral>
0.00513869

> <r_epik_State_Penalty>
0.00374265

> <r_epik_Charging_Adjusted_Penalty>
0.00374265

> <i_epik_Tot_Q>
0

> <i_epik_Tot_abs_Q>
0

> <r_epik_Metal_State_Penalty>
-0

> <b_epik_Metal_Only>
0

> <s_lp_Force_Field>
OPLS_2005

> <r_lp_Energy>
19.4622

> <b_lp_Chiralities_Consistent>
1

> <s_lp_Variant>
AV-unprocessed.smi:349-2

> <Gold.Version>
5.8.1

> <Gold.Id.Protein>
6NUR|6NUR_protein|mol2

> <Gold.PLP.Fitness>
36.9662

> <Gold.PLP.PLP>
-32.5320

> <Gold.PLP.part.hbond>
-2.0000

> <Gold.PLP.part.metal>
0.0000

> <Gold.PLP.part.buried>
-6.3367

> <Gold.PLP.part.nonpolar>
-25.0665

> <Gold.PLP.part.repulsive>
0.1578

> <Gold.PLP.ligand.clash>
0.0000

> <Gold.PLP.ligand.torsion>
0.4415

> <Gold.PLP.Chemscore.Hbond>
1.7040

> <Gold.PLP.Chemscore.CHOScore>
0.0000

> <Gold.PLP.Chemscore.Metal>
0.0000

> <Gold.Chemscore.Hbonds>
donor molecule, donor type, donor heavy atom, donor atom, acceptor molecule, acceptor atom, score
      P1  H  6934  6947       L1     6  0.70
      P1  H  7997  8009       L1    13  1.00

> <Gold.PLP.Chemscore.Internal.Correction>
0.2053

> <Gold.Rescore>
     Score         DG    S(hbond)    S(metal)    S(lipo)     H(rot)  DE(clash)    DE(int)     intcor
     16.29     -16.57       1.62        0.00      84.39       1.64       0.04       0.25       ----

> <Gold.Chemscore.Fitness>
16.2915

> <Gold.Chemscore.DG>
-16.5734

> <Gold.Chemscore.ZeroCoef>
-5.4800

> <Gold.Chemscore.Hbond>
1.6229

> <Gold.Chemscore.Metal>
0.0000

> <Gold.Chemscore.Lipo>
84.3853

> <Gold.Chemscore.Internal_Hbond>
0.0000

> <Gold.Chemscore.DEClash>
0.0363

> <Gold.Chemscore.DEInternal>
0.2456

> <Gold.Chemscore.Rot>
1.6407

> <Gold.Chemscore.Internal.Correction>
   9.000000E+99

> <Gold.Chemscore.Hbonds>
donor molecule, donor type, donor heavy atom, donor atom, acceptor molecule, acceptor atom, score
      P1  H  6934  6947       L1     6  0.66
      P1  H  7997  8009       L1    13  0.60

> <Gold.Chemscore.Hbond.Weighted>
-5.4205

> <Gold.Chemscore.Metal.Weighted>
-0.0000

> <Gold.Chemscore.Lipo.Weighted>
-9.8731

> <Gold.Chemscore.Internal_Hbond.Weighted>
0.0000

> <Gold.Chemscore.DEClash.Weighted>
0.0363

> <Gold.Chemscore.DEInternal.Weighted>
0.2456

> <Gold.Chemscore.Rot.Weighted>
4.2001

> <Gold.Chemscore.Internal.Correction.Weighted>
   9.000000E+99

> <Gold.Protein.RotatedTorsions>
[ 6907 6896 6895 6894 ] final  -47.07 input  -60.11 | X-H torsion
[ 7974 7965 7964 7962 ] final  -93.62 input  175.53 | X-H torsion
[ 8008 7997 7996 7995 ] final -154.68 input   59.86 | X-H torsion
[ 10167 10162 10161 10158 ] final  -11.51 input  -65.29 | X-H torsion
[ 10718 10713 10712 10709 ] final  125.58 input   66.30 | X-H torsion
[ 10763 10752 10751 10750 ] final  -92.02 input  -60.55 | X-H torsion
[ 11005 11000 10999 10996 ] final  -12.71 input  -57.11 | X-H torsion

> <Gold.Protein.ActiveResidues>
 VAL166  LYS551  ARG553  GLY616  TRP617  ASP618  TYR619  PRO620  LYS621  CYS622 
 ASP623  PHE694  ASN695  SER759  ASP760  ASP761  ALA762  ILE779  LEU786  VAL792 
 PHE793  MET794  SER795  GLU796  ALA797  LYS798  CYS799  TRP800  GLU811  SER814 

> <Gold.Protein.RotatedAtoms>
  150.9046  134.8460  159.7383 H   0  0  0  0  0  0  0  0  0  0  0  0  # atno 6907 bound_to 6896
  152.4911  134.4451  159.9566 H   0  0  0  0  0  0  0  0  0  0  0  0  # atno 6908 bound_to 6896
  151.4499  133.3581  159.2829 H   0  0  0  0  0  0  0  0  0  0  0  0  # atno 6909 bound_to 6896
  145.3841  140.9521  143.2377 H   0  0  0  0  0  0  0  0  0  0  0  0  # atno 7974 bound_to 7965
  155.6901  140.0754  157.2451 H   0  0  0  0  0  0  0  0  0  0  0  0  # atno 8008 bound_to 7997
  154.4090  140.1666  156.2129 H   0  0  0  0  0  0  0  0  0  0  0  0  # atno 8009 bound_to 7997
  155.9459  140.3381  155.6370 H   0  0  0  0  0  0  0  0  0  0  0  0  # atno 8010 bound_to 7997
  140.7140  143.5632  150.9173 H   0  0  0  0  0  0  0  0  0  0  0  0  # atno 10167 bound_to 10162
  157.5491  131.1094  150.8732 H   0  0  0  0  0  0  0  0  0  0  0  0  # atno 10718 bound_to 10713
  154.6819  135.5246  153.8275 H   0  0  0  0  0  0  0  0  0  0  0  0  # atno 10763 bound_to 10752
  153.0571  135.6554  154.0561 H   0  0  0  0  0  0  0  0  0  0  0  0  # atno 10764 bound_to 10752
  154.0447  135.2974  155.3329 H   0  0  0  0  0  0  0  0  0  0  0  0  # atno 10765 bound_to 10752
  140.7686  133.8457  155.9187 H   0  0  0  0  0  0  0  0  0  0  0  0  # atno 11005 bound_to 11000
  144.8487  139.5356  143.6866 LP  0  0  0  0  0  0  0  0  0  0  0  0  # atno 17320 bound_to 7965
  146.2828  139.6924  142.9216 LP  0  0  0  0  0  0  0  0  0  0  0  0  # atno 17321 bound_to 7965
  139.9357  143.6440  152.3066 LP  0  0  0  0  0  0  0  0  0  0  0  0  # atno 17342 bound_to 10162
  139.6907  144.7647  151.1444 LP  0  0  0  0  0  0  0  0  0  0  0  0  # atno 17343 bound_to 10162
  156.9262  130.5333  149.5279 LP  0  0  0  0  0  0  0  0  0  0  0  0  # atno 17370 bound_to 10713
  156.0561  130.5622  150.9094 LP  0  0  0  0  0  0  0  0  0  0  0  0  # atno 17371 bound_to 10713
  140.9595  134.1674  157.4665 LP  0  0  0  0  0  0  0  0  0  0  0  0  # atno 17394 bound_to 11000
  139.8759  134.9939  156.5670 LP  0  0  0  0  0  0  0  0  0  0  0  0  # atno 17395 bound_to 11000

$$$$
