AV-unprocessed.smi:3096|AV-procd|sdf|11796|dock10
  -GOLD-   2272017173D 1   1.00000     0.00000
 Structure written by MMmdl.
 33 33  0  0  0  0  0  0  0  0  2 V2000
  146.0994  132.0523  152.0270 C   0  0  0  0  0  0  0  0  0  0  0  0
  145.6920  133.1830  151.4320 C   0  0  0  0  0  0  0  0  0  0  0  0
  146.2391  134.5576  151.7470 C   0  0  0  0  0  0  0  0  0  0  0  0
  145.1265  135.4387  152.1212 N   0  0  0  0  0  0  0  0  0  0  0  0
  145.1726  136.7841  152.1798 C   0  0  0  0  0  0  0  0  0  0  0  0
  146.3161  137.4339  151.8865 N   0  3  0  0  0  0  0  0  0  0  0  0
  146.5020  138.8897  151.9120 C   0  0  0  0  0  0  0  0  0  0  0  0
  144.0734  137.4796  152.5318 N   0  0  0  0  0  0  0  0  0  0  0  0
  142.7654  136.8987  152.8618 C   0  0  0  0  0  0  0  0  0  0  0  0
  142.2569  137.4048  154.2181 C   0  0  0  0  0  0  0  0  0  0  0  0
  140.8096  137.3645  154.2925 N   0  0  0  0  0  0  0  0  0  0  0  0
  139.8889  137.9676  153.4613 C   0  0  0  0  0  0  0  0  0  0  0  0
  138.6475  137.6438  153.9287 C   0  0  0  0  0  0  0  0  0  0  0  0
  138.9151  136.8270  155.0628 C   0  0  0  0  0  0  0  0  0  0  0  0
  140.2103  136.6615  155.2777 N   0  0  0  0  0  0  0  0  0  0  0  0
  146.8688  132.0616  152.7850 H   0  0  0  0  0  0  0  0  0  0  0  0
  145.6661  131.0990  151.7614 H   0  0  0  0  0  0  0  0  0  0  0  0
  144.9173  133.1334  150.6803 H   0  0  0  0  0  0  0  0  0  0  0  0
  146.9458  134.4850  152.5740 H   0  0  0  0  0  0  0  0  0  0  0  0
  146.7662  134.9684  150.8851 H   0  0  0  0  0  0  0  0  0  0  0  0
  144.2530  134.9837  152.3452 H   0  0  0  0  0  0  0  0  0  0  0  0
  147.5262  139.1427  151.6375 H   0  0  0  0  0  0  0  0  0  0  0  0
  146.3053  139.2813  152.9100 H   0  0  0  0  0  0  0  0  0  0  0  0
  145.8258  139.3734  151.2069 H   0  0  0  0  0  0  0  0  0  0  0  0
  144.1371  138.4873  152.5606 H   0  0  0  0  0  0  0  0  0  0  0  0
  142.0598  137.1600  152.0724 H   0  0  0  0  0  0  0  0  0  0  0  0
  142.8501  135.8117  152.8740 H   0  0  0  0  0  0  0  0  0  0  0  0
  142.6639  136.7970  155.0274 H   0  0  0  0  0  0  0  0  0  0  0  0
  142.5857  138.4302  154.3944 H   0  0  0  0  0  0  0  0  0  0  0  0
  140.1896  138.5705  152.6168 H   0  0  0  0  0  0  0  0  0  0  0  0
  137.6928  137.9440  153.5224 H   0  0  0  0  0  0  0  0  0  0  0  0
  138.2117  136.3531  155.7319 H   0  0  0  0  0  0  0  0  0  0  0  0
  147.1217  136.8844  151.6230 H   0  0  0  0  0  0  0  0  0  0  0  0
  1  2  2  0  0  0  0
  1 16  1  0  0  0  0
  1 17  1  0  0  0  0
  2  3  1  0  0  0  0
  2 18  1  0  0  0  0
  3  4  1  0  0  0  0
  3 19  1  0  0  0  0
  3 20  1  0  0  0  0
  4  5  1  0  0  0  0
  4 21  1  0  0  0  0
  5  6  2  0  0  0  0
  5  8  1  0  0  0  0
  6  7  1  0  0  0  0
  6 33  1  0  0  0  0
  7 22  1  0  0  0  0
  7 23  1  0  0  0  0
  7 24  1  0  0  0  0
  8  9  1  0  0  0  0
  8 25  1  0  0  0  0
  9 10  1  0  0  0  0
  9 26  1  0  0  0  0
  9 27  1  0  0  0  0
 10 11  1  0  0  0  0
 10 28  1  0  0  0  0
 10 29  1  0  0  0  0
 11 15  1  0  0  0  0
 11 12  1  0  0  0  0
 12 13  2  0  0  0  0
 12 30  1  0  0  0  0
 13 14  1  0  0  0  0
 13 31  1  0  0  0  0
 14 15  2  0  0  0  0
 14 32  1  0  0  0  0
M  CHG  1   6   1
M  END
> <s_m_source_file>
AV-unprocessed.smi

> <i_m_source_file_index>
3096

> <i_lp_mmshare_version>
43012

> <i_f3d_flags>
0

> <s_epik_input>
W0NIMl09W0NIXVtDSDJdW05IXS9DKD1OL1tDSDNdKVtOSF1bQ0gyXVtDSDJdbjFbY0hdW2NIXVtjSF1uMQ==

> <s_epik_cmdline>
J2VwaWtfcHl0aG9uJywgJy1waCcsICc3LjAnLCAnLXRuJywgJzgnLCAnLW1hJywgJzIwMCcsICctbWV0YWxfYmluZGluZycsICctaW1hZScsICc8aW5maWxlLm1hZT4nLCAnLW9tYWUnLCAnPG91dGZpbGUubWFlPic=

> <r_lp_tautomer_probability>
1

> <r_epik_Ionization_Penalty>
5.14269e-05

> <r_epik_Ionization_Penalty_Charging>
1.55211e-07

> <r_epik_Ionization_Penalty_Neutral>
5.12717e-05

> <r_epik_State_Penalty>
-0

> <r_epik_Charging_Adjusted_Penalty>
1.55211e-07

> <i_epik_Tot_Q>
1

> <i_epik_Tot_abs_Q>
1

> <r_epik_Metal_State_Penalty>
-0

> <b_epik_Metal_Only>
0

> <s_epik_Chemistry_Notes>
This compound has an imine and may undergo hydrolysis.

> <s_lp_Force_Field>
OPLS_2005

> <r_lp_Energy>
4.847

> <b_lp_Chiralities_Consistent>
1

> <s_lp_Variant>
AV-unprocessed.smi:3096-1

> <Gold.Version>
5.8.1

> <Gold.Id.Protein>
6NUR|6NUR_protein|mol2

> <Gold.PLP.Fitness>
47.2069

> <Gold.PLP.PLP>
-29.8510

> <Gold.PLP.part.hbond>
-4.0000

> <Gold.PLP.part.metal>
0.0000

> <Gold.PLP.part.buried>
-5.3351

> <Gold.PLP.part.nonpolar>
-22.1326

> <Gold.PLP.part.repulsive>
0.1439

> <Gold.PLP.ligand.clash>
0.0000

> <Gold.PLP.ligand.torsion>
0.2932

> <Gold.PLP.Chemscore.Hbond>
4.9738

> <Gold.PLP.Chemscore.CHOScore>
1.0000

> <Gold.PLP.Chemscore.Metal>
0.0000

> <Gold.Chemscore.Hbonds>
donor molecule, donor type, donor heavy atom, donor atom, acceptor molecule, acceptor atom, score
      L1  H     6    33       P1  7948  2.00
      L1  H     8    25       P1 10175  2.00
      P1  H 11000 11005       L1    15  0.56
      L1  C    12    30       P1 10160  0.77

> <Gold.PLP.Chemscore.Internal.Correction>
0.0211

> <Gold.Rescore>
     Score         DG    S(hbond)    S(metal)    S(lipo)     H(rot)  DE(clash)    DE(int)     intcor
     15.89     -16.15       2.59        0.00      58.57       1.89       0.04       0.22       ----

> <Gold.Chemscore.Fitness>
15.8868

> <Gold.Chemscore.DG>
-16.1496

> <Gold.Chemscore.ZeroCoef>
-5.4800

> <Gold.Chemscore.Hbond>
2.5908

> <Gold.Chemscore.Metal>
0.0000

> <Gold.Chemscore.Lipo>
58.5682

> <Gold.Chemscore.Internal_Hbond>
0.0000

> <Gold.Chemscore.DEClash>
0.0416

> <Gold.Chemscore.DEInternal>
0.2212

> <Gold.Chemscore.Rot>
1.8891

> <Gold.Chemscore.Internal.Correction>
   9.000000E+99

> <Gold.Chemscore.Hbonds>
donor molecule, donor type, donor heavy atom, donor atom, acceptor molecule, acceptor atom, score
      L1  H     6    33       P1  7948  0.98
      L1  H     8    25       P1 10175  0.95
      P1  H 11000 11005       L1    15  0.04

> <Gold.Chemscore.Hbond.Weighted>
-8.6532

> <Gold.Chemscore.Metal.Weighted>
-0.0000

> <Gold.Chemscore.Lipo.Weighted>
-6.8525

> <Gold.Chemscore.Internal_Hbond.Weighted>
0.0000

> <Gold.Chemscore.DEClash.Weighted>
0.0416

> <Gold.Chemscore.DEInternal.Weighted>
0.2212

> <Gold.Chemscore.Rot.Weighted>
4.8361

> <Gold.Chemscore.Internal.Correction.Weighted>
   9.000000E+99

> <Gold.Protein.RotatedTorsions>
[ 6907 6896 6895 6894 ] final  -13.49 input  -60.11 | X-H torsion
[ 7974 7965 7964 7962 ] final   36.60 input  175.53 | X-H torsion
[ 8008 7997 7996 7995 ] final  147.11 input   59.86 | X-H torsion
[ 10167 10162 10161 10158 ] final   63.54 input  -65.29 | X-H torsion
[ 10718 10713 10712 10709 ] final   75.68 input   66.30 | X-H torsion
[ 10763 10752 10751 10750 ] final   90.02 input  -60.55 | X-H torsion
[ 11005 11000 10999 10996 ] final   74.97 input  -57.11 | X-H torsion

> <Gold.Protein.ActiveResidues>
 VAL166  LYS551  ARG553  GLY616  TRP617  ASP618  TYR619  PRO620  LYS621  CYS622 
 ASP623  PHE694  ASN695  SER759  ASP760  ASP761  ALA762  ILE779  LEU786  VAL792 
 PHE793  MET794  SER795  GLU796  ALA797  LYS798  CYS799  TRP800  GLU811  SER814 

> <Gold.Protein.RotatedAtoms>
  151.3542  135.0890  159.9412 H   0  0  0  0  0  0  0  0  0  0  0  0  # atno 6907 bound_to 6896
  152.5179  133.9323  159.7596 H   0  0  0  0  0  0  0  0  0  0  0  0  # atno 6908 bound_to 6896
  150.9704  133.6296  159.2768 H   0  0  0  0  0  0  0  0  0  0  0  0  # atno 6909 bound_to 6896
  146.1199  139.5998  142.9296 H   0  0  0  0  0  0  0  0  0  0  0  0  # atno 7974 bound_to 7965
  156.2835  140.2164  156.5485 H   0  0  0  0  0  0  0  0  0  0  0  0  # atno 8008 bound_to 7997
  154.7311  140.0495  157.0749 H   0  0  0  0  0  0  0  0  0  0  0  0  # atno 8009 bound_to 7997
  155.0353  140.3139  155.4747 H   0  0  0  0  0  0  0  0  0  0  0  0  # atno 8010 bound_to 7997
  140.1319  144.4635  150.6860 H   0  0  0  0  0  0  0  0  0  0  0  0  # atno 10167 bound_to 10162
  157.6644  130.9738  150.1388 H   0  0  0  0  0  0  0  0  0  0  0  0  # atno 10718 bound_to 10713
  153.1932  135.4449  155.0175 H   0  0  0  0  0  0  0  0  0  0  0  0  # atno 10763 bound_to 10752
  154.8103  135.3291  154.7326 H   0  0  0  0  0  0  0  0  0  0  0  0  # atno 10764 bound_to 10752
  153.7778  135.6980  153.4949 H   0  0  0  0  0  0  0  0  0  0  0  0  # atno 10765 bound_to 10752
  139.9366  134.7478  156.1213 H   0  0  0  0  0  0  0  0  0  0  0  0  # atno 11005 bound_to 11000
  145.5487  141.0415  143.2290 LP  0  0  0  0  0  0  0  0  0  0  0  0  # atno 17320 bound_to 7965
  144.7588  139.7008  143.7243 LP  0  0  0  0  0  0  0  0  0  0  0  0  # atno 17321 bound_to 7965
  140.6812  143.2327  151.5380 LP  0  0  0  0  0  0  0  0  0  0  0  0  # atno 17342 bound_to 10162
  139.5515  144.2383  152.1539 LP  0  0  0  0  0  0  0  0  0  0  0  0  # atno 17343 bound_to 10162
  156.2216  130.3674  149.8549 LP  0  0  0  0  0  0  0  0  0  0  0  0  # atno 17370 bound_to 10713
  156.6401  130.8701  151.3512 LP  0  0  0  0  0  0  0  0  0  0  0  0  # atno 17371 bound_to 10713
  141.0982  133.6687  156.2693 LP  0  0  0  0  0  0  0  0  0  0  0  0  # atno 17394 bound_to 11000
  140.6060  134.5506  157.5526 LP  0  0  0  0  0  0  0  0  0  0  0  0  # atno 17395 bound_to 11000

$$$$
