AV-unprocessed.smi:3335|AV-procd|sdf|12837|dock3
  -GOLD-   2272019223D 1   1.00000     0.00000
 Structure written by MMmdl.
 47 48  0  0  0  0  0  0  0  0  2 V2000
  143.9872  145.3190  154.0650 C   0  0  0  0  0  0  0  0  0  0  0  0
  144.8938  144.1995  154.4881 C   0  0  0  0  0  0  0  0  0  0  0  0
  144.9973  143.5958  155.7728 C   0  0  0  0  0  0  0  0  0  0  0  0
  145.9084  142.6379  155.8170 N   0  0  0  0  0  0  0  0  0  0  0  0
  146.4073  142.5807  154.5611 N   0  0  0  0  0  0  0  0  0  0  0  0
  147.4908  141.6612  154.2294 C   0  0  2  0  0  0  0  0  0  0  0  0
  147.1110  140.7110  153.0735 C   0  0  0  0  0  0  0  0  0  0  0  0
  148.0108  140.9433  155.5002 C   0  0  2  0  0  0  0  0  0  0  0  0
  147.1072  139.7747  155.9325 C   0  0  0  0  0  0  0  0  0  0  0  0
  148.2071  141.9044  156.6143 N   0  3  0  0  0  0  0  0  0  0  0  0
  149.4038  141.6845  157.4603 C   0  0  2  0  0  0  0  0  0  0  0  0
  149.4086  140.2365  157.9742 C   0  0  0  0  0  0  0  0  0  0  0  0
  149.4348  142.6618  158.6532 C   0  0  0  0  0  0  0  0  0  0  0  0
  148.4773  142.6833  159.4279 O   0  0  0  0  0  0  0  0  0  0  0  0
  150.5100  143.4591  158.8291 N   0  0  0  0  0  0  0  0  0  0  0  0
  150.7001  144.4347  159.9024 C   0  0  0  0  0  0  0  0  0  0  0  0
  151.9520  145.2276  159.5272 C   0  0  0  0  0  0  0  0  0  0  0  0
  152.7430  144.2769  158.6404 C   0  0  0  0  0  0  0  0  0  0  0  0
  151.6705  143.4432  157.9399 C   0  0  0  0  0  0  0  0  0  0  0  0
  145.8186  143.5235  153.7441 C   0  0  0  0  0  0  0  0  0  0  0  0
  143.1921  145.4929  154.7903 H   0  0  0  0  0  0  0  0  0  0  0  0
  143.5083  145.1101  153.1083 H   0  0  0  0  0  0  0  0  0  0  0  0
  144.5324  146.2565  153.9550 H   0  0  0  0  0  0  0  0  0  0  0  0
  144.4465  143.8303  156.6718 H   0  0  0  0  0  0  0  0  0  0  0  0
  148.3053  142.2849  153.8580 H   0  0  0  0  0  0  0  0  0  0  0  0
  147.9700  140.1335  152.7331 H   0  0  0  0  0  0  0  0  0  0  0  0
  146.7455  141.2744  152.2143 H   0  0  0  0  0  0  0  0  0  0  0  0
  146.3307  140.0056  153.3608 H   0  0  0  0  0  0  0  0  0  0  0  0
  148.9811  140.5184  155.2385 H   0  0  0  0  0  0  0  0  0  0  0  0
  146.9251  139.0929  155.1012 H   0  0  0  0  0  0  0  0  0  0  0  0
  146.1402  140.1237  156.2947 H   0  0  0  0  0  0  0  0  0  0  0  0
  147.5634  139.1907  156.7315 H   0  0  0  0  0  0  0  0  0  0  0  0
  148.2921  142.8299  156.2159 H   0  0  0  0  0  0  0  0  0  0  0  0
  150.2802  141.8189  156.8285 H   0  0  0  0  0  0  0  0  0  0  0  0
  150.2886  140.0323  158.5852 H   0  0  0  0  0  0  0  0  0  0  0  0
  149.4175  139.5281  157.1454 H   0  0  0  0  0  0  0  0  0  0  0  0
  148.5276  140.0232  158.5813 H   0  0  0  0  0  0  0  0  0  0  0  0
  149.8412  145.0961  160.0214 H   0  0  0  0  0  0  0  0  0  0  0  0
  150.8577  143.9035  160.8423 H   0  0  0  0  0  0  0  0  0  0  0  0
  151.6685  146.1104  158.9526 H   0  0  0  0  0  0  0  0  0  0  0  0
  152.5167  145.5633  160.3976 H   0  0  0  0  0  0  0  0  0  0  0  0
  153.3987  144.7962  157.9409 H   0  0  0  0  0  0  0  0  0  0  0  0
  153.3625  143.6285  159.2615 H   0  0  0  0  0  0  0  0  0  0  0  0
  152.0243  142.4303  157.7409 H   0  0  0  0  0  0  0  0  0  0  0  0
  151.3935  143.8988  156.9879 H   0  0  0  0  0  0  0  0  0  0  0  0
  146.1065  143.6381  152.7093 H   0  0  0  0  0  0  0  0  0  0  0  0
  147.3813  141.8831  157.1949 H   0  0  0  0  0  0  0  0  0  0  0  0
  1  2  1  0  0  0  0
  1 21  1  0  0  0  0
  1 22  1  0  0  0  0
  1 23  1  0  0  0  0
  2 20  2  0  0  0  0
  2  3  1  0  0  0  0
  3  4  2  0  0  0  0
  3 24  1  0  0  0  0
  4  5  1  0  0  0  0
  5  6  1  0  0  0  0
  5 20  1  0  0  0  0
  6  7  1  0  0  0  0
  6  8  1  0  0  0  0
  6 25  1  0  0  0  0
  7 26  1  0  0  0  0
  7 27  1  0  0  0  0
  7 28  1  0  0  0  0
  8  9  1  0  0  0  0
  8 10  1  0  0  0  0
  8 29  1  0  0  0  0
  9 30  1  0  0  0  0
  9 31  1  0  0  0  0
  9 32  1  0  0  0  0
 10 11  1  0  0  0  0
 10 33  1  0  0  0  0
 10 47  1  0  0  0  0
 11 12  1  0  0  0  0
 11 13  1  0  0  0  0
 11 34  1  0  0  0  0
 12 35  1  0  0  0  0
 12 36  1  0  0  0  0
 12 37  1  0  0  0  0
 13 14  2  0  0  0  0
 13 15  1  0  0  0  0
 15 19  1  0  0  0  0
 15 16  1  0  0  0  0
 16 17  1  0  0  0  0
 16 38  1  0  0  0  0
 16 39  1  0  0  0  0
 17 18  1  0  0  0  0
 17 40  1  0  0  0  0
 17 41  1  0  0  0  0
 18 19  1  0  0  0  0
 18 42  1  0  0  0  0
 18 43  1  0  0  0  0
 19 44  1  0  0  0  0
 19 45  1  0  0  0  0
 20 46  1  0  0  0  0
M  CHG  1  10   1
M  END
> <s_m_source_file>
AV-unprocessed.smi

> <i_m_source_file_index>
3335

> <i_lp_mmshare_version>
43012

> <i_f3d_flags>
0

> <s_epik_input>
W0NIM11jMVtjSF1ubihbY0hdMSlbQ0BIXShbQ0gzXSlbQ0BIXShbQ0gzXSlbTkhdW0NASF0oW0NIM10pQyg9TylOMltDSDJdW0NIMl1bQ0gyXVtDSDJdMg==

> <s_epik_cmdline>
J2VwaWtfcHl0aG9uJywgJy1waCcsICc3LjAnLCAnLXRuJywgJzgnLCAnLW1hJywgJzIwMCcsICctbWV0YWxfYmluZGluZycsICctaW1hZScsICc8aW5maWxlLm1hZT4nLCAnLW9tYWUnLCAnPG91dGZpbGUubWFlPic=

> <r_lp_tautomer_probability>
1

> <r_epik_Ionization_Penalty>
0.14175

> <r_epik_Ionization_Penalty_Charging>
0.141731

> <r_epik_Ionization_Penalty_Neutral>
1.91261e-05

> <r_epik_State_Penalty>
0.131043

> <r_epik_Charging_Adjusted_Penalty>
0.272773

> <i_epik_Tot_Q>
1

> <i_epik_Tot_abs_Q>
1

> <r_epik_Metal_State_Penalty>
0.131408

> <b_epik_Metal_Only>
0

> <s_lp_Force_Field>
OPLS_2005

> <r_lp_Energy>
36.483

> <b_lp_Chiralities_Consistent>
1

> <s_lp_Variant>
AV-unprocessed.smi:3335-1

> <Gold.Version>
5.8.1

> <Gold.Id.Protein>
6NUR|6NUR_protein|mol2

> <Gold.PLP.Fitness>
50.1104

> <Gold.PLP.PLP>
-44.7527

> <Gold.PLP.part.hbond>
-2.0000

> <Gold.PLP.part.metal>
0.0000

> <Gold.PLP.part.buried>
-6.2057

> <Gold.PLP.part.nonpolar>
-37.7784

> <Gold.PLP.part.repulsive>
0.2848

> <Gold.PLP.ligand.clash>
0.0000

> <Gold.PLP.ligand.torsion>
0.7979

> <Gold.PLP.Chemscore.Hbond>
2.2413

> <Gold.PLP.Chemscore.CHOScore>
0.0000

> <Gold.PLP.Chemscore.Metal>
0.0000

> <Gold.Chemscore.Hbonds>
donor molecule, donor type, donor heavy atom, donor atom, acceptor molecule, acceptor atom, score
      L1  H    10    33       P1  8028  1.92
      P1  H  6933  6944       L1    14  0.35

> <Gold.PLP.Chemscore.Internal.Correction>
0.2298

> <Gold.Rescore>
     Score         DG    S(hbond)    S(metal)    S(lipo)     H(rot)  DE(clash)    DE(int)     intcor
     15.83     -16.82       1.16        0.00     100.60       1.68       0.01       0.99       ----

> <Gold.Chemscore.Fitness>
15.8279

> <Gold.Chemscore.DG>
-16.8232

> <Gold.Chemscore.ZeroCoef>
-5.4800

> <Gold.Chemscore.Hbond>
1.1583

> <Gold.Chemscore.Metal>
0.0000

> <Gold.Chemscore.Lipo>
100.5962

> <Gold.Chemscore.Internal_Hbond>
0.0000

> <Gold.Chemscore.DEClash>
0.0086

> <Gold.Chemscore.DEInternal>
0.9867

> <Gold.Chemscore.Rot>
1.6778

> <Gold.Chemscore.Internal.Correction>
   9.000000E+99

> <Gold.Chemscore.Hbonds>
donor molecule, donor type, donor heavy atom, donor atom, acceptor molecule, acceptor atom, score
      L1  H    10    33       P1  8028  0.78
      P1  H  6933  6944       L1    14  0.32

> <Gold.Chemscore.Hbond.Weighted>
-3.8686

> <Gold.Chemscore.Metal.Weighted>
-0.0000

> <Gold.Chemscore.Lipo.Weighted>
-11.7698

> <Gold.Chemscore.Internal_Hbond.Weighted>
0.0000

> <Gold.Chemscore.DEClash.Weighted>
0.0086

> <Gold.Chemscore.DEInternal.Weighted>
0.9867

> <Gold.Chemscore.Rot.Weighted>
4.2952

> <Gold.Chemscore.Internal.Correction.Weighted>
   9.000000E+99

> <Gold.Protein.RotatedTorsions>
[ 6907 6896 6895 6894 ] final  -20.30 input  -60.11 | X-H torsion
[ 7974 7965 7964 7962 ] final -102.51 input  175.53 | X-H torsion
[ 8008 7997 7996 7995 ] final  134.93 input   59.86 | X-H torsion
[ 10167 10162 10161 10158 ] final  -22.45 input  -65.29 | X-H torsion
[ 10718 10713 10712 10709 ] final   75.50 input   66.30 | X-H torsion
[ 10763 10752 10751 10750 ] final   59.88 input  -60.55 | X-H torsion
[ 11005 11000 10999 10996 ] final  159.52 input  -57.11 | X-H torsion

> <Gold.Protein.ActiveResidues>
 VAL166  LYS551  ARG553  GLY616  TRP617  ASP618  TYR619  PRO620  LYS621  CYS622 
 ASP623  PHE694  ASN695  SER759  ASP760  ASP761  ALA762  ILE779  LEU786  VAL792 
 PHE793  MET794  SER795  GLU796  ALA797  LYS798  CYS799  TRP800  GLU811  SER814 

> <Gold.Protein.RotatedAtoms>
  151.2503  135.0619  159.9058 H   0  0  0  0  0  0  0  0  0  0  0  0  # atno 6907 bound_to 6896
  152.5381  134.0340  159.8047 H   0  0  0  0  0  0  0  0  0  0  0  0  # atno 6908 bound_to 6896
  151.0547  133.5545  159.2670 H   0  0  0  0  0  0  0  0  0  0  0  0  # atno 6909 bound_to 6896
  145.2677  140.9289  143.3004 H   0  0  0  0  0  0  0  0  0  0  0  0  # atno 7974 bound_to 7965
  156.3001  140.2483  156.3497 H   0  0  0  0  0  0  0  0  0  0  0  0  # atno 8008 bound_to 7997
  154.8977  140.0407  157.1894 H   0  0  0  0  0  0  0  0  0  0  0  0  # atno 8009 bound_to 7997
  154.8533  140.2909  155.5589 H   0  0  0  0  0  0  0  0  0  0  0  0  # atno 8010 bound_to 7997
  140.7286  143.4534  151.0483 H   0  0  0  0  0  0  0  0  0  0  0  0  # atno 10167 bound_to 10162
  157.6636  130.9729  150.1362 H   0  0  0  0  0  0  0  0  0  0  0  0  # atno 10718 bound_to 10713
  152.9906  135.5556  154.5785 H   0  0  0  0  0  0  0  0  0  0  0  0  # atno 10763 bound_to 10752
  154.5171  135.2805  155.1296 H   0  0  0  0  0  0  0  0  0  0  0  0  # atno 10764 bound_to 10752
  154.2665  135.6371  153.5347 H   0  0  0  0  0  0  0  0  0  0  0  0  # atno 10765 bound_to 10752
  140.1969  134.8366  157.2975 H   0  0  0  0  0  0  0  0  0  0  0  0  # atno 11005 bound_to 11000
  144.9362  139.4241  143.6471 LP  0  0  0  0  0  0  0  0  0  0  0  0  # atno 17320 bound_to 7965
  146.3256  139.8299  142.8910 LP  0  0  0  0  0  0  0  0  0  0  0  0  # atno 17321 bound_to 7965
  139.8212  143.7817  152.3177 LP  0  0  0  0  0  0  0  0  0  0  0  0  # atno 17342 bound_to 10162
  139.7900  144.7413  150.9968 LP  0  0  0  0  0  0  0  0  0  0  0  0  # atno 17343 bound_to 10162
  156.2196  130.3673  149.8572 LP  0  0  0  0  0  0  0  0  0  0  0  0  # atno 17370 bound_to 10713
  156.6428  130.8712  151.3517 LP  0  0  0  0  0  0  0  0  0  0  0  0  # atno 17371 bound_to 10713
  140.2097  134.4154  155.7619 LP  0  0  0  0  0  0  0  0  0  0  0  0  # atno 17394 bound_to 11000
  141.2227  133.7112  156.8317 LP  0  0  0  0  0  0  0  0  0  0  0  0  # atno 17395 bound_to 11000

$$$$
