AV-unprocessed.smi:853|AV-procd|sdf|3954|dock1
  -GOLD-   22720 1423D 1   1.00000     0.00000
 Structure written by MMmdl.
 50 52  0  0  0  0  0  0  0  0  2 V2000
  144.1617  133.5728  151.1904 C   0  0  0  0  0  0  0  0  0  0  0  0
  143.7406  134.7382  152.0885 C   0  0  0  0  0  0  0  0  0  0  0  0
  143.0722  134.4830  153.0907 O   0  0  0  0  0  0  0  0  0  0  0  0
  144.1090  135.9987  151.7554 N   0  0  0  0  0  0  0  0  0  0  0  0
  143.8387  137.2019  152.5525 C   0  0  0  0  0  0  0  0  0  0  0  0
  145.1624  137.7124  153.1491 C   0  0  0  0  0  0  0  0  0  0  0  0
  146.2125  137.9718  152.0437 C   0  0  0  0  0  0  0  0  0  0  0  0
  147.5160  138.2750  152.6267 N   0  0  0  0  0  0  0  0  0  0  0  0
  147.7587  139.2618  153.5012 C   0  0  0  0  0  0  0  0  0  0  0  0
  146.8902  140.0276  153.9181 O   0  0  0  0  0  0  0  0  0  0  0  0
  149.0523  139.2826  153.8657 N   0  0  0  0  0  0  0  0  0  0  0  0
  149.6990  140.1604  154.7772 C   0  0  0  0  0  0  0  0  0  0  0  0
  150.9080  139.8556  155.4515 C   0  0  0  0  0  0  0  0  0  0  0  0
  151.4605  140.7949  156.3459 C   0  0  0  0  0  0  0  0  0  0  0  0
  150.7937  142.0227  156.5664 C   0  0  0  0  0  0  0  0  0  0  0  0
  151.2651  143.0257  157.4254 N   0  0  0  0  0  0  0  0  0  0  0  0
  150.2732  143.6314  158.2996 C   0  0  0  0  0  0  0  0  0  0  0  0
  151.0695  144.3318  159.4041 C   0  0  0  0  0  0  0  0  0  0  0  0
  152.4471  143.6590  159.3874 C   0  0  0  0  0  0  0  0  0  0  0  0
  152.3560  142.6009  158.2854 C   0  0  0  0  0  0  0  0  0  0  0  0
  149.6386  142.2689  155.9106 N   0  3  0  0  0  0  0  0  0  0  0  0
  149.0759  141.3968  155.0465 C   0  0  0  0  0  0  0  0  0  0  0  0
  146.3381  136.7605  151.0955 C   0  0  0  0  0  0  0  0  0  0  0  0
  144.9581  136.2974  150.5960 C   0  0  0  0  0  0  0  0  0  0  0  0
  143.7713  133.7019  150.1806 H   0  0  0  0  0  0  0  0  0  0  0  0
  143.7757  132.6295  151.5784 H   0  0  0  0  0  0  0  0  0  0  0  0
  145.2480  133.4926  151.1449 H   0  0  0  0  0  0  0  0  0  0  0  0
  143.4034  137.9667  151.9077 H   0  0  0  0  0  0  0  0  0  0  0  0
  143.1111  137.0465  153.3475 H   0  0  0  0  0  0  0  0  0  0  0  0
  144.9815  138.6237  153.7198 H   0  0  0  0  0  0  0  0  0  0  0  0
  145.5436  136.9753  153.8576 H   0  0  0  0  0  0  0  0  0  0  0  0
  145.8828  138.8253  151.4476 H   0  0  0  0  0  0  0  0  0  0  0  0
  148.2874  137.6902  152.3404 H   0  0  0  0  0  0  0  0  0  0  0  0
  149.6282  138.5409  153.4948 H   0  0  0  0  0  0  0  0  0  0  0  0
  151.4198  138.9164  155.3110 H   0  0  0  0  0  0  0  0  0  0  0  0
  152.3878  140.5673  156.8506 H   0  0  0  0  0  0  0  0  0  0  0  0
  149.6486  144.3367  157.7504 H   0  0  0  0  0  0  0  0  0  0  0  0
  149.6196  142.8757  158.7359 H   0  0  0  0  0  0  0  0  0  0  0  0
  151.1723  145.3951  159.1845 H   0  0  0  0  0  0  0  0  0  0  0  0
  150.5762  144.2397  160.3722 H   0  0  0  0  0  0  0  0  0  0  0  0
  153.2154  144.3942  159.1442 H   0  0  0  0  0  0  0  0  0  0  0  0
  152.7052  143.2156  160.3496 H   0  0  0  0  0  0  0  0  0  0  0  0
  152.1388  141.6230  158.7180 H   0  0  0  0  0  0  0  0  0  0  0  0
  153.2892  142.5226  157.7267 H   0  0  0  0  0  0  0  0  0  0  0  0
  148.1499  141.7193  154.5923 H   0  0  0  0  0  0  0  0  0  0  0  0
  146.9755  137.0120  150.2472 H   0  0  0  0  0  0  0  0  0  0  0  0
  146.8253  135.9325  151.6132 H   0  0  0  0  0  0  0  0  0  0  0  0
  145.0742  135.4449  149.9254 H   0  0  0  0  0  0  0  0  0  0  0  0
  144.4922  137.0828  149.9991 H   0  0  0  0  0  0  0  0  0  0  0  0
  149.1670  143.1581  156.0776 H   0  0  0  0  0  0  0  0  0  0  0  0
  1  2  1  0  0  0  0
  1 25  1  0  0  0  0
  1 26  1  0  0  0  0
  1 27  1  0  0  0  0
  2  3  2  0  0  0  0
  2  4  1  0  0  0  0
  4 24  1  0  0  0  0
  4  5  1  0  0  0  0
  5  6  1  0  0  0  0
  5 28  1  0  0  0  0
  5 29  1  0  0  0  0
  6  7  1  0  0  0  0
  6 30  1  0  0  0  0
  6 31  1  0  0  0  0
  7  8  1  0  0  0  0
  7 23  1  0  0  0  0
  7 32  1  0  0  0  0
  8  9  1  0  0  0  0
  8 33  1  0  0  0  0
  9 10  2  0  0  0  0
  9 11  1  0  0  0  0
 11 12  1  0  0  0  0
 11 34  1  0  0  0  0
 12 22  1  0  0  0  0
 12 13  2  0  0  0  0
 13 14  1  0  0  0  0
 13 35  1  0  0  0  0
 14 15  2  0  0  0  0
 14 36  1  0  0  0  0
 15 16  1  0  0  0  0
 15 21  1  0  0  0  0
 16 20  1  0  0  0  0
 16 17  1  0  0  0  0
 17 18  1  0  0  0  0
 17 37  1  0  0  0  0
 17 38  1  0  0  0  0
 18 19  1  0  0  0  0
 18 39  1  0  0  0  0
 18 40  1  0  0  0  0
 19 20  1  0  0  0  0
 19 41  1  0  0  0  0
 19 42  1  0  0  0  0
 20 43  1  0  0  0  0
 20 44  1  0  0  0  0
 21 22  2  0  0  0  0
 21 50  1  0  0  0  0
 22 45  1  0  0  0  0
 23 24  1  0  0  0  0
 23 46  1  0  0  0  0
 23 47  1  0  0  0  0
 24 48  1  0  0  0  0
 24 49  1  0  0  0  0
M  CHG  1  21   1
M  END
> <s_m_source_file>
AV-unprocessed.smi

> <i_m_source_file_index>
853

> <i_lp_mmshare_version>
43012

> <i_f3d_flags>
0

> <s_epik_input>
W0NIM11DKD1PKU4xW0NIMl1bQ0gyXVtDSF0oW0NIMl1bQ0gyXTEpW05IXUMoPU8pW05IXWMyW2NIXVtjSF1jKG5bY0hdMilOM1tDSDJdW0NIMl1bQ0gyXVtDSDJdMw==

> <s_epik_cmdline>
J2VwaWtfcHl0aG9uJywgJy1waCcsICc3LjAnLCAnLXRuJywgJzgnLCAnLW1hJywgJzIwMCcsICctbWV0YWxfYmluZGluZycsICctaW1hZScsICc8aW5maWxlLm1hZT4nLCAnLW9tYWUnLCAnPG91dGZpbGUubWFlPic=

> <r_lp_tautomer_probability>
0.999994

> <r_epik_Ionization_Penalty>
1.09439

> <r_epik_Ionization_Penalty_Charging>
1.09437

> <r_epik_Ionization_Penalty_Neutral>
2.1425e-05

> <r_epik_State_Penalty>
1.15094

> <r_epik_Charging_Adjusted_Penalty>
2.24531

> <i_epik_Tot_Q>
1

> <i_epik_Tot_abs_Q>
1

> <r_epik_Metal_State_Penalty>
1.2392

> <b_epik_Metal_Only>
0

> <s_lp_Force_Field>
OPLS_2005

> <r_lp_Energy>
58.2519

> <b_lp_Chiralities_Consistent>
1

> <s_lp_Variant>
AV-unprocessed.smi:853-2

> <Gold.Version>
5.8.1

> <Gold.Id.Protein>
6NUR|6NUR_protein|mol2

> <Gold.PLP.Fitness>
48.2642

> <Gold.PLP.PLP>
-40.0931

> <Gold.PLP.part.hbond>
-3.7833

> <Gold.PLP.part.metal>
0.0000

> <Gold.PLP.part.buried>
3.9326

> <Gold.PLP.part.nonpolar>
-40.5075

> <Gold.PLP.part.repulsive>
0.6911

> <Gold.PLP.ligand.clash>
0.0000

> <Gold.PLP.ligand.torsion>
0.4326

> <Gold.PLP.Chemscore.Hbond>
3.0000

> <Gold.PLP.Chemscore.CHOScore>
0.0000

> <Gold.PLP.Chemscore.Metal>
0.0000

> <Gold.Chemscore.Hbonds>
donor molecule, donor type, donor heavy atom, donor atom, acceptor molecule, acceptor atom, score
      L1  H     8    33       P1  7948  1.00
      L1  H    21    50       P1  8028  2.00

> <Gold.PLP.Chemscore.Internal.Correction>
0.0363

> <Gold.Rescore>
     Score         DG    S(hbond)    S(metal)    S(lipo)     H(rot)  DE(clash)    DE(int)     intcor
     17.07     -21.23       2.00        0.00     104.40       1.22       2.44       1.72       ----

> <Gold.Chemscore.Fitness>
17.0711

> <Gold.Chemscore.DG>
-21.2343

> <Gold.Chemscore.ZeroCoef>
-5.4800

> <Gold.Chemscore.Hbond>
1.9964

> <Gold.Chemscore.Metal>
0.0000

> <Gold.Chemscore.Lipo>
104.4045

> <Gold.Chemscore.Internal_Hbond>
0.0000

> <Gold.Chemscore.DEClash>
2.4397

> <Gold.Chemscore.DEInternal>
1.7235

> <Gold.Chemscore.Rot>
1.2222

> <Gold.Chemscore.Internal.Correction>
   9.000000E+99

> <Gold.Chemscore.Hbonds>
donor molecule, donor type, donor heavy atom, donor atom, acceptor molecule, acceptor atom, score
      L1  H     8    33       P1  7948  0.97
      L1  H    21    50       P1  8028  0.94

> <Gold.Chemscore.Hbond.Weighted>
-6.6679

> <Gold.Chemscore.Metal.Weighted>
-0.0000

> <Gold.Chemscore.Lipo.Weighted>
-12.2153

> <Gold.Chemscore.Internal_Hbond.Weighted>
0.0000

> <Gold.Chemscore.DEClash.Weighted>
2.4397

> <Gold.Chemscore.DEInternal.Weighted>
1.7235

> <Gold.Chemscore.Rot.Weighted>
3.1289

> <Gold.Chemscore.Internal.Correction.Weighted>
   9.000000E+99

> <Gold.Protein.RotatedTorsions>
[ 6907 6896 6895 6894 ] final  150.06 input  -60.11 | X-H torsion
[ 7974 7965 7964 7962 ] final  158.13 input  175.53 | X-H torsion
[ 8008 7997 7996 7995 ] final   26.94 input   59.86 | X-H torsion
[ 10167 10162 10161 10158 ] final -151.90 input  -65.29 | X-H torsion
[ 10718 10713 10712 10709 ] final   30.38 input   66.30 | X-H torsion
[ 10763 10752 10751 10750 ] final   77.28 input  -60.55 | X-H torsion
[ 11005 11000 10999 10996 ] final   59.62 input  -57.11 | X-H torsion

> <Gold.Protein.ActiveResidues>
 VAL166  LYS551  ARG553  GLY616  TRP617  ASP618  TYR619  PRO620  LYS621  CYS622 
 ASP623  PHE694  ASN695  SER759  ASP760  ASP761  ALA762  ILE779  LEU786  VAL792 
 PHE793  MET794  SER795  GLU796  ALA797  LYS798  CYS799  TRP800  GLU811  SER814 

> <Gold.Protein.RotatedAtoms>
  152.1196  133.4346  159.4669 H   0  0  0  0  0  0  0  0  0  0  0  0  # atno 6907 bound_to 6896
  150.6871  134.2550  159.4535 H   0  0  0  0  0  0  0  0  0  0  0  0  # atno 6908 bound_to 6896
  152.0426  134.9702  160.0624 H   0  0  0  0  0  0  0  0  0  0  0  0  # atno 6909 bound_to 6896
  144.7863  139.7435  143.6239 H   0  0  0  0  0  0  0  0  0  0  0  0  # atno 7974 bound_to 7965
  155.0351  140.3163  155.4744 H   0  0  0  0  0  0  0  0  0  0  0  0  # atno 8008 bound_to 7997
  156.2866  140.2173  156.5416 H   0  0  0  0  0  0  0  0  0  0  0  0  # atno 8009 bound_to 7997
  154.7337  140.0479  157.0737 H   0  0  0  0  0  0  0  0  0  0  0  0  # atno 8010 bound_to 7997
  139.7227  143.8931  152.2509 H   0  0  0  0  0  0  0  0  0  0  0  0  # atno 10167 bound_to 10162
  157.2589  130.7151  149.6443 H   0  0  0  0  0  0  0  0  0  0  0  0  # atno 10718 bound_to 10713
  153.0787  135.4920  154.8458 H   0  0  0  0  0  0  0  0  0  0  0  0  # atno 10763 bound_to 10752
  154.7122  135.3022  154.9181 H   0  0  0  0  0  0  0  0  0  0  0  0  # atno 10764 bound_to 10752
  153.9871  135.6782  153.4805 H   0  0  0  0  0  0  0  0  0  0  0  0  # atno 10765 bound_to 10752
  140.0291  134.6039  155.9532 H   0  0  0  0  0  0  0  0  0  0  0  0  # atno 11005 bound_to 11000
  146.2097  139.5444  142.9689 LP  0  0  0  0  0  0  0  0  0  0  0  0  # atno 17320 bound_to 7965
  145.5912  141.0369  143.2069 LP  0  0  0  0  0  0  0  0  0  0  0  0  # atno 17321 bound_to 7965
  139.8832  144.7006  150.8854 LP  0  0  0  0  0  0  0  0  0  0  0  0  # atno 17342 bound_to 10162
  140.7757  143.3645  151.1766 LP  0  0  0  0  0  0  0  0  0  0  0  0  # atno 17343 bound_to 10162
  155.9664  130.4404  150.5297 LP  0  0  0  0  0  0  0  0  0  0  0  0  # atno 17370 bound_to 10713
  157.3197  131.0679  151.1941 LP  0  0  0  0  0  0  0  0  0  0  0  0  # atno 17371 bound_to 10713
  141.1820  133.6548  156.5060 LP  0  0  0  0  0  0  0  0  0  0  0  0  # atno 17394 bound_to 11000
  140.4256  134.7148  157.4914 LP  0  0  0  0  0  0  0  0  0  0  0  0  # atno 17395 bound_to 11000

$$$$
