AV-unprocessed.smi:21|AV-procd|sdf|122|dock10
  -GOLD-   2262015293D 1   1.00000     0.00000
 Structure written by MMmdl.
 62 65  0  0  0  0  0  0  0  0  2 V2000
  144.5873  132.6579  149.0957 C   0  0  0  0  0  0  0  0  0  0  0  0
  144.9396  132.1317  150.3648 O   0  0  0  0  0  0  0  0  0  0  0  0
  146.0588  132.7753  150.9556 C   0  0  2  0  0  0  0  0  0  0  0  0
  146.5169  132.0146  152.1955 C   0  0  0  0  0  0  0  0  0  0  0  0
  147.2040  133.0707  153.0820 C   0  0  1  0  0  0  0  0  0  0  0  0
  148.7474  132.9900  153.0610 C   0  0  0  0  0  0  0  0  0  0  0  0
  149.3094  132.1914  154.1515 N   0  0  0  0  0  0  0  0  0  0  0  0
  148.8011  130.8383  154.3680 C   0  0  0  0  0  0  0  0  0  0  0  0
  150.0105  132.7988  155.1514 C   0  0  0  0  0  0  0  0  0  0  0  0
  150.7641  132.0252  155.9788 N   0  0  0  0  0  0  0  0  0  0  0  0
  151.4377  132.5654  156.9976 C   0  0  0  0  0  0  0  0  0  0  0  0
  151.4977  133.8434  157.3713 N   0  0  0  0  0  0  0  0  0  0  0  0
  150.7597  134.6330  156.5416 C   0  0  0  0  0  0  0  0  0  0  0  0
  149.9999  134.2031  155.4150 C   0  0  0  0  0  0  0  0  0  0  0  0
  149.4021  135.3074  154.8147 N   0  0  0  0  0  0  0  0  0  0  0  0
  149.7734  136.3209  155.5469 C   0  0  0  0  0  0  0  0  0  0  0  0
  150.5775  136.0018  156.6153 N   0  0  0  0  0  0  0  0  0  0  0  0
  151.1203  136.9158  157.6031 C   0  0  0  0  0  0  0  0  0  0  0  0
  150.9921  138.4109  157.2060 C   0  0  2  0  0  0  0  0  0  0  0  0
  151.9399  138.7952  156.0401 C   0  0  0  0  0  0  0  0  0  0  0  0
  151.4919  139.9365  155.3368 O   0  0  0  0  0  0  0  0  0  0  0  0
  151.2316  139.3208  158.4400 C   0  0  2  0  0  0  0  0  0  0  0  0
  151.0387  140.8076  158.1869 C   0  0  0  0  0  0  0  0  0  0  0  0
  151.7752  141.4361  159.3633 C   0  0  0  0  0  0  0  0  0  0  0  0
  152.8683  140.5678  159.6314 O   0  0  0  0  0  0  0  0  0  0  0  0
  152.6707  139.3194  158.9746 C   0  0  0  0  0  0  0  0  0  0  0  0
  146.7613  134.3885  152.5627 N   0  3  2  0  0  0  0  0  0  0  0  0
  146.3527  135.3553  153.6045 C   0  0  0  0  0  0  0  0  0  0  0  0
  145.7355  134.1545  151.5269 C   0  0  0  0  0  0  0  0  0  0  0  0
  146.8900  132.8415  150.2509 H   0  0  0  0  0  0  0  0  0  0  0  0
  146.8390  132.9494  154.1030 H   0  0  0  0  0  0  0  0  0  0  0  0
  143.7439  132.0980  148.6917 H   0  0  0  0  0  0  0  0  0  0  0  0
  145.4144  132.5738  148.3898 H   0  0  0  0  0  0  0  0  0  0  0  0
  144.2897  133.7046  149.1639 H   0  0  0  0  0  0  0  0  0  0  0  0
  145.6464  131.6214  152.7229 H   0  0  0  0  0  0  0  0  0  0  0  0
  147.1497  131.1644  151.9448 H   0  0  0  0  0  0  0  0  0  0  0  0
  149.0677  132.5686  152.1075 H   0  0  0  0  0  0  0  0  0  0  0  0
  149.1859  133.9862  153.0826 H   0  0  0  0  0  0  0  0  0  0  0  0
  149.6090  130.1697  154.6676 H   0  0  0  0  0  0  0  0  0  0  0  0
  148.3593  130.4320  153.4580 H   0  0  0  0  0  0  0  0  0  0  0  0
  148.0381  130.8270  155.1469 H   0  0  0  0  0  0  0  0  0  0  0  0
  152.0045  131.8737  157.6032 H   0  0  0  0  0  0  0  0  0  0  0  0
  149.4580  137.3322  155.3354 H   0  0  0  0  0  0  0  0  0  0  0  0
  150.5987  136.7170  158.5392 H   0  0  0  0  0  0  0  0  0  0  0  0
  152.1668  136.6605  157.7741 H   0  0  0  0  0  0  0  0  0  0  0  0
  149.9670  138.5864  156.8748 H   0  0  0  0  0  0  0  0  0  0  0  0
  152.9360  139.0398  156.4057 H   0  0  0  0  0  0  0  0  0  0  0  0
  152.0590  137.9616  155.3472 H   0  0  0  0  0  0  0  0  0  0  0  0
  151.3622  140.6373  155.9576 H   0  0  0  0  0  0  0  0  0  0  0  0
  150.5612  139.0208  159.2474 H   0  0  0  0  0  0  0  0  0  0  0  0
  151.5130  141.1002  157.2488 H   0  0  0  0  0  0  0  0  0  0  0  0
  149.9916  141.1095  158.1501 H   0  0  0  0  0  0  0  0  0  0  0  0
  152.1121  142.4514  159.1530 H   0  0  0  0  0  0  0  0  0  0  0  0
  151.1308  141.4670  160.2427 H   0  0  0  0  0  0  0  0  0  0  0  0
  152.8598  138.4934  159.6605 H   0  0  0  0  0  0  0  0  0  0  0  0
  153.3890  139.2487  158.1566 H   0  0  0  0  0  0  0  0  0  0  0  0
  145.4994  134.9848  154.1742 H   0  0  0  0  0  0  0  0  0  0  0  0
  146.0762  136.3080  153.1523 H   0  0  0  0  0  0  0  0  0  0  0  0
  147.1735  135.5387  154.2980 H   0  0  0  0  0  0  0  0  0  0  0  0
  145.7440  134.9398  150.7704 H   0  0  0  0  0  0  0  0  0  0  0  0
  144.7460  134.1379  151.9874 H   0  0  0  0  0  0  0  0  0  0  0  0
  147.5596  134.7813  152.0845 H   0  0  0  0  0  0  0  0  0  0  0  0
  1  2  1  0  0  0  0
  1 32  1  0  0  0  0
  1 33  1  0  0  0  0
  1 34  1  0  0  0  0
  2  3  1  0  0  0  0
  3 30  1  0  0  0  0
  3 29  1  0  0  0  0
  3  4  1  0  0  0  0
  4  5  1  0  0  0  0
  4 35  1  0  0  0  0
  4 36  1  0  0  0  0
  5 31  1  0  0  0  0
  5  6  1  0  0  0  0
  5 27  1  0  0  0  0
  6  7  1  0  0  0  0
  6 37  1  0  0  0  0
  6 38  1  0  0  0  0
  7  8  1  0  0  0  0
  7  9  1  0  0  0  0
  8 39  1  0  0  0  0
  8 40  1  0  0  0  0
  8 41  1  0  0  0  0
  9 14  1  0  0  0  0
  9 10  2  0  0  0  0
 10 11  1  0  0  0  0
 11 12  2  0  0  0  0
 11 42  1  0  0  0  0
 12 13  1  0  0  0  0
 13 17  1  0  0  0  0
 13 14  2  0  0  0  0
 14 15  1  0  0  0  0
 15 16  2  0  0  0  0
 16 17  1  0  0  0  0
 16 43  1  0  0  0  0
 17 18  1  0  0  0  0
 18 19  1  0  0  0  0
 18 44  1  0  0  0  0
 18 45  1  0  0  0  0
 19 20  1  0  0  0  0
 19 22  1  0  0  0  0
 19 46  1  0  0  0  0
 20 21  1  0  0  0  0
 20 47  1  0  0  0  0
 20 48  1  0  0  0  0
 21 49  1  0  0  0  0
 22 26  1  0  0  0  0
 22 23  1  0  0  0  0
 22 50  1  0  0  0  0
 23 24  1  0  0  0  0
 23 51  1  0  0  0  0
 23 52  1  0  0  0  0
 24 25  1  0  0  0  0
 24 53  1  0  0  0  0
 24 54  1  0  0  0  0
 25 26  1  0  0  0  0
 26 55  1  0  0  0  0
 26 56  1  0  0  0  0
 27 28  1  0  0  0  0
 27 29  1  0  0  0  0
 27 62  1  0  0  0  0
 28 57  1  0  0  0  0
 28 58  1  0  0  0  0
 28 59  1  0  0  0  0
 29 60  1  0  0  0  0
 29 61  1  0  0  0  0
M  CHG  1  27   1
M  END
> <s_m_source_file>
AV-unprocessed.smi

> <i_m_source_file_index>
21

> <i_lp_mmshare_version>
43012

> <i_f3d_flags>
0

> <s_epik_input>
W0NIM11PW0NASF0xW0NIMl1bQ0BIXShOKFtDSDNdKVtDSDJdMSlbQ0gyXU4oW0NIM10pYyhuW2NIXW4yKWMoYzIzKW5bY0hdbjNbQ0gyXVtDQEhdKFtDSDJdW09IXSlbQ0BASF00W0NIMl1bQ0gyXU9bQ0gyXTQ=

> <s_epik_cmdline>
J2VwaWtfcHl0aG9uJywgJy1waCcsICc3LjAnLCAnLXRuJywgJzgnLCAnLW1hJywgJzIwMCcsICctbWV0YWxfYmluZGluZycsICctaW1hZScsICc8aW5maWxlLm1hZT4nLCAnLW9tYWUnLCAnPG91dGZpbGUubWFlPic=

> <r_lp_tautomer_probability>
1

> <r_epik_Ionization_Penalty>
0.0157465

> <r_epik_Ionization_Penalty_Charging>
0.015354

> <r_epik_Ionization_Penalty_Neutral>
0.000392529

> <r_epik_State_Penalty>
0.0120612

> <r_epik_Charging_Adjusted_Penalty>
0.0274152

> <i_epik_Tot_Q>
1

> <i_epik_Tot_abs_Q>
1

> <r_epik_Metal_State_Penalty>
0.0121253

> <b_epik_Metal_Only>
0

> <s_lp_Force_Field>
OPLS_2005

> <r_lp_Energy>
59.339

> <b_lp_Chiralities_Consistent>
1

> <s_lp_Variant>
AV-unprocessed.smi:21-2

> <Gold.Version>
5.8.1

> <Gold.Id.Protein>
6NUR|6NUR_protein|mol2

> <Gold.PLP.Fitness>
52.8110

> <Gold.PLP.PLP>
-45.3831

> <Gold.PLP.part.hbond>
-3.0000

> <Gold.PLP.part.metal>
0.0000

> <Gold.PLP.part.buried>
-8.4763

> <Gold.PLP.part.nonpolar>
-34.2811

> <Gold.PLP.part.repulsive>
1.0277

> <Gold.PLP.ligand.clash>
0.0000

> <Gold.PLP.ligand.torsion>
1.3362

> <Gold.PLP.Chemscore.Hbond>
3.1674

> <Gold.PLP.Chemscore.CHOScore>
0.0000

> <Gold.PLP.Chemscore.Metal>
0.0000

> <Gold.Chemscore.Hbonds>
donor molecule, donor type, donor heavy atom, donor atom, acceptor molecule, acceptor atom, score
      L1  H    27    62       P1  7948  2.00
      P1  H  6896  6908       L1    12  0.26
      P1  H  7989  7998       L1    21  0.93

> <Gold.PLP.Chemscore.Internal.Correction>
0.5979

> <Gold.Rescore>
     Score         DG    S(hbond)    S(metal)    S(lipo)     H(rot)  DE(clash)    DE(int)     intcor
     11.19     -14.36       1.88        0.00      89.61       3.08       0.19       2.97       ----

> <Gold.Chemscore.Fitness>
11.1941

> <Gold.Chemscore.DG>
-14.3572

> <Gold.Chemscore.ZeroCoef>
-5.4800

> <Gold.Chemscore.Hbond>
1.8765

> <Gold.Chemscore.Metal>
0.0000

> <Gold.Chemscore.Lipo>
89.6069

> <Gold.Chemscore.Internal_Hbond>
0.0000

> <Gold.Chemscore.DEClash>
0.1949

> <Gold.Chemscore.DEInternal>
2.9682

> <Gold.Chemscore.Rot>
3.0758

> <Gold.Chemscore.Internal.Correction>
   9.000000E+99

> <Gold.Chemscore.Hbonds>
donor molecule, donor type, donor heavy atom, donor atom, acceptor molecule, acceptor atom, score
      L1  H    27    62       P1  7948  0.74
      P1  H  6896  6908       L1    12  0.02
      P1  H  7989  7998       L1    21  0.43

> <Gold.Chemscore.Hbond.Weighted>
-6.2674

> <Gold.Chemscore.Metal.Weighted>
-0.0000

> <Gold.Chemscore.Lipo.Weighted>
-10.4840

> <Gold.Chemscore.Internal_Hbond.Weighted>
0.0000

> <Gold.Chemscore.DEClash.Weighted>
0.1949

> <Gold.Chemscore.DEInternal.Weighted>
2.9682

> <Gold.Chemscore.Rot.Weighted>
7.8741

> <Gold.Chemscore.Internal.Correction.Weighted>
   9.000000E+99

> <Gold.Protein.RotatedTorsions>
[ 6907 6896 6895 6894 ] final   82.02 input  -60.11 | X-H torsion
[ 7974 7965 7964 7962 ] final  -63.95 input  175.53 | X-H torsion
[ 8008 7997 7996 7995 ] final -116.28 input   59.86 | X-H torsion
[ 10167 10162 10161 10158 ] final   37.73 input  -65.29 | X-H torsion
[ 10718 10713 10712 10709 ] final  -61.62 input   66.30 | X-H torsion
[ 10763 10752 10751 10750 ] final   74.82 input  -60.55 | X-H torsion
[ 11005 11000 10999 10996 ] final -127.64 input  -57.11 | X-H torsion

> <Gold.Protein.ActiveResidues>
 VAL166  LYS551  ARG553  GLY616  TRP617  ASP618  TYR619  PRO620  LYS621  CYS622 
 ASP623  PHE694  ASN695  SER759  ASP760  ASP761  ALA762  ILE779  LEU786  VAL792 
 PHE793  MET794  SER795  GLU796  ALA797  LYS798  CYS799  TRP800  GLU811  SER814 

> <Gold.Protein.RotatedAtoms>
  152.5286  134.3114  159.9114 H   0  0  0  0  0  0  0  0  0  0  0  0  # atno 6907 bound_to 6896
  151.3064  133.4093  159.2651 H   0  0  0  0  0  0  0  0  0  0  0  0  # atno 6908 bound_to 6896
  151.0075  134.9388  159.8046 H   0  0  0  0  0  0  0  0  0  0  0  0  # atno 6909 bound_to 6896
  145.7728  140.8804  143.0371 H   0  0  0  0  0  0  0  0  0  0  0  0  # atno 7974 bound_to 7965
  155.0654  140.0393  157.2591 H   0  0  0  0  0  0  0  0  0  0  0  0  # atno 8008 bound_to 7997
  154.7026  140.2676  155.6681 H   0  0  0  0  0  0  0  0  0  0  0  0  # atno 8009 bound_to 7997
  156.2765  140.2737  156.1641 H   0  0  0  0  0  0  0  0  0  0  0  0  # atno 8010 bound_to 7997
  140.4004  144.1731  150.6133 H   0  0  0  0  0  0  0  0  0  0  0  0  # atno 10167 bound_to 10162
  156.0909  130.4200  150.1020 H   0  0  0  0  0  0  0  0  0  0  0  0  # atno 10718 bound_to 10713
  153.0613  135.5011  154.8099 H   0  0  0  0  0  0  0  0  0  0  0  0  # atno 10763 bound_to 10752
  154.6886  135.2980  154.9514 H   0  0  0  0  0  0  0  0  0  0  0  0  # atno 10764 bound_to 10752
  154.0276  135.6734  153.4830 H   0  0  0  0  0  0  0  0  0  0  0  0  # atno 10765 bound_to 10752
  140.9582  134.0972  157.3994 H   0  0  0  0  0  0  0  0  0  0  0  0  # atno 11005 bound_to 11000
  144.6810  139.9879  143.7484 LP  0  0  0  0  0  0  0  0  0  0  0  0  # atno 17320 bound_to 7965
  146.0153  139.3204  143.0845 LP  0  0  0  0  0  0  0  0  0  0  0  0  # atno 17321 bound_to 7965
  140.4745  143.2401  151.9042 LP  0  0  0  0  0  0  0  0  0  0  0  0  # atno 17342 bound_to 10162
  139.4785  144.5334  151.8633 LP  0  0  0  0  0  0  0  0  0  0  0  0  # atno 17343 bound_to 10162
  156.9030  130.9626  151.3573 LP  0  0  0  0  0  0  0  0  0  0  0  0  # atno 17370 bound_to 10713
  157.6058  130.8546  149.8873 LP  0  0  0  0  0  0  0  0  0  0  0  0  # atno 17371 bound_to 10713
  139.8869  135.0085  156.6529 LP  0  0  0  0  0  0  0  0  0  0  0  0  # atno 17394 bound_to 11000
  140.7505  133.8901  155.8343 LP  0  0  0  0  0  0  0  0  0  0  0  0  # atno 17395 bound_to 11000

$$$$
