AV-unprocessed.smi:2330|AV-procd|sdf|9313|dock2
  -GOLD-   2272012533D 1   1.00000     0.00000
 Structure written by MMmdl.
 42 43  0  0  0  0  0  0  0  0  1 V2000
  144.3419  134.7741  149.5621 C   0  0  0  0  0  0  0  0  0  0  0  0
  144.7371  134.2257  150.9403 C   0  0  2  0  0  0  0  0  0  0  0  0
  144.3388  135.1958  152.0689 C   0  0  0  0  0  0  0  0  0  0  0  0
  144.7296  134.6475  153.4529 C   0  0  0  0  0  0  0  0  0  0  0  0
  146.2264  134.2918  153.5411 C   0  0  2  0  0  0  0  0  0  0  0  0
  147.0389  135.5077  153.5363 N   0  0  0  0  0  0  0  0  0  0  0  0
  146.8953  136.5551  154.3600 C   0  0  0  0  0  0  0  0  0  0  0  0
  146.0598  136.6233  155.2615 O   0  0  0  0  0  0  0  0  0  0  0  0
  147.7631  137.5333  154.0686 N   0  0  0  0  0  0  0  0  0  0  0  0
  147.8090  138.8363  154.7263 C   0  0  0  0  0  0  0  0  0  0  0  0
  148.8996  139.7639  154.1450 C   0  0  1  0  0  0  0  0  0  0  0  0
  148.6769  141.2420  154.4949 C   0  0  0  0  0  0  0  0  0  0  0  0
  150.2921  139.3096  154.4641 C   0  0  0  0  0  0  0  0  0  0  0  0
  151.2597  140.1255  154.8950 N   0  0  0  0  0  0  0  0  0  0  0  0
  152.4584  139.4516  155.1399 C   0  0  0  0  0  0  0  0  0  0  0  0
  152.3896  138.1043  154.8930 C   0  0  0  0  0  0  0  0  0  0  0  0
  150.8076  137.6299  154.3392 S   0  0  0  0  0  0  0  0  0  0  0  0
  146.6437  133.3557  152.3901 C   0  0  0  0  0  0  0  0  0  0  0  0
  146.2433  133.9094  151.0108 C   0  0  0  0  0  0  0  0  0  0  0  0
  144.8566  135.7107  149.3451 H   0  0  0  0  0  0  0  0  0  0  0  0
  143.2693  134.9625  149.5075 H   0  0  0  0  0  0  0  0  0  0  0  0
  144.5915  134.0657  148.7717 H   0  0  0  0  0  0  0  0  0  0  0  0
  144.1907  133.2933  151.0910 H   0  0  0  0  0  0  0  0  0  0  0  0
  144.8155  136.1639  151.9096 H   0  0  0  0  0  0  0  0  0  0  0  0
  143.2635  135.3768  152.0419 H   0  0  0  0  0  0  0  0  0  0  0  0
  144.4668  135.3678  154.2288 H   0  0  0  0  0  0  0  0  0  0  0  0
  144.1391  133.7537  153.6587 H   0  0  0  0  0  0  0  0  0  0  0  0
  146.3822  133.7557  154.4788 H   0  0  0  0  0  0  0  0  0  0  0  0
  147.7584  135.5616  152.8302 H   0  0  0  0  0  0  0  0  0  0  0  0
  148.4130  137.3842  153.3107 H   0  0  0  0  0  0  0  0  0  0  0  0
  146.8302  139.3162  154.6786 H   0  0  0  0  0  0  0  0  0  0  0  0
  148.0111  138.6551  155.7823 H   0  0  0  0  0  0  0  0  0  0  0  0
  148.8093  139.7023  153.0597 H   0  0  0  0  0  0  0  0  0  0  0  0
  149.4021  141.8789  153.9875 H   0  0  0  0  0  0  0  0  0  0  0  0
  148.7741  141.4147  155.5671 H   0  0  0  0  0  0  0  0  0  0  0  0
  147.6816  141.5705  154.1944 H   0  0  0  0  0  0  0  0  0  0  0  0
  153.3134  140.0105  155.4909 H   0  0  0  0  0  0  0  0  0  0  0  0
  153.1695  137.3655  155.0028 H   0  0  0  0  0  0  0  0  0  0  0  0
  147.7187  133.1739  152.4227 H   0  0  0  0  0  0  0  0  0  0  0  0
  146.1690  132.3840  152.5319 H   0  0  0  0  0  0  0  0  0  0  0  0
  146.5077  133.1854  150.2394 H   0  0  0  0  0  0  0  0  0  0  0  0
  146.8207  134.8095  150.7955 H   0  0  0  0  0  0  0  0  0  0  0  0
  1  2  1  0  0  0  0
  1 20  1  0  0  0  0
  1 21  1  0  0  0  0
  1 22  1  0  0  0  0
  2 19  1  0  0  0  0
  2  3  1  0  0  0  0
  2 23  1  0  0  0  0
  3  4  1  0  0  0  0
  3 24  1  0  0  0  0
  3 25  1  0  0  0  0
  4  5  1  0  0  0  0
  4 26  1  0  0  0  0
  4 27  1  0  0  0  0
  5  6  1  0  0  0  0
  5 18  1  0  0  0  0
  5 28  1  0  0  0  0
  6  7  1  0  0  0  0
  6 29  1  0  0  0  0
  7  8  2  0  0  0  0
  7  9  1  0  0  0  0
  9 10  1  0  0  0  0
  9 30  1  0  0  0  0
 10 11  1  0  0  0  0
 10 31  1  0  0  0  0
 10 32  1  0  0  0  0
 11 12  1  0  0  0  0
 11 13  1  0  0  0  0
 11 33  1  0  0  0  0
 12 34  1  0  0  0  0
 12 35  1  0  0  0  0
 12 36  1  0  0  0  0
 13 17  1  0  0  0  0
 13 14  2  0  0  0  0
 14 15  1  0  0  0  0
 15 16  2  0  0  0  0
 15 37  1  0  0  0  0
 16 17  1  0  0  0  0
 16 38  1  0  0  0  0
 18 19  1  0  0  0  0
 18 39  1  0  0  0  0
 18 40  1  0  0  0  0
 19 41  1  0  0  0  0
 19 42  1  0  0  0  0
M  END
> <s_m_source_file>
AV-unprocessed.smi

> <i_m_source_file_index>
2330

> <i_lp_mmshare_version>
43012

> <i_f3d_flags>
0

> <s_epik_input>
W0NIM11bQ0BASF0xW0NIMl1bQ0gyXVtDQEhdKFtDSDJdW0NIMl0xKVtOSF1DKD1PKVtOSF1bQ0gyXVtDQEhdKFtDSDNdKWMybltjSF1bY0hdczI=

> <s_epik_cmdline>
J2VwaWtfcHl0aG9uJywgJy1waCcsICc3LjAnLCAnLXRuJywgJzgnLCAnLW1hJywgJzIwMCcsICctbWV0YWxfYmluZGluZycsICctaW1hZScsICc8aW5maWxlLm1hZT4nLCAnLW9tYWUnLCAnPG91dGZpbGUubWFlPic=

> <r_lp_tautomer_probability>
1

> <r_epik_Ionization_Penalty>
0.000331107

> <r_epik_Ionization_Penalty_Charging>
0

> <r_epik_Ionization_Penalty_Neutral>
0.000331107

> <r_epik_State_Penalty>
-0

> <r_epik_Charging_Adjusted_Penalty>
0

> <i_epik_Tot_Q>
0

> <i_epik_Tot_abs_Q>
0

> <r_epik_Metal_State_Penalty>
-0

> <b_epik_Metal_Only>
0

> <s_lp_Force_Field>
OPLS_2005

> <r_lp_Energy>
-2.32189

> <b_lp_Chiralities_Consistent>
1

> <s_lp_Variant>
AV-unprocessed.smi:2330-4

> <Gold.Version>
5.8.1

> <Gold.Id.Protein>
6NUR|6NUR_protein|mol2

> <Gold.PLP.Fitness>
37.8919

> <Gold.PLP.PLP>
-29.6099

> <Gold.PLP.part.hbond>
-3.0000

> <Gold.PLP.part.metal>
0.0000

> <Gold.PLP.part.buried>
1.5608

> <Gold.PLP.part.nonpolar>
-28.3912

> <Gold.PLP.part.repulsive>
0.0779

> <Gold.PLP.ligand.clash>
0.0000

> <Gold.PLP.ligand.torsion>
0.3621

> <Gold.PLP.Chemscore.Hbond>
2.9600

> <Gold.PLP.Chemscore.CHOScore>
0.0000

> <Gold.PLP.Chemscore.Metal>
0.0000

> <Gold.Chemscore.Hbonds>
donor molecule, donor type, donor heavy atom, donor atom, acceptor molecule, acceptor atom, score
      L1  H     6    29       P1  7948  1.00
      L1  H     9    30       P1  7948  0.94
      P1  H  7989  7998       L1    14  1.00

> <Gold.PLP.Chemscore.Internal.Correction>
0.1263

> <Gold.Rescore>
     Score         DG    S(hbond)    S(metal)    S(lipo)     H(rot)  DE(clash)    DE(int)     intcor
     15.93     -18.28       2.05        0.00      82.62       1.45       0.77       1.57       ----

> <Gold.Chemscore.Fitness>
15.9327

> <Gold.Chemscore.DG>
-18.2753

> <Gold.Chemscore.ZeroCoef>
-5.4800

> <Gold.Chemscore.Hbond>
2.0509

> <Gold.Chemscore.Metal>
0.0000

> <Gold.Chemscore.Lipo>
82.6183

> <Gold.Chemscore.Internal_Hbond>
0.0000

> <Gold.Chemscore.DEClash>
0.7714

> <Gold.Chemscore.DEInternal>
1.5713

> <Gold.Chemscore.Rot>
1.4536

> <Gold.Chemscore.Internal.Correction>
   9.000000E+99

> <Gold.Chemscore.Hbonds>
donor molecule, donor type, donor heavy atom, donor atom, acceptor molecule, acceptor atom, score
      L1  H     6    29       P1  7948  0.99
      L1  H     9    30       P1  7948  0.91
      P1  H  7989  7998       L1    14  0.06

> <Gold.Chemscore.Hbond.Weighted>
-6.8502

> <Gold.Chemscore.Metal.Weighted>
-0.0000

> <Gold.Chemscore.Lipo.Weighted>
-9.6663

> <Gold.Chemscore.Internal_Hbond.Weighted>
0.0000

> <Gold.Chemscore.DEClash.Weighted>
0.7714

> <Gold.Chemscore.DEInternal.Weighted>
1.5713

> <Gold.Chemscore.Rot.Weighted>
3.7212

> <Gold.Chemscore.Internal.Correction.Weighted>
   9.000000E+99

> <Gold.Protein.RotatedTorsions>
[ 6907 6896 6895 6894 ] final  -75.26 input  -60.11 | X-H torsion
[ 7974 7965 7964 7962 ] final   10.94 input  175.53 | X-H torsion
[ 8008 7997 7996 7995 ] final  -68.25 input   59.86 | X-H torsion
[ 10167 10162 10161 10158 ] final  -32.71 input  -65.29 | X-H torsion
[ 10718 10713 10712 10709 ] final  -77.29 input   66.30 | X-H torsion
[ 10763 10752 10751 10750 ] final -140.21 input  -60.55 | X-H torsion
[ 11005 11000 10999 10996 ] final  -16.58 input  -57.11 | X-H torsion

> <Gold.Protein.ActiveResidues>
 VAL166  LYS551  ARG553  GLY616  TRP617  ASP618  TYR619  PRO620  LYS621  CYS622 
 ASP623  PHE694  ASN695  SER759  ASP760  ASP761  ALA762  ILE779  LEU786  VAL792 
 PHE793  MET794  SER795  GLU796  ALA797  LYS798  CYS799  TRP800  GLU811  SER814 

> <Gold.Protein.RotatedAtoms>
  150.7065  134.4747  159.5441 H   0  0  0  0  0  0  0  0  0  0  0  0  # atno 6907 bound_to 6896
  152.2396  134.8239  160.0471 H   0  0  0  0  0  0  0  0  0  0  0  0  # atno 6908 bound_to 6896
  151.9025  133.3506  159.3872 H   0  0  0  0  0  0  0  0  0  0  0  0  # atno 6909 bound_to 6896
  146.2380  139.9559  142.8464 H   0  0  0  0  0  0  0  0  0  0  0  0  # atno 7974 bound_to 7965
  154.4855  140.0876  156.7476 H   0  0  0  0  0  0  0  0  0  0  0  0  # atno 8008 bound_to 7997
  155.4361  140.3452  155.4267 H   0  0  0  0  0  0  0  0  0  0  0  0  # atno 8009 bound_to 7997
  156.1255  140.1486  156.9131 H   0  0  0  0  0  0  0  0  0  0  0  0  # atno 8010 bound_to 7997
  140.7217  143.3674  151.1843 H   0  0  0  0  0  0  0  0  0  0  0  0  # atno 10167 bound_to 10162
  156.0149  130.4487  150.3323 H   0  0  0  0  0  0  0  0  0  0  0  0  # atno 10718 bound_to 10713
  154.8585  135.3560  154.5671 H   0  0  0  0  0  0  0  0  0  0  0  0  # atno 10763 bound_to 10752
  153.6285  135.7003  153.5289 H   0  0  0  0  0  0  0  0  0  0  0  0  # atno 10764 bound_to 10752
  153.3069  135.4190  155.1262 H   0  0  0  0  0  0  0  0  0  0  0  0  # atno 10765 bound_to 10752
  140.8082  133.8161  155.9537 H   0  0  0  0  0  0  0  0  0  0  0  0  # atno 11005 bound_to 11000
  145.1817  140.9770  143.4262 LP  0  0  0  0  0  0  0  0  0  0  0  0  # atno 17320 bound_to 7965
  144.9936  139.3665  143.6202 LP  0  0  0  0  0  0  0  0  0  0  0  0  # atno 17321 bound_to 7965
  139.7239  143.9180  152.2995 LP  0  0  0  0  0  0  0  0  0  0  0  0  # atno 17342 bound_to 10162
  139.8946  144.6946  150.8732 LP  0  0  0  0  0  0  0  0  0  0  0  0  # atno 17343 bound_to 10162
  157.1421  131.0299  151.2923 LP  0  0  0  0  0  0  0  0  0  0  0  0  # atno 17370 bound_to 10713
  157.4463  130.7573  149.7113 LP  0  0  0  0  0  0  0  0  0  0  0  0  # atno 17371 bound_to 10713
  140.9225  134.2124  157.4917 LP  0  0  0  0  0  0  0  0  0  0  0  0  # atno 17394 bound_to 11000
  139.8716  134.9798  156.5052 LP  0  0  0  0  0  0  0  0  0  0  0  0  # atno 17395 bound_to 11000

$$$$
