AV-unprocessed.smi:3025|AV-procd|sdf|11510|dock6
  -GOLD-   2272016443D 1   1.00000     0.00000
 Structure written by MMmdl.
 42 43  0  0  0  0  0  0  0  0  2 V2000
  144.1249  133.0944  150.4311 C   0  0  0  0  0  0  0  0  0  0  0  0
  144.4283  134.5950  150.4990 C   0  0  0  0  0  0  0  0  0  0  0  0
  145.1267  134.9943  151.8099 C   0  0  0  0  0  0  0  0  0  0  0  0
  145.2548  136.5174  152.0205 C   0  0  2  0  0  0  0  0  0  0  0  0
  146.1405  137.1929  150.9516 C   0  0  0  0  0  0  0  0  0  0  0  0
  146.2724  138.7068  151.1919 C   0  0  0  0  0  0  0  0  0  0  0  0
  146.8021  139.0350  152.6040 C   0  0  2  0  0  0  0  0  0  0  0  0
  148.2268  138.6651  152.7748 N   0  3  0  0  0  0  0  0  0  0  0  0
  148.7732  138.8515  154.1353 C   0  0  0  0  0  0  0  0  0  0  0  0
  150.2605  138.4779  154.1872 C   0  0  0  0  0  0  0  0  0  0  0  0
  150.9542  139.0712  155.3694 C   0  0  0  0  0  0  0  0  0  0  0  0
  151.9740  139.9347  155.2962 N   0  0  0  0  0  0  0  0  0  0  0  0
  152.2976  140.2406  156.6086 N   0  0  0  0  0  0  0  0  0  0  0  0
  151.4402  139.5333  157.3460 C   0  0  0  0  0  0  0  0  0  0  0  0
  150.5851  138.7941  156.6293 N   0  0  0  0  0  0  0  0  0  0  0  0
  145.9362  138.3423  153.6725 C   0  0  0  0  0  0  0  0  0  0  0  0
  145.8027  136.8289  153.4276 C   0  0  0  0  0  0  0  0  0  0  0  0
  149.8513  138.1833  156.9580 H   0  0  0  0  0  0  0  0  0  0  0  0
  143.6350  132.8394  149.4911 H   0  0  0  0  0  0  0  0  0  0  0  0
  143.4650  132.7877  151.2433 H   0  0  0  0  0  0  0  0  0  0  0  0
  145.0389  132.5041  150.5005 H   0  0  0  0  0  0  0  0  0  0  0  0
  145.0479  134.8638  149.6439 H   0  0  0  0  0  0  0  0  0  0  0  0
  143.4969  135.1527  150.3947 H   0  0  0  0  0  0  0  0  0  0  0  0
  144.5569  134.5725  152.6391 H   0  0  0  0  0  0  0  0  0  0  0  0
  146.1129  134.5308  151.8575 H   0  0  0  0  0  0  0  0  0  0  0  0
  144.2544  136.9486  151.9552 H   0  0  0  0  0  0  0  0  0  0  0  0
  147.1297  136.7335  150.9449 H   0  0  0  0  0  0  0  0  0  0  0  0
  145.7235  137.0347  149.9575 H   0  0  0  0  0  0  0  0  0  0  0  0
  146.8985  139.1548  150.4208 H   0  0  0  0  0  0  0  0  0  0  0  0
  145.2894  139.1646  151.0714 H   0  0  0  0  0  0  0  0  0  0  0  0
  146.7250  140.1112  152.7656 H   0  0  0  0  0  0  0  0  0  0  0  0
  148.3141  137.6847  152.5483 H   0  0  0  0  0  0  0  0  0  0  0  0
  148.6459  139.8890  154.4445 H   0  0  0  0  0  0  0  0  0  0  0  0
  148.2145  138.2330  154.8389 H   0  0  0  0  0  0  0  0  0  0  0  0
  150.3757  137.3934  154.2160 H   0  0  0  0  0  0  0  0  0  0  0  0
  150.7658  138.8210  153.2833 H   0  0  0  0  0  0  0  0  0  0  0  0
  151.4356  139.5578  158.4259 H   0  0  0  0  0  0  0  0  0  0  0  0
  146.3440  138.5255  154.6673 H   0  0  0  0  0  0  0  0  0  0  0  0
  144.9407  138.7883  153.6683 H   0  0  0  0  0  0  0  0  0  0  0  0
  145.1450  136.4010  154.1851 H   0  0  0  0  0  0  0  0  0  0  0  0
  146.7724  136.3473  153.5611 H   0  0  0  0  0  0  0  0  0  0  0  0
  148.7816  139.1951  152.1176 H   0  0  0  0  0  0  0  0  0  0  0  0
  1  2  1  0  0  0  0
  1 19  1  0  0  0  0
  1 20  1  0  0  0  0
  1 21  1  0  0  0  0
  2  3  1  0  0  0  0
  2 22  1  0  0  0  0
  2 23  1  0  0  0  0
  3  4  1  0  0  0  0
  3 24  1  0  0  0  0
  3 25  1  0  0  0  0
  4 17  1  0  0  0  0
  4  5  1  0  0  0  0
  4 26  1  0  0  0  0
  5  6  1  0  0  0  0
  5 27  1  0  0  0  0
  5 28  1  0  0  0  0
  6  7  1  0  0  0  0
  6 29  1  0  0  0  0
  6 30  1  0  0  0  0
  7  8  1  0  0  0  0
  7 16  1  0  0  0  0
  7 31  1  0  0  0  0
  8  9  1  0  0  0  0
  8 32  1  0  0  0  0
  8 42  1  0  0  0  0
  9 10  1  0  0  0  0
  9 33  1  0  0  0  0
  9 34  1  0  0  0  0
 10 11  1  0  0  0  0
 10 35  1  0  0  0  0
 10 36  1  0  0  0  0
 11 15  1  0  0  0  0
 11 12  2  0  0  0  0
 12 13  1  0  0  0  0
 13 14  2  0  0  0  0
 14 15  1  0  0  0  0
 14 37  1  0  0  0  0
 15 18  1  0  0  0  0
 16 17  1  0  0  0  0
 16 38  1  0  0  0  0
 16 39  1  0  0  0  0
 17 40  1  0  0  0  0
 17 41  1  0  0  0  0
M  CHG  1   8   1
M  END
> <s_m_source_file>
AV-unprocessed.smi

> <i_m_source_file_index>
3025

> <i_lp_mmshare_version>
43012

> <i_f3d_flags>
0

> <s_epik_input>
W0NIM11bQ0gyXVtDSDJdW0NAQEhdMVtDSDJdW0NIMl1bQ0BIXShbQ0gyXVtDSDJdMSlbTkhdW0NIMl1bQ0gyXWMybm5bY0hdW25IXTI=

> <s_epik_cmdline>
J2VwaWtfcHl0aG9uJywgJy1waCcsICc3LjAnLCAnLXRuJywgJzgnLCAnLW1hJywgJzIwMCcsICctbWV0YWxfYmluZGluZycsICctaW1hZScsICc8aW5maWxlLm1hZT4nLCAnLW9tYWUnLCAnPG91dGZpbGUubWFlPic=

> <r_lp_tautomer_probability>
0.0517155

> <r_epik_Ionization_Penalty>
0.0349397

> <r_epik_Ionization_Penalty_Charging>
0.000546397

> <r_epik_Ionization_Penalty_Neutral>
0.0343933

> <r_epik_State_Penalty>
2.24019

> <r_epik_Charging_Adjusted_Penalty>
2.24074

> <i_epik_Tot_Q>
1

> <i_epik_Tot_abs_Q>
1

> <r_epik_Metal_State_Penalty>
2.47389

> <b_epik_Metal_Only>
0

> <s_lp_Force_Field>
OPLS_2005

> <r_lp_Energy>
17.8014

> <b_lp_Chiralities_Consistent>
1

> <s_lp_Variant>
AV-unprocessed.smi:3025-6

> <Gold.Version>
5.8.1

> <Gold.Id.Protein>
6NUR|6NUR_protein|mol2

> <Gold.PLP.Fitness>
42.7221

> <Gold.PLP.PLP>
-28.7723

> <Gold.PLP.part.hbond>
-3.8821

> <Gold.PLP.part.metal>
0.0000

> <Gold.PLP.part.buried>
2.9204

> <Gold.PLP.part.nonpolar>
-29.4037

> <Gold.PLP.part.repulsive>
0.0930

> <Gold.PLP.ligand.clash>
0.0000

> <Gold.PLP.ligand.torsion>
0.1496

> <Gold.PLP.Chemscore.Hbond>
4.7418

> <Gold.PLP.Chemscore.CHOScore>
0.0000

> <Gold.PLP.Chemscore.Metal>
0.0000

> <Gold.Chemscore.Hbonds>
donor molecule, donor type, donor heavy atom, donor atom, acceptor molecule, acceptor atom, score
      L1  H     8    32       P1  7948  2.00
      L1  H     8    42       P1  7957  0.93
      P1  H  7989  7998       L1    12  0.84
      P1  H  7997  8008       L1    13  0.94

> <Gold.PLP.Chemscore.Internal.Correction>
0.0237

> <Gold.Rescore>
     Score         DG    S(hbond)    S(metal)    S(lipo)     H(rot)  DE(clash)    DE(int)     intcor
     16.24     -19.17       3.58        0.00      70.71       2.56       2.62       0.31       ----

> <Gold.Chemscore.Fitness>
16.2355

> <Gold.Chemscore.DG>
-19.1679

> <Gold.Chemscore.ZeroCoef>
-5.4800

> <Gold.Chemscore.Hbond>
3.5837

> <Gold.Chemscore.Metal>
0.0000

> <Gold.Chemscore.Lipo>
70.7051

> <Gold.Chemscore.Internal_Hbond>
0.0000

> <Gold.Chemscore.DEClash>
2.6205

> <Gold.Chemscore.DEInternal>
0.3119

> <Gold.Chemscore.Rot>
2.5602

> <Gold.Chemscore.Internal.Correction>
   9.000000E+99

> <Gold.Chemscore.Hbonds>
donor molecule, donor type, donor heavy atom, donor atom, acceptor molecule, acceptor atom, score
      L1  H     8    32       P1  7948  0.99
      L1  H     8    42       P1  7957  0.88
      P1  H  7989  7998       L1    12  0.31
      P1  H  7997  8008       L1    13  0.26

> <Gold.Chemscore.Hbond.Weighted>
-11.9696

> <Gold.Chemscore.Metal.Weighted>
-0.0000

> <Gold.Chemscore.Lipo.Weighted>
-8.2725

> <Gold.Chemscore.Internal_Hbond.Weighted>
0.0000

> <Gold.Chemscore.DEClash.Weighted>
2.6205

> <Gold.Chemscore.DEInternal.Weighted>
0.3119

> <Gold.Chemscore.Rot.Weighted>
6.5542

> <Gold.Chemscore.Internal.Correction.Weighted>
   9.000000E+99

> <Gold.Protein.RotatedTorsions>
[ 6907 6896 6895 6894 ] final  -52.99 input  -60.11 | X-H torsion
[ 7974 7965 7964 7962 ] final  -15.93 input  175.53 | X-H torsion
[ 8008 7997 7996 7995 ] final  -54.33 input   59.86 | X-H torsion
[ 10167 10162 10161 10158 ] final   40.02 input  -65.29 | X-H torsion
[ 10718 10713 10712 10709 ] final  139.93 input   66.30 | X-H torsion
[ 10763 10752 10751 10750 ] final  -85.78 input  -60.55 | X-H torsion
[ 11005 11000 10999 10996 ] final   71.71 input  -57.11 | X-H torsion

> <Gold.Protein.ActiveResidues>
 VAL166  LYS551  ARG553  GLY616  TRP617  ASP618  TYR619  PRO620  LYS621  CYS622 
 ASP623  PHE694  ASN695  SER759  ASP760  ASP761  ALA762  ILE779  LEU786  VAL792 
 PHE793  MET794  SER795  GLU796  ALA797  LYS798  CYS799  TRP800  GLU811  SER814 

> <Gold.Protein.RotatedAtoms>
  150.8468  134.7779  159.6976 H   0  0  0  0  0  0  0  0  0  0  0  0  # atno 6907 bound_to 6896
  152.4542  134.5323  159.9824 H   0  0  0  0  0  0  0  0  0  0  0  0  # atno 6908 bound_to 6896
  151.5452  133.3388  159.2978 H   0  0  0  0  0  0  0  0  0  0  0  0  # atno 6909 bound_to 6896
  146.2010  140.3563  142.8423 H   0  0  0  0  0  0  0  0  0  0  0  0  # atno 7974 bound_to 7965
  154.4159  140.1179  156.5298 H   0  0  0  0  0  0  0  0  0  0  0  0  # atno 8008 bound_to 7997
  155.6618  140.3496  155.4766 H   0  0  0  0  0  0  0  0  0  0  0  0  # atno 8009 bound_to 7997
  155.9707  140.1141  157.0804 H   0  0  0  0  0  0  0  0  0  0  0  0  # atno 8010 bound_to 7997
  140.3783  144.2013  150.6131 H   0  0  0  0  0  0  0  0  0  0  0  0  # atno 10167 bound_to 10162
  157.4089  131.1025  151.0474 H   0  0  0  0  0  0  0  0  0  0  0  0  # atno 10718 bound_to 10713
  154.6150  135.5473  153.7513 H   0  0  0  0  0  0  0  0  0  0  0  0  # atno 10763 bound_to 10752
  153.0212  135.6399  154.1524 H   0  0  0  0  0  0  0  0  0  0  0  0  # atno 10764 bound_to 10752
  154.1460  135.2905  155.3128 H   0  0  0  0  0  0  0  0  0  0  0  0  # atno 10765 bound_to 10752
  139.9529  134.7195  156.0820 H   0  0  0  0  0  0  0  0  0  0  0  0  # atno 11005 bound_to 11000
  144.8684  140.7238  143.6062 LP  0  0  0  0  0  0  0  0  0  0  0  0  # atno 17320 bound_to 7965
  145.3483  139.1713  143.4448 LP  0  0  0  0  0  0  0  0  0  0  0  0  # atno 17321 bound_to 7965
  140.4963  143.2331  151.8744 LP  0  0  0  0  0  0  0  0  0  0  0  0  # atno 17342 bound_to 10162
  139.4797  144.5109  151.8933 LP  0  0  0  0  0  0  0  0  0  0  0  0  # atno 17343 bound_to 10162
  157.1446  130.6158  149.5565 LP  0  0  0  0  0  0  0  0  0  0  0  0  # atno 17370 bound_to 10713
  155.9845  130.4870  150.6985 LP  0  0  0  0  0  0  0  0  0  0  0  0  # atno 17371 bound_to 10713
  141.1195  133.6617  156.3179 LP  0  0  0  0  0  0  0  0  0  0  0  0  # atno 17394 bound_to 11000
  140.5677  134.5872  157.5450 LP  0  0  0  0  0  0  0  0  0  0  0  0  # atno 17395 bound_to 11000

$$$$
