AV-unprocessed.smi:1070|AV-procd|sdf|4676|dock4
  -GOLD-   22720 3193D 1   1.00000     0.00000
 Structure written by MMmdl.
 48 49  0  0  0  0  0  0  0  0  1 V2000
  149.3342  135.0518  155.0050 C   0  0  0  0  0  0  0  0  0  0  0  0
  150.7131  135.7154  154.9886 C   0  0  0  0  0  0  0  0  0  0  0  0
  150.5474  137.1179  155.1008 O   0  0  0  0  0  0  0  0  0  0  0  0
  151.7790  137.8245  155.0472 C   0  0  0  0  0  0  0  0  0  0  0  0
  151.5478  139.2699  155.4873 C   0  0  0  0  0  0  0  0  0  0  0  0
  151.0966  140.0846  154.6831 O   0  0  0  0  0  0  0  0  0  0  0  0
  151.8633  139.5509  156.7639 N   0  0  0  0  0  0  0  0  0  0  0  0
  151.8568  140.8157  157.4144 C   0  0  0  0  0  0  0  0  0  0  0  0
  151.0377  141.8853  156.9826 C   0  0  0  0  0  0  0  0  0  0  0  0
  151.0499  143.0927  157.7039 C   0  0  0  0  0  0  0  0  0  0  0  0
  151.8712  143.1931  158.8419 C   0  0  0  0  0  0  0  0  0  0  0  0
  151.8824  144.3780  159.5488 O   0  0  0  0  0  0  0  0  0  0  0  0
  150.8325  145.3111  159.3177 C   0  0  0  0  0  0  0  0  0  0  0  0
  152.6476  142.1687  159.2697 N   0  0  0  0  0  0  0  0  0  0  0  0
  152.6460  141.0033  158.5799 C   0  0  0  0  0  0  0  0  0  0  0  0
  153.4833  139.9727  159.0513 N   0  0  0  0  0  0  0  0  0  0  0  0
  152.8363  138.7499  159.5301 C   0  0  0  0  0  0  0  0  0  0  0  0
  153.8808  137.6407  159.7594 C   0  0  0  0  0  0  0  0  0  0  0  0
  154.9270  138.1446  160.6594 N   0  0  0  0  0  0  0  0  0  0  0  0
  155.1216  137.6564  161.9074 C   0  0  0  0  0  0  0  0  0  0  0  0
  154.2610  136.4895  162.3969 C   0  0  0  0  0  0  0  0  0  0  0  0
  155.9682  138.1128  162.6759 O   0  0  0  0  0  0  0  0  0  0  0  0
  155.6245  139.2991  160.0754 C   0  0  0  0  0  0  0  0  0  0  0  0
  154.6113  140.4379  159.8589 C   0  0  0  0  0  0  0  0  0  0  0  0
  149.4229  133.9673  154.9400 H   0  0  0  0  0  0  0  0  0  0  0  0
  148.7291  135.3881  154.1630 H   0  0  0  0  0  0  0  0  0  0  0  0
  148.7953  135.2896  155.9226 H   0  0  0  0  0  0  0  0  0  0  0  0
  151.3175  135.3426  155.8168 H   0  0  0  0  0  0  0  0  0  0  0  0
  151.2331  135.4689  154.0617 H   0  0  0  0  0  0  0  0  0  0  0  0
  152.5149  137.3549  155.7024 H   0  0  0  0  0  0  0  0  0  0  0  0
  152.1796  137.8193  154.0324 H   0  0  0  0  0  0  0  0  0  0  0  0
  152.2956  138.7995  157.2824 H   0  0  0  0  0  0  0  0  0  0  0  0
  150.3899  141.7926  156.1243 H   0  0  0  0  0  0  0  0  0  0  0  0
  150.4341  143.9239  157.3937 H   0  0  0  0  0  0  0  0  0  0  0  0
  150.9800  146.1849  159.9520 H   0  0  0  0  0  0  0  0  0  0  0  0
  149.8586  144.8850  159.5636 H   0  0  0  0  0  0  0  0  0  0  0  0
  150.8226  145.6521  158.2814 H   0  0  0  0  0  0  0  0  0  0  0  0
  152.3072  138.9563  160.4617 H   0  0  0  0  0  0  0  0  0  0  0  0
  152.0945  138.4172  158.8028 H   0  0  0  0  0  0  0  0  0  0  0  0
  153.3878  136.7448  160.1385 H   0  0  0  0  0  0  0  0  0  0  0  0
  154.3353  137.3523  158.8104 H   0  0  0  0  0  0  0  0  0  0  0  0
  154.3957  135.6153  161.7593 H   0  0  0  0  0  0  0  0  0  0  0  0
  153.2060  136.7648  162.4054 H   0  0  0  0  0  0  0  0  0  0  0  0
  154.5388  136.2064  163.4127 H   0  0  0  0  0  0  0  0  0  0  0  0
  156.4589  139.6604  160.6742 H   0  0  0  0  0  0  0  0  0  0  0  0
  156.0572  139.0035  159.1189 H   0  0  0  0  0  0  0  0  0  0  0  0
  155.1083  141.2846  159.3857 H   0  0  0  0  0  0  0  0  0  0  0  0
  154.2357  140.7920  160.8198 H   0  0  0  0  0  0  0  0  0  0  0  0
  1  2  1  0  0  0  0
  1 25  1  0  0  0  0
  1 26  1  0  0  0  0
  1 27  1  0  0  0  0
  2  3  1  0  0  0  0
  2 28  1  0  0  0  0
  2 29  1  0  0  0  0
  3  4  1  0  0  0  0
  4  5  1  0  0  0  0
  4 30  1  0  0  0  0
  4 31  1  0  0  0  0
  5  6  2  0  0  0  0
  5  7  1  0  0  0  0
  7  8  1  0  0  0  0
  7 32  1  0  0  0  0
  8 15  1  0  0  0  0
  8  9  2  0  0  0  0
  9 10  1  0  0  0  0
  9 33  1  0  0  0  0
 10 11  2  0  0  0  0
 10 34  1  0  0  0  0
 11 12  1  0  0  0  0
 11 14  1  0  0  0  0
 12 13  1  0  0  0  0
 13 35  1  0  0  0  0
 13 36  1  0  0  0  0
 13 37  1  0  0  0  0
 14 15  2  0  0  0  0
 15 16  1  0  0  0  0
 16 24  1  0  0  0  0
 16 17  1  0  0  0  0
 17 18  1  0  0  0  0
 17 38  1  0  0  0  0
 17 39  1  0  0  0  0
 18 19  1  0  0  0  0
 18 40  1  0  0  0  0
 18 41  1  0  0  0  0
 19 20  1  0  0  0  0
 19 23  1  0  0  0  0
 20 21  1  0  0  0  0
 20 22  2  0  0  0  0
 21 42  1  0  0  0  0
 21 43  1  0  0  0  0
 21 44  1  0  0  0  0
 23 24  1  0  0  0  0
 23 45  1  0  0  0  0
 23 46  1  0  0  0  0
 24 47  1  0  0  0  0
 24 48  1  0  0  0  0
M  END
> <s_m_source_file>
AV-unprocessed.smi

> <i_m_source_file_index>
1070

> <i_lp_mmshare_version>
43012

> <i_f3d_flags>
0

> <s_epik_input>
W0NIM11bQ0gyXU9bQ0gyXUMoPU8pW05IXWMxW2NIXVtjSF1jKE9bQ0gzXSluYzFOMltDSDJdW0NIMl1OKEMoPU8pW0NIM10pW0NIMl1bQ0gyXTI=

> <s_epik_cmdline>
J2VwaWtfcHl0aG9uJywgJy1waCcsICc3LjAnLCAnLXRuJywgJzgnLCAnLW1hJywgJzIwMCcsICctbWV0YWxfYmluZGluZycsICctaW1hZScsICc8aW5maWxlLm1hZT4nLCAnLW9tYWUnLCAnPG91dGZpbGUubWFlPic=

> <r_lp_tautomer_probability>
1

> <r_epik_Ionization_Penalty>
0.000131804

> <r_epik_Ionization_Penalty_Charging>
0

> <r_epik_Ionization_Penalty_Neutral>
0.000131804

> <r_epik_State_Penalty>
-0

> <r_epik_Charging_Adjusted_Penalty>
0

> <i_epik_Tot_Q>
0

> <i_epik_Tot_abs_Q>
0

> <r_epik_Metal_State_Penalty>
-0

> <b_epik_Metal_Only>
0

> <s_lp_Force_Field>
OPLS_2005

> <r_lp_Energy>
37.3921

> <b_lp_Chiralities_Consistent>
1

> <s_lp_Variant>
AV-unprocessed.smi:1070-1

> <Gold.Version>
5.8.1

> <Gold.Id.Protein>
6NUR|6NUR_protein|mol2

> <Gold.PLP.Fitness>
39.7548

> <Gold.PLP.PLP>
-37.9684

> <Gold.PLP.part.hbond>
-1.4739

> <Gold.PLP.part.metal>
0.0000

> <Gold.PLP.part.buried>
-7.3104

> <Gold.PLP.part.nonpolar>
-29.5036

> <Gold.PLP.part.repulsive>
0.3473

> <Gold.PLP.ligand.clash>
0.0000

> <Gold.PLP.ligand.torsion>
1.0395

> <Gold.PLP.Chemscore.Hbond>
1.1382

> <Gold.PLP.Chemscore.CHOScore>
0.0000

> <Gold.PLP.Chemscore.Metal>
0.0000

> <Gold.Chemscore.Hbonds>
donor molecule, donor type, donor heavy atom, donor atom, acceptor molecule, acceptor atom, score
      P1  H  7989  7998       L1     6  0.98
      P1  H  7997  8010       L1    16  0.12

> <Gold.PLP.Chemscore.Internal.Correction>
0.4509

> <Gold.Rescore>
     Score         DG    S(hbond)    S(metal)    S(lipo)     H(rot)  DE(clash)    DE(int)     intcor
     11.85     -13.94       1.00        0.00      84.57       1.86       0.06       2.03       ----

> <Gold.Chemscore.Fitness>
11.8547

> <Gold.Chemscore.DG>
-13.9449

> <Gold.Chemscore.ZeroCoef>
-5.4800

> <Gold.Chemscore.Hbond>
0.9999

> <Gold.Chemscore.Metal>
0.0000

> <Gold.Chemscore.Lipo>
84.5723

> <Gold.Chemscore.Internal_Hbond>
0.0000

> <Gold.Chemscore.DEClash>
0.0619

> <Gold.Chemscore.DEInternal>
2.0282

> <Gold.Chemscore.Rot>
1.8631

> <Gold.Chemscore.Internal.Correction>
   9.000000E+99

> <Gold.Chemscore.Hbonds>
donor molecule, donor type, donor heavy atom, donor atom, acceptor molecule, acceptor atom, score
      P1  H  7989  7998       L1     6  0.91

> <Gold.Chemscore.Hbond.Weighted>
-3.3395

> <Gold.Chemscore.Metal.Weighted>
-0.0000

> <Gold.Chemscore.Lipo.Weighted>
-9.8950

> <Gold.Chemscore.Internal_Hbond.Weighted>
0.0000

> <Gold.Chemscore.DEClash.Weighted>
0.0619

> <Gold.Chemscore.DEInternal.Weighted>
2.0282

> <Gold.Chemscore.Rot.Weighted>
4.7696

> <Gold.Chemscore.Internal.Correction.Weighted>
   9.000000E+99

> <Gold.Protein.RotatedTorsions>
[ 6907 6896 6895 6894 ] final -124.81 input  -60.11 | X-H torsion
[ 7974 7965 7964 7962 ] final   53.83 input  175.53 | X-H torsion
[ 8008 7997 7996 7995 ] final   18.61 input   59.86 | X-H torsion
[ 10167 10162 10161 10158 ] final   71.63 input  -65.29 | X-H torsion
[ 10718 10713 10712 10709 ] final  109.64 input   66.30 | X-H torsion
[ 10763 10752 10751 10750 ] final  169.73 input  -60.55 | X-H torsion
[ 11005 11000 10999 10996 ] final   14.75 input  -57.11 | X-H torsion

> <Gold.Protein.ActiveResidues>
 VAL166  LYS551  ARG553  GLY616  TRP617  ASP618  TYR619  PRO620  LYS621  CYS622 
 ASP623  PHE694  ASN695  SER759  ASP760  ASP761  ALA762  ILE779  LEU786  VAL792 
 PHE793  MET794  SER795  GLU796  ALA797  LYS798  CYS799  TRP800  GLU811  SER814 

> <Gold.Protein.RotatedAtoms>
  150.8805  133.7379  159.2933 H   0  0  0  0  0  0  0  0  0  0  0  0  # atno 6907 bound_to 6896
  151.4961  135.1058  159.9826 H   0  0  0  0  0  0  0  0  0  0  0  0  # atno 6908 bound_to 6896
  152.4756  133.8085  159.7046 H   0  0  0  0  0  0  0  0  0  0  0  0  # atno 6909 bound_to 6896
  145.9671  139.4114  143.0212 H   0  0  0  0  0  0  0  0  0  0  0  0  # atno 7974 bound_to 7965
  154.9086  140.3011  155.5278 H   0  0  0  0  0  0  0  0  0  0  0  0  # atno 8008 bound_to 7997
  156.3016  140.2393  156.4058 H   0  0  0  0  0  0  0  0  0  0  0  0  # atno 8009 bound_to 7997
  154.8448  140.0412  157.1554 H   0  0  0  0  0  0  0  0  0  0  0  0  # atno 8010 bound_to 7997
  140.0440  144.5366  150.7413 H   0  0  0  0  0  0  0  0  0  0  0  0  # atno 10167 bound_to 10162
  157.6532  131.0917  150.6483 H   0  0  0  0  0  0  0  0  0  0  0  0  # atno 10718 bound_to 10713
  154.3873  135.2754  155.2175 H   0  0  0  0  0  0  0  0  0  0  0  0  # atno 10763 bound_to 10752
  154.4257  135.5989  153.6040 H   0  0  0  0  0  0  0  0  0  0  0  0  # atno 10764 bound_to 10752
  152.9833  135.5983  154.4124 H   0  0  0  0  0  0  0  0  0  0  0  0  # atno 10765 bound_to 10752
  140.4660  134.1079  155.7724 H   0  0  0  0  0  0  0  0  0  0  0  0  # atno 11005 bound_to 11000
  145.7958  140.9793  143.1025 LP  0  0  0  0  0  0  0  0  0  0  0  0  # atno 17320 bound_to 7965
  144.6828  139.9739  143.7482 LP  0  0  0  0  0  0  0  0  0  0  0  0  # atno 17321 bound_to 7965
  140.7247  143.2624  151.4160 LP  0  0  0  0  0  0  0  0  0  0  0  0  # atno 17342 bound_to 10162
  139.5996  144.1325  152.2182 LP  0  0  0  0  0  0  0  0  0  0  0  0  # atno 17343 bound_to 10162
  156.6793  130.4562  149.5633 LP  0  0  0  0  0  0  0  0  0  0  0  0  # atno 17370 bound_to 10713
  156.1941  130.6578  151.1094 LP  0  0  0  0  0  0  0  0  0  0  0  0  # atno 17371 bound_to 10713
  141.1599  133.8812  157.1876 LP  0  0  0  0  0  0  0  0  0  0  0  0  # atno 17394 bound_to 11000
  139.9915  135.0063  156.9986 LP  0  0  0  0  0  0  0  0  0  0  0  0  # atno 17395 bound_to 11000

$$$$
