AV-unprocessed.smi:1521|AV-procd|sdf|6132|dock2
  -GOLD-   22720 6273D 1   1.00000     0.00000
 Structure written by MMmdl.
 35 36  0  0  0  0  0  0  0  0  2 V2000
  148.4315  135.7966  156.4262 O   0  0  0  0  0  0  0  0  0  0  0  0
  148.6959  135.6564  155.2320 C   0  0  0  0  0  0  0  0  0  0  0  0
  148.2741  136.5032  154.2826 N   0  0  0  0  0  0  0  0  0  0  0  0
  147.4696  137.6964  154.5192 C   0  0  0  0  0  0  0  0  0  0  0  0
  148.2008  138.9698  154.0629 C   0  0  2  0  0  0  0  0  0  0  0  0
  149.6327  139.0440  154.6294 C   0  0  0  0  0  0  0  0  0  0  0  0
  150.2379  140.2655  154.2261 O   0  0  0  0  0  0  0  0  0  0  0  0
  149.5025  141.3860  154.6980 C   0  0  0  0  0  0  0  0  0  0  0  0
  148.0757  141.3210  154.1294 C   0  0  0  0  0  0  0  0  0  0  0  0
  147.4740  140.0995  154.5364 O   0  0  0  0  0  0  0  0  0  0  0  0
  149.4448  134.6750  154.6979 N   0  0  0  0  0  0  0  0  0  0  0  0
  150.0515  133.5756  155.3279 C   0  0  0  0  0  0  0  0  0  0  0  0
  150.0738  132.3093  154.8268 C   0  0  0  0  0  0  0  0  0  0  0  0
  150.7347  131.2089  155.5175 C   0  0  0  0  0  0  0  0  0  0  0  0
  150.7020  129.7692  155.0368 C   0  0  0  0  0  0  0  0  0  0  0  0
  149.9173  129.6389  153.9670 F   0  0  0  0  0  0  0  0  0  0  0  0
  151.9241  129.3431  154.7168 F   0  0  0  0  0  0  0  0  0  0  0  0
  150.2255  128.9810  155.9993 F   0  0  0  0  0  0  0  0  0  0  0  0
  151.3051  131.6066  156.7111 C   0  0  0  0  0  0  0  0  0  0  0  0
  151.3525  132.8389  157.2629 N   0  5  0  0  0  0  0  0  0  0  0  0
  150.7359  133.8616  156.6058 C   0  0  0  0  0  0  0  0  0  0  0  0
  150.7396  135.0093  157.0526 O   0  0  0  0  0  0  0  0  0  0  0  0
  148.5459  136.3199  153.3279 H   0  0  0  0  0  0  0  0  0  0  0  0
  146.5290  137.5901  153.9779 H   0  0  0  0  0  0  0  0  0  0  0  0
  147.2101  137.7662  155.5769 H   0  0  0  0  0  0  0  0  0  0  0  0
  148.2432  138.9937  152.9722 H   0  0  0  0  0  0  0  0  0  0  0  0
  149.6281  138.9701  155.7181 H   0  0  0  0  0  0  0  0  0  0  0  0
  150.2322  138.2146  154.2538 H   0  0  0  0  0  0  0  0  0  0  0  0
  149.4866  141.3951  155.7890 H   0  0  0  0  0  0  0  0  0  0  0  0
  149.9992  142.3013  154.3755 H   0  0  0  0  0  0  0  0  0  0  0  0
  147.4795  142.1535  154.5032 H   0  0  0  0  0  0  0  0  0  0  0  0
  148.0855  141.3940  153.0408 H   0  0  0  0  0  0  0  0  0  0  0  0
  149.6373  134.7443  153.7094 H   0  0  0  0  0  0  0  0  0  0  0  0
  149.6154  132.0829  153.8783 H   0  0  0  0  0  0  0  0  0  0  0  0
  151.7972  130.8141  157.3144 H   0  0  0  0  0  0  0  0  0  0  0  0
  1  2  2  0  0  0  0
  2  3  1  0  0  0  0
  2 11  1  0  0  0  0
  3  4  1  0  0  0  0
  3 23  1  0  0  0  0
  4  5  1  0  0  0  0
  4 24  1  0  0  0  0
  4 25  1  0  0  0  0
  5 10  1  0  0  0  0
  5  6  1  0  0  0  0
  5 26  1  0  0  0  0
  6  7  1  0  0  0  0
  6 27  1  0  0  0  0
  6 28  1  0  0  0  0
  7  8  1  0  0  0  0
  8  9  1  0  0  0  0
  8 29  1  0  0  0  0
  8 30  1  0  0  0  0
  9 10  1  0  0  0  0
  9 31  1  0  0  0  0
  9 32  1  0  0  0  0
 11 12  1  0  0  0  0
 11 33  1  0  0  0  0
 12 21  1  0  0  0  0
 12 13  2  0  0  0  0
 13 14  1  0  0  0  0
 13 34  1  0  0  0  0
 14 15  1  0  0  0  0
 14 19  2  0  0  0  0
 15 16  1  0  0  0  0
 15 17  1  0  0  0  0
 15 18  1  0  0  0  0
 19 20  1  0  0  0  0
 19 35  1  0  0  0  0
 20 21  1  0  0  0  0
 21 22  2  0  0  0  0
M  CHG  1  20  -1
M  END
> <s_m_source_file>
AV-unprocessed.smi

> <i_m_source_file_index>
1521

> <i_lp_mmshare_version>
43012

> <i_f3d_flags>
0

> <s_epik_input>
Tz1jMVtuSF1bY0hdYyhDKEYpKEYpRilbY0hdYzFbTkhdQyg9TylbTkhdW0NIMl1bQ0BASF0yW0NIMl1PW0NIMl1bQ0gyXU8y

> <s_epik_cmdline>
J2VwaWtfcHl0aG9uJywgJy1waCcsICc3LjAnLCAnLXRuJywgJzgnLCAnLW1hJywgJzIwMCcsICctbWV0YWxfYmluZGluZycsICctaW1hZScsICc8aW5maWxlLm1hZT4nLCAnLW9tYWUnLCAnPG91dGZpbGUubWFlPic=

> <r_lp_tautomer_probability>
1

> <r_epik_Ionization_Penalty>
3.1412

> <r_epik_Ionization_Penalty_Charging>
0.17015

> <r_epik_Ionization_Penalty_Neutral>
2.97105

> <r_epik_State_Penalty>
2.96707

> <r_epik_Charging_Adjusted_Penalty>
3.13722

> <i_epik_Tot_Q>
-1

> <i_epik_Tot_abs_Q>
1

> <r_epik_Metal_State_Penalty>
0.451298

> <b_epik_Metal_Only>
1

> <s_lp_Force_Field>
OPLS_2005

> <r_lp_Energy>
20.4323

> <b_lp_Chiralities_Consistent>
1

> <s_lp_Variant>
AV-unprocessed.smi:1521-3

> <Gold.Version>
5.8.1

> <Gold.Id.Protein>
6NUR|6NUR_protein|mol2

> <Gold.PLP.Fitness>
42.7506

> <Gold.PLP.PLP>
-31.8730

> <Gold.PLP.part.hbond>
-4.1360

> <Gold.PLP.part.metal>
0.0000

> <Gold.PLP.part.buried>
-4.7565

> <Gold.PLP.part.nonpolar>
-24.7926

> <Gold.PLP.part.repulsive>
0.2568

> <Gold.PLP.ligand.clash>
0.0000

> <Gold.PLP.ligand.torsion>
0.5478

> <Gold.PLP.Chemscore.Hbond>
3.9727

> <Gold.PLP.Chemscore.CHOScore>
0.0000

> <Gold.PLP.Chemscore.Metal>
0.0000

> <Gold.Chemscore.Hbonds>
donor molecule, donor type, donor heavy atom, donor atom, acceptor molecule, acceptor atom, score
      L1  H     3    23       P1  7948  0.98
      L1  H    11    33       P1  7948  0.01
      P1  H  6896  6907       L1    20  1.92
      P1  H  7989  7998       L1     7  0.98

> <Gold.PLP.Chemscore.Internal.Correction>
0.0549

> <Gold.Rescore>
     Score         DG    S(hbond)    S(metal)    S(lipo)     H(rot)  DE(clash)    DE(int)     intcor
     12.47     -16.89       2.61        0.00      52.71       1.36       0.04       4.39       ----

> <Gold.Chemscore.Fitness>
12.4662

> <Gold.Chemscore.DG>
-16.8881

> <Gold.Chemscore.ZeroCoef>
-5.4800

> <Gold.Chemscore.Hbond>
2.6144

> <Gold.Chemscore.Metal>
0.0000

> <Gold.Chemscore.Lipo>
52.7149

> <Gold.Chemscore.Internal_Hbond>
0.0000

> <Gold.Chemscore.DEClash>
0.0353

> <Gold.Chemscore.DEInternal>
4.3865

> <Gold.Chemscore.Rot>
1.3640

> <Gold.Chemscore.Internal.Correction>
   9.000000E+99

> <Gold.Chemscore.Hbonds>
donor molecule, donor type, donor heavy atom, donor atom, acceptor molecule, acceptor atom, score
      L1  H     3    23       P1  7948  0.91
      P1  H  6896  6907       L1    20  0.44
      P1  H  7989  7998       L1     7  0.52

> <Gold.Chemscore.Hbond.Weighted>
-8.7322

> <Gold.Chemscore.Metal.Weighted>
-0.0000

> <Gold.Chemscore.Lipo.Weighted>
-6.1676

> <Gold.Chemscore.Internal_Hbond.Weighted>
0.0000

> <Gold.Chemscore.DEClash.Weighted>
0.0353

> <Gold.Chemscore.DEInternal.Weighted>
4.3865

> <Gold.Chemscore.Rot.Weighted>
3.4918

> <Gold.Chemscore.Internal.Correction.Weighted>
   9.000000E+99

> <Gold.Protein.RotatedTorsions>
[ 6907 6896 6895 6894 ] final -160.59 input  -60.11 | X-H torsion
[ 7974 7965 7964 7962 ] final  -49.03 input  175.53 | X-H torsion
[ 8008 7997 7996 7995 ] final  177.26 input   59.86 | X-H torsion
[ 10167 10162 10161 10158 ] final  113.74 input  -65.29 | X-H torsion
[ 10718 10713 10712 10709 ] final  -32.95 input   66.30 | X-H torsion
[ 10763 10752 10751 10750 ] final  -90.17 input  -60.55 | X-H torsion
[ 11005 11000 10999 10996 ] final  -80.57 input  -57.11 | X-H torsion

> <Gold.Protein.ActiveResidues>
 VAL166  LYS551  ARG553  GLY616  TRP617  ASP618  TYR619  PRO620  LYS621  CYS622 
 ASP623  PHE694  ASN695  SER759  ASP760  ASP761  ALA762  ILE779  LEU786  VAL792 
 PHE793  MET794  SER795  GLU796  ALA797  LYS798  CYS799  TRP800  GLU811  SER814 

> <Gold.Protein.RotatedAtoms>
  151.3515  133.3923  159.2680 H   0  0  0  0  0  0  0  0  0  0  0  0  # atno 6907 bound_to 6896
  150.9797  134.9156  159.7847 H   0  0  0  0  0  0  0  0  0  0  0  0  # atno 6908 bound_to 6896
  152.5213  134.3479  159.9293 H   0  0  0  0  0  0  0  0  0  0  0  0  # atno 6909 bound_to 6896
  145.9449  140.7627  142.9533 H   0  0  0  0  0  0  0  0  0  0  0  0  # atno 7974 bound_to 7965
  156.0676  140.1363  156.9867 H   0  0  0  0  0  0  0  0  0  0  0  0  # atno 8008 bound_to 7997
  154.4514  140.0978  156.6682 H   0  0  0  0  0  0  0  0  0  0  0  0  # atno 8009 bound_to 7997
  155.5279  140.3458  155.4422 H   0  0  0  0  0  0  0  0  0  0  0  0  # atno 8010 bound_to 7997
  139.6439  144.7125  151.2181 H   0  0  0  0  0  0  0  0  0  0  0  0  # atno 10167 bound_to 10162
  156.3686  130.4336  149.7564 H   0  0  0  0  0  0  0  0  0  0  0  0  # atno 10718 bound_to 10713
  154.6629  135.5314  153.8041 H   0  0  0  0  0  0  0  0  0  0  0  0  # atno 10763 bound_to 10752
  153.0453  135.6510  154.0843 H   0  0  0  0  0  0  0  0  0  0  0  0  # atno 10764 bound_to 10752
  154.0750  135.2951  155.3281 H   0  0  0  0  0  0  0  0  0  0  0  0  # atno 10765 bound_to 10752
  141.1668  133.7156  156.8293 H   0  0  0  0  0  0  0  0  0  0  0  0  # atno 11005 bound_to 11000
  144.6785  140.2340  143.7352 LP  0  0  0  0  0  0  0  0  0  0  0  0  # atno 17320 bound_to 7965
  145.8250  139.2060  143.1916 LP  0  0  0  0  0  0  0  0  0  0  0  0  # atno 17321 bound_to 7965
  140.7505  143.6264  150.8464 LP  0  0  0  0  0  0  0  0  0  0  0  0  # atno 17342 bound_to 10162
  139.9904  143.5853  152.2912 LP  0  0  0  0  0  0  0  0  0  0  0  0  # atno 17343 bound_to 10162
  156.4700  130.7992  151.3010 LP  0  0  0  0  0  0  0  0  0  0  0  0  # atno 17370 bound_to 10713
  157.7481  131.0039  150.3054 LP  0  0  0  0  0  0  0  0  0  0  0  0  # atno 17371 bound_to 10713
  140.2063  134.8860  157.3225 LP  0  0  0  0  0  0  0  0  0  0  0  0  # atno 17394 bound_to 11000
  140.2134  134.4111  155.7601 LP  0  0  0  0  0  0  0  0  0  0  0  0  # atno 17395 bound_to 11000

$$$$
