AV-unprocessed.smi:639|AV-procd|sdf|3145|dock3
  -GOLD-   22720 0 73D 1   1.00000     0.00000
 Structure written by MMmdl.
 24 25  0  0  0  0  0  0  0  0  1 V2000
  151.2432  141.3722  156.7206 C   0  0  0  0  0  0  0  0  0  0  0  0
  150.5053  140.5266  155.8070 N   0  0  0  0  0  0  0  0  0  0  0  0
  149.1854  140.1382  155.8724 C   0  0  0  0  0  0  0  0  0  0  0  0
  148.9311  139.3386  154.7915 C   0  0  0  0  0  0  0  0  0  0  0  0
  147.6319  138.6606  154.4025 C   0  0  2  0  0  0  0  0  0  0  0  0
  147.1902  137.6071  155.4352 C   0  0  0  0  0  0  0  0  0  0  0  0
  147.6773  138.0865  153.0657 N   0  0  0  0  0  0  0  0  0  0  0  0
  146.8476  138.6970  152.2086 C   0  0  0  0  0  0  0  0  0  0  0  0
  146.7082  138.4234  151.0189 O   0  0  0  0  0  0  0  0  0  0  0  0
  146.1936  139.6504  152.8790 N   0  0  0  0  0  0  0  0  0  0  0  0
  146.5519  139.7079  154.1607 C   0  0  0  0  0  0  0  0  0  0  0  0
  146.1020  140.4678  155.0171 O   0  0  0  0  0  0  0  0  0  0  0  0
  150.1889  139.3016  154.1188 C   0  0  0  0  0  0  0  0  0  0  0  0
  151.1256  140.0092  154.7281 N   0  0  0  0  0  0  0  0  0  0  0  0
  150.5527  141.9841  157.3017 H   0  0  0  0  0  0  0  0  0  0  0  0
  151.9138  142.0291  156.1654 H   0  0  0  0  0  0  0  0  0  0  0  0
  151.8291  140.7532  157.4005 H   0  0  0  0  0  0  0  0  0  0  0  0
  148.5380  140.4613  156.6743 H   0  0  0  0  0  0  0  0  0  0  0  0
  147.0644  138.0455  156.4258 H   0  0  0  0  0  0  0  0  0  0  0  0
  147.9296  136.8101  155.5199 H   0  0  0  0  0  0  0  0  0  0  0  0
  146.2410  137.1458  155.1588 H   0  0  0  0  0  0  0  0  0  0  0  0
  148.2892  137.3221  152.8191 H   0  0  0  0  0  0  0  0  0  0  0  0
  145.4976  140.2521  152.4633 H   0  0  0  0  0  0  0  0  0  0  0  0
  150.4477  138.7830  153.2075 H   0  0  0  0  0  0  0  0  0  0  0  0
  1  2  1  0  0  0  0
  1 15  1  0  0  0  0
  1 16  1  0  0  0  0
  1 17  1  0  0  0  0
  2 14  1  0  0  0  0
  2  3  1  0  0  0  0
  3  4  2  0  0  0  0
  3 18  1  0  0  0  0
  4  5  1  0  0  0  0
  4 13  1  0  0  0  0
  5 11  1  0  0  0  0
  5  6  1  0  0  0  0
  5  7  1  0  0  0  0
  6 19  1  0  0  0  0
  6 20  1  0  0  0  0
  6 21  1  0  0  0  0
  7  8  1  0  0  0  0
  7 22  1  0  0  0  0
  8  9  2  0  0  0  0
  8 10  1  0  0  0  0
 10 11  1  0  0  0  0
 10 23  1  0  0  0  0
 11 12  2  0  0  0  0
 13 14  2  0  0  0  0
 13 24  1  0  0  0  0
M  END
> <s_m_source_file>
AV-unprocessed.smi

> <i_m_source_file_index>
639

> <i_lp_mmshare_version>
43012

> <i_f3d_flags>
0

> <s_epik_input>
W0NIM11uMVtjSF1jKFtjSF1uMSlbQ0BAXTIoW0NIM10pW05IXUMoPU8pW05IXUMyPU8=

> <s_epik_cmdline>
J2VwaWtfcHl0aG9uJywgJy1waCcsICc3LjAnLCAnLXRuJywgJzgnLCAnLW1hJywgJzIwMCcsICctbWV0YWxfYmluZGluZycsICctaW1hZScsICc8aW5maWxlLm1hZT4nLCAnLW9tYWUnLCAnPG91dGZpbGUubWFlPic=

> <r_lp_tautomer_probability>
1

> <r_epik_Ionization_Penalty>
0.0282779

> <r_epik_Ionization_Penalty_Charging>
0

> <r_epik_Ionization_Penalty_Neutral>
0.0282779

> <r_epik_State_Penalty>
0.022996

> <r_epik_Charging_Adjusted_Penalty>
0.022996

> <i_epik_Tot_Q>
0

> <i_epik_Tot_abs_Q>
0

> <r_epik_Metal_State_Penalty>
0.428533

> <b_epik_Metal_Only>
0

> <s_lp_Force_Field>
OPLS_2005

> <r_lp_Energy>
13.4697

> <b_lp_Chiralities_Consistent>
1

> <s_lp_Variant>
AV-unprocessed.smi:639-2

> <Gold.Version>
5.8.1

> <Gold.Id.Protein>
6NUR|6NUR_protein|mol2

> <Gold.PLP.Fitness>
32.2360

> <Gold.PLP.PLP>
-19.0822

> <Gold.PLP.part.hbond>
-4.0432

> <Gold.PLP.part.metal>
0.0000

> <Gold.PLP.part.buried>
-2.4511

> <Gold.PLP.part.nonpolar>
-13.4606

> <Gold.PLP.part.repulsive>
0.9094

> <Gold.PLP.ligand.clash>
0.0000

> <Gold.PLP.ligand.torsion>
0.1157

> <Gold.PLP.Chemscore.Hbond>
3.7840

> <Gold.PLP.Chemscore.CHOScore>
0.6354

> <Gold.PLP.Chemscore.Metal>
0.0000

> <Gold.Chemscore.Hbonds>
donor molecule, donor type, donor heavy atom, donor atom, acceptor molecule, acceptor atom, score
      L1  H     7    22       P1  7948  1.00
      L1  H    10    23       P1 10175  0.80
      P1  H  7954  7966       L1     9  1.00
      P1  H  7989  7998       L1    14  0.95
      L1  C    13    24       P1  7957  0.65

> <Gold.PLP.Chemscore.Internal.Correction>
0.1268

> <Gold.Rescore>
     Score         DG    S(hbond)    S(metal)    S(lipo)     H(rot)  DE(clash)    DE(int)     intcor
     16.51     -17.04       3.35        0.00      24.99       1.00       0.44       0.08       ----

> <Gold.Chemscore.Fitness>
16.5090

> <Gold.Chemscore.DG>
-17.0376

> <Gold.Chemscore.ZeroCoef>
-5.4800

> <Gold.Chemscore.Hbond>
3.3515

> <Gold.Chemscore.Metal>
0.0000

> <Gold.Chemscore.Lipo>
24.9883

> <Gold.Chemscore.Internal_Hbond>
0.0000

> <Gold.Chemscore.DEClash>
0.4438

> <Gold.Chemscore.DEInternal>
0.0849

> <Gold.Chemscore.Rot>
1.0000

> <Gold.Chemscore.Internal.Correction>
   9.000000E+99

> <Gold.Chemscore.Hbonds>
donor molecule, donor type, donor heavy atom, donor atom, acceptor molecule, acceptor atom, score
      L1  H     7    22       P1  7948  0.96
      L1  H    10    23       P1 10175  0.59
      P1  H  7954  7966       L1     9  0.97
      P1  H  7989  7998       L1    14  0.21

> <Gold.Chemscore.Hbond.Weighted>
-11.1940

> <Gold.Chemscore.Metal.Weighted>
-0.0000

> <Gold.Chemscore.Lipo.Weighted>
-2.9236

> <Gold.Chemscore.Internal_Hbond.Weighted>
0.0000

> <Gold.Chemscore.DEClash.Weighted>
0.4438

> <Gold.Chemscore.DEInternal.Weighted>
0.0849

> <Gold.Chemscore.Rot.Weighted>
2.5600

> <Gold.Chemscore.Internal.Correction.Weighted>
   9.000000E+99

> <Gold.Protein.RotatedTorsions>
[ 6907 6896 6895 6894 ] final  -48.93 input  -60.11 | X-H torsion
[ 7974 7965 7964 7962 ] final  137.97 input  175.53 | X-H torsion
[ 8008 7997 7996 7995 ] final -161.74 input   59.86 | X-H torsion
[ 10167 10162 10161 10158 ] final  148.49 input  -65.29 | X-H torsion
[ 10718 10713 10712 10709 ] final   99.21 input   66.30 | X-H torsion
[ 10763 10752 10751 10750 ] final  -46.99 input  -60.55 | X-H torsion
[ 11005 11000 10999 10996 ] final  137.98 input  -57.11 | X-H torsion

> <Gold.Protein.ActiveResidues>
 VAL166  LYS551  ARG553  GLY616  TRP617  ASP618  TYR619  PRO620  LYS621  CYS622 
 ASP623  PHE694  ASN695  SER759  ASP760  ASP761  ALA762  ILE779  LEU786  VAL792 
 PHE793  MET794  SER795  GLU796  ALA797  LYS798  CYS799  TRP800  GLU811  SER814 

> <Gold.Protein.RotatedAtoms>
  150.8856  134.8253  159.7256 H   0  0  0  0  0  0  0  0  0  0  0  0  # atno 6907 bound_to 6896
  152.4805  134.4728  159.9651 H   0  0  0  0  0  0  0  0  0  0  0  0  # atno 6908 bound_to 6896
  151.4797  133.3510  159.2872 H   0  0  0  0  0  0  0  0  0  0  0  0  # atno 6909 bound_to 6896
  144.9417  139.4923  143.5568 H   0  0  0  0  0  0  0  0  0  0  0  0  # atno 7974 bound_to 7965
  155.7966  140.0886  157.1980 H   0  0  0  0  0  0  0  0  0  0  0  0  # atno 8008 bound_to 7997
  154.3983  140.1480  156.3284 H   0  0  0  0  0  0  0  0  0  0  0  0  # atno 8009 bound_to 7997
  155.8505  140.3435  155.5693 H   0  0  0  0  0  0  0  0  0  0  0  0  # atno 8010 bound_to 7997
  139.4874  144.5675  151.7117 H   0  0  0  0  0  0  0  0  0  0  0  0  # atno 10167 bound_to 10162
  157.6880  131.0663  150.4914 H   0  0  0  0  0  0  0  0  0  0  0  0  # atno 10718 bound_to 10713
  154.0541  135.6627  153.4804 H   0  0  0  0  0  0  0  0  0  0  0  0  # atno 10763 bound_to 10752
  153.0452  135.5119  154.7722 H   0  0  0  0  0  0  0  0  0  0  0  0  # atno 10764 bound_to 10752
  154.6738  135.3034  154.9673 H   0  0  0  0  0  0  0  0  0  0  0  0  # atno 10765 bound_to 10752
  140.0152  134.9421  157.0360 H   0  0  0  0  0  0  0  0  0  0  0  0  # atno 11005 bound_to 11000
  146.3288  139.8441  142.8885 LP  0  0  0  0  0  0  0  0  0  0  0  0  # atno 17320 bound_to 7965
  145.2981  141.0186  143.3624 LP  0  0  0  0  0  0  0  0  0  0  0  0  # atno 17321 bound_to 7965
  140.5256  144.0811  150.6036 LP  0  0  0  0  0  0  0  0  0  0  0  0  # atno 17342 bound_to 10162
  140.3784  143.2816  152.0199 LP  0  0  0  0  0  0  0  0  0  0  0  0  # atno 17343 bound_to 10162
  156.5240  130.4169  149.6236 LP  0  0  0  0  0  0  0  0  0  0  0  0  # atno 17370 bound_to 10713
  156.3129  130.7238  151.2135 LP  0  0  0  0  0  0  0  0  0  0  0  0  # atno 17371 bound_to 10713
  140.4484  134.1608  155.7179 LP  0  0  0  0  0  0  0  0  0  0  0  0  # atno 17394 bound_to 11000
  141.1738  133.8556  157.1488 LP  0  0  0  0  0  0  0  0  0  0  0  0  # atno 17395 bound_to 11000

$$$$
