AV-unprocessed.smi:1239|AV-procd|sdf|5192|dock2
  -GOLD-   22720 4273D 1   1.00000     0.00000
 Structure written by MMmdl.
 48 49  0  0  0  0  0  0  0  0  2 V2000
  149.2094  133.1378  155.6527 C   0  0  0  0  0  0  0  0  0  0  0  0
  149.0264  134.5225  154.9827 C   0  0  1  0  0  0  0  0  0  0  0  0
  150.4092  135.1401  154.6433 C   0  0  0  0  0  0  0  0  0  0  0  0
  150.3813  136.5986  154.6282 N   0  0  0  0  0  0  0  0  0  0  0  0
  150.7679  137.3721  155.6511 C   0  0  0  0  0  0  0  0  0  0  0  0
  151.1859  136.9176  156.7152 O   0  0  0  0  0  0  0  0  0  0  0  0
  150.6375  138.6753  155.3471 N   0  0  0  0  0  0  0  0  0  0  0  0
  150.9428  139.8243  156.1287 C   0  0  0  0  0  0  0  0  0  0  0  0
  150.6058  141.1554  155.7882 C   0  0  0  0  0  0  0  0  0  0  0  0
  150.9741  142.1989  156.6590 C   0  0  0  0  0  0  0  0  0  0  0  0
  151.6726  141.8956  157.8537 C   0  0  0  0  0  0  0  0  0  0  0  0
  152.0619  142.9093  158.7590 N   0  0  0  0  0  0  0  0  0  0  0  0
  152.7225  142.5513  160.0102 C   0  0  0  0  0  0  0  0  0  0  0  0
  151.8338  144.3116  158.4324 C   0  0  0  0  0  0  0  0  0  0  0  0
  151.9942  140.6185  158.1732 N   0  0  0  0  0  0  0  0  0  0  0  0
  151.6399  139.6220  157.3360 C   0  0  0  0  0  0  0  0  0  0  0  0
  148.1301  134.4441  153.7796 N   0  3  0  0  0  0  0  0  0  0  0  0
  148.3119  133.1984  152.9812 C   0  0  0  0  0  0  0  0  0  0  0  0
  147.3758  133.1611  151.7618 C   0  0  0  0  0  0  0  0  0  0  0  0
  146.0293  133.2895  152.1876 O   0  0  0  0  0  0  0  0  0  0  0  0
  145.8130  134.5365  152.8272 C   0  0  0  0  0  0  0  0  0  0  0  0
  146.6842  134.6316  154.0910 C   0  0  0  0  0  0  0  0  0  0  0  0
  149.9169  133.1682  156.4807 H   0  0  0  0  0  0  0  0  0  0  0  0
  149.5750  132.3985  154.9392 H   0  0  0  0  0  0  0  0  0  0  0  0
  148.2837  132.7627  156.0868 H   0  0  0  0  0  0  0  0  0  0  0  0
  148.5413  135.1781  155.7079 H   0  0  0  0  0  0  0  0  0  0  0  0
  151.1588  134.7980  155.3591 H   0  0  0  0  0  0  0  0  0  0  0  0
  150.7447  134.8397  153.6516 H   0  0  0  0  0  0  0  0  0  0  0  0
  150.0488  137.0464  153.7866 H   0  0  0  0  0  0  0  0  0  0  0  0
  150.2843  138.8746  154.4226 H   0  0  0  0  0  0  0  0  0  0  0  0
  150.0771  141.4094  154.8841 H   0  0  0  0  0  0  0  0  0  0  0  0
  150.7113  143.2109  156.3914 H   0  0  0  0  0  0  0  0  0  0  0  0
  152.0880  141.8929  160.6046 H   0  0  0  0  0  0  0  0  0  0  0  0
  152.9413  143.4338  160.6119 H   0  0  0  0  0  0  0  0  0  0  0  0
  153.6649  142.0392  159.8128 H   0  0  0  0  0  0  0  0  0  0  0  0
  152.3459  144.5782  157.5074 H   0  0  0  0  0  0  0  0  0  0  0  0
  152.2058  144.9688  159.2187 H   0  0  0  0  0  0  0  0  0  0  0  0
  150.7681  144.5087  158.3115 H   0  0  0  0  0  0  0  0  0  0  0  0
  151.9243  138.6265  157.6447 H   0  0  0  0  0  0  0  0  0  0  0  0
  149.3296  133.1207  152.6028 H   0  0  0  0  0  0  0  0  0  0  0  0
  148.1329  132.3286  153.6151 H   0  0  0  0  0  0  0  0  0  0  0  0
  147.6264  133.9519  151.0526 H   0  0  0  0  0  0  0  0  0  0  0  0
  147.4878  132.2143  151.2332 H   0  0  0  0  0  0  0  0  0  0  0  0
  146.0294  135.3569  152.1410 H   0  0  0  0  0  0  0  0  0  0  0  0
  144.7588  134.6167  153.0929 H   0  0  0  0  0  0  0  0  0  0  0  0
  146.3667  133.8842  154.8199 H   0  0  0  0  0  0  0  0  0  0  0  0
  146.4989  135.6112  154.5272 H   0  0  0  0  0  0  0  0  0  0  0  0
  148.3921  135.2102  153.1754 H   0  0  0  0  0  0  0  0  0  0  0  0
  1  2  1  0  0  0  0
  1 23  1  0  0  0  0
  1 24  1  0  0  0  0
  1 25  1  0  0  0  0
  2  3  1  0  0  0  0
  2 17  1  0  0  0  0
  2 26  1  0  0  0  0
  3  4  1  0  0  0  0
  3 27  1  0  0  0  0
  3 28  1  0  0  0  0
  4  5  1  0  0  0  0
  4 29  1  0  0  0  0
  5  6  2  0  0  0  0
  5  7  1  0  0  0  0
  7  8  1  0  0  0  0
  7 30  1  0  0  0  0
  8 16  1  0  0  0  0
  8  9  2  0  0  0  0
  9 10  1  0  0  0  0
  9 31  1  0  0  0  0
 10 11  2  0  0  0  0
 10 32  1  0  0  0  0
 11 12  1  0  0  0  0
 11 15  1  0  0  0  0
 12 13  1  0  0  0  0
 12 14  1  0  0  0  0
 13 33  1  0  0  0  0
 13 34  1  0  0  0  0
 13 35  1  0  0  0  0
 14 36  1  0  0  0  0
 14 37  1  0  0  0  0
 14 38  1  0  0  0  0
 15 16  2  0  0  0  0
 16 39  1  0  0  0  0
 17 22  1  0  0  0  0
 17 18  1  0  0  0  0
 17 48  1  0  0  0  0
 18 19  1  0  0  0  0
 18 40  1  0  0  0  0
 18 41  1  0  0  0  0
 19 20  1  0  0  0  0
 19 42  1  0  0  0  0
 19 43  1  0  0  0  0
 20 21  1  0  0  0  0
 21 22  1  0  0  0  0
 21 44  1  0  0  0  0
 21 45  1  0  0  0  0
 22 46  1  0  0  0  0
 22 47  1  0  0  0  0
M  CHG  1  17   1
M  END
> <s_m_source_file>
AV-unprocessed.smi

> <i_m_source_file_index>
1239

> <i_lp_mmshare_version>
43012

> <i_f3d_flags>
0

> <s_epik_input>
W0NIMl0xW0NIMl1PW0NIMl1bQ0gyXU4xW0NASF0oW0NIM10pW0NIMl1bTkhdQyg9TylbTkhdYzJbY0hdW2NIXWMoTihbQ0gzXSlbQ0gzXSluW2NIXTI=

> <s_epik_cmdline>
J2VwaWtfcHl0aG9uJywgJy1waCcsICc3LjAnLCAnLXRuJywgJzgnLCAnLW1hJywgJzIwMCcsICctbWV0YWxfYmluZGluZycsICctaW1hZScsICc8aW5maWxlLm1hZT4nLCAnLW9tYWUnLCAnPG91dGZpbGUubWFlPic=

> <r_epik_Ionization_Penalty>
1.1428

> <r_epik_Ionization_Penalty_Charging>
0.602531

> <r_epik_Ionization_Penalty_Neutral>
0.540271

> <r_epik_State_Penalty>
1.1888

> <r_epik_Charging_Adjusted_Penalty>
1.79133

> <i_epik_Tot_Q>
1

> <i_epik_Tot_abs_Q>
1

> <r_epik_Metal_State_Penalty>
0.936295

> <b_epik_Metal_Only>
0

> <s_lp_Force_Field>
OPLS_2005

> <r_lp_Energy>
25.9365

> <b_lp_Chiralities_Consistent>
1

> <s_lp_Variant>
AV-unprocessed.smi:1239-8

> <Gold.Version>
5.8.1

> <Gold.Id.Protein>
6NUR|6NUR_protein|mol2

> <Gold.PLP.Fitness>
41.2833

> <Gold.PLP.PLP>
-37.0479

> <Gold.PLP.part.hbond>
-1.8883

> <Gold.PLP.part.metal>
0.0000

> <Gold.PLP.part.buried>
-3.5020

> <Gold.PLP.part.nonpolar>
-31.7251

> <Gold.PLP.part.repulsive>
0.2338

> <Gold.PLP.ligand.clash>
0.0000

> <Gold.PLP.ligand.torsion>
1.1343

> <Gold.PLP.Chemscore.Hbond>
2.1420

> <Gold.PLP.Chemscore.CHOScore>
0.0000

> <Gold.PLP.Chemscore.Metal>
0.0000

> <Gold.Chemscore.Hbonds>
donor molecule, donor type, donor heavy atom, donor atom, acceptor molecule, acceptor atom, score
      L1  H     4    29       P1  7948  0.18
      L1  H    17    48       P1  7948  2.00

> <Gold.PLP.Chemscore.Internal.Correction>
0.0781

> <Gold.Rescore>
     Score         DG    S(hbond)    S(metal)    S(lipo)     H(rot)  DE(clash)    DE(int)     intcor
     13.19     -15.65       1.37        0.00      80.12       1.48       0.00       2.46       ----

> <Gold.Chemscore.Fitness>
13.1891

> <Gold.Chemscore.DG>
-15.6503

> <Gold.Chemscore.ZeroCoef>
-5.4800

> <Gold.Chemscore.Hbond>
1.3750

> <Gold.Chemscore.Metal>
0.0000

> <Gold.Chemscore.Lipo>
80.1225

> <Gold.Chemscore.Internal_Hbond>
0.0000

> <Gold.Chemscore.DEClash>
0.0048

> <Gold.Chemscore.DEInternal>
2.4564

> <Gold.Chemscore.Rot>
1.4830

> <Gold.Chemscore.Internal.Correction>
   9.000000E+99

> <Gold.Chemscore.Hbonds>
donor molecule, donor type, donor heavy atom, donor atom, acceptor molecule, acceptor atom, score
      L1  H     4    29       P1  7948  0.07
      L1  H    17    48       P1  7948  0.94

> <Gold.Chemscore.Hbond.Weighted>
-4.5924

> <Gold.Chemscore.Metal.Weighted>
-0.0000

> <Gold.Chemscore.Lipo.Weighted>
-9.3743

> <Gold.Chemscore.Internal_Hbond.Weighted>
0.0000

> <Gold.Chemscore.DEClash.Weighted>
0.0048

> <Gold.Chemscore.DEInternal.Weighted>
2.4564

> <Gold.Chemscore.Rot.Weighted>
3.7964

> <Gold.Chemscore.Internal.Correction.Weighted>
   9.000000E+99

> <Gold.Protein.RotatedTorsions>
[ 6907 6896 6895 6894 ] final  -23.73 input  -60.11 | X-H torsion
[ 7974 7965 7964 7962 ] final -165.70 input  175.53 | X-H torsion
[ 8008 7997 7996 7995 ] final  -96.31 input   59.86 | X-H torsion
[ 10167 10162 10161 10158 ] final -141.64 input  -65.29 | X-H torsion
[ 10718 10713 10712 10709 ] final  -71.88 input   66.30 | X-H torsion
[ 10763 10752 10751 10750 ] final   66.12 input  -60.55 | X-H torsion
[ 11005 11000 10999 10996 ] final    9.87 input  -57.11 | X-H torsion

> <Gold.Protein.ActiveResidues>
 VAL166  LYS551  ARG553  GLY616  TRP617  ASP618  TYR619  PRO620  LYS621  CYS622 
 ASP623  PHE694  ASN695  SER759  ASP760  ASP761  ALA762  ILE779  LEU786  VAL792 
 PHE793  MET794  SER795  GLU796  ALA797  LYS798  CYS799  TRP800  GLU811  SER814 

> <Gold.Protein.RotatedAtoms>
  151.1997  135.0437  159.8866 H   0  0  0  0  0  0  0  0  0  0  0  0  # atno 6907 bound_to 6896
  152.5433  134.0864  159.8268 H   0  0  0  0  0  0  0  0  0  0  0  0  # atno 6908 bound_to 6896
  151.1003  133.5201  159.2642 H   0  0  0  0  0  0  0  0  0  0  0  0  # atno 6909 bound_to 6896
  144.7263  140.2776  143.6241 H   0  0  0  0  0  0  0  0  0  0  0  0  # atno 7974 bound_to 7965
  154.7728  140.0472  157.1065 H   0  0  0  0  0  0  0  0  0  0  0  0  # atno 8008 bound_to 7997
  154.9799  140.3100  155.4931 H   0  0  0  0  0  0  0  0  0  0  0  0  # atno 8009 bound_to 7997
  156.2924  140.2238  156.4897 H   0  0  0  0  0  0  0  0  0  0  0  0  # atno 8010 bound_to 7997
  139.8165  143.7632  152.2665 H   0  0  0  0  0  0  0  0  0  0  0  0  # atno 10167 bound_to 10162
  156.0344  130.4360  150.2510 H   0  0  0  0  0  0  0  0  0  0  0  0  # atno 10718 bound_to 10713
  153.0126  135.5332  154.6774 H   0  0  0  0  0  0  0  0  0  0  0  0  # atno 10763 bound_to 10752
  154.5943  135.2862  155.0605 H   0  0  0  0  0  0  0  0  0  0  0  0  # atno 10764 bound_to 10752
  154.1686  135.6536  153.5056 H   0  0  0  0  0  0  0  0  0  0  0  0  # atno 10765 bound_to 10752
  140.5208  134.0560  155.7844 H   0  0  0  0  0  0  0  0  0  0  0  0  # atno 11005 bound_to 11000
  145.7981  139.1953  143.2064 LP  0  0  0  0  0  0  0  0  0  0  0  0  # atno 17320 bound_to 7965
  146.0699  140.7880  142.9693 LP  0  0  0  0  0  0  0  0  0  0  0  0  # atno 17321 bound_to 7965
  139.7797  144.7449  151.0106 LP  0  0  0  0  0  0  0  0  0  0  0  0  # atno 17342 bound_to 10162
  140.7815  143.4555  151.0351 LP  0  0  0  0  0  0  0  0  0  0  0  0  # atno 17343 bound_to 10162
  157.0610  131.0090  151.3222 LP  0  0  0  0  0  0  0  0  0  0  0  0  # atno 17370 bound_to 10713
  157.5070  130.7915  149.7665 LP  0  0  0  0  0  0  0  0  0  0  0  0  # atno 17371 bound_to 10713
  141.1335  133.9262  157.2485 LP  0  0  0  0  0  0  0  0  0  0  0  0  # atno 17394 bound_to 11000
  139.9607  135.0155  156.9252 LP  0  0  0  0  0  0  0  0  0  0  0  0  # atno 17395 bound_to 11000

$$$$
