AV-unprocessed.smi:1060|AV-procd|sdf|4656|dock5
  -GOLD-   22720 3163D 1   1.00000     0.00000
 Structure written by MMmdl.
 37 38  0  0  0  0  0  0  0  0  1 V2000
  150.5137  136.3687  159.1541 O   0  0  0  0  0  0  0  0  0  0  0  0
  149.5454  137.1286  159.1597 C   0  0  0  0  0  0  0  0  0  0  0  0
  149.5710  138.4036  158.3144 C   0  0  0  0  0  0  0  0  0  0  0  0
  150.6351  139.2399  158.7418 O   0  0  0  0  0  0  0  0  0  0  0  0
  150.9197  140.2794  157.8213 C   0  0  0  0  0  0  0  0  0  0  0  0
  151.2454  141.5576  158.6035 C   0  0  2  0  0  0  0  0  0  0  0  0
  151.5380  142.7652  157.7177 C   0  0  0  0  0  0  0  0  0  0  0  0
  152.3542  143.6669  158.6277 C   0  0  0  0  0  0  0  0  0  0  0  0
  152.9098  142.7132  159.6903 C   0  0  0  0  0  0  0  0  0  0  0  0
  152.4668  141.4158  159.3113 O   0  0  0  0  0  0  0  0  0  0  0  0
  148.4086  136.9369  159.8573 N   0  0  0  0  0  0  0  0  0  0  0  0
  148.0558  135.8983  160.7367 C   0  0  0  0  0  0  0  0  0  0  0  0
  148.2368  134.5730  160.4957 C   0  0  0  0  0  0  0  0  0  0  0  0
  147.8554  133.5538  161.4589 C   0  0  0  0  0  0  0  0  0  0  0  0
  147.9865  132.0718  161.1422 C   0  0  0  0  0  0  0  0  0  0  0  0
  146.7862  131.4948  161.1716 F   0  0  0  0  0  0  0  0  0  0  0  0
  148.5108  131.8789  159.9313 F   0  0  0  0  0  0  0  0  0  0  0  0
  148.7626  131.4595  162.0362 F   0  0  0  0  0  0  0  0  0  0  0  0
  147.3039  133.9888  162.6067 C   0  0  0  0  0  0  0  0  0  0  0  0
  147.1336  135.3492  162.8717 N   0  0  0  0  0  0  0  0  0  0  0  0
  147.4716  136.3385  162.0148 C   0  0  0  0  0  0  0  0  0  0  0  0
  147.2868  137.5157  162.3224 O   0  0  0  0  0  0  0  0  0  0  0  0
  146.7269  135.5956  163.7625 H   0  0  0  0  0  0  0  0  0  0  0  0
  149.6993  138.1391  157.2633 H   0  0  0  0  0  0  0  0  0  0  0  0
  148.6159  138.9205  158.4185 H   0  0  0  0  0  0  0  0  0  0  0  0
  151.7490  140.0070  157.1666 H   0  0  0  0  0  0  0  0  0  0  0  0
  150.0440  140.4461  157.1923 H   0  0  0  0  0  0  0  0  0  0  0  0
  150.4414  141.7982  159.3017 H   0  0  0  0  0  0  0  0  0  0  0  0
  152.1431  142.4654  156.8609 H   0  0  0  0  0  0  0  0  0  0  0  0
  150.6341  143.2450  157.3415 H   0  0  0  0  0  0  0  0  0  0  0  0
  153.1440  144.1806  158.0792 H   0  0  0  0  0  0  0  0  0  0  0  0
  151.7221  144.4231  159.0948 H   0  0  0  0  0  0  0  0  0  0  0  0
  153.9979  142.7438  159.7483 H   0  0  0  0  0  0  0  0  0  0  0  0
  152.5099  142.9605  160.6744 H   0  0  0  0  0  0  0  0  0  0  0  0
  147.6825  137.6243  159.7140 H   0  0  0  0  0  0  0  0  0  0  0  0
  148.6901  134.2277  159.5816 H   0  0  0  0  0  0  0  0  0  0  0  0
  146.9495  133.3414  163.3952 H   0  0  0  0  0  0  0  0  0  0  0  0
  1  2  2  0  0  0  0
  2  3  1  0  0  0  0
  2 11  1  0  0  0  0
  3  4  1  0  0  0  0
  3 24  1  0  0  0  0
  3 25  1  0  0  0  0
  4  5  1  0  0  0  0
  5  6  1  0  0  0  0
  5 26  1  0  0  0  0
  5 27  1  0  0  0  0
  6 10  1  0  0  0  0
  6  7  1  0  0  0  0
  6 28  1  0  0  0  0
  7  8  1  0  0  0  0
  7 29  1  0  0  0  0
  7 30  1  0  0  0  0
  8  9  1  0  0  0  0
  8 31  1  0  0  0  0
  8 32  1  0  0  0  0
  9 10  1  0  0  0  0
  9 33  1  0  0  0  0
  9 34  1  0  0  0  0
 11 12  1  0  0  0  0
 11 35  1  0  0  0  0
 12 21  1  0  0  0  0
 12 13  2  0  0  0  0
 13 14  1  0  0  0  0
 13 36  1  0  0  0  0
 14 15  1  0  0  0  0
 14 19  2  0  0  0  0
 15 16  1  0  0  0  0
 15 17  1  0  0  0  0
 15 18  1  0  0  0  0
 19 20  1  0  0  0  0
 19 37  1  0  0  0  0
 20 23  1  0  0  0  0
 20 21  1  0  0  0  0
 21 22  2  0  0  0  0
M  END
> <s_m_source_file>
AV-unprocessed.smi

> <i_m_source_file_index>
1060

> <i_lp_mmshare_version>
43012

> <i_f3d_flags>
0

> <s_epik_input>
Tz1jMVtuSF1bY0hdYyhDKEYpKEYpRilbY0hdYzFbTkhdQyg9TylbQ0gyXU9bQ0gyXVtDQEBIXTJbQ0gyXVtDSDJdW0NIMl1PMg==

> <s_epik_cmdline>
J2VwaWtfcHl0aG9uJywgJy1waCcsICc3LjAnLCAnLXRuJywgJzgnLCAnLW1hJywgJzIwMCcsICctbWV0YWxfYmluZGluZycsICctaW1hZScsICc8aW5maWxlLm1hZT4nLCAnLW9tYWUnLCAnPG91dGZpbGUubWFlPic=

> <r_lp_tautomer_probability>
0.999

> <r_epik_Ionization_Penalty>
0.00950091

> <r_epik_Ionization_Penalty_Charging>
0.00950081

> <r_epik_Ionization_Penalty_Neutral>
1.00143e-07

> <r_epik_State_Penalty>
0.00721819

> <r_epik_Charging_Adjusted_Penalty>
0.016719

> <i_epik_Tot_Q>
0

> <i_epik_Tot_abs_Q>
0

> <r_epik_Metal_State_Penalty>
0.323303

> <b_epik_Metal_Only>
0

> <s_lp_Force_Field>
OPLS_2005

> <r_lp_Energy>
32.1997

> <b_lp_Chiralities_Consistent>
1

> <s_lp_Variant>
AV-unprocessed.smi:1060-1

> <Gold.Version>
5.8.1

> <Gold.Id.Protein>
6NUR|6NUR_protein|mol2

> <Gold.PLP.Fitness>
46.9103

> <Gold.PLP.PLP>
-41.5919

> <Gold.PLP.part.hbond>
-3.0000

> <Gold.PLP.part.metal>
0.0000

> <Gold.PLP.part.buried>
-6.2564

> <Gold.PLP.part.nonpolar>
-32.4069

> <Gold.PLP.part.repulsive>
0.3513

> <Gold.PLP.ligand.clash>
0.0000

> <Gold.PLP.ligand.torsion>
0.7493

> <Gold.PLP.Chemscore.Hbond>
2.2160

> <Gold.PLP.Chemscore.CHOScore>
0.0000

> <Gold.PLP.Chemscore.Metal>
0.0000

> <Gold.Chemscore.Hbonds>
donor molecule, donor type, donor heavy atom, donor atom, acceptor molecule, acceptor atom, score
      P1  H  6896  6907       L1     1  0.94
      P1  H  6931  6943       L1    22  0.66
      P1  H  6934  6947       L1    22  0.52

> <Gold.PLP.Chemscore.Internal.Correction>
0.1690

> <Gold.Rescore>
     Score         DG    S(hbond)    S(metal)    S(lipo)     H(rot)  DE(clash)    DE(int)     intcor
     15.70     -16.53       1.94        0.00      81.81       1.95       0.06       0.76       ----

> <Gold.Chemscore.Fitness>
15.7009

> <Gold.Chemscore.DG>
-16.5268

> <Gold.Chemscore.ZeroCoef>
-5.4800

> <Gold.Chemscore.Hbond>
1.9385

> <Gold.Chemscore.Metal>
0.0000

> <Gold.Chemscore.Lipo>
81.8062

> <Gold.Chemscore.Internal_Hbond>
0.0000

> <Gold.Chemscore.DEClash>
0.0626

> <Gold.Chemscore.DEInternal>
0.7632

> <Gold.Chemscore.Rot>
1.9527

> <Gold.Chemscore.Internal.Correction>
   9.000000E+99

> <Gold.Chemscore.Hbonds>
donor molecule, donor type, donor heavy atom, donor atom, acceptor molecule, acceptor atom, score
      P1  H  6896  6907       L1     1  0.91
      P1  H  6931  6943       L1    22  0.20
      P1  H  6934  6947       L1    22  0.50

> <Gold.Chemscore.Hbond.Weighted>
-6.4744

> <Gold.Chemscore.Metal.Weighted>
-0.0000

> <Gold.Chemscore.Lipo.Weighted>
-9.5713

> <Gold.Chemscore.Internal_Hbond.Weighted>
0.0000

> <Gold.Chemscore.DEClash.Weighted>
0.0626

> <Gold.Chemscore.DEInternal.Weighted>
0.7632

> <Gold.Chemscore.Rot.Weighted>
4.9990

> <Gold.Chemscore.Internal.Correction.Weighted>
   9.000000E+99

> <Gold.Protein.RotatedTorsions>
[ 6907 6896 6895 6894 ] final  -53.34 input  -60.11 | X-H torsion
[ 7974 7965 7964 7962 ] final   41.67 input  175.53 | X-H torsion
[ 8008 7997 7996 7995 ] final -108.89 input   59.86 | X-H torsion
[ 10167 10162 10161 10158 ] final   98.15 input  -65.29 | X-H torsion
[ 10718 10713 10712 10709 ] final  -16.44 input   66.30 | X-H torsion
[ 10763 10752 10751 10750 ] final   -0.09 input  -60.55 | X-H torsion
[ 11005 11000 10999 10996 ] final  164.06 input  -57.11 | X-H torsion

> <Gold.Protein.ActiveResidues>
 VAL166  LYS551  ARG553  GLY616  TRP617  ASP618  TYR619  PRO620  LYS621  CYS622 
 ASP623  PHE694  ASN695  SER759  ASP760  ASP761  ALA762  ILE779  LEU786  VAL792 
 PHE793  MET794  SER795  GLU796  ALA797  LYS798  CYS799  TRP800  GLU811  SER814 

> <Gold.Protein.RotatedAtoms>
  150.8436  134.7736  159.6951 H   0  0  0  0  0  0  0  0  0  0  0  0  # atno 6907 bound_to 6896
  152.4517  134.5375  159.9839 H   0  0  0  0  0  0  0  0  0  0  0  0  # atno 6908 bound_to 6896
  151.5510  133.3379  159.2989 H   0  0  0  0  0  0  0  0  0  0  0  0  # atno 6909 bound_to 6896
  146.0804  139.5388  142.9541 H   0  0  0  0  0  0  0  0  0  0  0  0  # atno 7974 bound_to 7965
  154.9510  140.0401  157.2144 H   0  0  0  0  0  0  0  0  0  0  0  0  # atno 8008 bound_to 7997
  154.7978  140.2846  155.5921 H   0  0  0  0  0  0  0  0  0  0  0  0  # atno 8009 bound_to 7997
  156.2958  140.2561  156.2840 H   0  0  0  0  0  0  0  0  0  0  0  0  # atno 8010 bound_to 7997
  139.7735  144.6914  151.0122 H   0  0  0  0  0  0  0  0  0  0  0  0  # atno 10167 bound_to 10162
  156.5876  130.4790  149.6293 H   0  0  0  0  0  0  0  0  0  0  0  0  # atno 10718 bound_to 10713
  153.3274  135.6973  153.6977 H   0  0  0  0  0  0  0  0  0  0  0  0  # atno 10763 bound_to 10752
  153.5793  135.3501  155.2869 H   0  0  0  0  0  0  0  0  0  0  0  0  # atno 10764 bound_to 10752
  154.8611  135.4291  154.2454 H   0  0  0  0  0  0  0  0  0  0  0  0  # atno 10765 bound_to 10752
  140.2421  134.8043  157.3421 H   0  0  0  0  0  0  0  0  0  0  0  0  # atno 11005 bound_to 11000
  145.6228  141.0319  143.1905 LP  0  0  0  0  0  0  0  0  0  0  0  0  # atno 17320 bound_to 7965
  144.7289  139.7787  143.7354 LP  0  0  0  0  0  0  0  0  0  0  0  0  # atno 17321 bound_to 7965
  140.7815  143.4561  151.0343 LP  0  0  0  0  0  0  0  0  0  0  0  0  # atno 17342 bound_to 10162
  139.8244  143.7776  152.3178 LP  0  0  0  0  0  0  0  0  0  0  0  0  # atno 17343 bound_to 10162
  156.2577  130.6944  151.1703 LP  0  0  0  0  0  0  0  0  0  0  0  0  # atno 17370 bound_to 10713
  157.7311  131.0610  150.5692 LP  0  0  0  0  0  0  0  0  0  0  0  0  # atno 17371 bound_to 10713
  140.1643  134.4689  155.7874 LP  0  0  0  0  0  0  0  0  0  0  0  0  # atno 17394 bound_to 11000
  141.2209  133.6914  156.7597 LP  0  0  0  0  0  0  0  0  0  0  0  0  # atno 17395 bound_to 11000

$$$$
