AV-unprocessed.smi:1557|AV-procd|sdf|6270|dock5
  -GOLD-   22720 6463D 1   1.00000     0.00000
 Structure written by MMmdl.
 41 42  0  0  0  0  0  0  0  0  1 V2000
  151.9253  139.2833  155.9011 C   0  0  0  0  0  0  0  0  0  0  0  0
  151.7948  138.6266  154.5249 C   0  0  0  0  0  0  0  0  0  0  0  0
  150.4275  138.2930  154.3075 O   0  0  0  0  0  0  0  0  0  0  0  0
  149.4958  139.3118  154.2475 C   0  0  0  0  0  0  0  0  0  0  0  0
  149.8953  140.5730  154.5484 N   0  0  0  0  0  0  0  0  0  0  0  0
  148.9838  141.5658  154.4933 C   0  0  0  0  0  0  0  0  0  0  0  0
  147.6364  141.3568  154.1462 C   0  0  0  0  0  0  0  0  0  0  0  0
  147.2197  140.0496  153.8333 C   0  0  0  0  0  0  0  0  0  0  0  0
  148.1689  138.9998  153.8712 C   0  0  0  0  0  0  0  0  0  0  0  0
  147.8509  137.6429  153.5915 N   0  0  0  0  0  0  0  0  0  0  0  0
  146.7304  137.1455  153.0427 C   0  0  0  0  0  0  0  0  0  0  0  0
  145.7495  137.8067  152.7013 O   0  0  0  0  0  0  0  0  0  0  0  0
  146.8195  135.8164  152.8859 N   0  0  0  0  0  0  0  0  0  0  0  0
  145.8128  134.9675  152.2466 C   0  0  2  0  0  0  0  0  0  0  0  0
  145.6025  135.4796  150.7993 C   0  0  0  0  0  0  0  0  0  0  0  0
  144.3220  134.9993  150.0802 C   0  0  0  0  0  0  0  0  0  0  0  0
  143.9952  133.5017  150.2534 C   0  0  0  0  0  0  0  0  0  0  0  0
  143.7326  133.0087  151.7003 C   0  0  0  0  0  0  0  0  0  0  0  0
  143.5537  134.0708  152.6908 N   0  0  0  0  0  0  0  0  0  0  0  0
  144.4706  134.9991  153.0118 C   0  0  0  0  0  0  0  0  0  0  0  0
  144.2414  135.8601  153.8607 O   0  0  0  0  0  0  0  0  0  0  0  0
  152.9609  139.5557  156.1060 H   0  0  0  0  0  0  0  0  0  0  0  0
  151.5947  138.6076  156.6902 H   0  0  0  0  0  0  0  0  0  0  0  0
  151.3226  140.1899  155.9609 H   0  0  0  0  0  0  0  0  0  0  0  0
  152.1461  139.3166  153.7560 H   0  0  0  0  0  0  0  0  0  0  0  0
  152.4164  137.7306  154.4866 H   0  0  0  0  0  0  0  0  0  0  0  0
  149.3379  142.5558  154.7400 H   0  0  0  0  0  0  0  0  0  0  0  0
  146.9370  142.1792  154.1247 H   0  0  0  0  0  0  0  0  0  0  0  0
  146.1838  139.8756  153.5863 H   0  0  0  0  0  0  0  0  0  0  0  0
  148.6032  136.9856  153.7371 H   0  0  0  0  0  0  0  0  0  0  0  0
  147.6666  135.3599  153.1900 H   0  0  0  0  0  0  0  0  0  0  0  0
  146.1913  133.9446  152.2179 H   0  0  0  0  0  0  0  0  0  0  0  0
  145.6022  136.5708  150.7869 H   0  0  0  0  0  0  0  0  0  0  0  0
  146.4682  135.1812  150.2064 H   0  0  0  0  0  0  0  0  0  0  0  0
  143.4701  135.5930  150.4147 H   0  0  0  0  0  0  0  0  0  0  0  0
  144.4177  135.2204  149.0167 H   0  0  0  0  0  0  0  0  0  0  0  0
  143.1091  133.2858  149.6555 H   0  0  0  0  0  0  0  0  0  0  0  0
  144.7933  132.9031  149.8123 H   0  0  0  0  0  0  0  0  0  0  0  0
  142.8412  132.3812  151.7135 H   0  0  0  0  0  0  0  0  0  0  0  0
  144.5467  132.3601  152.0265 H   0  0  0  0  0  0  0  0  0  0  0  0
  142.6690  134.0967  153.1769 H   0  0  0  0  0  0  0  0  0  0  0  0
  1  2  1  0  0  0  0
  1 22  1  0  0  0  0
  1 23  1  0  0  0  0
  1 24  1  0  0  0  0
  2  3  1  0  0  0  0
  2 25  1  0  0  0  0
  2 26  1  0  0  0  0
  3  4  1  0  0  0  0
  4  9  1  0  0  0  0
  4  5  2  0  0  0  0
  5  6  1  0  0  0  0
  6  7  2  0  0  0  0
  6 27  1  0  0  0  0
  7  8  1  0  0  0  0
  7 28  1  0  0  0  0
  8  9  2  0  0  0  0
  8 29  1  0  0  0  0
  9 10  1  0  0  0  0
 10 11  1  0  0  0  0
 10 30  1  0  0  0  0
 11 12  2  0  0  0  0
 11 13  1  0  0  0  0
 13 14  1  0  0  0  0
 13 31  1  0  0  0  0
 14 20  1  0  0  0  0
 14 15  1  0  0  0  0
 14 32  1  0  0  0  0
 15 16  1  0  0  0  0
 15 33  1  0  0  0  0
 15 34  1  0  0  0  0
 16 17  1  0  0  0  0
 16 35  1  0  0  0  0
 16 36  1  0  0  0  0
 17 18  1  0  0  0  0
 17 37  1  0  0  0  0
 17 38  1  0  0  0  0
 18 19  1  0  0  0  0
 18 39  1  0  0  0  0
 18 40  1  0  0  0  0
 19 20  1  0  0  0  0
 19 41  1  0  0  0  0
 20 21  2  0  0  0  0
M  END
> <s_m_source_file>
AV-unprocessed.smi

> <i_m_source_file_index>
1557

> <i_lp_mmshare_version>
43012

> <i_f3d_flags>
0

> <s_epik_input>
W0NIM11bQ0gyXU9jMW5bY0hdW2NIXVtjSF1jMVtOSF1DKD1PKVtOSF1bQ0BASF0yW0NIMl1bQ0gyXVtDSDJdW0NIMl1bTkhdQzI9Tw==

> <s_epik_cmdline>
J2VwaWtfcHl0aG9uJywgJy1waCcsICc3LjAnLCAnLXRuJywgJzgnLCAnLW1hJywgJzIwMCcsICctbWV0YWxfYmluZGluZycsICctaW1hZScsICc8aW5maWxlLm1hZT4nLCAnLW9tYWUnLCAnPG91dGZpbGUubWFlPic=

> <r_lp_tautomer_probability>
1

> <r_epik_Ionization_Penalty>
0.000101084

> <r_epik_Ionization_Penalty_Charging>
0

> <r_epik_Ionization_Penalty_Neutral>
0.000101084

> <r_epik_State_Penalty>
-0

> <r_epik_Charging_Adjusted_Penalty>
0

> <i_epik_Tot_Q>
0

> <i_epik_Tot_abs_Q>
0

> <r_epik_Metal_State_Penalty>
-0

> <b_epik_Metal_Only>
0

> <s_lp_Force_Field>
OPLS_2005

> <r_lp_Energy>
17.7694

> <b_lp_Chiralities_Consistent>
1

> <s_lp_Variant>
AV-unprocessed.smi:1557-1

> <Gold.Version>
5.8.1

> <Gold.Id.Protein>
6NUR|6NUR_protein|mol2

> <Gold.PLP.Fitness>
37.4474

> <Gold.PLP.PLP>
-31.8384

> <Gold.PLP.part.hbond>
-2.6462

> <Gold.PLP.part.metal>
0.0000

> <Gold.PLP.part.buried>
1.2335

> <Gold.PLP.part.nonpolar>
-29.4119

> <Gold.PLP.part.repulsive>
0.6492

> <Gold.PLP.ligand.clash>
0.0000

> <Gold.PLP.ligand.torsion>
0.0908

> <Gold.PLP.Chemscore.Hbond>
0.9280

> <Gold.PLP.Chemscore.CHOScore>
1.0000

> <Gold.PLP.Chemscore.Metal>
0.0000

> <Gold.Chemscore.Hbonds>
donor molecule, donor type, donor heavy atom, donor atom, acceptor molecule, acceptor atom, score
      L1  H    10    30       P1  7948  0.08
      P1  H  7989  7998       L1     5  0.80
      L1  C     6    27       P1  8028  1.00

> <Gold.PLP.Chemscore.Internal.Correction>
0.0066

> <Gold.Rescore>
     Score         DG    S(hbond)    S(metal)    S(lipo)     H(rot)  DE(clash)    DE(int)     intcor
      4.95     -13.05       0.82        0.00      73.93       1.49       2.00       6.10       ----

> <Gold.Chemscore.Fitness>
4.9526

> <Gold.Chemscore.DG>
-13.0479

> <Gold.Chemscore.ZeroCoef>
-5.4800

> <Gold.Chemscore.Hbond>
0.8219

> <Gold.Chemscore.Metal>
0.0000

> <Gold.Chemscore.Lipo>
73.9265

> <Gold.Chemscore.Internal_Hbond>
0.0000

> <Gold.Chemscore.DEClash>
1.9984

> <Gold.Chemscore.DEInternal>
6.0969

> <Gold.Chemscore.Rot>
1.4948

> <Gold.Chemscore.Internal.Correction>
   9.000000E+99

> <Gold.Chemscore.Hbonds>
donor molecule, donor type, donor heavy atom, donor atom, acceptor molecule, acceptor atom, score
      L1  H    10    30       P1  7948  0.10
      L1  H    13    31       P1  7948  0.04
      P1  H  7989  7998       L1     5  0.37

> <Gold.Chemscore.Hbond.Weighted>
-2.7453

> <Gold.Chemscore.Metal.Weighted>
-0.0000

> <Gold.Chemscore.Lipo.Weighted>
-8.6494

> <Gold.Chemscore.Internal_Hbond.Weighted>
0.0000

> <Gold.Chemscore.DEClash.Weighted>
1.9984

> <Gold.Chemscore.DEInternal.Weighted>
6.0969

> <Gold.Chemscore.Rot.Weighted>
3.8268

> <Gold.Chemscore.Internal.Correction.Weighted>
   9.000000E+99

> <Gold.Protein.RotatedTorsions>
[ 6907 6896 6895 6894 ] final   24.13 input  -60.11 | X-H torsion
[ 7974 7965 7964 7962 ] final  171.00 input  175.53 | X-H torsion
[ 8008 7997 7996 7995 ] final  -55.96 input   59.86 | X-H torsion
[ 10167 10162 10161 10158 ] final  159.04 input  -65.29 | X-H torsion
[ 10718 10713 10712 10709 ] final   21.22 input   66.30 | X-H torsion
[ 10763 10752 10751 10750 ] final -160.36 input  -60.55 | X-H torsion
[ 11005 11000 10999 10996 ] final   16.94 input  -57.11 | X-H torsion

> <Gold.Protein.ActiveResidues>
 VAL166  LYS551  ARG553  GLY616  TRP617  ASP618  TYR619  PRO620  LYS621  CYS622 
 ASP623  PHE694  ASN695  SER759  ASP760  ASP761  ALA762  ILE779  LEU786  VAL792 
 PHE793  MET794  SER795  GLU796  ALA797  LYS798  CYS799  TRP800  GLU811  SER814 

> <Gold.Protein.RotatedAtoms>
  151.9528  135.0161  160.0542 H   0  0  0  0  0  0  0  0  0  0  0  0  # atno 6907 bound_to 6896
  152.1938  133.4787  159.5030 H   0  0  0  0  0  0  0  0  0  0  0  0  # atno 6908 bound_to 6896
  150.6940  134.1596  159.4214 H   0  0  0  0  0  0  0  0  0  0  0  0  # atno 6909 bound_to 6896
  144.7307  139.9286  143.6423 H   0  0  0  0  0  0  0  0  0  0  0  0  # atno 7974 bound_to 7965
  154.4213  140.1141  156.5561 H   0  0  0  0  0  0  0  0  0  0  0  0  # atno 8008 bound_to 7997
  155.6360  140.3496  155.4679 H   0  0  0  0  0  0  0  0  0  0  0  0  # atno 8009 bound_to 7997
  155.9909  140.1179  157.0628 H   0  0  0  0  0  0  0  0  0  0  0  0  # atno 8010 bound_to 7997
  139.4830  144.4767  151.8501 H   0  0  0  0  0  0  0  0  0  0  0  0  # atno 10167 bound_to 10162
  157.1355  130.6609  149.5964 H   0  0  0  0  0  0  0  0  0  0  0  0  # atno 10718 bound_to 10713
  154.7397  135.3065  154.8750 H   0  0  0  0  0  0  0  0  0  0  0  0  # atno 10763 bound_to 10752
  153.9568  135.6757  153.4749 H   0  0  0  0  0  0  0  0  0  0  0  0  # atno 10764 bound_to 10752
  153.0996  135.4918  154.8767 H   0  0  0  0  0  0  0  0  0  0  0  0  # atno 10765 bound_to 10752
  140.4415  134.1317  155.7691 H   0  0  0  0  0  0  0  0  0  0  0  0  # atno 11005 bound_to 11000
  146.0875  139.3864  143.0426 LP  0  0  0  0  0  0  0  0  0  0  0  0  # atno 17320 bound_to 7965
  145.7757  140.9878  143.1126 LP  0  0  0  0  0  0  0  0  0  0  0  0  # atno 17321 bound_to 7965
  140.4240  144.2205  150.5887 LP  0  0  0  0  0  0  0  0  0  0  0  0  # atno 17342 bound_to 10162
  140.4845  143.2368  151.8907 LP  0  0  0  0  0  0  0  0  0  0  0  0  # atno 17343 bound_to 10162
  155.9799  130.4796  150.6742 LP  0  0  0  0  0  0  0  0  0  0  0  0  # atno 17370 bound_to 10713
  157.4354  131.0854  151.0997 LP  0  0  0  0  0  0  0  0  0  0  0  0  # atno 17371 bound_to 10713
  141.1703  133.8621  157.1590 LP  0  0  0  0  0  0  0  0  0  0  0  0  # atno 17394 bound_to 11000
  140.0066  135.0005  157.0307 LP  0  0  0  0  0  0  0  0  0  0  0  0  # atno 17395 bound_to 11000

$$$$
