AV-unprocessed.smi:334|AV-procd|sdf|2364|dock4
  -GOLD-   2262022283D 1   1.00000     0.00000
 Structure written by MMmdl.
 44 46  0  0  0  0  0  0  0  0  3 V2000
  150.1576  141.7401  156.1274 C   0  0  0  0  0  0  0  0  0  0  0  0
  151.1989  141.3479  157.1902 C   0  0  2  0  0  0  0  0  0  0  0  0
  151.2005  139.8970  157.3670 N   0  0  0  0  0  0  0  0  0  0  0  0
  150.1361  139.1481  157.6932 C   0  0  0  0  0  0  0  0  0  0  0  0
  149.0157  139.6189  157.8946 O   0  0  0  0  0  0  0  0  0  0  0  0
  150.3979  137.6403  157.8193 C   0  0  0  0  0  0  0  0  0  0  0  0
  149.1746  136.8222  157.7580 N   0  0  0  0  0  0  0  0  0  0  0  0
  148.2337  137.0036  158.7907 C   0  0  0  0  0  0  0  0  0  0  0  0
  147.0765  136.3148  158.8343 C   0  0  0  0  0  0  0  0  0  0  0  0
  146.1181  136.5199  159.8983 N   0  3  0  0  0  0  0  0  0  0  0  0
  145.2469  135.6747  160.0763 O   0  0  0  0  0  0  0  0  0  0  0  0
  146.2036  137.5298  160.5905 O   0  5  0  0  0  0  0  0  0  0  0  0
  146.8195  135.3608  157.7728 C   0  0  0  0  0  0  0  0  0  0  0  0
  147.7129  135.1867  156.7792 C   0  0  0  0  0  0  0  0  0  0  0  0
  148.9684  135.9434  156.7299 C   0  0  0  0  0  0  0  0  0  0  0  0
  149.7842  135.7958  155.8198 O   0  0  0  0  0  0  0  0  0  0  0  0
  150.9316  142.0259  158.5547 C   0  0  1  0  0  0  0  0  0  0  0  0
  152.0974  141.9301  159.5662 C   0  0  0  0  0  0  0  0  0  0  0  0
  152.2586  143.3838  160.0486 C   0  0  1  0  0  0  0  0  0  0  0  0
  152.9215  144.2125  158.9329 C   0  0  0  0  0  0  0  0  0  0  0  0
  151.7900  144.3505  157.8983 C   0  0  0  0  0  0  0  0  0  0  0  0
  150.6392  143.5471  158.5387 C   0  0  2  0  0  0  0  0  0  0  0  0
  150.8234  143.8962  160.0123 C   0  0  0  0  0  0  0  0  0  0  0  0
  150.1769  142.8119  155.9307 H   0  0  0  0  0  0  0  0  0  0  0  0
  149.1479  141.4777  156.4448 H   0  0  0  0  0  0  0  0  0  0  0  0
  150.3497  141.2370  155.1791 H   0  0  0  0  0  0  0  0  0  0  0  0
  152.1864  141.6458  156.8362 H   0  0  0  0  0  0  0  0  0  0  0  0
  152.0820  139.4260  157.2237 H   0  0  0  0  0  0  0  0  0  0  0  0
  151.0995  137.3367  157.0401 H   0  0  0  0  0  0  0  0  0  0  0  0
  150.9237  137.4617  158.7586 H   0  0  0  0  0  0  0  0  0  0  0  0
  148.5158  137.7413  159.5282 H   0  0  0  0  0  0  0  0  0  0  0  0
  145.9091  134.7796  157.7663 H   0  0  0  0  0  0  0  0  0  0  0  0
  147.5013  134.4714  155.9982 H   0  0  0  0  0  0  0  0  0  0  0  0
  150.0627  141.5363  158.9995 H   0  0  0  0  0  0  0  0  0  0  0  0
  151.8320  141.2698  160.3927 H   0  0  0  0  0  0  0  0  0  0  0  0
  153.0190  141.5495  159.1235 H   0  0  0  0  0  0  0  0  0  0  0  0
  152.7580  143.4721  161.0138 H   0  0  0  0  0  0  0  0  0  0  0  0
  153.2259  145.1929  159.3017 H   0  0  0  0  0  0  0  0  0  0  0  0
  153.8039  143.7212  158.5209 H   0  0  0  0  0  0  0  0  0  0  0  0
  151.5054  145.3979  157.7912 H   0  0  0  0  0  0  0  0  0  0  0  0
  152.0740  143.9937  156.9093 H   0  0  0  0  0  0  0  0  0  0  0  0
  149.6568  143.7986  158.1382 H   0  0  0  0  0  0  0  0  0  0  0  0
  150.1521  143.3494  160.6771 H   0  0  0  0  0  0  0  0  0  0  0  0
  150.7390  144.9645  160.2198 H   0  0  0  0  0  0  0  0  0  0  0  0
  1  2  1  0  0  0  0
  1 24  1  0  0  0  0
  1 25  1  0  0  0  0
  1 26  1  0  0  0  0
  2  3  1  0  0  0  0
  2 17  1  0  0  0  0
  2 27  1  0  0  0  0
  3  4  1  0  0  0  0
  3 28  1  0  0  0  0
  4  5  2  0  0  0  0
  4  6  1  0  0  0  0
  6  7  1  0  0  0  0
  6 29  1  0  0  0  0
  6 30  1  0  0  0  0
  7 15  1  0  0  0  0
  7  8  1  0  0  0  0
  8  9  2  0  0  0  0
  8 31  1  0  0  0  0
  9 10  1  0  0  0  0
  9 13  1  0  0  0  0
 10 11  2  0  0  0  0
 10 12  1  0  0  0  0
 13 14  2  0  0  0  0
 13 32  1  0  0  0  0
 14 15  1  0  0  0  0
 14 33  1  0  0  0  0
 15 16  2  0  0  0  0
 17 22  1  0  0  0  0
 17 18  1  0  0  0  0
 17 34  1  0  0  0  0
 18 19  1  0  0  0  0
 18 35  1  0  0  0  0
 18 36  1  0  0  0  0
 19 23  1  0  0  0  0
 19 20  1  0  0  0  0
 19 37  1  0  0  0  0
 20 21  1  0  0  0  0
 20 38  1  0  0  0  0
 20 39  1  0  0  0  0
 21 22  1  0  0  0  0
 21 40  1  0  0  0  0
 21 41  1  0  0  0  0
 22 23  1  0  0  0  0
 22 42  1  0  0  0  0
 23 43  1  0  0  0  0
 23 44  1  0  0  0  0
M  CHG  1  10   1
M  CHG  1  12  -1
M  END
> <s_m_source_file>
AV-unprocessed.smi

> <i_m_source_file_index>
334

> <i_lp_mmshare_version>
43012

> <i_f3d_flags>
0

> <s_epik_input>
W0NIMl0xW0NIMl1bQ0BIXShbQ0gyXTIpW0NAQEhdKFtDSDJdW0NAQEhdMTIpW0NASF0oW0NIM10pW05IXUMoPU8pW0NIMl1uM1tjSF1jKFtOK10oPU8pW08tXSlbY0hdW2NIXWMzPU8=

> <s_epik_cmdline>
J2VwaWtfcHl0aG9uJywgJy1waCcsICc3LjAnLCAnLXRuJywgJzgnLCAnLW1hJywgJzIwMCcsICctbWV0YWxfYmluZGluZycsICctaW1hZScsICc8aW5maWxlLm1hZT4nLCAnLW9tYWUnLCAnPG91dGZpbGUubWFlPic=

> <r_lp_tautomer_probability>
1

> <r_epik_Ionization_Penalty>
2.17081e-08

> <r_epik_Ionization_Penalty_Charging>
8.1195e-11

> <r_epik_Ionization_Penalty_Neutral>
2.16269e-08

> <r_epik_State_Penalty>
-0

> <r_epik_Charging_Adjusted_Penalty>
8.1195e-11

> <i_epik_Tot_Q>
0

> <i_epik_Tot_abs_Q>
2

> <r_epik_Metal_State_Penalty>
-0

> <b_epik_Metal_Only>
0

> <s_lp_Force_Field>
OPLS_2005

> <r_lp_Energy>
62.3999

> <b_lp_Chiralities_Consistent>
1

> <s_lp_Variant>
AV-unprocessed.smi:334-3

> <Gold.Version>
5.8.1

> <Gold.Id.Protein>
6NUR|6NUR_protein|mol2

> <Gold.PLP.Fitness>
44.6907

> <Gold.PLP.PLP>
-40.6745

> <Gold.PLP.part.hbond>
-2.1861

> <Gold.PLP.part.metal>
0.0000

> <Gold.PLP.part.buried>
-5.6767

> <Gold.PLP.part.nonpolar>
-33.0879

> <Gold.PLP.part.repulsive>
0.0729

> <Gold.PLP.ligand.clash>
0.0000

> <Gold.PLP.ligand.torsion>
0.5656

> <Gold.PLP.Chemscore.Hbond>
1.6940

> <Gold.PLP.Chemscore.CHOScore>
0.0000

> <Gold.PLP.Chemscore.Metal>
0.0000

> <Gold.Chemscore.Hbonds>
donor molecule, donor type, donor heavy atom, donor atom, acceptor molecule, acceptor atom, score
      P1  H  6934  6947       L1    12  1.00

> <Gold.PLP.Chemscore.Internal.Correction>
0.0655

> <Gold.Rescore>
     Score         DG    S(hbond)    S(metal)    S(lipo)     H(rot)  DE(clash)    DE(int)     intcor
     16.36     -19.05       1.78        0.00     103.33       1.75       0.00       2.68       ----

> <Gold.Chemscore.Fitness>
16.3618

> <Gold.Chemscore.DG>
-19.0480

> <Gold.Chemscore.ZeroCoef>
-5.4800

> <Gold.Chemscore.Hbond>
1.7820

> <Gold.Chemscore.Metal>
0.0000

> <Gold.Chemscore.Lipo>
103.3289

> <Gold.Chemscore.Internal_Hbond>
0.0000

> <Gold.Chemscore.DEClash>
0.0048

> <Gold.Chemscore.DEInternal>
2.6813

> <Gold.Chemscore.Rot>
1.7474

> <Gold.Chemscore.Internal.Correction>
   9.000000E+99

> <Gold.Chemscore.Hbonds>
donor molecule, donor type, donor heavy atom, donor atom, acceptor molecule, acceptor atom, score
      P1  H  6934  6947       L1    12  1.00

> <Gold.Chemscore.Hbond.Weighted>
-5.9518

> <Gold.Chemscore.Metal.Weighted>
-0.0000

> <Gold.Chemscore.Lipo.Weighted>
-12.0895

> <Gold.Chemscore.Internal_Hbond.Weighted>
0.0000

> <Gold.Chemscore.DEClash.Weighted>
0.0048

> <Gold.Chemscore.DEInternal.Weighted>
2.6813

> <Gold.Chemscore.Rot.Weighted>
4.4733

> <Gold.Chemscore.Internal.Correction.Weighted>
   9.000000E+99

> <Gold.Protein.RotatedTorsions>
[ 6907 6896 6895 6894 ] final  -72.18 input  -60.11 | X-H torsion
[ 7974 7965 7964 7962 ] final  112.77 input  175.53 | X-H torsion
[ 8008 7997 7996 7995 ] final  -97.26 input   59.86 | X-H torsion
[ 10167 10162 10161 10158 ] final  125.83 input  -65.29 | X-H torsion
[ 10718 10713 10712 10709 ] final  153.07 input   66.30 | X-H torsion
[ 10763 10752 10751 10750 ] final -131.67 input  -60.55 | X-H torsion
[ 11005 11000 10999 10996 ] final  171.26 input  -57.11 | X-H torsion

> <Gold.Protein.ActiveResidues>
 VAL166  LYS551  ARG553  GLY616  TRP617  ASP618  TYR619  PRO620  LYS621  CYS622 
 ASP623  PHE694  ASN695  SER759  ASP760  ASP761  ALA762  ILE779  LEU786  VAL792 
 PHE793  MET794  SER795  GLU796  ALA797  LYS798  CYS799  TRP800  GLU811  SER814 

> <Gold.Protein.RotatedAtoms>
  150.7181  134.5200  159.5648 H   0  0  0  0  0  0  0  0  0  0  0  0  # atno 6907 bound_to 6896
  152.2758  134.7880  160.0415 H   0  0  0  0  0  0  0  0  0  0  0  0  # atno 6908 bound_to 6896
  151.8545  133.3410  159.3720 H   0  0  0  0  0  0  0  0  0  0  0  0  # atno 6909 bound_to 6896
  145.2254  139.2843  143.4196 H   0  0  0  0  0  0  0  0  0  0  0  0  # atno 7974 bound_to 7965
  154.7854  140.0464  157.1160 H   0  0  0  0  0  0  0  0  0  0  0  0  # atno 8008 bound_to 7997
  154.9655  140.3083  155.4992 H   0  0  0  0  0  0  0  0  0  0  0  0  # atno 8009 bound_to 7997
  156.2942  140.2263  156.4743 H   0  0  0  0  0  0  0  0  0  0  0  0  # atno 8010 bound_to 7997
  139.5664  144.6913  151.3899 H   0  0  0  0  0  0  0  0  0  0  0  0  # atno 10167 bound_to 10162
  157.2495  131.0776  151.1739 H   0  0  0  0  0  0  0  0  0  0  0  0  # atno 10718 bound_to 10713
  154.8749  135.3822  154.4285 H   0  0  0  0  0  0  0  0  0  0  0  0  # atno 10763 bound_to 10752
  153.4981  135.7030  153.5852 H   0  0  0  0  0  0  0  0  0  0  0  0  # atno 10764 bound_to 10752
  153.4196  135.3905  155.2069 H   0  0  0  0  0  0  0  0  0  0  0  0  # atno 10765 bound_to 10752
  140.3171  134.7468  157.4036 H   0  0  0  0  0  0  0  0  0  0  0  0  # atno 11005 bound_to 11000
  146.3366  140.2572  142.8600 LP  0  0  0  0  0  0  0  0  0  0  0  0  # atno 17320 bound_to 7965
  144.9726  140.8383  143.5446 LP  0  0  0  0  0  0  0  0  0  0  0  0  # atno 17321 bound_to 7965
  140.6947  143.7777  150.7309 LP  0  0  0  0  0  0  0  0  0  0  0  0  # atno 17342 bound_to 10162
  140.1270  143.4560  152.2278 LP  0  0  0  0  0  0  0  0  0  0  0  0  # atno 17343 bound_to 10162
  157.3293  130.6977  149.6315 LP  0  0  0  0  0  0  0  0  0  0  0  0  # atno 17370 bound_to 10713
  155.9667  130.4312  150.4910 LP  0  0  0  0  0  0  0  0  0  0  0  0  # atno 17371 bound_to 10713
  140.0974  134.5519  155.8385 LP  0  0  0  0  0  0  0  0  0  0  0  0  # atno 17394 bound_to 11000
  141.2095  133.6684  156.6444 LP  0  0  0  0  0  0  0  0  0  0  0  0  # atno 17395 bound_to 11000

$$$$
