AV-unprocessed.smi:770|AV-procd|sdf|3679|dock6
  -GOLD-   22720 1 93D 1   1.00000     0.00000
 Structure written by MMmdl.
 37 38  0  0  0  0  0  0  0  0  1 V2000
  149.3721  132.2792  153.4454 C   0  0  0  0  0  0  0  0  0  0  0  0
  149.5774  133.2475  154.1603 C   0  0  0  0  0  0  0  0  0  0  0  0
  149.8239  134.3994  155.0456 C   0  0  0  0  0  0  0  0  0  0  0  0
  150.0332  135.6387  154.3057 N   0  0  0  0  0  0  0  0  0  0  0  0
  150.5462  136.7650  154.8213 C   0  0  0  0  0  0  0  0  0  0  0  0
  150.9645  136.8661  155.9748 O   0  0  0  0  0  0  0  0  0  0  0  0
  150.5056  137.7775  153.9426 N   0  0  0  0  0  0  0  0  0  0  0  0
  150.8596  139.1648  154.2365 C   0  0  0  0  0  0  0  0  0  0  0  0
  152.0541  139.2709  155.2068 C   0  0  0  0  0  0  0  0  0  0  0  0
  151.8769  140.3244  156.2618 C   0  0  0  0  0  0  0  0  0  0  0  0
  150.9665  141.3529  156.2551 C   0  0  0  0  0  0  0  0  0  0  0  0
  151.0427  142.2989  157.7156 S   0  0  0  0  0  0  0  0  0  0  0  0
  152.3449  141.2571  158.2808 C   0  0  0  0  0  0  0  0  0  0  0  0
  152.9567  141.4428  159.5167 N   0  0  0  0  0  0  0  0  0  0  0  0
  153.8697  140.5137  160.1750 C   0  0  0  0  0  0  0  0  0  0  0  0
  154.5109  141.2470  161.3503 C   0  0  0  0  0  0  0  0  0  0  0  0
  153.4202  142.2200  161.7534 C   0  0  0  0  0  0  0  0  0  0  0  0
  152.8008  142.5887  160.4072 C   0  0  0  0  0  0  0  0  0  0  0  0
  152.6674  140.2935  157.4144 N   0  0  0  0  0  0  0  0  0  0  0  0
  149.1925  131.4286  152.8272 H   0  0  0  0  0  0  0  0  0  0  0  0
  148.9883  134.4915  155.7411 H   0  0  0  0  0  0  0  0  0  0  0  0
  150.7138  134.1849  155.6374 H   0  0  0  0  0  0  0  0  0  0  0  0
  149.7165  135.6548  153.3474 H   0  0  0  0  0  0  0  0  0  0  0  0
  150.1467  137.5880  153.0183 H   0  0  0  0  0  0  0  0  0  0  0  0
  151.0772  139.7077  153.3151 H   0  0  0  0  0  0  0  0  0  0  0  0
  149.9885  139.6513  154.6755 H   0  0  0  0  0  0  0  0  0  0  0  0
  152.2164  138.3007  155.6775 H   0  0  0  0  0  0  0  0  0  0  0  0
  152.9598  139.4733  154.6341 H   0  0  0  0  0  0  0  0  0  0  0  0
  150.2405  141.5941  155.4933 H   0  0  0  0  0  0  0  0  0  0  0  0
  153.2945  139.6570  160.5275 H   0  0  0  0  0  0  0  0  0  0  0  0
  154.6241  140.1444  159.4797 H   0  0  0  0  0  0  0  0  0  0  0  0
  154.8109  140.5782  162.1572 H   0  0  0  0  0  0  0  0  0  0  0  0
  155.3923  141.7946  161.0139 H   0  0  0  0  0  0  0  0  0  0  0  0
  152.6831  141.7130  162.3779 H   0  0  0  0  0  0  0  0  0  0  0  0
  153.7958  143.0844  162.3014 H   0  0  0  0  0  0  0  0  0  0  0  0
  153.3215  143.4405  159.9683 H   0  0  0  0  0  0  0  0  0  0  0  0
  151.7508  142.8609  160.5192 H   0  0  0  0  0  0  0  0  0  0  0  0
  1  2  3  0  0  0  0
  1 20  1  0  0  0  0
  2  3  1  0  0  0  0
  3  4  1  0  0  0  0
  3 21  1  0  0  0  0
  3 22  1  0  0  0  0
  4  5  1  0  0  0  0
  4 23  1  0  0  0  0
  5  6  2  0  0  0  0
  5  7  1  0  0  0  0
  7  8  1  0  0  0  0
  7 24  1  0  0  0  0
  8  9  1  0  0  0  0
  8 25  1  0  0  0  0
  8 26  1  0  0  0  0
  9 10  1  0  0  0  0
  9 27  1  0  0  0  0
  9 28  1  0  0  0  0
 10 19  1  0  0  0  0
 10 11  2  0  0  0  0
 11 12  1  0  0  0  0
 11 29  1  0  0  0  0
 12 13  1  0  0  0  0
 13 14  1  0  0  0  0
 13 19  2  0  0  0  0
 14 18  1  0  0  0  0
 14 15  1  0  0  0  0
 15 16  1  0  0  0  0
 15 30  1  0  0  0  0
 15 31  1  0  0  0  0
 16 17  1  0  0  0  0
 16 32  1  0  0  0  0
 16 33  1  0  0  0  0
 17 18  1  0  0  0  0
 17 34  1  0  0  0  0
 17 35  1  0  0  0  0
 18 36  1  0  0  0  0
 18 37  1  0  0  0  0
M  END
> <s_m_source_file>
AV-unprocessed.smi

> <i_m_source_file_index>
770

> <i_lp_mmshare_version>
43012

> <i_f3d_flags>
0

> <s_epik_input>
W0NIXSNDW0NIMl1bTkhdQyg9TylbTkhdW0NIMl1bQ0gyXWMxW2NIXXNjKG4xKU4yW0NIMl1bQ0gyXVtDSDJdW0NIMl0y

> <s_epik_cmdline>
J2VwaWtfcHl0aG9uJywgJy1waCcsICc3LjAnLCAnLXRuJywgJzgnLCAnLW1hJywgJzIwMCcsICctbWV0YWxfYmluZGluZycsICctaW1hZScsICc8aW5maWxlLm1hZT4nLCAnLW9tYWUnLCAnPG91dGZpbGUubWFlPic=

> <r_epik_Ionization_Penalty>
0.174338

> <r_epik_Ionization_Penalty_Charging>
0

> <r_epik_Ionization_Penalty_Neutral>
0.174338

> <r_epik_State_Penalty>
0.163676

> <r_epik_Charging_Adjusted_Penalty>
0.163676

> <i_epik_Tot_Q>
0

> <i_epik_Tot_abs_Q>
0

> <r_epik_Metal_State_Penalty>
0.126089

> <b_epik_Metal_Only>
0

> <s_lp_Force_Field>
OPLS_2005

> <r_lp_Energy>
12.0865

> <b_lp_Chiralities_Consistent>
1

> <s_lp_Variant>
AV-unprocessed.smi:770-1

> <Gold.Version>
5.8.1

> <Gold.Id.Protein>
6NUR|6NUR_protein|mol2

> <Gold.PLP.Fitness>
51.5798

> <Gold.PLP.PLP>
-44.4027

> <Gold.PLP.part.hbond>
-3.6855

> <Gold.PLP.part.metal>
0.0000

> <Gold.PLP.part.buried>
-3.1412

> <Gold.PLP.part.nonpolar>
-37.7584

> <Gold.PLP.part.repulsive>
0.1449

> <Gold.PLP.ligand.clash>
0.0144

> <Gold.PLP.ligand.torsion>
0.8383

> <Gold.PLP.Chemscore.Hbond>
2.9516

> <Gold.PLP.Chemscore.CHOScore>
0.0000

> <Gold.PLP.Chemscore.Metal>
0.0000

> <Gold.Chemscore.Hbonds>
donor molecule, donor type, donor heavy atom, donor atom, acceptor molecule, acceptor atom, score
      L1  H     4    23       P1  7948  0.55
      L1  H     7    24       P1  7948  0.61
      P1  H  7997  8009       L1    19  0.96

> <Gold.PLP.Chemscore.Internal.Correction>
0.0135

> <Gold.Rescore>
     Score         DG    S(hbond)    S(metal)    S(lipo)     H(rot)  DE(clash)    DE(int)     intcor
     16.72     -19.22       2.28        0.00      90.05       1.73       0.37       2.13       ----

> <Gold.Chemscore.Fitness>
16.7220

> <Gold.Chemscore.DG>
-19.2209

> <Gold.Chemscore.ZeroCoef>
-5.4800

> <Gold.Chemscore.Hbond>
2.2830

> <Gold.Chemscore.Metal>
0.0000

> <Gold.Chemscore.Lipo>
90.0535

> <Gold.Chemscore.Internal_Hbond>
0.0000

> <Gold.Chemscore.DEClash>
0.3733

> <Gold.Chemscore.DEInternal>
2.1256

> <Gold.Chemscore.Rot>
1.7267

> <Gold.Chemscore.Internal.Correction>
   9.000000E+99

> <Gold.Chemscore.Hbonds>
donor molecule, donor type, donor heavy atom, donor atom, acceptor molecule, acceptor atom, score
      L1  H     4    23       P1  7948  0.03
      L1  H     7    24       P1  7948  0.09
      P1  H  7997  8009       L1    19  0.45

> <Gold.Chemscore.Hbond.Weighted>
-7.6251

> <Gold.Chemscore.Metal.Weighted>
-0.0000

> <Gold.Chemscore.Lipo.Weighted>
-10.5363

> <Gold.Chemscore.Internal_Hbond.Weighted>
0.0000

> <Gold.Chemscore.DEClash.Weighted>
0.3733

> <Gold.Chemscore.DEInternal.Weighted>
2.1256

> <Gold.Chemscore.Rot.Weighted>
4.4204

> <Gold.Chemscore.Internal.Correction.Weighted>
   9.000000E+99

> <Gold.Protein.RotatedTorsions>
[ 6907 6896 6895 6894 ] final  -12.64 input  -60.11 | X-H torsion
[ 7974 7965 7964 7962 ] final  113.96 input  175.53 | X-H torsion
[ 8008 7997 7996 7995 ] final  170.74 input   59.86 | X-H torsion
[ 10167 10162 10161 10158 ] final   64.45 input  -65.29 | X-H torsion
[ 10718 10713 10712 10709 ] final -133.49 input   66.30 | X-H torsion
[ 10763 10752 10751 10750 ] final  165.13 input  -60.55 | X-H torsion
[ 11005 11000 10999 10996 ] final   93.87 input  -57.11 | X-H torsion

> <Gold.Protein.ActiveResidues>
 VAL166  LYS551  ARG553  GLY616  TRP617  ASP618  TYR619  PRO620  LYS621  CYS622 
 ASP623  PHE694  ASN695  SER759  ASP760  ASP761  ALA762  ILE779  LEU786  VAL792 
 PHE793  MET794  SER795  GLU796  ALA797  LYS798  CYS799  TRP800  GLU811  SER814 

> <Gold.Protein.RotatedAtoms>
  151.3673  135.0916  159.9453 H   0  0  0  0  0  0  0  0  0  0  0  0  # atno 6907 bound_to 6896
  152.5145  133.9199  159.7539 H   0  0  0  0  0  0  0  0  0  0  0  0  # atno 6908 bound_to 6896
  150.9605  133.6395  159.2784 H   0  0  0  0  0  0  0  0  0  0  0  0  # atno 6909 bound_to 6896
  145.2104  139.2909  143.4271 H   0  0  0  0  0  0  0  0  0  0  0  0  # atno 7974 bound_to 7965
  156.1337  140.1530  156.9027 H   0  0  0  0  0  0  0  0  0  0  0  0  # atno 8008 bound_to 7997
  154.4929  140.0846  156.7674 H   0  0  0  0  0  0  0  0  0  0  0  0  # atno 8009 bound_to 7997
  155.4209  140.3423  155.4273 H   0  0  0  0  0  0  0  0  0  0  0  0  # atno 8010 bound_to 7997
  140.1220  144.4722  150.6915 H   0  0  0  0  0  0  0  0  0  0  0  0  # atno 10167 bound_to 10162
  156.2455  130.7121  151.0999 H   0  0  0  0  0  0  0  0  0  0  0  0  # atno 10718 bound_to 10713
  154.3194  135.2756  155.2527 H   0  0  0  0  0  0  0  0  0  0  0  0  # atno 10763 bound_to 10752
  154.4887  135.5839  153.6447 H   0  0  0  0  0  0  0  0  0  0  0  0  # atno 10764 bound_to 10752
  152.9878  135.6129  154.3377 H   0  0  0  0  0  0  0  0  0  0  0  0  # atno 10765 bound_to 10752
  139.8805  134.8814  156.3781 H   0  0  0  0  0  0  0  0  0  0  0  0  # atno 11005 bound_to 11000
  146.3399  140.2377  142.8595 LP  0  0  0  0  0  0  0  0  0  0  0  0  # atno 17320 bound_to 7965
  144.9862  140.8505  143.5367 LP  0  0  0  0  0  0  0  0  0  0  0  0  # atno 17321 bound_to 7965
  140.6866  143.2353  151.5243 LP  0  0  0  0  0  0  0  0  0  0  0  0  # atno 17342 bound_to 10162
  139.5564  144.2266  152.1619 LP  0  0  0  0  0  0  0  0  0  0  0  0  # atno 17343 bound_to 10162
  157.7193  131.0691  150.6201 LP  0  0  0  0  0  0  0  0  0  0  0  0  # atno 17370 bound_to 10713
  156.6278  130.4423  149.5798 LP  0  0  0  0  0  0  0  0  0  0  0  0  # atno 17371 bound_to 10713
  140.9418  133.7509  156.0156 LP  0  0  0  0  0  0  0  0  0  0  0  0  # atno 17394 bound_to 11000
  140.8210  134.3289  157.5381 LP  0  0  0  0  0  0  0  0  0  0  0  0  # atno 17395 bound_to 11000

$$$$
