AV-unprocessed.smi:623|AV-procd|sdf|3094|dock9
  -GOLD-   22720 0 13D 1   1.00000     0.00000
 Structure written by MMmdl.
 45 47  0  0  0  0  0  0  0  0  1 V2000
  150.5284  141.6410  156.1481 C   0  0  0  0  0  0  0  0  0  0  0  0
  149.4563  140.5222  156.2762 C   0  0  0  0  0  0  0  0  0  0  0  0
  149.9047  139.6568  157.4869 C   0  0  0  0  0  0  0  0  0  0  0  0
  148.0104  141.0491  156.3698 C   0  0  1  0  0  0  0  0  0  0  0  0
  147.7825  141.7395  155.0054 C   0  0  0  0  0  0  0  0  0  0  0  0
  148.5976  140.8552  154.0410 C   0  0  0  0  0  0  0  0  0  0  0  0
  149.1337  139.7359  154.9761 C   0  0  1  0  0  0  0  0  0  0  0  0
  150.3073  138.9523  154.3627 C   0  0  0  0  0  0  0  0  0  0  0  0
  147.9296  138.8352  155.4061 C   0  0  2  0  0  0  0  0  0  0  0  0
  147.0739  138.4094  154.3002 N   0  0  0  0  0  0  0  0  0  0  0  0
  146.7025  137.1471  154.0407 C   0  0  0  0  0  0  0  0  0  0  0  0
  146.9948  136.1893  154.7562 O   0  0  0  0  0  0  0  0  0  0  0  0
  145.8878  136.9342  152.7623 C   0  0  0  0  0  0  0  0  0  0  0  0
  144.5662  136.3719  153.0709 N   0  0  0  0  0  0  0  0  0  0  0  0
  143.4173  137.0774  152.7417 C   0  0  0  0  0  0  0  0  0  0  0  0
  142.1655  136.6157  152.9718 C   0  0  0  0  0  0  0  0  0  0  0  0
  141.9625  135.3134  153.5968 C   0  0  0  0  0  0  0  0  0  0  0  0
  140.8699  134.8100  153.8484 O   0  0  0  0  0  0  0  0  0  0  0  0
  143.1415  134.6326  153.9105 N   0  0  0  0  0  0  0  0  0  0  0  0
  144.4347  135.1017  153.6739 C   0  0  0  0  0  0  0  0  0  0  0  0
  145.4066  134.4152  153.9864 O   0  0  0  0  0  0  0  0  0  0  0  0
  147.1564  139.7628  156.3713 C   0  0  0  0  0  0  0  0  0  0  0  0
  143.0506  133.7247  154.3426 H   0  0  0  0  0  0  0  0  0  0  0  0
  150.5910  142.2167  157.0721 H   0  0  0  0  0  0  0  0  0  0  0  0
  150.3534  142.3617  155.3527 H   0  0  0  0  0  0  0  0  0  0  0  0
  151.5160  141.2146  155.9708 H   0  0  0  0  0  0  0  0  0  0  0  0
  149.2607  138.8112  157.7170 H   0  0  0  0  0  0  0  0  0  0  0  0
  149.9539  140.2610  158.3932 H   0  0  0  0  0  0  0  0  0  0  0  0
  150.9018  139.2479  157.3210 H   0  0  0  0  0  0  0  0  0  0  0  0
  147.8110  141.6995  157.2219 H   0  0  0  0  0  0  0  0  0  0  0  0
  146.7272  141.7784  154.7331 H   0  0  0  0  0  0  0  0  0  0  0  0
  148.1501  142.7659  155.0064 H   0  0  0  0  0  0  0  0  0  0  0  0
  147.9998  140.4896  153.2065 H   0  0  0  0  0  0  0  0  0  0  0  0
  149.4129  141.4217  153.5910 H   0  0  0  0  0  0  0  0  0  0  0  0
  150.0148  138.4771  153.4263 H   0  0  0  0  0  0  0  0  0  0  0  0
  150.6565  138.1685  155.0351 H   0  0  0  0  0  0  0  0  0  0  0  0
  151.1525  139.6049  154.1449 H   0  0  0  0  0  0  0  0  0  0  0  0
  148.2755  137.9529  155.9468 H   0  0  0  0  0  0  0  0  0  0  0  0
  146.7808  139.1282  153.6548 H   0  0  0  0  0  0  0  0  0  0  0  0
  145.7960  137.8804  152.2253 H   0  0  0  0  0  0  0  0  0  0  0  0
  146.4350  136.2757  152.0854 H   0  0  0  0  0  0  0  0  0  0  0  0
  143.5199  138.0451  152.2712 H   0  0  0  0  0  0  0  0  0  0  0  0
  141.3098  137.2126  152.6909 H   0  0  0  0  0  0  0  0  0  0  0  0
  147.0947  139.3279  157.3691 H   0  0  0  0  0  0  0  0  0  0  0  0
  146.1308  139.9553  156.0525 H   0  0  0  0  0  0  0  0  0  0  0  0
  1  2  1  0  0  0  0
  1 24  1  0  0  0  0
  1 25  1  0  0  0  0
  1 26  1  0  0  0  0
  2  7  1  0  0  0  0
  2  3  1  0  0  0  0
  2  4  1  0  0  0  0
  3 27  1  0  0  0  0
  3 28  1  0  0  0  0
  3 29  1  0  0  0  0
  4 22  1  0  0  0  0
  4  5  1  0  0  0  0
  4 30  1  0  0  0  0
  5  6  1  0  0  0  0
  5 31  1  0  0  0  0
  5 32  1  0  0  0  0
  6  7  1  0  0  0  0
  6 33  1  0  0  0  0
  6 34  1  0  0  0  0
  7  8  1  0  0  0  0
  7  9  1  0  0  0  0
  8 35  1  0  0  0  0
  8 36  1  0  0  0  0
  8 37  1  0  0  0  0
  9 10  1  0  0  0  0
  9 22  1  0  0  0  0
  9 38  1  0  0  0  0
 10 11  1  0  0  0  0
 10 39  1  0  0  0  0
 11 12  2  0  0  0  0
 11 13  1  0  0  0  0
 13 14  1  0  0  0  0
 13 40  1  0  0  0  0
 13 41  1  0  0  0  0
 14 20  1  0  0  0  0
 14 15  1  0  0  0  0
 15 16  2  0  0  0  0
 15 42  1  0  0  0  0
 16 17  1  0  0  0  0
 16 43  1  0  0  0  0
 17 18  2  0  0  0  0
 17 19  1  0  0  0  0
 19 23  1  0  0  0  0
 19 20  1  0  0  0  0
 20 21  2  0  0  0  0
 22 44  1  0  0  0  0
 22 45  1  0  0  0  0
M  END
> <s_m_source_file>
AV-unprocessed.smi

> <i_m_source_file_index>
623

> <i_lp_mmshare_version>
43012

> <i_f3d_flags>
0

> <s_epik_input>
W0NIM11bQ0BdMTJDKFtDSDNdKShbQ0gzXSlbQ0BIXShbQ0gyXVtDSDJdMSlbQ0gyXVtDQEBIXTJbTkhdQyg9TylbQ0gyXW4zW2NIXVtjSF1jKD1PKVtuSF1jMz1P

> <s_epik_cmdline>
J2VwaWtfcHl0aG9uJywgJy1waCcsICc3LjAnLCAnLXRuJywgJzgnLCAnLW1hJywgJzIwMCcsICctbWV0YWxfYmluZGluZycsICctaW1hZScsICc8aW5maWxlLm1hZT4nLCAnLW9tYWUnLCAnPG91dGZpbGUubWFlPic=

> <r_lp_tautomer_probability>
0.999537

> <r_epik_Ionization_Penalty>
0.00303563

> <r_epik_Ionization_Penalty_Charging>
0.00303561

> <r_epik_Ionization_Penalty_Neutral>
2.03238e-08

> <r_epik_State_Penalty>
0.00213308

> <r_epik_Charging_Adjusted_Penalty>
0.00516869

> <i_epik_Tot_Q>
0

> <i_epik_Tot_abs_Q>
0

> <r_epik_Metal_State_Penalty>
0.361714

> <b_epik_Metal_Only>
0

> <s_lp_Force_Field>
OPLS_2005

> <r_lp_Energy>
57.3757

> <b_lp_Chiralities_Consistent>
1

> <s_lp_Variant>
AV-unprocessed.smi:623-4

> <Gold.Version>
5.8.1

> <Gold.Id.Protein>
6NUR|6NUR_protein|mol2

> <Gold.PLP.Fitness>
39.2490

> <Gold.PLP.PLP>
-27.3690

> <Gold.PLP.part.hbond>
-2.7926

> <Gold.PLP.part.metal>
0.0000

> <Gold.PLP.part.buried>
-4.5112

> <Gold.PLP.part.nonpolar>
-20.4057

> <Gold.PLP.part.repulsive>
0.3596

> <Gold.PLP.ligand.clash>
0.0000

> <Gold.PLP.ligand.torsion>
0.0463

> <Gold.PLP.Chemscore.Hbond>
1.9913

> <Gold.PLP.Chemscore.CHOScore>
1.9942

> <Gold.PLP.Chemscore.Metal>
0.0000

> <Gold.Chemscore.Hbonds>
donor molecule, donor type, donor heavy atom, donor atom, acceptor molecule, acceptor atom, score
      L1  H    19    23       P1 10957  0.96
      P1  H 11000 11005       L1    18  1.00
      L1  C    15    42       P1 10171  0.98
      L1  C    15    42       P1 10175  1.00

> <Gold.PLP.Chemscore.Internal.Correction>
0.0164

> <Gold.Rescore>
     Score         DG    S(hbond)    S(metal)    S(lipo)     H(rot)  DE(clash)    DE(int)     intcor
     11.50     -14.85       1.95        0.00      60.74       1.66       0.03       3.32       ----

> <Gold.Chemscore.Fitness>
11.5011

> <Gold.Chemscore.DG>
-14.8525

> <Gold.Chemscore.ZeroCoef>
-5.4800

> <Gold.Chemscore.Hbond>
1.9544

> <Gold.Chemscore.Metal>
0.0000

> <Gold.Chemscore.Lipo>
60.7384

> <Gold.Chemscore.Internal_Hbond>
0.0000

> <Gold.Chemscore.DEClash>
0.0285

> <Gold.Chemscore.DEInternal>
3.3229

> <Gold.Chemscore.Rot>
1.6647

> <Gold.Chemscore.Internal.Correction>
   9.000000E+99

> <Gold.Chemscore.Hbonds>
donor molecule, donor type, donor heavy atom, donor atom, acceptor molecule, acceptor atom, score
      L1  H    19    23       P1 10957  0.91
      P1  H 11000 11005       L1    18  0.95

> <Gold.Chemscore.Hbond.Weighted>
-6.5278

> <Gold.Chemscore.Metal.Weighted>
-0.0000

> <Gold.Chemscore.Lipo.Weighted>
-7.1064

> <Gold.Chemscore.Internal_Hbond.Weighted>
0.0000

> <Gold.Chemscore.DEClash.Weighted>
0.0285

> <Gold.Chemscore.DEInternal.Weighted>
3.3229

> <Gold.Chemscore.Rot.Weighted>
4.2617

> <Gold.Chemscore.Internal.Correction.Weighted>
   9.000000E+99

> <Gold.Protein.RotatedTorsions>
[ 6907 6896 6895 6894 ] final  126.74 input  -60.11 | X-H torsion
[ 7974 7965 7964 7962 ] final  -16.91 input  175.53 | X-H torsion
[ 8008 7997 7996 7995 ] final -107.44 input   59.86 | X-H torsion
[ 10167 10162 10161 10158 ] final -128.45 input  -65.29 | X-H torsion
[ 10718 10713 10712 10709 ] final  147.06 input   66.30 | X-H torsion
[ 10763 10752 10751 10750 ] final -172.45 input  -60.55 | X-H torsion
[ 11005 11000 10999 10996 ] final   24.25 input  -57.11 | X-H torsion

> <Gold.Protein.ActiveResidues>
 VAL166  LYS551  ARG553  GLY616  TRP617  ASP618  TYR619  PRO620  LYS621  CYS622 
 ASP623  PHE694  ASN695  SER759  ASP760  ASP761  ALA762  ILE779  LEU786  VAL792 
 PHE793  MET794  SER795  GLU796  ALA797  LYS798  CYS799  TRP800  GLU811  SER814 

> <Gold.Protein.RotatedAtoms>
  152.3876  133.6633  159.6210 H   0  0  0  0  0  0  0  0  0  0  0  0  # atno 6907 bound_to 6896
  150.7791  133.9009  159.3350 H   0  0  0  0  0  0  0  0  0  0  0  0  # atno 6908 bound_to 6896
  151.6803  135.0964  160.0266 H   0  0  0  0  0  0  0  0  0  0  0  0  # atno 6909 bound_to 6896
  146.1965  140.3704  142.8438 H   0  0  0  0  0  0  0  0  0  0  0  0  # atno 7974 bound_to 7965
  154.9294  140.0405  157.2040 H   0  0  0  0  0  0  0  0  0  0  0  0  # atno 8008 bound_to 7997
  154.8175  140.2878  155.5788 H   0  0  0  0  0  0  0  0  0  0  0  0  # atno 8009 bound_to 7997
  156.2977  140.2525  156.3076 H   0  0  0  0  0  0  0  0  0  0  0  0  # atno 8010 bound_to 7997
  139.9502  143.6065  152.2478 H   0  0  0  0  0  0  0  0  0  0  0  0  # atno 10167 bound_to 10162
  157.3256  131.0911  151.1205 H   0  0  0  0  0  0  0  0  0  0  0  0  # atno 10718 bound_to 10713
  154.6192  135.2873  155.0345 H   0  0  0  0  0  0  0  0  0  0  0  0  # atno 10763 bound_to 10752
  154.1547  135.6498  153.4975 H   0  0  0  0  0  0  0  0  0  0  0  0  # atno 10764 bound_to 10752
  153.0228  135.5364  154.6975 H   0  0  0  0  0  0  0  0  0  0  0  0  # atno 10765 bound_to 10752
  140.3607  134.2128  155.7672 H   0  0  0  0  0  0  0  0  0  0  0  0  # atno 11005 bound_to 11000
  144.8592  140.7115  143.6118 LP  0  0  0  0  0  0  0  0  0  0  0  0  # atno 17320 bound_to 7965
  145.3625  139.1678  143.4376 LP  0  0  0  0  0  0  0  0  0  0  0  0  # atno 17321 bound_to 7965
  139.6635  144.7662  151.1918 LP  0  0  0  0  0  0  0  0  0  0  0  0  # atno 17342 bound_to 10162
  140.7585  143.5974  150.8734 LP  0  0  0  0  0  0  0  0  0  0  0  0  # atno 17343 bound_to 10162
  157.2473  130.6597  149.5916 LP  0  0  0  0  0  0  0  0  0  0  0  0  # atno 17370 bound_to 10713
  155.9690  130.4549  150.5869 LP  0  0  0  0  0  0  0  0  0  0  0  0  # atno 17371 bound_to 10713
  141.1985  133.8035  157.0581 LP  0  0  0  0  0  0  0  0  0  0  0  0  # atno 17394 bound_to 11000
  140.0629  134.9745  157.1335 LP  0  0  0  0  0  0  0  0  0  0  0  0  # atno 17395 bound_to 11000

$$$$
