AV-unprocessed.smi:295|AV-procd|sdf|2254|dock3
  -GOLD-   2262022143D 1   1.00000     0.00000
 Structure written by MMmdl.
 35 36  0  0  0  0  0  0  0  0  1 V2000
  151.4846  144.9703  158.6678 C   0  0  0  0  0  0  0  0  0  0  0  0
  151.6733  143.6838  159.4930 C   0  0  2  0  0  0  0  0  0  0  0  0
  152.4938  143.9683  160.7669 C   0  0  0  0  0  0  0  0  0  0  0  0
  152.6848  142.7029  161.6168 C   0  0  0  0  0  0  0  0  0  0  0  0
  153.3401  141.5819  160.7982 C   0  0  0  0  0  0  0  0  0  0  0  0
  152.5276  141.2777  159.5313 C   0  0  0  0  0  0  0  0  0  0  0  0
  152.3226  142.5418  158.6726 C   0  0  1  0  0  0  0  0  0  0  0  0
  151.4894  142.2225  157.5177 N   0  0  0  0  0  0  0  0  0  0  0  0
  150.1861  141.9048  157.5501 C   0  0  0  0  0  0  0  0  0  0  0  0
  149.5029  141.9297  158.5730 O   0  0  0  0  0  0  0  0  0  0  0  0
  149.5623  141.4773  156.2205 C   0  0  0  0  0  0  0  0  0  0  0  0
  150.2938  140.3647  155.6400 N   0  0  0  0  0  0  0  0  0  0  0  0
  149.8532  139.2273  155.0915 C   0  0  0  0  0  0  0  0  0  0  0  0
  150.8207  138.4110  154.6923 N   0  0  0  0  0  0  0  0  0  0  0  0
  151.8980  139.1671  155.0525 C   0  0  0  0  0  0  0  0  0  0  0  0
  153.2580  138.7030  154.8377 C   0  0  0  0  0  0  0  0  0  0  0  0
  154.3410  138.3332  154.6659 N   0  0  0  0  0  0  0  0  0  0  0  0
  151.6495  140.3452  155.6201 N   0  0  0  0  0  0  0  0  0  0  0  0
  152.4376  145.3384  158.2869 H   0  0  0  0  0  0  0  0  0  0  0  0
  151.0408  145.7614  159.2727 H   0  0  0  0  0  0  0  0  0  0  0  0
  150.8247  144.8114  157.8144 H   0  0  0  0  0  0  0  0  0  0  0  0
  150.6824  143.3524  159.8083 H   0  0  0  0  0  0  0  0  0  0  0  0
  153.4695  144.3724  160.4935 H   0  0  0  0  0  0  0  0  0  0  0  0
  152.0004  144.7354  161.3649 H   0  0  0  0  0  0  0  0  0  0  0  0
  153.2954  142.9305  162.4909 H   0  0  0  0  0  0  0  0  0  0  0  0
  151.7184  142.3652  161.9935 H   0  0  0  0  0  0  0  0  0  0  0  0
  154.3539  141.8740  160.5214 H   0  0  0  0  0  0  0  0  0  0  0  0
  153.4319  140.6818  161.4066 H   0  0  0  0  0  0  0  0  0  0  0  0
  153.0345  140.5070  158.9494 H   0  0  0  0  0  0  0  0  0  0  0  0
  151.5595  140.8625  159.8155 H   0  0  0  0  0  0  0  0  0  0  0  0
  153.2996  142.8884  158.3296 H   0  0  0  0  0  0  0  0  0  0  0  0
  151.9574  142.1804  156.6237 H   0  0  0  0  0  0  0  0  0  0  0  0
  148.5249  141.1753  156.3702 H   0  0  0  0  0  0  0  0  0  0  0  0
  149.5591  142.3170  155.5237 H   0  0  0  0  0  0  0  0  0  0  0  0
  148.8045  138.9878  154.9932 H   0  0  0  0  0  0  0  0  0  0  0  0
  1  2  1  0  0  0  0
  1 19  1  0  0  0  0
  1 20  1  0  0  0  0
  1 21  1  0  0  0  0
  2  7  1  0  0  0  0
  2  3  1  0  0  0  0
  2 22  1  0  0  0  0
  3  4  1  0  0  0  0
  3 23  1  0  0  0  0
  3 24  1  0  0  0  0
  4  5  1  0  0  0  0
  4 25  1  0  0  0  0
  4 26  1  0  0  0  0
  5  6  1  0  0  0  0
  5 27  1  0  0  0  0
  5 28  1  0  0  0  0
  6  7  1  0  0  0  0
  6 29  1  0  0  0  0
  6 30  1  0  0  0  0
  7  8  1  0  0  0  0
  7 31  1  0  0  0  0
  8  9  1  0  0  0  0
  8 32  1  0  0  0  0
  9 10  2  0  0  0  0
  9 11  1  0  0  0  0
 11 12  1  0  0  0  0
 11 33  1  0  0  0  0
 11 34  1  0  0  0  0
 12 18  1  0  0  0  0
 12 13  1  0  0  0  0
 13 14  2  0  0  0  0
 13 35  1  0  0  0  0
 14 15  1  0  0  0  0
 15 16  1  0  0  0  0
 15 18  2  0  0  0  0
 16 17  3  0  0  0  0
M  END
> <s_m_source_file>
AV-unprocessed.smi

> <i_m_source_file_index>
295

> <i_lp_mmshare_version>
43012

> <i_f3d_flags>
0

> <s_epik_input>
W0NIM11bQ0BASF0xW0NIMl1bQ0gyXVtDSDJdW0NIMl1bQ0BIXTFbTkhdQyg9TylbQ0gyXW4yW2NIXW5jKG4yKUMjTg==

> <s_epik_cmdline>
J2VwaWtfcHl0aG9uJywgJy1waCcsICc3LjAnLCAnLXRuJywgJzgnLCAnLW1hJywgJzIwMCcsICctbWV0YWxfYmluZGluZycsICctaW1hZScsICc8aW5maWxlLm1hZT4nLCAnLW9tYWUnLCAnPG91dGZpbGUubWFlPic=

> <r_lp_tautomer_probability>
1

> <r_epik_Ionization_Penalty>
5.31112e-08

> <r_epik_Ionization_Penalty_Charging>
0

> <r_epik_Ionization_Penalty_Neutral>
5.31112e-08

> <r_epik_State_Penalty>
-0

> <r_epik_Charging_Adjusted_Penalty>
0

> <i_epik_Tot_Q>
0

> <i_epik_Tot_abs_Q>
0

> <r_epik_Metal_State_Penalty>
-0

> <b_epik_Metal_Only>
0

> <s_lp_Force_Field>
OPLS_2005

> <r_lp_Energy>
13.1712

> <b_lp_Chiralities_Consistent>
1

> <s_lp_Variant>
AV-unprocessed.smi:295-1

> <Gold.Version>
5.8.1

> <Gold.Id.Protein>
6NUR|6NUR_protein|mol2

> <Gold.PLP.Fitness>
41.6532

> <Gold.PLP.PLP>
-41.5764

> <Gold.PLP.part.hbond>
-2.8745

> <Gold.PLP.part.metal>
0.0000

> <Gold.PLP.part.buried>
-4.4383

> <Gold.PLP.part.nonpolar>
-33.8777

> <Gold.PLP.part.repulsive>
0.2841

> <Gold.PLP.ligand.clash>
0.0000

> <Gold.PLP.ligand.torsion>
0.2619

> <Gold.PLP.Chemscore.Hbond>
0.1976

> <Gold.PLP.Chemscore.CHOScore>
0.0000

> <Gold.PLP.Chemscore.Metal>
0.0000

> <Gold.Chemscore.Hbonds>
donor molecule, donor type, donor heavy atom, donor atom, acceptor molecule, acceptor atom, score
      P1  H  7997  8010       L1    17  0.13

> <Gold.PLP.Chemscore.Internal.Correction>
0.0078

> <Gold.Rescore>
     Score         DG    S(hbond)    S(metal)    S(lipo)     H(rot)  DE(clash)    DE(int)     intcor
      9.63     -12.55       0.59        0.00      86.08       1.95       0.46       2.45       ----

> <Gold.Chemscore.Fitness>
9.6343

> <Gold.Chemscore.DG>
-12.5481

> <Gold.Chemscore.ZeroCoef>
-5.4800

> <Gold.Chemscore.Hbond>
0.5935

> <Gold.Chemscore.Metal>
0.0000

> <Gold.Chemscore.Lipo>
86.0778

> <Gold.Chemscore.Internal_Hbond>
0.0000

> <Gold.Chemscore.DEClash>
0.4603

> <Gold.Chemscore.DEInternal>
2.4535

> <Gold.Chemscore.Rot>
1.9474

> <Gold.Chemscore.Internal.Correction>
   9.000000E+99

> <Gold.Chemscore.Hbond.Weighted>
-1.9822

> <Gold.Chemscore.Metal.Weighted>
-0.0000

> <Gold.Chemscore.Lipo.Weighted>
-10.0711

> <Gold.Chemscore.Internal_Hbond.Weighted>
0.0000

> <Gold.Chemscore.DEClash.Weighted>
0.4603

> <Gold.Chemscore.DEInternal.Weighted>
2.4535

> <Gold.Chemscore.Rot.Weighted>
4.9852

> <Gold.Chemscore.Internal.Correction.Weighted>
   9.000000E+99

> <Gold.Protein.RotatedTorsions>
[ 6907 6896 6895 6894 ] final -171.54 input  -60.11 | X-H torsion
[ 7974 7965 7964 7962 ] final -150.84 input  175.53 | X-H torsion
[ 8008 7997 7996 7995 ] final  148.24 input   59.86 | X-H torsion
[ 10167 10162 10161 10158 ] final  179.36 input  -65.29 | X-H torsion
[ 10718 10713 10712 10709 ] final   91.19 input   66.30 | X-H torsion
[ 10763 10752 10751 10750 ] final  143.84 input  -60.55 | X-H torsion
[ 11005 11000 10999 10996 ] final   21.05 input  -57.11 | X-H torsion

> <Gold.Protein.ActiveResidues>
 VAL166  LYS551  ARG553  GLY616  TRP617  ASP618  TYR619  PRO620  LYS621  CYS622 
 ASP623  PHE694  ASN695  SER759  ASP760  ASP761  ALA762  ILE779  LEU786  VAL792 
 PHE793  MET794  SER795  GLU796  ALA797  LYS798  CYS799  TRP800  GLU811  SER814 

> <Gold.Protein.RotatedAtoms>
  151.5255  133.3458  159.2908 H   0  0  0  0  0  0  0  0  0  0  0  0  # atno 6907 bound_to 6896
  150.8625  134.7983  159.7105 H   0  0  0  0  0  0  0  0  0  0  0  0  # atno 6908 bound_to 6896
  152.4640  134.5127  159.9810 H   0  0  0  0  0  0  0  0  0  0  0  0  # atno 6909 bound_to 6896
  144.7884  140.4878  143.5790 H   0  0  0  0  0  0  0  0  0  0  0  0  # atno 7974 bound_to 7965
  156.2798  140.2134  156.5666 H   0  0  0  0  0  0  0  0  0  0  0  0  # atno 8008 bound_to 7997
  154.7169  140.0507  157.0626 H   0  0  0  0  0  0  0  0  0  0  0  0  # atno 8009 bound_to 7997
  155.0530  140.3158  155.4689 H   0  0  0  0  0  0  0  0  0  0  0  0  # atno 8010 bound_to 7997
  139.5333  144.2570  152.0738 H   0  0  0  0  0  0  0  0  0  0  0  0  # atno 10167 bound_to 10162
  157.6960  131.0398  150.3692 H   0  0  0  0  0  0  0  0  0  0  0  0  # atno 10718 bound_to 10713
  153.9790  135.2943  155.3421 H   0  0  0  0  0  0  0  0  0  0  0  0  # atno 10763 bound_to 10752
  154.7280  135.5080  153.8920 H   0  0  0  0  0  0  0  0  0  0  0  0  # atno 10764 bound_to 10752
  153.0864  135.6694  154.0055 H   0  0  0  0  0  0  0  0  0  0  0  0  # atno 10765 bound_to 10752
  140.3958  134.1770  155.7663 H   0  0  0  0  0  0  0  0  0  0  0  0  # atno 11005 bound_to 11000
  145.5860  139.1492  143.3209 LP  0  0  0  0  0  0  0  0  0  0  0  0  # atno 17320 bound_to 7965
  146.2126  140.5988  142.9053 LP  0  0  0  0  0  0  0  0  0  0  0  0  # atno 17321 bound_to 7965
  140.2037  144.4632  150.6419 LP  0  0  0  0  0  0  0  0  0  0  0  0  # atno 17342 bound_to 10162
  140.6525  143.2228  151.6045 LP  0  0  0  0  0  0  0  0  0  0  0  0  # atno 17343 bound_to 10162
  156.4118  130.3935  149.6886 LP  0  0  0  0  0  0  0  0  0  0  0  0  # atno 17370 bound_to 10713
  156.4167  130.7749  151.2764 LP  0  0  0  0  0  0  0  0  0  0  0  0  # atno 17371 bound_to 10713
  141.1874  133.8281  157.1032 LP  0  0  0  0  0  0  0  0  0  0  0  0  # atno 17394 bound_to 11000
  140.0372  134.9872  157.0894 LP  0  0  0  0  0  0  0  0  0  0  0  0  # atno 17395 bound_to 11000

$$$$
