AV-unprocessed.smi:3298|AV-procd|sdf|12640|dock6
  -GOLD-   2272018573D 1   1.00000     0.00000
 Structure written by MMmdl.
 35 36  0  0  0  0  0  0  0  0  1 V2000
  153.5742  141.4356  160.5216 C   0  0  0  0  0  0  0  0  0  0  0  0
  152.7625  142.5398  159.8770 C   0  0  0  0  0  0  0  0  0  0  0  0
  151.9702  142.2818  158.7388 C   0  0  0  0  0  0  0  0  0  0  0  0
  151.2345  143.3405  158.1672 C   0  0  0  0  0  0  0  0  0  0  0  0
  150.4353  143.0484  157.0287 N   0  0  0  0  0  0  0  0  0  0  0  0
  150.3139  141.8892  156.3585 C   0  0  0  0  0  0  0  0  0  0  0  0
  150.8900  140.8376  156.6367 O   0  0  0  0  0  0  0  0  0  0  0  0
  149.4530  142.0091  155.3378 N   0  0  0  0  0  0  0  0  0  0  0  0
  149.0807  140.9291  154.4309 C   0  0  2  0  0  0  0  0  0  0  0  0
  147.9912  141.3780  153.4963 C   0  0  0  0  0  0  0  0  0  0  0  0
  146.9188  140.5912  153.5410 C   0  0  0  0  0  0  0  0  0  0  0  0
  147.0663  139.4555  154.5214 C   0  0  2  0  0  0  0  0  0  0  0  0
  145.9220  139.3984  155.5483 C   0  0  0  0  0  0  0  0  0  0  0  0
  144.6871  139.1637  154.9043 O   0  0  0  0  0  0  0  0  0  0  0  0
  148.4515  139.7162  155.1667 C   0  0  0  0  0  0  0  0  0  0  0  0
  151.3093  144.6128  158.7836 C   0  0  0  0  0  0  0  0  0  0  0  0
  152.1291  144.7637  159.9197 C   0  0  0  0  0  0  0  0  0  0  0  0
  152.8452  143.7551  160.4599 N   0  0  0  0  0  0  0  0  0  0  0  0
  149.9408  140.6210  153.8340 H   0  0  0  0  0  0  0  0  0  0  0  0
  147.0987  138.5243  153.9540 H   0  0  0  0  0  0  0  0  0  0  0  0
  153.7336  140.6105  159.8270 H   0  0  0  0  0  0  0  0  0  0  0  0
  153.0546  141.0499  161.3989 H   0  0  0  0  0  0  0  0  0  0  0  0
  154.5510  141.8058  160.8349 H   0  0  0  0  0  0  0  0  0  0  0  0
  151.9326  141.2908  158.3102 H   0  0  0  0  0  0  0  0  0  0  0  0
  149.8379  143.8009  156.7191 H   0  0  0  0  0  0  0  0  0  0  0  0
  149.0185  142.9065  155.1805 H   0  0  0  0  0  0  0  0  0  0  0  0
  148.1007  142.2412  152.8561 H   0  0  0  0  0  0  0  0  0  0  0  0
  146.0285  140.7221  152.9435 H   0  0  0  0  0  0  0  0  0  0  0  0
  146.0962  138.5942  156.2638 H   0  0  0  0  0  0  0  0  0  0  0  0
  145.8604  140.3283  156.1150 H   0  0  0  0  0  0  0  0  0  0  0  0
  144.6222  139.7403  154.1583 H   0  0  0  0  0  0  0  0  0  0  0  0
  149.0920  138.8376  155.0814 H   0  0  0  0  0  0  0  0  0  0  0  0
  148.3445  139.9190  156.2337 H   0  0  0  0  0  0  0  0  0  0  0  0
  150.7534  145.4638  158.4224 H   0  0  0  0  0  0  0  0  0  0  0  0
  152.2066  145.7216  160.4123 H   0  0  0  0  0  0  0  0  0  0  0  0
  1  2  1  0  0  0  0
  1 21  1  0  0  0  0
  1 22  1  0  0  0  0
  1 23  1  0  0  0  0
  2 18  1  0  0  0  0
  2  3  2  0  0  0  0
  3  4  1  0  0  0  0
  3 24  1  0  0  0  0
  4  5  1  0  0  0  0
  4 16  2  0  0  0  0
  5  6  1  0  0  0  0
  5 25  1  0  0  0  0
  6  7  2  0  0  0  0
  6  8  1  0  0  0  0
  8  9  1  0  0  0  0
  8 26  1  0  0  0  0
  9 19  1  0  0  0  0
  9 15  1  0  0  0  0
  9 10  1  0  0  0  0
 10 11  2  0  0  0  0
 10 27  1  0  0  0  0
 11 12  1  0  0  0  0
 11 28  1  0  0  0  0
 12 20  1  0  0  0  0
 12 13  1  0  0  0  0
 12 15  1  0  0  0  0
 13 14  1  0  0  0  0
 13 29  1  0  0  0  0
 13 30  1  0  0  0  0
 14 31  1  0  0  0  0
 15 32  1  0  0  0  0
 15 33  1  0  0  0  0
 16 17  1  0  0  0  0
 16 34  1  0  0  0  0
 17 18  2  0  0  0  0
 17 35  1  0  0  0  0
M  END
> <s_m_source_file>
AV-unprocessed.smi

> <i_m_source_file_index>
3298

> <i_lp_mmshare_version>
43012

> <i_f3d_flags>
0

> <s_epik_input>
W0NIM11jMVtjSF1jKFtjSF1bY0hdbjEpW05IXUMoPU8pW05IXVtDQEBIXTJbQ0hdPVtDSF1bQ0BASF0oW0NIMl0yKVtDSDJdW09IXQ==

> <s_epik_cmdline>
J2VwaWtfcHl0aG9uJywgJy1waCcsICc3LjAnLCAnLXRuJywgJzgnLCAnLW1hJywgJzIwMCcsICctbWV0YWxfYmluZGluZycsICctaW1hZScsICc8aW5maWxlLm1hZT4nLCAnLW9tYWUnLCAnPG91dGZpbGUubWFlPic=

> <r_epik_Ionization_Penalty>
0.379275

> <r_epik_Ionization_Penalty_Charging>
0

> <r_epik_Ionization_Penalty_Neutral>
0.379275

> <r_epik_State_Penalty>
0.377195

> <r_epik_Charging_Adjusted_Penalty>
0.377195

> <i_epik_Tot_Q>
0

> <i_epik_Tot_abs_Q>
0

> <r_epik_Metal_State_Penalty>
0.22815

> <b_epik_Metal_Only>
0

> <s_lp_Force_Field>
OPLS_2005

> <r_lp_Energy>
20.8901

> <b_lp_Chiralities_Consistent>
1

> <s_lp_Variant>
AV-unprocessed.smi:3298-1

> <Gold.Version>
5.8.1

> <Gold.Id.Protein>
6NUR|6NUR_protein|mol2

> <Gold.PLP.Fitness>
43.9945

> <Gold.PLP.PLP>
-35.0461

> <Gold.PLP.part.hbond>
-3.0000

> <Gold.PLP.part.metal>
0.0000

> <Gold.PLP.part.buried>
-3.2734

> <Gold.PLP.part.nonpolar>
-28.8166

> <Gold.PLP.part.repulsive>
0.2517

> <Gold.PLP.ligand.clash>
0.0000

> <Gold.PLP.ligand.torsion>
0.0211

> <Gold.PLP.Chemscore.Hbond>
2.9920

> <Gold.PLP.Chemscore.CHOScore>
0.0000

> <Gold.PLP.Chemscore.Metal>
0.0000

> <Gold.Chemscore.Hbonds>
donor molecule, donor type, donor heavy atom, donor atom, acceptor molecule, acceptor atom, score
      L1  H     5    25       P1  8028  1.00
      L1  H     8    26       P1  8028  0.98
      L1  H    14    31       P1 10175  0.94

> <Gold.PLP.Chemscore.Internal.Correction>
0.0148

> <Gold.Rescore>
     Score         DG    S(hbond)    S(metal)    S(lipo)     H(rot)  DE(clash)    DE(int)     intcor
     20.44     -22.00       2.95        0.00      96.03       1.78       0.09       1.47       ----

> <Gold.Chemscore.Fitness>
20.4424

> <Gold.Chemscore.DG>
-21.9987

> <Gold.Chemscore.ZeroCoef>
-5.4800

> <Gold.Chemscore.Hbond>
2.9460

> <Gold.Chemscore.Metal>
0.0000

> <Gold.Chemscore.Lipo>
96.0255

> <Gold.Chemscore.Internal_Hbond>
0.0000

> <Gold.Chemscore.DEClash>
0.0898

> <Gold.Chemscore.DEInternal>
1.4665

> <Gold.Chemscore.Rot>
1.7796

> <Gold.Chemscore.Internal.Correction>
   9.000000E+99

> <Gold.Chemscore.Hbonds>
donor molecule, donor type, donor heavy atom, donor atom, acceptor molecule, acceptor atom, score
      L1  H     5    25       P1  8028  0.99
      L1  H     8    26       P1  8028  0.93
      L1  H    14    31       P1 10175  0.87

> <Gold.Chemscore.Hbond.Weighted>
-9.8395

> <Gold.Chemscore.Metal.Weighted>
-0.0000

> <Gold.Chemscore.Lipo.Weighted>
-11.2350

> <Gold.Chemscore.Internal_Hbond.Weighted>
0.0000

> <Gold.Chemscore.DEClash.Weighted>
0.0898

> <Gold.Chemscore.DEInternal.Weighted>
1.4665

> <Gold.Chemscore.Rot.Weighted>
4.5558

> <Gold.Chemscore.Internal.Correction.Weighted>
   9.000000E+99

> <Gold.Protein.RotatedTorsions>
[ 6907 6896 6895 6894 ] final   73.76 input  -60.11 | X-H torsion
[ 7974 7965 7964 7962 ] final   16.77 input  175.53 | X-H torsion
[ 8008 7997 7996 7995 ] final   14.87 input   59.86 | X-H torsion
[ 10167 10162 10161 10158 ] final   20.22 input  -65.29 | X-H torsion
[ 10718 10713 10712 10709 ] final   23.58 input   66.30 | X-H torsion
[ 10763 10752 10751 10750 ] final -147.33 input  -60.55 | X-H torsion
[ 11005 11000 10999 10996 ] final   66.81 input  -57.11 | X-H torsion

> <Gold.Protein.ActiveResidues>
 VAL166  LYS551  ARG553  GLY616  TRP617  ASP618  TYR619  PRO620  LYS621  CYS622 
 ASP623  PHE694  ASN695  SER759  ASP760  ASP761  ALA762  ILE779  LEU786  VAL792 
 PHE793  MET794  SER795  GLU796  ALA797  LYS798  CYS799  TRP800  GLU811  SER814 

> <Gold.Protein.RotatedAtoms>
  152.4940  134.4373  159.9531 H   0  0  0  0  0  0  0  0  0  0  0  0  # atno 6907 bound_to 6896
  151.4355  133.3652  159.2782 H   0  0  0  0  0  0  0  0  0  0  0  0  # atno 6908 bound_to 6896
  150.9124  134.8565  159.7494 H   0  0  0  0  0  0  0  0  0  0  0  0  # atno 6909 bound_to 6896
  146.2239  139.8699  142.8589 H   0  0  0  0  0  0  0  0  0  0  0  0  # atno 7974 bound_to 7965
  154.8545  140.2935  155.5577 H   0  0  0  0  0  0  0  0  0  0  0  0  # atno 8008 bound_to 7997
  156.3018  140.2489  156.3442 H   0  0  0  0  0  0  0  0  0  0  0  0  # atno 8009 bound_to 7997
  154.8985  140.0392  157.1868 H   0  0  0  0  0  0  0  0  0  0  0  0  # atno 8010 bound_to 7997
  140.5520  143.9492  150.6584 H   0  0  0  0  0  0  0  0  0  0  0  0  # atno 10167 bound_to 10162
  157.1680  130.6747  149.6067 H   0  0  0  0  0  0  0  0  0  0  0  0  # atno 10718 bound_to 10713
  154.8291  135.3363  154.6801 H   0  0  0  0  0  0  0  0  0  0  0  0  # atno 10763 bound_to 10752
  153.7423  135.6945  153.4968 H   0  0  0  0  0  0  0  0  0  0  0  0  # atno 10764 bound_to 10752
  153.2235  135.4441  155.0467 H   0  0  0  0  0  0  0  0  0  0  0  0  # atno 10765 bound_to 10752
  139.9809  134.6746  156.0265 H   0  0  0  0  0  0  0  0  0  0  0  0  # atno 11005 bound_to 11000
  145.2619  141.0080  143.3821 LP  0  0  0  0  0  0  0  0  0  0  0  0  # atno 17320 bound_to 7965
  144.9292  139.4319  143.6503 LP  0  0  0  0  0  0  0  0  0  0  0  0  # atno 17321 bound_to 7965
  140.2920  143.3318  152.1053 LP  0  0  0  0  0  0  0  0  0  0  0  0  # atno 17342 bound_to 10162
  139.5031  144.6749  151.6152 LP  0  0  0  0  0  0  0  0  0  0  0  0  # atno 17343 bound_to 10162
  155.9743  130.4689  150.6375 LP  0  0  0  0  0  0  0  0  0  0  0  0  # atno 17370 bound_to 10713
  157.4070  131.0818  151.1256 LP  0  0  0  0  0  0  0  0  0  0  0  0  # atno 17371 bound_to 10713
  141.1481  133.6552  156.3929 LP  0  0  0  0  0  0  0  0  0  0  0  0  # atno 17394 bound_to 11000
  140.5099  134.6405  157.5280 LP  0  0  0  0  0  0  0  0  0  0  0  0  # atno 17395 bound_to 11000

$$$$
