AV-unprocessed.smi:897|AV-procd|sdf|4080|dock10
  -GOLD-   22720 1573D 1   1.00000     0.00000
 Structure written by MMmdl.
 35 37  0  0  0  0  0  0  0  0  1 V2000
  151.9941  145.6436  159.3119 C   0  0  0  0  0  0  0  0  0  0  0  0
  152.0241  144.1373  159.1597 C   0  0  0  0  0  0  0  0  0  0  0  0
  152.9690  143.3577  159.8520 C   0  0  0  0  0  0  0  0  0  0  0  0
  152.9523  141.9594  159.6753 C   0  0  0  0  0  0  0  0  0  0  0  0
  153.9716  141.1072  160.4165 C   0  0  0  0  0  0  0  0  0  0  0  0
  151.9815  141.3935  158.8080 C   0  0  0  0  0  0  0  0  0  0  0  0
  151.9252  139.9476  158.6013 C   0  0  0  0  0  0  0  0  0  0  0  0
  151.8813  138.8030  158.4375 N   0  0  0  0  0  0  0  0  0  0  0  0
  151.0679  142.2668  158.1551 C   0  0  0  0  0  0  0  0  0  0  0  0
  150.0896  141.7543  157.2828 N   0  0  0  0  0  0  0  0  0  0  0  0
  150.4040  141.4355  155.8932 C   0  0  1  0  0  0  0  0  0  0  0  0
  150.4181  139.9306  155.6147 C   0  0  0  0  0  0  0  0  0  0  0  0
  149.4489  139.8195  154.4292 C   0  0  1  0  0  0  0  0  0  0  0  0
  147.9904  139.9804  154.8765 C   0  0  0  0  0  0  0  0  0  0  0  0
  147.9231  141.4752  155.1830 C   0  0  0  0  0  0  0  0  0  0  0  0
  149.3598  141.9290  154.8713 C   0  0  2  0  0  0  0  0  0  0  0  0
  149.6610  141.0660  153.7876 O   0  0  0  0  0  0  0  0  0  0  0  0
  151.0997  143.6090  158.3332 N   0  0  0  0  0  0  0  0  0  0  0  0
  152.8528  146.0007  159.8812 H   0  0  0  0  0  0  0  0  0  0  0  0
  151.0871  145.9525  159.8320 H   0  0  0  0  0  0  0  0  0  0  0  0
  152.0117  146.1258  158.3340 H   0  0  0  0  0  0  0  0  0  0  0  0
  153.6920  143.8242  160.5053 H   0  0  0  0  0  0  0  0  0  0  0  0
  153.4706  140.3932  161.0711 H   0  0  0  0  0  0  0  0  0  0  0  0
  154.6295  141.7205  161.0328 H   0  0  0  0  0  0  0  0  0  0  0  0
  154.5930  140.5548  159.7111 H   0  0  0  0  0  0  0  0  0  0  0  0
  149.1175  141.8787  157.5264 H   0  0  0  0  0  0  0  0  0  0  0  0
  151.3843  141.8425  155.6405 H   0  0  0  0  0  0  0  0  0  0  0  0
  151.4206  139.6100  155.3295 H   0  0  0  0  0  0  0  0  0  0  0  0
  150.0974  139.3220  156.4615 H   0  0  0  0  0  0  0  0  0  0  0  0
  149.6230  138.9501  153.7947 H   0  0  0  0  0  0  0  0  0  0  0  0
  147.3049  139.7252  154.0674 H   0  0  0  0  0  0  0  0  0  0  0  0
  147.7485  139.3588  155.7392 H   0  0  0  0  0  0  0  0  0  0  0  0
  147.2144  141.9663  154.5154 H   0  0  0  0  0  0  0  0  0  0  0  0
  147.6187  141.6872  156.2081 H   0  0  0  0  0  0  0  0  0  0  0  0
  149.4428  142.9888  154.6291 H   0  0  0  0  0  0  0  0  0  0  0  0
  1  2  1  0  0  0  0
  1 19  1  0  0  0  0
  1 20  1  0  0  0  0
  1 21  1  0  0  0  0
  2 18  1  0  0  0  0
  2  3  2  0  0  0  0
  3  4  1  0  0  0  0
  3 22  1  0  0  0  0
  4  5  1  0  0  0  0
  4  6  2  0  0  0  0
  5 23  1  0  0  0  0
  5 24  1  0  0  0  0
  5 25  1  0  0  0  0
  6  7  1  0  0  0  0
  6  9  1  0  0  0  0
  7  8  3  0  0  0  0
  9 10  1  0  0  0  0
  9 18  2  0  0  0  0
 10 11  1  0  0  0  0
 10 26  1  0  0  0  0
 11 16  1  0  0  0  0
 11 12  1  0  0  0  0
 11 27  1  0  0  0  0
 12 13  1  0  0  0  0
 12 28  1  0  0  0  0
 12 29  1  0  0  0  0
 13 17  1  0  0  0  0
 13 14  1  0  0  0  0
 13 30  1  0  0  0  0
 14 15  1  0  0  0  0
 14 31  1  0  0  0  0
 14 32  1  0  0  0  0
 15 16  1  0  0  0  0
 15 33  1  0  0  0  0
 15 34  1  0  0  0  0
 16 17  1  0  0  0  0
 16 35  1  0  0  0  0
M  END
> <s_m_source_file>
AV-unprocessed.smi

> <i_m_source_file_index>
897

> <i_lp_mmshare_version>
43012

> <i_f3d_flags>
0

> <s_epik_input>
W0NIM11jMVtjSF1jKFtDSDNdKWMoQyNOKWMobjEpW05IXVtDQEhdKFtDSDJdW0NAQEhdMjMpW0NAQEhdKE8zKVtDSDJdW0NIMl0y

> <s_epik_cmdline>
J2VwaWtfcHl0aG9uJywgJy1waCcsICc3LjAnLCAnLXRuJywgJzgnLCAnLW1hJywgJzIwMCcsICctbWV0YWxfYmluZGluZycsICctaW1hZScsICc8aW5maWxlLm1hZT4nLCAnLW9tYWUnLCAnPG91dGZpbGUubWFlPic=

> <r_lp_tautomer_probability>
1

> <r_epik_Ionization_Penalty>
0.000502654

> <r_epik_Ionization_Penalty_Charging>
0

> <r_epik_Ionization_Penalty_Neutral>
0.000502654

> <r_epik_State_Penalty>
-0

> <r_epik_Charging_Adjusted_Penalty>
0

> <i_epik_Tot_Q>
0

> <i_epik_Tot_abs_Q>
0

> <r_epik_Metal_State_Penalty>
-0

> <b_epik_Metal_Only>
0

> <s_lp_Force_Field>
OPLS_2005

> <r_lp_Energy>
43.9226

> <b_lp_Chiralities_Consistent>
1

> <s_lp_Variant>
AV-unprocessed.smi:897-2

> <Gold.Version>
5.8.1

> <Gold.Id.Protein>
6NUR|6NUR_protein|mol2

> <Gold.PLP.Fitness>
39.7843

> <Gold.PLP.PLP>
-37.7053

> <Gold.PLP.part.hbond>
-2.0000

> <Gold.PLP.part.metal>
0.0000

> <Gold.PLP.part.buried>
-1.9438

> <Gold.PLP.part.nonpolar>
-35.6834

> <Gold.PLP.part.repulsive>
2.2854

> <Gold.PLP.ligand.clash>
0.0000

> <Gold.PLP.ligand.torsion>
0.8819

> <Gold.PLP.Chemscore.Hbond>
1.2776

> <Gold.PLP.Chemscore.CHOScore>
0.0000

> <Gold.PLP.Chemscore.Metal>
0.0000

> <Gold.Chemscore.Hbonds>
donor molecule, donor type, donor heavy atom, donor atom, acceptor molecule, acceptor atom, score
      P1  H  7989  7998       L1    17  0.32
      P1  H  8011  8017       L1    17  0.87

> <Gold.PLP.Chemscore.Internal.Correction>
0.0101

> <Gold.Rescore>
     Score         DG    S(hbond)    S(metal)    S(lipo)     H(rot)  DE(clash)    DE(int)     intcor
     15.07     -17.32       0.73        0.00     102.27       1.00       1.42       0.83       ----

> <Gold.Chemscore.Fitness>
15.0670

> <Gold.Chemscore.DG>
-17.3199

> <Gold.Chemscore.ZeroCoef>
-5.4800

> <Gold.Chemscore.Hbond>
0.7290

> <Gold.Chemscore.Metal>
0.0000

> <Gold.Chemscore.Lipo>
102.2651

> <Gold.Chemscore.Internal_Hbond>
0.0000

> <Gold.Chemscore.DEClash>
1.4185

> <Gold.Chemscore.DEInternal>
0.8344

> <Gold.Chemscore.Rot>
1.0000

> <Gold.Chemscore.Internal.Correction>
   9.000000E+99

> <Gold.Chemscore.Hbonds>
donor molecule, donor type, donor heavy atom, donor atom, acceptor molecule, acceptor atom, score
      P1  H  7989  7998       L1    17  0.06
      P1  H  8011  8017       L1    17  0.19

> <Gold.Chemscore.Hbond.Weighted>
-2.4348

> <Gold.Chemscore.Metal.Weighted>
-0.0000

> <Gold.Chemscore.Lipo.Weighted>
-11.9650

> <Gold.Chemscore.Internal_Hbond.Weighted>
0.0000

> <Gold.Chemscore.DEClash.Weighted>
1.4185

> <Gold.Chemscore.DEInternal.Weighted>
0.8344

> <Gold.Chemscore.Rot.Weighted>
2.5600

> <Gold.Chemscore.Internal.Correction.Weighted>
   9.000000E+99

> <Gold.Protein.RotatedTorsions>
[ 6907 6896 6895 6894 ] final  159.74 input  -60.11 | X-H torsion
[ 7974 7965 7964 7962 ] final   80.94 input  175.53 | X-H torsion
[ 8008 7997 7996 7995 ] final  136.28 input   59.86 | X-H torsion
[ 10167 10162 10161 10158 ] final  -94.58 input  -65.29 | X-H torsion
[ 10718 10713 10712 10709 ] final -114.11 input   66.30 | X-H torsion
[ 10763 10752 10751 10750 ] final   57.47 input  -60.55 | X-H torsion
[ 11005 11000 10999 10996 ] final   79.66 input  -57.11 | X-H torsion

> <Gold.Protein.ActiveResidues>
 VAL166  LYS551  ARG553  GLY616  TRP617  ASP618  TYR619  PRO620  LYS621  CYS622 
 ASP623  PHE694  ASN695  SER759  ASP760  ASP761  ALA762  ILE779  LEU786  VAL792 
 PHE793  MET794  SER795  GLU796  ALA797  LYS798  CYS799  TRP800  GLU811  SER814 

> <Gold.Protein.RotatedAtoms>
  151.9811  133.3758  159.4107 H   0  0  0  0  0  0  0  0  0  0  0  0  # atno 6907 bound_to 6896
  150.6934  134.4038  159.5140 H   0  0  0  0  0  0  0  0  0  0  0  0  # atno 6908 bound_to 6896
  152.1757  134.8797  160.0581 H   0  0  0  0  0  0  0  0  0  0  0  0  # atno 6909 bound_to 6896
  145.6446  139.2433  143.2011 H   0  0  0  0  0  0  0  0  0  0  0  0  # atno 7974 bound_to 7965
  156.3004  140.2449  156.3720 H   0  0  0  0  0  0  0  0  0  0  0  0  # atno 8008 bound_to 7997
  154.8780  140.0413  157.1784 H   0  0  0  0  0  0  0  0  0  0  0  0  # atno 8009 bound_to 7997
  154.8726  140.2937  155.5476 H   0  0  0  0  0  0  0  0  0  0  0  0  # atno 8010 bound_to 7997
  140.3130  143.3094  152.0128 H   0  0  0  0  0  0  0  0  0  0  0  0  # atno 10167 bound_to 10162
  156.0809  130.6009  150.8731 H   0  0  0  0  0  0  0  0  0  0  0  0  # atno 10718 bound_to 10713
  152.9851  135.5640  154.5397 H   0  0  0  0  0  0  0  0  0  0  0  0  # atno 10763 bound_to 10752
  154.4853  135.2790  155.1541 H   0  0  0  0  0  0  0  0  0  0  0  0  # atno 10764 bound_to 10752
  154.3032  135.6303  153.5487 H   0  0  0  0  0  0  0  0  0  0  0  0  # atno 10765 bound_to 10752
  139.9164  134.7860  156.1808 H   0  0  0  0  0  0  0  0  0  0  0  0  # atno 11005 bound_to 11000
  146.1253  140.7256  142.9438 LP  0  0  0  0  0  0  0  0  0  0  0  0  # atno 17320 bound_to 7965
  144.7145  140.4159  143.7055 LP  0  0  0  0  0  0  0  0  0  0  0  0  # atno 17321 bound_to 7965
  139.4890  144.6370  151.6955 LP  0  0  0  0  0  0  0  0  0  0  0  0  # atno 17342 bound_to 10162
  140.5551  144.0360  150.6144 LP  0  0  0  0  0  0  0  0  0  0  0  0  # atno 17343 bound_to 10162
  157.5925  131.0944  150.9095 LP  0  0  0  0  0  0  0  0  0  0  0  0  # atno 17370 bound_to 10713
  156.9268  130.5335  149.5279 LP  0  0  0  0  0  0  0  0  0  0  0  0  # atno 17371 bound_to 10713
  141.0643  133.6826  156.2014 LP  0  0  0  0  0  0  0  0  0  0  0  0  # atno 17394 bound_to 11000
  140.6610  134.4968  157.5583 LP  0  0  0  0  0  0  0  0  0  0  0  0  # atno 17395 bound_to 11000

$$$$
