AV-unprocessed.smi:2756|AV-procd|sdf|10619|dock3
  -GOLD-   2272015 63D 1   1.00000     0.00000
 Structure written by MMmdl.
 18 18  0  0  0  0  0  0  0  0  2 V2000
  150.4532  142.8745  156.2841 N   0  0  0  0  0  0  0  0  0  0  0  0
  151.2612  142.6219  157.3917 C   0  0  0  0  0  0  0  0  0  0  0  0
  151.7678  143.7126  158.0067 N   0  0  0  0  0  0  0  0  0  0  0  0
  152.5530  143.5298  159.0893 C   0  0  0  0  0  0  0  0  0  0  0  0
  152.8725  142.2602  159.6065 C   0  0  0  0  0  0  0  0  0  0  0  0
  152.3455  141.1257  158.9618 C   0  0  0  0  0  0  0  0  0  0  0  0
  151.5224  141.2987  157.8285 C   0  0  0  0  0  0  0  0  0  0  0  0
  150.9503  140.0773  157.1183 C   0  0  0  0  0  0  0  0  0  0  0  0
  151.6505  139.9272  155.7659 C   0  0  0  0  0  0  0  0  0  0  0  0
  150.9623  140.1355  154.7426 O   0  0  0  0  0  0  0  0  0  0  0  0
  152.8615  139.6136  155.7783 O   0  5  0  0  0  0  0  0  0  0  0  0
  150.0357  142.1125  155.7685 H   0  0  0  0  0  0  0  0  0  0  0  0
  150.0823  143.7977  156.1134 H   0  0  0  0  0  0  0  0  0  0  0  0
  152.9390  144.4231  159.5574 H   0  0  0  0  0  0  0  0  0  0  0  0
  153.5043  142.1592  160.4762 H   0  0  0  0  0  0  0  0  0  0  0  0
  152.5693  140.1367  159.3342 H   0  0  0  0  0  0  0  0  0  0  0  0
  151.0784  139.1791  157.7237 H   0  0  0  0  0  0  0  0  0  0  0  0
  149.8782  140.2005  156.9600 H   0  0  0  0  0  0  0  0  0  0  0  0
  1  2  1  0  0  0  0
  1 12  1  0  0  0  0
  1 13  1  0  0  0  0
  2  7  1  0  0  0  0
  2  3  2  0  0  0  0
  3  4  1  0  0  0  0
  4  5  2  0  0  0  0
  4 14  1  0  0  0  0
  5  6  1  0  0  0  0
  5 15  1  0  0  0  0
  6  7  2  0  0  0  0
  6 16  1  0  0  0  0
  7  8  1  0  0  0  0
  8  9  1  0  0  0  0
  8 17  1  0  0  0  0
  8 18  1  0  0  0  0
  9 10  2  0  0  0  0
  9 11  1  0  0  0  0
M  CHG  1  11  -1
M  END
> <s_m_source_file>
AV-unprocessed.smi

> <i_m_source_file_index>
2756

> <i_lp_mmshare_version>
43012

> <i_f3d_flags>
0

> <s_epik_input>
W05IMl1jMW5bY0hdW2NIXVtjSF1jMVtDSDJdQyg9TylbT0hd

> <s_epik_cmdline>
J2VwaWtfcHl0aG9uJywgJy1waCcsICc3LjAnLCAnLXRuJywgJzgnLCAnLW1hJywgJzIwMCcsICctbWV0YWxfYmluZGluZycsICctaW1hZScsICc8aW5maWxlLm1hZT4nLCAnLW9tYWUnLCAnPG91dGZpbGUubWFlPic=

> <r_lp_tautomer_probability>
1

> <r_epik_Ionization_Penalty>
1.10944

> <r_epik_Ionization_Penalty_Charging>
0.000636915

> <r_epik_Ionization_Penalty_Neutral>
1.1088

> <r_epik_State_Penalty>
1.16638

> <r_epik_Charging_Adjusted_Penalty>
1.16702

> <i_epik_Tot_Q>
-1

> <i_epik_Tot_abs_Q>
1

> <r_epik_Metal_State_Penalty>
0.00363901

> <b_epik_Metal_Only>
0

> <s_lp_Force_Field>
OPLS_2005

> <r_lp_Energy>
0.0507989

> <b_lp_Chiralities_Consistent>
1

> <s_lp_Variant>
AV-unprocessed.smi:2756-2

> <Gold.Version>
5.8.1

> <Gold.Id.Protein>
6NUR|6NUR_protein|mol2

> <Gold.PLP.Fitness>
35.9369

> <Gold.PLP.PLP>
-24.2760

> <Gold.PLP.part.hbond>
-2.8978

> <Gold.PLP.part.metal>
0.0000

> <Gold.PLP.part.buried>
-4.6574

> <Gold.PLP.part.nonpolar>
-16.9768

> <Gold.PLP.part.repulsive>
0.2626

> <Gold.PLP.ligand.clash>
0.0000

> <Gold.PLP.ligand.torsion>
0.1698

> <Gold.PLP.Chemscore.Hbond>
4.0000

> <Gold.PLP.Chemscore.CHOScore>
0.0000

> <Gold.PLP.Chemscore.Metal>
0.0000

> <Gold.Chemscore.Hbonds>
donor molecule, donor type, donor heavy atom, donor atom, acceptor molecule, acceptor atom, score
      L1  H     1    13       P1  8028  1.00
      P1  H  7989  7998       L1    10  1.00
      P1  H  7997  8009       L1    11  2.00

> <Gold.PLP.Chemscore.Internal.Correction>
0.0004

> <Gold.Rescore>
     Score         DG    S(hbond)    S(metal)    S(lipo)     H(rot)  DE(clash)    DE(int)     intcor
     16.24     -16.40       2.96        0.00      43.13       1.56       0.00       0.16       ----

> <Gold.Chemscore.Fitness>
16.2444

> <Gold.Chemscore.DG>
-16.4019

> <Gold.Chemscore.ZeroCoef>
-5.4800

> <Gold.Chemscore.Hbond>
2.9569

> <Gold.Chemscore.Metal>
0.0000

> <Gold.Chemscore.Lipo>
43.1270

> <Gold.Chemscore.Internal_Hbond>
0.0000

> <Gold.Chemscore.DEClash>
0.0000

> <Gold.Chemscore.DEInternal>
0.1575

> <Gold.Chemscore.Rot>
1.5625

> <Gold.Chemscore.Internal.Correction>
   9.000000E+99

> <Gold.Chemscore.Hbonds>
donor molecule, donor type, donor heavy atom, donor atom, acceptor molecule, acceptor atom, score
      L1  H     1    13       P1  8028  0.92
      P1  H  7989  7998       L1    10  0.95
      P1  H  7997  8009       L1    11  1.00

> <Gold.Chemscore.Hbond.Weighted>
-9.8761

> <Gold.Chemscore.Metal.Weighted>
-0.0000

> <Gold.Chemscore.Lipo.Weighted>
-5.0459

> <Gold.Chemscore.Internal_Hbond.Weighted>
0.0000

> <Gold.Chemscore.DEClash.Weighted>
0.0000

> <Gold.Chemscore.DEInternal.Weighted>
0.1575

> <Gold.Chemscore.Rot.Weighted>
4.0000

> <Gold.Chemscore.Internal.Correction.Weighted>
   9.000000E+99

> <Gold.Protein.RotatedTorsions>
[ 6907 6896 6895 6894 ] final   22.90 input  -60.11 | X-H torsion
[ 7974 7965 7964 7962 ] final   98.92 input  175.53 | X-H torsion
[ 8008 7997 7996 7995 ] final -141.91 input   59.86 | X-H torsion
[ 10167 10162 10161 10158 ] final  -76.02 input  -65.29 | X-H torsion
[ 10718 10713 10712 10709 ] final  136.66 input   66.30 | X-H torsion
[ 10763 10752 10751 10750 ] final -161.13 input  -60.55 | X-H torsion
[ 11005 11000 10999 10996 ] final  -32.20 input  -57.11 | X-H torsion

> <Gold.Protein.ActiveResidues>
 VAL166  LYS551  ARG553  GLY616  TRP617  ASP618  TYR619  PRO620  LYS621  CYS622 
 ASP623  PHE694  ASN695  SER759  ASP760  ASP761  ALA762  ILE779  LEU786  VAL792 
 PHE793  MET794  SER795  GLU796  ALA797  LYS798  CYS799  TRP800  GLU811  SER814 

> <Gold.Protein.RotatedAtoms>
  151.9342  135.0243  160.0531 H   0  0  0  0  0  0  0  0  0  0  0  0  # atno 6907 bound_to 6896
  152.2092  133.4894  159.5109 H   0  0  0  0  0  0  0  0  0  0  0  0  # atno 6908 bound_to 6896
  150.6972  134.1406  159.4146 H   0  0  0  0  0  0  0  0  0  0  0  0  # atno 6909 bound_to 6896
  145.4057  139.2341  143.3275 H   0  0  0  0  0  0  0  0  0  0  0  0  # atno 7974 bound_to 7965
  155.4856  140.0563  157.2961 H   0  0  0  0  0  0  0  0  0  0  0  0  # atno 8008 bound_to 7997
  154.4643  140.2011  156.0112 H   0  0  0  0  0  0  0  0  0  0  0  0  # atno 8009 bound_to 7997
  156.0947  140.3228  155.7866 H   0  0  0  0  0  0  0  0  0  0  0  0  # atno 8010 bound_to 7997
  140.4893  143.2384  151.7933 H   0  0  0  0  0  0  0  0  0  0  0  0  # atno 10167 bound_to 10162
  157.4443  131.1060  151.0108 H   0  0  0  0  0  0  0  0  0  0  0  0  # atno 10718 bound_to 10713
  154.7330  135.3051  154.8859 H   0  0  0  0  0  0  0  0  0  0  0  0  # atno 10763 bound_to 10752
  153.9696  135.6743  153.4751 H   0  0  0  0  0  0  0  0  0  0  0  0  # atno 10764 bound_to 10752
  153.0936  135.4947  154.8658 H   0  0  0  0  0  0  0  0  0  0  0  0  # atno 10765 bound_to 10752
  140.9532  133.7208  156.1252 H   0  0  0  0  0  0  0  0  0  0  0  0  # atno 11005 bound_to 11000
  146.2730  140.4761  142.8807 LP  0  0  0  0  0  0  0  0  0  0  0  0  # atno 17320 bound_to 7965
  144.8343  140.6757  143.6270 LP  0  0  0  0  0  0  0  0  0  0  0  0  # atno 17321 bound_to 7965
  139.4848  144.4670  151.9472 LP  0  0  0  0  0  0  0  0  0  0  0  0  # atno 17342 bound_to 10162
  140.3757  144.2800  150.5914 LP  0  0  0  0  0  0  0  0  0  0  0  0  # atno 17343 bound_to 10162
  157.0960  130.5962  149.5450 LP  0  0  0  0  0  0  0  0  0  0  0  0  # atno 17370 bound_to 10713
  155.9961  130.5029  150.7483 LP  0  0  0  0  0  0  0  0  0  0  0  0  # atno 17371 bound_to 10713
  140.7573  134.3978  157.5531 LP  0  0  0  0  0  0  0  0  0  0  0  0  # atno 17394 bound_to 11000
  139.8854  134.8939  156.2646 LP  0  0  0  0  0  0  0  0  0  0  0  0  # atno 17395 bound_to 11000

$$$$
