AV-unprocessed.smi:107|AV-procd|sdf|1018|dock4
  -GOLD-   2262018 23D 1   1.00000     0.00000
 Structure written by MMmdl.
 31 32  0  0  0  0  0  0  0  0  1 V2000
  151.2562  142.4950  158.6109 C   0  0  0  0  0  0  0  0  0  0  0  0
  151.1640  141.5062  157.4606 C   0  0  0  0  0  0  0  0  0  0  0  0
  150.3014  141.6726  156.4257 C   0  0  0  0  0  0  0  0  0  0  0  0
  150.1935  140.7884  155.3613 N   0  0  0  0  0  0  0  0  0  0  0  0
  149.2082  141.0313  154.2406 C   0  0  1  0  0  0  0  0  0  0  0  0
  148.2668  139.8375  154.0751 C   0  0  0  0  0  0  0  0  0  0  0  0
  146.9566  140.5324  153.7701 C   0  0  1  0  0  0  0  0  0  0  0  0
  145.8576  139.7145  154.1157 O   0  0  0  0  0  0  0  0  0  0  0  0
  147.0501  141.7870  154.6419 C   0  0  2  0  0  0  0  0  0  0  0  0
  146.1746  142.9464  154.1429 C   0  0  0  0  0  0  0  0  0  0  0  0
  144.8110  142.6481  154.3537 O   0  0  0  0  0  0  0  0  0  0  0  0
  148.4283  142.1487  154.5528 O   0  0  0  0  0  0  0  0  0  0  0  0
  151.0040  139.6341  155.3378 C   0  0  0  0  0  0  0  0  0  0  0  0
  150.9487  138.7917  154.4427 O   0  0  0  0  0  0  0  0  0  0  0  0
  151.8923  139.4641  156.3984 N   0  0  0  0  0  0  0  0  0  0  0  0
  152.0407  140.3320  157.4830 C   0  0  0  0  0  0  0  0  0  0  0  0
  152.8618  140.0720  158.3608 O   0  0  0  0  0  0  0  0  0  0  0  0
  152.4767  138.6409  156.3838 H   0  0  0  0  0  0  0  0  0  0  0  0
  150.5734  143.3347  158.4786 H   0  0  0  0  0  0  0  0  0  0  0  0
  152.2672  142.8967  158.6887 H   0  0  0  0  0  0  0  0  0  0  0  0
  151.0075  142.0067  159.5538 H   0  0  0  0  0  0  0  0  0  0  0  0
  149.6617  142.5420  156.4371 H   0  0  0  0  0  0  0  0  0  0  0  0
  149.7706  141.2689  153.3365 H   0  0  0  0  0  0  0  0  0  0  0  0
  148.6093  139.1670  153.2863 H   0  0  0  0  0  0  0  0  0  0  0  0
  148.2044  139.2831  155.0134 H   0  0  0  0  0  0  0  0  0  0  0  0
  146.9115  140.7984  152.7127 H   0  0  0  0  0  0  0  0  0  0  0  0
  145.1091  139.9842  153.6055 H   0  0  0  0  0  0  0  0  0  0  0  0
  146.8097  141.5299  155.6754 H   0  0  0  0  0  0  0  0  0  0  0  0
  146.4403  143.8839  154.6324 H   0  0  0  0  0  0  0  0  0  0  0  0
  146.3153  143.0887  153.0709 H   0  0  0  0  0  0  0  0  0  0  0  0
  144.5971  141.8641  153.8713 H   0  0  0  0  0  0  0  0  0  0  0  0
  1  2  1  0  0  0  0
  1 19  1  0  0  0  0
  1 20  1  0  0  0  0
  1 21  1  0  0  0  0
  2 16  1  0  0  0  0
  2  3  2  0  0  0  0
  3  4  1  0  0  0  0
  3 22  1  0  0  0  0
  4  5  1  0  0  0  0
  4 13  1  0  0  0  0
  5 12  1  0  0  0  0
  5  6  1  0  0  0  0
  5 23  1  0  0  0  0
  6  7  1  0  0  0  0
  6 24  1  0  0  0  0
  6 25  1  0  0  0  0
  7  8  1  0  0  0  0
  7  9  1  0  0  0  0
  7 26  1  0  0  0  0
  8 27  1  0  0  0  0
  9 10  1  0  0  0  0
  9 12  1  0  0  0  0
  9 28  1  0  0  0  0
 10 11  1  0  0  0  0
 10 29  1  0  0  0  0
 10 30  1  0  0  0  0
 11 31  1  0  0  0  0
 13 14  2  0  0  0  0
 13 15  1  0  0  0  0
 15 18  1  0  0  0  0
 15 16  1  0  0  0  0
 16 17  2  0  0  0  0
M  END
> <s_m_source_file>
AV-unprocessed.smi

> <i_m_source_file_index>
107

> <i_lp_mmshare_version>
43012

> <i_f3d_flags>
0

> <s_epik_input>
Tz1jMVtuSF1jKD1PKW4oW2NIXWMxW0NIM10pW0NAQEhdMltDSDJdW0NAQEhdKFtPSF0pW0NASF0oTzIpW0NIMl1bT0hd

> <s_epik_cmdline>
J2VwaWtfcHl0aG9uJywgJy1waCcsICc3LjAnLCAnLXRuJywgJzgnLCAnLW1hJywgJzIwMCcsICctbWV0YWxfYmluZGluZycsICctaW1hZScsICc8aW5maWxlLm1hZT4nLCAnLW9tYWUnLCAnPG91dGZpbGUubWFlPic=

> <r_lp_tautomer_probability>
0.999537

> <r_epik_Ionization_Penalty>
0.00121888

> <r_epik_Ionization_Penalty_Charging>
0.00121876

> <r_epik_Ionization_Penalty_Neutral>
1.19946e-07

> <r_epik_State_Penalty>
0.000805124

> <r_epik_Charging_Adjusted_Penalty>
0.00202389

> <i_epik_Tot_Q>
0

> <i_epik_Tot_abs_Q>
0

> <r_epik_Metal_State_Penalty>
0.662472

> <b_epik_Metal_Only>
0

> <s_epik_Chemistry_Notes>
This compound contains an acetal/aminal-like group ( X-CH(R)-Y where X, Y are N, S, or O) that may be acid/base labile, releasing an aldehyde.

> <s_lp_Force_Field>
OPLS_2005

> <r_lp_Energy>
25.0544

> <b_lp_Chiralities_Consistent>
1

> <s_lp_Variant>
AV-unprocessed.smi:107-6

> <Gold.Version>
5.8.1

> <Gold.Id.Protein>
6NUR|6NUR_protein|mol2

> <Gold.PLP.Fitness>
40.1993

> <Gold.PLP.PLP>
-29.0558

> <Gold.PLP.part.hbond>
-4.3437

> <Gold.PLP.part.metal>
0.0000

> <Gold.PLP.part.buried>
-1.3535

> <Gold.PLP.part.nonpolar>
-24.5572

> <Gold.PLP.part.repulsive>
1.4522

> <Gold.PLP.ligand.clash>
0.0000

> <Gold.PLP.ligand.torsion>
0.0867

> <Gold.PLP.Chemscore.Hbond>
2.7690

> <Gold.PLP.Chemscore.CHOScore>
1.0000

> <Gold.PLP.Chemscore.Metal>
0.0000

> <Gold.Chemscore.Hbonds>
donor molecule, donor type, donor heavy atom, donor atom, acceptor molecule, acceptor atom, score
      L1  H     8    27       P1 10175  1.00
      L1  H    11    31       P1 10175  0.37
      P1  H  7997  8009       L1    17  0.49
      L1  C     3    22       P1  8028  1.00

> <Gold.PLP.Chemscore.Internal.Correction>
0.0098

> <Gold.Rescore>
     Score         DG    S(hbond)    S(metal)    S(lipo)     H(rot)  DE(clash)    DE(int)     intcor
      8.21     -10.22       1.90        0.00      45.84       2.73       0.93       1.09       ----

> <Gold.Chemscore.Fitness>
8.2069

> <Gold.Chemscore.DG>
-10.2239

> <Gold.Chemscore.ZeroCoef>
-5.4800

> <Gold.Chemscore.Hbond>
1.9034

> <Gold.Chemscore.Metal>
0.0000

> <Gold.Chemscore.Lipo>
45.8403

> <Gold.Chemscore.Internal_Hbond>
0.0000

> <Gold.Chemscore.DEClash>
0.9280

> <Gold.Chemscore.DEInternal>
1.0890

> <Gold.Chemscore.Rot>
2.7253

> <Gold.Chemscore.Internal.Correction>
   9.000000E+99

> <Gold.Chemscore.Hbonds>
donor molecule, donor type, donor heavy atom, donor atom, acceptor molecule, acceptor atom, score
      L1  H     8    27       P1 10175  1.00
      L1  H    11    31       P1 10175  0.02
      P1  H  7997  8009       L1    17  0.07

> <Gold.Chemscore.Hbond.Weighted>
-6.3574

> <Gold.Chemscore.Metal.Weighted>
-0.0000

> <Gold.Chemscore.Lipo.Weighted>
-5.3633

> <Gold.Chemscore.Internal_Hbond.Weighted>
0.0000

> <Gold.Chemscore.DEClash.Weighted>
0.9280

> <Gold.Chemscore.DEInternal.Weighted>
1.0890

> <Gold.Chemscore.Rot.Weighted>
6.9769

> <Gold.Chemscore.Internal.Correction.Weighted>
   9.000000E+99

> <Gold.Protein.RotatedTorsions>
[ 6907 6896 6895 6894 ] final  -39.45 input  -60.11 | X-H torsion
[ 7974 7965 7964 7962 ] final   69.51 input  175.53 | X-H torsion
[ 8008 7997 7996 7995 ] final  152.92 input   59.86 | X-H torsion
[ 10167 10162 10161 10158 ] final  -57.14 input  -65.29 | X-H torsion
[ 10718 10713 10712 10709 ] final   83.80 input   66.30 | X-H torsion
[ 10763 10752 10751 10750 ] final  172.52 input  -60.55 | X-H torsion
[ 11005 11000 10999 10996 ] final -125.67 input  -57.11 | X-H torsion

> <Gold.Protein.ActiveResidues>
 VAL166  LYS551  ARG553  GLY616  TRP617  ASP618  TYR619  PRO620  LYS621  CYS622 
 ASP623  PHE694  ASN695  SER759  ASP760  ASP761  ALA762  ILE779  LEU786  VAL792 
 PHE793  MET794  SER795  GLU796  ALA797  LYS798  CYS799  TRP800  GLU811  SER814 

> <Gold.Protein.RotatedAtoms>
  150.9902  134.9239  159.7894 H   0  0  0  0  0  0  0  0  0  0  0  0  # atno 6907 bound_to 6896
  152.5249  134.3292  159.9186 H   0  0  0  0  0  0  0  0  0  0  0  0  # atno 6908 bound_to 6896
  151.3298  133.3964  159.2696 H   0  0  0  0  0  0  0  0  0  0  0  0  # atno 6909 bound_to 6896
  145.7895  139.2927  143.1218 H   0  0  0  0  0  0  0  0  0  0  0  0  # atno 7974 bound_to 7965
  156.2606  140.2007  156.6409 H   0  0  0  0  0  0  0  0  0  0  0  0  # atno 8008 bound_to 7997
  154.6610  140.0561  157.0087 H   0  0  0  0  0  0  0  0  0  0  0  0  # atno 8009 bound_to 7997
  155.1276  140.3230  155.4485 H   0  0  0  0  0  0  0  0  0  0  0  0  # atno 8010 bound_to 7997
  140.6275  143.2445  151.5325 H   0  0  0  0  0  0  0  0  0  0  0  0  # atno 10167 bound_to 10162
  157.6886  131.0106  150.2578 H   0  0  0  0  0  0  0  0  0  0  0  0  # atno 10718 bound_to 10713
  154.4272  135.2759  155.1936 H   0  0  0  0  0  0  0  0  0  0  0  0  # atno 10763 bound_to 10752
  154.3857  135.6077  153.5819 H   0  0  0  0  0  0  0  0  0  0  0  0  # atno 10764 bound_to 10752
  152.9835  135.5891  154.4578 H   0  0  0  0  0  0  0  0  0  0  0  0  # atno 10765 bound_to 10752
  140.9743  134.0761  157.3835 H   0  0  0  0  0  0  0  0  0  0  0  0  # atno 11005 bound_to 11000
  145.9991  140.8536  143.0027 LP  0  0  0  0  0  0  0  0  0  0  0  0  # atno 17320 bound_to 7965
  144.6784  140.2326  143.7353 LP  0  0  0  0  0  0  0  0  0  0  0  0  # atno 17321 bound_to 7965
  139.5494  144.2436  152.1502 LP  0  0  0  0  0  0  0  0  0  0  0  0  # atno 17342 bound_to 10162
  140.1671  144.4971  150.6600 LP  0  0  0  0  0  0  0  0  0  0  0  0  # atno 17343 bound_to 10162
  156.3163  130.3779  149.7615 LP  0  0  0  0  0  0  0  0  0  0  0  0  # atno 17370 bound_to 10713
  156.5200  130.8210  151.3200 LP  0  0  0  0  0  0  0  0  0  0  0  0  # atno 17371 bound_to 10713
  139.8924  135.0124  156.6846 LP  0  0  0  0  0  0  0  0  0  0  0  0  # atno 17394 bound_to 11000
  140.7282  133.9082  155.8193 LP  0  0  0  0  0  0  0  0  0  0  0  0  # atno 17395 bound_to 11000

$$$$
