AV-unprocessed.smi:2894|AV-procd|sdf|11126|dock6
  -GOLD-   2272016 03D 1   1.00000     0.00000
 Structure written by MMmdl.
 35 36  0  0  0  0  0  0  0  0  1 V2000
  153.6652  141.7148  160.9252 C   0  0  0  0  0  0  0  0  0  0  0  0
  152.7339  142.3579  159.9406 C   0  0  0  0  0  0  0  0  0  0  0  0
  151.9555  141.7262  158.9276 C   0  0  0  0  0  0  0  0  0  0  0  0
  151.3097  142.7811  158.3426 C   0  0  0  0  0  0  0  0  0  0  0  0
  150.4246  142.7767  157.3106 N   0  0  0  0  0  0  0  0  0  0  0  0
  149.8876  141.7246  156.6685 C   0  0  0  0  0  0  0  0  0  0  0  0
  150.1181  140.5410  156.9183 O   0  0  0  0  0  0  0  0  0  0  0  0
  149.0535  142.1261  155.6986 N   0  0  0  0  0  0  0  0  0  0  0  0
  148.2807  141.2451  154.8251 C   0  0  2  0  0  0  0  0  0  0  0  0
  146.9178  140.9006  155.4553 C   0  0  0  0  0  0  0  0  0  0  0  0
  146.2069  139.8246  154.6296 C   0  0  0  0  0  0  0  0  0  0  0  0
  147.0800  138.5634  154.5254 C   0  0  0  0  0  0  0  0  0  0  0  0
  148.4773  138.8534  154.2005 N   0  0  0  0  0  0  0  0  0  0  0  0
  149.1095  140.0266  154.3805 C   0  0  0  0  0  0  0  0  0  0  0  0
  150.3139  140.1444  154.1603 O   0  0  0  0  0  0  0  0  0  0  0  0
  151.6899  143.9429  158.9770 N   0  0  0  0  0  0  0  0  0  0  0  0
  151.2778  145.3093  158.7213 C   0  0  0  0  0  0  0  0  0  0  0  0
  152.5714  143.6761  159.9648 N   0  0  0  0  0  0  0  0  0  0  0  0
  153.6273  140.6278  160.8511 H   0  0  0  0  0  0  0  0  0  0  0  0
  153.4051  141.9860  161.9486 H   0  0  0  0  0  0  0  0  0  0  0  0
  154.6958  142.0235  160.7489 H   0  0  0  0  0  0  0  0  0  0  0  0
  151.8956  140.6751  158.6891 H   0  0  0  0  0  0  0  0  0  0  0  0
  150.1395  143.6886  156.9852 H   0  0  0  0  0  0  0  0  0  0  0  0
  148.9193  143.1183  155.5674 H   0  0  0  0  0  0  0  0  0  0  0  0
  148.0816  141.7850  153.8973 H   0  0  0  0  0  0  0  0  0  0  0  0
  147.0565  140.5429  156.4767 H   0  0  0  0  0  0  0  0  0  0  0  0
  146.2931  141.7924  155.5196 H   0  0  0  0  0  0  0  0  0  0  0  0
  145.2415  139.5787  155.0729 H   0  0  0  0  0  0  0  0  0  0  0  0
  146.0007  140.2119  153.6307 H   0  0  0  0  0  0  0  0  0  0  0  0
  147.0651  138.0284  155.4757 H   0  0  0  0  0  0  0  0  0  0  0  0
  146.6723  137.8830  153.7774 H   0  0  0  0  0  0  0  0  0  0  0  0
  149.0311  138.0761  153.8704 H   0  0  0  0  0  0  0  0  0  0  0  0
  151.4189  145.5437  157.6658 H   0  0  0  0  0  0  0  0  0  0  0  0
  151.8675  146.0067  159.3181 H   0  0  0  0  0  0  0  0  0  0  0  0
  150.2242  145.4268  158.9760 H   0  0  0  0  0  0  0  0  0  0  0  0
  1  2  1  0  0  0  0
  1 19  1  0  0  0  0
  1 20  1  0  0  0  0
  1 21  1  0  0  0  0
  2 18  2  0  0  0  0
  2  3  1  0  0  0  0
  3  4  2  0  0  0  0
  3 22  1  0  0  0  0
  4  5  1  0  0  0  0
  4 16  1  0  0  0  0
  5  6  1  0  0  0  0
  5 23  1  0  0  0  0
  6  7  2  0  0  0  0
  6  8  1  0  0  0  0
  8  9  1  0  0  0  0
  8 24  1  0  0  0  0
  9 14  1  0  0  0  0
  9 10  1  0  0  0  0
  9 25  1  0  0  0  0
 10 11  1  0  0  0  0
 10 26  1  0  0  0  0
 10 27  1  0  0  0  0
 11 12  1  0  0  0  0
 11 28  1  0  0  0  0
 11 29  1  0  0  0  0
 12 13  1  0  0  0  0
 12 30  1  0  0  0  0
 12 31  1  0  0  0  0
 13 14  1  0  0  0  0
 13 32  1  0  0  0  0
 14 15  2  0  0  0  0
 16 17  1  0  0  0  0
 16 18  1  0  0  0  0
 17 33  1  0  0  0  0
 17 34  1  0  0  0  0
 17 35  1  0  0  0  0
M  END
> <s_m_source_file>
AV-unprocessed.smi

> <i_m_source_file_index>
2894

> <i_lp_mmshare_version>
43012

> <i_f3d_flags>
0

> <s_epik_input>
W0NIM11jMVtjSF1jKG4objEpW0NIM10pW05IXUMoPU8pW05IXVtDQEBIXTJbQ0gyXVtDSDJdW0NIMl1bTkhdQzI9Tw==

> <s_epik_cmdline>
J2VwaWtfcHl0aG9uJywgJy1waCcsICc3LjAnLCAnLXRuJywgJzgnLCAnLW1hJywgJzIwMCcsICctbWV0YWxfYmluZGluZycsICctaW1hZScsICc8aW5maWxlLm1hZT4nLCAnLW9tYWUnLCAnPG91dGZpbGUubWFlPic=

> <r_lp_tautomer_probability>
1

> <r_epik_Ionization_Penalty>
8.17286e-05

> <r_epik_Ionization_Penalty_Charging>
0

> <r_epik_Ionization_Penalty_Neutral>
8.17286e-05

> <r_epik_State_Penalty>
-0

> <r_epik_Charging_Adjusted_Penalty>
0

> <i_epik_Tot_Q>
0

> <i_epik_Tot_abs_Q>
0

> <r_epik_Metal_State_Penalty>
-0

> <b_epik_Metal_Only>
0

> <s_lp_Force_Field>
OPLS_2005

> <r_lp_Energy>
10.3718

> <b_lp_Chiralities_Consistent>
1

> <s_lp_Variant>
AV-unprocessed.smi:2894-1

> <Gold.Version>
5.8.1

> <Gold.Id.Protein>
6NUR|6NUR_protein|mol2

> <Gold.PLP.Fitness>
40.4392

> <Gold.PLP.PLP>
-32.6366

> <Gold.PLP.part.hbond>
-2.7535

> <Gold.PLP.part.metal>
0.0000

> <Gold.PLP.part.buried>
-5.7242

> <Gold.PLP.part.nonpolar>
-25.1413

> <Gold.PLP.part.repulsive>
0.8941

> <Gold.PLP.ligand.clash>
0.0000

> <Gold.PLP.ligand.torsion>
0.3280

> <Gold.PLP.Chemscore.Hbond>
2.8056

> <Gold.PLP.Chemscore.CHOScore>
0.0000

> <Gold.PLP.Chemscore.Metal>
0.0000

> <Gold.Chemscore.Hbonds>
donor molecule, donor type, donor heavy atom, donor atom, acceptor molecule, acceptor atom, score
      L1  H     5    23       P1  8028  0.80
      L1  H     8    24       P1  8028  1.00
      P1  H  7989  7998       L1    15  1.00

> <Gold.PLP.Chemscore.Internal.Correction>
0.0418

> <Gold.Rescore>
     Score         DG    S(hbond)    S(metal)    S(lipo)     H(rot)  DE(clash)    DE(int)     intcor
     13.86     -19.20       2.92        0.00      55.85       1.00       0.10       5.24       ----

> <Gold.Chemscore.Fitness>
13.8578

> <Gold.Chemscore.DG>
-19.1961

> <Gold.Chemscore.ZeroCoef>
-5.4800

> <Gold.Chemscore.Hbond>
2.9166

> <Gold.Chemscore.Metal>
0.0000

> <Gold.Chemscore.Lipo>
55.8518

> <Gold.Chemscore.Internal_Hbond>
0.0000

> <Gold.Chemscore.DEClash>
0.0987

> <Gold.Chemscore.DEInternal>
5.2396

> <Gold.Chemscore.Rot>
1.0000

> <Gold.Chemscore.Internal.Correction>
   9.000000E+99

> <Gold.Chemscore.Hbonds>
donor molecule, donor type, donor heavy atom, donor atom, acceptor molecule, acceptor atom, score
      L1  H     5    23       P1  8028  0.75
      L1  H     8    24       P1  8028  0.99
      P1  H  7989  7998       L1    15  0.96

> <Gold.Chemscore.Hbond.Weighted>
-9.7415

> <Gold.Chemscore.Metal.Weighted>
-0.0000

> <Gold.Chemscore.Lipo.Weighted>
-6.5347

> <Gold.Chemscore.Internal_Hbond.Weighted>
0.0000

> <Gold.Chemscore.DEClash.Weighted>
0.0987

> <Gold.Chemscore.DEInternal.Weighted>
5.2396

> <Gold.Chemscore.Rot.Weighted>
2.5600

> <Gold.Chemscore.Internal.Correction.Weighted>
   9.000000E+99

> <Gold.Protein.RotatedTorsions>
[ 6907 6896 6895 6894 ] final  104.58 input  -60.11 | X-H torsion
[ 7974 7965 7964 7962 ] final  124.99 input  175.53 | X-H torsion
[ 8008 7997 7996 7995 ] final -155.95 input   59.86 | X-H torsion
[ 10167 10162 10161 10158 ] final -130.24 input  -65.29 | X-H torsion
[ 10718 10713 10712 10709 ] final   70.51 input   66.30 | X-H torsion
[ 10763 10752 10751 10750 ] final   81.20 input  -60.55 | X-H torsion
[ 11005 11000 10999 10996 ] final    9.94 input  -57.11 | X-H torsion

> <Gold.Protein.ActiveResidues>
 VAL166  LYS551  ARG553  GLY616  TRP617  ASP618  TYR619  PRO620  LYS621  CYS622 
 ASP623  PHE694  ASN695  SER759  ASP760  ASP761  ALA762  ILE779  LEU786  VAL792 
 PHE793  MET794  SER795  GLU796  ALA797  LYS798  CYS799  TRP800  GLU811  SER814 

> <Gold.Protein.RotatedAtoms>
  152.5259  133.9655  159.7737 H   0  0  0  0  0  0  0  0  0  0  0  0  # atno 6907 bound_to 6896
  150.9937  133.6116  159.2711 H   0  0  0  0  0  0  0  0  0  0  0  0  # atno 6908 bound_to 6896
  151.3250  135.0834  159.9372 H   0  0  0  0  0  0  0  0  0  0  0  0  # atno 6909 bound_to 6896
  145.0781  139.3678  143.4923 H   0  0  0  0  0  0  0  0  0  0  0  0  # atno 7974 bound_to 7965
  155.7097  140.0777  157.2376 H   0  0  0  0  0  0  0  0  0  0  0  0  # atno 8008 bound_to 7997
  154.4060  140.1632  156.2336 H   0  0  0  0  0  0  0  0  0  0  0  0  # atno 8009 bound_to 7997
  155.9294  140.3392  155.6239 H   0  0  0  0  0  0  0  0  0  0  0  0  # atno 8010 bound_to 7997
  139.9313  143.6268  152.2529 H   0  0  0  0  0  0  0  0  0  0  0  0  # atno 10167 bound_to 10162
  157.6403  130.9481  150.0660 H   0  0  0  0  0  0  0  0  0  0  0  0  # atno 10718 bound_to 10713
  153.1097  135.4774  154.9013 H   0  0  0  0  0  0  0  0  0  0  0  0  # atno 10763 bound_to 10752
  154.7467  135.3095  154.8634 H   0  0  0  0  0  0  0  0  0  0  0  0  # atno 10764 bound_to 10752
  153.9227  135.6853  153.4801 H   0  0  0  0  0  0  0  0  0  0  0  0  # atno 10765 bound_to 10752
  140.5201  134.0567  155.7842 H   0  0  0  0  0  0  0  0  0  0  0  0  # atno 11005 bound_to 11000
  146.3530  140.0558  142.8632 LP  0  0  0  0  0  0  0  0  0  0  0  0  # atno 17320 bound_to 7965
  145.1211  140.9463  143.4600 LP  0  0  0  0  0  0  0  0  0  0  0  0  # atno 17321 bound_to 7965
  139.6780  144.7657  151.1661 LP  0  0  0  0  0  0  0  0  0  0  0  0  # atno 17342 bound_to 10162
  140.7636  143.5767  150.8938 LP  0  0  0  0  0  0  0  0  0  0  0  0  # atno 17343 bound_to 10162
  156.1679  130.3645  149.9207 LP  0  0  0  0  0  0  0  0  0  0  0  0  # atno 17370 bound_to 10713
  156.7189  130.8999  151.3616 LP  0  0  0  0  0  0  0  0  0  0  0  0  # atno 17371 bound_to 10713
  141.1339  133.9255  157.2477 LP  0  0  0  0  0  0  0  0  0  0  0  0  # atno 17394 bound_to 11000
  139.9610  135.0154  156.9262 LP  0  0  0  0  0  0  0  0  0  0  0  0  # atno 17395 bound_to 11000

$$$$
