AV-unprocessed.smi:2391|AV-procd|sdf|9482|dock1
  -GOLD-   2272013113D 1   1.00000     0.00000
 Structure written by MMmdl.
 35 36  0  0  0  0  0  0  0  0  1 V2000
  145.7338  136.7381  154.6957 O   0  0  0  0  0  0  0  0  0  0  0  0
  146.7546  136.6911  154.0091 C   0  0  0  0  0  0  0  0  0  0  0  0
  147.6074  137.7122  153.8160 N   0  0  0  0  0  0  0  0  0  0  0  0
  147.5254  139.0311  154.3351 C   0  0  0  0  0  0  0  0  0  0  0  0
  148.5758  139.8949  153.9580 C   0  0  0  0  0  0  0  0  0  0  0  0
  148.5557  141.2167  154.4347 C   0  0  0  0  0  0  0  0  0  0  0  0
  147.4809  141.5864  155.2612 C   0  0  0  0  0  0  0  0  0  0  0  0
  146.4964  140.7255  155.5977 N   0  0  0  0  0  0  0  0  0  0  0  0
  146.5217  139.4691  155.1398 N   0  0  0  0  0  0  0  0  0  0  0  0
  147.1560  135.5956  153.3477 N   0  0  0  0  0  0  0  0  0  0  0  0
  146.4805  134.2959  153.3427 C   0  0  1  0  0  0  0  0  0  0  0  0
  145.9029  134.0146  151.9309 C   0  0  0  0  0  0  0  0  0  0  0  0
  145.0592  135.1579  151.3524 C   0  0  0  0  0  0  0  0  0  0  0  0
  144.2711  134.5187  150.2090 C   0  0  0  0  0  0  0  0  0  0  0  0
  144.0652  133.0538  150.6141 C   0  0  0  0  0  0  0  0  0  0  0  0
  144.9478  132.8154  151.8473 C   0  0  0  0  0  0  0  0  0  0  0  0
  147.4754  133.2216  153.8379 C   0  0  0  0  0  0  0  0  0  0  0  0
  148.0016  133.5982  155.0043 F   0  0  0  0  0  0  0  0  0  0  0  0
  146.8648  132.0528  154.0275 F   0  0  0  0  0  0  0  0  0  0  0  0
  148.4638  133.0559  152.9581 F   0  0  0  0  0  0  0  0  0  0  0  0
  148.4062  137.5260  153.2279 H   0  0  0  0  0  0  0  0  0  0  0  0
  149.3781  139.5560  153.3188 H   0  0  0  0  0  0  0  0  0  0  0  0
  149.3335  141.9199  154.1765 H   0  0  0  0  0  0  0  0  0  0  0  0
  147.4081  142.5876  155.6591 H   0  0  0  0  0  0  0  0  0  0  0  0
  148.0091  135.6556  152.8115 H   0  0  0  0  0  0  0  0  0  0  0  0
  145.6489  134.3155  154.0496 H   0  0  0  0  0  0  0  0  0  0  0  0
  146.7291  133.8339  151.2411 H   0  0  0  0  0  0  0  0  0  0  0  0
  144.3673  135.5304  152.1095 H   0  0  0  0  0  0  0  0  0  0  0  0
  145.6629  136.0001  151.0128 H   0  0  0  0  0  0  0  0  0  0  0  0
  143.3292  135.0349  150.0212 H   0  0  0  0  0  0  0  0  0  0  0  0
  144.8584  134.5636  149.2909 H   0  0  0  0  0  0  0  0  0  0  0  0
  143.0193  132.8511  150.8479 H   0  0  0  0  0  0  0  0  0  0  0  0
  144.3495  132.3916  149.7954 H   0  0  0  0  0  0  0  0  0  0  0  0
  145.4809  131.8664  151.7843 H   0  0  0  0  0  0  0  0  0  0  0  0
  144.3175  132.7793  152.7369 H   0  0  0  0  0  0  0  0  0  0  0  0
  1  2  2  0  0  0  0
  2  3  1  0  0  0  0
  2 10  1  0  0  0  0
  3  4  1  0  0  0  0
  3 21  1  0  0  0  0
  4  9  1  0  0  0  0
  4  5  2  0  0  0  0
  5  6  1  0  0  0  0
  5 22  1  0  0  0  0
  6  7  2  0  0  0  0
  6 23  1  0  0  0  0
  7  8  1  0  0  0  0
  7 24  1  0  0  0  0
  8  9  2  0  0  0  0
 10 11  1  0  0  0  0
 10 25  1  0  0  0  0
 11 12  1  0  0  0  0
 11 17  1  0  0  0  0
 11 26  1  0  0  0  0
 12 16  1  0  0  0  0
 12 13  1  0  0  0  0
 12 27  1  0  0  0  0
 13 14  1  0  0  0  0
 13 28  1  0  0  0  0
 13 29  1  0  0  0  0
 14 15  1  0  0  0  0
 14 30  1  0  0  0  0
 14 31  1  0  0  0  0
 15 16  1  0  0  0  0
 15 32  1  0  0  0  0
 15 33  1  0  0  0  0
 16 34  1  0  0  0  0
 16 35  1  0  0  0  0
 17 18  1  0  0  0  0
 17 19  1  0  0  0  0
 17 20  1  0  0  0  0
M  END
> <s_m_source_file>
AV-unprocessed.smi

> <i_m_source_file_index>
2391

> <i_lp_mmshare_version>
43012

> <i_f3d_flags>
0

> <s_epik_input>
W0NIMl0xW0NIMl1bQ0gyXVtDSDJdW0NIXTFbQ0BIXShDKEYpKEYpRilbTkhdQyg9TylbTkhdYzJbY0hdW2NIXVtjSF1ubjI=

> <s_epik_cmdline>
J2VwaWtfcHl0aG9uJywgJy1waCcsICc3LjAnLCAnLXRuJywgJzgnLCAnLW1hJywgJzIwMCcsICctbWV0YWxfYmluZGluZycsICctaW1hZScsICc8aW5maWxlLm1hZT4nLCAnLW9tYWUnLCAnPG91dGZpbGUubWFlPic=

> <r_lp_tautomer_probability>
1

> <r_epik_Ionization_Penalty>
0.00359591

> <r_epik_Ionization_Penalty_Charging>
0

> <r_epik_Ionization_Penalty_Neutral>
0.00359591

> <r_epik_State_Penalty>
0.0123658

> <r_epik_Charging_Adjusted_Penalty>
0.0123658

> <i_epik_Tot_Q>
0

> <i_epik_Tot_abs_Q>
0

> <r_epik_Metal_State_Penalty>
0.0410426

> <b_epik_Metal_Only>
0

> <s_lp_Force_Field>
OPLS_2005

> <r_lp_Energy>
31.4034

> <b_lp_Chiralities_Consistent>
1

> <s_lp_Variant>
AV-unprocessed.smi:2391-2

> <Gold.Version>
5.8.1

> <Gold.Id.Protein>
6NUR|6NUR_protein|mol2

> <Gold.PLP.Fitness>
34.6235

> <Gold.PLP.PLP>
-26.2876

> <Gold.PLP.part.hbond>
-1.9726

> <Gold.PLP.part.metal>
0.0000

> <Gold.PLP.part.buried>
-1.3638

> <Gold.PLP.part.nonpolar>
-23.3139

> <Gold.PLP.part.repulsive>
0.1939

> <Gold.PLP.ligand.clash>
0.0000

> <Gold.PLP.ligand.torsion>
0.1883

> <Gold.PLP.Chemscore.Hbond>
1.8000

> <Gold.PLP.Chemscore.CHOScore>
1.0000

> <Gold.PLP.Chemscore.Metal>
0.0000

> <Gold.Chemscore.Hbonds>
donor molecule, donor type, donor heavy atom, donor atom, acceptor molecule, acceptor atom, score
      L1  H     3    21       P1  7948  0.78
      L1  H    10    25       P1  7948  0.78
      L1  C     7    24       P1  8028  0.91

> <Gold.PLP.Chemscore.Internal.Correction>
0.3124

> <Gold.Rescore>
     Score         DG    S(hbond)    S(metal)    S(lipo)     H(rot)  DE(clash)    DE(int)     intcor
     12.97     -14.70       1.92        0.00      53.04       1.33       0.04       1.68       ----

> <Gold.Chemscore.Fitness>
12.9703

> <Gold.Chemscore.DG>
-14.6978

> <Gold.Chemscore.ZeroCoef>
-5.4800

> <Gold.Chemscore.Hbond>
1.9215

> <Gold.Chemscore.Metal>
0.0000

> <Gold.Chemscore.Lipo>
53.0397

> <Gold.Chemscore.Internal_Hbond>
0.0000

> <Gold.Chemscore.DEClash>
0.0428

> <Gold.Chemscore.DEInternal>
1.6847

> <Gold.Chemscore.Rot>
1.3304

> <Gold.Chemscore.Internal.Correction>
   9.000000E+99

> <Gold.Chemscore.Hbonds>
donor molecule, donor type, donor heavy atom, donor atom, acceptor molecule, acceptor atom, score
      L1  H     3    21       P1  7948  0.77
      L1  H    10    25       P1  7948  0.78

> <Gold.Chemscore.Hbond.Weighted>
-6.4179

> <Gold.Chemscore.Metal.Weighted>
-0.0000

> <Gold.Chemscore.Lipo.Weighted>
-6.2056

> <Gold.Chemscore.Internal_Hbond.Weighted>
0.0000

> <Gold.Chemscore.DEClash.Weighted>
0.0428

> <Gold.Chemscore.DEInternal.Weighted>
1.6847

> <Gold.Chemscore.Rot.Weighted>
3.4057

> <Gold.Chemscore.Internal.Correction.Weighted>
   9.000000E+99

> <Gold.Protein.RotatedTorsions>
[ 6907 6896 6895 6894 ] final   63.88 input  -60.11 | X-H torsion
[ 7974 7965 7964 7962 ] final   59.60 input  175.53 | X-H torsion
[ 8008 7997 7996 7995 ] final  -15.09 input   59.86 | X-H torsion
[ 10167 10162 10161 10158 ] final   54.10 input  -65.29 | X-H torsion
[ 10718 10713 10712 10709 ] final  -97.24 input   66.30 | X-H torsion
[ 10763 10752 10751 10750 ] final  -94.76 input  -60.55 | X-H torsion
[ 11005 11000 10999 10996 ] final  -54.90 input  -57.11 | X-H torsion

> <Gold.Protein.ActiveResidues>
 VAL166  LYS551  ARG553  GLY616  TRP617  ASP618  TYR619  PRO620  LYS621  CYS622 
 ASP623  PHE694  ASN695  SER759  ASP760  ASP761  ALA762  ILE779  LEU786  VAL792 
 PHE793  MET794  SER795  GLU796  ALA797  LYS798  CYS799  TRP800  GLU811  SER814 

> <Gold.Protein.RotatedAtoms>
  152.4288  134.5818  159.9949 H   0  0  0  0  0  0  0  0  0  0  0  0  # atno 6907 bound_to 6896
  151.5947  133.3357  159.3043 H   0  0  0  0  0  0  0  0  0  0  0  0  # atno 6908 bound_to 6896
  150.8179  134.7407  159.6811 H   0  0  0  0  0  0  0  0  0  0  0  0  # atno 6909 bound_to 6896
  145.9054  139.3613  143.0567 H   0  0  0  0  0  0  0  0  0  0  0  0  # atno 7974 bound_to 7965
  154.5157  140.2205  155.9070 H   0  0  0  0  0  0  0  0  0  0  0  0  # atno 8008 bound_to 7997
  156.1605  140.3143  155.8765 H   0  0  0  0  0  0  0  0  0  0  0  0  # atno 8009 bound_to 7997
  155.3761  140.0469  157.3035 H   0  0  0  0  0  0  0  0  0  0  0  0  # atno 8010 bound_to 7997
  140.2337  144.3659  150.6405 H   0  0  0  0  0  0  0  0  0  0  0  0  # atno 10167 bound_to 10162
  156.0079  130.5186  150.6345 H   0  0  0  0  0  0  0  0  0  0  0  0  # atno 10718 bound_to 10713
  154.7085  135.5146  153.8631 H   0  0  0  0  0  0  0  0  0  0  0  0  # atno 10763 bound_to 10752
  153.0761  135.6616  154.0152 H   0  0  0  0  0  0  0  0  0  0  0  0  # atno 10764 bound_to 10752
  153.9999  135.3012  155.3383 H   0  0  0  0  0  0  0  0  0  0  0  0  # atno 10765 bound_to 10752
  141.1048  133.6614  156.4390 H   0  0  0  0  0  0  0  0  0  0  0  0  # atno 11005 bound_to 11000
  145.8739  140.9403  143.0636 LP  0  0  0  0  0  0  0  0  0  0  0  0  # atno 17320 bound_to 7965
  144.6739  140.0691  143.7473 LP  0  0  0  0  0  0  0  0  0  0  0  0  # atno 17321 bound_to 7965
  140.6166  143.2173  151.6779 LP  0  0  0  0  0  0  0  0  0  0  0  0  # atno 17342 bound_to 10162
  139.5101  144.3554  152.0613 LP  0  0  0  0  0  0  0  0  0  0  0  0  # atno 17343 bound_to 10162
  157.4137  131.0827  151.1197 LP  0  0  0  0  0  0  0  0  0  0  0  0  # atno 17370 bound_to 10713
  157.1820  130.6314  149.5675 LP  0  0  0  0  0  0  0  0  0  0  0  0  # atno 17371 bound_to 10713
  140.4930  134.6558  157.5218 LP  0  0  0  0  0  0  0  0  0  0  0  0  # atno 17394 bound_to 11000
  139.9914  134.6979  155.9683 LP  0  0  0  0  0  0  0  0  0  0  0  0  # atno 17395 bound_to 11000

$$$$
