AV-unprocessed.smi:2033|AV-procd|sdf|8259|dock3
  -GOLD-   2272010533D 1   1.00000     0.00000
 Structure written by MMmdl.
 33 34  0  0  0  0  0  0  0  0  1 V2000
  151.1037  130.9872  156.6224 C   0  0  0  0  0  0  0  0  0  0  0  0
  150.7390  132.4021  156.3280 C   0  0  0  0  0  0  0  0  0  0  0  0
  150.9782  133.4054  157.1814 N   0  0  0  0  0  0  0  0  0  0  0  0
  150.5486  134.6295  156.6880 N   0  0  0  0  0  0  0  0  0  0  0  0
  149.9959  134.5125  155.4727 C   0  0  0  0  0  0  0  0  0  0  0  0
  149.4730  135.6076  154.7352 N   0  0  0  0  0  0  0  0  0  0  0  0
  149.1184  136.8233  155.1874 C   0  0  0  0  0  0  0  0  0  0  0  0
  149.1922  137.1969  156.3584 O   0  0  0  0  0  0  0  0  0  0  0  0
  148.6652  137.5978  154.1908 N   0  0  0  0  0  0  0  0  0  0  0  0
  148.2253  138.9870  154.3223 C   0  0  2  0  0  0  0  0  0  0  0  0
  147.2168  139.3517  153.2030 C   0  0  0  0  0  0  0  0  0  0  0  0
  147.0984  140.8519  152.8607 C   0  0  0  0  0  0  0  0  0  0  0  0
  146.8249  141.7868  154.0563 C   0  0  0  0  0  0  0  0  0  0  0  0
  147.8267  141.7232  155.2347 C   0  0  0  0  0  0  0  0  0  0  0  0
  149.1495  141.2101  154.8790 N   0  0  0  0  0  0  0  0  0  0  0  0
  149.4138  139.9551  154.4765 C   0  0  0  0  0  0  0  0  0  0  0  0
  150.5600  139.5917  154.2157 O   0  0  0  0  0  0  0  0  0  0  0  0
  149.9536  132.8802  154.8281 S   0  0  0  0  0  0  0  0  0  0  0  0
  151.7775  130.9337  157.4782 H   0  0  0  0  0  0  0  0  0  0  0  0
  151.6005  130.5424  155.7602 H   0  0  0  0  0  0  0  0  0  0  0  0
  150.2061  130.4111  156.8469 H   0  0  0  0  0  0  0  0  0  0  0  0
  149.3576  135.4467  153.7454 H   0  0  0  0  0  0  0  0  0  0  0  0
  148.6433  137.2103  153.2587 H   0  0  0  0  0  0  0  0  0  0  0  0
  147.6911  139.0414  155.2717 H   0  0  0  0  0  0  0  0  0  0  0  0
  147.4898  138.8277  152.2859 H   0  0  0  0  0  0  0  0  0  0  0  0
  146.2333  138.9687  153.4776 H   0  0  0  0  0  0  0  0  0  0  0  0
  148.0040  141.1796  152.3483 H   0  0  0  0  0  0  0  0  0  0  0  0
  146.3001  140.9791  152.1289 H   0  0  0  0  0  0  0  0  0  0  0  0
  146.8095  142.8082  153.6750 H   0  0  0  0  0  0  0  0  0  0  0  0
  145.8197  141.6053  154.4381 H   0  0  0  0  0  0  0  0  0  0  0  0
  147.9482  142.7189  155.6618 H   0  0  0  0  0  0  0  0  0  0  0  0
  147.4161  141.1154  156.0416 H   0  0  0  0  0  0  0  0  0  0  0  0
  149.9254  141.8508  154.9649 H   0  0  0  0  0  0  0  0  0  0  0  0
  1  2  1  0  0  0  0
  1 19  1  0  0  0  0
  1 20  1  0  0  0  0
  1 21  1  0  0  0  0
  2 18  1  0  0  0  0
  2  3  2  0  0  0  0
  3  4  1  0  0  0  0
  4  5  2  0  0  0  0
  5  6  1  0  0  0  0
  5 18  1  0  0  0  0
  6  7  1  0  0  0  0
  6 22  1  0  0  0  0
  7  8  2  0  0  0  0
  7  9  1  0  0  0  0
  9 10  1  0  0  0  0
  9 23  1  0  0  0  0
 10 16  1  0  0  0  0
 10 11  1  0  0  0  0
 10 24  1  0  0  0  0
 11 12  1  0  0  0  0
 11 25  1  0  0  0  0
 11 26  1  0  0  0  0
 12 13  1  0  0  0  0
 12 27  1  0  0  0  0
 12 28  1  0  0  0  0
 13 14  1  0  0  0  0
 13 29  1  0  0  0  0
 13 30  1  0  0  0  0
 14 15  1  0  0  0  0
 14 31  1  0  0  0  0
 14 32  1  0  0  0  0
 15 16  1  0  0  0  0
 15 33  1  0  0  0  0
 16 17  2  0  0  0  0
M  END
> <s_m_source_file>
AV-unprocessed.smi

> <i_m_source_file_index>
2033

> <i_lp_mmshare_version>
43012

> <i_f3d_flags>
0

> <s_epik_input>
W0NIM11jMW5uYyhzMSlbTkhdQyg9TylbTkhdW0NAQEhdMltDSDJdW0NIMl1bQ0gyXVtDSDJdW05IXUMyPU8=

> <s_epik_cmdline>
J2VwaWtfcHl0aG9uJywgJy1waCcsICc3LjAnLCAnLXRuJywgJzgnLCAnLW1hJywgJzIwMCcsICctbWV0YWxfYmluZGluZycsICctaW1hZScsICc8aW5maWxlLm1hZT4nLCAnLW9tYWUnLCAnPG91dGZpbGUubWFlPic=

> <r_lp_tautomer_probability>
1

> <r_epik_Ionization_Penalty>
0.00079266

> <r_epik_Ionization_Penalty_Charging>
0

> <r_epik_Ionization_Penalty_Neutral>
0.00079266

> <r_epik_State_Penalty>
-0

> <r_epik_Charging_Adjusted_Penalty>
0

> <i_epik_Tot_Q>
0

> <i_epik_Tot_abs_Q>
0

> <r_epik_Metal_State_Penalty>
0.265831

> <b_epik_Metal_Only>
0

> <s_lp_Force_Field>
OPLS_2005

> <r_lp_Energy>
13.3352

> <b_lp_Chiralities_Consistent>
1

> <s_lp_Variant>
AV-unprocessed.smi:2033-1

> <Gold.Version>
5.8.1

> <Gold.Id.Protein>
6NUR|6NUR_protein|mol2

> <Gold.PLP.Fitness>
36.7213

> <Gold.PLP.PLP>
-26.1826

> <Gold.PLP.part.hbond>
-4.0000

> <Gold.PLP.part.metal>
0.0000

> <Gold.PLP.part.buried>
-3.4198

> <Gold.PLP.part.nonpolar>
-18.5553

> <Gold.PLP.part.repulsive>
0.3639

> <Gold.PLP.ligand.clash>
0.0000

> <Gold.PLP.ligand.torsion>
0.3494

> <Gold.PLP.Chemscore.Hbond>
3.7287

> <Gold.PLP.Chemscore.CHOScore>
0.0000

> <Gold.PLP.Chemscore.Metal>
0.0000

> <Gold.Chemscore.Hbonds>
donor molecule, donor type, donor heavy atom, donor atom, acceptor molecule, acceptor atom, score
      L1  H     6    22       P1  7948  0.95
      L1  H     9    23       P1  7948  1.00
      P1  H  6896  6909       L1     3  0.77
      P1  H  7989  7998       L1    17  1.00

> <Gold.PLP.Chemscore.Internal.Correction>
0.0513

> <Gold.Rescore>
     Score         DG    S(hbond)    S(metal)    S(lipo)     H(rot)  DE(clash)    DE(int)     intcor
     16.64     -18.35       3.00        0.00      46.16       1.00       0.09       1.62       ----

> <Gold.Chemscore.Fitness>
16.6438

> <Gold.Chemscore.DG>
-18.3494

> <Gold.Chemscore.ZeroCoef>
-5.4800

> <Gold.Chemscore.Hbond>
3.0026

> <Gold.Chemscore.Metal>
0.0000

> <Gold.Chemscore.Lipo>
46.1591

> <Gold.Chemscore.Internal_Hbond>
0.0000

> <Gold.Chemscore.DEClash>
0.0863

> <Gold.Chemscore.DEInternal>
1.6193

> <Gold.Chemscore.Rot>
1.0000

> <Gold.Chemscore.Internal.Correction>
   9.000000E+99

> <Gold.Chemscore.Hbonds>
donor molecule, donor type, donor heavy atom, donor atom, acceptor molecule, acceptor atom, score
      L1  H     6    22       P1  7948  0.30
      L1  H     9    23       P1  7948  1.00
      P1  H  6896  6909       L1     3  0.56
      P1  H  7989  7998       L1    17  0.90

> <Gold.Chemscore.Hbond.Weighted>
-10.0287

> <Gold.Chemscore.Metal.Weighted>
-0.0000

> <Gold.Chemscore.Lipo.Weighted>
-5.4006

> <Gold.Chemscore.Internal_Hbond.Weighted>
0.0000

> <Gold.Chemscore.DEClash.Weighted>
0.0863

> <Gold.Chemscore.DEInternal.Weighted>
1.6193

> <Gold.Chemscore.Rot.Weighted>
2.5600

> <Gold.Chemscore.Internal.Correction.Weighted>
   9.000000E+99

> <Gold.Protein.RotatedTorsions>
[ 6907 6896 6895 6894 ] final  -28.43 input  -60.11 | X-H torsion
[ 7974 7965 7964 7962 ] final   78.63 input  175.53 | X-H torsion
[ 8008 7997 7996 7995 ] final  102.04 input   59.86 | X-H torsion
[ 10167 10162 10161 10158 ] final  -80.94 input  -65.29 | X-H torsion
[ 10718 10713 10712 10709 ] final   -4.30 input   66.30 | X-H torsion
[ 10763 10752 10751 10750 ] final -121.20 input  -60.55 | X-H torsion
[ 11005 11000 10999 10996 ] final -135.33 input  -57.11 | X-H torsion

> <Gold.Protein.ActiveResidues>
 VAL166  LYS551  ARG553  GLY616  TRP617  ASP618  TYR619  PRO620  LYS621  CYS622 
 ASP623  PHE694  ASN695  SER759  ASP760  ASP761  ALA762  ILE779  LEU786  VAL792 
 PHE793  MET794  SER795  GLU796  ALA797  LYS798  CYS799  TRP800  GLU811  SER814 

> <Gold.Protein.RotatedAtoms>
  151.1331  135.0140  159.8591 H   0  0  0  0  0  0  0  0  0  0  0  0  # atno 6907 bound_to 6896
  152.5451  134.1587  159.8559 H   0  0  0  0  0  0  0  0  0  0  0  0  # atno 6908 bound_to 6896
  151.1656  133.4772  159.2627 H   0  0  0  0  0  0  0  0  0  0  0  0  # atno 6909 bound_to 6896
  145.6746  139.2506  143.1848 H   0  0  0  0  0  0  0  0  0  0  0  0  # atno 7974 bound_to 7965
  156.1356  140.3188  155.8415 H   0  0  0  0  0  0  0  0  0  0  0  0  # atno 8008 bound_to 7997
  155.4251  140.0515  157.3040 H   0  0  0  0  0  0  0  0  0  0  0  0  # atno 8009 bound_to 7997
  154.4934  140.2101  155.9512 H   0  0  0  0  0  0  0  0  0  0  0  0  # atno 8010 bound_to 7997
  140.4458  143.2499  151.8561 H   0  0  0  0  0  0  0  0  0  0  0  0  # atno 10167 bound_to 10162
  156.7633  130.5276  149.5781 H   0  0  0  0  0  0  0  0  0  0  0  0  # atno 10718 bound_to 10713
  154.8662  135.4176  154.2581 H   0  0  0  0  0  0  0  0  0  0  0  0  # atno 10763 bound_to 10752
  153.3515  135.6999  153.6791 H   0  0  0  0  0  0  0  0  0  0  0  0  # atno 10764 bound_to 10752
  153.5728  135.3588  155.2817 H   0  0  0  0  0  0  0  0  0  0  0  0  # atno 10765 bound_to 10752
  140.8908  134.1814  157.4529 H   0  0  0  0  0  0  0  0  0  0  0  0  # atno 11005 bound_to 11000
  146.1016  140.7537  142.9546 LP  0  0  0  0  0  0  0  0  0  0  0  0  # atno 17320 bound_to 7965
  144.7045  140.3796  143.7129 LP  0  0  0  0  0  0  0  0  0  0  0  0  # atno 17321 bound_to 7965
  139.4792  144.5177  151.8844 LP  0  0  0  0  0  0  0  0  0  0  0  0  # atno 17342 bound_to 10162
  140.4266  144.2172  150.5887 LP  0  0  0  0  0  0  0  0  0  0  0  0  # atno 17343 bound_to 10162
  156.1325  130.6188  151.0353 LP  0  0  0  0  0  0  0  0  0  0  0  0  # atno 17370 bound_to 10713
  157.6724  131.0858  150.7578 LP  0  0  0  0  0  0  0  0  0  0  0  0  # atno 17371 bound_to 10713
  139.8729  134.9857  156.5295 LP  0  0  0  0  0  0  0  0  0  0  0  0  # atno 17394 bound_to 11000
  140.8349  133.8250  155.9019 LP  0  0  0  0  0  0  0  0  0  0  0  0  # atno 17395 bound_to 11000

$$$$
