AV-unprocessed.smi:712|AV-procd|sdf|3468|dock3
  -GOLD-   22720 0453D 1   1.00000     0.00000
 Structure written by MMmdl.
 51 52  0  0  0  0  0  0  0  0  2 V2000
  153.0240  142.8760  161.2430 C   0  0  0  0  0  0  0  0  0  0  0  0
  152.3459  142.6658  159.9050 C   0  0  0  0  0  0  0  0  0  0  0  0
  151.7445  143.7768  159.1972 C   0  0  0  0  0  0  0  0  0  0  0  0
  151.1541  143.5547  158.0128 C   0  0  0  0  0  0  0  0  0  0  0  0
  151.1010  142.2718  157.4379 N   0  0  0  0  0  0  0  0  0  0  0  0
  150.4254  142.1422  156.1363 C   0  0  0  0  0  0  0  0  0  0  0  0
  149.1010  141.3731  156.2305 C   0  0  0  0  0  0  0  0  0  0  0  0
  149.0952  140.1634  156.4614 O   0  0  0  0  0  0  0  0  0  0  0  0
  147.9838  142.0942  156.0529 N   0  0  0  0  0  0  0  0  0  0  0  0
  146.6295  141.5526  156.0327 C   0  0  0  0  0  0  0  0  0  0  0  0
  146.3085  140.8935  154.6786 C   0  0  2  0  0  0  0  0  0  0  0  0
  145.8924  139.4181  154.8390 C   0  0  0  0  0  0  0  0  0  0  0  0
  145.6386  138.8023  153.5125 N   0  3  2  0  0  0  0  0  0  0  0  0
  145.1762  137.3923  153.5838 C   0  0  0  0  0  0  0  0  0  0  0  0
  144.6278  136.8614  152.2411 C   0  0  0  0  0  0  0  0  0  0  0  0
  143.6968  135.6627  152.4759 C   0  0  0  0  0  0  0  0  0  0  0  0
  145.7570  136.4807  151.2686 C   0  0  0  0  0  0  0  0  0  0  0  0
  146.8205  138.9647  152.6333 C   0  0  0  0  0  0  0  0  0  0  0  0
  147.2249  140.4446  152.5450 C   0  0  0  0  0  0  0  0  0  0  0  0
  147.4677  140.9445  153.8525 O   0  0  0  0  0  0  0  0  0  0  0  0
  151.6431  141.1798  158.0574 C   0  0  0  0  0  0  0  0  0  0  0  0
  151.5907  140.0526  157.5632 O   0  0  0  0  0  0  0  0  0  0  0  0
  152.2887  141.4350  159.3500 C   0  0  0  0  0  0  0  0  0  0  0  0
  153.0440  143.9320  161.5134 H   0  0  0  0  0  0  0  0  0  0  0  0
  154.0522  142.5147  161.2096 H   0  0  0  0  0  0  0  0  0  0  0  0
  152.4932  142.3335  162.0258 H   0  0  0  0  0  0  0  0  0  0  0  0
  151.7656  144.7726  159.6151 H   0  0  0  0  0  0  0  0  0  0  0  0
  150.6822  144.3382  157.4380 H   0  0  0  0  0  0  0  0  0  0  0  0
  150.2177  143.1224  155.7050 H   0  0  0  0  0  0  0  0  0  0  0  0
  151.0911  141.6499  155.4246 H   0  0  0  0  0  0  0  0  0  0  0  0
  148.0822  143.0849  155.8837 H   0  0  0  0  0  0  0  0  0  0  0  0
  146.4774  140.8495  156.8535 H   0  0  0  0  0  0  0  0  0  0  0  0
  145.9455  142.3833  156.2083 H   0  0  0  0  0  0  0  0  0  0  0  0
  145.4974  141.4476  154.2014 H   0  0  0  0  0  0  0  0  0  0  0  0
  146.6731  138.8604  155.3587 H   0  0  0  0  0  0  0  0  0  0  0  0
  144.9974  139.3651  155.4575 H   0  0  0  0  0  0  0  0  0  0  0  0
  146.0096  136.7560  153.8864 H   0  0  0  0  0  0  0  0  0  0  0  0
  144.4245  137.3013  154.3695 H   0  0  0  0  0  0  0  0  0  0  0  0
  144.0248  137.6358  151.7680 H   0  0  0  0  0  0  0  0  0  0  0  0
  144.2271  134.8346  152.9474 H   0  0  0  0  0  0  0  0  0  0  0  0
  143.2797  135.2981  151.5367 H   0  0  0  0  0  0  0  0  0  0  0  0
  142.8609  135.9336  153.1214 H   0  0  0  0  0  0  0  0  0  0  0  0
  146.4017  135.7095  151.6912 H   0  0  0  0  0  0  0  0  0  0  0  0
  146.3813  137.3404  151.0248 H   0  0  0  0  0  0  0  0  0  0  0  0
  145.3541  136.0980  150.3304 H   0  0  0  0  0  0  0  0  0  0  0  0
  147.6502  138.3728  153.0232 H   0  0  0  0  0  0  0  0  0  0  0  0
  146.5969  138.5871  151.6349 H   0  0  0  0  0  0  0  0  0  0  0  0
  148.1330  140.5527  151.9515 H   0  0  0  0  0  0  0  0  0  0  0  0
  146.4502  141.0346  152.0526 H   0  0  0  0  0  0  0  0  0  0  0  0
  152.7347  140.6019  159.8740 H   0  0  0  0  0  0  0  0  0  0  0  0
  144.8919  139.3277  153.0801 H   0  0  0  0  0  0  0  0  0  0  0  0
  1  2  1  0  0  0  0
  1 24  1  0  0  0  0
  1 25  1  0  0  0  0
  1 26  1  0  0  0  0
  2 23  2  0  0  0  0
  2  3  1  0  0  0  0
  3  4  2  0  0  0  0
  3 27  1  0  0  0  0
  4  5  1  0  0  0  0
  4 28  1  0  0  0  0
  5  6  1  0  0  0  0
  5 21  1  0  0  0  0
  6  7  1  0  0  0  0
  6 29  1  0  0  0  0
  6 30  1  0  0  0  0
  7  8  2  0  0  0  0
  7  9  1  0  0  0  0
  9 10  1  0  0  0  0
  9 31  1  0  0  0  0
 10 11  1  0  0  0  0
 10 32  1  0  0  0  0
 10 33  1  0  0  0  0
 11 20  1  0  0  0  0
 11 12  1  0  0  0  0
 11 34  1  0  0  0  0
 12 13  1  0  0  0  0
 12 35  1  0  0  0  0
 12 36  1  0  0  0  0
 13 14  1  0  0  0  0
 13 18  1  0  0  0  0
 13 51  1  0  0  0  0
 14 15  1  0  0  0  0
 14 37  1  0  0  0  0
 14 38  1  0  0  0  0
 15 16  1  0  0  0  0
 15 17  1  0  0  0  0
 15 39  1  0  0  0  0
 16 40  1  0  0  0  0
 16 41  1  0  0  0  0
 16 42  1  0  0  0  0
 17 43  1  0  0  0  0
 17 44  1  0  0  0  0
 17 45  1  0  0  0  0
 18 19  1  0  0  0  0
 18 46  1  0  0  0  0
 18 47  1  0  0  0  0
 19 20  1  0  0  0  0
 19 48  1  0  0  0  0
 19 49  1  0  0  0  0
 21 22  2  0  0  0  0
 21 23  1  0  0  0  0
 23 50  1  0  0  0  0
M  CHG  1  13   1
M  END
> <s_m_source_file>
AV-unprocessed.smi

> <i_m_source_file_index>
712

> <i_lp_mmshare_version>
43012

> <i_f3d_flags>
0

> <s_epik_input>
W0NIM11jMVtjSF1bY0hdbihjKD1PKVtjSF0xKVtDSDJdQyg9TylbTkhdW0NIMl1bQ0BASF0yW0NIMl1OKFtDSDJdW0NIMl1PMilbQ0gyXVtDSF0oW0NIM10pW0NIM10=

> <s_epik_cmdline>
J2VwaWtfcHl0aG9uJywgJy1waCcsICc3LjAnLCAnLXRuJywgJzgnLCAnLW1hJywgJzIwMCcsICctbWV0YWxfYmluZGluZycsICctaW1hZScsICc8aW5maWxlLm1hZT4nLCAnLW9tYWUnLCAnPG91dGZpbGUubWFlPic=

> <r_lp_tautomer_probability>
1

> <r_epik_Ionization_Penalty>
0.0975935

> <r_epik_Ionization_Penalty_Charging>
0.0975934

> <r_epik_Ionization_Penalty_Neutral>
6.27044e-08

> <r_epik_State_Penalty>
0.0877056

> <r_epik_Charging_Adjusted_Penalty>
0.185299

> <i_epik_Tot_Q>
1

> <i_epik_Tot_abs_Q>
1

> <r_epik_Metal_State_Penalty>
0.0877109

> <b_epik_Metal_Only>
0

> <s_lp_Force_Field>
OPLS_2005

> <r_lp_Energy>
27.343

> <b_lp_Chiralities_Consistent>
1

> <s_lp_Variant>
AV-unprocessed.smi:712-1

> <Gold.Version>
5.8.1

> <Gold.Id.Protein>
6NUR|6NUR_protein|mol2

> <Gold.PLP.Fitness>
49.1413

> <Gold.PLP.PLP>
-39.6107

> <Gold.PLP.part.hbond>
-2.0000

> <Gold.PLP.part.metal>
0.0000

> <Gold.PLP.part.buried>
-4.0230

> <Gold.PLP.part.nonpolar>
-35.0117

> <Gold.PLP.part.repulsive>
0.2136

> <Gold.PLP.ligand.clash>
0.0000

> <Gold.PLP.ligand.torsion>
1.2877

> <Gold.PLP.Chemscore.Hbond>
3.0000

> <Gold.PLP.Chemscore.CHOScore>
0.9998

> <Gold.PLP.Chemscore.Metal>
0.0000

> <Gold.Chemscore.Hbonds>
donor molecule, donor type, donor heavy atom, donor atom, acceptor molecule, acceptor atom, score
      L1  H     9    31       P1  8028  1.00
      L1  H    13    51       P1 10175  2.00
      L1  C     4    28       P1  8028  1.00

> <Gold.PLP.Chemscore.Internal.Correction>
0.1066

> <Gold.Rescore>
     Score         DG    S(hbond)    S(metal)    S(lipo)     H(rot)  DE(clash)    DE(int)     intcor
     16.31     -19.42       1.95        0.00     104.70       1.89       1.40       1.71       ----

> <Gold.Chemscore.Fitness>
16.3080

> <Gold.Chemscore.DG>
-19.4245

> <Gold.Chemscore.ZeroCoef>
-5.4800

> <Gold.Chemscore.Hbond>
1.9537

> <Gold.Chemscore.Metal>
0.0000

> <Gold.Chemscore.Lipo>
104.7013

> <Gold.Chemscore.Internal_Hbond>
0.0000

> <Gold.Chemscore.DEClash>
1.4048

> <Gold.Chemscore.DEInternal>
1.7117

> <Gold.Chemscore.Rot>
1.8871

> <Gold.Chemscore.Internal.Correction>
   9.000000E+99

> <Gold.Chemscore.Hbonds>
donor molecule, donor type, donor heavy atom, donor atom, acceptor molecule, acceptor atom, score
      L1  H     9    31       P1  8028  0.70
      L1  H    13    51       P1 10175  1.00

> <Gold.Chemscore.Hbond.Weighted>
-6.5254

> <Gold.Chemscore.Metal.Weighted>
-0.0000

> <Gold.Chemscore.Lipo.Weighted>
-12.2500

> <Gold.Chemscore.Internal_Hbond.Weighted>
0.0000

> <Gold.Chemscore.DEClash.Weighted>
1.4048

> <Gold.Chemscore.DEInternal.Weighted>
1.7117

> <Gold.Chemscore.Rot.Weighted>
4.8309

> <Gold.Chemscore.Internal.Correction.Weighted>
   9.000000E+99

> <Gold.Protein.RotatedTorsions>
[ 6907 6896 6895 6894 ] final  -34.57 input  -60.11 | X-H torsion
[ 7974 7965 7964 7962 ] final  -81.38 input  175.53 | X-H torsion
[ 8008 7997 7996 7995 ] final   60.94 input   59.86 | X-H torsion
[ 10167 10162 10161 10158 ] final -121.60 input  -65.29 | X-H torsion
[ 10718 10713 10712 10709 ] final  153.27 input   66.30 | X-H torsion
[ 10763 10752 10751 10750 ] final  -58.89 input  -60.55 | X-H torsion
[ 11005 11000 10999 10996 ] final  111.20 input  -57.11 | X-H torsion

> <Gold.Protein.ActiveResidues>
 VAL166  LYS551  ARG553  GLY616  TRP617  ASP618  TYR619  PRO620  LYS621  CYS622 
 ASP623  PHE694  ASN695  SER759  ASP760  ASP761  ALA762  ILE779  LEU786  VAL792 
 PHE793  MET794  SER795  GLU796  ALA797  LYS798  CYS799  TRP800  GLU811  SER814 

> <Gold.Protein.RotatedAtoms>
  151.0509  134.9672  159.8210 H   0  0  0  0  0  0  0  0  0  0  0  0  # atno 6907 bound_to 6896
  152.5380  134.2538  159.8919 H   0  0  0  0  0  0  0  0  0  0  0  0  # atno 6908 bound_to 6896
  151.2554  133.4286  159.2647 H   0  0  0  0  0  0  0  0  0  0  0  0  # atno 6909 bound_to 6896
  145.5474  140.9501  143.1518 H   0  0  0  0  0  0  0  0  0  0  0  0  # atno 7974 bound_to 7965
  155.5904  140.3492  155.4565 H   0  0  0  0  0  0  0  0  0  0  0  0  # atno 8008 bound_to 7997
  156.0306  140.1273  157.0287 H   0  0  0  0  0  0  0  0  0  0  0  0  # atno 8009 bound_to 7997
  154.4350  140.1044  156.6080 H   0  0  0  0  0  0  0  0  0  0  0  0  # atno 8010 bound_to 7997
  140.0232  143.5323  152.2211 H   0  0  0  0  0  0  0  0  0  0  0  0  # atno 10167 bound_to 10162
  157.2469  131.0771  151.1755 H   0  0  0  0  0  0  0  0  0  0  0  0  # atno 10718 bound_to 10713
  154.2452  135.6336  153.5221 H   0  0  0  0  0  0  0  0  0  0  0  0  # atno 10763 bound_to 10752
  152.9922  135.5551  154.5867 H   0  0  0  0  0  0  0  0  0  0  0  0  # atno 10764 bound_to 10752
  154.5382  135.2893  155.1094 H   0  0  0  0  0  0  0  0  0  0  0  0  # atno 10765 bound_to 10752
  139.8898  134.9502  156.6395 H   0  0  0  0  0  0  0  0  0  0  0  0  # atno 11005 bound_to 11000
  144.7546  139.7106  143.7259 LP  0  0  0  0  0  0  0  0  0  0  0  0  # atno 17320 bound_to 7965
  146.1940  139.5196  142.9787 LP  0  0  0  0  0  0  0  0  0  0  0  0  # atno 17321 bound_to 7965
  139.6125  144.7612  151.2919 LP  0  0  0  0  0  0  0  0  0  0  0  0  # atno 17342 bound_to 10162
  140.7333  143.6797  150.8011 LP  0  0  0  0  0  0  0  0  0  0  0  0  # atno 17343 bound_to 10162
  157.3319  130.6989  149.6329 LP  0  0  0  0  0  0  0  0  0  0  0  0  # atno 17370 bound_to 10713
  155.9667  130.4305  150.4879 LP  0  0  0  0  0  0  0  0  0  0  0  0  # atno 17371 bound_to 10713
  140.7604  133.8822  155.8414 LP  0  0  0  0  0  0  0  0  0  0  0  0  # atno 17394 bound_to 11000
  140.9926  134.1258  157.4393 LP  0  0  0  0  0  0  0  0  0  0  0  0  # atno 17395 bound_to 11000

$$$$
