AV-unprocessed.smi:112|AV-procd|sdf|1090|dock1
  -GOLD-   2262018193D 1   1.00000     0.00000
 Structure written by MMmdl.
 54 57  0  0  0  0  0  0  0  0  3 V2000
  151.3045  144.1102  160.3323 C   0  0  0  0  0  0  0  0  0  0  0  0
  151.9323  142.8458  159.7676 C   0  0  0  0  0  0  0  0  0  0  0  0
  151.3821  142.1682  158.7341 C   0  0  0  0  0  0  0  0  0  0  0  0
  151.9255  141.0185  158.1933 N   0  0  0  0  0  0  0  0  0  0  0  0
  151.1940  140.3107  157.0708 C   0  0  1  0  0  0  0  0  0  0  0  0
  150.0048  139.4624  157.5447 C   0  0  0  0  0  0  0  0  0  0  0  0
  149.0305  139.6291  156.3951 C   0  0  2  0  0  0  0  0  0  0  0  0
  149.2812  138.6603  155.3933 O   0  0  0  0  0  0  0  0  0  0  0  0
  149.3284  141.0591  155.9157 C   0  0  2  0  0  0  0  0  0  0  0  0
  148.9770  141.3968  154.4561 C   0  0  0  0  0  0  0  0  0  0  0  0
  149.7570  140.6228  153.5693 O   0  0  0  0  0  0  0  0  0  0  0  0
  150.7179  141.2629  156.1654 O   0  0  0  0  0  0  0  0  0  0  0  0
  153.0999  140.4738  158.7589 C   0  0  0  0  0  0  0  0  0  0  0  0
  153.5788  139.4179  158.3418 O   0  0  0  0  0  0  0  0  0  0  0  0
  153.7097  141.1670  159.8292 N   0  0  0  0  0  0  0  0  0  0  0  0
  154.9420  140.6051  160.4285 C   0  0  0  0  0  0  0  0  0  0  0  0
  154.6768  139.6246  161.5928 C   0  0  0  0  0  0  0  0  0  0  0  0
  154.3416  140.0780  162.6876 O   0  0  0  0  0  0  0  0  0  0  0  0
  154.8272  138.2983  161.3517 N   0  0  0  0  0  0  0  0  0  0  0  0
  155.2399  137.7510  160.0476 C   0  0  0  0  0  0  0  0  0  0  0  0
  155.2988  136.2175  160.2197 C   0  0  0  0  0  0  0  0  0  0  0  0
  154.8826  136.0201  161.6475 C   0  0  0  0  0  0  0  0  0  0  0  0
  154.7551  134.7943  162.3222 C   0  0  0  0  0  0  0  0  0  0  0  0
  154.3462  134.7990  163.6791 C   0  0  0  0  0  0  0  0  0  0  0  0
  154.2020  133.5305  164.4203 N   0  3  0  0  0  0  0  0  0  0  0  0
  154.5546  132.4921  163.8704 O   0  0  0  0  0  0  0  0  0  0  0  0
  153.7351  133.5702  165.5541 O   0  5  0  0  0  0  0  0  0  0  0  0
  154.0777  136.0405  164.3147 C   0  0  0  0  0  0  0  0  0  0  0  0
  154.2114  137.2633  163.6214 C   0  0  0  0  0  0  0  0  0  0  0  0
  154.6204  137.2349  162.2702 C   0  0  0  0  0  0  0  0  0  0  0  0
  153.1695  142.3556  160.3783 C   0  0  0  0  0  0  0  0  0  0  0  0
  153.7234  142.9190  161.3244 O   0  0  0  0  0  0  0  0  0  0  0  0
  150.3890  144.3799  159.8051 H   0  0  0  0  0  0  0  0  0  0  0  0
  151.9964  144.9491  160.2494 H   0  0  0  0  0  0  0  0  0  0  0  0
  151.0549  143.9742  161.3851 H   0  0  0  0  0  0  0  0  0  0  0  0
  150.4665  142.5535  158.3083 H   0  0  0  0  0  0  0  0  0  0  0  0
  151.9372  139.7038  156.5529 H   0  0  0  0  0  0  0  0  0  0  0  0
  150.3058  138.4310  157.7317 H   0  0  0  0  0  0  0  0  0  0  0  0
  149.5749  139.8631  158.4614 H   0  0  0  0  0  0  0  0  0  0  0  0
  147.9964  139.5218  156.7237 H   0  0  0  0  0  0  0  0  0  0  0  0
  148.8621  138.9377  154.5930 H   0  0  0  0  0  0  0  0  0  0  0  0
  148.7966  141.7529  156.5683 H   0  0  0  0  0  0  0  0  0  0  0  0
  147.9276  141.1687  154.2686 H   0  0  0  0  0  0  0  0  0  0  0  0
  149.1114  142.4571  154.2422 H   0  0  0  0  0  0  0  0  0  0  0  0
  149.3102  140.5714  152.7384 H   0  0  0  0  0  0  0  0  0  0  0  0
  155.5358  140.0962  159.6681 H   0  0  0  0  0  0  0  0  0  0  0  0
  155.5919  141.4076  160.7794 H   0  0  0  0  0  0  0  0  0  0  0  0
  154.5187  138.0178  159.2740 H   0  0  0  0  0  0  0  0  0  0  0  0
  156.2171  138.1366  159.7537 H   0  0  0  0  0  0  0  0  0  0  0  0
  154.6121  135.7049  159.5454 H   0  0  0  0  0  0  0  0  0  0  0  0
  156.3054  135.8295  160.0611 H   0  0  0  0  0  0  0  0  0  0  0  0
  154.9679  133.8721  161.8018 H   0  0  0  0  0  0  0  0  0  0  0  0
  153.7641  136.0671  165.3478 H   0  0  0  0  0  0  0  0  0  0  0  0
  153.9965  138.1831  164.1417 H   0  0  0  0  0  0  0  0  0  0  0  0
  1  2  1  0  0  0  0
  1 33  1  0  0  0  0
  1 34  1  0  0  0  0
  1 35  1  0  0  0  0
  2 31  1  0  0  0  0
  2  3  2  0  0  0  0
  3  4  1  0  0  0  0
  3 36  1  0  0  0  0
  4  5  1  0  0  0  0
  4 13  1  0  0  0  0
  5 12  1  0  0  0  0
  5  6  1  0  0  0  0
  5 37  1  0  0  0  0
  6  7  1  0  0  0  0
  6 38  1  0  0  0  0
  6 39  1  0  0  0  0
  7  8  1  0  0  0  0
  7  9  1  0  0  0  0
  7 40  1  0  0  0  0
  8 41  1  0  0  0  0
  9 10  1  0  0  0  0
  9 12  1  0  0  0  0
  9 42  1  0  0  0  0
 10 11  1  0  0  0  0
 10 43  1  0  0  0  0
 10 44  1  0  0  0  0
 11 45  1  0  0  0  0
 13 14  2  0  0  0  0
 13 15  1  0  0  0  0
 15 16  1  0  0  0  0
 15 31  1  0  0  0  0
 16 17  1  0  0  0  0
 16 46  1  0  0  0  0
 16 47  1  0  0  0  0
 17 18  2  0  0  0  0
 17 19  1  0  0  0  0
 19 30  1  0  0  0  0
 19 20  1  0  0  0  0
 20 21  1  0  0  0  0
 20 48  1  0  0  0  0
 20 49  1  0  0  0  0
 21 22  1  0  0  0  0
 21 50  1  0  0  0  0
 21 51  1  0  0  0  0
 22 30  2  0  0  0  0
 22 23  1  0  0  0  0
 23 24  2  0  0  0  0
 23 52  1  0  0  0  0
 24 25  1  0  0  0  0
 24 28  1  0  0  0  0
 25 26  2  0  0  0  0
 25 27  1  0  0  0  0
 28 29  2  0  0  0  0
 28 53  1  0  0  0  0
 29 30  1  0  0  0  0
 29 54  1  0  0  0  0
 31 32  2  0  0  0  0
M  CHG  1  25   1
M  CHG  1  27  -1
M  END
> <s_m_source_file>
AV-unprocessed.smi

> <i_m_source_file_index>
112

> <i_lp_mmshare_version>
43012

> <i_f3d_flags>
0

> <s_epik_input>
W09IXVtDSDJdW0NAQEhdKE8xKVtDQEhdKFtPSF0pW0NIMl1bQ0BIXTFuKFtjSF1jMltDSDNdKWMoPU8pbihjMj1PKVtDSDJdQyg9TylOKFtDSDJdW0NIMl0zKWMoYzM0KVtjSF1bY0hdYyhbY0hdNClbTitdKD1PKVtPLV0=

> <s_epik_cmdline>
J2VwaWtfcHl0aG9uJywgJy1waCcsICc3LjAnLCAnLXRuJywgJzgnLCAnLW1hJywgJzIwMCcsICctbWV0YWxfYmluZGluZycsICctaW1hZScsICc8aW5maWxlLm1hZT4nLCAnLW9tYWUnLCAnPG91dGZpbGUubWFlPic=

> <r_lp_tautomer_probability>
1

> <r_epik_Ionization_Penalty>
2.5696e-07

> <r_epik_Ionization_Penalty_Charging>
1.04886e-08

> <r_epik_Ionization_Penalty_Neutral>
2.46472e-07

> <r_epik_State_Penalty>
-0

> <r_epik_Charging_Adjusted_Penalty>
1.04886e-08

> <i_epik_Tot_Q>
0

> <i_epik_Tot_abs_Q>
2

> <r_epik_Metal_State_Penalty>
-0

> <b_epik_Metal_Only>
0

> <s_epik_Chemistry_Notes>
This compound contains an acetal/aminal-like group ( X-CH(R)-Y where X, Y are N, S, or O) that may be acid/base labile, releasing an aldehyde.

> <s_lp_Force_Field>
OPLS_2005

> <r_lp_Energy>
55.491

> <b_lp_Chiralities_Consistent>
1

> <s_lp_Variant>
AV-unprocessed.smi:112-8

> <Gold.Version>
5.8.1

> <Gold.Id.Protein>
6NUR|6NUR_protein|mol2

> <Gold.PLP.Fitness>
52.3931

> <Gold.PLP.PLP>
-47.7710

> <Gold.PLP.part.hbond>
-3.7716

> <Gold.PLP.part.metal>
0.0000

> <Gold.PLP.part.buried>
1.0932

> <Gold.PLP.part.nonpolar>
-43.8236

> <Gold.PLP.part.repulsive>
0.1889

> <Gold.PLP.ligand.clash>
0.0000

> <Gold.PLP.ligand.torsion>
1.1555

> <Gold.PLP.Chemscore.Hbond>
2.2800

> <Gold.PLP.Chemscore.CHOScore>
0.0000

> <Gold.PLP.Chemscore.Metal>
0.0000

> <Gold.Chemscore.Hbonds>
donor molecule, donor type, donor heavy atom, donor atom, acceptor molecule, acceptor atom, score
      L1  H    11    45       P1  7957  0.78
      P1  H  7989  7998       L1    11  0.45
      P1  H  7997  8008       L1    14  1.00

> <Gold.PLP.Chemscore.Internal.Correction>
0.0932

> <Gold.Rescore>
     Score         DG    S(hbond)    S(metal)    S(lipo)     H(rot)  DE(clash)    DE(int)     intcor
     11.08     -14.64       1.92        0.00      95.45       3.29       1.60       1.96       ----

> <Gold.Chemscore.Fitness>
11.0800

> <Gold.Chemscore.DG>
-14.6415

> <Gold.Chemscore.ZeroCoef>
-5.4800

> <Gold.Chemscore.Hbond>
1.9223

> <Gold.Chemscore.Metal>
0.0000

> <Gold.Chemscore.Lipo>
95.4498

> <Gold.Chemscore.Internal_Hbond>
0.0000

> <Gold.Chemscore.DEClash>
1.6028

> <Gold.Chemscore.DEInternal>
1.9587

> <Gold.Chemscore.Rot>
3.2916

> <Gold.Chemscore.Internal.Correction>
   9.000000E+99

> <Gold.Chemscore.Hbonds>
donor molecule, donor type, donor heavy atom, donor atom, acceptor molecule, acceptor atom, score
      L1  H    11    45       P1  7957  0.78
      P1  H  7989  7998       L1    11  0.41
      P1  H  7997  8008       L1    14  0.33

> <Gold.Chemscore.Hbond.Weighted>
-6.4204

> <Gold.Chemscore.Metal.Weighted>
-0.0000

> <Gold.Chemscore.Lipo.Weighted>
-11.1676

> <Gold.Chemscore.Internal_Hbond.Weighted>
0.0000

> <Gold.Chemscore.DEClash.Weighted>
1.6028

> <Gold.Chemscore.DEInternal.Weighted>
1.9587

> <Gold.Chemscore.Rot.Weighted>
8.4265

> <Gold.Chemscore.Internal.Correction.Weighted>
   9.000000E+99

> <Gold.Protein.RotatedTorsions>
[ 6907 6896 6895 6894 ] final -115.57 input  -60.11 | X-H torsion
[ 7974 7965 7964 7962 ] final   54.74 input  175.53 | X-H torsion
[ 8008 7997 7996 7995 ] final -111.46 input   59.86 | X-H torsion
[ 10167 10162 10161 10158 ] final   72.37 input  -65.29 | X-H torsion
[ 10718 10713 10712 10709 ] final  -68.27 input   66.30 | X-H torsion
[ 10763 10752 10751 10750 ] final -115.01 input  -60.55 | X-H torsion
[ 11005 11000 10999 10996 ] final  -20.44 input  -57.11 | X-H torsion

> <Gold.Protein.ActiveResidues>
 VAL166  LYS551  ARG553  GLY616  TRP617  ASP618  TYR619  PRO620  LYS621  CYS622 
 ASP623  PHE694  ASN695  SER759  ASP760  ASP761  ALA762  ILE779  LEU786  VAL792 
 PHE793  MET794  SER795  GLU796  ALA797  LYS798  CYS799  TRP800  GLU811  SER814 

> <Gold.Protein.RotatedAtoms>
  150.7988  133.8640  159.3239 H   0  0  0  0  0  0  0  0  0  0  0  0  # atno 6907 bound_to 6896
  151.6458  135.1005  160.0160 H   0  0  0  0  0  0  0  0  0  0  0  0  # atno 6908 bound_to 6896
  152.4073  133.6869  159.6402 H   0  0  0  0  0  0  0  0  0  0  0  0  # atno 6909 bound_to 6896
  145.9577  139.4030  143.0267 H   0  0  0  0  0  0  0  0  0  0  0  0  # atno 7974 bound_to 7965
  154.9902  140.0395  157.2316 H   0  0  0  0  0  0  0  0  0  0  0  0  # atno 8008 bound_to 7997
  154.7635  140.2789  155.6172 H   0  0  0  0  0  0  0  0  0  0  0  0  # atno 8009 bound_to 7997
  156.2908  140.2624  156.2420 H   0  0  0  0  0  0  0  0  0  0  0  0  # atno 8010 bound_to 7997
  140.0360  144.5427  150.7470 H   0  0  0  0  0  0  0  0  0  0  0  0  # atno 10167 bound_to 10162
  156.0514  130.4292  150.1976 H   0  0  0  0  0  0  0  0  0  0  0  0  # atno 10718 bound_to 10713
  154.8464  135.4397  154.1595 H   0  0  0  0  0  0  0  0  0  0  0  0  # atno 10763 bound_to 10752
  153.2735  135.6947  153.7462 H   0  0  0  0  0  0  0  0  0  0  0  0  # atno 10764 bound_to 10752
  153.6693  135.3421  155.3124 H   0  0  0  0  0  0  0  0  0  0  0  0  # atno 10765 bound_to 10752
  140.8464  133.7888  155.9917 H   0  0  0  0  0  0  0  0  0  0  0  0  # atno 11005 bound_to 11000
  145.8083  140.9738  143.0962 LP  0  0  0  0  0  0  0  0  0  0  0  0  # atno 17320 bound_to 7965
  144.6808  139.9889  143.7484 LP  0  0  0  0  0  0  0  0  0  0  0  0  # atno 17321 bound_to 7965
  140.7281  143.2658  151.4049 LP  0  0  0  0  0  0  0  0  0  0  0  0  # atno 17342 bound_to 10162
  139.6045  144.1227  152.2234 LP  0  0  0  0  0  0  0  0  0  0  0  0  # atno 17343 bound_to 10162
  157.0059  130.9936  151.3379 LP  0  0  0  0  0  0  0  0  0  0  0  0  # atno 17370 bound_to 10713
  157.5443  130.8140  149.8067 LP  0  0  0  0  0  0  0  0  0  0  0  0  # atno 17371 bound_to 10713
  140.8838  134.2578  157.5130 LP  0  0  0  0  0  0  0  0  0  0  0  0  # atno 17394 bound_to 11000
  139.8703  134.9628  156.4441 LP  0  0  0  0  0  0  0  0  0  0  0  0  # atno 17395 bound_to 11000

$$$$
