AV-unprocessed.smi:2794|AV-procd|sdf|10776|dock3
  -GOLD-   2272015213D 1   1.00000     0.00000
 Structure written by MMmdl.
 34 35  0  0  0  0  0  0  0  0  1 V2000
  151.3249  137.6978  154.0763 C   0  0  0  0  0  0  0  0  0  0  0  0
  150.2700  138.7723  154.2361 C   0  0  0  0  0  0  0  0  0  0  0  0
  148.9896  138.6221  153.6687 C   0  0  0  0  0  0  0  0  0  0  0  0
  148.0561  139.6570  153.8570 C   0  0  0  0  0  0  0  0  0  0  0  0
  148.4386  140.7905  154.5999 C   0  0  0  0  0  0  0  0  0  0  0  0
  149.7443  140.8627  155.1348 C   0  0  0  0  0  0  0  0  0  0  0  0
  150.0294  142.0464  155.8649 N   0  0  0  0  0  0  0  0  0  0  0  0
  151.0028  142.2566  156.7737 C   0  0  0  0  0  0  0  0  0  0  0  0
  151.8227  141.4122  157.1303 O   0  0  0  0  0  0  0  0  0  0  0  0
  151.0267  143.5042  157.2794 N   0  0  0  0  0  0  0  0  0  0  0  0
  151.9393  144.0707  158.2752 C   0  0  2  0  0  0  0  0  0  0  0  0
  152.3355  143.0217  159.3074 C   0  0  0  0  0  0  0  0  0  0  0  0
  152.3749  143.2531  160.6306 C   0  0  0  0  0  0  0  0  0  0  0  0
  152.0398  144.5939  161.2564 C   0  0  0  0  0  0  0  0  0  0  0  0
  152.0107  145.7274  160.2161 C   0  0  0  0  0  0  0  0  0  0  0  0
  151.2798  145.3016  158.9337 C   0  0  0  0  0  0  0  0  0  0  0  0
  150.6374  139.8594  154.9479 N   0  0  0  0  0  0  0  0  0  0  0  0
  150.9735  136.8905  153.4335 H   0  0  0  0  0  0  0  0  0  0  0  0
  151.5817  137.2735  155.0474 H   0  0  0  0  0  0  0  0  0  0  0  0
  152.2293  138.1158  153.6335 H   0  0  0  0  0  0  0  0  0  0  0  0
  148.7269  137.7392  153.1048 H   0  0  0  0  0  0  0  0  0  0  0  0
  147.0630  139.5836  153.4390 H   0  0  0  0  0  0  0  0  0  0  0  0
  147.7337  141.5947  154.7536 H   0  0  0  0  0  0  0  0  0  0  0  0
  149.4300  142.8336  155.6662 H   0  0  0  0  0  0  0  0  0  0  0  0
  150.3365  144.1434  156.9121 H   0  0  0  0  0  0  0  0  0  0  0  0
  152.8563  144.4031  157.7859 H   0  0  0  0  0  0  0  0  0  0  0  0
  152.5968  142.0415  158.9360 H   0  0  0  0  0  0  0  0  0  0  0  0
  152.6456  142.4550  161.3063 H   0  0  0  0  0  0  0  0  0  0  0  0
  151.0697  144.5049  161.7462 H   0  0  0  0  0  0  0  0  0  0  0  0
  152.7697  144.8220  162.0334 H   0  0  0  0  0  0  0  0  0  0  0  0
  151.5402  146.6127  160.6447 H   0  0  0  0  0  0  0  0  0  0  0  0
  153.0325  146.0139  159.9636 H   0  0  0  0  0  0  0  0  0  0  0  0
  151.2487  146.1308  158.2260 H   0  0  0  0  0  0  0  0  0  0  0  0
  150.2423  145.0759  159.1861 H   0  0  0  0  0  0  0  0  0  0  0  0
  1  2  1  0  0  0  0
  1 18  1  0  0  0  0
  1 19  1  0  0  0  0
  1 20  1  0  0  0  0
  2 17  1  0  0  0  0
  2  3  2  0  0  0  0
  3  4  1  0  0  0  0
  3 21  1  0  0  0  0
  4  5  2  0  0  0  0
  4 22  1  0  0  0  0
  5  6  1  0  0  0  0
  5 23  1  0  0  0  0
  6  7  1  0  0  0  0
  6 17  2  0  0  0  0
  7  8  1  0  0  0  0
  7 24  1  0  0  0  0
  8  9  2  0  0  0  0
  8 10  1  0  0  0  0
 10 11  1  0  0  0  0
 10 25  1  0  0  0  0
 11 16  1  0  0  0  0
 11 12  1  0  0  0  0
 11 26  1  0  0  0  0
 12 13  2  0  0  0  0
 12 27  1  0  0  0  0
 13 14  1  0  0  0  0
 13 28  1  0  0  0  0
 14 15  1  0  0  0  0
 14 29  1  0  0  0  0
 14 30  1  0  0  0  0
 15 16  1  0  0  0  0
 15 31  1  0  0  0  0
 15 32  1  0  0  0  0
 16 33  1  0  0  0  0
 16 34  1  0  0  0  0
M  END
> <s_m_source_file>
AV-unprocessed.smi

> <i_m_source_file_index>
2794

> <i_lp_mmshare_version>
43012

> <i_f3d_flags>
0

> <s_epik_input>
W0NIM11jMVtjSF1bY0hdW2NIXWMobjEpW05IXUMoPU8pW05IXVtDQEBIXTJbQ0hdPVtDSF1bQ0gyXVtDSDJdW0NIMl0y

> <s_epik_cmdline>
J2VwaWtfcHl0aG9uJywgJy1waCcsICc3LjAnLCAnLXRuJywgJzgnLCAnLW1hJywgJzIwMCcsICctbWV0YWxfYmluZGluZycsICctaW1hZScsICc8aW5maWxlLm1hZT4nLCAnLW9tYWUnLCAnPG91dGZpbGUubWFlPic=

> <r_lp_tautomer_probability>
1

> <r_epik_Ionization_Penalty>
8.4544e-05

> <r_epik_Ionization_Penalty_Charging>
0

> <r_epik_Ionization_Penalty_Neutral>
8.4544e-05

> <r_epik_State_Penalty>
-0

> <r_epik_Charging_Adjusted_Penalty>
0

> <i_epik_Tot_Q>
0

> <i_epik_Tot_abs_Q>
0

> <r_epik_Metal_State_Penalty>
-0

> <b_epik_Metal_Only>
0

> <s_lp_Force_Field>
OPLS_2005

> <r_lp_Energy>
18.5134

> <b_lp_Chiralities_Consistent>
1

> <s_lp_Variant>
AV-unprocessed.smi:2794-1

> <Gold.Version>
5.8.1

> <Gold.Id.Protein>
6NUR|6NUR_protein|mol2

> <Gold.PLP.Fitness>
45.5057

> <Gold.PLP.PLP>
-38.5265

> <Gold.PLP.part.hbond>
-2.9703

> <Gold.PLP.part.metal>
0.0000

> <Gold.PLP.part.buried>
2.6888

> <Gold.PLP.part.nonpolar>
-38.1046

> <Gold.PLP.part.repulsive>
0.2013

> <Gold.PLP.ligand.clash>
0.0000

> <Gold.PLP.ligand.torsion>
0.4171

> <Gold.PLP.Chemscore.Hbond>
2.6021

> <Gold.PLP.Chemscore.CHOScore>
0.0000

> <Gold.PLP.Chemscore.Metal>
0.0000

> <Gold.Chemscore.Hbonds>
donor molecule, donor type, donor heavy atom, donor atom, acceptor molecule, acceptor atom, score
      L1  H     7    24       P1  8028  1.00
      L1  H    10    25       P1  8028  1.00
      P1  H  7989  7998       L1    17  0.62

> <Gold.PLP.Chemscore.Internal.Correction>
0.0071

> <Gold.Rescore>
     Score         DG    S(hbond)    S(metal)    S(lipo)     H(rot)  DE(clash)    DE(int)     intcor
     17.26     -22.01       1.89        0.00     109.21       1.00       1.73       3.03       ----

> <Gold.Chemscore.Fitness>
17.2574

> <Gold.Chemscore.DG>
-22.0107

> <Gold.Chemscore.ZeroCoef>
-5.4800

> <Gold.Chemscore.Hbond>
1.8901

> <Gold.Chemscore.Metal>
0.0000

> <Gold.Chemscore.Lipo>
109.2117

> <Gold.Chemscore.Internal_Hbond>
0.0000

> <Gold.Chemscore.DEClash>
1.7254

> <Gold.Chemscore.DEInternal>
3.0279

> <Gold.Chemscore.Rot>
1.0000

> <Gold.Chemscore.Internal.Correction>
   9.000000E+99

> <Gold.Chemscore.Hbonds>
donor molecule, donor type, donor heavy atom, donor atom, acceptor molecule, acceptor atom, score
      L1  H     7    24       P1  8028  0.97
      L1  H    10    25       P1  8028  0.93
      P1  H  7989  7998       L1    17  0.01

> <Gold.Chemscore.Hbond.Weighted>
-6.3129

> <Gold.Chemscore.Metal.Weighted>
-0.0000

> <Gold.Chemscore.Lipo.Weighted>
-12.7778

> <Gold.Chemscore.Internal_Hbond.Weighted>
0.0000

> <Gold.Chemscore.DEClash.Weighted>
1.7254

> <Gold.Chemscore.DEInternal.Weighted>
3.0279

> <Gold.Chemscore.Rot.Weighted>
2.5600

> <Gold.Chemscore.Internal.Correction.Weighted>
   9.000000E+99

> <Gold.Protein.RotatedTorsions>
[ 6907 6896 6895 6894 ] final  -13.70 input  -60.11 | X-H torsion
[ 7974 7965 7964 7962 ] final  119.30 input  175.53 | X-H torsion
[ 8008 7997 7996 7995 ] final  -19.66 input   59.86 | X-H torsion
[ 10167 10162 10161 10158 ] final   -1.56 input  -65.29 | X-H torsion
[ 10718 10713 10712 10709 ] final   25.40 input   66.30 | X-H torsion
[ 10763 10752 10751 10750 ] final   62.38 input  -60.55 | X-H torsion
[ 11005 11000 10999 10996 ] final  169.93 input  -57.11 | X-H torsion

> <Gold.Protein.ActiveResidues>
 VAL166  LYS551  ARG553  GLY616  TRP617  ASP618  TYR619  PRO620  LYS621  CYS622 
 ASP623  PHE694  ASN695  SER759  ASP760  ASP761  ALA762  ILE779  LEU786  VAL792 
 PHE793  MET794  SER795  GLU796  ALA797  LYS798  CYS799  TRP800  GLU811  SER814 

> <Gold.Protein.RotatedAtoms>
  151.3509  135.0884  159.9402 H   0  0  0  0  0  0  0  0  0  0  0  0  # atno 6907 bound_to 6896
  152.5187  133.9354  159.7611 H   0  0  0  0  0  0  0  0  0  0  0  0  # atno 6908 bound_to 6896
  150.9729  133.6271  159.2764 H   0  0  0  0  0  0  0  0  0  0  0  0  # atno 6909 bound_to 6896
  145.1448  139.3246  143.4597 H   0  0  0  0  0  0  0  0  0  0  0  0  # atno 7974 bound_to 7965
  154.4822  140.2083  155.9738 H   0  0  0  0  0  0  0  0  0  0  0  0  # atno 8008 bound_to 7997
  156.1182  140.3218  155.8139 H   0  0  0  0  0  0  0  0  0  0  0  0  # atno 8009 bound_to 7997
  155.4515  140.0517  157.2991 H   0  0  0  0  0  0  0  0  0  0  0  0  # atno 8010 bound_to 7997
  140.6815  143.6761  150.8144 H   0  0  0  0  0  0  0  0  0  0  0  0  # atno 10167 bound_to 10162
  157.1928  130.6854  149.6157 H   0  0  0  0  0  0  0  0  0  0  0  0  # atno 10718 bound_to 10713
  152.9981  135.5467  154.6184 H   0  0  0  0  0  0  0  0  0  0  0  0  # atno 10763 bound_to 10752
  154.5489  135.2825  155.1029 H   0  0  0  0  0  0  0  0  0  0  0  0  # atno 10764 bound_to 10752
  154.2277  135.6439  153.5217 H   0  0  0  0  0  0  0  0  0  0  0  0  # atno 10765 bound_to 10752
  140.3030  134.7580  157.3931 H   0  0  0  0  0  0  0  0  0  0  0  0  # atno 11005 bound_to 11000
  146.3501  140.1499  142.8592 LP  0  0  0  0  0  0  0  0  0  0  0  0  # atno 17320 bound_to 7965
  145.0493  140.9005  143.5005 LP  0  0  0  0  0  0  0  0  0  0  0  0  # atno 17321 bound_to 7965
  140.0462  143.5296  152.2695 LP  0  0  0  0  0  0  0  0  0  0  0  0  # atno 17342 bound_to 10162
  139.6141  144.7615  151.2885 LP  0  0  0  0  0  0  0  0  0  0  0  0  # atno 17343 bound_to 10162
  155.9709  130.4609  150.6089 LP  0  0  0  0  0  0  0  0  0  0  0  0  # atno 17370 bound_to 10713
  157.3844  131.0786  151.1449 LP  0  0  0  0  0  0  0  0  0  0  0  0  # atno 17371 bound_to 10713
  140.1092  134.5368  155.8281 LP  0  0  0  0  0  0  0  0  0  0  0  0  # atno 17394 bound_to 11000
  141.2124  133.6719  156.6657 LP  0  0  0  0  0  0  0  0  0  0  0  0  # atno 17395 bound_to 11000

$$$$
