AV-unprocessed.smi:2360|AV-procd|sdf|9410|dock7
  -GOLD-   2272013 43D 1   1.00000     0.00000
 Structure written by MMmdl.
 34 35  0  0  0  0  0  0  0  0  1 V2000
  152.1569  144.9379  160.4310 C   0  0  0  0  0  0  0  0  0  0  0  0
  151.8659  143.6826  159.6278 C   0  0  0  0  0  0  0  0  0  0  0  0
  150.7957  143.7729  158.7333 N   0  0  0  0  0  0  0  0  0  0  0  0
  150.4761  142.7529  158.0063 C   0  0  0  0  0  0  0  0  0  0  0  0
  151.1773  141.5379  158.0880 N   0  0  0  0  0  0  0  0  0  0  0  0
  150.7182  140.4571  157.1978 C   0  0  0  0  0  0  0  0  0  0  0  0
  150.4515  140.9556  155.7591 C   0  0  1  0  0  0  0  0  0  0  0  0
  150.8541  139.9572  154.8431 O   0  0  0  0  0  0  0  0  0  0  0  0
  148.9852  141.3126  155.5680 C   0  0  0  0  0  0  0  0  0  0  0  0
  148.4656  141.5496  154.2760 C   0  0  0  0  0  0  0  0  0  0  0  0
  147.1054  141.8725  154.1057 C   0  0  0  0  0  0  0  0  0  0  0  0
  146.2559  141.9591  155.2253 C   0  0  0  0  0  0  0  0  0  0  0  0
  144.9481  142.2691  155.0601 F   0  0  0  0  0  0  0  0  0  0  0  0
  146.7678  141.7219  156.5159 C   0  0  0  0  0  0  0  0  0  0  0  0
  145.9530  141.8037  157.5946 F   0  0  0  0  0  0  0  0  0  0  0  0
  148.1282  141.3983  156.6862 C   0  0  0  0  0  0  0  0  0  0  0  0
  152.2328  141.3646  158.9351 C   0  0  0  0  0  0  0  0  0  0  0  0
  152.8425  140.2957  159.0019 O   0  0  0  0  0  0  0  0  0  0  0  0
  152.5869  142.5353  159.7542 C   0  0  0  0  0  0  0  0  0  0  0  0
  153.7628  142.3795  160.7105 C   0  0  0  0  0  0  0  0  0  0  0  0
  153.1665  145.2956  160.2283 H   0  0  0  0  0  0  0  0  0  0  0  0
  152.0649  144.7378  161.4987 H   0  0  0  0  0  0  0  0  0  0  0  0
  151.4621  145.7402  160.1803 H   0  0  0  0  0  0  0  0  0  0  0  0
  149.6541  142.7726  157.2885 H   0  0  0  0  0  0  0  0  0  0  0  0
  151.4053  139.6088  157.1919 H   0  0  0  0  0  0  0  0  0  0  0  0
  149.7934  140.0458  157.6082 H   0  0  0  0  0  0  0  0  0  0  0  0
  151.0483  141.8460  155.5571 H   0  0  0  0  0  0  0  0  0  0  0  0
  150.0984  139.4394  154.6117 H   0  0  0  0  0  0  0  0  0  0  0  0
  149.1093  141.4822  153.4111 H   0  0  0  0  0  0  0  0  0  0  0  0
  146.7136  142.0525  153.1154 H   0  0  0  0  0  0  0  0  0  0  0  0
  148.5100  141.2154  157.6800 H   0  0  0  0  0  0  0  0  0  0  0  0
  153.5588  141.5865  161.4305 H   0  0  0  0  0  0  0  0  0  0  0  0
  153.9828  143.2852  161.2730 H   0  0  0  0  0  0  0  0  0  0  0  0
  154.6636  142.1109  160.1577 H   0  0  0  0  0  0  0  0  0  0  0  0
  1  2  1  0  0  0  0
  1 21  1  0  0  0  0
  1 22  1  0  0  0  0
  1 23  1  0  0  0  0
  2 19  2  0  0  0  0
  2  3  1  0  0  0  0
  3  4  2  0  0  0  0
  4  5  1  0  0  0  0
  4 24  1  0  0  0  0
  5  6  1  0  0  0  0
  5 17  1  0  0  0  0
  6  7  1  0  0  0  0
  6 25  1  0  0  0  0
  6 26  1  0  0  0  0
  7  8  1  0  0  0  0
  7  9  1  0  0  0  0
  7 27  1  0  0  0  0
  8 28  1  0  0  0  0
  9 16  1  0  0  0  0
  9 10  2  0  0  0  0
 10 11  1  0  0  0  0
 10 29  1  0  0  0  0
 11 12  2  0  0  0  0
 11 30  1  0  0  0  0
 12 13  1  0  0  0  0
 12 14  1  0  0  0  0
 14 15  1  0  0  0  0
 14 16  2  0  0  0  0
 16 31  1  0  0  0  0
 17 18  2  0  0  0  0
 17 19  1  0  0  0  0
 19 20  1  0  0  0  0
 20 32  1  0  0  0  0
 20 33  1  0  0  0  0
 20 34  1  0  0  0  0
M  END
> <s_m_source_file>
AV-unprocessed.smi

> <i_m_source_file_index>
2360

> <i_lp_mmshare_version>
43012

> <i_f3d_flags>
0

> <s_epik_input>
W0NIM11jMW5bY0hdbihjKD1PKWMxW0NIM10pW0NIMl1bQ0BIXShbT0hdKWMyW2NIXVtjSF1jKEYpYyhGKVtjSF0y

> <s_epik_cmdline>
J2VwaWtfcHl0aG9uJywgJy1waCcsICc3LjAnLCAnLXRuJywgJzgnLCAnLW1hJywgJzIwMCcsICctbWV0YWxfYmluZGluZycsICctaW1hZScsICc8aW5maWxlLm1hZT4nLCAnLW9tYWUnLCAnPG91dGZpbGUubWFlPic=

> <r_lp_tautomer_probability>
1

> <r_epik_Ionization_Penalty>
5.07449e-05

> <r_epik_Ionization_Penalty_Charging>
7.56727e-08

> <r_epik_Ionization_Penalty_Neutral>
5.06692e-05

> <r_epik_State_Penalty>
-0

> <r_epik_Charging_Adjusted_Penalty>
7.56727e-08

> <i_epik_Tot_Q>
0

> <i_epik_Tot_abs_Q>
0

> <r_epik_Metal_State_Penalty>
-0

> <b_epik_Metal_Only>
0

> <s_lp_Force_Field>
OPLS_2005

> <r_lp_Energy>
19.5716

> <b_lp_Chiralities_Consistent>
1

> <s_lp_Variant>
AV-unprocessed.smi:2360-2

> <Gold.Version>
5.8.1

> <Gold.Id.Protein>
6NUR|6NUR_protein|mol2

> <Gold.PLP.Fitness>
45.9508

> <Gold.PLP.PLP>
-41.8219

> <Gold.PLP.part.hbond>
-1.0000

> <Gold.PLP.part.metal>
0.0000

> <Gold.PLP.part.buried>
-5.8105

> <Gold.PLP.part.nonpolar>
-34.9318

> <Gold.PLP.part.repulsive>
0.1281

> <Gold.PLP.ligand.clash>
0.0000

> <Gold.PLP.ligand.torsion>
0.9411

> <Gold.PLP.Chemscore.Hbond>
1.0000

> <Gold.PLP.Chemscore.CHOScore>
1.0000

> <Gold.PLP.Chemscore.Metal>
0.0000

> <Gold.Chemscore.Hbonds>
donor molecule, donor type, donor heavy atom, donor atom, acceptor molecule, acceptor atom, score
      P1  H  7989  7998       L1     8  1.00
      L1  C     4    24       P1  8028  0.70

> <Gold.PLP.Chemscore.Internal.Correction>
0.0110

> <Gold.Rescore>
     Score         DG    S(hbond)    S(metal)    S(lipo)     H(rot)  DE(clash)    DE(int)     intcor
     12.34     -13.11       0.88        0.00      86.34       2.11       0.03       0.74       ----

> <Gold.Chemscore.Fitness>
12.3397

> <Gold.Chemscore.DG>
-13.1120

> <Gold.Chemscore.ZeroCoef>
-5.4800

> <Gold.Chemscore.Hbond>
0.8776

> <Gold.Chemscore.Metal>
0.0000

> <Gold.Chemscore.Lipo>
86.3393

> <Gold.Chemscore.Internal_Hbond>
0.0000

> <Gold.Chemscore.DEClash>
0.0316

> <Gold.Chemscore.DEInternal>
0.7407

> <Gold.Chemscore.Rot>
2.1097

> <Gold.Chemscore.Internal.Correction>
   9.000000E+99

> <Gold.Chemscore.Hbonds>
donor molecule, donor type, donor heavy atom, donor atom, acceptor molecule, acceptor atom, score
      P1  H  7989  7998       L1     8  0.42

> <Gold.Chemscore.Hbond.Weighted>
-2.9312

> <Gold.Chemscore.Metal.Weighted>
-0.0000

> <Gold.Chemscore.Lipo.Weighted>
-10.1017

> <Gold.Chemscore.Internal_Hbond.Weighted>
0.0000

> <Gold.Chemscore.DEClash.Weighted>
0.0316

> <Gold.Chemscore.DEInternal.Weighted>
0.7407

> <Gold.Chemscore.Rot.Weighted>
5.4009

> <Gold.Chemscore.Internal.Correction.Weighted>
   9.000000E+99

> <Gold.Protein.RotatedTorsions>
[ 6907 6896 6895 6894 ] final   -1.74 input  -60.11 | X-H torsion
[ 7974 7965 7964 7962 ] final  158.12 input  175.53 | X-H torsion
[ 8008 7997 7996 7995 ] final  164.14 input   59.86 | X-H torsion
[ 10167 10162 10161 10158 ] final -132.08 input  -65.29 | X-H torsion
[ 10718 10713 10712 10709 ] final -162.85 input   66.30 | X-H torsion
[ 10763 10752 10751 10750 ] final -167.49 input  -60.55 | X-H torsion
[ 11005 11000 10999 10996 ] final  139.62 input  -57.11 | X-H torsion

> <Gold.Protein.ActiveResidues>
 VAL166  LYS551  ARG553  GLY616  TRP617  ASP618  TYR619  PRO620  LYS621  CYS622 
 ASP623  PHE694  ASN695  SER759  ASP760  ASP761  ALA762  ILE779  LEU786  VAL792 
 PHE793  MET794  SER795  GLU796  ALA797  LYS798  CYS799  TRP800  GLU811  SER814 

> <Gold.Protein.RotatedAtoms>
  151.5412  135.1068  159.9926 H   0  0  0  0  0  0  0  0  0  0  0  0  # atno 6907 bound_to 6896
  152.4534  133.7671  159.6789 H   0  0  0  0  0  0  0  0  0  0  0  0  # atno 6908 bound_to 6896
  150.8470  133.7780  159.3064 H   0  0  0  0  0  0  0  0  0  0  0  0  # atno 6909 bound_to 6896
  144.7864  139.7434  143.6239 H   0  0  0  0  0  0  0  0  0  0  0  0  # atno 7974 bound_to 7965
  156.1903  140.1705  156.8104 H   0  0  0  0  0  0  0  0  0  0  0  0  # atno 8008 bound_to 7997
  154.5463  140.0726  156.8627 H   0  0  0  0  0  0  0  0  0  0  0  0  # atno 8009 bound_to 7997
  155.3115  140.3368  155.4246 H   0  0  0  0  0  0  0  0  0  0  0  0  # atno 8010 bound_to 7997
  139.9123  143.6480  152.2572 H   0  0  0  0  0  0  0  0  0  0  0  0  # atno 10167 bound_to 10162
  156.6163  130.8871  151.2947 H   0  0  0  0  0  0  0  0  0  0  0  0  # atno 10718 bound_to 10713
  154.6726  135.2942  154.9721 H   0  0  0  0  0  0  0  0  0  0  0  0  # atno 10763 bound_to 10752
  154.0743  135.6613  153.4832 H   0  0  0  0  0  0  0  0  0  0  0  0  # atno 10764 bound_to 10752
  153.0496  135.5182  154.7730 H   0  0  0  0  0  0  0  0  0  0  0  0  # atno 10765 bound_to 10752
  140.0268  134.9371  157.0584 H   0  0  0  0  0  0  0  0  0  0  0  0  # atno 11005 bound_to 11000
  146.2097  139.5445  142.9689 LP  0  0  0  0  0  0  0  0  0  0  0  0  # atno 17320 bound_to 7965
  145.5911  141.0369  143.2070 LP  0  0  0  0  0  0  0  0  0  0  0  0  # atno 17321 bound_to 7965
  139.6932  144.7644  151.1402 LP  0  0  0  0  0  0  0  0  0  0  0  0  # atno 17342 bound_to 10162
  140.7682  143.5560  150.9152 LP  0  0  0  0  0  0  0  0  0  0  0  0  # atno 17343 bound_to 10162
  157.7240  130.9597  150.1557 LP  0  0  0  0  0  0  0  0  0  0  0  0  # atno 17370 bound_to 10713
  156.2348  130.3685  149.8403 LP  0  0  0  0  0  0  0  0  0  0  0  0  # atno 17371 bound_to 10713
  140.4293  134.1797  155.7167 LP  0  0  0  0  0  0  0  0  0  0  0  0  # atno 17394 bound_to 11000
  141.1807  133.8419  157.1267 LP  0  0  0  0  0  0  0  0  0  0  0  0  # atno 17395 bound_to 11000

$$$$
