AV-unprocessed.smi:1273|AV-procd|sdf|5338|dock7
  -GOLD-   22720 4473D 1   1.00000     0.00000
 Structure written by MMmdl.
 40 41  0  0  0  0  0  0  0  0  1 V2000
  154.1004  135.4177  163.9158 C   0  0  0  0  0  0  0  0  0  0  0  0
  154.8683  135.9446  162.6927 C   0  0  2  0  0  0  0  0  0  0  0  0
  154.1177  137.0891  161.9979 C   0  0  0  0  0  0  0  0  0  0  0  0
  153.1211  136.8448  161.3187 O   0  0  0  0  0  0  0  0  0  0  0  0
  154.6349  138.3192  162.1779 N   0  0  0  0  0  0  0  0  0  0  0  0
  154.1755  139.5605  161.6616 C   0  0  0  0  0  0  0  0  0  0  0  0
  153.5801  139.5648  160.3856 C   0  0  0  0  0  0  0  0  0  0  0  0
  153.1323  140.7816  159.8375 C   0  0  0  0  0  0  0  0  0  0  0  0
  153.2963  141.9746  160.5803 C   0  0  0  0  0  0  0  0  0  0  0  0
  152.8530  143.2078  160.0539 N   0  0  0  0  0  0  0  0  0  0  0  0
  151.9465  144.0152  160.8689 C   0  0  0  0  0  0  0  0  0  0  0  0
  151.8079  145.4283  160.2781 C   0  0  0  0  0  0  0  0  0  0  0  0
  151.3944  145.3413  158.9188 O   0  0  0  0  0  0  0  0  0  0  0  0
  152.3472  144.6478  158.1202 C   0  0  0  0  0  0  0  0  0  0  0  0
  152.5085  143.2065  158.6339 C   0  0  0  0  0  0  0  0  0  0  0  0
  153.8882  141.9721  161.8000 N   0  0  0  0  0  0  0  0  0  0  0  0
  154.3148  140.8034  162.3231 C   0  0  0  0  0  0  0  0  0  0  0  0
  155.1717  134.5622  161.4943 S   0  0  0  0  0  0  0  0  0  0  0  0
  154.5253  133.0848  162.3856 C   0  0  0  0  0  0  0  0  0  0  0  0
  154.3254  134.7917  160.3131 O   0  0  0  0  0  0  0  0  0  0  0  0
  156.6219  134.3898  161.3179 O   0  0  0  0  0  0  0  0  0  0  0  0
  153.8833  136.2184  164.6238 H   0  0  0  0  0  0  0  0  0  0  0  0
  154.6839  134.6632  164.4436 H   0  0  0  0  0  0  0  0  0  0  0  0
  153.1540  134.9583  163.6282 H   0  0  0  0  0  0  0  0  0  0  0  0
  155.8445  136.3013  163.0238 H   0  0  0  0  0  0  0  0  0  0  0  0
  155.4980  138.3632  162.6998 H   0  0  0  0  0  0  0  0  0  0  0  0
  153.4656  138.6465  159.8281 H   0  0  0  0  0  0  0  0  0  0  0  0
  152.6865  140.7863  158.8542 H   0  0  0  0  0  0  0  0  0  0  0  0
  150.9700  143.5307  160.9107 H   0  0  0  0  0  0  0  0  0  0  0  0
  152.3193  144.0883  161.8914 H   0  0  0  0  0  0  0  0  0  0  0  0
  151.0676  145.9988  160.8390 H   0  0  0  0  0  0  0  0  0  0  0  0
  152.7506  145.9736  160.3490 H   0  0  0  0  0  0  0  0  0  0  0  0
  152.0041  144.6407  157.0855 H   0  0  0  0  0  0  0  0  0  0  0  0
  153.3026  145.1746  158.1348 H   0  0  0  0  0  0  0  0  0  0  0  0
  153.2631  142.7009  158.0336 H   0  0  0  0  0  0  0  0  0  0  0  0
  151.5761  142.6570  158.4995 H   0  0  0  0  0  0  0  0  0  0  0  0
  154.7957  140.8914  163.2845 H   0  0  0  0  0  0  0  0  0  0  0  0
  154.5751  132.2184  161.7263 H   0  0  0  0  0  0  0  0  0  0  0  0
  153.4895  133.2563  162.6775 H   0  0  0  0  0  0  0  0  0  0  0  0
  155.1295  132.8906  163.2716 H   0  0  0  0  0  0  0  0  0  0  0  0
  1  2  1  0  0  0  0
  1 22  1  0  0  0  0
  1 23  1  0  0  0  0
  1 24  1  0  0  0  0
  2  3  1  0  0  0  0
  2 18  1  0  0  0  0
  2 25  1  0  0  0  0
  3  4  2  0  0  0  0
  3  5  1  0  0  0  0
  5  6  1  0  0  0  0
  5 26  1  0  0  0  0
  6 17  1  0  0  0  0
  6  7  2  0  0  0  0
  7  8  1  0  0  0  0
  7 27  1  0  0  0  0
  8  9  2  0  0  0  0
  8 28  1  0  0  0  0
  9 10  1  0  0  0  0
  9 16  1  0  0  0  0
 10 15  1  0  0  0  0
 10 11  1  0  0  0  0
 11 12  1  0  0  0  0
 11 29  1  0  0  0  0
 11 30  1  0  0  0  0
 12 13  1  0  0  0  0
 12 31  1  0  0  0  0
 12 32  1  0  0  0  0
 13 14  1  0  0  0  0
 14 15  1  0  0  0  0
 14 33  1  0  0  0  0
 14 34  1  0  0  0  0
 15 35  1  0  0  0  0
 15 36  1  0  0  0  0
 16 17  2  0  0  0  0
 17 37  1  0  0  0  0
 18 19  1  0  0  0  0
 18 20  2  0  0  0  0
 18 21  2  0  0  0  0
 19 38  1  0  0  0  0
 19 39  1  0  0  0  0
 19 40  1  0  0  0  0
M  END
> <s_m_source_file>
AV-unprocessed.smi

> <i_m_source_file_index>
1273

> <i_lp_mmshare_version>
43012

> <i_f3d_flags>
0

> <s_epik_input>
W0NIM11TKD1PKSg9TylbQ0BIXShbQ0gzXSlDKD1PKVtOSF1jMVtjSF1bY0hdYyhuW2NIXTEpTjJbQ0gyXVtDSDJdT1tDSDJdW0NIMl0y

> <s_epik_cmdline>
J2VwaWtfcHl0aG9uJywgJy1waCcsICc3LjAnLCAnLXRuJywgJzgnLCAnLW1hJywgJzIwMCcsICctbWV0YWxfYmluZGluZycsICctaW1hZScsICc8aW5maWxlLm1hZT4nLCAnLW9tYWUnLCAnPG91dGZpbGUubWFlPic=

> <r_lp_tautomer_probability>
1

> <r_epik_Ionization_Penalty>
0.000253983

> <r_epik_Ionization_Penalty_Charging>
0

> <r_epik_Ionization_Penalty_Neutral>
0.000253983

> <r_epik_State_Penalty>
-0

> <r_epik_Charging_Adjusted_Penalty>
0

> <i_epik_Tot_Q>
0

> <i_epik_Tot_abs_Q>
0

> <r_epik_Metal_State_Penalty>
-0

> <b_epik_Metal_Only>
0

> <s_lp_Force_Field>
OPLS_2005

> <r_lp_Energy>
19.002

> <b_lp_Chiralities_Consistent>
1

> <s_lp_Variant>
AV-unprocessed.smi:1273-1

> <Gold.Version>
5.8.1

> <Gold.Id.Protein>
6NUR|6NUR_protein|mol2

> <Gold.PLP.Fitness>
43.3863

> <Gold.PLP.PLP>
-41.6341

> <Gold.PLP.part.hbond>
-2.5529

> <Gold.PLP.part.metal>
0.0000

> <Gold.PLP.part.buried>
-4.7895

> <Gold.PLP.part.nonpolar>
-34.9340

> <Gold.PLP.part.repulsive>
0.1317

> <Gold.PLP.ligand.clash>
0.0000

> <Gold.PLP.ligand.torsion>
0.8704

> <Gold.PLP.Chemscore.Hbond>
1.0000

> <Gold.PLP.Chemscore.CHOScore>
0.0000

> <Gold.PLP.Chemscore.Metal>
0.0000

> <Gold.Chemscore.Hbonds>
donor molecule, donor type, donor heavy atom, donor atom, acceptor molecule, acceptor atom, score
      P1  H  6896  6907       L1    20  1.00

> <Gold.PLP.Chemscore.Internal.Correction>
0.4929

> <Gold.Rescore>
     Score         DG    S(hbond)    S(metal)    S(lipo)     H(rot)  DE(clash)    DE(int)     intcor
     12.14     -16.01       1.00        0.00      95.76       1.56       0.11       3.76       ----

> <Gold.Chemscore.Fitness>
12.1428

> <Gold.Chemscore.DG>
-16.0085

> <Gold.Chemscore.ZeroCoef>
-5.4800

> <Gold.Chemscore.Hbond>
0.9951

> <Gold.Chemscore.Metal>
0.0000

> <Gold.Chemscore.Lipo>
95.7634

> <Gold.Chemscore.Internal_Hbond>
0.0000

> <Gold.Chemscore.DEClash>
0.1078

> <Gold.Chemscore.DEInternal>
3.7578

> <Gold.Chemscore.Rot>
1.5624

> <Gold.Chemscore.Internal.Correction>
   9.000000E+99

> <Gold.Chemscore.Hbonds>
donor molecule, donor type, donor heavy atom, donor atom, acceptor molecule, acceptor atom, score
      P1  H  6896  6907       L1    20  1.00

> <Gold.Chemscore.Hbond.Weighted>
-3.3238

> <Gold.Chemscore.Metal.Weighted>
-0.0000

> <Gold.Chemscore.Lipo.Weighted>
-11.2043

> <Gold.Chemscore.Internal_Hbond.Weighted>
0.0000

> <Gold.Chemscore.DEClash.Weighted>
0.1078

> <Gold.Chemscore.DEInternal.Weighted>
3.7578

> <Gold.Chemscore.Rot.Weighted>
3.9996

> <Gold.Chemscore.Internal.Correction.Weighted>
   9.000000E+99

> <Gold.Protein.RotatedTorsions>
[ 6907 6896 6895 6894 ] final   77.78 input  -60.11 | X-H torsion
[ 7974 7965 7964 7962 ] final   57.37 input  175.53 | X-H torsion
[ 8008 7997 7996 7995 ] final   65.27 input   59.86 | X-H torsion
[ 10167 10162 10161 10158 ] final   67.64 input  -65.29 | X-H torsion
[ 10718 10713 10712 10709 ] final  -71.82 input   66.30 | X-H torsion
[ 10763 10752 10751 10750 ] final  179.68 input  -60.55 | X-H torsion
[ 11005 11000 10999 10996 ] final   30.07 input  -57.11 | X-H torsion

> <Gold.Protein.ActiveResidues>
 VAL166  LYS551  ARG553  GLY616  TRP617  ASP618  TYR619  PRO620  LYS621  CYS622 
 ASP623  PHE694  ASN695  SER759  ASP760  ASP761  ALA762  ILE779  LEU786  VAL792 
 PHE793  MET794  SER795  GLU796  ALA797  LYS798  CYS799  TRP800  GLU811  SER814 

> <Gold.Protein.RotatedAtoms>
  152.5132  134.3764  159.9335 H   0  0  0  0  0  0  0  0  0  0  0  0  # atno 6907 bound_to 6896
  151.3719  133.3845  159.2708 H   0  0  0  0  0  0  0  0  0  0  0  0  # atno 6908 bound_to 6896
  150.9571  134.8983  159.7766 H   0  0  0  0  0  0  0  0  0  0  0  0  # atno 6909 bound_to 6896
  145.9298  139.3798  143.0428 H   0  0  0  0  0  0  0  0  0  0  0  0  # atno 7974 bound_to 7965
  155.6591  140.3497  155.4776 H   0  0  0  0  0  0  0  0  0  0  0  0  # atno 8008 bound_to 7997
  155.9783  140.1169  157.0773 H   0  0  0  0  0  0  0  0  0  0  0  0  # atno 8009 bound_to 7997
  154.4184  140.1143  156.5387 H   0  0  0  0  0  0  0  0  0  0  0  0  # atno 8010 bound_to 7997
  140.0874  144.5018  150.7121 H   0  0  0  0  0  0  0  0  0  0  0  0  # atno 10167 bound_to 10162
  156.0346  130.4359  150.2501 H   0  0  0  0  0  0  0  0  0  0  0  0  # atno 10718 bound_to 10713
  154.5238  135.2795  155.1240 H   0  0  0  0  0  0  0  0  0  0  0  0  # atno 10763 bound_to 10752
  154.2787  135.6289  153.5342 H   0  0  0  0  0  0  0  0  0  0  0  0  # atno 10764 bound_to 10752
  152.9942  135.5646  154.5733 H   0  0  0  0  0  0  0  0  0  0  0  0  # atno 10765 bound_to 10752
  140.2983  134.2786  155.7759 H   0  0  0  0  0  0  0  0  0  0  0  0  # atno 11005 bound_to 11000
  145.8441  140.9565  143.0784 LP  0  0  0  0  0  0  0  0  0  0  0  0  # atno 17320 bound_to 7965
  144.6763  140.0322  143.7482 LP  0  0  0  0  0  0  0  0  0  0  0  0  # atno 17321 bound_to 7965
  140.7046  143.2459  151.4763 LP  0  0  0  0  0  0  0  0  0  0  0  0  # atno 17342 bound_to 10162
  139.5744  144.1852  152.1883 LP  0  0  0  0  0  0  0  0  0  0  0  0  # atno 17343 bound_to 10162
  157.0602  131.0087  151.3225 LP  0  0  0  0  0  0  0  0  0  0  0  0  # atno 17370 bound_to 10713
  157.5076  130.7919  149.7671 LP  0  0  0  0  0  0  0  0  0  0  0  0  # atno 17371 bound_to 10713
  141.2133  133.7629  156.9729 LP  0  0  0  0  0  0  0  0  0  0  0  0  # atno 17394 bound_to 11000
  140.1132  134.9463  157.2096 LP  0  0  0  0  0  0  0  0  0  0  0  0  # atno 17395 bound_to 11000

$$$$
