AV-unprocessed.smi:2061|AV-procd|sdf|8383|dock3
  -GOLD-   2272011 63D 1   1.00000     0.00000
 Structure written by MMmdl.
 45 46  0  0  0  0  0  0  0  0  3 V2000
  146.7608  133.3561  162.2647 C   0  0  0  0  0  0  0  0  0  0  0  0
  147.2052  134.7086  161.8243 C   0  0  0  0  0  0  0  0  0  0  0  0
  147.4719  135.2453  160.5966 C   0  0  0  0  0  0  0  0  0  0  0  0
  147.8518  136.5810  160.9017 C   0  0  0  0  0  0  0  0  0  0  0  0
  148.1994  137.5249  160.0134 N   0  5  0  0  0  0  0  0  0  0  0  0
  148.9847  137.2113  158.9583 C   0  0  0  0  0  0  0  0  0  0  0  0
  149.5248  136.1235  158.7437 O   0  0  0  0  0  0  0  0  0  0  0  0
  149.1506  138.2206  158.0916 N   0  0  0  0  0  0  0  0  0  0  0  0
  149.9289  138.1609  156.8583 C   0  0  0  0  0  0  0  0  0  0  0  0
  150.1493  139.5546  156.2154 C   0  0  1  0  0  0  0  0  0  0  0  0
  151.4560  139.5598  155.3858 C   0  0  0  0  0  0  0  0  0  0  0  0
  148.9329  139.9493  155.4338 N   0  3  1  0  0  0  0  0  0  0  0  0
  149.1412  141.2063  154.6660 C   0  0  0  0  0  0  0  0  0  0  0  0
  147.8469  141.6732  153.9747 C   0  0  2  0  0  0  0  0  0  0  0  0
  146.8027  142.2520  154.9463 C   0  0  0  0  0  0  0  0  0  0  0  0
  147.3194  140.6232  153.1673 O   0  0  0  0  0  0  0  0  0  0  0  0
  147.0703  139.4079  153.8655 C   0  0  1  0  0  0  0  0  0  0  0  0
  146.5183  138.3936  152.8575 C   0  0  0  0  0  0  0  0  0  0  0  0
  148.3661  138.9101  154.5330 C   0  0  0  0  0  0  0  0  0  0  0  0
  147.8041  136.8366  162.1984 N   0  0  0  0  0  0  0  0  0  0  0  0
  147.3955  135.6391  162.7977 O   0  0  0  0  0  0  0  0  0  0  0  0
  145.6806  133.3339  162.4096 H   0  0  0  0  0  0  0  0  0  0  0  0
  147.2353  133.0779  163.2061 H   0  0  0  0  0  0  0  0  0  0  0  0
  147.0187  132.6018  161.5211 H   0  0  0  0  0  0  0  0  0  0  0  0
  147.4087  134.7604  159.6341 H   0  0  0  0  0  0  0  0  0  0  0  0
  148.6947  139.0954  158.3062 H   0  0  0  0  0  0  0  0  0  0  0  0
  150.8929  137.7099  157.0956 H   0  0  0  0  0  0  0  0  0  0  0  0
  149.4360  137.4682  156.1767 H   0  0  0  0  0  0  0  0  0  0  0  0
  150.2833  140.2933  157.0075 H   0  0  0  0  0  0  0  0  0  0  0  0
  152.3128  139.2522  155.9851 H   0  0  0  0  0  0  0  0  0  0  0  0
  151.7000  140.5545  155.0131 H   0  0  0  0  0  0  0  0  0  0  0  0
  151.3931  138.8794  154.5361 H   0  0  0  0  0  0  0  0  0  0  0  0
  149.5135  142.0068  155.3035 H   0  0  0  0  0  0  0  0  0  0  0  0
  149.9103  141.0339  153.9110 H   0  0  0  0  0  0  0  0  0  0  0  0
  148.1117  142.4756  153.2854 H   0  0  0  0  0  0  0  0  0  0  0  0
  147.1944  143.1355  155.4514 H   0  0  0  0  0  0  0  0  0  0  0  0
  146.5152  141.5403  155.7196 H   0  0  0  0  0  0  0  0  0  0  0  0
  145.9001  142.5514  154.4133 H   0  0  0  0  0  0  0  0  0  0  0  0
  146.3079  139.5723  154.6271 H   0  0  0  0  0  0  0  0  0  0  0  0
  146.2972  137.4405  153.3385 H   0  0  0  0  0  0  0  0  0  0  0  0
  147.2318  138.2060  152.0545 H   0  0  0  0  0  0  0  0  0  0  0  0
  145.5959  138.7579  152.4044 H   0  0  0  0  0  0  0  0  0  0  0  0
  149.1060  138.6376  153.7784 H   0  0  0  0  0  0  0  0  0  0  0  0
  148.1170  138.0077  155.0904 H   0  0  0  0  0  0  0  0  0  0  0  0
  148.2149  140.1378  156.1186 H   0  0  0  0  0  0  0  0  0  0  0  0
  1  2  1  0  0  0  0
  1 22  1  0  0  0  0
  1 23  1  0  0  0  0
  1 24  1  0  0  0  0
  2 21  1  0  0  0  0
  2  3  2  0  0  0  0
  3  4  1  0  0  0  0
  3 25  1  0  0  0  0
  4  5  1  0  0  0  0
  4 20  2  0  0  0  0
  5  6  1  0  0  0  0
  6  7  2  0  0  0  0
  6  8  1  0  0  0  0
  8  9  1  0  0  0  0
  8 26  1  0  0  0  0
  9 10  1  0  0  0  0
  9 27  1  0  0  0  0
  9 28  1  0  0  0  0
 10 11  1  0  0  0  0
 10 12  1  0  0  0  0
 10 29  1  0  0  0  0
 11 30  1  0  0  0  0
 11 31  1  0  0  0  0
 11 32  1  0  0  0  0
 12 19  1  0  0  0  0
 12 13  1  0  0  0  0
 12 45  1  0  0  0  0
 13 14  1  0  0  0  0
 13 33  1  0  0  0  0
 13 34  1  0  0  0  0
 14 15  1  0  0  0  0
 14 16  1  0  0  0  0
 14 35  1  0  0  0  0
 15 36  1  0  0  0  0
 15 37  1  0  0  0  0
 15 38  1  0  0  0  0
 16 17  1  0  0  0  0
 17 18  1  0  0  0  0
 17 19  1  0  0  0  0
 17 39  1  0  0  0  0
 18 40  1  0  0  0  0
 18 41  1  0  0  0  0
 18 42  1  0  0  0  0
 19 43  1  0  0  0  0
 19 44  1  0  0  0  0
 20 21  1  0  0  0  0
M  CHG  1   5  -1
M  CHG  1  12   1
M  END
> <s_m_source_file>
AV-unprocessed.smi

> <i_m_source_file_index>
2061

> <i_lp_mmshare_version>
43012

> <i_f3d_flags>
0

> <s_epik_input>
W0NIM11jMVtjSF1jKG5vMSlbTkhdQyg9TylbTkhdW0NIMl1bQ0BIXShbQ0gzXSlOMltDSDJdW0NAQEhdKFtDSDNdKU9bQ0BASF0oW0NIM10pW0NIMl0y

> <s_epik_cmdline>
J2VwaWtfcHl0aG9uJywgJy1waCcsICc3LjAnLCAnLXRuJywgJzgnLCAnLW1hJywgJzIwMCcsICctbWV0YWxfYmluZGluZycsICctaW1hZScsICc8aW5maWxlLm1hZT4nLCAnLW9tYWUnLCAnPG91dGZpbGUubWFlPic=

> <r_epik_Ionization_Penalty>
6.73511

> <r_epik_Ionization_Penalty_Charging>
6.73502

> <r_epik_Ionization_Penalty_Neutral>
9.50841e-05

> <r_epik_State_Penalty>
6.93549

> <r_epik_Charging_Adjusted_Penalty>
13.6705

> <i_epik_Tot_Q>
0

> <i_epik_Tot_abs_Q>
2

> <r_epik_Metal_State_Penalty>
2.87211

> <b_epik_Metal_Only>
1

> <s_lp_Force_Field>
OPLS_2005

> <r_lp_Energy>
11.2328

> <b_lp_Chiralities_Consistent>
1

> <s_lp_Variant>
AV-unprocessed.smi:2061-24

> <Gold.Version>
5.8.1

> <Gold.Id.Protein>
6NUR|6NUR_protein|mol2

> <Gold.PLP.Fitness>
40.2015

> <Gold.PLP.PLP>
-34.3926

> <Gold.PLP.part.hbond>
-3.9891

> <Gold.PLP.part.metal>
0.0000

> <Gold.PLP.part.buried>
-5.6963

> <Gold.PLP.part.nonpolar>
-26.5638

> <Gold.PLP.part.repulsive>
0.6034

> <Gold.PLP.ligand.clash>
0.0000

> <Gold.PLP.ligand.torsion>
0.7925

> <Gold.PLP.Chemscore.Hbond>
2.4349

> <Gold.PLP.Chemscore.CHOScore>
0.0000

> <Gold.PLP.Chemscore.Metal>
0.0000

> <Gold.Chemscore.Hbonds>
donor molecule, donor type, donor heavy atom, donor atom, acceptor molecule, acceptor atom, score
      P1  H  6896  6907       L1     7  0.98
      P1  H  6931  6943       L1    20  0.45
      P1  H  6934  6947       L1     5  0.87

> <Gold.PLP.Chemscore.Internal.Correction>
0.0891

> <Gold.Rescore>
     Score         DG    S(hbond)    S(metal)    S(lipo)     H(rot)  DE(clash)    DE(int)     intcor
     12.79     -14.85       1.80        0.00      62.63       1.56       0.02       2.04       ----

> <Gold.Chemscore.Fitness>
12.7915

> <Gold.Chemscore.DG>
-14.8519

> <Gold.Chemscore.ZeroCoef>
-5.4800

> <Gold.Chemscore.Hbond>
1.8041

> <Gold.Chemscore.Metal>
0.0000

> <Gold.Chemscore.Lipo>
62.6250

> <Gold.Chemscore.Internal_Hbond>
0.0000

> <Gold.Chemscore.DEClash>
0.0158

> <Gold.Chemscore.DEInternal>
2.0447

> <Gold.Chemscore.Rot>
1.5550

> <Gold.Chemscore.Internal.Correction>
   9.000000E+99

> <Gold.Chemscore.Hbonds>
donor molecule, donor type, donor heavy atom, donor atom, acceptor molecule, acceptor atom, score
      P1  H  6896  6907       L1     7  0.91
      P1  H  6931  6943       L1    20  0.02
      P1  H  6934  6947       L1     5  0.06

> <Gold.Chemscore.Hbond.Weighted>
-6.0256

> <Gold.Chemscore.Metal.Weighted>
-0.0000

> <Gold.Chemscore.Lipo.Weighted>
-7.3271

> <Gold.Chemscore.Internal_Hbond.Weighted>
0.0000

> <Gold.Chemscore.DEClash.Weighted>
0.0158

> <Gold.Chemscore.DEInternal.Weighted>
2.0447

> <Gold.Chemscore.Rot.Weighted>
3.9809

> <Gold.Chemscore.Internal.Correction.Weighted>
   9.000000E+99

> <Gold.Protein.RotatedTorsions>
[ 6907 6896 6895 6894 ] final  -55.56 input  -60.11 | X-H torsion
[ 7974 7965 7964 7962 ] final -137.92 input  175.53 | X-H torsion
[ 8008 7997 7996 7995 ] final   79.50 input   59.86 | X-H torsion
[ 10167 10162 10161 10158 ] final   85.23 input  -65.29 | X-H torsion
[ 10718 10713 10712 10709 ] final   80.06 input   66.30 | X-H torsion
[ 10763 10752 10751 10750 ] final -113.94 input  -60.55 | X-H torsion
[ 11005 11000 10999 10996 ] final   31.48 input  -57.11 | X-H torsion

> <Gold.Protein.ActiveResidues>
 VAL166  LYS551  ARG553  GLY616  TRP617  ASP618  TYR619  PRO620  LYS621  CYS622 
 ASP623  PHE694  ASN695  SER759  ASP760  ASP761  ALA762  ILE779  LEU786  VAL792 
 PHE793  MET794  SER795  GLU796  ALA797  LYS798  CYS799  TRP800  GLU811  SER814 

> <Gold.Protein.RotatedAtoms>
  150.8241  134.7463  159.6797 H   0  0  0  0  0  0  0  0  0  0  0  0  # atno 6907 bound_to 6896
  152.4354  134.5694  159.9926 H   0  0  0  0  0  0  0  0  0  0  0  0  # atno 6908 bound_to 6896
  151.5870  133.3333  159.3056 H   0  0  0  0  0  0  0  0  0  0  0  0  # atno 6909 bound_to 6896
  144.8801  140.6495  143.5211 H   0  0  0  0  0  0  0  0  0  0  0  0  # atno 7974 bound_to 7965
  155.8705  140.3449  155.5818 H   0  0  0  0  0  0  0  0  0  0  0  0  # atno 8008 bound_to 7997
  155.7833  140.0861  157.2067 H   0  0  0  0  0  0  0  0  0  0  0  0  # atno 8009 bound_to 7997
  154.4017  140.1497  156.3064 H   0  0  0  0  0  0  0  0  0  0  0  0  # atno 8010 bound_to 7997
  139.8999  144.6335  150.8648 H   0  0  0  0  0  0  0  0  0  0  0  0  # atno 10167 bound_to 10162
  157.6795  130.9942  150.2023 H   0  0  0  0  0  0  0  0  0  0  0  0  # atno 10718 bound_to 10713
  154.8418  135.4436  154.1428 H   0  0  0  0  0  0  0  0  0  0  0  0  # atno 10763 bound_to 10752
  153.2609  135.6936  153.7586 H   0  0  0  0  0  0  0  0  0  0  0  0  # atno 10764 bound_to 10752
  153.6863  135.3394  155.3166 H   0  0  0  0  0  0  0  0  0  0  0  0  # atno 10765 bound_to 10752
  140.2834  134.2946  155.7794 H   0  0  0  0  0  0  0  0  0  0  0  0  # atno 11005 bound_to 11000
  145.3970  139.1605  143.4198 LP  0  0  0  0  0  0  0  0  0  0  0  0  # atno 17320 bound_to 7965
  146.2989  140.4063  142.8711 LP  0  0  0  0  0  0  0  0  0  0  0  0  # atno 17321 bound_to 7965
  140.7709  143.3444  151.2140 LP  0  0  0  0  0  0  0  0  0  0  0  0  # atno 17342 bound_to 10162
  139.7034  143.9495  152.2916 LP  0  0  0  0  0  0  0  0  0  0  0  0  # atno 17343 bound_to 10162
  156.2711  130.3722  149.8030 LP  0  0  0  0  0  0  0  0  0  0  0  0  # atno 17370 bound_to 10713
  156.5747  130.8440  151.3366 LP  0  0  0  0  0  0  0  0  0  0  0  0  # atno 17371 bound_to 10713
  141.2159  133.7540  156.9515 LP  0  0  0  0  0  0  0  0  0  0  0  0  # atno 17394 bound_to 11000
  140.1262  134.9385  157.2273 LP  0  0  0  0  0  0  0  0  0  0  0  0  # atno 17395 bound_to 11000

$$$$
