AV-unprocessed.smi:2902|AV-procd|sdf|11151|dock7
  -GOLD-   2272016 33D 1   1.00000     0.00000
 Structure written by MMmdl.
 47 48  0  0  0  0  0  0  0  0  1 V2000
  143.5459  136.6719  152.7426 C   0  0  0  0  0  0  0  0  0  0  0  0
  144.9941  136.9153  152.2998 C   0  0  0  0  0  0  0  0  0  0  0  0
  145.9285  135.7420  152.6497 C   0  0  2  0  0  0  0  0  0  0  0  0
  145.1806  134.5322  152.5090 O   0  0  0  0  0  0  0  0  0  0  0  0
  144.9603  134.0510  151.1844 C   0  0  0  0  0  0  0  0  0  0  0  0
  143.7584  133.1099  151.0609 C   0  0  0  0  0  0  0  0  0  0  0  0
  144.0462  132.2680  149.8126 C   0  0  0  0  0  0  0  0  0  0  0  0
  145.5668  132.3262  149.5948 C   0  0  0  0  0  0  0  0  0  0  0  0
  146.1299  133.1759  150.7390 C   0  0  0  0  0  0  0  0  0  0  0  0
  146.4807  135.8701  154.0789 C   0  0  0  0  0  0  0  0  0  0  0  0
  145.7267  135.7875  155.0486 O   0  0  0  0  0  0  0  0  0  0  0  0
  147.8068  136.0477  154.1864 N   0  0  0  0  0  0  0  0  0  0  0  0
  148.5587  136.1208  155.4369 C   0  0  2  0  0  0  0  0  0  0  0  0
  148.0305  137.2929  156.2864 C   0  0  0  0  0  0  0  0  0  0  0  0
  150.0767  136.2155  155.1365 C   0  0  2  0  0  0  0  0  0  0  0  0
  150.9504  135.5484  156.2157 C   0  0  0  0  0  0  0  0  0  0  0  0
  150.4996  137.5951  154.9403 N   0  0  0  0  0  0  0  0  0  0  0  0
  150.1283  138.5005  154.0317 C   0  0  0  0  0  0  0  0  0  0  0  0
  150.7316  139.6733  154.1645 N   0  0  0  0  0  0  0  0  0  0  0  0
  151.5133  139.4049  155.2521 C   0  0  0  0  0  0  0  0  0  0  0  0
  151.4105  138.1755  155.7571 N   0  0  0  0  0  0  0  0  0  0  0  0
  142.9121  137.5180  152.4768 H   0  0  0  0  0  0  0  0  0  0  0  0
  143.4800  136.5340  153.8222 H   0  0  0  0  0  0  0  0  0  0  0  0
  143.1323  135.7834  152.2650 H   0  0  0  0  0  0  0  0  0  0  0  0
  145.0031  137.0860  151.2223 H   0  0  0  0  0  0  0  0  0  0  0  0
  145.3610  137.8342  152.7589 H   0  0  0  0  0  0  0  0  0  0  0  0
  146.7605  135.7484  151.9437 H   0  0  0  0  0  0  0  0  0  0  0  0
  144.8641  134.8719  150.4731 H   0  0  0  0  0  0  0  0  0  0  0  0
  143.7121  132.4588  151.9351 H   0  0  0  0  0  0  0  0  0  0  0  0
  142.8093  133.6425  150.9933 H   0  0  0  0  0  0  0  0  0  0  0  0
  143.6908  131.2446  149.9346 H   0  0  0  0  0  0  0  0  0  0  0  0
  143.5338  132.6904  148.9473 H   0  0  0  0  0  0  0  0  0  0  0  0
  146.0167  131.3333  149.5757 H   0  0  0  0  0  0  0  0  0  0  0  0
  145.7824  132.8004  148.6365 H   0  0  0  0  0  0  0  0  0  0  0  0
  147.0010  133.7596  150.4406 H   0  0  0  0  0  0  0  0  0  0  0  0
  146.4342  132.5240  151.5589 H   0  0  0  0  0  0  0  0  0  0  0  0
  148.3429  136.1045  153.3328 H   0  0  0  0  0  0  0  0  0  0  0  0
  148.3902  135.1998  155.9985 H   0  0  0  0  0  0  0  0  0  0  0  0
  148.5098  137.3317  157.2645 H   0  0  0  0  0  0  0  0  0  0  0  0
  146.9579  137.2013  156.4606 H   0  0  0  0  0  0  0  0  0  0  0  0
  148.2061  138.2488  155.7921 H   0  0  0  0  0  0  0  0  0  0  0  0
  150.2627  135.6845  154.2007 H   0  0  0  0  0  0  0  0  0  0  0  0
  150.7591  134.4777  156.2828 H   0  0  0  0  0  0  0  0  0  0  0  0
  150.7679  135.9815  157.1996 H   0  0  0  0  0  0  0  0  0  0  0  0
  152.0104  135.6700  155.9903 H   0  0  0  0  0  0  0  0  0  0  0  0
  149.4034  138.2967  153.2575 H   0  0  0  0  0  0  0  0  0  0  0  0
  152.1773  140.1383  155.6855 H   0  0  0  0  0  0  0  0  0  0  0  0
  1  2  1  0  0  0  0
  1 22  1  0  0  0  0
  1 23  1  0  0  0  0
  1 24  1  0  0  0  0
  2  3  1  0  0  0  0
  2 25  1  0  0  0  0
  2 26  1  0  0  0  0
  3  4  1  0  0  0  0
  3 10  1  0  0  0  0
  3 27  1  0  0  0  0
  4  5  1  0  0  0  0
  5  9  1  0  0  0  0
  5  6  1  0  0  0  0
  5 28  1  0  0  0  0
  6  7  1  0  0  0  0
  6 29  1  0  0  0  0
  6 30  1  0  0  0  0
  7  8  1  0  0  0  0
  7 31  1  0  0  0  0
  7 32  1  0  0  0  0
  8  9  1  0  0  0  0
  8 33  1  0  0  0  0
  8 34  1  0  0  0  0
  9 35  1  0  0  0  0
  9 36  1  0  0  0  0
 10 11  2  0  0  0  0
 10 12  1  0  0  0  0
 12 13  1  0  0  0  0
 12 37  1  0  0  0  0
 13 14  1  0  0  0  0
 13 15  1  0  0  0  0
 13 38  1  0  0  0  0
 14 39  1  0  0  0  0
 14 40  1  0  0  0  0
 14 41  1  0  0  0  0
 15 16  1  0  0  0  0
 15 17  1  0  0  0  0
 15 42  1  0  0  0  0
 16 43  1  0  0  0  0
 16 44  1  0  0  0  0
 16 45  1  0  0  0  0
 17 21  1  0  0  0  0
 17 18  1  0  0  0  0
 18 19  2  0  0  0  0
 18 46  1  0  0  0  0
 19 20  1  0  0  0  0
 20 21  2  0  0  0  0
 20 47  1  0  0  0  0
M  END
> <s_m_source_file>
AV-unprocessed.smi

> <i_m_source_file_index>
2902

> <i_lp_mmshare_version>
43012

> <i_f3d_flags>
0

> <s_epik_input>
W0NIMl0xW0NIMl1bQ0gyXVtDSDJdW0NIXTFPW0NAQEhdKFtDSDJdW0NIM10pQyg9TylbTkhdW0NASF0oW0NIM10pW0NASF0oW0NIM10pbjJbY0hdbltjSF1uMg==

> <s_epik_cmdline>
J2VwaWtfcHl0aG9uJywgJy1waCcsICc3LjAnLCAnLXRuJywgJzgnLCAnLW1hJywgJzIwMCcsICctbWV0YWxfYmluZGluZycsICctaW1hZScsICc8aW5maWxlLm1hZT4nLCAnLW9tYWUnLCAnPG91dGZpbGUubWFlPic=

> <r_lp_tautomer_probability>
1

> <r_epik_Ionization_Penalty>
6.95617e-05

> <r_epik_Ionization_Penalty_Charging>
0

> <r_epik_Ionization_Penalty_Neutral>
6.95617e-05

> <r_epik_State_Penalty>
-0

> <r_epik_Charging_Adjusted_Penalty>
0

> <i_epik_Tot_Q>
0

> <i_epik_Tot_abs_Q>
0

> <r_epik_Metal_State_Penalty>
-0

> <b_epik_Metal_Only>
0

> <s_lp_Force_Field>
OPLS_2005

> <r_lp_Energy>
29.4531

> <b_lp_Chiralities_Consistent>
1

> <s_lp_Variant>
AV-unprocessed.smi:2902-1

> <Gold.Version>
5.8.1

> <Gold.Id.Protein>
6NUR|6NUR_protein|mol2

> <Gold.PLP.Fitness>
39.7514

> <Gold.PLP.PLP>
-32.7043

> <Gold.PLP.part.hbond>
-2.0000

> <Gold.PLP.part.metal>
0.0000

> <Gold.PLP.part.buried>
-2.6753

> <Gold.PLP.part.nonpolar>
-27.8226

> <Gold.PLP.part.repulsive>
0.2530

> <Gold.PLP.ligand.clash>
0.0000

> <Gold.PLP.ligand.torsion>
1.5156

> <Gold.PLP.Chemscore.Hbond>
2.0000

> <Gold.PLP.Chemscore.CHOScore>
1.3230

> <Gold.PLP.Chemscore.Metal>
0.0000

> <Gold.Chemscore.Hbonds>
donor molecule, donor type, donor heavy atom, donor atom, acceptor molecule, acceptor atom, score
      L1  H    12    37       P1  7948  1.00
      P1  H  7989  7998       L1    19  0.95
      L1  C    18    46       P1  7948  1.00
      L1  C    18    46       P1  7957  0.34

> <Gold.PLP.Chemscore.Internal.Correction>
0.1093

> <Gold.Rescore>
     Score         DG    S(hbond)    S(metal)    S(lipo)     H(rot)  DE(clash)    DE(int)     intcor
     10.97     -12.71       1.93        0.00      65.52       2.69       0.01       1.72       ----

> <Gold.Chemscore.Fitness>
10.9747

> <Gold.Chemscore.DG>
-12.7065

> <Gold.Chemscore.ZeroCoef>
-5.4800

> <Gold.Chemscore.Hbond>
1.9331

> <Gold.Chemscore.Metal>
0.0000

> <Gold.Chemscore.Lipo>
65.5159

> <Gold.Chemscore.Internal_Hbond>
0.0000

> <Gold.Chemscore.DEClash>
0.0089

> <Gold.Chemscore.DEInternal>
1.7229

> <Gold.Chemscore.Rot>
2.6935

> <Gold.Chemscore.Internal.Correction>
   9.000000E+99

> <Gold.Chemscore.Hbonds>
donor molecule, donor type, donor heavy atom, donor atom, acceptor molecule, acceptor atom, score
      L1  H    12    37       P1  7948  0.98
      P1  H  7989  7998       L1    19  0.21

> <Gold.Chemscore.Hbond.Weighted>
-6.4565

> <Gold.Chemscore.Metal.Weighted>
-0.0000

> <Gold.Chemscore.Lipo.Weighted>
-7.6654

> <Gold.Chemscore.Internal_Hbond.Weighted>
0.0000

> <Gold.Chemscore.DEClash.Weighted>
0.0089

> <Gold.Chemscore.DEInternal.Weighted>
1.7229

> <Gold.Chemscore.Rot.Weighted>
6.8954

> <Gold.Chemscore.Internal.Correction.Weighted>
   9.000000E+99

> <Gold.Protein.RotatedTorsions>
[ 6907 6896 6895 6894 ] final  174.44 input  -60.11 | X-H torsion
[ 7974 7965 7964 7962 ] final  -71.44 input  175.53 | X-H torsion
[ 8008 7997 7996 7995 ] final  -45.33 input   59.86 | X-H torsion
[ 10167 10162 10161 10158 ] final  108.21 input  -65.29 | X-H torsion
[ 10718 10713 10712 10709 ] final   12.29 input   66.30 | X-H torsion
[ 10763 10752 10751 10750 ] final -173.59 input  -60.55 | X-H torsion
[ 11005 11000 10999 10996 ] final   16.80 input  -57.11 | X-H torsion

> <Gold.Protein.ActiveResidues>
 VAL166  LYS551  ARG553  GLY616  TRP617  ASP618  TYR619  PRO620  LYS621  CYS622 
 ASP623  PHE694  ASN695  SER759  ASP760  ASP761  ALA762  ILE779  LEU786  VAL792 
 PHE793  MET794  SER795  GLU796  ALA797  LYS798  CYS799  TRP800  GLU811  SER814 

> <Gold.Protein.RotatedAtoms>
  151.7523  133.3328  159.3394 H   0  0  0  0  0  0  0  0  0  0  0  0  # atno 6907 bound_to 6896
  150.7530  134.6181  159.6131 H   0  0  0  0  0  0  0  0  0  0  0  0  # atno 6908 bound_to 6896
  152.3460  134.7072  160.0301 H   0  0  0  0  0  0  0  0  0  0  0  0  # atno 6909 bound_to 6896
  145.6781  140.9197  143.0847 H   0  0  0  0  0  0  0  0  0  0  0  0  # atno 7974 bound_to 7965
  154.4000  140.1399  156.3829 H   0  0  0  0  0  0  0  0  0  0  0  0  # atno 8008 bound_to 7997
  155.7986  140.3476  155.5369 H   0  0  0  0  0  0  0  0  0  0  0  0  # atno 8009 bound_to 7997
  155.8506  140.0941  157.1667 H   0  0  0  0  0  0  0  0  0  0  0  0  # atno 8010 bound_to 7997
  139.6865  144.7113  151.1424 H   0  0  0  0  0  0  0  0  0  0  0  0  # atno 10167 bound_to 10162
  157.0080  130.6106  149.5704 H   0  0  0  0  0  0  0  0  0  0  0  0  # atno 10718 bound_to 10713
  154.6061  135.2859  155.0483 H   0  0  0  0  0  0  0  0  0  0  0  0  # atno 10763 bound_to 10752
  154.1730  135.6469  153.5018 H   0  0  0  0  0  0  0  0  0  0  0  0  # atno 10764 bound_to 10752
  153.0176  135.5405  154.6797 H   0  0  0  0  0  0  0  0  0  0  0  0  # atno 10765 bound_to 10752
  140.4431  134.1301  155.7693 H   0  0  0  0  0  0  0  0  0  0  0  0  # atno 11005 bound_to 11000
  144.7035  139.8660  143.7437 LP  0  0  0  0  0  0  0  0  0  0  0  0  # atno 17320 bound_to 7965
  146.0988  139.3982  143.0360 LP  0  0  0  0  0  0  0  0  0  0  0  0  # atno 17321 bound_to 7965
  140.7669  143.5622  150.9086 LP  0  0  0  0  0  0  0  0  0  0  0  0  # atno 17342 bound_to 10162
  139.9297  143.6508  152.3079 LP  0  0  0  0  0  0  0  0  0  0  0  0  # atno 17343 bound_to 10162
  156.0146  130.5240  150.8096 LP  0  0  0  0  0  0  0  0  0  0  0  0  # atno 17370 bound_to 10713
  157.5341  131.0938  150.9915 LP  0  0  0  0  0  0  0  0  0  0  0  0  # atno 17371 bound_to 10713
  141.1697  133.8633  157.1608 LP  0  0  0  0  0  0  0  0  0  0  0  0  # atno 17394 bound_to 11000
  140.0057  135.0009  157.0286 LP  0  0  0  0  0  0  0  0  0  0  0  0  # atno 17395 bound_to 11000

$$$$
