AV-unprocessed.smi:2124|AV-procd|sdf|8667|dock1
  -GOLD-   2272011413D 1   1.00000     0.00000
 Structure written by MMmdl.
 46 48  0  0  0  0  0  0  0  0  2 V2000
  160.1003  142.0385  160.2890 C   0  0  0  0  0  0  0  0  0  0  0  0
  158.7701  141.3159  160.3040 C   0  0  0  0  0  0  0  0  0  0  0  0
  158.1206  141.2227  161.4015 N   0  0  0  0  0  0  0  0  0  0  0  0
  156.8868  140.5500  161.4200 C   0  0  0  0  0  0  0  0  0  0  0  0
  156.1880  140.4826  162.7668 C   0  0  0  0  0  0  0  0  0  0  0  0
  156.3690  139.9952  160.2868 C   0  0  0  0  0  0  0  0  0  0  0  0
  155.0378  139.2442  160.2509 C   0  0  0  0  0  0  0  0  0  0  0  0
  154.1087  139.5568  159.0750 C   0  0  0  0  0  0  0  0  0  0  0  0
  154.2367  138.9762  157.9965 O   0  0  0  0  0  0  0  0  0  0  0  0
  153.1750  140.4925  159.3042 N   0  0  0  0  0  0  0  0  0  0  0  0
  152.1968  140.9776  158.3336 C   0  0  1  0  0  0  0  0  0  0  0  0
  151.3740  139.7903  157.8076 C   0  0  0  0  0  0  0  0  0  0  0  0
  151.3081  142.0625  158.9859 C   0  0  2  0  0  0  0  0  0  0  0  0
  150.4213  142.8556  157.9997 C   0  0  0  0  0  0  0  0  0  0  0  0
  150.7074  144.3216  158.3769 C   0  0  2  0  0  0  0  0  0  0  0  0
  152.1098  144.7071  157.8711 C   0  0  0  0  0  0  0  0  0  0  0  0
  153.0372  143.9450  158.8347 C   0  0  0  0  0  0  0  0  0  0  0  0
  152.0424  143.1963  159.7461 C   0  0  1  0  0  0  0  0  0  0  0  0
  150.9294  144.2302  159.8822 C   0  0  0  0  0  0  0  0  0  0  0  0
  157.1427  140.1355  159.0406 C   0  0  0  0  0  0  0  0  0  0  0  0
  156.7101  139.6714  157.9862 O   0  0  0  0  0  0  0  0  0  0  0  0
  158.3347  140.7945  159.1063 N   0  5  0  0  0  0  0  0  0  0  0  0
  160.3944  142.3420  161.2945 H   0  0  0  0  0  0  0  0  0  0  0  0
  160.0373  142.9314  159.6664 H   0  0  0  0  0  0  0  0  0  0  0  0
  160.8796  141.3902  159.8869 H   0  0  0  0  0  0  0  0  0  0  0  0
  155.1734  140.8745  162.6953 H   0  0  0  0  0  0  0  0  0  0  0  0
  156.7193  141.0693  163.5168 H   0  0  0  0  0  0  0  0  0  0  0  0
  156.1390  139.4528  163.1197 H   0  0  0  0  0  0  0  0  0  0  0  0
  155.2141  138.1683  160.2855 H   0  0  0  0  0  0  0  0  0  0  0  0
  154.4890  139.4619  161.1670 H   0  0  0  0  0  0  0  0  0  0  0  0
  153.1455  140.9099  160.2231 H   0  0  0  0  0  0  0  0  0  0  0  0
  152.7142  141.4207  157.4817 H   0  0  0  0  0  0  0  0  0  0  0  0
  150.6493  140.1090  157.0586 H   0  0  0  0  0  0  0  0  0  0  0  0
  150.8265  139.2980  158.6120 H   0  0  0  0  0  0  0  0  0  0  0  0
  152.0180  139.0445  157.3399 H   0  0  0  0  0  0  0  0  0  0  0  0
  150.6534  141.5656  159.7046 H   0  0  0  0  0  0  0  0  0  0  0  0
  150.6585  142.6559  156.9540 H   0  0  0  0  0  0  0  0  0  0  0  0
  149.3692  142.6105  158.1507 H   0  0  0  0  0  0  0  0  0  0  0  0
  149.9255  145.0147  158.0654 H   0  0  0  0  0  0  0  0  0  0  0  0
  152.2678  144.4234  156.8298 H   0  0  0  0  0  0  0  0  0  0  0  0
  152.2725  145.7825  157.9533 H   0  0  0  0  0  0  0  0  0  0  0  0
  153.7345  143.2859  158.3187 H   0  0  0  0  0  0  0  0  0  0  0  0
  153.6320  144.6476  159.4197 H   0  0  0  0  0  0  0  0  0  0  0  0
  152.4776  142.8767  160.6935 H   0  0  0  0  0  0  0  0  0  0  0  0
  151.2609  145.1692  160.3292 H   0  0  0  0  0  0  0  0  0  0  0  0
  150.0574  143.8635  160.4268 H   0  0  0  0  0  0  0  0  0  0  0  0
  1  2  1  0  0  0  0
  1 23  1  0  0  0  0
  1 24  1  0  0  0  0
  1 25  1  0  0  0  0
  2 22  1  0  0  0  0
  2  3  2  0  0  0  0
  3  4  1  0  0  0  0
  4  5  1  0  0  0  0
  4  6  2  0  0  0  0
  5 26  1  0  0  0  0
  5 27  1  0  0  0  0
  5 28  1  0  0  0  0
  6  7  1  0  0  0  0
  6 20  1  0  0  0  0
  7  8  1  0  0  0  0
  7 29  1  0  0  0  0
  7 30  1  0  0  0  0
  8  9  2  0  0  0  0
  8 10  1  0  0  0  0
 10 11  1  0  0  0  0
 10 31  1  0  0  0  0
 11 12  1  0  0  0  0
 11 13  1  0  0  0  0
 11 32  1  0  0  0  0
 12 33  1  0  0  0  0
 12 34  1  0  0  0  0
 12 35  1  0  0  0  0
 13 18  1  0  0  0  0
 13 14  1  0  0  0  0
 13 36  1  0  0  0  0
 14 15  1  0  0  0  0
 14 37  1  0  0  0  0
 14 38  1  0  0  0  0
 15 19  1  0  0  0  0
 15 16  1  0  0  0  0
 15 39  1  0  0  0  0
 16 17  1  0  0  0  0
 16 40  1  0  0  0  0
 16 41  1  0  0  0  0
 17 18  1  0  0  0  0
 17 42  1  0  0  0  0
 17 43  1  0  0  0  0
 18 19  1  0  0  0  0
 18 44  1  0  0  0  0
 19 45  1  0  0  0  0
 19 46  1  0  0  0  0
 20 21  2  0  0  0  0
 20 22  1  0  0  0  0
M  CHG  1  22  -1
M  END
> <s_m_source_file>
AV-unprocessed.smi

> <i_m_source_file_index>
2124

> <i_lp_mmshare_version>
43012

> <i_f3d_flags>
0

> <s_epik_input>
W0NIM11jMW5jKFtDSDNdKWMoYyg9TylbbkhdMSlbQ0gyXUMoPU8pW05IXVtDQEhdKFtDSDNdKVtDQEhdKFtDSDJdW0NASF0yMylbQ0BIXShbQ0gyXTMpW0NIMl1bQ0gyXTI=

> <s_epik_cmdline>
J2VwaWtfcHl0aG9uJywgJy1waCcsICc3LjAnLCAnLXRuJywgJzgnLCAnLW1hJywgJzIwMCcsICctbWV0YWxfYmluZGluZycsICctaW1hZScsICc8aW5maWxlLm1hZT4nLCAnLW9tYWUnLCAnPG91dGZpbGUubWFlPic=

> <r_lp_tautomer_probability>
0.839158

> <r_epik_Ionization_Penalty>
6.63797

> <r_epik_Ionization_Penalty_Charging>
7.48558e-08

> <r_epik_Ionization_Penalty_Neutral>
6.63797

> <r_epik_State_Penalty>
4.49496

> <r_epik_Charging_Adjusted_Penalty>
4.49496

> <i_epik_Tot_Q>
-1

> <i_epik_Tot_abs_Q>
1

> <r_epik_Metal_State_Penalty>
0.841241

> <b_epik_Metal_Only>
1

> <s_lp_Force_Field>
OPLS_2005

> <r_lp_Energy>
55.4984

> <b_lp_Chiralities_Consistent>
1

> <s_lp_Variant>
AV-unprocessed.smi:2124-18

> <Gold.Version>
5.8.1

> <Gold.Id.Protein>
6NUR|6NUR_protein|mol2

> <Gold.PLP.Fitness>
39.9470

> <Gold.PLP.PLP>
-37.7913

> <Gold.PLP.part.hbond>
-3.0000

> <Gold.PLP.part.metal>
0.0000

> <Gold.PLP.part.buried>
-4.9865

> <Gold.PLP.part.nonpolar>
-29.4935

> <Gold.PLP.part.repulsive>
0.5209

> <Gold.PLP.ligand.clash>
0.0000

> <Gold.PLP.ligand.torsion>
0.6805

> <Gold.PLP.Chemscore.Hbond>
1.1430

> <Gold.PLP.Chemscore.CHOScore>
0.0000

> <Gold.PLP.Chemscore.Metal>
0.0000

> <Gold.Chemscore.Hbonds>
donor molecule, donor type, donor heavy atom, donor atom, acceptor molecule, acceptor atom, score
      P1  H  7997  8008       L1    21  0.27
      P1  H  7997  8009       L1     9  0.71

> <Gold.PLP.Chemscore.Internal.Correction>
0.0878

> <Gold.Rescore>
     Score         DG    S(hbond)    S(metal)    S(lipo)     H(rot)  DE(clash)    DE(int)     intcor
     12.18     -17.12       0.73        0.00     113.87       1.61       0.12       4.81       ----

> <Gold.Chemscore.Fitness>
12.1812

> <Gold.Chemscore.DG>
-17.1182

> <Gold.Chemscore.ZeroCoef>
-5.4800

> <Gold.Chemscore.Hbond>
0.7258

> <Gold.Chemscore.Metal>
0.0000

> <Gold.Chemscore.Lipo>
113.8727

> <Gold.Chemscore.Internal_Hbond>
0.0000

> <Gold.Chemscore.DEClash>
0.1242

> <Gold.Chemscore.DEInternal>
4.8128

> <Gold.Chemscore.Rot>
1.6051

> <Gold.Chemscore.Internal.Correction>
   9.000000E+99

> <Gold.Chemscore.Hbonds>
donor molecule, donor type, donor heavy atom, donor atom, acceptor molecule, acceptor atom, score
      P1  H  7997  8008       L1    21  0.27
      P1  H  7997  8009       L1     9  0.29

> <Gold.Chemscore.Hbond.Weighted>
-2.4241

> <Gold.Chemscore.Metal.Weighted>
-0.0000

> <Gold.Chemscore.Lipo.Weighted>
-13.3231

> <Gold.Chemscore.Internal_Hbond.Weighted>
0.0000

> <Gold.Chemscore.DEClash.Weighted>
0.1242

> <Gold.Chemscore.DEInternal.Weighted>
4.8128

> <Gold.Chemscore.Rot.Weighted>
4.1090

> <Gold.Chemscore.Internal.Correction.Weighted>
   9.000000E+99

> <Gold.Protein.RotatedTorsions>
[ 6907 6896 6895 6894 ] final   70.21 input  -60.11 | X-H torsion
[ 7974 7965 7964 7962 ] final  164.47 input  175.53 | X-H torsion
[ 8008 7997 7996 7995 ] final  143.09 input   59.86 | X-H torsion
[ 10167 10162 10161 10158 ] final   -0.37 input  -65.29 | X-H torsion
[ 10718 10713 10712 10709 ] final   72.86 input   66.30 | X-H torsion
[ 10763 10752 10751 10750 ] final   60.64 input  -60.55 | X-H torsion
[ 11005 11000 10999 10996 ] final -151.36 input  -57.11 | X-H torsion

> <Gold.Protein.ActiveResidues>
 VAL166  LYS551  ARG553  GLY616  TRP617  ASP618  TYR619  PRO620  LYS621  CYS622 
 ASP623  PHE694  ASN695  SER759  ASP760  ASP761  ALA762  ILE779  LEU786  VAL792 
 PHE793  MET794  SER795  GLU796  ALA797  LYS798  CYS799  TRP800  GLU811  SER814 

> <Gold.Protein.RotatedAtoms>
  152.4735  134.4902  159.9692 H   0  0  0  0  0  0  0  0  0  0  0  0  # atno 6907 bound_to 6896
  151.4924  133.3516  159.2863 H   0  0  0  0  0  0  0  0  0  0  0  0  # atno 6908 bound_to 6896
  150.8759  134.8169  159.7250 H   0  0  0  0  0  0  0  0  0  0  0  0  # atno 6909 bound_to 6896
  144.7544  139.8330  143.6355 H   0  0  0  0  0  0  0  0  0  0  0  0  # atno 7974 bound_to 7965
  156.2937  140.2271  156.4835 H   0  0  0  0  0  0  0  0  0  0  0  0  # atno 8008 bound_to 7997
  154.7833  140.0459  157.1165 H   0  0  0  0  0  0  0  0  0  0  0  0  # atno 8009 bound_to 7997
  154.9733  140.3069  155.4982 H   0  0  0  0  0  0  0  0  0  0  0  0  # atno 8010 bound_to 7997
  140.6764  143.6902  150.8033 H   0  0  0  0  0  0  0  0  0  0  0  0  # atno 10167 bound_to 10162
  157.6521  130.9600  150.0988 H   0  0  0  0  0  0  0  0  0  0  0  0  # atno 10718 bound_to 10713
  152.9927  135.5529  154.5905 H   0  0  0  0  0  0  0  0  0  0  0  0  # atno 10763 bound_to 10752
  154.5268  135.2811  155.1217 H   0  0  0  0  0  0  0  0  0  0  0  0  # atno 10764 bound_to 10752
  154.2548  135.6392  153.5306 H   0  0  0  0  0  0  0  0  0  0  0  0  # atno 10765 bound_to 10752
  140.7304  134.3627  157.5167 H   0  0  0  0  0  0  0  0  0  0  0  0  # atno 11005 bound_to 11000
  146.1535  139.4626  143.0033 LP  0  0  0  0  0  0  0  0  0  0  0  0  # atno 17320 bound_to 7965
  145.6831  141.0185  143.1595 LP  0  0  0  0  0  0  0  0  0  0  0  0  # atno 17321 bound_to 7965
  140.0596  143.5168  152.2634 LP  0  0  0  0  0  0  0  0  0  0  0  0  # atno 17342 bound_to 10162
  139.6060  144.7596  151.3062 LP  0  0  0  0  0  0  0  0  0  0  0  0  # atno 17343 bound_to 10162
  156.1917  130.3655  149.8902 LP  0  0  0  0  0  0  0  0  0  0  0  0  # atno 17370 bound_to 10713
  156.6828  130.8865  151.3578 LP  0  0  0  0  0  0  0  0  0  0  0  0  # atno 17371 bound_to 10713
  139.8827  134.9014  156.2811 LP  0  0  0  0  0  0  0  0  0  0  0  0  # atno 17394 bound_to 11000
  140.9926  133.7199  156.0837 LP  0  0  0  0  0  0  0  0  0  0  0  0  # atno 17395 bound_to 11000

$$$$
