AV-unprocessed.smi:1048|AV-procd|sdf|4605|dock8
  -GOLD-   22720 3103D 1   1.00000     0.00000
 Structure written by MMmdl.
 46 47  0  0  0  0  0  0  0  0  2 V2000
  145.7420  132.9034  150.8951 C   0  0  0  0  0  0  0  0  0  0  0  0
  145.5666  134.1562  151.7649 C   0  0  2  0  0  0  0  0  0  0  0  0
  145.6726  135.4462  150.9338 C   0  0  0  0  0  0  0  0  0  0  0  0
  145.5334  136.6960  151.8189 C   0  0  0  0  0  0  0  0  0  0  0  0
  146.5471  136.6967  152.9041 N   0  3  1  0  0  0  0  0  0  0  0  0
  146.5434  137.9606  153.6855 C   0  0  0  0  0  0  0  0  0  0  0  0
  147.9226  138.2730  154.3012 C   0  0  1  0  0  0  0  0  0  0  0  0
  148.7996  138.5771  153.2334 O   0  0  0  0  0  0  0  0  0  0  0  0
  147.8604  139.4859  155.2514 C   0  0  0  0  0  0  0  0  0  0  0  0
  149.1372  139.7193  155.9183 N   0  0  0  0  0  0  0  0  0  0  0  0
  149.4534  140.8242  156.6082 C   0  0  0  0  0  0  0  0  0  0  0  0
  148.6828  141.7719  156.7585 O   0  0  0  0  0  0  0  0  0  0  0  0
  150.7093  140.7567  157.0823 N   0  0  0  0  0  0  0  0  0  0  0  0
  151.4202  141.7182  157.8505 C   0  0  0  0  0  0  0  0  0  0  0  0
  152.2491  141.2495  158.8905 C   0  0  0  0  0  0  0  0  0  0  0  0
  152.9534  142.1783  159.6797 C   0  0  0  0  0  0  0  0  0  0  0  0
  152.7935  143.5494  159.4021 C   0  0  0  0  0  0  0  0  0  0  0  0
  151.9937  144.0171  158.4210 N   0  0  0  0  0  0  0  0  0  0  0  0
  151.3224  143.1203  157.6666 C   0  0  0  0  0  0  0  0  0  0  0  0
  146.4378  135.4794  153.7512 C   0  0  0  0  0  0  0  0  0  0  0  0
  146.5948  134.2027  152.9082 C   0  0  0  0  0  0  0  0  0  0  0  0
  146.7236  132.8834  150.4207 H   0  0  0  0  0  0  0  0  0  0  0  0
  144.9911  132.8647  150.1054 H   0  0  0  0  0  0  0  0  0  0  0  0
  145.6419  131.9950  151.4900 H   0  0  0  0  0  0  0  0  0  0  0  0
  144.5693  134.1170  152.2059 H   0  0  0  0  0  0  0  0  0  0  0  0
  146.6317  135.4747  150.4145 H   0  0  0  0  0  0  0  0  0  0  0  0
  144.9033  135.4571  150.1608 H   0  0  0  0  0  0  0  0  0  0  0  0
  145.6553  137.5851  151.1991 H   0  0  0  0  0  0  0  0  0  0  0  0
  144.5332  136.7448  152.2525 H   0  0  0  0  0  0  0  0  0  0  0  0
  146.2535  138.7948  153.0442 H   0  0  0  0  0  0  0  0  0  0  0  0
  145.7783  137.8987  154.4610 H   0  0  0  0  0  0  0  0  0  0  0  0
  148.3023  137.4062  154.8419 H   0  0  0  0  0  0  0  0  0  0  0  0
  149.0187  137.7762  152.7812 H   0  0  0  0  0  0  0  0  0  0  0  0
  147.5035  140.3809  154.7381 H   0  0  0  0  0  0  0  0  0  0  0  0
  147.1391  139.2873  156.0448 H   0  0  0  0  0  0  0  0  0  0  0  0
  149.8314  138.9900  155.8448 H   0  0  0  0  0  0  0  0  0  0  0  0
  151.2407  139.9418  156.8135 H   0  0  0  0  0  0  0  0  0  0  0  0
  152.3498  140.1908  159.0808 H   0  0  0  0  0  0  0  0  0  0  0  0
  153.5999  141.8478  160.4791 H   0  0  0  0  0  0  0  0  0  0  0  0
  153.3172  144.2906  159.9876 H   0  0  0  0  0  0  0  0  0  0  0  0
  150.6810  143.5567  156.9177 H   0  0  0  0  0  0  0  0  0  0  0  0
  147.2020  135.4856  154.5274 H   0  0  0  0  0  0  0  0  0  0  0  0
  145.4729  135.4746  154.2611 H   0  0  0  0  0  0  0  0  0  0  0  0
  146.4809  133.3263  153.5471 H   0  0  0  0  0  0  0  0  0  0  0  0
  147.6059  134.1582  152.5007 H   0  0  0  0  0  0  0  0  0  0  0  0
  147.4461  136.6568  152.4444 H   0  0  0  0  0  0  0  0  0  0  0  0
  1  2  1  0  0  0  0
  1 22  1  0  0  0  0
  1 23  1  0  0  0  0
  1 24  1  0  0  0  0
  2 21  1  0  0  0  0
  2  3  1  0  0  0  0
  2 25  1  0  0  0  0
  3  4  1  0  0  0  0
  3 26  1  0  0  0  0
  3 27  1  0  0  0  0
  4  5  1  0  0  0  0
  4 28  1  0  0  0  0
  4 29  1  0  0  0  0
  5  6  1  0  0  0  0
  5 20  1  0  0  0  0
  5 46  1  0  0  0  0
  6  7  1  0  0  0  0
  6 30  1  0  0  0  0
  6 31  1  0  0  0  0
  7  8  1  0  0  0  0
  7  9  1  0  0  0  0
  7 32  1  0  0  0  0
  8 33  1  0  0  0  0
  9 10  1  0  0  0  0
  9 34  1  0  0  0  0
  9 35  1  0  0  0  0
 10 11  1  0  0  0  0
 10 36  1  0  0  0  0
 11 12  2  0  0  0  0
 11 13  1  0  0  0  0
 13 14  1  0  0  0  0
 13 37  1  0  0  0  0
 14 19  1  0  0  0  0
 14 15  2  0  0  0  0
 15 16  1  0  0  0  0
 15 38  1  0  0  0  0
 16 17  2  0  0  0  0
 16 39  1  0  0  0  0
 17 18  1  0  0  0  0
 17 40  1  0  0  0  0
 18 19  2  0  0  0  0
 19 41  1  0  0  0  0
 20 21  1  0  0  0  0
 20 42  1  0  0  0  0
 20 43  1  0  0  0  0
 21 44  1  0  0  0  0
 21 45  1  0  0  0  0
M  CHG  1   5   1
M  END
> <s_m_source_file>
AV-unprocessed.smi

> <i_m_source_file_index>
1048

> <i_lp_mmshare_version>
43012

> <i_f3d_flags>
0

> <s_epik_input>
W0NIM11bQ0hdMVtDSDJdW0NIMl1OKFtDSDJdW0NIMl0xKVtDSDJdW0NASF0oW09IXSlbQ0gyXVtOSF1DKD1PKVtOSF1jMltjSF1bY0hdW2NIXW5bY0hdMg==

> <s_epik_cmdline>
J2VwaWtfcHl0aG9uJywgJy1waCcsICc3LjAnLCAnLXRuJywgJzgnLCAnLW1hJywgJzIwMCcsICctbWV0YWxfYmluZGluZycsICctaW1hZScsICc8aW5maWxlLm1hZT4nLCAnLW9tYWUnLCAnPG91dGZpbGUubWFlPic=

> <r_lp_tautomer_probability>
1

> <r_epik_Ionization_Penalty>
0.00581049

> <r_epik_Ionization_Penalty_Charging>
0.00147689

> <r_epik_Ionization_Penalty_Neutral>
0.0043336

> <r_epik_State_Penalty>
-0

> <r_epik_Charging_Adjusted_Penalty>
0.00147689

> <i_epik_Tot_Q>
1

> <i_epik_Tot_abs_Q>
1

> <r_epik_Metal_State_Penalty>
-0

> <b_epik_Metal_Only>
0

> <s_lp_Force_Field>
OPLS_2005

> <r_lp_Energy>
22.9407

> <b_lp_Chiralities_Consistent>
1

> <s_lp_Variant>
AV-unprocessed.smi:1048-2

> <Gold.Version>
5.8.1

> <Gold.Id.Protein>
6NUR|6NUR_protein|mol2

> <Gold.PLP.Fitness>
43.6993

> <Gold.PLP.PLP>
-32.9907

> <Gold.PLP.part.hbond>
-3.0000

> <Gold.PLP.part.metal>
0.0000

> <Gold.PLP.part.buried>
-5.7560

> <Gold.PLP.part.nonpolar>
-25.0093

> <Gold.PLP.part.repulsive>
0.3797

> <Gold.PLP.ligand.clash>
0.0000

> <Gold.PLP.ligand.torsion>
0.6649

> <Gold.PLP.Chemscore.Hbond>
3.0000

> <Gold.PLP.Chemscore.CHOScore>
1.0000

> <Gold.PLP.Chemscore.Metal>
0.0000

> <Gold.Chemscore.Hbonds>
donor molecule, donor type, donor heavy atom, donor atom, acceptor molecule, acceptor atom, score
      L1  H     5    46       P1  7948  2.00
      L1  H     8    33       P1  7948  1.00
      L1  C    19    41       P1  8028  1.00

> <Gold.PLP.Chemscore.Internal.Correction>
0.0383

> <Gold.Rescore>
     Score         DG    S(hbond)    S(metal)    S(lipo)     H(rot)  DE(clash)    DE(int)     intcor
     16.47     -17.25       2.00        0.00      93.58       2.29       0.09       0.69       ----

> <Gold.Chemscore.Fitness>
16.4686

> <Gold.Chemscore.DG>
-17.2455

> <Gold.Chemscore.ZeroCoef>
-5.4800

> <Gold.Chemscore.Hbond>
1.9970

> <Gold.Chemscore.Metal>
0.0000

> <Gold.Chemscore.Lipo>
93.5813

> <Gold.Chemscore.Internal_Hbond>
0.0000

> <Gold.Chemscore.DEClash>
0.0917

> <Gold.Chemscore.DEInternal>
0.6852

> <Gold.Chemscore.Rot>
2.2865

> <Gold.Chemscore.Internal.Correction>
   9.000000E+99

> <Gold.Chemscore.Hbonds>
donor molecule, donor type, donor heavy atom, donor atom, acceptor molecule, acceptor atom, score
      L1  H     5    46       P1  7948  1.00
      L1  H     8    33       P1  7948  1.00

> <Gold.Chemscore.Hbond.Weighted>
-6.6700

> <Gold.Chemscore.Metal.Weighted>
-0.0000

> <Gold.Chemscore.Lipo.Weighted>
-10.9490

> <Gold.Chemscore.Internal_Hbond.Weighted>
0.0000

> <Gold.Chemscore.DEClash.Weighted>
0.0917

> <Gold.Chemscore.DEInternal.Weighted>
0.6852

> <Gold.Chemscore.Rot.Weighted>
5.8536

> <Gold.Chemscore.Internal.Correction.Weighted>
   9.000000E+99

> <Gold.Protein.RotatedTorsions>
[ 6907 6896 6895 6894 ] final  -74.74 input  -60.11 | X-H torsion
[ 7974 7965 7964 7962 ] final  -26.46 input  175.53 | X-H torsion
[ 8008 7997 7996 7995 ] final   18.34 input   59.86 | X-H torsion
[ 10167 10162 10161 10158 ] final  166.55 input  -65.29 | X-H torsion
[ 10718 10713 10712 10709 ] final   41.30 input   66.30 | X-H torsion
[ 10763 10752 10751 10750 ] final -135.23 input  -60.55 | X-H torsion
[ 11005 11000 10999 10996 ] final  -36.79 input  -57.11 | X-H torsion

> <Gold.Protein.ActiveResidues>
 VAL166  LYS551  ARG553  GLY616  TRP617  ASP618  TYR619  PRO620  LYS621  CYS622 
 ASP623  PHE694  ASN695  SER759  ASP760  ASP761  ALA762  ILE779  LEU786  VAL792 
 PHE793  MET794  SER795  GLU796  ALA797  LYS798  CYS799  TRP800  GLU811  SER814 

> <Gold.Protein.RotatedAtoms>
  150.7082  134.4824  159.5476 H   0  0  0  0  0  0  0  0  0  0  0  0  # atno 6907 bound_to 6896
  152.2458  134.8180  160.0462 H   0  0  0  0  0  0  0  0  0  0  0  0  # atno 6908 bound_to 6896
  151.8945  133.3488  159.3846 H   0  0  0  0  0  0  0  0  0  0  0  0  # atno 6909 bound_to 6896
  146.1424  140.5023  142.8646 H   0  0  0  0  0  0  0  0  0  0  0  0  # atno 7974 bound_to 7965
  154.9046  140.3005  155.5299 H   0  0  0  0  0  0  0  0  0  0  0  0  # atno 8008 bound_to 7997
  156.3017  140.2400  156.4013 H   0  0  0  0  0  0  0  0  0  0  0  0  # atno 8009 bound_to 7997
  154.8486  140.0410  157.1578 H   0  0  0  0  0  0  0  0  0  0  0  0  # atno 8010 bound_to 7997
  139.4927  144.4015  151.9404 H   0  0  0  0  0  0  0  0  0  0  0  0  # atno 10167 bound_to 10162
  157.3920  130.7812  149.7277 H   0  0  0  0  0  0  0  0  0  0  0  0  # atno 10718 bound_to 10713
  154.8706  135.3710  154.4864 H   0  0  0  0  0  0  0  0  0  0  0  0  # atno 10763 bound_to 10752
  153.5514  135.7024  153.5594 H   0  0  0  0  0  0  0  0  0  0  0  0  # atno 10764 bound_to 10752
  153.3712  135.4021  155.1754 H   0  0  0  0  0  0  0  0  0  0  0  0  # atno 10765 bound_to 10752
  140.9902  133.7009  156.1836 H   0  0  0  0  0  0  0  0  0  0  0  0  # atno 11005 bound_to 11000
  144.7807  140.5834  143.6607 LP  0  0  0  0  0  0  0  0  0  0  0  0  # atno 17320 bound_to 7965
  145.5017  139.1483  143.3654 LP  0  0  0  0  0  0  0  0  0  0  0  0  # atno 17321 bound_to 7965
  140.3454  144.3152  150.5959 LP  0  0  0  0  0  0  0  0  0  0  0  0  # atno 17342 bound_to 10162
  140.5530  143.2203  151.7895 LP  0  0  0  0  0  0  0  0  0  0  0  0  # atno 17343 bound_to 10162
  155.9801  130.4033  150.3550 LP  0  0  0  0  0  0  0  0  0  0  0  0  # atno 17370 bound_to 10713
  157.1667  131.0358  151.2815 LP  0  0  0  0  0  0  0  0  0  0  0  0  # atno 17371 bound_to 10713
  140.7052  134.4521  157.5584 LP  0  0  0  0  0  0  0  0  0  0  0  0  # atno 17394 bound_to 11000
  139.8989  134.8604  156.1984 LP  0  0  0  0  0  0  0  0  0  0  0  0  # atno 17395 bound_to 11000

$$$$
