AV-unprocessed.smi:1689|AV-procd|sdf|6772|dock1
  -GOLD-   22720 7533D 1   1.00000     0.00000
 Structure written by MMmdl.
 40 42  0  0  0  0  0  0  0  0  1 V2000
  153.3928  136.8264  156.1903 N   0  0  0  0  0  0  0  0  0  0  0  0
  152.8987  137.8288  156.4911 C   0  0  0  0  0  0  0  0  0  0  0  0
  152.3193  139.0751  156.8689 C   0  0  0  0  0  0  0  0  0  0  0  0
  152.4734  139.5824  158.1108 C   0  0  0  0  0  0  0  0  0  0  0  0
  151.9155  140.7815  158.5031 N   0  0  0  0  0  0  0  0  0  0  0  0
  152.2247  141.3683  159.7765 C   0  0  0  0  0  0  0  0  0  0  0  0
  152.7944  142.7696  159.8203 C   0  0  0  0  0  0  0  0  0  0  0  0
  153.6674  141.5941  160.1857 C   0  0  0  0  0  0  0  0  0  0  0  0
  151.2144  141.5786  157.5718 C   0  0  0  0  0  0  0  0  0  0  0  0
  150.7939  142.6972  157.8795 O   0  0  0  0  0  0  0  0  0  0  0  0
  151.0365  141.0411  156.2720 N   0  0  0  0  0  0  0  0  0  0  0  0
  150.2960  141.8282  155.2922 C   0  0  0  0  0  0  0  0  0  0  0  0
  148.9012  141.2732  154.8688 C   0  0  0  0  0  0  0  0  0  0  0  0
  149.1389  140.2232  153.9489 O   0  0  0  0  0  0  0  0  0  0  0  0
  148.2113  140.6296  156.0966 C   0  0  0  0  0  0  0  0  0  0  0  0
  146.8067  140.0790  155.7881 C   0  0  0  0  0  0  0  0  0  0  0  0
  145.9089  141.1565  155.1652 C   0  0  0  0  0  0  0  0  0  0  0  0
  146.5567  141.7473  153.9057 C   0  0  0  0  0  0  0  0  0  0  0  0
  147.9566  142.3114  154.2080 C   0  0  0  0  0  0  0  0  0  0  0  0
  151.5528  139.7892  155.8505 C   0  0  0  0  0  0  0  0  0  0  0  0
  151.3659  139.3555  154.7125 O   0  0  0  0  0  0  0  0  0  0  0  0
  153.0530  139.0244  158.8321 H   0  0  0  0  0  0  0  0  0  0  0  0
  151.5400  141.1112  160.5827 H   0  0  0  0  0  0  0  0  0  0  0  0
  153.0022  143.2689  158.8759 H   0  0  0  0  0  0  0  0  0  0  0  0
  152.4644  143.4200  160.6275 H   0  0  0  0  0  0  0  0  0  0  0  0
  153.9169  141.4583  161.2360 H   0  0  0  0  0  0  0  0  0  0  0  0
  154.4520  141.3214  159.4821 H   0  0  0  0  0  0  0  0  0  0  0  0
  150.2309  142.8486  155.6762 H   0  0  0  0  0  0  0  0  0  0  0  0
  150.9447  141.9349  154.4219 H   0  0  0  0  0  0  0  0  0  0  0  0
  149.3091  140.6022  153.1002 H   0  0  0  0  0  0  0  0  0  0  0  0
  148.8346  139.8340  156.5075 H   0  0  0  0  0  0  0  0  0  0  0  0
  148.1192  141.3765  156.8864 H   0  0  0  0  0  0  0  0  0  0  0  0
  146.8808  139.2274  155.1110 H   0  0  0  0  0  0  0  0  0  0  0  0
  146.3500  139.7013  156.7033 H   0  0  0  0  0  0  0  0  0  0  0  0
  144.9340  140.7340  154.9205 H   0  0  0  0  0  0  0  0  0  0  0  0
  145.7295  141.9500  155.8919 H   0  0  0  0  0  0  0  0  0  0  0  0
  146.6240  140.9805  153.1331 H   0  0  0  0  0  0  0  0  0  0  0  0
  145.9224  142.5354  153.4990 H   0  0  0  0  0  0  0  0  0  0  0  0
  147.8390  143.1675  154.8726 H   0  0  0  0  0  0  0  0  0  0  0  0
  148.3929  142.6954  153.2851 H   0  0  0  0  0  0  0  0  0  0  0  0
  1  2  3  0  0  0  0
  2  3  1  0  0  0  0
  3 20  1  0  0  0  0
  3  4  2  0  0  0  0
  4  5  1  0  0  0  0
  4 22  1  0  0  0  0
  5  6  1  0  0  0  0
  5  9  1  0  0  0  0
  6  8  1  0  0  0  0
  6  7  1  0  0  0  0
  6 23  1  0  0  0  0
  7  8  1  0  0  0  0
  7 24  1  0  0  0  0
  7 25  1  0  0  0  0
  8 26  1  0  0  0  0
  8 27  1  0  0  0  0
  9 10  2  0  0  0  0
  9 11  1  0  0  0  0
 11 12  1  0  0  0  0
 11 20  1  0  0  0  0
 12 13  1  0  0  0  0
 12 28  1  0  0  0  0
 12 29  1  0  0  0  0
 13 19  1  0  0  0  0
 13 14  1  0  0  0  0
 13 15  1  0  0  0  0
 14 30  1  0  0  0  0
 15 16  1  0  0  0  0
 15 31  1  0  0  0  0
 15 32  1  0  0  0  0
 16 17  1  0  0  0  0
 16 33  1  0  0  0  0
 16 34  1  0  0  0  0
 17 18  1  0  0  0  0
 17 35  1  0  0  0  0
 17 36  1  0  0  0  0
 18 19  1  0  0  0  0
 18 37  1  0  0  0  0
 18 38  1  0  0  0  0
 19 39  1  0  0  0  0
 19 40  1  0  0  0  0
 20 21  2  0  0  0  0
M  END
> <s_m_source_file>
AV-unprocessed.smi

> <i_m_source_file_index>
1689

> <i_lp_mmshare_version>
43012

> <i_f3d_flags>
0

> <s_epik_input>
TiNDYzFbY0hdbihbQ0hdMltDSDJdW0NIMl0yKWMoPU8pbihjMT1PKVtDSDJdQzMoW09IXSlbQ0gyXVtDSDJdW0NIMl1bQ0gyXVtDSDJdMw==

> <s_epik_cmdline>
J2VwaWtfcHl0aG9uJywgJy1waCcsICc3LjAnLCAnLXRuJywgJzgnLCAnLW1hJywgJzIwMCcsICctbWV0YWxfYmluZGluZycsICctaW1hZScsICc8aW5maWxlLm1hZT4nLCAnLW9tYWUnLCAnPG91dGZpbGUubWFlPic=

> <r_lp_tautomer_probability>
1

> <r_epik_Ionization_Penalty>
3.88729e-07

> <r_epik_Ionization_Penalty_Charging>
1.71084e-09

> <r_epik_Ionization_Penalty_Neutral>
3.87018e-07

> <r_epik_State_Penalty>
-0

> <r_epik_Charging_Adjusted_Penalty>
1.71084e-09

> <i_epik_Tot_Q>
0

> <i_epik_Tot_abs_Q>
0

> <r_epik_Metal_State_Penalty>
-0

> <b_epik_Metal_Only>
0

> <s_lp_Force_Field>
OPLS_2005

> <r_lp_Energy>
46.863

> <b_lp_Chiralities_Consistent>
1

> <s_lp_Variant>
AV-unprocessed.smi:1689-1

> <Gold.Version>
5.8.1

> <Gold.Id.Protein>
6NUR|6NUR_protein|mol2

> <Gold.PLP.Fitness>
43.7267

> <Gold.PLP.PLP>
-36.5458

> <Gold.PLP.part.hbond>
-2.9069

> <Gold.PLP.part.metal>
0.0000

> <Gold.PLP.part.buried>
-3.5296

> <Gold.PLP.part.nonpolar>
-30.7893

> <Gold.PLP.part.repulsive>
0.1763

> <Gold.PLP.ligand.clash>
0.0000

> <Gold.PLP.ligand.torsion>
0.4886

> <Gold.PLP.Chemscore.Hbond>
2.5200

> <Gold.PLP.Chemscore.CHOScore>
0.0000

> <Gold.PLP.Chemscore.Metal>
0.0000

> <Gold.Chemscore.Hbonds>
donor molecule, donor type, donor heavy atom, donor atom, acceptor molecule, acceptor atom, score
      L1  H    14    30       P1  7957  0.80
      P1  H  7989  7998       L1    21  1.00
      P1  H 10752 10763       L1     1  0.62

> <Gold.PLP.Chemscore.Internal.Correction>
0.5980

> <Gold.Rescore>
     Score         DG    S(hbond)    S(metal)    S(lipo)     H(rot)  DE(clash)    DE(int)     intcor
     13.04     -16.76       2.22        0.00      75.46       1.94       0.20       3.52       ----

> <Gold.Chemscore.Fitness>
13.0404

> <Gold.Chemscore.DG>
-16.7600

> <Gold.Chemscore.ZeroCoef>
-5.4800

> <Gold.Chemscore.Hbond>
2.2230

> <Gold.Chemscore.Metal>
0.0000

> <Gold.Chemscore.Lipo>
75.4589

> <Gold.Chemscore.Internal_Hbond>
0.0000

> <Gold.Chemscore.DEClash>
0.2025

> <Gold.Chemscore.DEInternal>
3.5170

> <Gold.Chemscore.Rot>
1.9428

> <Gold.Chemscore.Internal.Correction>
   9.000000E+99

> <Gold.Chemscore.Hbonds>
donor molecule, donor type, donor heavy atom, donor atom, acceptor molecule, acceptor atom, score
      L1  H    14    30       P1  7957  0.75
      P1  H  7989  7998       L1    21  0.60
      P1  H 10752 10763       L1     1  0.62

> <Gold.Chemscore.Hbond.Weighted>
-7.4248

> <Gold.Chemscore.Metal.Weighted>
-0.0000

> <Gold.Chemscore.Lipo.Weighted>
-8.8287

> <Gold.Chemscore.Internal_Hbond.Weighted>
0.0000

> <Gold.Chemscore.DEClash.Weighted>
0.2025

> <Gold.Chemscore.DEInternal.Weighted>
3.5170

> <Gold.Chemscore.Rot.Weighted>
4.9735

> <Gold.Chemscore.Internal.Correction.Weighted>
   9.000000E+99

> <Gold.Protein.RotatedTorsions>
[ 6907 6896 6895 6894 ] final   91.54 input  -60.11 | X-H torsion
[ 7974 7965 7964 7962 ] final  167.59 input  175.53 | X-H torsion
[ 8008 7997 7996 7995 ] final -142.52 input   59.86 | X-H torsion
[ 10167 10162 10161 10158 ] final  171.96 input  -65.29 | X-H torsion
[ 10718 10713 10712 10709 ] final -115.82 input   66.30 | X-H torsion
[ 10763 10752 10751 10750 ] final  125.48 input  -60.55 | X-H torsion
[ 11005 11000 10999 10996 ] final  149.47 input  -57.11 | X-H torsion

> <Gold.Protein.ActiveResidues>
 VAL166  LYS551  ARG553  GLY616  TRP617  ASP618  TYR619  PRO620  LYS621  CYS622 
 ASP623  PHE694  ASN695  SER759  ASP760  ASP761  ALA762  ILE779  LEU786  VAL792 
 PHE793  MET794  SER795  GLU796  ALA797  LYS798  CYS799  TRP800  GLU811  SER814 

> <Gold.Protein.RotatedAtoms>
  152.5450  134.1641  159.8569 H   0  0  0  0  0  0  0  0  0  0  0  0  # atno 6907 bound_to 6896
  151.1656  133.4810  159.2601 H   0  0  0  0  0  0  0  0  0  0  0  0  # atno 6908 bound_to 6896
  151.1327  135.0150  159.8645 H   0  0  0  0  0  0  0  0  0  0  0  0  # atno 6909 bound_to 6896
  144.7419  139.8783  143.6394 H   0  0  0  0  0  0  0  0  0  0  0  0  # atno 7974 bound_to 7965
  155.4955  140.0571  157.2947 H   0  0  0  0  0  0  0  0  0  0  0  0  # atno 8008 bound_to 7997
  154.4607  140.1995  156.0204 H   0  0  0  0  0  0  0  0  0  0  0  0  # atno 8009 bound_to 7997
  156.0884  140.3237  155.7788 H   0  0  0  0  0  0  0  0  0  0  0  0  # atno 8010 bound_to 7997
  139.5062  144.3427  152.0002 H   0  0  0  0  0  0  0  0  0  0  0  0  # atno 10167 bound_to 10162
  156.0921  130.6102  150.8956 H   0  0  0  0  0  0  0  0  0  0  0  0  # atno 10718 bound_to 10713
  153.6780  135.3319  155.3171 H   0  0  0  0  0  0  0  0  0  0  0  0  # atno 10763 bound_to 10752
  154.8473  135.4402  154.1636 H   0  0  0  0  0  0  0  0  0  0  0  0  # atno 10764 bound_to 10752
  153.2645  135.6994  153.7621 H   0  0  0  0  0  0  0  0  0  0  0  0  # atno 10765 bound_to 10752
  140.1048  134.8961  157.1849 H   0  0  0  0  0  0  0  0  0  0  0  0  # atno 11005 bound_to 11000
  146.1230  139.4251  143.0216 LP  0  0  0  0  0  0  0  0  0  0  0  0  # atno 17320 bound_to 7965
  145.7277  141.0053  143.1368 LP  0  0  0  0  0  0  0  0  0  0  0  0  # atno 17321 bound_to 7965
  140.2865  144.3802  150.6102 LP  0  0  0  0  0  0  0  0  0  0  0  0  # atno 17342 bound_to 10162
  140.5979  143.2167  151.7129 LP  0  0  0  0  0  0  0  0  0  0  0  0  # atno 17343 bound_to 10162
  157.6073  131.0938  150.8856 LP  0  0  0  0  0  0  0  0  0  0  0  0  # atno 17370 bound_to 10713
  156.9002  130.5244  149.5283 LP  0  0  0  0  0  0  0  0  0  0  0  0  # atno 17371 bound_to 10713
  140.3171  134.2958  155.7254 LP  0  0  0  0  0  0  0  0  0  0  0  0  # atno 17394 bound_to 11000
  141.2115  133.7686  156.9858 LP  0  0  0  0  0  0  0  0  0  0  0  0  # atno 17395 bound_to 11000

$$$$
