AV-unprocessed.smi:447|AV-procd|sdf|2601|dock3
  -GOLD-   2262022593D 1   1.00000     0.00000
 Structure written by MMmdl.
 46 48  0  0  0  0  0  0  0  0  2 V2000
  150.7817  138.9508  154.2232 C   0  0  0  0  0  0  0  0  0  0  0  0
  151.7781  139.2663  155.3336 C   0  0  0  0  0  0  0  0  0  0  0  0
  152.9470  139.5294  155.0548 O   0  0  0  0  0  0  0  0  0  0  0  0
  151.3034  139.2384  156.5887 N   0  0  0  0  0  0  0  0  0  0  0  0
  152.0922  139.4795  157.7951 C   0  0  2  0  0  0  0  0  0  0  0  0
  151.6747  138.4853  158.8868 C   0  0  0  0  0  0  0  0  0  0  0  0
  151.9737  140.8901  158.2989 C   0  0  0  0  0  0  0  0  0  0  0  0
  151.2557  141.8961  157.7198 N   0  3  0  0  0  0  0  0  0  0  0  0
  151.3781  143.0628  158.4743 C   0  0  0  0  0  0  0  0  0  0  0  0
  150.8447  144.3336  158.2821 C   0  0  0  0  0  0  0  0  0  0  0  0
  151.1683  145.3086  159.2486 C   0  0  0  0  0  0  0  0  0  0  0  0
  151.9906  145.0035  160.3527 C   0  0  0  0  0  0  0  0  0  0  0  0
  152.5241  143.7108  160.5376 C   0  0  0  0  0  0  0  0  0  0  0  0
  152.2003  142.7536  159.5762 C   0  0  0  0  0  0  0  0  0  0  0  0
  152.5385  141.4039  159.4309 N   0  0  0  0  0  0  0  0  0  0  0  0
  153.4005  140.7732  160.4430 C   0  0  0  0  0  0  0  0  0  0  0  0
  154.8524  140.5845  159.9594 C   0  0  2  0  0  0  0  0  0  0  0  0
  154.8879  139.6266  158.9200 O   0  0  0  0  0  0  0  0  0  0  0  0
  155.7759  140.2196  161.1105 C   0  0  0  0  0  0  0  0  0  0  0  0
  157.1428  139.9680  160.8642 C   0  0  0  0  0  0  0  0  0  0  0  0
  158.0056  139.6330  161.9258 C   0  0  0  0  0  0  0  0  0  0  0  0
  157.5075  139.5511  163.2402 C   0  0  0  0  0  0  0  0  0  0  0  0
  156.1461  139.8067  163.4930 C   0  0  0  0  0  0  0  0  0  0  0  0
  155.2825  140.1411  162.4317 C   0  0  0  0  0  0  0  0  0  0  0  0
  149.7701  139.2442  154.5064 H   0  0  0  0  0  0  0  0  0  0  0  0
  150.7833  137.8821  154.0087 H   0  0  0  0  0  0  0  0  0  0  0  0
  151.0456  139.4841  153.3094 H   0  0  0  0  0  0  0  0  0  0  0  0
  150.3290  139.0084  156.7204 H   0  0  0  0  0  0  0  0  0  0  0  0
  153.1377  139.2890  157.5482 H   0  0  0  0  0  0  0  0  0  0  0  0
  152.2865  138.6048  159.7815 H   0  0  0  0  0  0  0  0  0  0  0  0
  151.7908  137.4560  158.5459 H   0  0  0  0  0  0  0  0  0  0  0  0
  150.6323  138.6261  159.1756 H   0  0  0  0  0  0  0  0  0  0  0  0
  150.2147  144.5700  157.4371 H   0  0  0  0  0  0  0  0  0  0  0  0
  150.7787  146.3106  159.1403 H   0  0  0  0  0  0  0  0  0  0  0  0
  152.2174  145.7765  161.0729 H   0  0  0  0  0  0  0  0  0  0  0  0
  153.1537  143.4870  161.3861 H   0  0  0  0  0  0  0  0  0  0  0  0
  153.3688  141.3816  161.3475 H   0  0  0  0  0  0  0  0  0  0  0  0
  152.9584  139.8128  160.7099 H   0  0  0  0  0  0  0  0  0  0  0  0
  155.2051  141.5212  159.5263 H   0  0  0  0  0  0  0  0  0  0  0  0
  155.2481  138.8233  159.2638 H   0  0  0  0  0  0  0  0  0  0  0  0
  157.5354  140.0307  159.8598 H   0  0  0  0  0  0  0  0  0  0  0  0
  159.0502  139.4388  161.7318 H   0  0  0  0  0  0  0  0  0  0  0  0
  158.1692  139.2936  164.0542 H   0  0  0  0  0  0  0  0  0  0  0  0
  155.7636  139.7464  164.5014 H   0  0  0  0  0  0  0  0  0  0  0  0
  154.2401  140.3381  162.6359 H   0  0  0  0  0  0  0  0  0  0  0  0
  150.7293  141.7890  156.8626 H   0  0  0  0  0  0  0  0  0  0  0  0
  1  2  1  0  0  0  0
  1 25  1  0  0  0  0
  1 26  1  0  0  0  0
  1 27  1  0  0  0  0
  2  3  2  0  0  0  0
  2  4  1  0  0  0  0
  4  5  1  0  0  0  0
  4 28  1  0  0  0  0
  5  6  1  0  0  0  0
  5  7  1  0  0  0  0
  5 29  1  0  0  0  0
  6 30  1  0  0  0  0
  6 31  1  0  0  0  0
  6 32  1  0  0  0  0
  7 15  1  0  0  0  0
  7  8  2  0  0  0  0
  8  9  1  0  0  0  0
  8 46  1  0  0  0  0
  9 14  2  0  0  0  0
  9 10  1  0  0  0  0
 10 11  2  0  0  0  0
 10 33  1  0  0  0  0
 11 12  1  0  0  0  0
 11 34  1  0  0  0  0
 12 13  2  0  0  0  0
 12 35  1  0  0  0  0
 13 14  1  0  0  0  0
 13 36  1  0  0  0  0
 14 15  1  0  0  0  0
 15 16  1  0  0  0  0
 16 17  1  0  0  0  0
 16 37  1  0  0  0  0
 16 38  1  0  0  0  0
 17 18  1  0  0  0  0
 17 19  1  0  0  0  0
 17 39  1  0  0  0  0
 18 40  1  0  0  0  0
 19 24  1  0  0  0  0
 19 20  2  0  0  0  0
 20 21  1  0  0  0  0
 20 41  1  0  0  0  0
 21 22  2  0  0  0  0
 21 42  1  0  0  0  0
 22 23  1  0  0  0  0
 22 43  1  0  0  0  0
 23 24  2  0  0  0  0
 23 44  1  0  0  0  0
 24 45  1  0  0  0  0
M  CHG  1   8   1
M  END
> <s_m_source_file>
AV-unprocessed.smi

> <i_m_source_file_index>
447

> <i_lp_mmshare_version>
43012

> <i_f3d_flags>
0

> <s_epik_input>
W0NIM11DKD1PKVtOSF1bQ0BIXShbQ0gzXSljKG4xKW4oYyhjMTIpW2NIXVtjSF1bY0hdW2NIXTIpW0NIMl1bQ0BIXShbT0hdKWMzW2NIXVtjSF1bY0hdW2NIXVtjSF0z

> <s_epik_cmdline>
J2VwaWtfcHl0aG9uJywgJy1waCcsICc3LjAnLCAnLXRuJywgJzgnLCAnLW1hJywgJzIwMCcsICctbWV0YWxfYmluZGluZycsICctaW1hZScsICc8aW5maWxlLm1hZT4nLCAnLW9tYWUnLCAnPG91dGZpbGUubWFlPic=

> <r_epik_Ionization_Penalty>
0.950381

> <r_epik_Ionization_Penalty_Charging>
0.950379

> <r_epik_Ionization_Penalty_Neutral>
1.42115e-06

> <r_epik_State_Penalty>
0.994584

> <r_epik_Charging_Adjusted_Penalty>
1.94496

> <i_epik_Tot_Q>
1

> <i_epik_Tot_abs_Q>
1

> <r_epik_Metal_State_Penalty>
1.10485

> <b_epik_Metal_Only>
0

> <s_lp_Force_Field>
OPLS_2005

> <r_lp_Energy>
11.6076

> <b_lp_Chiralities_Consistent>
1

> <s_lp_Variant>
AV-unprocessed.smi:447-5

> <Gold.Version>
5.8.1

> <Gold.Id.Protein>
6NUR|6NUR_protein|mol2

> <Gold.PLP.Fitness>
52.9643

> <Gold.PLP.PLP>
-48.1144

> <Gold.PLP.part.hbond>
-2.9198

> <Gold.PLP.part.metal>
0.0000

> <Gold.PLP.part.buried>
-5.0245

> <Gold.PLP.part.nonpolar>
-40.3485

> <Gold.PLP.part.repulsive>
0.1177

> <Gold.PLP.ligand.clash>
0.0000

> <Gold.PLP.ligand.torsion>
0.6265

> <Gold.PLP.Chemscore.Hbond>
2.0000

> <Gold.PLP.Chemscore.CHOScore>
0.0000

> <Gold.PLP.Chemscore.Metal>
0.0000

> <Gold.Chemscore.Hbonds>
donor molecule, donor type, donor heavy atom, donor atom, acceptor molecule, acceptor atom, score
      P1  H  7997  8009       L1    18  1.00
      P1  H  7997  8010       L1     3  1.00

> <Gold.PLP.Chemscore.Internal.Correction>
0.1029

> <Gold.Rescore>
     Score         DG    S(hbond)    S(metal)    S(lipo)     H(rot)  DE(clash)    DE(int)     intcor
     20.18     -20.83       1.98        0.00     127.31       2.41       0.02       0.62       ----

> <Gold.Chemscore.Fitness>
20.1840

> <Gold.Chemscore.DG>
-20.8257

> <Gold.Chemscore.ZeroCoef>
-5.4800

> <Gold.Chemscore.Hbond>
1.9829

> <Gold.Chemscore.Metal>
0.0000

> <Gold.Chemscore.Lipo>
127.3109

> <Gold.Chemscore.Internal_Hbond>
0.0000

> <Gold.Chemscore.DEClash>
0.0215

> <Gold.Chemscore.DEInternal>
0.6202

> <Gold.Chemscore.Rot>
2.4112

> <Gold.Chemscore.Internal.Correction>
   9.000000E+99

> <Gold.Chemscore.Hbonds>
donor molecule, donor type, donor heavy atom, donor atom, acceptor molecule, acceptor atom, score
      P1  H  7997  8009       L1    18  0.86
      P1  H  7997  8010       L1     3  1.00

> <Gold.Chemscore.Hbond.Weighted>
-6.6230

> <Gold.Chemscore.Metal.Weighted>
-0.0000

> <Gold.Chemscore.Lipo.Weighted>
-14.8954

> <Gold.Chemscore.Internal_Hbond.Weighted>
0.0000

> <Gold.Chemscore.DEClash.Weighted>
0.0215

> <Gold.Chemscore.DEInternal.Weighted>
0.6202

> <Gold.Chemscore.Rot.Weighted>
6.1727

> <Gold.Chemscore.Internal.Correction.Weighted>
   9.000000E+99

> <Gold.Protein.RotatedTorsions>
[ 6907 6896 6895 6894 ] final  -69.25 input  -60.11 | X-H torsion
[ 7974 7965 7964 7962 ] final -158.88 input  175.53 | X-H torsion
[ 8008 7997 7996 7995 ] final  101.03 input   59.86 | X-H torsion
[ 10167 10162 10161 10158 ] final   35.36 input  -65.29 | X-H torsion
[ 10718 10713 10712 10709 ] final -171.76 input   66.30 | X-H torsion
[ 10763 10752 10751 10750 ] final   49.94 input  -60.55 | X-H torsion
[ 11005 11000 10999 10996 ] final    7.32 input  -57.11 | X-H torsion

> <Gold.Protein.ActiveResidues>
 VAL166  LYS551  ARG553  GLY616  TRP617  ASP618  TYR619  PRO620  LYS621  CYS622 
 ASP623  PHE694  ASN695  SER759  ASP760  ASP761  ALA762  ILE779  LEU786  VAL792 
 PHE793  MET794  SER795  GLU796  ALA797  LYS798  CYS799  TRP800  GLU811  SER814 

> <Gold.Protein.RotatedAtoms>
  150.7315  134.5623  159.5848 H   0  0  0  0  0  0  0  0  0  0  0  0  # atno 6907 bound_to 6896
  152.3083  134.7525  160.0351 H   0  0  0  0  0  0  0  0  0  0  0  0  # atno 6908 bound_to 6896
  151.8082  133.3343  159.3584 H   0  0  0  0  0  0  0  0  0  0  0  0  # atno 6909 bound_to 6896
  144.7487  140.3764  143.6064 H   0  0  0  0  0  0  0  0  0  0  0  0  # atno 7974 bound_to 7965
  156.1261  140.3204  155.8279 H   0  0  0  0  0  0  0  0  0  0  0  0  # atno 8008 bound_to 7997
  155.4418  140.0526  157.3027 H   0  0  0  0  0  0  0  0  0  0  0  0  # atno 8009 bound_to 7997
  154.4863  140.2074  155.9661 H   0  0  0  0  0  0  0  0  0  0  0  0  # atno 8010 bound_to 7997
  140.4229  144.1434  150.6150 H   0  0  0  0  0  0  0  0  0  0  0  0  # atno 10167 bound_to 10162
  156.7456  130.9359  151.3112 H   0  0  0  0  0  0  0  0  0  0  0  0  # atno 10718 bound_to 10713
  152.9785  135.5895  154.4171 H   0  0  0  0  0  0  0  0  0  0  0  0  # atno 10763 bound_to 10752
  154.3800  135.2767  155.2219 H   0  0  0  0  0  0  0  0  0  0  0  0  # atno 10764 bound_to 10752
  154.4137  135.6075  153.6022 H   0  0  0  0  0  0  0  0  0  0  0  0  # atno 10765 bound_to 10752
  140.5495  134.0296  155.7932 H   0  0  0  0  0  0  0  0  0  0  0  0  # atno 11005 bound_to 11000
  145.7023  139.1664  143.2586 LP  0  0  0  0  0  0  0  0  0  0  0  0  # atno 17320 bound_to 7965
  146.1406  140.7062  142.9368 LP  0  0  0  0  0  0  0  0  0  0  0  0  # atno 17321 bound_to 7965
  140.4514  143.2485  151.9343 LP  0  0  0  0  0  0  0  0  0  0  0  0  # atno 17342 bound_to 10162
  139.4783  144.5559  151.8315 LP  0  0  0  0  0  0  0  0  0  0  0  0  # atno 17343 bound_to 10162
  157.6799  130.9130  150.0242 LP  0  0  0  0  0  0  0  0  0  0  0  0  # atno 17370 bound_to 10713
  156.1435  130.3642  149.9545 LP  0  0  0  0  0  0  0  0  0  0  0  0  # atno 17371 bound_to 10713
  141.1180  133.9509  157.2785 LP  0  0  0  0  0  0  0  0  0  0  0  0  # atno 17394 bound_to 11000
  139.9462  135.0183  156.8859 LP  0  0  0  0  0  0  0  0  0  0  0  0  # atno 17395 bound_to 11000

$$$$
