AV-unprocessed.smi:3319|AV-procd|sdf|12767|dock4
  -GOLD-   2272019103D 1   1.00000     0.00000
 Structure written by MMmdl.
 40 41  0  0  0  0  0  0  0  0  2 V2000
  154.9386  140.0985  161.0813 C   0  0  0  0  0  0  0  0  0  0  0  0
  154.2538  141.0900  160.8837 C   0  0  0  0  0  0  0  0  0  0  0  0
  153.4176  142.2787  160.6351 C   0  0  0  0  0  0  0  0  0  0  0  0
  152.8325  142.3004  159.2944 N   0  0  0  0  0  0  0  0  0  0  0  0
  152.0671  143.5381  159.1330 C   0  0  0  0  0  0  0  0  0  0  0  0
  151.5240  143.6453  157.6976 C   0  0  0  0  0  0  0  0  0  0  0  0
  150.6217  142.4504  157.3548 C   0  0  0  0  0  0  0  0  0  0  0  0
  150.1880  142.5304  155.9422 N   0  3  0  0  0  0  0  0  0  0  0  0
  149.4683  141.3444  155.4324 C   0  0  0  0  0  0  0  0  0  0  0  0
  148.5351  141.7253  154.2753 C   0  0  0  0  0  0  0  0  0  0  0  0
  147.1993  142.2504  154.7649 C   0  0  0  0  0  0  0  0  0  0  0  0
  146.2618  142.7903  153.8603 C   0  0  0  0  0  0  0  0  0  0  0  0
  145.0351  143.2652  154.3676 C   0  0  0  0  0  0  0  0  0  0  0  0
  144.7106  143.2275  155.6778 N   0  0  0  0  0  0  0  0  0  0  0  0
  145.6129  142.7084  156.5380 C   0  0  0  0  0  0  0  0  0  0  0  0
  146.8671  142.2069  156.1346 C   0  0  0  0  0  0  0  0  0  0  0  0
  151.3940  141.1519  157.6486 C   0  0  0  0  0  0  0  0  0  0  0  0
  151.9460  141.1492  159.0850 C   0  0  0  0  0  0  0  0  0  0  0  0
  155.5379  139.2321  161.2500 H   0  0  0  0  0  0  0  0  0  0  0  0
  152.6449  142.3415  161.4026 H   0  0  0  0  0  0  0  0  0  0  0  0
  154.0748  143.1394  160.7658 H   0  0  0  0  0  0  0  0  0  0  0  0
  151.2498  143.5749  159.8556 H   0  0  0  0  0  0  0  0  0  0  0  0
  152.7105  144.3956  159.3345 H   0  0  0  0  0  0  0  0  0  0  0  0
  150.9686  144.5772  157.5862 H   0  0  0  0  0  0  0  0  0  0  0  0
  152.3599  143.6980  156.9979 H   0  0  0  0  0  0  0  0  0  0  0  0
  149.7373  142.4966  157.9925 H   0  0  0  0  0  0  0  0  0  0  0  0
  149.5639  143.3202  155.8591 H   0  0  0  0  0  0  0  0  0  0  0  0
  150.1842  140.5962  155.0923 H   0  0  0  0  0  0  0  0  0  0  0  0
  148.8916  140.8970  156.2430 H   0  0  0  0  0  0  0  0  0  0  0  0
  149.0048  142.4845  153.6482 H   0  0  0  0  0  0  0  0  0  0  0  0
  148.3614  140.8602  153.6339 H   0  0  0  0  0  0  0  0  0  0  0  0
  146.4730  142.8425  152.8021 H   0  0  0  0  0  0  0  0  0  0  0  0
  144.2952  143.6859  153.7027 H   0  0  0  0  0  0  0  0  0  0  0  0
  145.3273  142.6911  157.5794 H   0  0  0  0  0  0  0  0  0  0  0  0
  147.5541  141.8007  156.8627 H   0  0  0  0  0  0  0  0  0  0  0  0
  150.7487  140.2835  157.5170 H   0  0  0  0  0  0  0  0  0  0  0  0
  152.2178  141.0369  156.9422 H   0  0  0  0  0  0  0  0  0  0  0  0
  152.4904  140.2188  159.2489 H   0  0  0  0  0  0  0  0  0  0  0  0
  151.1276  141.1689  159.8065 H   0  0  0  0  0  0  0  0  0  0  0  0
  150.9980  142.7014  155.3633 H   0  0  0  0  0  0  0  0  0  0  0  0
  1  2  3  0  0  0  0
  1 19  1  0  0  0  0
  2  3  1  0  0  0  0
  3  4  1  0  0  0  0
  3 20  1  0  0  0  0
  3 21  1  0  0  0  0
  4 18  1  0  0  0  0
  4  5  1  0  0  0  0
  5  6  1  0  0  0  0
  5 22  1  0  0  0  0
  5 23  1  0  0  0  0
  6  7  1  0  0  0  0
  6 24  1  0  0  0  0
  6 25  1  0  0  0  0
  7  8  1  0  0  0  0
  7 17  1  0  0  0  0
  7 26  1  0  0  0  0
  8  9  1  0  0  0  0
  8 27  1  0  0  0  0
  8 40  1  0  0  0  0
  9 10  1  0  0  0  0
  9 28  1  0  0  0  0
  9 29  1  0  0  0  0
 10 11  1  0  0  0  0
 10 30  1  0  0  0  0
 10 31  1  0  0  0  0
 11 16  1  0  0  0  0
 11 12  2  0  0  0  0
 12 13  1  0  0  0  0
 12 32  1  0  0  0  0
 13 14  2  0  0  0  0
 13 33  1  0  0  0  0
 14 15  1  0  0  0  0
 15 16  2  0  0  0  0
 15 34  1  0  0  0  0
 16 35  1  0  0  0  0
 17 18  1  0  0  0  0
 17 36  1  0  0  0  0
 17 37  1  0  0  0  0
 18 38  1  0  0  0  0
 18 39  1  0  0  0  0
M  CHG  1   8   1
M  END
> <s_m_source_file>
AV-unprocessed.smi

> <i_m_source_file_index>
3319

> <i_lp_mmshare_version>
43012

> <i_f3d_flags>
0

> <s_epik_input>
W0NIXSNDW0NIMl1OMVtDSDJdW0NIMl1bQ0hdKFtDSDJdW0NIMl0xKVtOSF1bQ0gyXVtDSDJdYzJbY0hdW2NIXW5bY0hdW2NIXTI=

> <s_epik_cmdline>
J2VwaWtfcHl0aG9uJywgJy1waCcsICc3LjAnLCAnLXRuJywgJzgnLCAnLW1hJywgJzIwMCcsICctbWV0YWxfYmluZGluZycsICctaW1hZScsICc8aW5maWxlLm1hZT4nLCAnLW9tYWUnLCAnPG91dGZpbGUubWFlPic=

> <r_epik_Ionization_Penalty>
0.00927662

> <r_epik_Ionization_Penalty_Charging>
0.000485704

> <r_epik_Ionization_Penalty_Neutral>
0.00879091

> <r_epik_State_Penalty>
0.00559669

> <r_epik_Charging_Adjusted_Penalty>
0.0060824

> <i_epik_Tot_Q>
1

> <i_epik_Tot_abs_Q>
1

> <r_epik_Metal_State_Penalty>
-0

> <b_epik_Metal_Only>
0

> <s_lp_Force_Field>
OPLS_2005

> <r_lp_Energy>
19.7292

> <b_lp_Chiralities_Consistent>
1

> <s_lp_Variant>
AV-unprocessed.smi:3319-1

> <Gold.Version>
5.8.1

> <Gold.Id.Protein>
6NUR|6NUR_protein|mol2

> <Gold.PLP.Fitness>
49.1626

> <Gold.PLP.PLP>
-40.8606

> <Gold.PLP.part.hbond>
-1.0000

> <Gold.PLP.part.metal>
0.0000

> <Gold.PLP.part.buried>
-3.5389

> <Gold.PLP.part.nonpolar>
-37.0874

> <Gold.PLP.part.repulsive>
0.2784

> <Gold.PLP.ligand.clash>
0.0000

> <Gold.PLP.ligand.torsion>
0.3650

> <Gold.PLP.Chemscore.Hbond>
2.0000

> <Gold.PLP.Chemscore.CHOScore>
1.0000

> <Gold.PLP.Chemscore.Metal>
0.0000

> <Gold.Chemscore.Hbonds>
donor molecule, donor type, donor heavy atom, donor atom, acceptor molecule, acceptor atom, score
      L1  H     8    27       P1  8028  2.00
      L1  C    13    33       P1 10174  0.94

> <Gold.PLP.Chemscore.Internal.Correction>
0.0319

> <Gold.Rescore>
     Score         DG    S(hbond)    S(metal)    S(lipo)     H(rot)  DE(clash)    DE(int)     intcor
     18.02     -18.35       1.00        0.00     112.91       1.44       0.00       0.32       ----

> <Gold.Chemscore.Fitness>
18.0228

> <Gold.Chemscore.DG>
-18.3505

> <Gold.Chemscore.ZeroCoef>
-5.4800

> <Gold.Chemscore.Hbond>
0.9998

> <Gold.Chemscore.Metal>
0.0000

> <Gold.Chemscore.Lipo>
112.9066

> <Gold.Chemscore.Internal_Hbond>
0.0000

> <Gold.Chemscore.DEClash>
0.0033

> <Gold.Chemscore.DEInternal>
0.3244

> <Gold.Chemscore.Rot>
1.4371

> <Gold.Chemscore.Internal.Correction>
   9.000000E+99

> <Gold.Chemscore.Hbonds>
donor molecule, donor type, donor heavy atom, donor atom, acceptor molecule, acceptor atom, score
      L1  H     8    27       P1  8028  0.97

> <Gold.Chemscore.Hbond.Weighted>
-3.3395

> <Gold.Chemscore.Metal.Weighted>
-0.0000

> <Gold.Chemscore.Lipo.Weighted>
-13.2101

> <Gold.Chemscore.Internal_Hbond.Weighted>
0.0000

> <Gold.Chemscore.DEClash.Weighted>
0.0033

> <Gold.Chemscore.DEInternal.Weighted>
0.3244

> <Gold.Chemscore.Rot.Weighted>
3.6790

> <Gold.Chemscore.Internal.Correction.Weighted>
   9.000000E+99

> <Gold.Protein.RotatedTorsions>
[ 6907 6896 6895 6894 ] final  131.61 input  -60.11 | X-H torsion
[ 7974 7965 7964 7962 ] final  102.12 input  175.53 | X-H torsion
[ 8008 7997 7996 7995 ] final  -66.99 input   59.86 | X-H torsion
[ 10167 10162 10161 10158 ] final -166.21 input  -65.29 | X-H torsion
[ 10718 10713 10712 10709 ] final   89.52 input   66.30 | X-H torsion
[ 10763 10752 10751 10750 ] final  152.34 input  -60.55 | X-H torsion
[ 11005 11000 10999 10996 ] final  -76.95 input  -57.11 | X-H torsion

> <Gold.Protein.ActiveResidues>
 VAL166  LYS551  ARG553  GLY616  TRP617  ASP618  TYR619  PRO620  LYS621  CYS622 
 ASP623  PHE694  ASN695  SER759  ASP760  ASP761  ALA762  ILE779  LEU786  VAL792 
 PHE793  MET794  SER795  GLU796  ALA797  LYS798  CYS799  TRP800  GLU811  SER814 

> <Gold.Protein.RotatedAtoms>
  152.3408  133.6065  159.5875 H   0  0  0  0  0  0  0  0  0  0  0  0  # atno 6907 bound_to 6896
  150.7478  133.9724  159.3559 H   0  0  0  0  0  0  0  0  0  0  0  0  # atno 6908 bound_to 6896
  151.7589  135.0816  160.0393 H   0  0  0  0  0  0  0  0  0  0  0  0  # atno 6909 bound_to 6896
  145.3632  139.2413  143.3495 H   0  0  0  0  0  0  0  0  0  0  0  0  # atno 7974 bound_to 7965
  154.4770  140.0901  156.7286 H   0  0  0  0  0  0  0  0  0  0  0  0  # atno 8008 bound_to 7997
  155.4570  140.3459  155.4289 H   0  0  0  0  0  0  0  0  0  0  0  0  # atno 8009 bound_to 7997
  156.1132  140.1453  156.9297 H   0  0  0  0  0  0  0  0  0  0  0  0  # atno 8010 bound_to 7997
  139.6130  144.0777  152.1860 H   0  0  0  0  0  0  0  0  0  0  0  0  # atno 10167 bound_to 10162
  157.6955  131.0336  150.3438 H   0  0  0  0  0  0  0  0  0  0  0  0  # atno 10718 bound_to 10713
  154.1184  135.2834  155.3214 H   0  0  0  0  0  0  0  0  0  0  0  0  # atno 10763 bound_to 10752
  154.6440  135.5392  153.7826 H   0  0  0  0  0  0  0  0  0  0  0  0  # atno 10764 bound_to 10752
  153.0321  135.6493  154.1340 H   0  0  0  0  0  0  0  0  0  0  0  0  # atno 10765 bound_to 10752
  141.1657  133.7003  156.7747 H   0  0  0  0  0  0  0  0  0  0  0  0  # atno 11005 bound_to 11000
  146.2918  140.4270  142.8736 LP  0  0  0  0  0  0  0  0  0  0  0  0  # atno 17320 bound_to 7965
  144.8630  140.7167  143.6095 LP  0  0  0  0  0  0  0  0  0  0  0  0  # atno 17321 bound_to 7965
  140.0400  144.6015  150.7419 LP  0  0  0  0  0  0  0  0  0  0  0  0  # atno 17342 bound_to 10162
  140.7332  143.2714  151.3877 LP  0  0  0  0  0  0  0  0  0  0  0  0  # atno 17343 bound_to 10162
  156.3896  130.3895  149.7040 LP  0  0  0  0  0  0  0  0  0  0  0  0  # atno 17370 bound_to 10713
  156.4394  130.7854  151.2875 LP  0  0  0  0  0  0  0  0  0  0  0  0  # atno 17371 bound_to 10713
  140.2438  134.8593  157.3600 LP  0  0  0  0  0  0  0  0  0  0  0  0  # atno 17394 bound_to 11000
  140.1769  134.4538  155.7796 LP  0  0  0  0  0  0  0  0  0  0  0  0  # atno 17395 bound_to 11000

$$$$
