AV-unprocessed.smi:1758|AV-procd|sdf|7081|dock2
  -GOLD-   22720 8303D 1   1.00000     0.00000
 Structure written by MMmdl.
 44 46  0  0  0  0  0  0  0  0  2 V2000
  136.4992  137.3379  154.7160 C   0  0  0  0  0  0  0  0  0  0  0  0
  137.3973  138.4370  154.1365 C   0  0  0  0  0  0  0  0  0  0  0  0
  138.7509  137.9656  153.9193 N   0  0  0  0  0  0  0  0  0  0  0  0
  139.8090  138.6432  153.3465 C   0  0  0  0  0  0  0  0  0  0  0  0
  140.8618  137.7726  153.3716 C   0  0  0  0  0  0  0  0  0  0  0  0
  142.1883  137.9504  152.9036 N   0  0  0  0  0  0  0  0  0  0  0  0
  143.1176  137.0009  152.7069 C   0  0  0  0  0  0  0  0  0  0  0  0
  142.9428  135.7944  152.8763 O   0  0  0  0  0  0  0  0  0  0  0  0
  144.2757  137.5340  152.2928 N   0  0  0  0  0  0  0  0  0  0  0  0
  145.4915  136.7860  151.9841 C   0  0  2  0  0  0  0  0  0  0  0  0
  145.3059  135.7636  150.8488 C   0  0  0  0  0  0  0  0  0  0  0  0
  146.1369  134.5339  151.2686 C   0  0  0  0  0  0  0  0  0  0  0  0
  146.8128  134.9278  152.5200 N   0  3  2  0  0  0  0  0  0  0  0  0
  147.2221  133.8430  153.4384 C   0  0  0  0  0  0  0  0  0  0  0  0
  147.9742  134.4503  154.6403 C   0  0  0  0  0  0  0  0  0  0  0  0
  147.1602  135.5688  155.3237 C   0  0  0  0  0  0  0  0  0  0  0  0
  146.6860  136.6181  154.2993 C   0  0  0  0  0  0  0  0  0  0  0  0
  145.9311  135.9153  153.1599 C   0  0  1  0  0  0  0  0  0  0  0  0
  140.3690  136.5865  153.9752 C   0  0  0  0  0  0  0  0  0  0  0  0
  139.0923  136.7108  154.3041 N   0  0  0  0  0  0  0  0  0  0  0  0
  135.4906  137.7134  154.8892 H   0  0  0  0  0  0  0  0  0  0  0  0
  136.8875  136.9741  155.6677 H   0  0  0  0  0  0  0  0  0  0  0  0
  136.4255  136.4886  154.0360 H   0  0  0  0  0  0  0  0  0  0  0  0
  136.9939  138.7983  153.1895 H   0  0  0  0  0  0  0  0  0  0  0  0
  137.4301  139.2918  154.8133 H   0  0  0  0  0  0  0  0  0  0  0  0
  139.7123  139.6559  152.9838 H   0  0  0  0  0  0  0  0  0  0  0  0
  142.4599  138.9029  152.7090 H   0  0  0  0  0  0  0  0  0  0  0  0
  144.3196  138.5368  152.1843 H   0  0  0  0  0  0  0  0  0  0  0  0
  146.3143  137.4519  151.7158 H   0  0  0  0  0  0  0  0  0  0  0  0
  144.2588  135.4795  150.7340 H   0  0  0  0  0  0  0  0  0  0  0  0
  145.6397  136.1736  149.8950 H   0  0  0  0  0  0  0  0  0  0  0  0
  145.4788  133.6824  151.4487 H   0  0  0  0  0  0  0  0  0  0  0  0
  146.8655  134.2449  150.5107 H   0  0  0  0  0  0  0  0  0  0  0  0
  146.3444  133.2898  153.7763 H   0  0  0  0  0  0  0  0  0  0  0  0
  147.8648  133.1384  152.9093 H   0  0  0  0  0  0  0  0  0  0  0  0
  148.2162  133.6698  155.3627 H   0  0  0  0  0  0  0  0  0  0  0  0
  148.9268  134.8582  154.2994 H   0  0  0  0  0  0  0  0  0  0  0  0
  146.2945  135.1327  155.8236 H   0  0  0  0  0  0  0  0  0  0  0  0
  147.7575  136.0461  156.1011 H   0  0  0  0  0  0  0  0  0  0  0  0
  146.0427  137.3532  154.7838 H   0  0  0  0  0  0  0  0  0  0  0  0
  147.5434  137.1638  153.9027 H   0  0  0  0  0  0  0  0  0  0  0  0
  145.0613  135.3932  153.5661 H   0  0  0  0  0  0  0  0  0  0  0  0
  140.8825  135.6589  154.1811 H   0  0  0  0  0  0  0  0  0  0  0  0
  147.6491  135.4258  152.2501 H   0  0  0  0  0  0  0  0  0  0  0  0
  1  2  1  0  0  0  0
  1 21  1  0  0  0  0
  1 22  1  0  0  0  0
  1 23  1  0  0  0  0
  2  3  1  0  0  0  0
  2 24  1  0  0  0  0
  2 25  1  0  0  0  0
  3 20  1  0  0  0  0
  3  4  1  0  0  0  0
  4  5  2  0  0  0  0
  4 26  1  0  0  0  0
  5  6  1  0  0  0  0
  5 19  1  0  0  0  0
  6  7  1  0  0  0  0
  6 27  1  0  0  0  0
  7  8  2  0  0  0  0
  7  9  1  0  0  0  0
  9 10  1  0  0  0  0
  9 28  1  0  0  0  0
 10 18  1  0  0  0  0
 10 11  1  0  0  0  0
 10 29  1  0  0  0  0
 11 12  1  0  0  0  0
 11 30  1  0  0  0  0
 11 31  1  0  0  0  0
 12 13  1  0  0  0  0
 12 32  1  0  0  0  0
 12 33  1  0  0  0  0
 13 18  1  0  0  0  0
 13 14  1  0  0  0  0
 13 44  1  0  0  0  0
 14 15  1  0  0  0  0
 14 34  1  0  0  0  0
 14 35  1  0  0  0  0
 15 16  1  0  0  0  0
 15 36  1  0  0  0  0
 15 37  1  0  0  0  0
 16 17  1  0  0  0  0
 16 38  1  0  0  0  0
 16 39  1  0  0  0  0
 17 18  1  0  0  0  0
 17 40  1  0  0  0  0
 17 41  1  0  0  0  0
 18 42  1  0  0  0  0
 19 20  2  0  0  0  0
 19 43  1  0  0  0  0
M  CHG  1  13   1
M  END
> <s_m_source_file>
AV-unprocessed.smi

> <i_m_source_file_index>
1758

> <i_lp_mmshare_version>
43012

> <i_f3d_flags>
0

> <s_epik_input>
W0NIM11bQ0gyXW4xW2NIXWMoW2NIXW4xKVtOSF1DKD1PKVtOSF1bQ0BIXShbQ0gyXVtDSDJdMilbQ0BASF0oTjIzKVtDSDJdW0NIMl1bQ0gyXVtDSDJdMw==

> <s_epik_cmdline>
J2VwaWtfcHl0aG9uJywgJy1waCcsICc3LjAnLCAnLXRuJywgJzgnLCAnLW1hJywgJzIwMCcsICctbWV0YWxfYmluZGluZycsICctaW1hZScsICc8aW5maWxlLm1hZT4nLCAnLW9tYWUnLCAnPG91dGZpbGUubWFlPic=

> <r_lp_tautomer_probability>
1

> <r_epik_Ionization_Penalty>
0.00111541

> <r_epik_Ionization_Penalty_Charging>
0.000974069

> <r_epik_Ionization_Penalty_Neutral>
0.000141346

> <r_epik_State_Penalty>
0.000633842

> <r_epik_Charging_Adjusted_Penalty>
0.00160791

> <i_epik_Tot_Q>
1

> <i_epik_Tot_abs_Q>
1

> <r_epik_Metal_State_Penalty>
-0

> <b_epik_Metal_Only>
0

> <s_lp_Force_Field>
OPLS_2005

> <r_lp_Energy>
39.1276

> <b_lp_Chiralities_Consistent>
1

> <s_lp_Variant>
AV-unprocessed.smi:1758-3

> <Gold.Version>
5.8.1

> <Gold.Id.Protein>
6NUR|6NUR_protein|mol2

> <Gold.PLP.Fitness>
47.1047

> <Gold.PLP.PLP>
-32.3865

> <Gold.PLP.part.hbond>
-4.0000

> <Gold.PLP.part.metal>
0.0000

> <Gold.PLP.part.buried>
-5.1569

> <Gold.PLP.part.nonpolar>
-24.4575

> <Gold.PLP.part.repulsive>
0.3296

> <Gold.PLP.ligand.clash>
0.0000

> <Gold.PLP.ligand.torsion>
0.0699

> <Gold.PLP.Chemscore.Hbond>
3.9913

> <Gold.PLP.Chemscore.CHOScore>
0.9576

> <Gold.PLP.Chemscore.Metal>
0.0000

> <Gold.Chemscore.Hbonds>
donor molecule, donor type, donor heavy atom, donor atom, acceptor molecule, acceptor atom, score
      L1  H     6    27       P1 10175  1.00
      L1  H     9    28       P1 10175  1.00
      L1  H    13    44       P1  7948  2.00
      L1  C     4    26       P1 10160  0.94

> <Gold.PLP.Chemscore.Internal.Correction>
0.0115

> <Gold.Rescore>
     Score         DG    S(hbond)    S(metal)    S(lipo)     H(rot)  DE(clash)    DE(int)     intcor
     17.18     -19.48       2.92        0.00      62.46       1.19       0.01       2.29       ----

> <Gold.Chemscore.Fitness>
17.1766

> <Gold.Chemscore.DG>
-19.4842

> <Gold.Chemscore.ZeroCoef>
-5.4800

> <Gold.Chemscore.Hbond>
2.9159

> <Gold.Chemscore.Metal>
0.0000

> <Gold.Chemscore.Lipo>
62.4557

> <Gold.Chemscore.Internal_Hbond>
0.0000

> <Gold.Chemscore.DEClash>
0.0147

> <Gold.Chemscore.DEInternal>
2.2929

> <Gold.Chemscore.Rot>
1.1884

> <Gold.Chemscore.Internal.Correction>
   9.000000E+99

> <Gold.Chemscore.Hbonds>
donor molecule, donor type, donor heavy atom, donor atom, acceptor molecule, acceptor atom, score
      L1  H     6    27       P1 10175  0.99
      L1  H     9    28       P1 10175  0.91
      L1  H    13    44       P1  7948  0.95

> <Gold.Chemscore.Hbond.Weighted>
-9.7392

> <Gold.Chemscore.Metal.Weighted>
-0.0000

> <Gold.Chemscore.Lipo.Weighted>
-7.3073

> <Gold.Chemscore.Internal_Hbond.Weighted>
0.0000

> <Gold.Chemscore.DEClash.Weighted>
0.0147

> <Gold.Chemscore.DEInternal.Weighted>
2.2929

> <Gold.Chemscore.Rot.Weighted>
3.0423

> <Gold.Chemscore.Internal.Correction.Weighted>
   9.000000E+99

> <Gold.Protein.RotatedTorsions>
[ 6907 6896 6895 6894 ] final   50.44 input  -60.11 | X-H torsion
[ 7974 7965 7964 7962 ] final -100.53 input  175.53 | X-H torsion
[ 8008 7997 7996 7995 ] final   32.12 input   59.86 | X-H torsion
[ 10167 10162 10161 10158 ] final  163.48 input  -65.29 | X-H torsion
[ 10718 10713 10712 10709 ] final   21.30 input   66.30 | X-H torsion
[ 10763 10752 10751 10750 ] final  -25.88 input  -60.55 | X-H torsion
[ 11005 11000 10999 10996 ] final  -40.03 input  -57.11 | X-H torsion

> <Gold.Protein.ActiveResidues>
 VAL166  LYS551  ARG553  GLY616  TRP617  ASP618  TYR619  PRO620  LYS621  CYS622 
 ASP623  PHE694  ASN695  SER759  ASP760  ASP761  ALA762  ILE779  LEU786  VAL792 
 PHE793  MET794  SER795  GLU796  ALA797  LYS798  CYS799  TRP800  GLU811  SER814 

> <Gold.Protein.RotatedAtoms>
  152.3018  134.7602  160.0355 H   0  0  0  0  0  0  0  0  0  0  0  0  # atno 6907 bound_to 6896
  151.8112  133.3377  159.3564 H   0  0  0  0  0  0  0  0  0  0  0  0  # atno 6908 bound_to 6896
  150.7277  134.5591  159.5878 H   0  0  0  0  0  0  0  0  0  0  0  0  # atno 6909 bound_to 6896
  145.2933  140.9358  143.2865 H   0  0  0  0  0  0  0  0  0  0  0  0  # atno 7974 bound_to 7965
  155.1173  140.3245  155.4506 H   0  0  0  0  0  0  0  0  0  0  0  0  # atno 8008 bound_to 7997
  156.2673  140.2033  156.6244 H   0  0  0  0  0  0  0  0  0  0  0  0  # atno 8009 bound_to 7997
  154.6710  140.0536  157.0152 H   0  0  0  0  0  0  0  0  0  0  0  0  # atno 8010 bound_to 7997
  139.4874  144.4333  151.9043 H   0  0  0  0  0  0  0  0  0  0  0  0  # atno 10167 bound_to 10162
  157.1365  130.6614  149.5967 H   0  0  0  0  0  0  0  0  0  0  0  0  # atno 10718 bound_to 10713
  153.7069  135.6953  153.5048 H   0  0  0  0  0  0  0  0  0  0  0  0  # atno 10763 bound_to 10752
  153.2301  135.4340  155.0585 H   0  0  0  0  0  0  0  0  0  0  0  0  # atno 10764 bound_to 10752
  154.8327  135.3482  154.6607 H   0  0  0  0  0  0  0  0  0  0  0  0  # atno 10765 bound_to 10752
  141.0145  133.6892  156.2266 H   0  0  0  0  0  0  0  0  0  0  0  0  # atno 11005 bound_to 11000
  144.9154  139.4476  143.6567 LP  0  0  0  0  0  0  0  0  0  0  0  0  # atno 17320 bound_to 7965
  146.3177  139.7986  142.8970 LP  0  0  0  0  0  0  0  0  0  0  0  0  # atno 17321 bound_to 7965
  140.3782  144.2770  150.5911 LP  0  0  0  0  0  0  0  0  0  0  0  0  # atno 17342 bound_to 10162
  140.5258  143.2255  151.8317 LP  0  0  0  0  0  0  0  0  0  0  0  0  # atno 17343 bound_to 10162
  155.9797  130.4792  150.6731 LP  0  0  0  0  0  0  0  0  0  0  0  0  # atno 17370 bound_to 10713
  157.4346  131.0853  151.1005 LP  0  0  0  0  0  0  0  0  0  0  0  0  # atno 17371 bound_to 10713
  140.6678  134.4900  157.5586 LP  0  0  0  0  0  0  0  0  0  0  0  0  # atno 17394 bound_to 11000
  139.9109  134.8347  156.1533 LP  0  0  0  0  0  0  0  0  0  0  0  0  # atno 17395 bound_to 11000

$$$$
