AV-unprocessed.smi:3303|AV-procd|sdf|12666|dock8
  -GOLD-   2272019 03D 1   1.00000     0.00000
 Structure written by MMmdl.
 45 46  0  0  0  0  0  0  0  0  3 V2000
  147.9939  139.5851  153.8258 C   0  0  0  0  0  0  0  0  0  0  0  0
  148.5810  140.9355  154.2740 C   0  0  1  0  0  0  0  0  0  0  0  0
  147.6388  142.1064  153.9255 C   0  0  0  0  0  0  0  0  0  0  0  0
  146.4259  142.1318  154.7853 N   0  3  2  0  0  0  0  0  0  0  0  0
  145.4699  143.1666  154.3208 C   0  0  0  0  0  0  0  0  0  0  0  0
  146.7693  142.2266  156.2362 C   0  0  1  0  0  0  0  0  0  0  0  0
  145.5227  142.2315  157.1426 C   0  0  0  0  0  0  0  0  0  0  0  0
  147.6989  141.0640  156.6497 C   0  0  0  0  0  0  0  0  0  0  0  0
  148.9570  140.9471  155.7707 C   0  0  2  0  0  0  0  0  0  0  0  0
  149.9148  142.0382  156.0708 N   0  3  0  0  0  0  0  0  0  0  0  0
  150.2205  142.2148  157.5048 C   0  0  0  0  0  0  0  0  0  0  0  0
  151.3305  143.2537  157.7124 C   0  0  0  0  0  0  0  0  0  0  0  0
  151.8196  143.2825  159.1478 C   0  0  0  0  0  0  0  0  0  0  0  0
  151.6434  144.4304  159.9496 C   0  0  0  0  0  0  0  0  0  0  0  0
  152.1286  144.4048  161.2718 C   0  0  0  0  0  0  0  0  0  0  0  0
  152.7692  143.2401  161.7367 C   0  0  0  0  0  0  0  0  0  0  0  0
  152.8963  142.1474  160.8562 C   0  0  0  0  0  0  0  0  0  0  0  0
  152.4350  142.1617  159.5866 N   0  0  0  0  0  0  0  0  0  0  0  0
  147.0547  139.3588  154.3307 H   0  0  0  0  0  0  0  0  0  0  0  0
  148.6861  138.7681  154.0318 H   0  0  0  0  0  0  0  0  0  0  0  0
  147.7992  139.5810  152.7529 H   0  0  0  0  0  0  0  0  0  0  0  0
  149.4983  141.0667  153.6976 H   0  0  0  0  0  0  0  0  0  0  0  0
  148.1682  143.0547  154.0305 H   0  0  0  0  0  0  0  0  0  0  0  0
  147.3470  142.0339  152.8766 H   0  0  0  0  0  0  0  0  0  0  0  0
  145.8427  144.1695  154.5328 H   0  0  0  0  0  0  0  0  0  0  0  0
  144.4946  143.0514  154.7925 H   0  0  0  0  0  0  0  0  0  0  0  0
  145.3054  143.0872  153.2456 H   0  0  0  0  0  0  0  0  0  0  0  0
  147.2999  143.1669  156.3943 H   0  0  0  0  0  0  0  0  0  0  0  0
  145.8064  142.1992  158.1951 H   0  0  0  0  0  0  0  0  0  0  0  0
  144.8848  141.3684  156.9480 H   0  0  0  0  0  0  0  0  0  0  0  0
  144.9236  143.1326  157.0122 H   0  0  0  0  0  0  0  0  0  0  0  0
  147.9917  141.1705  157.6954 H   0  0  0  0  0  0  0  0  0  0  0  0
  147.1414  140.1277  156.5968 H   0  0  0  0  0  0  0  0  0  0  0  0
  149.4406  139.9983  156.0111 H   0  0  0  0  0  0  0  0  0  0  0  0
  150.7797  141.8499  155.5842 H   0  0  0  0  0  0  0  0  0  0  0  0
  149.3136  142.5277  158.0244 H   0  0  0  0  0  0  0  0  0  0  0  0
  150.5250  141.2569  157.9295 H   0  0  0  0  0  0  0  0  0  0  0  0
  152.1712  143.0407  157.0505 H   0  0  0  0  0  0  0  0  0  0  0  0
  150.9707  144.2478  157.4424 H   0  0  0  0  0  0  0  0  0  0  0  0
  151.1504  145.3112  159.5647 H   0  0  0  0  0  0  0  0  0  0  0  0
  152.0131  145.2633  161.9169 H   0  0  0  0  0  0  0  0  0  0  0  0
  153.1543  143.1847  162.7442 H   0  0  0  0  0  0  0  0  0  0  0  0
  153.3826  141.2387  161.1788 H   0  0  0  0  0  0  0  0  0  0  0  0
  149.5335  142.9067  155.7234 H   0  0  0  0  0  0  0  0  0  0  0  0
  145.9643  141.2427  154.6528 H   0  0  0  0  0  0  0  0  0  0  0  0
  1  2  1  0  0  0  0
  1 19  1  0  0  0  0
  1 20  1  0  0  0  0
  1 21  1  0  0  0  0
  2  9  1  0  0  0  0
  2  3  1  0  0  0  0
  2 22  1  0  0  0  0
  3  4  1  0  0  0  0
  3 23  1  0  0  0  0
  3 24  1  0  0  0  0
  4  5  1  0  0  0  0
  4  6  1  0  0  0  0
  4 45  1  0  0  0  0
  5 25  1  0  0  0  0
  5 26  1  0  0  0  0
  5 27  1  0  0  0  0
  6  7  1  0  0  0  0
  6  8  1  0  0  0  0
  6 28  1  0  0  0  0
  7 29  1  0  0  0  0
  7 30  1  0  0  0  0
  7 31  1  0  0  0  0
  8  9  1  0  0  0  0
  8 32  1  0  0  0  0
  8 33  1  0  0  0  0
  9 10  1  0  0  0  0
  9 34  1  0  0  0  0
 10 11  1  0  0  0  0
 10 35  1  0  0  0  0
 10 44  1  0  0  0  0
 11 12  1  0  0  0  0
 11 36  1  0  0  0  0
 11 37  1  0  0  0  0
 12 13  1  0  0  0  0
 12 38  1  0  0  0  0
 12 39  1  0  0  0  0
 13 18  1  0  0  0  0
 13 14  2  0  0  0  0
 14 15  1  0  0  0  0
 14 40  1  0  0  0  0
 15 16  2  0  0  0  0
 15 41  1  0  0  0  0
 16 17  1  0  0  0  0
 16 42  1  0  0  0  0
 17 18  2  0  0  0  0
 17 43  1  0  0  0  0
M  CHG  1   4   1
M  CHG  1  10   1
M  END
> <s_m_source_file>
AV-unprocessed.smi

> <i_m_source_file_index>
3303

> <i_lp_mmshare_version>
43012

> <i_f3d_flags>
0

> <s_epik_input>
W0NIM11bQ0BASF0xW0NIMl1OKFtDSDNdKVtDQEBIXShbQ0gzXSlbQ0gyXVtDQEhdMVtOSF1bQ0gyXVtDSDJdYzJbY0hdW2NIXVtjSF1bY0hdbjI=

> <s_epik_cmdline>
J2VwaWtfcHl0aG9uJywgJy1waCcsICc3LjAnLCAnLXRuJywgJzgnLCAnLW1hJywgJzIwMCcsICctbWV0YWxfYmluZGluZycsICctaW1hZScsICc8aW5maWxlLm1hZT4nLCAnLW9tYWUnLCAnPG91dGZpbGUubWFlPic=

> <r_epik_Ionization_Penalty>
0.0769462

> <r_epik_Ionization_Penalty_Charging>
0.0759813

> <r_epik_Ionization_Penalty_Neutral>
0.000964829

> <r_epik_State_Penalty>
0.0654373

> <r_epik_Charging_Adjusted_Penalty>
0.141419

> <i_epik_Tot_Q>
2

> <i_epik_Tot_abs_Q>
2

> <r_epik_Metal_State_Penalty>
0.0656439

> <b_epik_Metal_Only>
0

> <s_lp_Force_Field>
OPLS_2005

> <r_lp_Energy>
35.1377

> <b_lp_Chiralities_Consistent>
1

> <s_lp_Variant>
AV-unprocessed.smi:3303-10

> <Gold.Version>
5.8.1

> <Gold.Id.Protein>
6NUR|6NUR_protein|mol2

> <Gold.PLP.Fitness>
45.3559

> <Gold.PLP.PLP>
-39.5232

> <Gold.PLP.part.hbond>
-1.0000

> <Gold.PLP.part.metal>
0.0000

> <Gold.PLP.part.buried>
-5.2890

> <Gold.PLP.part.nonpolar>
-32.4718

> <Gold.PLP.part.repulsive>
0.1592

> <Gold.PLP.ligand.clash>
0.0000

> <Gold.PLP.ligand.torsion>
0.0888

> <Gold.PLP.Chemscore.Hbond>
2.0000

> <Gold.PLP.Chemscore.CHOScore>
0.0000

> <Gold.PLP.Chemscore.Metal>
0.0000

> <Gold.Chemscore.Hbonds>
donor molecule, donor type, donor heavy atom, donor atom, acceptor molecule, acceptor atom, score
      L1  H    10    44       P1  8028  2.00

> <Gold.PLP.Chemscore.Internal.Correction>
0.0102

> <Gold.Rescore>
     Score         DG    S(hbond)    S(metal)    S(lipo)     H(rot)  DE(clash)    DE(int)     intcor
     18.35     -18.53       1.00        0.00     113.14       1.37       0.10       0.08       ----

> <Gold.Chemscore.Fitness>
18.3506

> <Gold.Chemscore.DG>
-18.5330

> <Gold.Chemscore.ZeroCoef>
-5.4800

> <Gold.Chemscore.Hbond>
0.9983

> <Gold.Chemscore.Metal>
0.0000

> <Gold.Chemscore.Lipo>
113.1387

> <Gold.Chemscore.Internal_Hbond>
0.0000

> <Gold.Chemscore.DEClash>
0.1016

> <Gold.Chemscore.DEInternal>
0.0809

> <Gold.Chemscore.Rot>
1.3744

> <Gold.Chemscore.Internal.Correction>
   9.000000E+99

> <Gold.Chemscore.Hbonds>
donor molecule, donor type, donor heavy atom, donor atom, acceptor molecule, acceptor atom, score
      L1  H    10    44       P1  8028  0.99

> <Gold.Chemscore.Hbond.Weighted>
-3.3343

> <Gold.Chemscore.Metal.Weighted>
-0.0000

> <Gold.Chemscore.Lipo.Weighted>
-13.2372

> <Gold.Chemscore.Internal_Hbond.Weighted>
0.0000

> <Gold.Chemscore.DEClash.Weighted>
0.1016

> <Gold.Chemscore.DEInternal.Weighted>
0.0809

> <Gold.Chemscore.Rot.Weighted>
3.5185

> <Gold.Chemscore.Internal.Correction.Weighted>
   9.000000E+99

> <Gold.Protein.RotatedTorsions>
[ 6907 6896 6895 6894 ] final  -86.17 input  -60.11 | X-H torsion
[ 7974 7965 7964 7962 ] final  158.87 input  175.53 | X-H torsion
[ 8008 7997 7996 7995 ] final  167.54 input   59.86 | X-H torsion
[ 10167 10162 10161 10158 ] final -158.98 input  -65.29 | X-H torsion
[ 10718 10713 10712 10709 ] final   71.78 input   66.30 | X-H torsion
[ 10763 10752 10751 10750 ] final -160.14 input  -60.55 | X-H torsion
[ 11005 11000 10999 10996 ] final   18.76 input  -57.11 | X-H torsion

> <Gold.Protein.ActiveResidues>
 VAL166  LYS551  ARG553  GLY616  TRP617  ASP618  TYR619  PRO620  LYS621  CYS622 
 ASP623  PHE694  ASN695  SER759  ASP760  ASP761  ALA762  ILE779  LEU786  VAL792 
 PHE793  MET794  SER795  GLU796  ALA797  LYS798  CYS799  TRP800  GLU811  SER814 

> <Gold.Protein.RotatedAtoms>
  150.6867  134.3092  159.4739 H   0  0  0  0  0  0  0  0  0  0  0  0  # atno 6907 bound_to 6896
  152.0980  134.9359  160.0579 H   0  0  0  0  0  0  0  0  0  0  0  0  # atno 6908 bound_to 6896
  152.0649  133.4044  159.4471 H   0  0  0  0  0  0  0  0  0  0  0  0  # atno 6909 bound_to 6896
  144.7821  139.7539  143.6255 H   0  0  0  0  0  0  0  0  0  0  0  0  # atno 7974 bound_to 7965
  156.1625  140.1614  156.8588 H   0  0  0  0  0  0  0  0  0  0  0  0  # atno 8008 bound_to 7997
  154.5174  140.0786  156.8143 H   0  0  0  0  0  0  0  0  0  0  0  0  # atno 8009 bound_to 7997
  155.3679  140.3398  155.4244 H   0  0  0  0  0  0  0  0  0  0  0  0  # atno 8010 bound_to 7997
  139.6650  143.9845  152.2249 H   0  0  0  0  0  0  0  0  0  0  0  0  # atno 10167 bound_to 10162
  157.6469  130.9545  150.0837 H   0  0  0  0  0  0  0  0  0  0  0  0  # atno 10718 bound_to 10713
  154.7416  135.3070  154.8719 H   0  0  0  0  0  0  0  0  0  0  0  0  # atno 10763 bound_to 10752
  153.9532  135.6761  153.4748 H   0  0  0  0  0  0  0  0  0  0  0  0  # atno 10764 bound_to 10752
  153.1014  135.4910  154.8799 H   0  0  0  0  0  0  0  0  0  0  0  0  # atno 10765 bound_to 10752
  140.4212  134.1516  155.7673 H   0  0  0  0  0  0  0  0  0  0  0  0  # atno 11005 bound_to 11000
  146.2035  139.5344  142.9728 LP  0  0  0  0  0  0  0  0  0  0  0  0  # atno 17320 bound_to 7965
  145.6021  141.0353  143.2012 LP  0  0  0  0  0  0  0  0  0  0  0  0  # atno 17321 bound_to 7965
  139.9594  144.6568  150.8094 LP  0  0  0  0  0  0  0  0  0  0  0  0  # atno 17342 bound_to 10162
  140.7595  143.3131  151.2796 LP  0  0  0  0  0  0  0  0  0  0  0  0  # atno 17343 bound_to 10162
  156.1806  130.3650  149.9041 LP  0  0  0  0  0  0  0  0  0  0  0  0  # atno 17370 bound_to 10713
  156.6994  130.8927  151.3597 LP  0  0  0  0  0  0  0  0  0  0  0  0  # atno 17371 bound_to 10713
  141.1783  133.8468  157.1346 LP  0  0  0  0  0  0  0  0  0  0  0  0  # atno 17394 bound_to 11000
  140.0198  134.9951  157.0569 LP  0  0  0  0  0  0  0  0  0  0  0  0  # atno 17395 bound_to 11000

$$$$
