AV-unprocessed.smi:400|AV-procd|sdf|2493|dock5
  -GOLD-   2262022443D 1   1.00000     0.00000
 Structure written by MMmdl.
 40 41  0  0  0  0  0  0  0  0  1 V2000
  153.7288  136.5616  164.2836 C   0  0  0  0  0  0  0  0  0  0  0  0
  155.1894  136.3109  163.8761 C   0  0  0  0  0  0  0  0  0  0  0  0
  155.4082  136.1636  162.3538 C   0  0  1  0  0  0  0  0  0  0  0  0
  155.0270  134.7509  161.8783 C   0  0  0  0  0  0  0  0  0  0  0  0
  154.6259  137.2214  161.5592 C   0  0  0  0  0  0  0  0  0  0  0  0
  153.7946  136.8634  160.7237 O   0  0  0  0  0  0  0  0  0  0  0  0
  154.9172  138.5045  161.8457 N   0  0  0  0  0  0  0  0  0  0  0  0
  154.3292  139.6813  161.3110 C   0  0  0  0  0  0  0  0  0  0  0  0
  154.2573  140.7732  162.2015 C   0  0  0  0  0  0  0  0  0  0  0  0
  153.6768  141.9820  161.7728 C   0  0  0  0  0  0  0  0  0  0  0  0
  153.1685  142.0836  160.4558 C   0  0  0  0  0  0  0  0  0  0  0  0
  152.5683  143.2600  159.9563 N   0  0  0  0  0  0  0  0  0  0  0  0
  152.1740  144.2470  160.9587 C   0  0  0  0  0  0  0  0  0  0  0  0
  151.2557  145.3106  160.3317 C   0  0  0  0  0  0  0  0  0  0  0  0
  151.8951  145.8936  159.2011 O   0  0  0  0  0  0  0  0  0  0  0  0
  152.1633  144.9282  158.1901 C   0  0  0  0  0  0  0  0  0  0  0  0
  153.1162  143.8526  158.7393 C   0  0  0  0  0  0  0  0  0  0  0  0
  153.2949  140.9364  159.6388 C   0  0  0  0  0  0  0  0  0  0  0  0
  153.8530  139.7778  160.0470 N   0  0  0  0  0  0  0  0  0  0  0  0
  153.6513  136.7239  165.3588 H   0  0  0  0  0  0  0  0  0  0  0  0
  153.0887  135.7149  164.0350 H   0  0  0  0  0  0  0  0  0  0  0  0
  153.3270  137.4444  163.7854 H   0  0  0  0  0  0  0  0  0  0  0  0
  155.7927  137.1431  164.2406 H   0  0  0  0  0  0  0  0  0  0  0  0
  155.5612  135.4261  164.3950 H   0  0  0  0  0  0  0  0  0  0  0  0
  156.4727  136.2985  162.1530 H   0  0  0  0  0  0  0  0  0  0  0  0
  155.1667  134.6415  160.8020 H   0  0  0  0  0  0  0  0  0  0  0  0
  153.9857  134.5180  162.1050 H   0  0  0  0  0  0  0  0  0  0  0  0
  155.6457  133.9962  162.3644 H   0  0  0  0  0  0  0  0  0  0  0  0
  155.6351  138.6540  162.5395 H   0  0  0  0  0  0  0  0  0  0  0  0
  154.6390  140.6897  163.2089 H   0  0  0  0  0  0  0  0  0  0  0  0
  153.6224  142.8047  162.4695 H   0  0  0  0  0  0  0  0  0  0  0  0
  151.6585  143.7868  161.8004 H   0  0  0  0  0  0  0  0  0  0  0  0
  153.0723  144.7204  161.3573 H   0  0  0  0  0  0  0  0  0  0  0  0
  150.2994  144.8744  160.0384 H   0  0  0  0  0  0  0  0  0  0  0  0
  151.0382  146.0932  161.0585 H   0  0  0  0  0  0  0  0  0  0  0  0
  151.2308  144.4810  157.8429 H   0  0  0  0  0  0  0  0  0  0  0  0
  152.6152  145.4278  157.3330 H   0  0  0  0  0  0  0  0  0  0  0  0
  154.0889  144.2953  158.9579 H   0  0  0  0  0  0  0  0  0  0  0  0
  153.2663  143.0841  157.9800 H   0  0  0  0  0  0  0  0  0  0  0  0
  152.9546  140.9413  158.6139 H   0  0  0  0  0  0  0  0  0  0  0  0
  1  2  1  0  0  0  0
  1 20  1  0  0  0  0
  1 21  1  0  0  0  0
  1 22  1  0  0  0  0
  2  3  1  0  0  0  0
  2 23  1  0  0  0  0
  2 24  1  0  0  0  0
  3  4  1  0  0  0  0
  3  5  1  0  0  0  0
  3 25  1  0  0  0  0
  4 26  1  0  0  0  0
  4 27  1  0  0  0  0
  4 28  1  0  0  0  0
  5  6  2  0  0  0  0
  5  7  1  0  0  0  0
  7  8  1  0  0  0  0
  7 29  1  0  0  0  0
  8 19  1  0  0  0  0
  8  9  2  0  0  0  0
  9 10  1  0  0  0  0
  9 30  1  0  0  0  0
 10 11  2  0  0  0  0
 10 31  1  0  0  0  0
 11 12  1  0  0  0  0
 11 18  1  0  0  0  0
 12 17  1  0  0  0  0
 12 13  1  0  0  0  0
 13 14  1  0  0  0  0
 13 32  1  0  0  0  0
 13 33  1  0  0  0  0
 14 15  1  0  0  0  0
 14 34  1  0  0  0  0
 14 35  1  0  0  0  0
 15 16  1  0  0  0  0
 16 17  1  0  0  0  0
 16 36  1  0  0  0  0
 16 37  1  0  0  0  0
 17 38  1  0  0  0  0
 17 39  1  0  0  0  0
 18 19  2  0  0  0  0
 18 40  1  0  0  0  0
M  END
> <s_m_source_file>
AV-unprocessed.smi

> <i_m_source_file_index>
400

> <i_lp_mmshare_version>
43012

> <i_f3d_flags>
0

> <s_epik_input>
W0NIM11bQ0gyXVtDQEhdKFtDSDNdKUMoPU8pW05IXWMxW2NIXVtjSF1jKFtjSF1uMSlOMltDSDJdW0NIMl1PW0NIMl1bQ0gyXTI=

> <s_epik_cmdline>
J2VwaWtfcHl0aG9uJywgJy1waCcsICc3LjAnLCAnLXRuJywgJzgnLCAnLW1hJywgJzIwMCcsICctbWV0YWxfYmluZGluZycsICctaW1hZScsICc8aW5maWxlLm1hZT4nLCAnLW9tYWUnLCAnPG91dGZpbGUubWFlPic=

> <r_lp_tautomer_probability>
1

> <r_epik_Ionization_Penalty>
0.00393323

> <r_epik_Ionization_Penalty_Charging>
0

> <r_epik_Ionization_Penalty_Neutral>
0.00393323

> <r_epik_State_Penalty>
0.00357844

> <r_epik_Charging_Adjusted_Penalty>
0.00357844

> <i_epik_Tot_Q>
0

> <i_epik_Tot_abs_Q>
0

> <r_epik_Metal_State_Penalty>
-0

> <b_epik_Metal_Only>
0

> <s_lp_Force_Field>
OPLS_2005

> <r_lp_Energy>
25.3606

> <b_lp_Chiralities_Consistent>
1

> <s_lp_Variant>
AV-unprocessed.smi:400-2

> <Gold.Version>
5.8.1

> <Gold.Id.Protein>
6NUR|6NUR_protein|mol2

> <Gold.PLP.Fitness>
43.5018

> <Gold.PLP.PLP>
-44.3056

> <Gold.PLP.part.hbond>
-1.0000

> <Gold.PLP.part.metal>
0.0000

> <Gold.PLP.part.buried>
-5.6006

> <Gold.PLP.part.nonpolar>
-36.6761

> <Gold.PLP.part.repulsive>
0.1281

> <Gold.PLP.ligand.clash>
0.0000

> <Gold.PLP.ligand.torsion>
0.5972

> <Gold.PLP.Chemscore.Hbond>
0.0000

> <Gold.PLP.Chemscore.CHOScore>
0.0000

> <Gold.PLP.Chemscore.Metal>
0.0000

> <Gold.PLP.Chemscore.Internal.Correction>
0.3906

> <Gold.Rescore>
     Score         DG    S(hbond)    S(metal)    S(lipo)     H(rot)  DE(clash)    DE(int)     intcor
     14.51     -16.35       0.03        0.00     120.67       1.30       0.19       1.64       ----

> <Gold.Chemscore.Fitness>
14.5129

> <Gold.Chemscore.DG>
-16.3463

> <Gold.Chemscore.ZeroCoef>
-5.4800

> <Gold.Chemscore.Hbond>
0.0259

> <Gold.Chemscore.Metal>
0.0000

> <Gold.Chemscore.Lipo>
120.6703

> <Gold.Chemscore.Internal_Hbond>
0.0000

> <Gold.Chemscore.DEClash>
0.1901

> <Gold.Chemscore.DEInternal>
1.6433

> <Gold.Chemscore.Rot>
1.3041

> <Gold.Chemscore.Internal.Correction>
   9.000000E+99

> <Gold.Chemscore.Hbond.Weighted>
-0.0864

> <Gold.Chemscore.Metal.Weighted>
-0.0000

> <Gold.Chemscore.Lipo.Weighted>
-14.1184

> <Gold.Chemscore.Internal_Hbond.Weighted>
0.0000

> <Gold.Chemscore.DEClash.Weighted>
0.1901

> <Gold.Chemscore.DEInternal.Weighted>
1.6433

> <Gold.Chemscore.Rot.Weighted>
3.3385

> <Gold.Chemscore.Internal.Correction.Weighted>
   9.000000E+99

> <Gold.Protein.RotatedTorsions>
[ 6907 6896 6895 6894 ] final  169.75 input  -60.11 | X-H torsion
[ 7974 7965 7964 7962 ] final   45.97 input  175.53 | X-H torsion
[ 8008 7997 7996 7995 ] final  154.71 input   59.86 | X-H torsion
[ 10167 10162 10161 10158 ] final  -32.98 input  -65.29 | X-H torsion
[ 10718 10713 10712 10709 ] final   71.84 input   66.30 | X-H torsion
[ 10763 10752 10751 10750 ] final   19.23 input  -60.55 | X-H torsion
[ 11005 11000 10999 10996 ] final   87.62 input  -57.11 | X-H torsion

> <Gold.Protein.ActiveResidues>
 VAL166  LYS551  ARG553  GLY616  TRP617  ASP618  TYR619  PRO620  LYS621  CYS622 
 ASP623  PHE694  ASN695  SER759  ASP760  ASP761  ALA762  ILE779  LEU786  VAL792 
 PHE793  MET794  SER795  GLU796  ALA797  LYS798  CYS799  TRP800  GLU811  SER814 

> <Gold.Protein.RotatedAtoms>
  151.8270  133.3403  159.3601 H   0  0  0  0  0  0  0  0  0  0  0  0  # atno 6907 bound_to 6896
  150.7276  134.5519  159.5808 H   0  0  0  0  0  0  0  0  0  0  0  0  # atno 6908 bound_to 6896
  152.2964  134.7663  160.0418 H   0  0  0  0  0  0  0  0  0  0  0  0  # atno 6909 bound_to 6896
  146.0432  139.4906  142.9765 H   0  0  0  0  0  0  0  0  0  0  0  0  # atno 7974 bound_to 7965
  156.2517  140.1959  156.6689 H   0  0  0  0  0  0  0  0  0  0  0  0  # atno 8008 bound_to 7997
  154.6408  140.0584  156.9869 H   0  0  0  0  0  0  0  0  0  0  0  0  # atno 8009 bound_to 7997
  155.1566  140.3256  155.4423 H   0  0  0  0  0  0  0  0  0  0  0  0  # atno 8010 bound_to 7997
  140.7212  143.3654  151.1881 H   0  0  0  0  0  0  0  0  0  0  0  0  # atno 10167 bound_to 10162
  157.6472  130.9548  150.0845 H   0  0  0  0  0  0  0  0  0  0  0  0  # atno 10718 bound_to 10713
  153.1180  135.6712  153.9384 H   0  0  0  0  0  0  0  0  0  0  0  0  # atno 10763 bound_to 10752
  153.8908  135.3047  155.3448 H   0  0  0  0  0  0  0  0  0  0  0  0  # atno 10764 bound_to 10752
  154.7594  135.4995  153.9515 H   0  0  0  0  0  0  0  0  0  0  0  0  # atno 10765 bound_to 10752
  139.8915  134.8434  156.2886 H   0  0  0  0  0  0  0  0  0  0  0  0  # atno 11005 bound_to 11000
  145.6849  141.0180  143.1586 LP  0  0  0  0  0  0  0  0  0  0  0  0  # atno 17320 bound_to 7965
  144.7085  139.8465  143.7422 LP  0  0  0  0  0  0  0  0  0  0  0  0  # atno 17321 bound_to 7965
  139.7214  143.9217  152.2987 LP  0  0  0  0  0  0  0  0  0  0  0  0  # atno 17342 bound_to 10162
  139.8975  144.6931  150.8702 LP  0  0  0  0  0  0  0  0  0  0  0  0  # atno 17343 bound_to 10162
  156.1812  130.3650  149.9033 LP  0  0  0  0  0  0  0  0  0  0  0  0  # atno 17370 bound_to 10713
  156.6985  130.8923  151.3596 LP  0  0  0  0  0  0  0  0  0  0  0  0  # atno 17371 bound_to 10713
  140.9991  133.7162  156.0932 LP  0  0  0  0  0  0  0  0  0  0  0  0  # atno 17394 bound_to 11000
  140.7522  134.4032  157.5539 LP  0  0  0  0  0  0  0  0  0  0  0  0  # atno 17395 bound_to 11000

$$$$
