AV-unprocessed.smi:1376|AV-procd|sdf|5593|dock4
  -GOLD-   22720 5193D 1   1.00000     0.00000
 Structure written by MMmdl.
 42 43  0  0  0  0  0  0  0  0  1 V2000
  150.2098  141.7592  158.7567 O   0  0  0  0  0  0  0  0  0  0  0  0
  151.1069  142.1488  158.0072 C   0  0  0  0  0  0  0  0  0  0  0  0
  152.1763  143.1379  158.4937 C   0  0  0  0  0  0  0  0  0  0  0  0
  152.6970  142.8320  159.8368 N   0  0  0  0  0  0  0  0  0  0  0  0
  152.2924  143.6813  160.8862 C   0  0  0  0  0  0  0  0  0  0  0  0
  152.7116  143.5000  162.1485 C   0  0  0  0  0  0  0  0  0  0  0  0
  153.6026  142.3968  162.4197 C   0  0  0  0  0  0  0  0  0  0  0  0
  153.9978  141.5798  161.4230 C   0  0  0  0  0  0  0  0  0  0  0  0
  153.5442  141.7761  160.0409 C   0  0  0  0  0  0  0  0  0  0  0  0
  153.9048  141.0382  159.1238 O   0  0  0  0  0  0  0  0  0  0  0  0
  151.2250  141.7436  156.7334 N   0  0  0  0  0  0  0  0  0  0  0  0
  150.3230  140.8155  156.0581 C   0  0  1  0  0  0  0  0  0  0  0  0
  149.3681  141.5967  155.1367 C   0  0  0  0  0  0  0  0  0  0  0  0
  148.4292  140.6521  154.3692 C   0  0  0  0  0  0  0  0  0  0  0  0
  149.2165  139.5867  153.5863 C   0  0  0  0  0  0  0  0  0  0  0  0
  150.1728  138.7981  154.4990 C   0  0  2  0  0  0  0  0  0  0  0  0
  149.3733  138.0291  155.3918 O   0  0  0  0  0  0  0  0  0  0  0  0
  150.0937  137.1819  156.2764 C   0  0  0  0  0  0  0  0  0  0  0  0
  149.5458  137.3607  157.6972 C   0  0  0  0  0  0  0  0  0  0  0  0
  149.5423  138.6563  158.0085 F   0  0  0  0  0  0  0  0  0  0  0  0
  148.2977  136.8991  157.7704 F   0  0  0  0  0  0  0  0  0  0  0  0
  150.3147  136.7131  158.5725 F   0  0  0  0  0  0  0  0  0  0  0  0
  151.1136  139.7644  155.2499 C   0  0  0  0  0  0  0  0  0  0  0  0
  152.9919  143.1477  157.7691 H   0  0  0  0  0  0  0  0  0  0  0  0
  151.7603  144.1467  158.4659 H   0  0  0  0  0  0  0  0  0  0  0  0
  151.6311  144.4855  160.5977 H   0  0  0  0  0  0  0  0  0  0  0  0
  152.3937  144.1635  162.9391 H   0  0  0  0  0  0  0  0  0  0  0  0
  153.9551  142.2267  163.4264 H   0  0  0  0  0  0  0  0  0  0  0  0
  154.6656  140.7603  161.6449 H   0  0  0  0  0  0  0  0  0  0  0  0
  151.9906  142.1125  156.1880 H   0  0  0  0  0  0  0  0  0  0  0  0
  149.7240  140.3046  156.8145 H   0  0  0  0  0  0  0  0  0  0  0  0
  148.7776  142.3032  155.7213 H   0  0  0  0  0  0  0  0  0  0  0  0
  149.9438  142.1899  154.4246 H   0  0  0  0  0  0  0  0  0  0  0  0
  147.7511  140.1644  155.0708 H   0  0  0  0  0  0  0  0  0  0  0  0
  147.8027  141.2263  153.6865 H   0  0  0  0  0  0  0  0  0  0  0  0
  148.5265  138.9041  153.0889 H   0  0  0  0  0  0  0  0  0  0  0  0
  149.7894  140.0726  152.7955 H   0  0  0  0  0  0  0  0  0  0  0  0
  150.7616  138.1224  153.8765 H   0  0  0  0  0  0  0  0  0  0  0  0
  149.9910  136.1403  155.9687 H   0  0  0  0  0  0  0  0  0  0  0  0
  151.1559  137.4252  156.2662 H   0  0  0  0  0  0  0  0  0  0  0  0
  151.7489  140.2733  154.5237 H   0  0  0  0  0  0  0  0  0  0  0  0
  151.7955  139.2131  155.8961 H   0  0  0  0  0  0  0  0  0  0  0  0
  1  2  2  0  0  0  0
  2  3  1  0  0  0  0
  2 11  1  0  0  0  0
  3  4  1  0  0  0  0
  3 24  1  0  0  0  0
  3 25  1  0  0  0  0
  4  9  1  0  0  0  0
  4  5  1  0  0  0  0
  5  6  2  0  0  0  0
  5 26  1  0  0  0  0
  6  7  1  0  0  0  0
  6 27  1  0  0  0  0
  7  8  2  0  0  0  0
  7 28  1  0  0  0  0
  8  9  1  0  0  0  0
  8 29  1  0  0  0  0
  9 10  2  0  0  0  0
 11 12  1  0  0  0  0
 11 30  1  0  0  0  0
 12 23  1  0  0  0  0
 12 13  1  0  0  0  0
 12 31  1  0  0  0  0
 13 14  1  0  0  0  0
 13 32  1  0  0  0  0
 13 33  1  0  0  0  0
 14 15  1  0  0  0  0
 14 34  1  0  0  0  0
 14 35  1  0  0  0  0
 15 16  1  0  0  0  0
 15 36  1  0  0  0  0
 15 37  1  0  0  0  0
 16 17  1  0  0  0  0
 16 23  1  0  0  0  0
 16 38  1  0  0  0  0
 17 18  1  0  0  0  0
 18 19  1  0  0  0  0
 18 39  1  0  0  0  0
 18 40  1  0  0  0  0
 19 20  1  0  0  0  0
 19 21  1  0  0  0  0
 19 22  1  0  0  0  0
 23 41  1  0  0  0  0
 23 42  1  0  0  0  0
M  END
> <s_m_source_file>
AV-unprocessed.smi

> <i_m_source_file_index>
1376

> <i_lp_mmshare_version>
43012

> <i_f3d_flags>
0

> <s_epik_input>
Tz1jMVtjSF1bY0hdW2NIXVtjSF1uMVtDSDJdQyg9TylbTkhdW0NAQEhdMltDSDJdW0NIMl1bQ0gyXVtDQEhdKFtDSDJdMilPW0NIMl1DKEYpKEYpRg==

> <s_epik_cmdline>
J2VwaWtfcHl0aG9uJywgJy1waCcsICc3LjAnLCAnLXRuJywgJzgnLCAnLW1hJywgJzIwMCcsICctbWV0YWxfYmluZGluZycsICctaW1hZScsICc8aW5maWxlLm1hZT4nLCAnLW9tYWUnLCAnPG91dGZpbGUubWFlPic=

> <r_lp_tautomer_probability>
1

> <r_epik_Ionization_Penalty>
4.08567e-07

> <r_epik_Ionization_Penalty_Charging>
3.90028e-07

> <r_epik_Ionization_Penalty_Neutral>
1.85393e-08

> <r_epik_State_Penalty>
-0

> <r_epik_Charging_Adjusted_Penalty>
3.90028e-07

> <i_epik_Tot_Q>
0

> <i_epik_Tot_abs_Q>
0

> <r_epik_Metal_State_Penalty>
-0

> <b_epik_Metal_Only>
0

> <s_lp_Force_Field>
OPLS_2005

> <r_lp_Energy>
20.214

> <b_lp_Chiralities_Consistent>
1

> <s_lp_Variant>
AV-unprocessed.smi:1376-4

> <Gold.Version>
5.8.1

> <Gold.Id.Protein>
6NUR|6NUR_protein|mol2

> <Gold.PLP.Fitness>
44.7811

> <Gold.PLP.PLP>
-46.6397

> <Gold.PLP.part.hbond>
-0.3750

> <Gold.PLP.part.metal>
0.0000

> <Gold.PLP.part.buried>
-0.7593

> <Gold.PLP.part.nonpolar>
-45.7562

> <Gold.PLP.part.repulsive>
0.1932

> <Gold.PLP.ligand.clash>
0.0000

> <Gold.PLP.ligand.torsion>
0.9619

> <Gold.PLP.Chemscore.Hbond>
0.0000

> <Gold.PLP.Chemscore.CHOScore>
0.0000

> <Gold.PLP.Chemscore.Metal>
0.0000

> <Gold.Chemscore.Hbonds>
donor molecule, donor type, donor heavy atom, donor atom, acceptor molecule, acceptor atom, score
      P1  H  7997  8008       L1    10  0.02

> <Gold.PLP.Chemscore.Internal.Correction>
0.0652

> <Gold.Rescore>
     Score         DG    S(hbond)    S(metal)    S(lipo)     H(rot)  DE(clash)    DE(int)     intcor
      9.93     -12.89       0.31        0.00     102.33       2.18       2.30       0.67       ----

> <Gold.Chemscore.Fitness>
9.9251

> <Gold.Chemscore.DG>
-12.8927

> <Gold.Chemscore.ZeroCoef>
-5.4800

> <Gold.Chemscore.Hbond>
0.3056

> <Gold.Chemscore.Metal>
0.0000

> <Gold.Chemscore.Lipo>
102.3265

> <Gold.Chemscore.Internal_Hbond>
0.0000

> <Gold.Chemscore.DEClash>
2.2968

> <Gold.Chemscore.DEInternal>
0.6708

> <Gold.Chemscore.Rot>
2.1797

> <Gold.Chemscore.Internal.Correction>
   9.000000E+99

> <Gold.Chemscore.Hbonds>
donor molecule, donor type, donor heavy atom, donor atom, acceptor molecule, acceptor atom, score
      P1  H  7997  8008       L1    10  0.03

> <Gold.Chemscore.Hbond.Weighted>
-1.0206

> <Gold.Chemscore.Metal.Weighted>
-0.0000

> <Gold.Chemscore.Lipo.Weighted>
-11.9722

> <Gold.Chemscore.Internal_Hbond.Weighted>
0.0000

> <Gold.Chemscore.DEClash.Weighted>
2.2968

> <Gold.Chemscore.DEInternal.Weighted>
0.6708

> <Gold.Chemscore.Rot.Weighted>
5.5802

> <Gold.Chemscore.Internal.Correction.Weighted>
   9.000000E+99

> <Gold.Protein.RotatedTorsions>
[ 6907 6896 6895 6894 ] final  -84.72 input  -60.11 | X-H torsion
[ 7974 7965 7964 7962 ] final  171.12 input  175.53 | X-H torsion
[ 8008 7997 7996 7995 ] final  -82.96 input   59.86 | X-H torsion
[ 10167 10162 10161 10158 ] final  148.55 input  -65.29 | X-H torsion
[ 10718 10713 10712 10709 ] final  -82.19 input   66.30 | X-H torsion
[ 10763 10752 10751 10750 ] final -137.13 input  -60.55 | X-H torsion
[ 11005 11000 10999 10996 ] final  -27.41 input  -57.11 | X-H torsion

> <Gold.Protein.ActiveResidues>
 VAL166  LYS551  ARG553  GLY616  TRP617  ASP618  TYR619  PRO620  LYS621  CYS622 
 ASP623  PHE694  ASN695  SER759  ASP760  ASP761  ALA762  ILE779  LEU786  VAL792 
 PHE793  MET794  SER795  GLU796  ALA797  LYS798  CYS799  TRP800  GLU811  SER814 

> <Gold.Protein.RotatedAtoms>
  150.6874  134.3315  159.4828 H   0  0  0  0  0  0  0  0  0  0  0  0  # atno 6907 bound_to 6896
  152.1179  134.9224  160.0573 H   0  0  0  0  0  0  0  0  0  0  0  0  # atno 6908 bound_to 6896
  152.0441  133.3955  159.4386 H   0  0  0  0  0  0  0  0  0  0  0  0  # atno 6909 bound_to 6896
  144.7304  139.9302  143.6424 H   0  0  0  0  0  0  0  0  0  0  0  0  # atno 7974 bound_to 7965
  154.6141  140.0625  156.9531 H   0  0  0  0  0  0  0  0  0  0  0  0  # atno 8008 bound_to 7997
  155.1925  140.3308  155.4338 H   0  0  0  0  0  0  0  0  0  0  0  0  # atno 8009 bound_to 7997
  156.2394  140.1878  156.7014 H   0  0  0  0  0  0  0  0  0  0  0  0  # atno 8010 bound_to 7997
  139.4873  144.5671  151.7125 H   0  0  0  0  0  0  0  0  0  0  0  0  # atno 10167 bound_to 10162
  156.0037  130.4626  150.4067 H   0  0  0  0  0  0  0  0  0  0  0  0  # atno 10718 bound_to 10713
  154.8669  135.3651  154.5173 H   0  0  0  0  0  0  0  0  0  0  0  0  # atno 10763 bound_to 10752
  153.5805  135.7018  153.5470 H   0  0  0  0  0  0  0  0  0  0  0  0  # atno 10764 bound_to 10752
  153.3461  135.4084  155.1572 H   0  0  0  0  0  0  0  0  0  0  0  0  # atno 10765 bound_to 10752
  140.9117  133.7456  156.0680 H   0  0  0  0  0  0  0  0  0  0  0  0  # atno 11005 bound_to 11000
  146.0863  139.3851  143.0433 LP  0  0  0  0  0  0  0  0  0  0  0  0  # atno 17320 bound_to 7965
  145.7772  140.9871  143.1118 LP  0  0  0  0  0  0  0  0  0  0  0  0  # atno 17321 bound_to 7965
  140.5251  144.0818  150.6035 LP  0  0  0  0  0  0  0  0  0  0  0  0  # atno 17342 bound_to 10162
  140.3789  143.2813  152.0193 LP  0  0  0  0  0  0  0  0  0  0  0  0  # atno 17343 bound_to 10162
  157.2132  131.0465  151.2587 LP  0  0  0  0  0  0  0  0  0  0  0  0  # atno 17370 bound_to 10713
  157.3869  130.7261  149.6669 LP  0  0  0  0  0  0  0  0  0  0  0  0  # atno 17371 bound_to 10713
  140.8101  134.3409  157.5414 LP  0  0  0  0  0  0  0  0  0  0  0  0  # atno 17394 bound_to 11000
  139.8758  134.9249  156.3361 LP  0  0  0  0  0  0  0  0  0  0  0  0  # atno 17395 bound_to 11000

$$$$
