AV-unprocessed.smi:2030|AV-procd|sdf|8224|dock4
  -GOLD-   2272010493D 1   1.00000     0.00000
 Structure written by MMmdl.
 35 36  0  0  0  0  0  0  0  0  1 V2000
  153.4026  139.9787  160.0168 C   0  0  0  0  0  0  0  0  0  0  0  0
  152.7518  141.0687  159.2926 N   0  0  0  0  0  0  0  0  0  0  0  0
  152.2395  140.7193  158.0603 N   0  0  0  0  0  0  0  0  0  0  0  0
  151.4424  141.4998  157.4001 C   0  0  0  0  0  0  0  0  0  0  0  0
  150.9019  141.0674  156.0850 C   0  0  0  0  0  0  0  0  0  0  0  0
  151.4806  140.2187  155.4063 O   0  0  0  0  0  0  0  0  0  0  0  0
  149.7651  141.6696  155.6929 N   0  0  0  0  0  0  0  0  0  0  0  0
  149.1072  141.4728  154.4053 C   0  0  0  0  0  0  0  0  0  0  0  0
  147.7148  140.8275  154.5508 C   0  0  0  0  0  0  0  0  0  0  0  0
  146.6012  141.8388  154.7676 C   0  0  0  0  0  0  0  0  0  0  0  0
  146.2666  142.7696  153.7604 C   0  0  0  0  0  0  0  0  0  0  0  0
  145.2432  143.7010  154.0200 C   0  0  0  0  0  0  0  0  0  0  0  0
  144.5946  143.6645  155.2694 C   0  0  0  0  0  0  0  0  0  0  0  0
  145.0009  142.6944  156.2075 C   0  0  0  0  0  0  0  0  0  0  0  0
  145.9832  141.7985  155.9695 N   0  0  0  0  0  0  0  0  0  0  0  0
  151.0287  142.8411  157.9708 C   0  0  0  0  0  0  0  0  0  0  0  0
  152.0835  143.4070  158.9428 C   0  0  0  0  0  0  0  0  0  0  0  0
  152.7085  142.3178  159.8197 C   0  0  0  0  0  0  0  0  0  0  0  0
  153.1594  142.6091  160.9273 O   0  0  0  0  0  0  0  0  0  0  0  0
  152.9232  139.8187  160.9833 H   0  0  0  0  0  0  0  0  0  0  0  0
  154.4547  140.2077  160.1906 H   0  0  0  0  0  0  0  0  0  0  0  0
  153.3571  139.0368  159.4674 H   0  0  0  0  0  0  0  0  0  0  0  0
  149.3544  142.3518  156.3145 H   0  0  0  0  0  0  0  0  0  0  0  0
  149.0371  142.4168  153.8629 H   0  0  0  0  0  0  0  0  0  0  0  0
  149.7477  140.8221  153.8095 H   0  0  0  0  0  0  0  0  0  0  0  0
  147.4885  140.2386  153.6611 H   0  0  0  0  0  0  0  0  0  0  0  0
  147.7225  140.1219  155.3826 H   0  0  0  0  0  0  0  0  0  0  0  0
  146.7882  142.7762  152.8142 H   0  0  0  0  0  0  0  0  0  0  0  0
  144.9624  144.4308  153.2750 H   0  0  0  0  0  0  0  0  0  0  0  0
  143.8050  144.3629  155.5038 H   0  0  0  0  0  0  0  0  0  0  0  0
  144.5252  142.6377  157.1754 H   0  0  0  0  0  0  0  0  0  0  0  0
  150.8708  143.5654  157.1706 H   0  0  0  0  0  0  0  0  0  0  0  0
  150.0714  142.7340  158.4819 H   0  0  0  0  0  0  0  0  0  0  0  0
  152.8907  143.8744  158.3773 H   0  0  0  0  0  0  0  0  0  0  0  0
  151.6450  144.1865  159.5668 H   0  0  0  0  0  0  0  0  0  0  0  0
  1  2  1  0  0  0  0
  1 20  1  0  0  0  0
  1 21  1  0  0  0  0
  1 22  1  0  0  0  0
  2 18  1  0  0  0  0
  2  3  1  0  0  0  0
  3  4  2  0  0  0  0
  4  5  1  0  0  0  0
  4 16  1  0  0  0  0
  5  6  2  0  0  0  0
  5  7  1  0  0  0  0
  7  8  1  0  0  0  0
  7 23  1  0  0  0  0
  8  9  1  0  0  0  0
  8 24  1  0  0  0  0
  8 25  1  0  0  0  0
  9 10  1  0  0  0  0
  9 26  1  0  0  0  0
  9 27  1  0  0  0  0
 10 15  1  0  0  0  0
 10 11  2  0  0  0  0
 11 12  1  0  0  0  0
 11 28  1  0  0  0  0
 12 13  2  0  0  0  0
 12 29  1  0  0  0  0
 13 14  1  0  0  0  0
 13 30  1  0  0  0  0
 14 15  2  0  0  0  0
 14 31  1  0  0  0  0
 16 17  1  0  0  0  0
 16 32  1  0  0  0  0
 16 33  1  0  0  0  0
 17 18  1  0  0  0  0
 17 34  1  0  0  0  0
 17 35  1  0  0  0  0
 18 19  2  0  0  0  0
M  END
> <s_m_source_file>
AV-unprocessed.smi

> <i_m_source_file_index>
2030

> <i_lp_mmshare_version>
43012

> <i_f3d_flags>
0

> <s_epik_input>
Tz1DMVtDSDJdW0NIMl1DKD1OTjFbQ0gzXSlDKD1PKVtOSF1bQ0gyXVtDSDJdYzJbY0hdW2NIXVtjSF1bY0hdbjI=

> <s_epik_cmdline>
J2VwaWtfcHl0aG9uJywgJy1waCcsICc3LjAnLCAnLXRuJywgJzgnLCAnLW1hJywgJzIwMCcsICctbWV0YWxfYmluZGluZycsICctaW1hZScsICc8aW5maWxlLm1hZT4nLCAnLW9tYWUnLCAnPG91dGZpbGUubWFlPic=

> <r_epik_Ionization_Penalty>
0.0175455

> <r_epik_Ionization_Penalty_Charging>
0

> <r_epik_Ionization_Penalty_Neutral>
0.0175455

> <r_epik_State_Penalty>
0.0138544

> <r_epik_Charging_Adjusted_Penalty>
0.0138544

> <i_epik_Tot_Q>
0

> <i_epik_Tot_abs_Q>
0

> <r_epik_Metal_State_Penalty>
0.0690211

> <b_epik_Metal_Only>
0

> <s_epik_Chemistry_Notes>
This compound has an imine and may undergo hydrolysis.

> <s_lp_Force_Field>
OPLS_2005

> <r_lp_Energy>
15.1803

> <b_lp_Chiralities_Consistent>
1

> <s_lp_Variant>
AV-unprocessed.smi:2030-1

> <Gold.Version>
5.8.1

> <Gold.Id.Protein>
6NUR|6NUR_protein|mol2

> <Gold.PLP.Fitness>
41.9328

> <Gold.PLP.PLP>
-39.8298

> <Gold.PLP.part.hbond>
-1.5619

> <Gold.PLP.part.metal>
0.0000

> <Gold.PLP.part.buried>
-6.9537

> <Gold.PLP.part.nonpolar>
-31.7512

> <Gold.PLP.part.repulsive>
0.2527

> <Gold.PLP.ligand.clash>
0.0000

> <Gold.PLP.ligand.torsion>
0.4171

> <Gold.PLP.Chemscore.Hbond>
0.9760

> <Gold.PLP.Chemscore.CHOScore>
0.0000

> <Gold.PLP.Chemscore.Metal>
0.0000

> <Gold.Chemscore.Hbonds>
donor molecule, donor type, donor heavy atom, donor atom, acceptor molecule, acceptor atom, score
      P1  H  7989  7998       L1     6  0.96

> <Gold.PLP.Chemscore.Internal.Correction>
0.0091

> <Gold.Rescore>
     Score         DG    S(hbond)    S(metal)    S(lipo)     H(rot)  DE(clash)    DE(int)     intcor
     12.93     -13.40       0.84        0.00      75.46       1.45       0.09       0.38       ----

> <Gold.Chemscore.Fitness>
12.9308

> <Gold.Chemscore.DG>
-13.3992

> <Gold.Chemscore.ZeroCoef>
-5.4800

> <Gold.Chemscore.Hbond>
0.8376

> <Gold.Chemscore.Metal>
0.0000

> <Gold.Chemscore.Lipo>
75.4570

> <Gold.Chemscore.Internal_Hbond>
0.0000

> <Gold.Chemscore.DEClash>
0.0856

> <Gold.Chemscore.DEInternal>
0.3828

> <Gold.Chemscore.Rot>
1.4480

> <Gold.Chemscore.Internal.Correction>
   9.000000E+99

> <Gold.Chemscore.Hbonds>
donor molecule, donor type, donor heavy atom, donor atom, acceptor molecule, acceptor atom, score
      L1  H     7    23       P1  8028  0.01
      P1  H  7989  7998       L1     6  0.61

> <Gold.Chemscore.Hbond.Weighted>
-2.7977

> <Gold.Chemscore.Metal.Weighted>
-0.0000

> <Gold.Chemscore.Lipo.Weighted>
-8.8285

> <Gold.Chemscore.Internal_Hbond.Weighted>
0.0000

> <Gold.Chemscore.DEClash.Weighted>
0.0856

> <Gold.Chemscore.DEInternal.Weighted>
0.3828

> <Gold.Chemscore.Rot.Weighted>
3.7070

> <Gold.Chemscore.Internal.Correction.Weighted>
   9.000000E+99

> <Gold.Protein.RotatedTorsions>
[ 6907 6896 6895 6894 ] final  -73.69 input  -60.11 | X-H torsion
[ 7974 7965 7964 7962 ] final  135.98 input  175.53 | X-H torsion
[ 8008 7997 7996 7995 ] final  152.04 input   59.86 | X-H torsion
[ 10167 10162 10161 10158 ] final   48.37 input  -65.29 | X-H torsion
[ 10718 10713 10712 10709 ] final   72.68 input   66.30 | X-H torsion
[ 10763 10752 10751 10750 ] final  -22.35 input  -60.55 | X-H torsion
[ 11005 11000 10999 10996 ] final -104.94 input  -57.11 | X-H torsion

> <Gold.Protein.ActiveResidues>
 VAL166  LYS551  ARG553  GLY616  TRP617  ASP618  TYR619  PRO620  LYS621  CYS622 
 ASP623  PHE694  ASN695  SER759  ASP760  ASP761  ALA762  ILE779  LEU786  VAL792 
 PHE793  MET794  SER795  GLU796  ALA797  LYS798  CYS799  TRP800  GLU811  SER814 

> <Gold.Protein.RotatedAtoms>
  150.7120  134.4979  159.5546 H   0  0  0  0  0  0  0  0  0  0  0  0  # atno 6907 bound_to 6896
  152.2583  134.8058  160.0444 H   0  0  0  0  0  0  0  0  0  0  0  0  # atno 6908 bound_to 6896
  151.8781  133.3454  159.3794 H   0  0  0  0  0  0  0  0  0  0  0  0  # atno 6909 bound_to 6896
  144.9610  139.4711  143.5479 H   0  0  0  0  0  0  0  0  0  0  0  0  # atno 7974 bound_to 7965
  156.2647  140.2031  156.6270 H   0  0  0  0  0  0  0  0  0  0  0  0  # atno 8008 bound_to 7997
  154.6712  140.0550  157.0192 H   0  0  0  0  0  0  0  0  0  0  0  0  # atno 8009 bound_to 7997
  155.1134  140.3217  155.4518 H   0  0  0  0  0  0  0  0  0  0  0  0  # atno 8010 bound_to 7997
  140.2940  144.3013  150.6234 H   0  0  0  0  0  0  0  0  0  0  0  0  # atno 10167 bound_to 10162
  157.6512  130.9591  150.0963 H   0  0  0  0  0  0  0  0  0  0  0  0  # atno 10718 bound_to 10713
  153.6505  135.6981  153.5210 H   0  0  0  0  0  0  0  0  0  0  0  0  # atno 10763 bound_to 10752
  153.2710  135.4215  155.0987 H   0  0  0  0  0  0  0  0  0  0  0  0  # atno 10764 bound_to 10752
  154.8477  135.3578  154.6050 H   0  0  0  0  0  0  0  0  0  0  0  0  # atno 10765 bound_to 10752
  141.1077  133.8766  157.1673 H   0  0  0  0  0  0  0  0  0  0  0  0  # atno 11005 bound_to 11000
  146.3353  139.8759  142.8832 LP  0  0  0  0  0  0  0  0  0  0  0  0  # atno 17320 bound_to 7965
  145.2700  141.0105  143.3777 LP  0  0  0  0  0  0  0  0  0  0  0  0  # atno 17321 bound_to 7965
  140.5708  143.2181  151.7602 LP  0  0  0  0  0  0  0  0  0  0  0  0  # atno 17342 bound_to 10162
  139.4931  144.4219  151.9968 LP  0  0  0  0  0  0  0  0  0  0  0  0  # atno 17343 bound_to 10162
  156.1898  130.3654  149.8925 LP  0  0  0  0  0  0  0  0  0  0  0  0  # atno 17370 bound_to 10713
  156.6856  130.8875  151.3581 LP  0  0  0  0  0  0  0  0  0  0  0  0  # atno 17371 bound_to 10713
  139.9954  135.0048  157.0071 LP  0  0  0  0  0  0  0  0  0  0  0  0  # atno 17394 bound_to 11000
  140.4859  134.1242  155.7224 LP  0  0  0  0  0  0  0  0  0  0  0  0  # atno 17395 bound_to 11000

$$$$
