AV-unprocessed.smi:766|AV-procd|sdf|3653|dock9
  -GOLD-   22720 1 63D 1   1.00000     0.00000
 Structure written by MMmdl.
 48 50  0  0  0  0  0  0  0  0  3 V2000
  145.5539  129.6648  151.9382 C   0  0  0  0  0  0  0  0  0  0  0  0
  145.5445  131.1826  151.8696 C   0  0  0  0  0  0  0  0  0  0  0  0
  144.5258  131.8175  151.1241 C   0  0  0  0  0  0  0  0  0  0  0  0
  144.5419  133.2064  151.0827 C   0  0  0  0  0  0  0  0  0  0  0  0
  143.6912  134.1107  150.4440 N   0  3  0  0  0  0  0  0  0  0  0  0
  144.1083  135.3822  150.6949 C   0  0  0  0  0  0  0  0  0  0  0  0
  145.2157  135.3042  151.4825 N   0  0  0  0  0  0  0  0  0  0  0  0
  146.0432  136.3820  152.0444 C   0  0  0  0  0  0  0  0  0  0  0  0
  145.7878  137.7463  151.3746 C   0  0  2  0  0  0  0  0  0  0  0  0
  146.2339  137.7079  150.0330 O   0  0  0  0  0  0  0  0  0  0  0  0
  146.5182  138.8875  152.1016 C   0  0  0  0  0  0  0  0  0  0  0  0
  147.8752  138.4775  152.5135 N   0  3  0  0  0  0  0  0  0  0  0  0
  148.1137  138.5513  153.9689 C   0  0  0  0  0  0  0  0  0  0  0  0
  149.0914  139.6863  154.3251 C   0  0  0  0  0  0  0  0  0  0  0  0
  150.4608  139.2345  154.5166 N   0  0  0  0  0  0  0  0  0  0  0  0
  151.0046  138.0080  154.1956 C   0  0  0  0  0  0  0  0  0  0  0  0
  152.3287  138.0490  154.5260 C   0  0  0  0  0  0  0  0  0  0  0  0
  152.5099  139.3655  155.0334 C   0  0  0  0  0  0  0  0  0  0  0  0
  151.3930  140.0750  155.0178 N   0  0  0  0  0  0  0  0  0  0  0  0
  145.5241  133.9642  151.7504 C   0  0  0  0  0  0  0  0  0  0  0  0
  146.5370  133.3535  152.4866 C   0  0  0  0  0  0  0  0  0  0  0  0
  146.5382  131.9411  152.5411 C   0  0  0  0  0  0  0  0  0  0  0  0
  147.6310  131.2474  153.3367 C   0  0  0  0  0  0  0  0  0  0  0  0
  144.7345  129.2342  151.3619 H   0  0  0  0  0  0  0  0  0  0  0  0
  145.4484  129.3281  152.9696 H   0  0  0  0  0  0  0  0  0  0  0  0
  146.4868  129.2680  151.5373 H   0  0  0  0  0  0  0  0  0  0  0  0
  143.7671  131.2463  150.6093 H   0  0  0  0  0  0  0  0  0  0  0  0
  143.6416  136.2882  150.3357 H   0  0  0  0  0  0  0  0  0  0  0  0
  145.8049  136.4426  153.1072 H   0  0  0  0  0  0  0  0  0  0  0  0
  147.0947  136.0997  151.9860 H   0  0  0  0  0  0  0  0  0  0  0  0
  144.7149  137.9439  151.3731 H   0  0  0  0  0  0  0  0  0  0  0  0
  145.5868  138.1301  149.4882 H   0  0  0  0  0  0  0  0  0  0  0  0
  146.6075  139.7504  151.4401 H   0  0  0  0  0  0  0  0  0  0  0  0
  145.9472  139.2114  152.9734 H   0  0  0  0  0  0  0  0  0  0  0  0
  148.0166  137.5207  152.2204 H   0  0  0  0  0  0  0  0  0  0  0  0
  147.1631  138.7179  154.4769 H   0  0  0  0  0  0  0  0  0  0  0  0
  148.4957  137.5938  154.3251 H   0  0  0  0  0  0  0  0  0  0  0  0
  149.0836  140.4444  153.5407 H   0  0  0  0  0  0  0  0  0  0  0  0
  148.7685  140.1815  155.2415 H   0  0  0  0  0  0  0  0  0  0  0  0
  150.4111  137.2151  153.7644 H   0  0  0  0  0  0  0  0  0  0  0  0
  153.0587  137.2609  154.4152 H   0  0  0  0  0  0  0  0  0  0  0  0
  153.4138  139.8246  155.4057 H   0  0  0  0  0  0  0  0  0  0  0  0
  147.2972  133.9276  152.9955 H   0  0  0  0  0  0  0  0  0  0  0  0
  148.3122  131.9672  153.7915 H   0  0  0  0  0  0  0  0  0  0  0  0
  148.2189  130.5946  152.6913 H   0  0  0  0  0  0  0  0  0  0  0  0
  147.1990  130.6466  154.1372 H   0  0  0  0  0  0  0  0  0  0  0  0
  148.5493  139.0629  152.0417 H   0  0  0  0  0  0  0  0  0  0  0  0
  142.8826  133.8793  149.8806 H   0  0  0  0  0  0  0  0  0  0  0  0
  1  2  1  0  0  0  0
  1 24  1  0  0  0  0
  1 25  1  0  0  0  0
  1 26  1  0  0  0  0
  2 22  1  0  0  0  0
  2  3  2  0  0  0  0
  3  4  1  0  0  0  0
  3 27  1  0  0  0  0
  4 20  2  0  0  0  0
  4  5  1  0  0  0  0
  5  6  2  0  0  0  0
  5 48  1  0  0  0  0
  6  7  1  0  0  0  0
  6 28  1  0  0  0  0
  7  8  1  0  0  0  0
  7 20  1  0  0  0  0
  8  9  1  0  0  0  0
  8 29  1  0  0  0  0
  8 30  1  0  0  0  0
  9 10  1  0  0  0  0
  9 11  1  0  0  0  0
  9 31  1  0  0  0  0
 10 32  1  0  0  0  0
 11 12  1  0  0  0  0
 11 33  1  0  0  0  0
 11 34  1  0  0  0  0
 12 13  1  0  0  0  0
 12 35  1  0  0  0  0
 12 47  1  0  0  0  0
 13 14  1  0  0  0  0
 13 36  1  0  0  0  0
 13 37  1  0  0  0  0
 14 15  1  0  0  0  0
 14 38  1  0  0  0  0
 14 39  1  0  0  0  0
 15 19  1  0  0  0  0
 15 16  1  0  0  0  0
 16 17  2  0  0  0  0
 16 40  1  0  0  0  0
 17 18  1  0  0  0  0
 17 41  1  0  0  0  0
 18 19  2  0  0  0  0
 18 42  1  0  0  0  0
 20 21  1  0  0  0  0
 21 22  2  0  0  0  0
 21 43  1  0  0  0  0
 22 23  1  0  0  0  0
 23 44  1  0  0  0  0
 23 45  1  0  0  0  0
 23 46  1  0  0  0  0
M  CHG  1   5   1
M  CHG  1  12   1
M  END
> <s_m_source_file>
AV-unprocessed.smi

> <i_m_source_file_index>
766

> <i_lp_mmshare_version>
43012

> <i_f3d_flags>
0

> <s_epik_input>
W0NIM11jKFtjSF0xKWMoW0NIM10pW2NIXWMoYzEyKW4oW2NIXW4yKVtDSDJdW0NASF0oW09IXSlbQ0gyXVtOSF1bQ0gyXVtDSDJdbjNbY0hdW2NIXVtjSF1uMw==

> <s_epik_cmdline>
J2VwaWtfcHl0aG9uJywgJy1waCcsICc3LjAnLCAnLXRuJywgJzgnLCAnLW1hJywgJzIwMCcsICctbWV0YWxfYmluZGluZycsICctaW1hZScsICc8aW5maWxlLm1hZT4nLCAnLW9tYWUnLCAnPG91dGZpbGUubWFlPic=

> <r_lp_tautomer_probability>
1

> <r_epik_Ionization_Penalty>
1.25103

> <r_epik_Ionization_Penalty_Charging>
1.25102

> <r_epik_Ionization_Penalty_Neutral>
6.05394e-06

> <r_epik_State_Penalty>
1.2613

> <r_epik_Charging_Adjusted_Penalty>
2.51232

> <i_epik_Tot_Q>
2

> <i_epik_Tot_abs_Q>
2

> <r_epik_Metal_State_Penalty>
1.33164

> <b_epik_Metal_Only>
0

> <s_lp_Force_Field>
OPLS_2005

> <r_lp_Energy>
19.7351

> <b_lp_Chiralities_Consistent>
1

> <s_lp_Variant>
AV-unprocessed.smi:766-3

> <Gold.Version>
5.8.1

> <Gold.Id.Protein>
6NUR|6NUR_protein|mol2

> <Gold.PLP.Fitness>
72.7181

> <Gold.PLP.PLP>
-48.5650

> <Gold.PLP.part.hbond>
-5.8285

> <Gold.PLP.part.metal>
0.0000

> <Gold.PLP.part.buried>
1.1154

> <Gold.PLP.part.nonpolar>
-44.7825

> <Gold.PLP.part.repulsive>
0.1272

> <Gold.PLP.ligand.clash>
0.0000

> <Gold.PLP.ligand.torsion>
1.4957

> <Gold.PLP.Chemscore.Hbond>
6.9300

> <Gold.PLP.Chemscore.CHOScore>
2.0527

> <Gold.PLP.Chemscore.Metal>
0.0000

> <Gold.Chemscore.Hbonds>
donor molecule, donor type, donor heavy atom, donor atom, acceptor molecule, acceptor atom, score
      L1  H     5    48       P1 10186  1.66
      L1  H    10    32       P1 10171  0.67
      L1  H    12    35       P1  7948  2.00
      L1  H    12    47       P1  7957  1.00
      P1  H  7954  7966       L1    10  0.64
      P1  H  7989  7998       L1    19  0.60
      L1  C     6    28       P1 10171  1.00
      L1  C    16    40       P1  7948  0.79
      L1  C    16    40       P1  7949  0.23

> <Gold.PLP.Chemscore.Internal.Correction>
0.1964

> <Gold.Rescore>
     Score         DG    S(hbond)    S(metal)    S(lipo)     H(rot)  DE(clash)    DE(int)     intcor
     21.31     -25.23       4.20        0.00     115.17       3.02       2.46       1.46       ----

> <Gold.Chemscore.Fitness>
21.3062

> <Gold.Chemscore.DG>
-25.2317

> <Gold.Chemscore.ZeroCoef>
-5.4800

> <Gold.Chemscore.Hbond>
4.1964

> <Gold.Chemscore.Metal>
0.0000

> <Gold.Chemscore.Lipo>
115.1658

> <Gold.Chemscore.Internal_Hbond>
0.0000

> <Gold.Chemscore.DEClash>
2.4616

> <Gold.Chemscore.DEInternal>
1.4639

> <Gold.Chemscore.Rot>
3.0229

> <Gold.Chemscore.Internal.Correction>
   9.000000E+99

> <Gold.Chemscore.Hbonds>
donor molecule, donor type, donor heavy atom, donor atom, acceptor molecule, acceptor atom, score
      L1  H     5    48       P1 10186  0.81
      L1  H    10    32       P1 10171  0.66
      L1  H    12    35       P1  7948  0.95
      L1  H    12    47       P1  7957  0.98
      P1  H  7954  7966       L1    10  0.56
      P1  H  7989  7998       L1    19  0.01

> <Gold.Chemscore.Hbond.Weighted>
-14.0159

> <Gold.Chemscore.Metal.Weighted>
-0.0000

> <Gold.Chemscore.Lipo.Weighted>
-13.4744

> <Gold.Chemscore.Internal_Hbond.Weighted>
0.0000

> <Gold.Chemscore.DEClash.Weighted>
2.4616

> <Gold.Chemscore.DEInternal.Weighted>
1.4639

> <Gold.Chemscore.Rot.Weighted>
7.7386

> <Gold.Chemscore.Internal.Correction.Weighted>
   9.000000E+99

> <Gold.Protein.RotatedTorsions>
[ 6907 6896 6895 6894 ] final  -56.86 input  -60.11 | X-H torsion
[ 7974 7965 7964 7962 ] final  -61.22 input  175.53 | X-H torsion
[ 8008 7997 7996 7995 ] final  157.86 input   59.86 | X-H torsion
[ 10167 10162 10161 10158 ] final   49.32 input  -65.29 | X-H torsion
[ 10718 10713 10712 10709 ] final  -42.62 input   66.30 | X-H torsion
[ 10763 10752 10751 10750 ] final -123.75 input  -60.55 | X-H torsion
[ 11005 11000 10999 10996 ] final   84.29 input  -57.11 | X-H torsion

> <Gold.Protein.ActiveResidues>
 VAL166  LYS551  ARG553  GLY616  TRP617  ASP618  TYR619  PRO620  LYS621  CYS622 
 ASP623  PHE694  ASN695  SER759  ASP760  ASP761  ALA762  ILE779  LEU786  VAL792 
 PHE793  MET794  SER795  GLU796  ALA797  LYS798  CYS799  TRP800  GLU811  SER814 

> <Gold.Protein.RotatedAtoms>
  150.8133  134.7301  159.6707 H   0  0  0  0  0  0  0  0  0  0  0  0  # atno 6907 bound_to 6896
  152.4253  134.5877  159.9975 H   0  0  0  0  0  0  0  0  0  0  0  0  # atno 6908 bound_to 6896
  151.6081  133.3312  159.3097 H   0  0  0  0  0  0  0  0  0  0  0  0  # atno 6909 bound_to 6896
  145.8061  140.8626  143.0206 H   0  0  0  0  0  0  0  0  0  0  0  0  # atno 7974 bound_to 7965
  156.2338  140.1874  156.7173 H   0  0  0  0  0  0  0  0  0  0  0  0  # atno 8008 bound_to 7997
  154.6070  140.0627  156.9471 H   0  0  0  0  0  0  0  0  0  0  0  0  # atno 8009 bound_to 7997
  155.2079  140.3297  155.4336 H   0  0  0  0  0  0  0  0  0  0  0  0  # atno 8010 bound_to 7997
  140.2841  144.3123  150.6257 H   0  0  0  0  0  0  0  0  0  0  0  0  # atno 10167 bound_to 10162
  156.2576  130.4194  149.8578 H   0  0  0  0  0  0  0  0  0  0  0  0  # atno 10718 bound_to 10713
  154.8713  135.4087  154.2994 H   0  0  0  0  0  0  0  0  0  0  0  0  # atno 10763 bound_to 10752
  153.3856  135.7013  153.6538 H   0  0  0  0  0  0  0  0  0  0  0  0  # atno 10764 bound_to 10752
  153.5342  135.3661  155.2661 H   0  0  0  0  0  0  0  0  0  0  0  0  # atno 10765 bound_to 10752
  139.9005  134.8205  156.2424 H   0  0  0  0  0  0  0  0  0  0  0  0  # atno 11005 bound_to 11000
  144.6763  140.0328  143.7482 LP  0  0  0  0  0  0  0  0  0  0  0  0  # atno 17320 bound_to 7965
  145.9827  139.2953  143.1032 LP  0  0  0  0  0  0  0  0  0  0  0  0  # atno 17321 bound_to 7965
  140.5787  143.2174  151.7467 LP  0  0  0  0  0  0  0  0  0  0  0  0  # atno 17342 bound_to 10162
  139.4955  144.4111  152.0079 LP  0  0  0  0  0  0  0  0  0  0  0  0  # atno 17343 bound_to 10162
  156.6105  130.8584  151.3453 LP  0  0  0  0  0  0  0  0  0  0  0  0  # atno 17370 bound_to 10713
  157.7238  130.9595  150.1550 LP  0  0  0  0  0  0  0  0  0  0  0  0  # atno 17371 bound_to 10713
  141.0276  133.7006  156.1374 LP  0  0  0  0  0  0  0  0  0  0  0  0  # atno 17394 bound_to 11000
  140.7143  134.4427  157.5579 LP  0  0  0  0  0  0  0  0  0  0  0  0  # atno 17395 bound_to 11000

$$$$
