AV-unprocessed.smi:505|AV-procd|sdf|2748|dock10
  -GOLD-   2262023213D 1   1.00000     0.00000
 Structure written by MMmdl.
 37 38  0  0  0  0  0  0  0  0  1 V2000
  150.3410  134.8998  154.8869 C   0  0  0  0  0  0  0  0  0  0  0  0
  151.1141  136.0663  154.6704 O   0  0  0  0  0  0  0  0  0  0  0  0
  150.3748  137.2580  154.8831 C   0  0  0  0  0  0  0  0  0  0  0  0
  151.2619  138.4752  154.5873 C   0  0  0  0  0  0  0  0  0  0  0  0
  151.6892  139.1538  155.8069 N   0  0  0  0  0  0  0  0  0  0  0  0
  152.4972  138.6787  156.7870 C   0  0  0  0  0  0  0  0  0  0  0  0
  153.0122  137.3917  156.7116 N   0  0  0  0  0  0  0  0  0  0  0  0
  153.8821  136.6431  157.5980 C   0  0  0  0  0  0  0  0  0  0  0  0
  153.6999  137.0647  159.0616 C   0  0  0  0  0  0  0  0  0  0  0  0
  152.3482  136.9182  159.4421 O   0  0  0  0  0  0  0  0  0  0  0  0
  152.7264  139.5282  157.7916 N   0  0  0  0  0  0  0  0  0  0  0  0
  151.9857  140.6432  157.4232 C   0  0  0  0  0  0  0  0  0  0  0  0
  151.3508  140.4342  156.2410 C   0  0  0  0  0  0  0  0  0  0  0  0
  150.4798  141.4402  155.6221 C   0  0  0  0  0  0  0  0  0  0  0  0
  149.8912  141.2631  154.5575 O   0  0  0  0  0  0  0  0  0  0  0  0
  150.3874  142.5805  156.3488 N   0  0  0  0  0  0  0  0  0  0  0  0
  150.9994  142.8585  157.5408 C   0  0  0  0  0  0  0  0  0  0  0  0
  150.8147  143.9457  158.0876 O   0  0  0  0  0  0  0  0  0  0  0  0
  151.8075  141.8922  158.0842 N   0  0  0  0  0  0  0  0  0  0  0  0
  152.4899  142.1383  159.3561 C   0  0  0  0  0  0  0  0  0  0  0  0
  149.7976  143.3065  155.9691 H   0  0  0  0  0  0  0  0  0  0  0  0
  150.9556  134.0164  154.7135 H   0  0  0  0  0  0  0  0  0  0  0  0
  149.4911  134.8583  154.2046 H   0  0  0  0  0  0  0  0  0  0  0  0
  149.9706  134.8568  155.9120 H   0  0  0  0  0  0  0  0  0  0  0  0
  149.4990  137.2742  154.2328 H   0  0  0  0  0  0  0  0  0  0  0  0
  150.0168  137.2970  155.9130 H   0  0  0  0  0  0  0  0  0  0  0  0
  152.1394  138.1684  154.0178 H   0  0  0  0  0  0  0  0  0  0  0  0
  150.7343  139.1856  153.9516 H   0  0  0  0  0  0  0  0  0  0  0  0
  152.6798  136.8529  155.9250 H   0  0  0  0  0  0  0  0  0  0  0  0
  153.6250  135.5890  157.4910 H   0  0  0  0  0  0  0  0  0  0  0  0
  154.9212  136.7482  157.2838 H   0  0  0  0  0  0  0  0  0  0  0  0
  154.3495  136.4981  159.7298 H   0  0  0  0  0  0  0  0  0  0  0  0
  153.9617  138.1169  159.1744 H   0  0  0  0  0  0  0  0  0  0  0  0
  151.8186  137.4759  158.8929 H   0  0  0  0  0  0  0  0  0  0  0  0
  153.0905  143.0476  159.3014 H   0  0  0  0  0  0  0  0  0  0  0  0
  153.1606  141.3258  159.6355 H   0  0  0  0  0  0  0  0  0  0  0  0
  151.7635  142.2562  160.1614 H   0  0  0  0  0  0  0  0  0  0  0  0
  1  2  1  0  0  0  0
  1 22  1  0  0  0  0
  1 23  1  0  0  0  0
  1 24  1  0  0  0  0
  2  3  1  0  0  0  0
  3  4  1  0  0  0  0
  3 25  1  0  0  0  0
  3 26  1  0  0  0  0
  4  5  1  0  0  0  0
  4 27  1  0  0  0  0
  4 28  1  0  0  0  0
  5 13  1  0  0  0  0
  5  6  1  0  0  0  0
  6  7  1  0  0  0  0
  6 11  2  0  0  0  0
  7  8  1  0  0  0  0
  7 29  1  0  0  0  0
  8  9  1  0  0  0  0
  8 30  1  0  0  0  0
  8 31  1  0  0  0  0
  9 10  1  0  0  0  0
  9 32  1  0  0  0  0
  9 33  1  0  0  0  0
 10 34  1  0  0  0  0
 11 12  1  0  0  0  0
 12 19  1  0  0  0  0
 12 13  2  0  0  0  0
 13 14  1  0  0  0  0
 14 15  2  0  0  0  0
 14 16  1  0  0  0  0
 16 21  1  0  0  0  0
 16 17  1  0  0  0  0
 17 18  2  0  0  0  0
 17 19  1  0  0  0  0
 19 20  1  0  0  0  0
 20 35  1  0  0  0  0
 20 36  1  0  0  0  0
 20 37  1  0  0  0  0
M  END
> <s_m_source_file>
AV-unprocessed.smi

> <i_m_source_file_index>
505

> <i_lp_mmshare_version>
43012

> <i_f3d_flags>
0

> <s_epik_input>
W09IXVtDSDJdW0NIMl1bTkhdYyhuMSluKFtDSDJdW0NIMl1PW0NIM10pYyhjMTIpYyg9TylbbkhdYyg9TyluMltDSDNd

> <s_epik_cmdline>
J2VwaWtfcHl0aG9uJywgJy1waCcsICc3LjAnLCAnLXRuJywgJzgnLCAnLW1hJywgJzIwMCcsICctbWV0YWxfYmluZGluZycsICctaW1hZScsICc8aW5maWxlLm1hZT4nLCAnLW9tYWUnLCAnPG91dGZpbGUubWFlPic=

> <r_lp_tautomer_probability>
1

> <r_epik_Ionization_Penalty>
7.89905e-05

> <r_epik_Ionization_Penalty_Charging>
2.6983e-05

> <r_epik_Ionization_Penalty_Neutral>
5.20075e-05

> <r_epik_State_Penalty>
-0

> <r_epik_Charging_Adjusted_Penalty>
2.6983e-05

> <i_epik_Tot_Q>
0

> <i_epik_Tot_abs_Q>
0

> <r_epik_Metal_State_Penalty>
0.02526

> <b_epik_Metal_Only>
0

> <s_lp_Force_Field>
OPLS_2005

> <r_lp_Energy>
22.7063

> <b_lp_Chiralities_Consistent>
1

> <s_lp_Variant>
AV-unprocessed.smi:505-1

> <Gold.Version>
5.8.1

> <Gold.Id.Protein>
6NUR|6NUR_protein|mol2

> <Gold.PLP.Fitness>
41.0724

> <Gold.PLP.PLP>
-31.9182

> <Gold.PLP.part.hbond>
-5.1154

> <Gold.PLP.part.metal>
0.0000

> <Gold.PLP.part.buried>
-4.6551

> <Gold.PLP.part.nonpolar>
-22.8838

> <Gold.PLP.part.repulsive>
0.7326

> <Gold.PLP.ligand.clash>
0.0000

> <Gold.PLP.ligand.torsion>
0.5502

> <Gold.PLP.Chemscore.Hbond>
3.4135

> <Gold.PLP.Chemscore.CHOScore>
0.0000

> <Gold.PLP.Chemscore.Metal>
0.0000

> <Gold.Chemscore.Hbonds>
donor molecule, donor type, donor heavy atom, donor atom, acceptor molecule, acceptor atom, score
      L1  H    16    21       P1  8028  1.00
      P1  H  6896  6909       L1    10  1.00
      P1  H  7989  7998       L1    15  0.32
      P1  H  7997  8010       L1    11  0.01
      P1  H 10752 10763       L1     2  1.00

> <Gold.PLP.Chemscore.Internal.Correction>
0.0140

> <Gold.Rescore>
     Score         DG    S(hbond)    S(metal)    S(lipo)     H(rot)  DE(clash)    DE(int)     intcor
     10.72     -12.36       2.91        0.00      42.65       3.06       0.05       1.59       ----

> <Gold.Chemscore.Fitness>
10.7237

> <Gold.Chemscore.DG>
-12.3646

> <Gold.Chemscore.ZeroCoef>
-5.4800

> <Gold.Chemscore.Hbond>
2.9144

> <Gold.Chemscore.Metal>
0.0000

> <Gold.Chemscore.Lipo>
42.6453

> <Gold.Chemscore.Internal_Hbond>
0.0000

> <Gold.Chemscore.DEClash>
0.0549

> <Gold.Chemscore.DEInternal>
1.5861

> <Gold.Chemscore.Rot>
3.0621

> <Gold.Chemscore.Internal.Correction>
   9.000000E+99

> <Gold.Chemscore.Hbonds>
donor molecule, donor type, donor heavy atom, donor atom, acceptor molecule, acceptor atom, score
      L1  H    16    21       P1  8028  1.00
      P1  H  6896  6909       L1    10  0.93
      P1  H  7989  7998       L1    15  0.03
      P1  H  8011  8017       L1    15  0.01
      P1  H 10752 10763       L1     2  0.70

> <Gold.Chemscore.Hbond.Weighted>
-9.7341

> <Gold.Chemscore.Metal.Weighted>
-0.0000

> <Gold.Chemscore.Lipo.Weighted>
-4.9895

> <Gold.Chemscore.Internal_Hbond.Weighted>
0.0000

> <Gold.Chemscore.DEClash.Weighted>
0.0549

> <Gold.Chemscore.DEInternal.Weighted>
1.5861

> <Gold.Chemscore.Rot.Weighted>
7.8390

> <Gold.Chemscore.Internal.Correction.Weighted>
   9.000000E+99

> <Gold.Protein.RotatedTorsions>
[ 6907 6896 6895 6894 ] final  127.59 input  -60.11 | X-H torsion
[ 7974 7965 7964 7962 ] final -145.86 input  175.53 | X-H torsion
[ 8008 7997 7996 7995 ] final    1.29 input   59.86 | X-H torsion
[ 10167 10162 10161 10158 ] final  103.64 input  -65.29 | X-H torsion
[ 10718 10713 10712 10709 ] final  -43.79 input   66.30 | X-H torsion
[ 10763 10752 10751 10750 ] final   59.26 input  -60.55 | X-H torsion
[ 11005 11000 10999 10996 ] final -146.60 input  -57.11 | X-H torsion

> <Gold.Protein.ActiveResidues>
 VAL166  LYS551  ARG553  GLY616  TRP617  ASP618  TYR619  PRO620  LYS621  CYS622 
 ASP623  PHE694  ASN695  SER759  ASP760  ASP761  ALA762  ILE779  LEU786  VAL792 
 PHE793  MET794  SER795  GLU796  ALA797  LYS798  CYS799  TRP800  GLU811  SER814 

> <Gold.Protein.RotatedAtoms>
  152.3799  133.6531  159.6152 H   0  0  0  0  0  0  0  0  0  0  0  0  # atno 6907 bound_to 6896
  150.7733  133.9131  159.3384 H   0  0  0  0  0  0  0  0  0  0  0  0  # atno 6908 bound_to 6896
  151.6939  135.0943  160.0290 H   0  0  0  0  0  0  0  0  0  0  0  0  # atno 6909 bound_to 6896
  144.8198  140.5530  143.5586 H   0  0  0  0  0  0  0  0  0  0  0  0  # atno 7974 bound_to 7965
  154.6781  140.2626  155.6937 H   0  0  0  0  0  0  0  0  0  0  0  0  # atno 8008 bound_to 7997
  156.2686  140.2816  156.1237 H   0  0  0  0  0  0  0  0  0  0  0  0  # atno 8009 bound_to 7997
  155.1071  140.0375  157.2704 H   0  0  0  0  0  0  0  0  0  0  0  0  # atno 8010 bound_to 7997
  139.7245  144.7050  151.0819 H   0  0  0  0  0  0  0  0  0  0  0  0  # atno 10167 bound_to 10162
  156.2453  130.4183  149.8712 H   0  0  0  0  0  0  0  0  0  0  0  0  # atno 10718 bound_to 10713
  152.9890  135.5577  154.5685 H   0  0  0  0  0  0  0  0  0  0  0  0  # atno 10763 bound_to 10752
  154.5090  135.2801  155.1360 H   0  0  0  0  0  0  0  0  0  0  0  0  # atno 10764 bound_to 10752
  154.2759  135.6354  153.5381 H   0  0  0  0  0  0  0  0  0  0  0  0  # atno 10765 bound_to 10752
  140.7803  134.3087  157.5047 H   0  0  0  0  0  0  0  0  0  0  0  0  # atno 11005 bound_to 11000
  145.5130  139.1479  143.3594 LP  0  0  0  0  0  0  0  0  0  0  0  0  # atno 17320 bound_to 7965
  146.2503  140.5271  142.8896 LP  0  0  0  0  0  0  0  0  0  0  0  0  # atno 17321 bound_to 7965
  140.7760  143.5123  150.9638 LP  0  0  0  0  0  0  0  0  0  0  0  0  # atno 17342 bound_to 10162
  139.8810  143.7072  152.3157 LP  0  0  0  0  0  0  0  0  0  0  0  0  # atno 17343 bound_to 10162
  156.6279  130.8653  151.3489 LP  0  0  0  0  0  0  0  0  0  0  0  0  # atno 17370 bound_to 10713
  157.7192  130.9537  150.1374 LP  0  0  0  0  0  0  0  0  0  0  0  0  # atno 17371 bound_to 10713
  139.8743  134.9314  156.3528 LP  0  0  0  0  0  0  0  0  0  0  0  0  # atno 17394 bound_to 11000
  140.9489  133.7464  156.0245 LP  0  0  0  0  0  0  0  0  0  0  0  0  # atno 17395 bound_to 11000

$$$$
