AV-unprocessed.smi:2813|AV-procd|sdf|10838|dock5
  -GOLD-   2272015283D 1   1.00000     0.00000
 Structure written by MMmdl.
 41 42  0  0  0  0  0  0  0  0  1 V2000
  146.0730  139.7859  156.4671 C   0  0  0  0  0  0  0  0  0  0  0  0
  147.4852  139.4146  156.0503 C   0  0  0  0  0  0  0  0  0  0  0  0
  147.9183  138.1466  156.4485 N   0  0  0  0  0  0  0  0  0  0  0  0
  149.1075  137.7445  156.1388 C   0  0  0  0  0  0  0  0  0  0  0  0
  149.9899  138.5498  155.4000 N   0  0  0  0  0  0  0  0  0  0  0  0
  151.3141  137.9727  155.1118 C   0  0  0  0  0  0  0  0  0  0  0  0
  152.3484  138.3111  156.2097 C   0  0  1  0  0  0  0  0  0  0  0  0
  153.5569  138.6728  155.5699 O   0  0  0  0  0  0  0  0  0  0  0  0
  151.9095  139.5140  157.0623 C   0  0  0  0  0  0  0  0  0  0  0  0
  152.5513  139.4372  158.3287 O   0  0  0  0  0  0  0  0  0  0  0  0
  152.7065  140.5976  159.0565 C   0  0  0  0  0  0  0  0  0  0  0  0
  153.4771  140.5139  160.2335 C   0  0  0  0  0  0  0  0  0  0  0  0
  153.6854  141.6485  161.0393 C   0  0  0  0  0  0  0  0  0  0  0  0
  153.1255  142.8856  160.6716 C   0  0  0  0  0  0  0  0  0  0  0  0
  152.3557  142.9936  159.4939 C   0  0  0  0  0  0  0  0  0  0  0  0
  151.7395  144.3258  159.0921 C   0  0  0  0  0  0  0  0  0  0  0  0
  152.2381  144.7417  157.9273 F   0  0  0  0  0  0  0  0  0  0  0  0
  150.4212  144.1791  158.9666 F   0  0  0  0  0  0  0  0  0  0  0  0
  151.9807  145.2655  160.0068 F   0  0  0  0  0  0  0  0  0  0  0  0
  152.1437  141.8481  158.6957 C   0  0  0  0  0  0  0  0  0  0  0  0
  149.6510  139.8032  154.9803 C   0  0  0  0  0  0  0  0  0  0  0  0
  150.4385  140.5072  154.3453 O   0  0  0  0  0  0  0  0  0  0  0  0
  148.2941  140.2467  155.3390 C   0  0  0  0  0  0  0  0  0  0  0  0
  147.8775  141.6386  154.8800 C   0  0  0  0  0  0  0  0  0  0  0  0
  145.4591  139.9997  155.5918 H   0  0  0  0  0  0  0  0  0  0  0  0
  146.0846  140.6666  157.1099 H   0  0  0  0  0  0  0  0  0  0  0  0
  145.5955  138.9751  157.0191 H   0  0  0  0  0  0  0  0  0  0  0  0
  149.4959  136.7676  156.4316 H   0  0  0  0  0  0  0  0  0  0  0  0
  151.2664  136.8939  154.9478 H   0  0  0  0  0  0  0  0  0  0  0  0
  151.6540  138.3704  154.1541 H   0  0  0  0  0  0  0  0  0  0  0  0
  152.5130  137.4489  156.8572 H   0  0  0  0  0  0  0  0  0  0  0  0
  153.6538  138.1486  154.7897 H   0  0  0  0  0  0  0  0  0  0  0  0
  152.1310  140.4530  156.5517 H   0  0  0  0  0  0  0  0  0  0  0  0
  150.8318  139.4701  157.2280 H   0  0  0  0  0  0  0  0  0  0  0  0
  153.9118  139.5683  160.5234 H   0  0  0  0  0  0  0  0  0  0  0  0
  154.2748  141.5687  161.9407 H   0  0  0  0  0  0  0  0  0  0  0  0
  153.2890  143.7486  161.3000 H   0  0  0  0  0  0  0  0  0  0  0  0
  151.5409  141.9516  157.8067 H   0  0  0  0  0  0  0  0  0  0  0  0
  148.5462  142.3893  155.3024 H   0  0  0  0  0  0  0  0  0  0  0  0
  146.8624  141.9019  155.1724 H   0  0  0  0  0  0  0  0  0  0  0  0
  147.9332  141.7082  153.7931 H   0  0  0  0  0  0  0  0  0  0  0  0
  1  2  1  0  0  0  0
  1 25  1  0  0  0  0
  1 26  1  0  0  0  0
  1 27  1  0  0  0  0
  2 23  2  0  0  0  0
  2  3  1  0  0  0  0
  3  4  2  0  0  0  0
  4  5  1  0  0  0  0
  4 28  1  0  0  0  0
  5  6  1  0  0  0  0
  5 21  1  0  0  0  0
  6  7  1  0  0  0  0
  6 29  1  0  0  0  0
  6 30  1  0  0  0  0
  7  8  1  0  0  0  0
  7  9  1  0  0  0  0
  7 31  1  0  0  0  0
  8 32  1  0  0  0  0
  9 10  1  0  0  0  0
  9 33  1  0  0  0  0
  9 34  1  0  0  0  0
 10 11  1  0  0  0  0
 11 20  1  0  0  0  0
 11 12  2  0  0  0  0
 12 13  1  0  0  0  0
 12 35  1  0  0  0  0
 13 14  2  0  0  0  0
 13 36  1  0  0  0  0
 14 15  1  0  0  0  0
 14 37  1  0  0  0  0
 15 16  1  0  0  0  0
 15 20  2  0  0  0  0
 16 17  1  0  0  0  0
 16 18  1  0  0  0  0
 16 19  1  0  0  0  0
 20 38  1  0  0  0  0
 21 22  2  0  0  0  0
 21 23  1  0  0  0  0
 23 24  1  0  0  0  0
 24 39  1  0  0  0  0
 24 40  1  0  0  0  0
 24 41  1  0  0  0  0
M  END
> <s_m_source_file>
AV-unprocessed.smi

> <i_m_source_file_index>
2813

> <i_lp_mmshare_version>
43012

> <i_f3d_flags>
0

> <s_epik_input>
W0NIM11jMW5bY0hdbihjKD1PKWMxW0NIM10pW0NIMl1bQ0BIXShbT0hdKVtDSDJdT2MyW2NIXVtjSF1bY0hdYyhDKEYpKEYpRilbY0hdMg==

> <s_epik_cmdline>
J2VwaWtfcHl0aG9uJywgJy1waCcsICc3LjAnLCAnLXRuJywgJzgnLCAnLW1hJywgJzIwMCcsICctbWV0YWxfYmluZGluZycsICctaW1hZScsICc8aW5maWxlLm1hZT4nLCAnLW9tYWUnLCAnPG91dGZpbGUubWFlPic=

> <r_lp_tautomer_probability>
1

> <r_epik_Ionization_Penalty>
3.72236e-05

> <r_epik_Ionization_Penalty_Charging>
8.38864e-08

> <r_epik_Ionization_Penalty_Neutral>
3.71397e-05

> <r_epik_State_Penalty>
-0

> <r_epik_Charging_Adjusted_Penalty>
8.38864e-08

> <i_epik_Tot_Q>
0

> <i_epik_Tot_abs_Q>
0

> <r_epik_Metal_State_Penalty>
-0

> <b_epik_Metal_Only>
0

> <s_lp_Force_Field>
OPLS_2005

> <r_lp_Energy>
24.625

> <b_lp_Chiralities_Consistent>
1

> <s_lp_Variant>
AV-unprocessed.smi:2813-2

> <Gold.Version>
5.8.1

> <Gold.Id.Protein>
6NUR|6NUR_protein|mol2

> <Gold.PLP.Fitness>
49.2696

> <Gold.PLP.PLP>
-46.9657

> <Gold.PLP.part.hbond>
-1.7135

> <Gold.PLP.part.metal>
0.0000

> <Gold.PLP.part.buried>
-7.4737

> <Gold.PLP.part.nonpolar>
-38.5434

> <Gold.PLP.part.repulsive>
0.1244

> <Gold.PLP.ligand.clash>
0.9675

> <Gold.PLP.ligand.torsion>
1.4564

> <Gold.PLP.Chemscore.Hbond>
1.7120

> <Gold.PLP.Chemscore.CHOScore>
0.0000

> <Gold.PLP.Chemscore.Metal>
0.0000

> <Gold.Chemscore.Hbonds>
donor molecule, donor type, donor heavy atom, donor atom, acceptor molecule, acceptor atom, score
      P1  H  7989  7998       L1    22  0.89
      P1  H  7997  8008       L1     8  0.74

> <Gold.PLP.Chemscore.Internal.Correction>
1.0481

> <Gold.Rescore>
     Score         DG    S(hbond)    S(metal)    S(lipo)     H(rot)  DE(clash)    DE(int)     intcor
     14.54     -16.09       1.81        0.00      98.77       2.73       0.10       1.45       ----

> <Gold.Chemscore.Fitness>
14.5402

> <Gold.Chemscore.DG>
-16.0899

> <Gold.Chemscore.ZeroCoef>
-5.4800

> <Gold.Chemscore.Hbond>
1.8091

> <Gold.Chemscore.Metal>
0.0000

> <Gold.Chemscore.Lipo>
98.7702

> <Gold.Chemscore.Internal_Hbond>
0.0000

> <Gold.Chemscore.DEClash>
0.1038

> <Gold.Chemscore.DEInternal>
1.4459

> <Gold.Chemscore.Rot>
2.7300

> <Gold.Chemscore.Internal.Correction>
   9.000000E+99

> <Gold.Chemscore.Hbonds>
donor molecule, donor type, donor heavy atom, donor atom, acceptor molecule, acceptor atom, score
      P1  H  7989  7998       L1    22  0.82
      P1  H  7997  8008       L1     8  0.63

> <Gold.Chemscore.Hbond.Weighted>
-6.0425

> <Gold.Chemscore.Metal.Weighted>
-0.0000

> <Gold.Chemscore.Lipo.Weighted>
-11.5561

> <Gold.Chemscore.Internal_Hbond.Weighted>
0.0000

> <Gold.Chemscore.DEClash.Weighted>
0.1038

> <Gold.Chemscore.DEInternal.Weighted>
1.4459

> <Gold.Chemscore.Rot.Weighted>
6.9888

> <Gold.Chemscore.Internal.Correction.Weighted>
   9.000000E+99

> <Gold.Protein.RotatedTorsions>
[ 6907 6896 6895 6894 ] final   27.78 input  -60.11 | X-H torsion
[ 7974 7965 7964 7962 ] final -177.47 input  175.53 | X-H torsion
[ 8008 7997 7996 7995 ] final  -45.29 input   59.86 | X-H torsion
[ 10167 10162 10161 10158 ] final  -54.10 input  -65.29 | X-H torsion
[ 10718 10713 10712 10709 ] final  -49.11 input   66.30 | X-H torsion
[ 10763 10752 10751 10750 ] final   67.19 input  -60.55 | X-H torsion
[ 11005 11000 10999 10996 ] final  144.76 input  -57.11 | X-H torsion

> <Gold.Protein.ActiveResidues>
 VAL166  LYS551  ARG553  GLY616  TRP617  ASP618  TYR619  PRO620  LYS621  CYS622 
 ASP623  PHE694  ASN695  SER759  ASP760  ASP761  ALA762  ILE779  LEU786  VAL792 
 PHE793  MET794  SER795  GLU796  ALA797  LYS798  CYS799  TRP800  GLU811  SER814 

> <Gold.Protein.RotatedAtoms>
  152.0073  134.9896  160.0566 H   0  0  0  0  0  0  0  0  0  0  0  0  # atno 6907 bound_to 6896
  152.1463  133.4489  159.4799 H   0  0  0  0  0  0  0  0  0  0  0  0  # atno 6908 bound_to 6896
  150.6870  134.2162  159.4422 H   0  0  0  0  0  0  0  0  0  0  0  0  # atno 6909 bound_to 6896
  144.7128  140.1014  143.6416 H   0  0  0  0  0  0  0  0  0  0  0  0  # atno 7974 bound_to 7965
  154.4000  140.1400  156.3823 H   0  0  0  0  0  0  0  0  0  0  0  0  # atno 8008 bound_to 7997
  155.7992  140.3476  155.5372 H   0  0  0  0  0  0  0  0  0  0  0  0  # atno 8009 bound_to 7997
  155.8501  140.0940  157.1670 H   0  0  0  0  0  0  0  0  0  0  0  0  # atno 8010 bound_to 7997
  140.6449  143.2529  151.4888 H   0  0  0  0  0  0  0  0  0  0  0  0  # atno 10167 bound_to 10162
  156.1924  130.4153  149.9353 H   0  0  0  0  0  0  0  0  0  0  0  0  # atno 10718 bound_to 10713
  153.0175  135.5293  154.6941 H   0  0  0  0  0  0  0  0  0  0  0  0  # atno 10763 bound_to 10752
  154.6068  135.2874  155.0478 H   0  0  0  0  0  0  0  0  0  0  0  0  # atno 10764 bound_to 10752
  154.1515  135.6562  153.5017 H   0  0  0  0  0  0  0  0  0  0  0  0  # atno 10765 bound_to 10752
  140.0658  134.9179  157.1262 H   0  0  0  0  0  0  0  0  0  0  0  0  # atno 11005 bound_to 11000
  145.9534  139.2749  143.1198 LP  0  0  0  0  0  0  0  0  0  0  0  0  # atno 17320 bound_to 7965
  145.9298  140.9056  143.0362 LP  0  0  0  0  0  0  0  0  0  0  0  0  # atno 17321 bound_to 7965
  139.5659  144.2044  152.1764 LP  0  0  0  0  0  0  0  0  0  0  0  0  # atno 17342 bound_to 10162
  140.1325  144.5275  150.6793 LP  0  0  0  0  0  0  0  0  0  0  0  0  # atno 17343 bound_to 10162
  156.7089  130.8962  151.3607 LP  0  0  0  0  0  0  0  0  0  0  0  0  # atno 17370 bound_to 10713
  157.6937  130.9260  150.0585 LP  0  0  0  0  0  0  0  0  0  0  0  0  # atno 17371 bound_to 10713
  140.3701  134.2399  155.7179 LP  0  0  0  0  0  0  0  0  0  0  0  0  # atno 17394 bound_to 11000
  141.1992  133.8017  157.0547 LP  0  0  0  0  0  0  0  0  0  0  0  0  # atno 17395 bound_to 11000

$$$$
