AV-unprocessed.smi:1547|AV-procd|sdf|6220|dock6
  -GOLD-   22720 6393D 1   1.00000     0.00000
 Structure written by MMmdl.
 40 41  0  0  0  0  0  0  0  0  2 V2000
  151.6836  140.8996  158.5954 C   0  0  0  0  0  0  0  0  0  0  0  0
  151.3957  140.2121  157.2934 C   0  0  0  0  0  0  0  0  0  0  0  0
  150.2451  140.3508  156.4640 C   0  0  0  0  0  0  0  0  0  0  0  0
  150.5186  139.5032  155.4253 C   0  0  0  0  0  0  0  0  0  0  0  0
  149.7691  139.2304  154.3240 N   0  0  0  0  0  0  0  0  0  0  0  0
  148.4329  139.1182  154.2252 C   0  0  0  0  0  0  0  0  0  0  0  0
  147.6349  139.2213  155.1573 O   0  0  0  0  0  0  0  0  0  0  0  0
  148.0565  138.8748  152.9614 N   0  0  0  0  0  0  0  0  0  0  0  0
  146.6759  138.6973  152.5264 C   0  0  0  0  0  0  0  0  0  0  0  0
  146.0403  137.4417  153.1527 C   0  0  0  0  0  0  0  0  0  0  0  0
  146.2503  136.2374  152.3165 N   0  3  0  0  0  0  0  0  0  0  0  0
  145.8080  134.9602  152.9290 C   0  0  0  0  0  0  0  0  0  0  0  0
  145.0544  134.1808  151.8434 C   0  0  0  0  0  0  0  0  0  0  0  0
  145.4361  134.8741  150.5399 C   0  0  0  0  0  0  0  0  0  0  0  0
  145.6368  136.3216  150.9754 C   0  0  0  0  0  0  0  0  0  0  0  0
  151.7461  138.9173  155.6409 N   0  0  0  0  0  0  0  0  0  0  0  0
  152.4633  137.9543  154.8279 C   0  0  0  0  0  0  0  0  0  0  0  0
  152.2840  139.3574  156.7990 N   0  0  0  0  0  0  0  0  0  0  0  0
  150.8866  141.5953  158.8583 H   0  0  0  0  0  0  0  0  0  0  0  0
  152.6139  141.4658  158.5437 H   0  0  0  0  0  0  0  0  0  0  0  0
  151.7753  140.1783  159.4078 H   0  0  0  0  0  0  0  0  0  0  0  0
  149.3782  140.9743  156.6236 H   0  0  0  0  0  0  0  0  0  0  0  0
  150.2921  139.1019  153.4703 H   0  0  0  0  0  0  0  0  0  0  0  0
  148.7736  138.8010  152.2541 H   0  0  0  0  0  0  0  0  0  0  0  0
  146.1115  139.5837  152.8170 H   0  0  0  0  0  0  0  0  0  0  0  0
  146.6437  138.6534  151.4365 H   0  0  0  0  0  0  0  0  0  0  0  0
  146.4340  137.2584  154.1537 H   0  0  0  0  0  0  0  0  0  0  0  0
  144.9676  137.6066  153.2645 H   0  0  0  0  0  0  0  0  0  0  0  0
  146.6885  134.4117  153.2650 H   0  0  0  0  0  0  0  0  0  0  0  0
  145.1666  135.1178  153.7978 H   0  0  0  0  0  0  0  0  0  0  0  0
  145.2974  133.1177  151.8417 H   0  0  0  0  0  0  0  0  0  0  0  0
  143.9797  134.2750  152.0050 H   0  0  0  0  0  0  0  0  0  0  0  0
  146.3734  134.4651  150.1602 H   0  0  0  0  0  0  0  0  0  0  0  0
  144.6791  134.7652  149.7626 H   0  0  0  0  0  0  0  0  0  0  0  0
  144.6679  136.8200  151.0426 H   0  0  0  0  0  0  0  0  0  0  0  0
  146.2600  136.8870  150.2818 H   0  0  0  0  0  0  0  0  0  0  0  0
  152.5296  138.3165  153.8018 H   0  0  0  0  0  0  0  0  0  0  0  0
  151.9329  137.0020  154.8370 H   0  0  0  0  0  0  0  0  0  0  0  0
  153.4725  137.8019  155.2130 H   0  0  0  0  0  0  0  0  0  0  0  0
  147.2441  136.1482  152.1608 H   0  0  0  0  0  0  0  0  0  0  0  0
  1  2  1  0  0  0  0
  1 19  1  0  0  0  0
  1 20  1  0  0  0  0
  1 21  1  0  0  0  0
  2 18  2  0  0  0  0
  2  3  1  0  0  0  0
  3  4  2  0  0  0  0
  3 22  1  0  0  0  0
  4  5  1  0  0  0  0
  4 16  1  0  0  0  0
  5  6  1  0  0  0  0
  5 23  1  0  0  0  0
  6  7  2  0  0  0  0
  6  8  1  0  0  0  0
  8  9  1  0  0  0  0
  8 24  1  0  0  0  0
  9 10  1  0  0  0  0
  9 25  1  0  0  0  0
  9 26  1  0  0  0  0
 10 11  1  0  0  0  0
 10 27  1  0  0  0  0
 10 28  1  0  0  0  0
 11 15  1  0  0  0  0
 11 12  1  0  0  0  0
 11 40  1  0  0  0  0
 12 13  1  0  0  0  0
 12 29  1  0  0  0  0
 12 30  1  0  0  0  0
 13 14  1  0  0  0  0
 13 31  1  0  0  0  0
 13 32  1  0  0  0  0
 14 15  1  0  0  0  0
 14 33  1  0  0  0  0
 14 34  1  0  0  0  0
 15 35  1  0  0  0  0
 15 36  1  0  0  0  0
 16 17  1  0  0  0  0
 16 18  1  0  0  0  0
 17 37  1  0  0  0  0
 17 38  1  0  0  0  0
 17 39  1  0  0  0  0
M  CHG  1  11   1
M  END
> <s_m_source_file>
AV-unprocessed.smi

> <i_m_source_file_index>
1547

> <i_lp_mmshare_version>
43012

> <i_f3d_flags>
0

> <s_epik_input>
W0NIM11jMVtjSF1jKG4objEpW0NIM10pW05IXUMoPU8pW05IXVtDSDJdW0NIMl1OMltDSDJdW0NIMl1bQ0gyXVtDSDJdMg==

> <s_epik_cmdline>
J2VwaWtfcHl0aG9uJywgJy1waCcsICc3LjAnLCAnLXRuJywgJzgnLCAnLW1hJywgJzIwMCcsICctbWV0YWxfYmluZGluZycsICctaW1hZScsICc8aW5maWxlLm1hZT4nLCAnLW9tYWUnLCAnPG91dGZpbGUubWFlPic=

> <r_lp_tautomer_probability>
1

> <r_epik_Ionization_Penalty>
0.00226577

> <r_epik_Ionization_Penalty_Charging>
0.00218899

> <r_epik_Ionization_Penalty_Neutral>
7.67743e-05

> <r_epik_State_Penalty>
0.00150446

> <r_epik_Charging_Adjusted_Penalty>
0.00369345

> <i_epik_Tot_Q>
1

> <i_epik_Tot_abs_Q>
1

> <r_epik_Metal_State_Penalty>
-0

> <b_epik_Metal_Only>
0

> <s_lp_Force_Field>
OPLS_2005

> <r_lp_Energy>
27.1917

> <b_lp_Chiralities_Consistent>
1

> <s_lp_Variant>
AV-unprocessed.smi:1547-1

> <Gold.Version>
5.8.1

> <Gold.Id.Protein>
6NUR|6NUR_protein|mol2

> <Gold.PLP.Fitness>
45.5316

> <Gold.PLP.PLP>
-34.2591

> <Gold.PLP.part.hbond>
-4.9864

> <Gold.PLP.part.metal>
0.0000

> <Gold.PLP.part.buried>
-2.3296

> <Gold.PLP.part.nonpolar>
-26.0955

> <Gold.PLP.part.repulsive>
0.2707

> <Gold.PLP.ligand.clash>
0.0000

> <Gold.PLP.ligand.torsion>
0.4794

> <Gold.PLP.Chemscore.Hbond>
4.0690

> <Gold.PLP.Chemscore.CHOScore>
0.0000

> <Gold.PLP.Chemscore.Metal>
0.0000

> <Gold.Chemscore.Hbonds>
donor molecule, donor type, donor heavy atom, donor atom, acceptor molecule, acceptor atom, score
      L1  H     8    24       P1  7957  0.69
      L1  H    11    40       P1  7948  2.00
      P1  H  7997  8008       L1    18  0.52

> <Gold.PLP.Chemscore.Internal.Correction>
0.0240

> <Gold.Rescore>
     Score         DG    S(hbond)    S(metal)    S(lipo)     H(rot)  DE(clash)    DE(int)     intcor
     19.24     -19.92       3.39        0.00      59.79       1.52       0.14       0.54       ----

> <Gold.Chemscore.Fitness>
19.2438

> <Gold.Chemscore.DG>
-19.9238

> <Gold.Chemscore.ZeroCoef>
-5.4800

> <Gold.Chemscore.Hbond>
3.3919

> <Gold.Chemscore.Metal>
0.0000

> <Gold.Chemscore.Lipo>
59.7933

> <Gold.Chemscore.Internal_Hbond>
0.0000

> <Gold.Chemscore.DEClash>
0.1381

> <Gold.Chemscore.DEInternal>
0.5419

> <Gold.Chemscore.Rot>
1.5160

> <Gold.Chemscore.Internal.Correction>
   9.000000E+99

> <Gold.Chemscore.Hbonds>
donor molecule, donor type, donor heavy atom, donor atom, acceptor molecule, acceptor atom, score
      L1  H     8    24       P1  7957  0.63
      L1  H    11    40       P1  7948  1.00
      P1  H  7997  8008       L1    18  0.35

> <Gold.Chemscore.Hbond.Weighted>
-11.3289

> <Gold.Chemscore.Metal.Weighted>
-0.0000

> <Gold.Chemscore.Lipo.Weighted>
-6.9958

> <Gold.Chemscore.Internal_Hbond.Weighted>
0.0000

> <Gold.Chemscore.DEClash.Weighted>
0.1381

> <Gold.Chemscore.DEInternal.Weighted>
0.5419

> <Gold.Chemscore.Rot.Weighted>
3.8809

> <Gold.Chemscore.Internal.Correction.Weighted>
   9.000000E+99

> <Gold.Protein.RotatedTorsions>
[ 6907 6896 6895 6894 ] final   81.58 input  -60.11 | X-H torsion
[ 7974 7965 7964 7962 ] final  -17.22 input  175.53 | X-H torsion
[ 8008 7997 7996 7995 ] final  -45.54 input   59.86 | X-H torsion
[ 10167 10162 10161 10158 ] final  -24.49 input  -65.29 | X-H torsion
[ 10718 10713 10712 10709 ] final   45.64 input   66.30 | X-H torsion
[ 10763 10752 10751 10750 ] final -165.85 input  -60.55 | X-H torsion
[ 11005 11000 10999 10996 ] final   75.59 input  -57.11 | X-H torsion

> <Gold.Protein.ActiveResidues>
 VAL166  LYS551  ARG553  GLY616  TRP617  ASP618  TYR619  PRO620  LYS621  CYS622 
 ASP623  PHE694  ASN695  SER759  ASP760  ASP761  ALA762  ILE779  LEU786  VAL792 
 PHE793  MET794  SER795  GLU796  ALA797  LYS798  CYS799  TRP800  GLU811  SER814 

> <Gold.Protein.RotatedAtoms>
  152.5273  134.3182  159.9138 H   0  0  0  0  0  0  0  0  0  0  0  0  # atno 6907 bound_to 6896
  151.3131  133.4065  159.2656 H   0  0  0  0  0  0  0  0  0  0  0  0  # atno 6908 bound_to 6896
  151.0022  134.9348  159.8017 H   0  0  0  0  0  0  0  0  0  0  0  0  # atno 6909 bound_to 6896
  146.1951  140.3748  142.8443 H   0  0  0  0  0  0  0  0  0  0  0  0  # atno 7974 bound_to 7965
  154.4001  140.1394  156.3864 H   0  0  0  0  0  0  0  0  0  0  0  0  # atno 8008 bound_to 7997
  155.7956  140.3477  155.5353 H   0  0  0  0  0  0  0  0  0  0  0  0  # atno 8009 bound_to 7997
  155.8535  140.0945  157.1649 H   0  0  0  0  0  0  0  0  0  0  0  0  # atno 8010 bound_to 7997
  140.7288  143.4348  151.0746 H   0  0  0  0  0  0  0  0  0  0  0  0  # atno 10167 bound_to 10162
  157.4396  130.8073  149.7682 H   0  0  0  0  0  0  0  0  0  0  0  0  # atno 10718 bound_to 10713
  154.6892  135.2967  154.9504 H   0  0  0  0  0  0  0  0  0  0  0  0  # atno 10763 bound_to 10752
  154.0473  135.6649  153.4800 H   0  0  0  0  0  0  0  0  0  0  0  0  # atno 10764 bound_to 10752
  153.0600  135.5121  154.7975 H   0  0  0  0  0  0  0  0  0  0  0  0  # atno 10765 bound_to 10752
  139.9337  134.7530  156.1289 H   0  0  0  0  0  0  0  0  0  0  0  0  # atno 11005 bound_to 11000
  144.8564  140.7077  143.6135 LP  0  0  0  0  0  0  0  0  0  0  0  0  # atno 17320 bound_to 7965
  145.3669  139.1668  143.4353 LP  0  0  0  0  0  0  0  0  0  0  0  0  # atno 17321 bound_to 7965
  139.8009  143.8085  152.3162 LP  0  0  0  0  0  0  0  0  0  0  0  0  # atno 17342 bound_to 10162
  139.8101  144.7339  150.9708 LP  0  0  0  0  0  0  0  0  0  0  0  0  # atno 17343 bound_to 10162
  155.9944  130.3918  150.2862 LP  0  0  0  0  0  0  0  0  0  0  0  0  # atno 17370 bound_to 10713
  157.1025  131.0199  151.3080 LP  0  0  0  0  0  0  0  0  0  0  0  0  # atno 17371 bound_to 10713
  141.0939  133.6703  156.2602 LP  0  0  0  0  0  0  0  0  0  0  0  0  # atno 17394 bound_to 11000
  140.6133  134.5436  157.5537 LP  0  0  0  0  0  0  0  0  0  0  0  0  # atno 17395 bound_to 11000

$$$$
