AV-unprocessed.smi:2732|AV-procd|sdf|10533|dock7
  -GOLD-   2272014583D 1   1.00000     0.00000
 Structure written by MMmdl.
 34 35  0  0  0  0  0  0  0  0  1 V2000
  150.2921  144.0331  158.8040 C   0  0  0  0  0  0  0  0  0  0  0  0
  151.2210  143.2942  157.8293 C   0  0  1  0  0  0  0  0  0  0  0  0
  152.3803  142.8990  158.5579 O   0  0  0  0  0  0  0  0  0  0  0  0
  152.1276  142.2402  159.7927 C   0  0  0  0  0  0  0  0  0  0  0  0
  153.1951  142.6443  160.7857 C   0  0  0  0  0  0  0  0  0  0  0  0
  153.8121  141.6167  161.7074 C   0  0  0  0  0  0  0  0  0  0  0  0
  152.8937  142.6730  162.2671 C   0  0  0  0  0  0  0  0  0  0  0  0
  150.5284  142.0634  157.2212 C   0  0  0  0  0  0  0  0  0  0  0  0
  150.9006  140.9370  157.5474 O   0  0  0  0  0  0  0  0  0  0  0  0
  149.5516  142.3274  156.3328 N   0  0  0  0  0  0  0  0  0  0  0  0
  148.7332  141.4349  155.5851 C   0  0  0  0  0  0  0  0  0  0  0  0
  149.0599  140.0905  155.2802 C   0  0  0  0  0  0  0  0  0  0  0  0
  148.1488  139.3213  154.5303 C   0  0  0  0  0  0  0  0  0  0  0  0
  146.9435  139.9191  154.1131 C   0  0  0  0  0  0  0  0  0  0  0  0
  146.0208  139.1880  153.3694 N   0  0  0  0  0  0  0  0  0  0  0  0
  146.6178  141.1962  154.3998 N   0  0  0  0  0  0  0  0  0  0  0  0
  147.4956  141.9278  155.1189 C   0  0  0  0  0  0  0  0  0  0  0  0
  149.3727  144.3511  158.3110 H   0  0  0  0  0  0  0  0  0  0  0  0
  150.7787  144.9252  159.1989 H   0  0  0  0  0  0  0  0  0  0  0  0
  150.0185  143.4056  159.6532 H   0  0  0  0  0  0  0  0  0  0  0  0
  151.5107  143.9893  157.0386 H   0  0  0  0  0  0  0  0  0  0  0  0
  151.1461  142.4964  160.1934 H   0  0  0  0  0  0  0  0  0  0  0  0
  152.1622  141.1586  159.6571 H   0  0  0  0  0  0  0  0  0  0  0  0
  153.8698  143.4149  160.4171 H   0  0  0  0  0  0  0  0  0  0  0  0
  153.4334  140.5976  161.6592 H   0  0  0  0  0  0  0  0  0  0  0  0
  154.8745  141.7095  161.9236 H   0  0  0  0  0  0  0  0  0  0  0  0
  153.3424  143.4718  162.8544 H   0  0  0  0  0  0  0  0  0  0  0  0
  151.9024  142.3587  162.5883 H   0  0  0  0  0  0  0  0  0  0  0  0
  149.3837  143.3073  156.1552 H   0  0  0  0  0  0  0  0  0  0  0  0
  149.9776  139.6254  155.6009 H   0  0  0  0  0  0  0  0  0  0  0  0
  148.3751  138.2942  154.2838 H   0  0  0  0  0  0  0  0  0  0  0  0
  146.1901  138.2259  153.1144 H   0  0  0  0  0  0  0  0  0  0  0  0
  145.1477  139.5964  153.0677 H   0  0  0  0  0  0  0  0  0  0  0  0
  147.1977  142.9449  155.3280 H   0  0  0  0  0  0  0  0  0  0  0  0
  1  2  1  0  0  0  0
  1 18  1  0  0  0  0
  1 19  1  0  0  0  0
  1 20  1  0  0  0  0
  2  3  1  0  0  0  0
  2  8  1  0  0  0  0
  2 21  1  0  0  0  0
  3  4  1  0  0  0  0
  4  5  1  0  0  0  0
  4 22  1  0  0  0  0
  4 23  1  0  0  0  0
  5  7  1  0  0  0  0
  5  6  1  0  0  0  0
  5 24  1  0  0  0  0
  6  7  1  0  0  0  0
  6 25  1  0  0  0  0
  6 26  1  0  0  0  0
  7 27  1  0  0  0  0
  7 28  1  0  0  0  0
  8  9  2  0  0  0  0
  8 10  1  0  0  0  0
 10 11  1  0  0  0  0
 10 29  1  0  0  0  0
 11 17  1  0  0  0  0
 11 12  2  0  0  0  0
 12 13  1  0  0  0  0
 12 30  1  0  0  0  0
 13 14  2  0  0  0  0
 13 31  1  0  0  0  0
 14 15  1  0  0  0  0
 14 16  1  0  0  0  0
 15 32  1  0  0  0  0
 15 33  1  0  0  0  0
 16 17  2  0  0  0  0
 17 34  1  0  0  0  0
M  END
> <s_m_source_file>
AV-unprocessed.smi

> <i_m_source_file_index>
2732

> <i_lp_mmshare_version>
43012

> <i_f3d_flags>
0

> <s_epik_input>
W0NIMl0xW0NIMl1bQ0hdMVtDSDJdT1tDQEBIXShbQ0gzXSlDKD1PKVtOSF1jMltjSF1bY0hdYyhbTkgyXSluW2NIXTI=

> <s_epik_cmdline>
J2VwaWtfcHl0aG9uJywgJy1waCcsICc3LjAnLCAnLXRuJywgJzgnLCAnLW1hJywgJzIwMCcsICctbWV0YWxfYmluZGluZycsICctaW1hZScsICc8aW5maWxlLm1hZT4nLCAnLW9tYWUnLCAnPG91dGZpbGUubWFlPic=

> <r_lp_tautomer_probability>
1

> <r_epik_Ionization_Penalty>
0.0764773

> <r_epik_Ionization_Penalty_Charging>
0

> <r_epik_Ionization_Penalty_Neutral>
0.0764773

> <r_epik_State_Penalty>
0.0673619

> <r_epik_Charging_Adjusted_Penalty>
0.0673619

> <i_epik_Tot_Q>
0

> <i_epik_Tot_abs_Q>
0

> <r_epik_Metal_State_Penalty>
0.0594329

> <b_epik_Metal_Only>
0

> <s_lp_Force_Field>
OPLS_2005

> <r_lp_Energy>
18.9716

> <b_lp_Chiralities_Consistent>
1

> <s_lp_Variant>
AV-unprocessed.smi:2732-2

> <Gold.Version>
5.8.1

> <Gold.Id.Protein>
6NUR|6NUR_protein|mol2

> <Gold.PLP.Fitness>
42.7638

> <Gold.PLP.PLP>
-35.5543

> <Gold.PLP.part.hbond>
-2.0000

> <Gold.PLP.part.metal>
0.0000

> <Gold.PLP.part.buried>
-3.3862

> <Gold.PLP.part.nonpolar>
-31.4410

> <Gold.PLP.part.repulsive>
0.3243

> <Gold.PLP.ligand.clash>
0.0091

> <Gold.PLP.ligand.torsion>
1.0872

> <Gold.PLP.Chemscore.Hbond>
1.9913

> <Gold.PLP.Chemscore.CHOScore>
0.9501

> <Gold.PLP.Chemscore.Metal>
0.0000

> <Gold.Chemscore.Hbonds>
donor molecule, donor type, donor heavy atom, donor atom, acceptor molecule, acceptor atom, score
      L1  H    10    29       P1  8028  1.00
      L1  H    15    33       P1 10175  1.00
      L1  C    17    34       P1  8028  0.73

> <Gold.PLP.Chemscore.Internal.Correction>
0.5689

> <Gold.Rescore>
     Score         DG    S(hbond)    S(metal)    S(lipo)     H(rot)  DE(clash)    DE(int)     intcor
     15.02     -18.04       1.99        0.00      88.13       1.72       0.12       2.90       ----

> <Gold.Chemscore.Fitness>
15.0205

> <Gold.Chemscore.DG>
-18.0362

> <Gold.Chemscore.ZeroCoef>
-5.4800

> <Gold.Chemscore.Hbond>
1.9934

> <Gold.Chemscore.Metal>
0.0000

> <Gold.Chemscore.Lipo>
88.1275

> <Gold.Chemscore.Internal_Hbond>
0.0000

> <Gold.Chemscore.DEClash>
0.1188

> <Gold.Chemscore.DEInternal>
2.8969

> <Gold.Chemscore.Rot>
1.7237

> <Gold.Chemscore.Internal.Correction>
   9.000000E+99

> <Gold.Chemscore.Hbonds>
donor molecule, donor type, donor heavy atom, donor atom, acceptor molecule, acceptor atom, score
      L1  H    10    29       P1  8028  0.97
      L1  H    15    33       P1 10175  1.00

> <Gold.Chemscore.Hbond.Weighted>
-6.6580

> <Gold.Chemscore.Metal.Weighted>
-0.0000

> <Gold.Chemscore.Lipo.Weighted>
-10.3109

> <Gold.Chemscore.Internal_Hbond.Weighted>
0.0000

> <Gold.Chemscore.DEClash.Weighted>
0.1188

> <Gold.Chemscore.DEInternal.Weighted>
2.8969

> <Gold.Chemscore.Rot.Weighted>
4.4127

> <Gold.Chemscore.Internal.Correction.Weighted>
   9.000000E+99

> <Gold.Protein.RotatedTorsions>
[ 6907 6896 6895 6894 ] final -123.76 input  -60.11 | X-H torsion
[ 7974 7965 7964 7962 ] final  155.79 input  175.53 | X-H torsion
[ 8008 7997 7996 7995 ] final  -57.53 input   59.86 | X-H torsion
[ 10167 10162 10161 10158 ] final    7.49 input  -65.29 | X-H torsion
[ 10718 10713 10712 10709 ] final  -60.04 input   66.30 | X-H torsion
[ 10763 10752 10751 10750 ] final  146.71 input  -60.55 | X-H torsion
[ 11005 11000 10999 10996 ] final  -51.91 input  -57.11 | X-H torsion

> <Gold.Protein.ActiveResidues>
 VAL166  LYS551  ARG553  GLY616  TRP617  ASP618  TYR619  PRO620  LYS621  CYS622 
 ASP623  PHE694  ASN695  SER759  ASP760  ASP761  ALA762  ILE779  LEU786  VAL792 
 PHE793  MET794  SER795  GLU796  ALA797  LYS798  CYS799  TRP800  GLU811  SER814 

> <Gold.Protein.RotatedAtoms>
  150.8702  133.7516  159.2963 H   0  0  0  0  0  0  0  0  0  0  0  0  # atno 6907 bound_to 6896
  151.5130  135.1064  159.9868 H   0  0  0  0  0  0  0  0  0  0  0  0  # atno 6908 bound_to 6896
  152.4690  133.7942  159.6974 H   0  0  0  0  0  0  0  0  0  0  0  0  # atno 6909 bound_to 6896
  144.8003  139.7115  143.6184 H   0  0  0  0  0  0  0  0  0  0  0  0  # atno 7974 bound_to 7965
  154.4272  140.1104  156.5812 H   0  0  0  0  0  0  0  0  0  0  0  0  # atno 8008 bound_to 7997
  155.6110  140.3494  155.4603 H   0  0  0  0  0  0  0  0  0  0  0  0  # atno 8009 bound_to 7997
  156.0099  140.1217  157.0453 H   0  0  0  0  0  0  0  0  0  0  0  0  # atno 8010 bound_to 7997
  140.6369  143.7866  150.7371 H   0  0  0  0  0  0  0  0  0  0  0  0  # atno 10167 bound_to 10162
  156.1019  130.4185  150.0798 H   0  0  0  0  0  0  0  0  0  0  0  0  # atno 10718 bound_to 10713
  154.0264  135.2901  155.3374 H   0  0  0  0  0  0  0  0  0  0  0  0  # atno 10763 bound_to 10752
  154.7015  135.5186  153.8537 H   0  0  0  0  0  0  0  0  0  0  0  0  # atno 10764 bound_to 10752
  153.0659  135.6630  154.0481 H   0  0  0  0  0  0  0  0  0  0  0  0  # atno 10765 bound_to 10752
  141.0896  133.6635  156.3947 H   0  0  0  0  0  0  0  0  0  0  0  0  # atno 11005 bound_to 11000
  146.2283  139.5764  142.9572 LP  0  0  0  0  0  0  0  0  0  0  0  0  # atno 17320 bound_to 7965
  145.5570  141.0408  143.2247 LP  0  0  0  0  0  0  0  0  0  0  0  0  # atno 17321 bound_to 7965
  140.1489  143.4375  152.2144 LP  0  0  0  0  0  0  0  0  0  0  0  0  # atno 17342 bound_to 10162
  139.5579  144.7385  151.4241 LP  0  0  0  0  0  0  0  0  0  0  0  0  # atno 17343 bound_to 10162
  156.8783  130.9548  151.3602 LP  0  0  0  0  0  0  0  0  0  0  0  0  # atno 17370 bound_to 10713
  157.6190  130.8640  149.9077 LP  0  0  0  0  0  0  0  0  0  0  0  0  # atno 17371 bound_to 10713
  140.5282  134.6238  157.5341 LP  0  0  0  0  0  0  0  0  0  0  0  0  # atno 17394 bound_to 11000
  139.9720  134.7277  156.0023 LP  0  0  0  0  0  0  0  0  0  0  0  0  # atno 17395 bound_to 11000

$$$$
