AV-unprocessed.smi:3156|AV-procd|sdf|12035|dock1
  -GOLD-   2272017453D 1   1.00000     0.00000
 Structure written by MMmdl.
 41 42  0  0  0  0  0  0  0  0  2 V2000
  150.7029  141.9988  156.6316 C   0  0  0  0  0  0  0  0  0  0  0  0
  150.6801  142.4744  158.0956 C   0  0  2  0  0  0  0  0  0  0  0  0
  149.5036  143.3506  158.2942 N   0  3  0  0  0  0  0  0  0  0  0  0
  148.2119  142.6420  158.4051 C   0  0  0  0  0  0  0  0  0  0  0  0
  147.2093  143.4261  159.2753 C   0  0  1  0  0  0  0  0  0  0  0  0
  145.8814  142.6672  159.4717 C   0  0  0  0  0  0  0  0  0  0  0  0
  144.9500  143.4415  160.4113 C   0  0  0  0  0  0  0  0  0  0  0  0
  145.6853  143.7612  161.7167 C   0  0  0  0  0  0  0  0  0  0  0  0
  147.0217  144.4589  161.4191 C   0  0  0  0  0  0  0  0  0  0  0  0
  147.8092  143.6494  160.5502 O   0  0  0  0  0  0  0  0  0  0  0  0
  151.9775  143.2126  158.5212 C   0  0  1  0  0  0  0  0  0  0  0  0
  151.9578  144.7088  158.1532 C   0  0  0  0  0  0  0  0  0  0  0  0
  152.2622  143.0519  159.9417 N   0  0  0  0  0  0  0  0  0  0  0  0
  152.7502  141.9384  160.5943 C   0  0  0  0  0  0  0  0  0  0  0  0
  152.8589  142.2553  161.9178 C   0  0  0  0  0  0  0  0  0  0  0  0
  152.4111  143.6039  161.9809 C   0  0  0  0  0  0  0  0  0  0  0  0
  152.0553  144.0782  160.7979 N   0  0  0  0  0  0  0  0  0  0  0  0
  151.4950  141.2714  156.4523 H   0  0  0  0  0  0  0  0  0  0  0  0
  150.8553  142.8329  155.9458 H   0  0  0  0  0  0  0  0  0  0  0  0
  149.7621  141.5164  156.3640 H   0  0  0  0  0  0  0  0  0  0  0  0
  150.5725  141.5844  158.7186 H   0  0  0  0  0  0  0  0  0  0  0  0
  149.6473  143.8873  159.1377 H   0  0  0  0  0  0  0  0  0  0  0  0
  147.8126  142.4779  157.4033 H   0  0  0  0  0  0  0  0  0  0  0  0
  148.3892  141.6539  158.8323 H   0  0  0  0  0  0  0  0  0  0  0  0
  147.0044  144.3968  158.8189 H   0  0  0  0  0  0  0  0  0  0  0  0
  145.3910  142.5080  158.5108 H   0  0  0  0  0  0  0  0  0  0  0  0
  146.0786  141.6793  159.8905 H   0  0  0  0  0  0  0  0  0  0  0  0
  144.6304  144.3680  159.9325 H   0  0  0  0  0  0  0  0  0  0  0  0
  144.0470  142.8648  160.6139 H   0  0  0  0  0  0  0  0  0  0  0  0
  145.0645  144.3890  162.3564 H   0  0  0  0  0  0  0  0  0  0  0  0
  145.8715  142.8388  162.2683 H   0  0  0  0  0  0  0  0  0  0  0  0
  146.8576  145.4402  160.9711 H   0  0  0  0  0  0  0  0  0  0  0  0
  147.5734  144.6214  162.3452 H   0  0  0  0  0  0  0  0  0  0  0  0
  152.8117  142.7559  157.9860 H   0  0  0  0  0  0  0  0  0  0  0  0
  151.8869  144.8556  157.0755 H   0  0  0  0  0  0  0  0  0  0  0  0
  152.8701  145.2052  158.4859 H   0  0  0  0  0  0  0  0  0  0  0  0
  151.1141  145.2239  158.6136 H   0  0  0  0  0  0  0  0  0  0  0  0
  152.9766  141.0222  160.0688 H   0  0  0  0  0  0  0  0  0  0  0  0
  153.2074  141.6207  162.7191 H   0  0  0  0  0  0  0  0  0  0  0  0
  152.3352  144.2479  162.8447 H   0  0  0  0  0  0  0  0  0  0  0  0
  149.4489  143.9897  157.5140 H   0  0  0  0  0  0  0  0  0  0  0  0
  1  2  1  0  0  0  0
  1 18  1  0  0  0  0
  1 19  1  0  0  0  0
  1 20  1  0  0  0  0
  2  3  1  0  0  0  0
  2 11  1  0  0  0  0
  2 21  1  0  0  0  0
  3  4  1  0  0  0  0
  3 22  1  0  0  0  0
  3 41  1  0  0  0  0
  4  5  1  0  0  0  0
  4 23  1  0  0  0  0
  4 24  1  0  0  0  0
  5 10  1  0  0  0  0
  5  6  1  0  0  0  0
  5 25  1  0  0  0  0
  6  7  1  0  0  0  0
  6 26  1  0  0  0  0
  6 27  1  0  0  0  0
  7  8  1  0  0  0  0
  7 28  1  0  0  0  0
  7 29  1  0  0  0  0
  8  9  1  0  0  0  0
  8 30  1  0  0  0  0
  8 31  1  0  0  0  0
  9 10  1  0  0  0  0
  9 32  1  0  0  0  0
  9 33  1  0  0  0  0
 11 12  1  0  0  0  0
 11 13  1  0  0  0  0
 11 34  1  0  0  0  0
 12 35  1  0  0  0  0
 12 36  1  0  0  0  0
 12 37  1  0  0  0  0
 13 17  1  0  0  0  0
 13 14  1  0  0  0  0
 14 15  2  0  0  0  0
 14 38  1  0  0  0  0
 15 16  1  0  0  0  0
 15 39  1  0  0  0  0
 16 17  2  0  0  0  0
 16 40  1  0  0  0  0
M  CHG  1   3   1
M  END
> <s_m_source_file>
AV-unprocessed.smi

> <i_m_source_file_index>
3156

> <i_lp_mmshare_version>
43012

> <i_f3d_flags>
0

> <s_epik_input>
bjFbY0hdW2NIXVtjSF1uMVtDQEBIXShbQ0gzXSlbQ0BIXShbQ0gzXSlbTkhdW0NIMl1bQ0BASF0yW0NIMl1bQ0gyXVtDSDJdW0NIMl1PMg==

> <s_epik_cmdline>
J2VwaWtfcHl0aG9uJywgJy1waCcsICc3LjAnLCAnLXRuJywgJzgnLCAnLW1hJywgJzIwMCcsICctbWV0YWxfYmluZGluZycsICctaW1hZScsICc8aW5maWxlLm1hZT4nLCAnLW9tYWUnLCAnPG91dGZpbGUubWFlPic=

> <r_lp_tautomer_probability>
1

> <r_epik_Ionization_Penalty>
0.00658015

> <r_epik_Ionization_Penalty_Charging>
0.00656881

> <r_epik_Ionization_Penalty_Neutral>
1.13431e-05

> <r_epik_State_Penalty>
0.0048654

> <r_epik_Charging_Adjusted_Penalty>
0.0114342

> <i_epik_Tot_Q>
1

> <i_epik_Tot_abs_Q>
1

> <r_epik_Metal_State_Penalty>
-0

> <b_epik_Metal_Only>
0

> <s_lp_Force_Field>
OPLS_2005

> <r_lp_Energy>
21.7915

> <b_lp_Chiralities_Consistent>
1

> <s_lp_Variant>
AV-unprocessed.smi:3156-7

> <Gold.Version>
5.8.1

> <Gold.Id.Protein>
6NUR|6NUR_protein|mol2

> <Gold.PLP.Fitness>
49.7529

> <Gold.PLP.PLP>
-43.5045

> <Gold.PLP.part.hbond>
-2.5603

> <Gold.PLP.part.metal>
0.0000

> <Gold.PLP.part.buried>
-6.5543

> <Gold.PLP.part.nonpolar>
-34.2895

> <Gold.PLP.part.repulsive>
0.2608

> <Gold.PLP.ligand.clash>
0.0000

> <Gold.PLP.ligand.torsion>
1.4179

> <Gold.PLP.Chemscore.Hbond>
3.0000

> <Gold.PLP.Chemscore.CHOScore>
0.0000

> <Gold.PLP.Chemscore.Metal>
0.0000

> <Gold.Chemscore.Hbonds>
donor molecule, donor type, donor heavy atom, donor atom, acceptor molecule, acceptor atom, score
      L1  H     3    41       P1  8028  1.92
      P1  H  6933  6944       L1    10  1.00

> <Gold.PLP.Chemscore.Internal.Correction>
0.0842

> <Gold.Rescore>
     Score         DG    S(hbond)    S(metal)    S(lipo)     H(rot)  DE(clash)    DE(int)     intcor
     16.74     -17.74       1.56        0.00      95.06       1.59       0.13       0.87       ----

> <Gold.Chemscore.Fitness>
16.7429

> <Gold.Chemscore.DG>
-17.7415

> <Gold.Chemscore.ZeroCoef>
-5.4800

> <Gold.Chemscore.Hbond>
1.5628

> <Gold.Chemscore.Metal>
0.0000

> <Gold.Chemscore.Lipo>
95.0601

> <Gold.Chemscore.Internal_Hbond>
0.0000

> <Gold.Chemscore.DEClash>
0.1301

> <Gold.Chemscore.DEInternal>
0.8685

> <Gold.Chemscore.Rot>
1.5938

> <Gold.Chemscore.Internal.Correction>
   9.000000E+99

> <Gold.Chemscore.Hbonds>
donor molecule, donor type, donor heavy atom, donor atom, acceptor molecule, acceptor atom, score
      L1  H     3    41       P1  8028  0.23
      P1  H  6933  6944       L1    10  0.73

> <Gold.Chemscore.Hbond.Weighted>
-5.2197

> <Gold.Chemscore.Metal.Weighted>
-0.0000

> <Gold.Chemscore.Lipo.Weighted>
-11.1220

> <Gold.Chemscore.Internal_Hbond.Weighted>
0.0000

> <Gold.Chemscore.DEClash.Weighted>
0.1301

> <Gold.Chemscore.DEInternal.Weighted>
0.8685

> <Gold.Chemscore.Rot.Weighted>
4.0802

> <Gold.Chemscore.Internal.Correction.Weighted>
   9.000000E+99

> <Gold.Protein.RotatedTorsions>
[ 6907 6896 6895 6894 ] final  -76.27 input  -60.11 | X-H torsion
[ 7974 7965 7964 7962 ] final -140.96 input  175.53 | X-H torsion
[ 8008 7997 7996 7995 ] final   25.40 input   59.86 | X-H torsion
[ 10167 10162 10161 10158 ] final  131.63 input  -65.29 | X-H torsion
[ 10718 10713 10712 10709 ] final  170.04 input   66.30 | X-H torsion
[ 10763 10752 10751 10750 ] final  175.69 input  -60.55 | X-H torsion
[ 11005 11000 10999 10996 ] final  175.90 input  -57.11 | X-H torsion

> <Gold.Protein.ActiveResidues>
 VAL166  LYS551  ARG553  GLY616  TRP617  ASP618  TYR619  PRO620  LYS621  CYS622 
 ASP623  PHE694  ASN695  SER759  ASP760  ASP761  ALA762  ILE779  LEU786  VAL792 
 PHE793  MET794  SER795  GLU796  ALA797  LYS798  CYS799  TRP800  GLU811  SER814 

> <Gold.Protein.RotatedAtoms>
  150.7032  134.4597  159.5374 H   0  0  0  0  0  0  0  0  0  0  0  0  # atno 6907 bound_to 6896
  152.2274  134.8352  160.0487 H   0  0  0  0  0  0  0  0  0  0  0  0  # atno 6908 bound_to 6896
  151.9181  133.3543  159.3924 H   0  0  0  0  0  0  0  0  0  0  0  0  # atno 6909 bound_to 6896
  144.8556  140.6137  143.5362 H   0  0  0  0  0  0  0  0  0  0  0  0  # atno 7974 bound_to 7965
  155.0111  140.3136  155.4829 H   0  0  0  0  0  0  0  0  0  0  0  0  # atno 8008 bound_to 7997
  156.2909  140.2214  156.5166 H   0  0  0  0  0  0  0  0  0  0  0  0  # atno 8009 bound_to 7997
  154.7534  140.0464  157.0900 H   0  0  0  0  0  0  0  0  0  0  0  0  # atno 8010 bound_to 7997
  139.5375  144.6698  151.4735 H   0  0  0  0  0  0  0  0  0  0  0  0  # atno 10167 bound_to 10162
  157.0139  131.0212  151.2795 H   0  0  0  0  0  0  0  0  0  0  0  0  # atno 10718 bound_to 10713
  154.4710  135.2771  155.1643 H   0  0  0  0  0  0  0  0  0  0  0  0  # atno 10763 bound_to 10752
  154.3392  135.6174  153.5592 H   0  0  0  0  0  0  0  0  0  0  0  0  # atno 10764 bound_to 10752
  152.9864  135.5784  154.5091 H   0  0  0  0  0  0  0  0  0  0  0  0  # atno 10765 bound_to 10752
  140.3672  134.7061  157.4369 H   0  0  0  0  0  0  0  0  0  0  0  0  # atno 11005 bound_to 11000
  145.4413  139.1535  143.3969 LP  0  0  0  0  0  0  0  0  0  0  0  0  # atno 17320 bound_to 7965
  146.2820  140.4534  142.8772 LP  0  0  0  0  0  0  0  0  0  0  0  0  # atno 17321 bound_to 7965
  140.6589  143.8539  150.6866 LP  0  0  0  0  0  0  0  0  0  0  0  0  # atno 17342 bound_to 10162
  140.1928  143.4022  152.1850 LP  0  0  0  0  0  0  0  0  0  0  0  0  # atno 17343 bound_to 10162
  157.5300  130.8052  149.7906 LP  0  0  0  0  0  0  0  0  0  0  0  0  # atno 17370 bound_to 10713
  156.0126  130.3827  150.2214 LP  0  0  0  0  0  0  0  0  0  0  0  0  # atno 17371 bound_to 10713
  140.0580  134.6036  155.8782 LP  0  0  0  0  0  0  0  0  0  0  0  0  # atno 17394 bound_to 11000
  141.1966  133.6592  156.5699 LP  0  0  0  0  0  0  0  0  0  0  0  0  # atno 17395 bound_to 11000

$$$$
