AV-unprocessed.smi:544|AV-procd|sdf|2878|dock2
  -GOLD-   2262023373D 1   1.00000     0.00000
 Structure written by MMmdl.
 49 51  0  0  0  0  0  0  0  0  1 V2000
  152.8056  137.9525  160.0977 C   0  0  0  0  0  0  0  0  0  0  0  0
  153.7548  137.6942  158.9255 C   0  0  0  0  0  0  0  0  0  0  0  0
  153.6700  138.7855  158.0270 O   0  0  0  0  0  0  0  0  0  0  0  0
  152.3490  139.0387  157.5791 C   0  0  0  0  0  0  0  0  0  0  0  0
  152.3585  139.8274  156.2561 C   0  0  0  0  0  0  0  0  0  0  0  0
  151.0933  140.4947  155.9513 N   0  0  0  0  0  0  0  0  0  0  0  0
  150.6448  141.7071  156.3786 C   0  0  0  0  0  0  0  0  0  0  0  0
  151.3822  142.5107  157.2480 N   0  0  0  0  0  0  0  0  0  0  0  0
  151.7283  143.9125  157.0226 C   0  0  0  0  0  0  0  0  0  0  0  0
  151.4544  144.7772  158.2644 C   0  0  0  0  0  0  0  0  0  0  0  0
  152.2257  144.2344  159.4750 C   0  0  0  0  0  0  0  0  0  0  0  0
  151.9407  142.7336  159.6609 C   0  0  2  0  0  0  0  0  0  0  0  0
  152.7638  142.1416  160.8127 C   0  0  0  0  0  0  0  0  0  0  0  0
  152.1963  141.9797  158.3397 C   0  0  0  0  0  0  0  0  0  0  0  0
  149.4710  142.0816  155.8628 N   0  0  0  0  0  0  0  0  0  0  0  0
  149.1300  141.0125  155.0497 C   0  0  0  0  0  0  0  0  0  0  0  0
  150.0941  140.0574  155.0772 C   0  0  0  0  0  0  0  0  0  0  0  0
  150.0072  138.8315  154.2697 C   0  0  0  0  0  0  0  0  0  0  0  0
  150.8832  137.9698  154.2437 O   0  0  0  0  0  0  0  0  0  0  0  0
  148.8615  138.7476  153.5512 N   0  0  0  0  0  0  0  0  0  0  0  0
  147.8473  139.6633  153.4931 C   0  0  0  0  0  0  0  0  0  0  0  0
  146.8567  139.4400  152.7974 O   0  0  0  0  0  0  0  0  0  0  0  0
  147.9850  140.8135  154.2269 N   0  0  0  0  0  0  0  0  0  0  0  0
  146.9408  141.8392  154.1903 C   0  0  0  0  0  0  0  0  0  0  0  0
  148.7450  137.9159  152.9910 H   0  0  0  0  0  0  0  0  0  0  0  0
  152.8406  137.1329  160.8156 H   0  0  0  0  0  0  0  0  0  0  0  0
  151.7761  138.0526  159.7526 H   0  0  0  0  0  0  0  0  0  0  0  0
  153.0735  138.8700  160.6225 H   0  0  0  0  0  0  0  0  0  0  0  0
  154.7768  137.5839  159.2909 H   0  0  0  0  0  0  0  0  0  0  0  0
  153.4804  136.7674  158.4195 H   0  0  0  0  0  0  0  0  0  0  0  0
  151.8218  138.0940  157.4625 H   0  0  0  0  0  0  0  0  0  0  0  0
  151.8037  139.6083  158.3329 H   0  0  0  0  0  0  0  0  0  0  0  0
  153.1635  140.5606  156.2582 H   0  0  0  0  0  0  0  0  0  0  0  0
  152.5945  139.1547  155.4325 H   0  0  0  0  0  0  0  0  0  0  0  0
  152.7861  143.9713  156.7623 H   0  0  0  0  0  0  0  0  0  0  0  0
  151.1939  144.2954  156.1573 H   0  0  0  0  0  0  0  0  0  0  0  0
  151.7437  145.8102  158.0712 H   0  0  0  0  0  0  0  0  0  0  0  0
  150.3870  144.7915  158.4834 H   0  0  0  0  0  0  0  0  0  0  0  0
  153.2945  144.3906  159.3223 H   0  0  0  0  0  0  0  0  0  0  0  0
  151.9532  144.7901  160.3728 H   0  0  0  0  0  0  0  0  0  0  0  0
  150.8857  142.6181  159.9150 H   0  0  0  0  0  0  0  0  0  0  0  0
  153.8337  142.2210  160.6167 H   0  0  0  0  0  0  0  0  0  0  0  0
  152.5296  141.0871  160.9595 H   0  0  0  0  0  0  0  0  0  0  0  0
  152.5570  142.6592  161.7498 H   0  0  0  0  0  0  0  0  0  0  0  0
  151.9676  140.9216  158.4732 H   0  0  0  0  0  0  0  0  0  0  0  0
  153.2501  142.0367  158.0640 H   0  0  0  0  0  0  0  0  0  0  0  0
  146.6419  142.0599  153.1645 H   0  0  0  0  0  0  0  0  0  0  0  0
  147.2667  142.7799  154.6344 H   0  0  0  0  0  0  0  0  0  0  0  0
  146.0604  141.5006  154.7375 H   0  0  0  0  0  0  0  0  0  0  0  0
  1  2  1  0  0  0  0
  1 26  1  0  0  0  0
  1 27  1  0  0  0  0
  1 28  1  0  0  0  0
  2  3  1  0  0  0  0
  2 29  1  0  0  0  0
  2 30  1  0  0  0  0
  3  4  1  0  0  0  0
  4  5  1  0  0  0  0
  4 31  1  0  0  0  0
  4 32  1  0  0  0  0
  5  6  1  0  0  0  0
  5 33  1  0  0  0  0
  5 34  1  0  0  0  0
  6 17  1  0  0  0  0
  6  7  1  0  0  0  0
  7  8  1  0  0  0  0
  7 15  2  0  0  0  0
  8 14  1  0  0  0  0
  8  9  1  0  0  0  0
  9 10  1  0  0  0  0
  9 35  1  0  0  0  0
  9 36  1  0  0  0  0
 10 11  1  0  0  0  0
 10 37  1  0  0  0  0
 10 38  1  0  0  0  0
 11 12  1  0  0  0  0
 11 39  1  0  0  0  0
 11 40  1  0  0  0  0
 12 13  1  0  0  0  0
 12 14  1  0  0  0  0
 12 41  1  0  0  0  0
 13 42  1  0  0  0  0
 13 43  1  0  0  0  0
 13 44  1  0  0  0  0
 14 45  1  0  0  0  0
 14 46  1  0  0  0  0
 15 16  1  0  0  0  0
 16 23  1  0  0  0  0
 16 17  2  0  0  0  0
 17 18  1  0  0  0  0
 18 19  2  0  0  0  0
 18 20  1  0  0  0  0
 20 25  1  0  0  0  0
 20 21  1  0  0  0  0
 21 22  2  0  0  0  0
 21 23  1  0  0  0  0
 23 24  1  0  0  0  0
 24 47  1  0  0  0  0
 24 48  1  0  0  0  0
 24 49  1  0  0  0  0
M  END
> <s_m_source_file>
AV-unprocessed.smi

> <i_m_source_file_index>
544

> <i_lp_mmshare_version>
43012

> <i_f3d_flags>
0

> <s_epik_input>
W0NIM11uMWMoPU8pW25IXWMoPU8pYyhjMTIpbihbQ0gyXVtDSDJdT1tDSDJdW0NIM10pYyhuMilOM1tDSDJdW0NIMl1bQ0gyXVtDQEBIXShbQ0gzXSlbQ0gyXTM=

> <s_epik_cmdline>
J2VwaWtfcHl0aG9uJywgJy1waCcsICc3LjAnLCAnLXRuJywgJzgnLCAnLW1hJywgJzIwMCcsICctbWV0YWxfYmluZGluZycsICctaW1hZScsICc8aW5maWxlLm1hZT4nLCAnLW9tYWUnLCAnPG91dGZpbGUubWFlPic=

> <r_lp_tautomer_probability>
1

> <r_epik_Ionization_Penalty>
0.000382477

> <r_epik_Ionization_Penalty_Charging>
0.000119472

> <r_epik_Ionization_Penalty_Neutral>
0.000263005

> <r_epik_State_Penalty>
-0

> <r_epik_Charging_Adjusted_Penalty>
0.000119472

> <i_epik_Tot_Q>
0

> <i_epik_Tot_abs_Q>
0

> <r_epik_Metal_State_Penalty>
0.0919313

> <b_epik_Metal_Only>
0

> <s_lp_Force_Field>
OPLS_2005

> <r_lp_Energy>
37.0872

> <b_lp_Chiralities_Consistent>
1

> <s_lp_Variant>
AV-unprocessed.smi:544-2

> <Gold.Version>
5.8.1

> <Gold.Id.Protein>
6NUR|6NUR_protein|mol2

> <Gold.PLP.Fitness>
51.2792

> <Gold.PLP.PLP>
-47.1598

> <Gold.PLP.part.hbond>
-3.0000

> <Gold.PLP.part.metal>
0.0000

> <Gold.PLP.part.buried>
-4.3625

> <Gold.PLP.part.nonpolar>
-42.8140

> <Gold.PLP.part.repulsive>
3.1548

> <Gold.PLP.ligand.clash>
0.0000

> <Gold.PLP.ligand.torsion>
1.2188

> <Gold.PLP.Chemscore.Hbond>
2.0000

> <Gold.PLP.Chemscore.CHOScore>
0.0000

> <Gold.PLP.Chemscore.Metal>
0.0000

> <Gold.Chemscore.Hbonds>
donor molecule, donor type, donor heavy atom, donor atom, acceptor molecule, acceptor atom, score
      L1  H    20    25       P1  7948  1.00
      P1  H  7997  8008       L1     3  1.00

> <Gold.PLP.Chemscore.Internal.Correction>
0.5570

> <Gold.Rescore>
     Score         DG    S(hbond)    S(metal)    S(lipo)     H(rot)  DE(clash)    DE(int)     intcor
     15.20     -18.98       1.89        0.00      95.92       1.58       0.57       3.21       ----

> <Gold.Chemscore.Fitness>
15.2018

> <Gold.Chemscore.DG>
-18.9803

> <Gold.Chemscore.ZeroCoef>
-5.4800

> <Gold.Chemscore.Hbond>
1.8935

> <Gold.Chemscore.Metal>
0.0000

> <Gold.Chemscore.Lipo>
95.9182

> <Gold.Chemscore.Internal_Hbond>
0.0000

> <Gold.Chemscore.DEClash>
0.5664

> <Gold.Chemscore.DEInternal>
3.2121

> <Gold.Chemscore.Rot>
1.5806

> <Gold.Chemscore.Internal.Correction>
   9.000000E+99

> <Gold.Chemscore.Hbonds>
donor molecule, donor type, donor heavy atom, donor atom, acceptor molecule, acceptor atom, score
      L1  H    20    25       P1  7948  0.94
      P1  H  7997  8008       L1     3  0.45

> <Gold.Chemscore.Hbond.Weighted>
-6.3241

> <Gold.Chemscore.Metal.Weighted>
-0.0000

> <Gold.Chemscore.Lipo.Weighted>
-11.2224

> <Gold.Chemscore.Internal_Hbond.Weighted>
0.0000

> <Gold.Chemscore.DEClash.Weighted>
0.5664

> <Gold.Chemscore.DEInternal.Weighted>
3.2121

> <Gold.Chemscore.Rot.Weighted>
4.0463

> <Gold.Chemscore.Internal.Correction.Weighted>
   9.000000E+99

> <Gold.Protein.RotatedTorsions>
[ 6907 6896 6895 6894 ] final   94.40 input  -60.11 | X-H torsion
[ 7974 7965 7964 7962 ] final  122.01 input  175.53 | X-H torsion
[ 8008 7997 7996 7995 ] final  -92.70 input   59.86 | X-H torsion
[ 10167 10162 10161 10158 ] final   87.89 input  -65.29 | X-H torsion
[ 10718 10713 10712 10709 ] final  151.62 input   66.30 | X-H torsion
[ 10763 10752 10751 10750 ] final -175.98 input  -60.55 | X-H torsion
[ 11005 11000 10999 10996 ] final -140.12 input  -57.11 | X-H torsion

> <Gold.Protein.ActiveResidues>
 VAL166  LYS551  ARG553  GLY616  TRP617  ASP618  TYR619  PRO620  LYS621  CYS622 
 ASP623  PHE694  ASN695  SER759  ASP760  ASP761  ALA762  ILE779  LEU786  VAL792 
 PHE793  MET794  SER795  GLU796  ALA797  LYS798  CYS799  TRP800  GLU811  SER814 

> <Gold.Protein.RotatedAtoms>
  152.5449  134.1199  159.8394 H   0  0  0  0  0  0  0  0  0  0  0  0  # atno 6907 bound_to 6896
  151.1256  133.5066  159.2608 H   0  0  0  0  0  0  0  0  0  0  0  0  # atno 6908 bound_to 6896
  151.1731  135.0337  159.8815 H   0  0  0  0  0  0  0  0  0  0  0  0  # atno 6909 bound_to 6896
  145.1125  139.3443  143.4756 H   0  0  0  0  0  0  0  0  0  0  0  0  # atno 7974 bound_to 7965
  154.7264  140.0506  157.0686 H   0  0  0  0  0  0  0  0  0  0  0  0  # atno 8008 bound_to 7997
  155.0360  140.3163  155.4722 H   0  0  0  0  0  0  0  0  0  0  0  0  # atno 8009 bound_to 7997
  156.2830  140.2141  156.5482 H   0  0  0  0  0  0  0  0  0  0  0  0  # atno 8010 bound_to 7997
  139.8728  144.6483  150.8930 H   0  0  0  0  0  0  0  0  0  0  0  0  # atno 10167 bound_to 10162
  157.2683  131.0812  151.1618 H   0  0  0  0  0  0  0  0  0  0  0  0  # atno 10718 bound_to 10713
  154.5779  135.2833  155.0762 H   0  0  0  0  0  0  0  0  0  0  0  0  # atno 10763 bound_to 10752
  154.2110  135.6408  153.5119 H   0  0  0  0  0  0  0  0  0  0  0  0  # atno 10764 bound_to 10752
  153.0078  135.5491  154.6423 H   0  0  0  0  0  0  0  0  0  0  0  0  # atno 10765 bound_to 10752
  140.8453  134.2352  157.4789 H   0  0  0  0  0  0  0  0  0  0  0  0  # atno 11005 bound_to 11000
  146.3525  140.1050  142.8606 LP  0  0  0  0  0  0  0  0  0  0  0  0  # atno 17320 bound_to 7965
  145.0831  140.9234  143.4814 LP  0  0  0  0  0  0  0  0  0  0  0  0  # atno 17321 bound_to 7965
  140.7758  143.3649  151.1757 LP  0  0  0  0  0  0  0  0  0  0  0  0  # atno 17342 bound_to 10162
  139.7268  143.9136  152.3005 LP  0  0  0  0  0  0  0  0  0  0  0  0  # atno 17343 bound_to 10162
  157.3100  130.6885  149.6210 LP  0  0  0  0  0  0  0  0  0  0  0  0  # atno 17370 bound_to 10713
  155.9663  130.4366  150.5142 LP  0  0  0  0  0  0  0  0  0  0  0  0  # atno 17371 bound_to 10713
  139.8703  134.9656  156.4535 LP  0  0  0  0  0  0  0  0  0  0  0  0  # atno 17394 bound_to 11000
  140.8850  133.7890  155.9508 LP  0  0  0  0  0  0  0  0  0  0  0  0  # atno 17395 bound_to 11000

$$$$
