AV-unprocessed.smi:249|AV-procd|sdf|1918|dock4
  -GOLD-   2262021 23D 1   1.00000     0.00000
 Structure written by MMmdl.
 64 67  0  0  0  0  0  0  0  0  2 V2000
  146.5064  130.6865  152.1286 C   0  0  0  0  0  0  0  0  0  0  0  0
  147.8412  130.3305  152.7980 C   0  0  0  0  0  0  0  0  0  0  0  0
  148.2139  131.2979  153.8623 N   0  3  2  0  0  0  0  0  0  0  0  0
  148.3709  132.6939  153.3718 C   0  0  0  0  0  0  0  0  0  0  0  0
  148.5425  133.6719  154.5442 C   0  0  0  0  0  0  0  0  0  0  0  0
  149.7418  133.2762  155.4293 C   0  0  1  0  0  0  0  0  0  0  0  0
  149.9994  134.2111  156.5327 N   0  0  0  0  0  0  0  0  0  0  0  0
  149.1928  134.0683  157.7389 C   0  0  0  0  0  0  0  0  0  0  0  0
  150.3001  135.4933  156.2169 C   0  0  0  0  0  0  0  0  0  0  0  0
  150.3249  135.8228  154.9011 N   0  0  0  0  0  0  0  0  0  0  0  0
  150.6193  137.0718  154.5275 C   0  0  0  0  0  0  0  0  0  0  0  0
  150.9149  138.1240  155.2933 N   0  0  0  0  0  0  0  0  0  0  0  0
  150.8969  137.7941  156.6163 C   0  0  0  0  0  0  0  0  0  0  0  0
  150.6054  136.5132  157.1633 C   0  0  0  0  0  0  0  0  0  0  0  0
  150.6804  136.5642  158.5509 N   0  0  0  0  0  0  0  0  0  0  0  0
  151.0022  137.8028  158.8083 C   0  0  0  0  0  0  0  0  0  0  0  0
  151.1434  138.6116  157.7038 N   0  0  0  0  0  0  0  0  0  0  0  0
  151.4845  140.0228  157.6922 C   0  0  0  0  0  0  0  0  0  0  0  0
  152.0711  140.5160  159.0382 C   0  0  1  0  0  0  0  0  0  0  0  0
  153.3169  139.7085  159.4765 C   0  0  0  0  0  0  0  0  0  0  0  0
  154.4995  140.2355  158.9104 O   0  0  0  0  0  0  0  0  0  0  0  0
  152.3322  142.0432  159.0214 C   0  0  2  0  0  0  0  0  0  0  0  0
  152.5241  142.6742  160.3895 C   0  0  0  0  0  0  0  0  0  0  0  0
  152.2791  144.1514  160.1026 C   0  0  0  0  0  0  0  0  0  0  0  0
  151.3261  144.1859  159.0463 O   0  0  0  0  0  0  0  0  0  0  0  0
  151.1655  142.8838  158.4925 C   0  0  0  0  0  0  0  0  0  0  0  0
  149.5616  131.8151  155.8960 C   0  0  0  0  0  0  0  0  0  0  0  0
  149.3569  130.8477  154.7115 C   0  0  2  0  0  0  0  0  0  0  0  0
  150.6583  130.6089  153.9148 C   0  0  0  0  0  0  0  0  0  0  0  0
  146.2203  129.9161  151.4123 H   0  0  0  0  0  0  0  0  0  0  0  0
  146.5584  131.6292  151.5847 H   0  0  0  0  0  0  0  0  0  0  0  0
  145.7054  130.7655  152.8643 H   0  0  0  0  0  0  0  0  0  0  0  0
  147.7377  129.3359  153.2339 H   0  0  0  0  0  0  0  0  0  0  0  0
  148.6362  130.2627  152.0541 H   0  0  0  0  0  0  0  0  0  0  0  0
  149.2188  132.7627  152.6898 H   0  0  0  0  0  0  0  0  0  0  0  0
  147.4926  132.9909  152.7999 H   0  0  0  0  0  0  0  0  0  0  0  0
  148.6772  134.6841  154.1615 H   0  0  0  0  0  0  0  0  0  0  0  0
  147.6206  133.6770  155.1272 H   0  0  0  0  0  0  0  0  0  0  0  0
  150.6319  133.3203  154.8011 H   0  0  0  0  0  0  0  0  0  0  0  0
  149.5212  134.7625  158.5138 H   0  0  0  0  0  0  0  0  0  0  0  0
  149.2904  133.0581  158.1367 H   0  0  0  0  0  0  0  0  0  0  0  0
  148.1372  134.2520  157.5402 H   0  0  0  0  0  0  0  0  0  0  0  0
  150.6180  137.2544  153.4629 H   0  0  0  0  0  0  0  0  0  0  0  0
  151.1369  138.1659  159.8172 H   0  0  0  0  0  0  0  0  0  0  0  0
  152.1917  140.2025  156.8815 H   0  0  0  0  0  0  0  0  0  0  0  0
  150.5800  140.5763  157.4395 H   0  0  0  0  0  0  0  0  0  0  0  0
  151.3097  140.3344  159.7983 H   0  0  0  0  0  0  0  0  0  0  0  0
  153.4182  139.7086  160.5615 H   0  0  0  0  0  0  0  0  0  0  0  0
  153.2274  138.6614  159.1867 H   0  0  0  0  0  0  0  0  0  0  0  0
  154.8037  140.9460  159.4543 H   0  0  0  0  0  0  0  0  0  0  0  0
  153.2136  142.2579  158.4147 H   0  0  0  0  0  0  0  0  0  0  0  0
  151.7760  142.3010  161.0905 H   0  0  0  0  0  0  0  0  0  0  0  0
  153.5118  142.4924  160.8145 H   0  0  0  0  0  0  0  0  0  0  0  0
  151.9228  144.6929  160.9793 H   0  0  0  0  0  0  0  0  0  0  0  0
  153.1966  144.6297  159.7576 H   0  0  0  0  0  0  0  0  0  0  0  0
  151.1403  142.9246  157.4033 H   0  0  0  0  0  0  0  0  0  0  0  0
  150.2110  142.4826  158.8365 H   0  0  0  0  0  0  0  0  0  0  0  0
  150.4170  131.4900  156.4886 H   0  0  0  0  0  0  0  0  0  0  0  0
  148.6941  131.7465  156.5532 H   0  0  0  0  0  0  0  0  0  0  0  0
  149.0717  129.8871  155.1431 H   0  0  0  0  0  0  0  0  0  0  0  0
  151.4561  130.2696  154.5759 H   0  0  0  0  0  0  0  0  0  0  0  0
  151.0145  131.5099  153.4168 H   0  0  0  0  0  0  0  0  0  0  0  0
  150.5305  129.8393  153.1537 H   0  0  0  0  0  0  0  0  0  0  0  0
  147.4220  131.3176  154.4890 H   0  0  0  0  0  0  0  0  0  0  0  0
  1  2  1  0  0  0  0
  1 30  1  0  0  0  0
  1 31  1  0  0  0  0
  1 32  1  0  0  0  0
  2  3  1  0  0  0  0
  2 33  1  0  0  0  0
  2 34  1  0  0  0  0
  3 28  1  0  0  0  0
  3  4  1  0  0  0  0
  3 64  1  0  0  0  0
  4  5  1  0  0  0  0
  4 35  1  0  0  0  0
  4 36  1  0  0  0  0
  5  6  1  0  0  0  0
  5 37  1  0  0  0  0
  5 38  1  0  0  0  0
  6  7  1  0  0  0  0
  6 27  1  0  0  0  0
  6 39  1  0  0  0  0
  7  8  1  0  0  0  0
  7  9  1  0  0  0  0
  8 40  1  0  0  0  0
  8 41  1  0  0  0  0
  8 42  1  0  0  0  0
  9 14  1  0  0  0  0
  9 10  2  0  0  0  0
 10 11  1  0  0  0  0
 11 12  2  0  0  0  0
 11 43  1  0  0  0  0
 12 13  1  0  0  0  0
 13 17  1  0  0  0  0
 13 14  2  0  0  0  0
 14 15  1  0  0  0  0
 15 16  2  0  0  0  0
 16 17  1  0  0  0  0
 16 44  1  0  0  0  0
 17 18  1  0  0  0  0
 18 19  1  0  0  0  0
 18 45  1  0  0  0  0
 18 46  1  0  0  0  0
 19 20  1  0  0  0  0
 19 22  1  0  0  0  0
 19 47  1  0  0  0  0
 20 21  1  0  0  0  0
 20 48  1  0  0  0  0
 20 49  1  0  0  0  0
 21 50  1  0  0  0  0
 22 26  1  0  0  0  0
 22 23  1  0  0  0  0
 22 51  1  0  0  0  0
 23 24  1  0  0  0  0
 23 52  1  0  0  0  0
 23 53  1  0  0  0  0
 24 25  1  0  0  0  0
 24 54  1  0  0  0  0
 24 55  1  0  0  0  0
 25 26  1  0  0  0  0
 26 56  1  0  0  0  0
 26 57  1  0  0  0  0
 27 28  1  0  0  0  0
 27 58  1  0  0  0  0
 27 59  1  0  0  0  0
 28 29  1  0  0  0  0
 28 60  1  0  0  0  0
 29 61  1  0  0  0  0
 29 62  1  0  0  0  0
 29 63  1  0  0  0  0
M  CHG  1   3   1
M  END
> <s_m_source_file>
AV-unprocessed.smi

> <i_m_source_file_index>
249

> <i_lp_mmshare_version>
43012

> <i_f3d_flags>
0

> <s_epik_input>
W0NIM11bQ0gyXU4xW0NIMl1bQ0gyXVtDQEhdKFtDSDJdW0NASF0xW0NIM10pTihbQ0gzXSljKG5bY0hdbjIpYyhjMjMpbltjSF1uM1tDSDJdW0NASF0oW0NIMl1bT0hdKVtDQEBIXTRbQ0gyXVtDSDJdT1tDSDJdNA==

> <s_epik_cmdline>
J2VwaWtfcHl0aG9uJywgJy1waCcsICc3LjAnLCAnLXRuJywgJzgnLCAnLW1hJywgJzIwMCcsICctbWV0YWxfYmluZGluZycsICctaW1hZScsICc8aW5maWxlLm1hZT4nLCAnLW9tYWUnLCAnPG91dGZpbGUubWFlPic=

> <r_lp_tautomer_probability>
1

> <r_epik_Ionization_Penalty>
0.00294688

> <r_epik_Ionization_Penalty_Charging>
0.00169971

> <r_epik_Ionization_Penalty_Neutral>
0.00124717

> <r_epik_State_Penalty>
-0

> <r_epik_Charging_Adjusted_Penalty>
0.00169971

> <i_epik_Tot_Q>
1

> <i_epik_Tot_abs_Q>
1

> <r_epik_Metal_State_Penalty>
-0

> <b_epik_Metal_Only>
0

> <s_lp_Force_Field>
OPLS_2005

> <r_lp_Energy>
53.4352

> <b_lp_Chiralities_Consistent>
1

> <s_lp_Variant>
AV-unprocessed.smi:249-21

> <Gold.Version>
5.8.1

> <Gold.Id.Protein>
6NUR|6NUR_protein|mol2

> <Gold.PLP.Fitness>
49.0805

> <Gold.PLP.PLP>
-41.0878

> <Gold.PLP.part.hbond>
-2.0000

> <Gold.PLP.part.metal>
0.0000

> <Gold.PLP.part.buried>
-5.7423

> <Gold.PLP.part.nonpolar>
-33.8152

> <Gold.PLP.part.repulsive>
0.2705

> <Gold.PLP.ligand.clash>
0.0000

> <Gold.PLP.ligand.torsion>
1.1220

> <Gold.PLP.Chemscore.Hbond>
2.0000

> <Gold.PLP.Chemscore.CHOScore>
1.0686

> <Gold.PLP.Chemscore.Metal>
0.0000

> <Gold.Chemscore.Hbonds>
donor molecule, donor type, donor heavy atom, donor atom, acceptor molecule, acceptor atom, score
      P1  H  6896  6908       L1    15  0.88
      P1  H  7997  8008       L1    21  0.88
      L1  C    11    43       P1  7948  0.43
      L1  C    11    43       P1  7949  0.62

> <Gold.PLP.Chemscore.Internal.Correction>
1.0309

> <Gold.Rescore>
     Score         DG    S(hbond)    S(metal)    S(lipo)     H(rot)  DE(clash)    DE(int)     intcor
     13.19     -16.83       1.89        0.00     106.52       2.90       0.01       3.62       ----

> <Gold.Chemscore.Fitness>
13.1938

> <Gold.Chemscore.DG>
-16.8320

> <Gold.Chemscore.ZeroCoef>
-5.4800

> <Gold.Chemscore.Hbond>
1.8906

> <Gold.Chemscore.Metal>
0.0000

> <Gold.Chemscore.Lipo>
106.5222

> <Gold.Chemscore.Internal_Hbond>
0.0000

> <Gold.Chemscore.DEClash>
0.0133

> <Gold.Chemscore.DEInternal>
3.6249

> <Gold.Chemscore.Rot>
2.9006

> <Gold.Chemscore.Internal.Correction>
   9.000000E+99

> <Gold.Chemscore.Hbonds>
donor molecule, donor type, donor heavy atom, donor atom, acceptor molecule, acceptor atom, score
      P1  H  6896  6908       L1    15  0.80
      P1  H  7997  8008       L1    21  0.85

> <Gold.Chemscore.Hbond.Weighted>
-6.3146

> <Gold.Chemscore.Metal.Weighted>
-0.0000

> <Gold.Chemscore.Lipo.Weighted>
-12.4631

> <Gold.Chemscore.Internal_Hbond.Weighted>
0.0000

> <Gold.Chemscore.DEClash.Weighted>
0.0133

> <Gold.Chemscore.DEInternal.Weighted>
3.6249

> <Gold.Chemscore.Rot.Weighted>
7.4256

> <Gold.Chemscore.Internal.Correction.Weighted>
   9.000000E+99

> <Gold.Protein.RotatedTorsions>
[ 6907 6896 6895 6894 ] final -165.20 input  -60.11 | X-H torsion
[ 7974 7965 7964 7962 ] final  -72.29 input  175.53 | X-H torsion
[ 8008 7997 7996 7995 ] final -120.85 input   59.86 | X-H torsion
[ 10167 10162 10161 10158 ] final -103.65 input  -65.29 | X-H torsion
[ 10718 10713 10712 10709 ] final -149.49 input   66.30 | X-H torsion
[ 10763 10752 10751 10750 ] final -105.90 input  -60.55 | X-H torsion
[ 11005 11000 10999 10996 ] final   73.11 input  -57.11 | X-H torsion

> <Gold.Protein.ActiveResidues>
 VAL166  LYS551  ARG553  GLY616  TRP617  ASP618  TYR619  PRO620  LYS621  CYS622 
 ASP623  PHE694  ASN695  SER759  ASP760  ASP761  ALA762  ILE779  LEU786  VAL792 
 PHE793  MET794  SER795  GLU796  ALA797  LYS798  CYS799  TRP800  GLU811  SER814 

> <Gold.Protein.RotatedAtoms>
  151.4239  133.3690  159.2759 H   0  0  0  0  0  0  0  0  0  0  0  0  # atno 6907 bound_to 6896
  150.9274  134.8691  159.7539 H   0  0  0  0  0  0  0  0  0  0  0  0  # atno 6908 bound_to 6896
  152.5011  134.4181  159.9523 H   0  0  0  0  0  0  0  0  0  0  0  0  # atno 6909 bound_to 6896
  145.6671  140.9233  143.0903 H   0  0  0  0  0  0  0  0  0  0  0  0  # atno 7974 bound_to 7965
  155.1385  140.0401  157.2792 H   0  0  0  0  0  0  0  0  0  0  0  0  # atno 8008 bound_to 7997
  154.6490  140.2565  155.7208 H   0  0  0  0  0  0  0  0  0  0  0  0  # atno 8009 bound_to 7997
  156.2568  140.2840  156.0916 H   0  0  0  0  0  0  0  0  0  0  0  0  # atno 8010 bound_to 7997
  140.2177  143.3699  152.0996 H   0  0  0  0  0  0  0  0  0  0  0  0  # atno 10167 bound_to 10162
  156.4338  130.8088  151.2316 H   0  0  0  0  0  0  0  0  0  0  0  0  # atno 10718 bound_to 10713
  154.7977  135.4732  154.0200 H   0  0  0  0  0  0  0  0  0  0  0  0  # atno 10763 bound_to 10752
  153.1730  135.6828  153.8589 H   0  0  0  0  0  0  0  0  0  0  0  0  # atno 10764 bound_to 10752
  153.8165  135.3210  155.3384 H   0  0  0  0  0  0  0  0  0  0  0  0  # atno 10765 bound_to 10752
  139.9457  134.7318  156.0987 H   0  0  0  0  0  0  0  0  0  0  0  0  # atno 11005 bound_to 11000
  144.7069  139.8524  143.7427 LP  0  0  0  0  0  0  0  0  0  0  0  0  # atno 17320 bound_to 7965
  146.1077  139.4078  143.0307 LP  0  0  0  0  0  0  0  0  0  0  0  0  # atno 17321 bound_to 7965
  139.5156  144.6965  151.5616 LP  0  0  0  0  0  0  0  0  0  0  0  0  # atno 17342 bound_to 10162
  140.6278  143.9136  150.6579 LP  0  0  0  0  0  0  0  0  0  0  0  0  # atno 17343 bound_to 10162
  157.7508  131.0190  150.3648 LP  0  0  0  0  0  0  0  0  0  0  0  0  # atno 17370 bound_to 10713
  156.3991  130.3912  149.6973 LP  0  0  0  0  0  0  0  0  0  0  0  0  # atno 17371 bound_to 10713
  141.1106  133.6644  156.2969 LP  0  0  0  0  0  0  0  0  0  0  0  0  # atno 17394 bound_to 11000
  140.5842  134.5716  157.5486 LP  0  0  0  0  0  0  0  0  0  0  0  0  # atno 17395 bound_to 11000

$$$$
