AV-unprocessed.smi:845|AV-procd|sdf|3928|dock5
  -GOLD-   22720 1393D 1   1.00000     0.00000
 Structure written by MMmdl.
 43 44  0  0  0  0  0  0  0  0  2 V2000
  146.3667  142.1931  155.8959 C   0  0  0  0  0  0  0  0  0  0  0  0
  146.9548  142.4983  154.5044 C   0  0  0  0  0  0  0  0  0  0  0  0
  145.8281  143.0088  153.5865 C   0  0  0  0  0  0  0  0  0  0  0  0
  147.6931  141.2670  153.9005 C   0  0  1  0  0  0  0  0  0  0  0  0
  149.0627  140.9351  154.5583 C   0  0  0  0  0  0  0  0  0  0  0  0
  149.4835  141.9118  155.5626 N   0  0  0  0  0  0  0  0  0  0  0  0
  150.2361  141.6487  156.6404 C   0  0  0  0  0  0  0  0  0  0  0  0
  150.6485  140.5235  156.9223 O   0  0  0  0  0  0  0  0  0  0  0  0
  150.4645  142.7624  157.3579 N   0  0  0  0  0  0  0  0  0  0  0  0
  151.1893  142.8896  158.5723 C   0  0  0  0  0  0  0  0  0  0  0  0
  151.7643  141.8683  159.2181 N   0  0  0  0  0  0  0  0  0  0  0  0
  152.4072  142.2826  160.3874 C   0  0  0  0  0  0  0  0  0  0  0  0
  152.3091  143.6321  160.6193 C   0  0  0  0  0  0  0  0  0  0  0  0
  151.3999  144.4411  159.3706 S   0  0  0  0  0  0  0  0  0  0  0  0
  146.7871  140.0828  153.7830 N   0  3  0  0  0  0  0  0  0  0  0  0
  147.1164  139.1627  152.6671 C   0  0  0  0  0  0  0  0  0  0  0  0
  145.9962  138.1218  152.4990 C   0  0  0  0  0  0  0  0  0  0  0  0
  145.8059  137.4179  153.7211 O   0  0  0  0  0  0  0  0  0  0  0  0
  145.4216  138.2811  154.7853 C   0  0  0  0  0  0  0  0  0  0  0  0
  146.5289  139.3189  155.0286 C   0  0  0  0  0  0  0  0  0  0  0  0
  145.6590  141.3644  155.8546 H   0  0  0  0  0  0  0  0  0  0  0  0
  145.8372  143.0585  156.2956 H   0  0  0  0  0  0  0  0  0  0  0  0
  147.1408  141.9361  156.6191 H   0  0  0  0  0  0  0  0  0  0  0  0
  147.6654  143.3156  154.6282 H   0  0  0  0  0  0  0  0  0  0  0  0
  145.0906  142.2291  153.3928 H   0  0  0  0  0  0  0  0  0  0  0  0
  146.2073  143.3541  152.6251 H   0  0  0  0  0  0  0  0  0  0  0  0
  145.3050  143.8516  154.0393 H   0  0  0  0  0  0  0  0  0  0  0  0
  147.9241  141.5502  152.8723 H   0  0  0  0  0  0  0  0  0  0  0  0
  149.0686  139.9186  154.9516 H   0  0  0  0  0  0  0  0  0  0  0  0
  149.8332  140.9403  153.7871 H   0  0  0  0  0  0  0  0  0  0  0  0
  149.1943  142.8673  155.4117 H   0  0  0  0  0  0  0  0  0  0  0  0
  150.0735  143.6199  156.9965 H   0  0  0  0  0  0  0  0  0  0  0  0
  152.9118  141.5480  160.9975 H   0  0  0  0  0  0  0  0  0  0  0  0
  152.7147  144.1967  161.4457 H   0  0  0  0  0  0  0  0  0  0  0  0
  147.2343  139.7216  151.7382 H   0  0  0  0  0  0  0  0  0  0  0  0
  148.0624  138.6564  152.8613 H   0  0  0  0  0  0  0  0  0  0  0  0
  145.0637  138.5993  152.1939 H   0  0  0  0  0  0  0  0  0  0  0  0
  146.2594  137.4093  151.7169 H   0  0  0  0  0  0  0  0  0  0  0  0
  144.4733  138.7682  154.5534 H   0  0  0  0  0  0  0  0  0  0  0  0
  145.2621  137.6845  155.6836 H   0  0  0  0  0  0  0  0  0  0  0  0
  147.4329  138.7993  155.3433 H   0  0  0  0  0  0  0  0  0  0  0  0
  146.2358  139.9873  155.8376 H   0  0  0  0  0  0  0  0  0  0  0  0
  145.8947  140.4805  153.5276 H   0  0  0  0  0  0  0  0  0  0  0  0
  1  2  1  0  0  0  0
  1 21  1  0  0  0  0
  1 22  1  0  0  0  0
  1 23  1  0  0  0  0
  2  3  1  0  0  0  0
  2  4  1  0  0  0  0
  2 24  1  0  0  0  0
  3 25  1  0  0  0  0
  3 26  1  0  0  0  0
  3 27  1  0  0  0  0
  4  5  1  0  0  0  0
  4 15  1  0  0  0  0
  4 28  1  0  0  0  0
  5  6  1  0  0  0  0
  5 29  1  0  0  0  0
  5 30  1  0  0  0  0
  6  7  1  0  0  0  0
  6 31  1  0  0  0  0
  7  8  2  0  0  0  0
  7  9  1  0  0  0  0
  9 10  1  0  0  0  0
  9 32  1  0  0  0  0
 10 14  1  0  0  0  0
 10 11  2  0  0  0  0
 11 12  1  0  0  0  0
 12 13  2  0  0  0  0
 12 33  1  0  0  0  0
 13 14  1  0  0  0  0
 13 34  1  0  0  0  0
 15 20  1  0  0  0  0
 15 16  1  0  0  0  0
 15 43  1  0  0  0  0
 16 17  1  0  0  0  0
 16 35  1  0  0  0  0
 16 36  1  0  0  0  0
 17 18  1  0  0  0  0
 17 37  1  0  0  0  0
 17 38  1  0  0  0  0
 18 19  1  0  0  0  0
 19 20  1  0  0  0  0
 19 39  1  0  0  0  0
 19 40  1  0  0  0  0
 20 41  1  0  0  0  0
 20 42  1  0  0  0  0
M  CHG  1  15   1
M  END
> <s_m_source_file>
AV-unprocessed.smi

> <i_m_source_file_index>
845

> <i_lp_mmshare_version>
43012

> <i_f3d_flags>
0

> <s_epik_input>
W0NIMl0xW0NIMl1PW0NIMl1bQ0gyXU4xW0NASF0oW0NIXShbQ0gzXSlbQ0gzXSlbQ0gyXVtOSF1DKD1PKVtOSF1jMm5bY0hdW2NIXXMy

> <s_epik_cmdline>
J2VwaWtfcHl0aG9uJywgJy1waCcsICc3LjAnLCAnLXRuJywgJzgnLCAnLW1hJywgJzIwMCcsICctbWV0YWxfYmluZGluZycsICctaW1hZScsICc8aW5maWxlLm1hZT4nLCAnLW9tYWUnLCAnPG91dGZpbGUubWFlPic=

> <r_lp_tautomer_probability>
0.999

> <r_epik_Ionization_Penalty>
0.398341

> <r_epik_Ionization_Penalty_Charging>
0.398119

> <r_epik_Ionization_Penalty_Neutral>
0.000222117

> <r_epik_State_Penalty>
0.397286

> <r_epik_Charging_Adjusted_Penalty>
0.795404

> <i_epik_Tot_Q>
1

> <i_epik_Tot_abs_Q>
1

> <r_epik_Metal_State_Penalty>
0.407542

> <b_epik_Metal_Only>
0

> <s_lp_Force_Field>
OPLS_2005

> <r_lp_Energy>
31.69

> <b_lp_Chiralities_Consistent>
1

> <s_lp_Variant>
AV-unprocessed.smi:845-2

> <Gold.Version>
5.8.1

> <Gold.Id.Protein>
6NUR|6NUR_protein|mol2

> <Gold.PLP.Fitness>
42.4455

> <Gold.PLP.PLP>
-38.8403

> <Gold.PLP.part.hbond>
-2.0000

> <Gold.PLP.part.metal>
0.0000

> <Gold.PLP.part.buried>
-3.8625

> <Gold.PLP.part.nonpolar>
-33.3540

> <Gold.PLP.part.repulsive>
0.3631

> <Gold.PLP.ligand.clash>
0.0000

> <Gold.PLP.ligand.torsion>
1.3369

> <Gold.PLP.Chemscore.Hbond>
2.0000

> <Gold.PLP.Chemscore.CHOScore>
0.0000

> <Gold.PLP.Chemscore.Metal>
0.0000

> <Gold.Chemscore.Hbonds>
donor molecule, donor type, donor heavy atom, donor atom, acceptor molecule, acceptor atom, score
      L1  H     6    31       P1  8028  1.00
      L1  H     9    32       P1  8028  0.86

> <Gold.PLP.Chemscore.Internal.Correction>
0.2790

> <Gold.Rescore>
     Score         DG    S(hbond)    S(metal)    S(lipo)     H(rot)  DE(clash)    DE(int)     intcor
     16.01     -19.96       2.73        0.00      85.33       1.80       0.15       3.80       ----

> <Gold.Chemscore.Fitness>
16.0133

> <Gold.Chemscore.DG>
-19.9637

> <Gold.Chemscore.ZeroCoef>
-5.4800

> <Gold.Chemscore.Hbond>
2.7306

> <Gold.Chemscore.Metal>
0.0000

> <Gold.Chemscore.Lipo>
85.3270

> <Gold.Chemscore.Internal_Hbond>
0.0000

> <Gold.Chemscore.DEClash>
0.1512

> <Gold.Chemscore.DEInternal>
3.7991

> <Gold.Chemscore.Rot>
1.8046

> <Gold.Chemscore.Internal.Correction>
   9.000000E+99

> <Gold.Chemscore.Hbonds>
donor molecule, donor type, donor heavy atom, donor atom, acceptor molecule, acceptor atom, score
      L1  H     6    31       P1  8028  1.00
      L1  H     9    32       P1  8028  0.81
      L1  H    15    43       P1 10175  0.05

> <Gold.Chemscore.Hbond.Weighted>
-9.1201

> <Gold.Chemscore.Metal.Weighted>
-0.0000

> <Gold.Chemscore.Lipo.Weighted>
-9.9833

> <Gold.Chemscore.Internal_Hbond.Weighted>
0.0000

> <Gold.Chemscore.DEClash.Weighted>
0.1512

> <Gold.Chemscore.DEInternal.Weighted>
3.7991

> <Gold.Chemscore.Rot.Weighted>
4.6197

> <Gold.Chemscore.Internal.Correction.Weighted>
   9.000000E+99

> <Gold.Protein.RotatedTorsions>
[ 6907 6896 6895 6894 ] final  127.79 input  -60.11 | X-H torsion
[ 7974 7965 7964 7962 ] final    6.50 input  175.53 | X-H torsion
[ 8008 7997 7996 7995 ] final  -98.06 input   59.86 | X-H torsion
[ 10167 10162 10161 10158 ] final   49.37 input  -65.29 | X-H torsion
[ 10718 10713 10712 10709 ] final -156.35 input   66.30 | X-H torsion
[ 10763 10752 10751 10750 ] final  146.66 input  -60.55 | X-H torsion
[ 11005 11000 10999 10996 ] final   86.43 input  -57.11 | X-H torsion

> <Gold.Protein.ActiveResidues>
 VAL166  LYS551  ARG553  GLY616  TRP617  ASP618  TYR619  PRO620  LYS621  CYS622 
 ASP623  PHE694  ASN695  SER759  ASP760  ASP761  ALA762  ILE779  LEU786  VAL792 
 PHE793  MET794  SER795  GLU796  ALA797  LYS798  CYS799  TRP800  GLU811  SER814 

> <Gold.Protein.RotatedAtoms>
  152.3779  133.6507  159.6138 H   0  0  0  0  0  0  0  0  0  0  0  0  # atno 6907 bound_to 6896
  150.7718  133.9162  159.3393 H   0  0  0  0  0  0  0  0  0  0  0  0  # atno 6908 bound_to 6896
  151.6973  135.0937  160.0296 H   0  0  0  0  0  0  0  0  0  0  0  0  # atno 6909 bound_to 6896
  146.2434  140.0225  142.8397 H   0  0  0  0  0  0  0  0  0  0  0  0  # atno 7974 bound_to 7965
  154.7960  140.0458  157.1237 H   0  0  0  0  0  0  0  0  0  0  0  0  # atno 8008 bound_to 7997
  154.9534  140.3068  155.5044 H   0  0  0  0  0  0  0  0  0  0  0  0  # atno 8009 bound_to 7997
  156.2956  140.2284  156.4614 H   0  0  0  0  0  0  0  0  0  0  0  0  # atno 8010 bound_to 7997
  140.2835  144.3128  150.6258 H   0  0  0  0  0  0  0  0  0  0  0  0  # atno 10167 bound_to 10162
  156.5253  130.8496  151.2697 H   0  0  0  0  0  0  0  0  0  0  0  0  # atno 10718 bound_to 10713
  154.0255  135.2902  155.3375 H   0  0  0  0  0  0  0  0  0  0  0  0  # atno 10763 bound_to 10752
  154.7020  135.5184  153.8544 H   0  0  0  0  0  0  0  0  0  0  0  0  # atno 10764 bound_to 10752
  153.0663  135.6632  154.0472 H   0  0  0  0  0  0  0  0  0  0  0  0  # atno 10765 bound_to 10752
  139.8945  134.8355  156.2720 H   0  0  0  0  0  0  0  0  0  0  0  0  # atno 11005 bound_to 11000
  145.1228  140.9473  143.4590 LP  0  0  0  0  0  0  0  0  0  0  0  0  # atno 17320 bound_to 7965
  145.0464  139.3217  143.5951 LP  0  0  0  0  0  0  0  0  0  0  0  0  # atno 17321 bound_to 7965
  140.5792  143.2174  151.7460 LP  0  0  0  0  0  0  0  0  0  0  0  0  # atno 17342 bound_to 10162
  139.4956  144.4106  152.0085 LP  0  0  0  0  0  0  0  0  0  0  0  0  # atno 17343 bound_to 10162
  157.7430  130.9903  150.2561 LP  0  0  0  0  0  0  0  0  0  0  0  0  # atno 17370 bound_to 10713
  156.3110  130.3772  149.7661 LP  0  0  0  0  0  0  0  0  0  0  0  0  # atno 17371 bound_to 10713
  141.0094  133.7104  156.1088 LP  0  0  0  0  0  0  0  0  0  0  0  0  # atno 17394 bound_to 11000
  140.7388  134.4173  157.5557 LP  0  0  0  0  0  0  0  0  0  0  0  0  # atno 17395 bound_to 11000

$$$$
