AV-unprocessed.smi:2158|AV-procd|sdf|8790|dock3
  -GOLD-   2272011573D 1   1.00000     0.00000
 Structure written by MMmdl.
 30 30  0  0  0  0  0  0  0  0  2 V2000
  153.0062  142.6551  161.3292 C   0  0  0  0  0  0  0  0  0  0  0  0
  152.8107  142.1717  159.8847 C   0  0  0  0  0  0  0  0  0  0  0  0
  151.5830  142.7873  159.1881 C   0  0  1  0  0  0  0  0  0  0  0  0
  151.6381  144.3231  159.1946 C   0  0  0  0  0  0  0  0  0  0  0  0
  151.4865  142.2961  157.8160 N   0  0  0  0  0  0  0  0  0  0  0  0
  151.2603  141.0236  157.4568 C   0  0  0  0  0  0  0  0  0  0  0  0
  151.0760  140.1142  158.2669 O   0  0  0  0  0  0  0  0  0  0  0  0
  151.2045  140.7509  155.9478 C   0  0  0  0  0  0  0  0  0  0  0  0
  151.1136  139.3173  155.6298 N   0  0  0  0  0  0  0  0  0  0  0  0
  149.9311  138.6425  155.9814 C   0  0  0  0  0  0  0  0  0  0  0  0
  149.7615  137.3301  155.7325 C   0  0  0  0  0  0  0  0  0  0  0  0
  150.8451  136.6056  155.0802 C   0  0  0  0  0  0  0  0  0  0  0  0
  150.7059  135.4074  154.8423 O   0  0  0  0  0  0  0  0  0  0  0  0
  151.9745  137.3038  154.7623 N   0  5  0  0  0  0  0  0  0  0  0  0
  152.1341  138.6384  155.0240 C   0  0  0  0  0  0  0  0  0  0  0  0
  153.1631  139.2490  154.7318 O   0  0  0  0  0  0  0  0  0  0  0  0
  153.9119  142.2281  161.7602 H   0  0  0  0  0  0  0  0  0  0  0  0
  152.1704  142.3664  161.9671 H   0  0  0  0  0  0  0  0  0  0  0  0
  153.0989  143.7406  161.3702 H   0  0  0  0  0  0  0  0  0  0  0  0
  153.7068  142.4163  159.3133 H   0  0  0  0  0  0  0  0  0  0  0  0
  152.7339  141.0836  159.8761 H   0  0  0  0  0  0  0  0  0  0  0  0
  150.6956  142.4765  159.7431 H   0  0  0  0  0  0  0  0  0  0  0  0
  151.6914  144.7085  160.2129 H   0  0  0  0  0  0  0  0  0  0  0  0
  150.7499  144.7525  158.7298 H   0  0  0  0  0  0  0  0  0  0  0  0
  152.5096  144.6920  158.6526 H   0  0  0  0  0  0  0  0  0  0  0  0
  151.6233  142.9742  157.0806 H   0  0  0  0  0  0  0  0  0  0  0  0
  150.3471  141.2871  155.5390 H   0  0  0  0  0  0  0  0  0  0  0  0
  152.0762  141.1888  155.4576 H   0  0  0  0  0  0  0  0  0  0  0  0
  149.1816  139.2501  156.4670 H   0  0  0  0  0  0  0  0  0  0  0  0
  148.8481  136.8259  156.0116 H   0  0  0  0  0  0  0  0  0  0  0  0
  1  2  1  0  0  0  0
  1 17  1  0  0  0  0
  1 18  1  0  0  0  0
  1 19  1  0  0  0  0
  2  3  1  0  0  0  0
  2 20  1  0  0  0  0
  2 21  1  0  0  0  0
  3  4  1  0  0  0  0
  3  5  1  0  0  0  0
  3 22  1  0  0  0  0
  4 23  1  0  0  0  0
  4 24  1  0  0  0  0
  4 25  1  0  0  0  0
  5  6  1  0  0  0  0
  5 26  1  0  0  0  0
  6  7  2  0  0  0  0
  6  8  1  0  0  0  0
  8  9  1  0  0  0  0
  8 27  1  0  0  0  0
  8 28  1  0  0  0  0
  9 15  1  0  0  0  0
  9 10  1  0  0  0  0
 10 11  2  0  0  0  0
 10 29  1  0  0  0  0
 11 12  1  0  0  0  0
 11 30  1  0  0  0  0
 12 13  2  0  0  0  0
 12 14  1  0  0  0  0
 14 15  1  0  0  0  0
 15 16  2  0  0  0  0
M  CHG  1  14  -1
M  END
> <s_m_source_file>
AV-unprocessed.smi

> <i_m_source_file_index>
2158

> <i_lp_mmshare_version>
43012

> <i_f3d_flags>
0

> <s_epik_input>
W0NIM11bQ0gyXVtDQEhdKFtDSDNdKVtOSF1DKD1PKVtDSDJdbjFbY0hdW2NIXWMoPU8pW25IXWMxPU8=

> <s_epik_cmdline>
J2VwaWtfcHl0aG9uJywgJy1waCcsICc3LjAnLCAnLXRuJywgJzgnLCAnLW1hJywgJzIwMCcsICctbWV0YWxfYmluZGluZycsICctaW1hZScsICc8aW5maWxlLm1hZT4nLCAnLW9tYWUnLCAnPG91dGZpbGUubWFlPic=

> <r_lp_tautomer_probability>
0.999537

> <r_epik_Ionization_Penalty>
3.08395

> <r_epik_Ionization_Penalty_Charging>
2.76809e-08

> <r_epik_Ionization_Penalty_Neutral>
3.08395

> <r_epik_State_Penalty>
3.08299

> <r_epik_Charging_Adjusted_Penalty>
3.08299

> <i_epik_Tot_Q>
-1

> <i_epik_Tot_abs_Q>
1

> <r_epik_Metal_State_Penalty>
0.460296

> <b_epik_Metal_Only>
1

> <s_lp_Force_Field>
OPLS_2005

> <r_lp_Energy>
11.8207

> <b_lp_Chiralities_Consistent>
1

> <s_lp_Variant>
AV-unprocessed.smi:2158-4

> <Gold.Version>
5.8.1

> <Gold.Id.Protein>
6NUR|6NUR_protein|mol2

> <Gold.PLP.Fitness>
39.8289

> <Gold.PLP.PLP>
-31.2878

> <Gold.PLP.part.hbond>
-2.0000

> <Gold.PLP.part.metal>
0.0000

> <Gold.PLP.part.buried>
-4.9757

> <Gold.PLP.part.nonpolar>
-25.1492

> <Gold.PLP.part.repulsive>
0.3593

> <Gold.PLP.ligand.clash>
0.0000

> <Gold.PLP.ligand.torsion>
0.1672

> <Gold.PLP.Chemscore.Hbond>
2.9520

> <Gold.PLP.Chemscore.CHOScore>
0.0000

> <Gold.PLP.Chemscore.Metal>
0.0000

> <Gold.Chemscore.Hbonds>
donor molecule, donor type, donor heavy atom, donor atom, acceptor molecule, acceptor atom, score
      P1  H  7997  8009       L1    16  1.00
      P1  H 10752 10763       L1    14  0.99

> <Gold.PLP.Chemscore.Internal.Correction>
0.0196

> <Gold.Rescore>
     Score         DG    S(hbond)    S(metal)    S(lipo)     H(rot)  DE(clash)    DE(int)     intcor
     12.68     -13.27       1.76        0.00      58.92       1.94       0.16       0.43       ----

> <Gold.Chemscore.Fitness>
12.6808

> <Gold.Chemscore.DG>
-13.2715

> <Gold.Chemscore.ZeroCoef>
-5.4800

> <Gold.Chemscore.Hbond>
1.7595

> <Gold.Chemscore.Metal>
0.0000

> <Gold.Chemscore.Lipo>
58.9214

> <Gold.Chemscore.Internal_Hbond>
0.0000

> <Gold.Chemscore.DEClash>
0.1647

> <Gold.Chemscore.DEInternal>
0.4259

> <Gold.Chemscore.Rot>
1.9449

> <Gold.Chemscore.Internal.Correction>
   9.000000E+99

> <Gold.Chemscore.Hbonds>
donor molecule, donor type, donor heavy atom, donor atom, acceptor molecule, acceptor atom, score
      P1  H  7997  8009       L1    16  0.94
      P1  H 10752 10763       L1    14  0.03

> <Gold.Chemscore.Hbond.Weighted>
-5.8767

> <Gold.Chemscore.Metal.Weighted>
-0.0000

> <Gold.Chemscore.Lipo.Weighted>
-6.8938

> <Gold.Chemscore.Internal_Hbond.Weighted>
0.0000

> <Gold.Chemscore.DEClash.Weighted>
0.1647

> <Gold.Chemscore.DEInternal.Weighted>
0.4259

> <Gold.Chemscore.Rot.Weighted>
4.9791

> <Gold.Chemscore.Internal.Correction.Weighted>
   9.000000E+99

> <Gold.Protein.RotatedTorsions>
[ 6907 6896 6895 6894 ] final  107.53 input  -60.11 | X-H torsion
[ 7974 7965 7964 7962 ] final  -22.07 input  175.53 | X-H torsion
[ 8008 7997 7996 7995 ] final -145.57 input   59.86 | X-H torsion
[ 10167 10162 10161 10158 ] final  -38.15 input  -65.29 | X-H torsion
[ 10718 10713 10712 10709 ] final   90.82 input   66.30 | X-H torsion
[ 10763 10752 10751 10750 ] final   52.63 input  -60.55 | X-H torsion
[ 11005 11000 10999 10996 ] final  161.18 input  -57.11 | X-H torsion

> <Gold.Protein.ActiveResidues>
 VAL166  LYS551  ARG553  GLY616  TRP617  ASP618  TYR619  PRO620  LYS621  CYS622 
 ASP623  PHE694  ASN695  SER759  ASP760  ASP761  ALA762  ILE779  LEU786  VAL792 
 PHE793  MET794  SER795  GLU796  ALA797  LYS798  CYS799  TRP800  GLU811  SER814 

> <Gold.Protein.RotatedAtoms>
  152.5150  133.9222  159.7539 H   0  0  0  0  0  0  0  0  0  0  0  0  # atno 6907 bound_to 6896
  150.9591  133.6457  159.2764 H   0  0  0  0  0  0  0  0  0  0  0  0  # atno 6908 bound_to 6896
  151.3708  135.0927  159.9517 H   0  0  0  0  0  0  0  0  0  0  0  0  # atno 6909 bound_to 6896
  146.1697  140.4428  142.8537 H   0  0  0  0  0  0  0  0  0  0  0  0  # atno 7974 bound_to 7965
  155.5453  140.0612  157.2861 H   0  0  0  0  0  0  0  0  0  0  0  0  # atno 8008 bound_to 7997
  154.4438  140.1912  156.0676 H   0  0  0  0  0  0  0  0  0  0  0  0  # atno 8009 bound_to 7997
  156.0555  140.3279  155.7404 H   0  0  0  0  0  0  0  0  0  0  0  0  # atno 8010 bound_to 7997
  140.7100  143.3296  151.2600 H   0  0  0  0  0  0  0  0  0  0  0  0  # atno 10167 bound_to 10162
  157.6959  131.0385  150.3636 H   0  0  0  0  0  0  0  0  0  0  0  0  # atno 10718 bound_to 10713
  152.9790  135.5806  154.4609 H   0  0  0  0  0  0  0  0  0  0  0  0  # atno 10763 bound_to 10752
  154.4185  135.2771  155.1993 H   0  0  0  0  0  0  0  0  0  0  0  0  # atno 10764 bound_to 10752
  154.3752  135.6159  153.5815 H   0  0  0  0  0  0  0  0  0  0  0  0  # atno 10765 bound_to 10752
  140.2132  134.8251  157.3143 H   0  0  0  0  0  0  0  0  0  0  0  0  # atno 11005 bound_to 11000
  144.8144  140.6442  143.6394 LP  0  0  0  0  0  0  0  0  0  0  0  0  # atno 17320 bound_to 7965
  145.4374  139.1540  143.3989 LP  0  0  0  0  0  0  0  0  0  0  0  0  # atno 17321 bound_to 7965
  139.6774  143.9914  152.2789 LP  0  0  0  0  0  0  0  0  0  0  0  0  # atno 17342 bound_to 10162
  139.9533  144.6606  150.8151 LP  0  0  0  0  0  0  0  0  0  0  0  0  # atno 17343 bound_to 10162
  156.4069  130.3926  149.6919 LP  0  0  0  0  0  0  0  0  0  0  0  0  # atno 17370 bound_to 10713
  156.4217  130.7772  151.2789 LP  0  0  0  0  0  0  0  0  0  0  0  0  # atno 17371 bound_to 10713
  140.1928  134.4350  155.7706 LP  0  0  0  0  0  0  0  0  0  0  0  0  # atno 17394 bound_to 11000
  141.2225  133.7035  156.8055 LP  0  0  0  0  0  0  0  0  0  0  0  0  # atno 17395 bound_to 11000

$$$$
