AV-unprocessed.smi:1971|AV-procd|sdf|7962|dock9
  -GOLD-   2272010133D 1   1.00000     0.00000
 Structure written by MMmdl.
 44 45  0  0  0  0  0  0  0  0  2 V2000
  150.5914  140.4134  157.1889 C   0  0  0  0  0  0  0  0  0  0  0  0
  150.1851  141.8723  156.9367 C   0  0  0  0  0  0  0  0  0  0  0  0
  149.0058  141.9937  156.0436 N   0  3  0  0  0  0  0  0  0  0  0  0
  147.7916  141.3790  156.6344 C   0  0  0  0  0  0  0  0  0  0  0  0
  146.5839  141.5477  155.6892 C   0  0  0  0  0  0  0  0  0  0  0  0
  146.8198  140.9076  154.3870 N   0  0  0  0  0  0  0  0  0  0  0  0
  146.9422  139.4324  154.4062 C   0  0  2  0  0  0  0  0  0  0  0  0
  147.0894  138.8875  152.9658 C   0  0  0  0  0  0  0  0  0  0  0  0
  145.7366  138.7536  155.1142 C   0  0  0  0  0  0  0  0  0  0  0  0
  144.4819  138.9461  154.3926 N   0  0  0  0  0  0  0  0  0  0  0  0
  143.3537  138.2607  154.6306 C   0  0  0  0  0  0  0  0  0  0  0  0
  143.2615  137.3912  155.4985 O   0  0  0  0  0  0  0  0  0  0  0  0
  142.3635  138.6450  153.8064 N   0  0  0  0  0  0  0  0  0  0  0  0
  141.0401  138.1361  153.7298 C   0  0  0  0  0  0  0  0  0  0  0  0
  139.9631  138.8755  153.4390 N   0  0  0  0  0  0  0  0  0  0  0  0
  138.7907  138.1156  153.4378 C   0  0  0  0  0  0  0  0  0  0  0  0
  138.9947  136.7906  153.7331 C   0  0  0  0  0  0  0  0  0  0  0  0
  140.6778  136.4419  154.0248 S   0  0  0  0  0  0  0  0  0  0  0  0
  147.9723  141.6101  153.8026 C   0  0  0  0  0  0  0  0  0  0  0  0
  149.2426  141.4720  154.6727 C   0  0  0  0  0  0  0  0  0  0  0  0
  151.5057  140.3691  157.7812 H   0  0  0  0  0  0  0  0  0  0  0  0
  150.7798  139.8873  156.2524 H   0  0  0  0  0  0  0  0  0  0  0  0
  149.8265  139.8649  157.7378 H   0  0  0  0  0  0  0  0  0  0  0  0
  149.9934  142.3856  157.8802 H   0  0  0  0  0  0  0  0  0  0  0  0
  151.0333  142.3805  156.4758 H   0  0  0  0  0  0  0  0  0  0  0  0
  147.9707  140.3276  156.8638 H   0  0  0  0  0  0  0  0  0  0  0  0
  147.5695  141.8684  157.5832 H   0  0  0  0  0  0  0  0  0  0  0  0
  145.6709  141.1823  156.1545 H   0  0  0  0  0  0  0  0  0  0  0  0
  146.4006  142.6110  155.5276 H   0  0  0  0  0  0  0  0  0  0  0  0
  147.8403  139.1572  154.9559 H   0  0  0  0  0  0  0  0  0  0  0  0
  147.0930  137.7981  152.9438 H   0  0  0  0  0  0  0  0  0  0  0  0
  148.0263  139.1892  152.5004 H   0  0  0  0  0  0  0  0  0  0  0  0
  146.2701  139.2225  152.3289 H   0  0  0  0  0  0  0  0  0  0  0  0
  145.8702  137.6775  155.2151 H   0  0  0  0  0  0  0  0  0  0  0  0
  145.6197  139.1495  156.1235 H   0  0  0  0  0  0  0  0  0  0  0  0
  144.4763  139.6439  153.6628 H   0  0  0  0  0  0  0  0  0  0  0  0
  142.5835  139.3794  153.1499 H   0  0  0  0  0  0  0  0  0  0  0  0
  137.8509  138.5998  153.2164 H   0  0  0  0  0  0  0  0  0  0  0  0
  138.2593  136.0025  153.7965 H   0  0  0  0  0  0  0  0  0  0  0  0
  148.1683  141.2738  152.7864 H   0  0  0  0  0  0  0  0  0  0  0  0
  147.7206  142.6670  153.7020 H   0  0  0  0  0  0  0  0  0  0  0  0
  150.0455  142.0370  154.2007 H   0  0  0  0  0  0  0  0  0  0  0  0
  149.5825  140.4369  154.7147 H   0  0  0  0  0  0  0  0  0  0  0  0
  148.8050  142.9793  155.9522 H   0  0  0  0  0  0  0  0  0  0  0  0
  1  2  1  0  0  0  0
  1 21  1  0  0  0  0
  1 22  1  0  0  0  0
  1 23  1  0  0  0  0
  2  3  1  0  0  0  0
  2 24  1  0  0  0  0
  2 25  1  0  0  0  0
  3 20  1  0  0  0  0
  3  4  1  0  0  0  0
  3 44  1  0  0  0  0
  4  5  1  0  0  0  0
  4 26  1  0  0  0  0
  4 27  1  0  0  0  0
  5  6  1  0  0  0  0
  5 28  1  0  0  0  0
  5 29  1  0  0  0  0
  6  7  1  0  0  0  0
  6 19  1  0  0  0  0
  7  8  1  0  0  0  0
  7  9  1  0  0  0  0
  7 30  1  0  0  0  0
  8 31  1  0  0  0  0
  8 32  1  0  0  0  0
  8 33  1  0  0  0  0
  9 10  1  0  0  0  0
  9 34  1  0  0  0  0
  9 35  1  0  0  0  0
 10 11  1  0  0  0  0
 10 36  1  0  0  0  0
 11 12  2  0  0  0  0
 11 13  1  0  0  0  0
 13 14  1  0  0  0  0
 13 37  1  0  0  0  0
 14 18  1  0  0  0  0
 14 15  2  0  0  0  0
 15 16  1  0  0  0  0
 16 17  2  0  0  0  0
 16 38  1  0  0  0  0
 17 18  1  0  0  0  0
 17 39  1  0  0  0  0
 19 20  1  0  0  0  0
 19 40  1  0  0  0  0
 19 41  1  0  0  0  0
 20 42  1  0  0  0  0
 20 43  1  0  0  0  0
M  CHG  1   3   1
M  END
> <s_m_source_file>
AV-unprocessed.smi

> <i_m_source_file_index>
1971

> <i_lp_mmshare_version>
43012

> <i_f3d_flags>
0

> <s_epik_input>
W0NIM11bQ0gyXU4xW0NIMl1bQ0gyXU4oW0NIMl1bQ0gyXTEpW0NASF0oW0NIM10pW0NIMl1bTkhdQyg9TylbTkhdYzJuW2NIXVtjSF1zMg==

> <s_epik_cmdline>
J2VwaWtfcHl0aG9uJywgJy1waCcsICc3LjAnLCAnLXRuJywgJzgnLCAnLW1hJywgJzIwMCcsICctbWV0YWxfYmluZGluZycsICctaW1hZScsICc8aW5maWxlLm1hZT4nLCAnLW9tYWUnLCAnPG91dGZpbGUubWFlPic=

> <r_lp_tautomer_probability>
0.999

> <r_epik_Ionization_Penalty>
0.0459519

> <r_epik_Ionization_Penalty_Charging>
0.0451959

> <r_epik_Ionization_Penalty_Neutral>
0.000756076

> <r_epik_State_Penalty>
0.165541

> <r_epik_Charging_Adjusted_Penalty>
0.210737

> <i_epik_Tot_Q>
1

> <i_epik_Tot_abs_Q>
1

> <r_epik_Metal_State_Penalty>
0.198809

> <b_epik_Metal_Only>
0

> <s_lp_Force_Field>
OPLS_2005

> <r_lp_Energy>
18.3118

> <b_lp_Chiralities_Consistent>
1

> <s_lp_Variant>
AV-unprocessed.smi:1971-1

> <Gold.Version>
5.8.1

> <Gold.Id.Protein>
6NUR|6NUR_protein|mol2

> <Gold.PLP.Fitness>
40.9371

> <Gold.PLP.PLP>
-29.6267

> <Gold.PLP.part.hbond>
-3.0000

> <Gold.PLP.part.metal>
0.0000

> <Gold.PLP.part.buried>
-3.8966

> <Gold.PLP.part.nonpolar>
-22.7410

> <Gold.PLP.part.repulsive>
0.6126

> <Gold.PLP.ligand.clash>
0.0000

> <Gold.PLP.ligand.torsion>
0.3534

> <Gold.PLP.Chemscore.Hbond>
3.9920

> <Gold.PLP.Chemscore.CHOScore>
0.0000

> <Gold.PLP.Chemscore.Metal>
0.0000

> <Gold.Chemscore.Hbonds>
donor molecule, donor type, donor heavy atom, donor atom, acceptor molecule, acceptor atom, score
      L1  H     3    44       P1  8028  2.00
      L1  H    10    36       P1 10175  0.99
      L1  H    13    37       P1 10175  1.00

> <Gold.PLP.Chemscore.Internal.Correction>
0.0412

> <Gold.Rescore>
     Score         DG    S(hbond)    S(metal)    S(lipo)     H(rot)  DE(clash)    DE(int)     intcor
     18.32     -18.81       2.91        0.00      69.99       1.79       0.12       0.37       ----

> <Gold.Chemscore.Fitness>
18.3170

> <Gold.Chemscore.DG>
-18.8067

> <Gold.Chemscore.ZeroCoef>
-5.4800

> <Gold.Chemscore.Hbond>
2.9130

> <Gold.Chemscore.Metal>
0.0000

> <Gold.Chemscore.Lipo>
69.9943

> <Gold.Chemscore.Internal_Hbond>
0.0000

> <Gold.Chemscore.DEClash>
0.1163

> <Gold.Chemscore.DEInternal>
0.3734

> <Gold.Chemscore.Rot>
1.7937

> <Gold.Chemscore.Internal.Correction>
   9.000000E+99

> <Gold.Chemscore.Hbonds>
donor molecule, donor type, donor heavy atom, donor atom, acceptor molecule, acceptor atom, score
      L1  H     3    44       P1  8028  1.00
      L1  H    10    36       P1 10175  0.93
      L1  H    13    37       P1 10175  0.96

> <Gold.Chemscore.Hbond.Weighted>
-9.7293

> <Gold.Chemscore.Metal.Weighted>
-0.0000

> <Gold.Chemscore.Lipo.Weighted>
-8.1893

> <Gold.Chemscore.Internal_Hbond.Weighted>
0.0000

> <Gold.Chemscore.DEClash.Weighted>
0.1163

> <Gold.Chemscore.DEInternal.Weighted>
0.3734

> <Gold.Chemscore.Rot.Weighted>
4.5919

> <Gold.Chemscore.Internal.Correction.Weighted>
   9.000000E+99

> <Gold.Protein.RotatedTorsions>
[ 6907 6896 6895 6894 ] final  143.81 input  -60.11 | X-H torsion
[ 7974 7965 7964 7962 ] final  104.56 input  175.53 | X-H torsion
[ 8008 7997 7996 7995 ] final  -86.47 input   59.86 | X-H torsion
[ 10167 10162 10161 10158 ] final   12.60 input  -65.29 | X-H torsion
[ 10718 10713 10712 10709 ] final  -57.20 input   66.30 | X-H torsion
[ 10763 10752 10751 10750 ] final  100.44 input  -60.55 | X-H torsion
[ 11005 11000 10999 10996 ] final   56.22 input  -57.11 | X-H torsion

> <Gold.Protein.ActiveResidues>
 VAL166  LYS551  ARG553  GLY616  TRP617  ASP618  TYR619  PRO620  LYS621  CYS622 
 ASP623  PHE694  ASN695  SER759  ASP760  ASP761  ALA762  ILE779  LEU786  VAL792 
 PHE793  MET794  SER795  GLU796  ALA797  LYS798  CYS799  TRP800  GLU811  SER814 

> <Gold.Protein.RotatedAtoms>
  152.2015  133.4845  159.5060 H   0  0  0  0  0  0  0  0  0  0  0  0  # atno 6907 bound_to 6896
  150.6971  134.1584  159.4176 H   0  0  0  0  0  0  0  0  0  0  0  0  # atno 6908 bound_to 6896
  151.9501  135.0173  160.0592 H   0  0  0  0  0  0  0  0  0  0  0  0  # atno 6909 bound_to 6896
  145.3311  139.2486  143.3660 H   0  0  0  0  0  0  0  0  0  0  0  0  # atno 7974 bound_to 7965
  154.6522  140.0578  156.9969 H   0  0  0  0  0  0  0  0  0  0  0  0  # atno 8008 bound_to 7997
  155.1353  140.3260  155.4446 H   0  0  0  0  0  0  0  0  0  0  0  0  # atno 8009 bound_to 7997
  156.2581  140.1973  156.6471 H   0  0  0  0  0  0  0  0  0  0  0  0  # atno 8010 bound_to 7997
  140.6057  143.8512  150.7011 H   0  0  0  0  0  0  0  0  0  0  0  0  # atno 10167 bound_to 10162
  156.1229  130.4165  150.0408 H   0  0  0  0  0  0  0  0  0  0  0  0  # atno 10718 bound_to 10713
  153.3140  135.4078  155.1360 H   0  0  0  0  0  0  0  0  0  0  0  0  # atno 10763 bound_to 10752
  154.8583  135.3571  154.5685 H   0  0  0  0  0  0  0  0  0  0  0  0  # atno 10764 bound_to 10752
  153.6115  135.7067  153.5404 H   0  0  0  0  0  0  0  0  0  0  0  0  # atno 10765 bound_to 10752
  140.0546  134.5688  155.9223 H   0  0  0  0  0  0  0  0  0  0  0  0  # atno 11005 bound_to 11000
  146.3045  140.3889  142.8692 LP  0  0  0  0  0  0  0  0  0  0  0  0  # atno 17320 bound_to 7965
  144.8863  140.7466  143.5955 LP  0  0  0  0  0  0  0  0  0  0  0  0  # atno 17321 bound_to 7965
  140.2069  143.3914  152.1748 LP  0  0  0  0  0  0  0  0  0  0  0  0  # atno 17342 bound_to 10162
  139.5323  144.7173  151.5012 LP  0  0  0  0  0  0  0  0  0  0  0  0  # atno 17343 bound_to 10162
  156.8341  130.9403  151.3635 LP  0  0  0  0  0  0  0  0  0  0  0  0  # atno 17370 bound_to 10713
  157.6412  130.8807  149.9452 LP  0  0  0  0  0  0  0  0  0  0  0  0  # atno 17371 bound_to 10713
  141.1946  133.6583  156.5603 LP  0  0  0  0  0  0  0  0  0  0  0  0  # atno 17394 bound_to 11000
  140.3864  134.7478  157.4694 LP  0  0  0  0  0  0  0  0  0  0  0  0  # atno 17395 bound_to 11000

$$$$
