AV-unprocessed.smi:2644|AV-procd|sdf|10277|dock9
  -GOLD-   2272014293D 1   1.00000     0.00000
 Structure written by MMmdl.
 42 44  0  0  0  0  0  0  0  0  1 V2000
  153.6645  137.1980  163.1423 C   0  0  0  0  0  0  0  0  0  0  0  0
  154.5353  136.5168  162.2509 O   0  0  0  0  0  0  0  0  0  0  0  0
  154.2028  136.4929  160.9136 C   0  0  0  0  0  0  0  0  0  0  0  0
  154.9911  135.6843  160.0701 C   0  0  0  0  0  0  0  0  0  0  0  0
  154.7330  135.6201  158.6882 C   0  0  0  0  0  0  0  0  0  0  0  0
  153.6797  136.3690  158.1328 C   0  0  0  0  0  0  0  0  0  0  0  0
  152.8741  137.1788  158.9610 C   0  0  0  0  0  0  0  0  0  0  0  0
  151.7702  138.0450  158.3651 C   0  0  2  0  0  0  0  0  0  0  0  0
  150.6232  137.2964  158.0165 O   0  0  0  0  0  0  0  0  0  0  0  0
  152.2421  138.8319  157.1192 C   0  0  0  0  0  0  0  0  0  0  0  0
  151.9397  140.2668  157.2132 N   0  0  0  0  0  0  0  0  0  0  0  0
  152.2963  140.8424  158.4202 N   0  0  0  0  0  0  0  0  0  0  0  0
  152.0045  142.0727  158.6883 C   0  0  0  0  0  0  0  0  0  0  0  0
  152.3688  142.5503  160.0100 C   0  0  0  0  0  0  0  0  0  0  0  0
  151.9958  143.7965  160.4484 C   0  0  0  0  0  0  0  0  0  0  0  0
  152.4489  144.0468  161.7784 C   0  0  0  0  0  0  0  0  0  0  0  0
  153.1469  142.9979  162.3260 C   0  0  0  0  0  0  0  0  0  0  0  0
  153.7566  142.9195  163.6844 C   0  0  0  0  0  0  0  0  0  0  0  0
  153.2670  141.6590  161.2113 S   0  0  0  0  0  0  0  0  0  0  0  0
  151.3352  142.8829  157.6808 C   0  0  0  0  0  0  0  0  0  0  0  0
  151.0022  142.3195  156.4994 C   0  0  0  0  0  0  0  0  0  0  0  0
  151.2909  140.9176  156.2044 C   0  0  0  0  0  0  0  0  0  0  0  0
  150.9646  140.3676  155.1529 O   0  0  0  0  0  0  0  0  0  0  0  0
  153.1344  137.2323  160.3476 C   0  0  0  0  0  0  0  0  0  0  0  0
  154.0803  137.1632  164.1491 H   0  0  0  0  0  0  0  0  0  0  0  0
  152.6808  136.7277  163.1757 H   0  0  0  0  0  0  0  0  0  0  0  0
  153.5548  138.2483  162.8674 H   0  0  0  0  0  0  0  0  0  0  0  0
  155.8083  135.1134  160.4859 H   0  0  0  0  0  0  0  0  0  0  0  0
  155.3508  135.0035  158.0523 H   0  0  0  0  0  0  0  0  0  0  0  0
  153.5021  136.3303  157.0681 H   0  0  0  0  0  0  0  0  0  0  0  0
  151.4494  138.7563  159.1270 H   0  0  0  0  0  0  0  0  0  0  0  0
  149.9172  137.5467  158.5928 H   0  0  0  0  0  0  0  0  0  0  0  0
  153.3192  138.7018  156.9957 H   0  0  0  0  0  0  0  0  0  0  0  0
  151.7978  138.4101  156.2156 H   0  0  0  0  0  0  0  0  0  0  0  0
  151.4327  144.5358  159.8997 H   0  0  0  0  0  0  0  0  0  0  0  0
  152.2480  144.9800  162.2839 H   0  0  0  0  0  0  0  0  0  0  0  0
  153.6708  143.8712  164.2094 H   0  0  0  0  0  0  0  0  0  0  0  0
  154.8148  142.6659  163.6199 H   0  0  0  0  0  0  0  0  0  0  0  0
  153.2620  142.1569  164.2862 H   0  0  0  0  0  0  0  0  0  0  0  0
  151.1009  143.9199  157.8619 H   0  0  0  0  0  0  0  0  0  0  0  0
  150.5046  142.9192  155.7514 H   0  0  0  0  0  0  0  0  0  0  0  0
  152.5144  137.8716  160.9575 H   0  0  0  0  0  0  0  0  0  0  0  0
  1  2  1  0  0  0  0
  1 25  1  0  0  0  0
  1 26  1  0  0  0  0
  1 27  1  0  0  0  0
  2  3  1  0  0  0  0
  3 24  1  0  0  0  0
  3  4  2  0  0  0  0
  4  5  1  0  0  0  0
  4 28  1  0  0  0  0
  5  6  2  0  0  0  0
  5 29  1  0  0  0  0
  6  7  1  0  0  0  0
  6 30  1  0  0  0  0
  7  8  1  0  0  0  0
  7 24  2  0  0  0  0
  8  9  1  0  0  0  0
  8 10  1  0  0  0  0
  8 31  1  0  0  0  0
  9 32  1  0  0  0  0
 10 11  1  0  0  0  0
 10 33  1  0  0  0  0
 10 34  1  0  0  0  0
 11 22  1  0  0  0  0
 11 12  1  0  0  0  0
 12 13  2  0  0  0  0
 13 14  1  0  0  0  0
 13 20  1  0  0  0  0
 14 19  1  0  0  0  0
 14 15  2  0  0  0  0
 15 16  1  0  0  0  0
 15 35  1  0  0  0  0
 16 17  2  0  0  0  0
 16 36  1  0  0  0  0
 17 18  1  0  0  0  0
 17 19  1  0  0  0  0
 18 37  1  0  0  0  0
 18 38  1  0  0  0  0
 18 39  1  0  0  0  0
 20 21  2  0  0  0  0
 20 40  1  0  0  0  0
 21 22  1  0  0  0  0
 21 41  1  0  0  0  0
 22 23  2  0  0  0  0
 24 42  1  0  0  0  0
M  END
> <s_m_source_file>
AV-unprocessed.smi

> <i_m_source_file_index>
2644

> <i_lp_mmshare_version>
43012

> <i_f3d_flags>
0

> <s_epik_input>
W0NIM11PYzFbY0hdW2NIXVtjSF1jKFtjSF0xKVtDQEhdKFtPSF0pW0NIMl1uMm5jKFtjSF1bY0hdYzI9TyktYzNbY0hdW2NIXWMoczMpW0NIM10=

> <s_epik_cmdline>
J2VwaWtfcHl0aG9uJywgJy1waCcsICc3LjAnLCAnLXRuJywgJzgnLCAnLW1hJywgJzIwMCcsICctbWV0YWxfYmluZGluZycsICctaW1hZScsICc8aW5maWxlLm1hZT4nLCAnLW9tYWUnLCAnPG91dGZpbGUubWFlPic=

> <r_lp_tautomer_probability>
1

> <r_epik_Ionization_Penalty>
1.30631e-07

> <r_epik_Ionization_Penalty_Charging>
5.89185e-08

> <r_epik_Ionization_Penalty_Neutral>
7.1713e-08

> <r_epik_State_Penalty>
-0

> <r_epik_Charging_Adjusted_Penalty>
5.89185e-08

> <i_epik_Tot_Q>
0

> <i_epik_Tot_abs_Q>
0

> <r_epik_Metal_State_Penalty>
-0

> <b_epik_Metal_Only>
0

> <s_lp_Force_Field>
OPLS_2005

> <r_lp_Energy>
28.4714

> <b_lp_Chiralities_Consistent>
1

> <s_lp_Variant>
AV-unprocessed.smi:2644-1

> <Gold.Version>
5.8.1

> <Gold.Id.Protein>
6NUR|6NUR_protein|mol2

> <Gold.PLP.Fitness>
49.8653

> <Gold.PLP.PLP>
-49.1824

> <Gold.PLP.part.hbond>
-1.0000

> <Gold.PLP.part.metal>
0.0000

> <Gold.PLP.part.buried>
-7.2904

> <Gold.PLP.part.nonpolar>
-39.2382

> <Gold.PLP.part.repulsive>
0.0441

> <Gold.PLP.ligand.clash>
0.0000

> <Gold.PLP.ligand.torsion>
1.1917

> <Gold.PLP.Chemscore.Hbond>
1.0000

> <Gold.PLP.Chemscore.CHOScore>
0.0000

> <Gold.PLP.Chemscore.Metal>
0.0000

> <Gold.Chemscore.Hbonds>
donor molecule, donor type, donor heavy atom, donor atom, acceptor molecule, acceptor atom, score
      P1  H  7989  7998       L1    23  1.00

> <Gold.PLP.Chemscore.Internal.Correction>
0.0664

> <Gold.Rescore>
     Score         DG    S(hbond)    S(metal)    S(lipo)     H(rot)  DE(clash)    DE(int)     intcor
     19.09     -20.04       0.98        0.00     139.78       1.98       0.02       0.93       ----

> <Gold.Chemscore.Fitness>
19.0949

> <Gold.Chemscore.DG>
-20.0382

> <Gold.Chemscore.ZeroCoef>
-5.4800

> <Gold.Chemscore.Hbond>
0.9779

> <Gold.Chemscore.Metal>
0.0000

> <Gold.Chemscore.Lipo>
139.7843

> <Gold.Chemscore.Internal_Hbond>
0.0000

> <Gold.Chemscore.DEClash>
0.0155

> <Gold.Chemscore.DEInternal>
0.9279

> <Gold.Chemscore.Rot>
1.9777

> <Gold.Chemscore.Internal.Correction>
   9.000000E+99

> <Gold.Chemscore.Hbonds>
donor molecule, donor type, donor heavy atom, donor atom, acceptor molecule, acceptor atom, score
      P1  H  7989  7998       L1    23  0.96

> <Gold.Chemscore.Hbond.Weighted>
-3.2663

> <Gold.Chemscore.Metal.Weighted>
-0.0000

> <Gold.Chemscore.Lipo.Weighted>
-16.3548

> <Gold.Chemscore.Internal_Hbond.Weighted>
0.0000

> <Gold.Chemscore.DEClash.Weighted>
0.0155

> <Gold.Chemscore.DEInternal.Weighted>
0.9279

> <Gold.Chemscore.Rot.Weighted>
5.0629

> <Gold.Chemscore.Internal.Correction.Weighted>
   9.000000E+99

> <Gold.Protein.RotatedTorsions>
[ 6907 6896 6895 6894 ] final  -50.70 input  -60.11 | X-H torsion
[ 7974 7965 7964 7962 ] final   99.77 input  175.53 | X-H torsion
[ 8008 7997 7996 7995 ] final -172.81 input   59.86 | X-H torsion
[ 10167 10162 10161 10158 ] final  -50.64 input  -65.29 | X-H torsion
[ 10718 10713 10712 10709 ] final  -32.00 input   66.30 | X-H torsion
[ 10763 10752 10751 10750 ] final -162.58 input  -60.55 | X-H torsion
[ 11005 11000 10999 10996 ] final  -34.90 input  -57.11 | X-H torsion

> <Gold.Protein.ActiveResidues>
 VAL166  LYS551  ARG553  GLY616  TRP617  ASP618  TYR619  PRO620  LYS621  CYS622 
 ASP623  PHE694  ASN695  SER759  ASP760  ASP761  ALA762  ILE779  LEU786  VAL792 
 PHE793  MET794  SER795  GLU796  ALA797  LYS798  CYS799  TRP800  GLU811  SER814 

> <Gold.Protein.RotatedAtoms>
  150.8682  134.8049  159.7134 H   0  0  0  0  0  0  0  0  0  0  0  0  # atno 6907 bound_to 6896
  152.4696  134.4990  159.9728 H   0  0  0  0  0  0  0  0  0  0  0  0  # atno 6908 bound_to 6896
  151.5083  133.3452  159.2916 H   0  0  0  0  0  0  0  0  0  0  0  0  # atno 6909 bound_to 6896
  145.3944  139.2357  143.3334 H   0  0  0  0  0  0  0  0  0  0  0  0  # atno 7974 bound_to 7965
  155.9494  140.1123  157.0989 H   0  0  0  0  0  0  0  0  0  0  0  0  # atno 8008 bound_to 7997
  154.4106  140.1203  156.5099 H   0  0  0  0  0  0  0  0  0  0  0  0  # atno 8009 bound_to 7997
  155.6861  140.3473  155.4877 H   0  0  0  0  0  0  0  0  0  0  0  0  # atno 8010 bound_to 7997
  140.6628  143.2650  151.4388 H   0  0  0  0  0  0  0  0  0  0  0  0  # atno 10167 bound_to 10162
  156.3803  130.4355  149.7474 H   0  0  0  0  0  0  0  0  0  0  0  0  # atno 10718 bound_to 10713
  154.7201  135.3024  154.9060 H   0  0  0  0  0  0  0  0  0  0  0  0  # atno 10763 bound_to 10752
  153.9935  135.6716  153.4759 H   0  0  0  0  0  0  0  0  0  0  0  0  # atno 10764 bound_to 10752
  153.0827  135.5000  154.8452 H   0  0  0  0  0  0  0  0  0  0  0  0  # atno 10765 bound_to 10752
  140.9753  133.7086  156.1592 H   0  0  0  0  0  0  0  0  0  0  0  0  # atno 11005 bound_to 11000
  146.2782  140.4632  142.8787 LP  0  0  0  0  0  0  0  0  0  0  0  0  # atno 17320 bound_to 7965
  144.8418  140.6868  143.6225 LP  0  0  0  0  0  0  0  0  0  0  0  0  # atno 17321 bound_to 7965
  139.5866  144.1590  152.2037 LP  0  0  0  0  0  0  0  0  0  0  0  0  # atno 17342 bound_to 10162
  140.0932  144.5603  150.7040 LP  0  0  0  0  0  0  0  0  0  0  0  0  # atno 17343 bound_to 10162
  156.4568  130.7933  151.2953 LP  0  0  0  0  0  0  0  0  0  0  0  0  # atno 17370 bound_to 10713
  157.7492  131.0078  150.3205 LP  0  0  0  0  0  0  0  0  0  0  0  0  # atno 17371 bound_to 10713
  140.7268  134.4298  157.5570 LP  0  0  0  0  0  0  0  0  0  0  0  0  # atno 17394 bound_to 11000
  139.8928  134.8746  156.2254 LP  0  0  0  0  0  0  0  0  0  0  0  0  # atno 17395 bound_to 11000

$$$$
